QFE.pdb
     RDKit          3D

 30 30  0  0  1  0  0  0  0  0999 V2000
   23.5309  -31.6751  -18.6937 N   0  0  0  0  0  0  0  0  0  0  0  0
   23.9967  -32.1786  -19.9318 C   0  0  0  0  0  0  0  0  0  0  0  0
   23.7158  -31.5580  -20.9777 O   0  0  0  0  0  0  0  0  0  0  0  0
   24.8055  -33.4179  -20.0156 C   0  0  0  0  0  0  0  0  0  0  0  0
   25.1018  -33.9402  -18.6486 C   0  0  0  0  0  0  0  0  0  0  0  0
   26.2716  -33.2928  -17.9900 C   0  0  2  0  0  0  0  0  0  0  0  0
   27.5439  -33.8114  -18.4410 N   0  0  0  0  0  0  0  0  0  0  0  0
   26.1075  -33.4769  -16.5107 C   0  0  0  0  0  0  0  0  0  0  0  0
   26.6256  -34.5451  -16.0468 O   0  0  0  0  0  0  0  0  0  0  0  0
   25.4353  -32.5492  -15.6855 N   0  0  0  0  0  0  0  0  0  0  0  0
   25.3383  -32.7467  -14.2752 C   0  0  1  0  0  0  0  0  0  0  0  0
   25.3393  -31.4536  -13.4949 C   0  0  0  0  0  0  0  0  0  0  0  0
   25.2381  -31.6579  -12.0448 C   0  0  0  0  0  0  0  0  0  0  0  0
   24.0833  -31.3190  -11.3899 C   0  0  0  0  0  0  0  0  0  0  0  0
   24.0232  -31.5255  -10.0185 C   0  0  0  0  0  0  0  0  0  0  0  0
   25.0788  -32.0545   -9.3092 C   0  0  0  0  0  0  0  0  0  0  0  0
   26.2378  -32.3939   -9.9715 C   0  0  0  0  0  0  0  0  0  0  0  0
   26.3012  -32.1867  -11.3542 C   0  0  0  0  0  0  0  0  0  0  0  0
   24.0965  -33.4859  -13.8924 C   0  0  0  0  0  0  0  0  0  0  0  0
   23.0008  -33.1179  -14.3459 O   0  0  0  0  0  0  0  0  0  0  0  0
   24.1473  -34.5837  -13.0335 N   0  0  0  0  0  0  0  0  0  0  0  0
   22.9949  -35.3847  -12.6239 C   0  0  1  0  0  0  0  0  0  0  0  0
   23.0727  -36.7710  -13.1251 C   0  0  0  0  0  0  0  0  0  0  0  0
   22.4649  -36.8887  -14.4942 C   0  0  0  0  0  0  0  0  0  0  0  0
   21.3995  -37.9344  -14.5283 C   0  0  0  0  0  0  0  0  0  0  0  0
   21.6743  -39.0663  -14.0695 O   0  0  0  0  0  0  0  0  0  0  0  0
   22.8867  -35.2345  -11.1663 C   0  0  0  0  0  0  0  0  0  0  0  0
   23.9595  -35.5058  -10.3207 O   0  0  0  0  0  0  0  0  0  0  0  0
   20.1431  -37.7044  -15.0383 O   0  0  0  0  0  0  0  0  0  0  0  0
   21.8353  -34.8585  -10.6117 O   0  0  0  0  0  0  0  0  0  0  0  0
  2  1  1  0
  3  2  2  0
  4  2  1  0
  5  4  1  0
  6  5  1  0
  6  7  1  6
  8  6  1  0
  8  9  2  0
 10  8  1  0
 11 10  1  0
 11 12  1  1
 13 14  2  0
 13 12  1  0
 15 14  1  0
 16 15  2  0
 17 16  1  0
 17 18  2  0
 18 13  1  0
 19 11  1  0
 20 19  2  0
 21 19  1  0
 22 23  1  1
 22 21  1  0
 24 25  1  0
 24 23  1  0
 25 29  1  0
 26 25  2  0
 27 22  1  0
 27 28  1  0
 30 27  2  0
M  END
$$$$
