QFE.pdb
     RDKit          3D

 30 30  0  0  1  0  0  0  0  0999 V2000
   27.6302  -18.8924  -19.0896 N   0  0  0  0  0  0  0  0  0  0  0  0
   27.8194  -19.8972  -20.0683 C   0  0  0  0  0  0  0  0  0  0  0  0
   28.3944  -19.5977  -21.1349 O   0  0  0  0  0  0  0  0  0  0  0  0
   27.3536  -21.2886  -19.8583 C   0  0  0  0  0  0  0  0  0  0  0  0
   26.7364  -21.4331  -18.5065 C   0  0  0  0  0  0  0  0  0  0  0  0
   27.7221  -21.4889  -17.3900 C   0  0  2  0  0  0  0  0  0  0  0  0
   28.7472  -22.4912  -17.5790 N   0  0  0  0  0  0  0  0  0  0  0  0
   26.9512  -21.7368  -16.1277 C   0  0  0  0  0  0  0  0  0  0  0  0
   26.5439  -22.9353  -15.9797 O   0  0  0  0  0  0  0  0  0  0  0  0
   26.6901  -20.7319  -15.1708 N   0  0  0  0  0  0  0  0  0  0  0  0
   25.8380  -20.9776  -14.0525 C   0  0  1  0  0  0  0  0  0  0  0  0
   26.0313  -19.9844  -12.9313 C   0  0  0  0  0  0  0  0  0  0  0  0
   25.3180  -20.3578  -11.7039 C   0  0  0  0  0  0  0  0  0  0  0  0
   25.9205  -21.1851  -10.7930 C   0  0  0  0  0  0  0  0  0  0  0  0
   25.2162  -21.5176   -9.6439 C   0  0  0  0  0  0  0  0  0  0  0  0
   23.9459  -21.0445   -9.3991 C   0  0  0  0  0  0  0  0  0  0  0  0
   23.3440  -20.2131  -10.3176 C   0  0  0  0  0  0  0  0  0  0  0  0
   24.0518  -19.8762  -11.4769 C   0  0  0  0  0  0  0  0  0  0  0  0
   24.3907  -20.9377  -14.4255 C   0  0  0  0  0  0  0  0  0  0  0  0
   23.9683  -20.0151  -15.1409 O   0  0  0  0  0  0  0  0  0  0  0  0
   23.5054  -21.9207  -13.9835 N   0  0  0  0  0  0  0  0  0  0  0  0
   22.0858  -21.9891  -14.3263 C   0  0  1  0  0  0  0  0  0  0  0  0
   21.6177  -23.3796  -14.4892 C   0  0  0  0  0  0  0  0  0  0  0  0
   20.1525  -23.4244  -14.8190 C   0  0  0  0  0  0  0  0  0  0  0  0
   19.7828  -24.7113  -15.4801 C   0  0  0  0  0  0  0  0  0  0  0  0
   20.1844  -24.9058  -16.6497 O   0  0  0  0  0  0  0  0  0  0  0  0
   21.3798  -21.1885  -13.3165 C   0  0  0  0  0  0  0  0  0  0  0  0
   20.2668  -20.4169  -13.6412 O   0  0  0  0  0  0  0  0  0  0  0  0
   19.0272  -25.6792  -14.8608 O   0  0  0  0  0  0  0  0  0  0  0  0
   21.7370  -21.1571  -12.1224 O   0  0  0  0  0  0  0  0  0  0  0  0
  2  1  1  0
  3  2  2  0
  4  2  1  0
  5  4  1  0
  6  5  1  0
  6  7  1  6
  8  6  1  0
  8  9  2  0
 10  8  1  0
 11 10  1  0
 11 12  1  1
 13 14  2  0
 13 12  1  0
 15 14  1  0
 16 15  2  0
 17 16  1  0
 17 18  2  0
 18 13  1  0
 19 11  1  0
 20 19  2  0
 21 19  1  0
 22 23  1  1
 22 21  1  0
 24 25  1  0
 24 23  1  0
 25 29  1  0
 26 25  2  0
 27 22  1  0
 27 28  1  0
 30 27  2  0
M  END
$$$$
