QFE.pdb
     RDKit          3D

 30 30  0  0  1  0  0  0  0  0999 V2000
   28.3590  -19.4484  -19.0141 N   0  0  0  0  0  0  0  0  0  0  0  0
   26.9514  -19.3850  -18.8798 C   0  0  0  0  0  0  0  0  0  0  0  0
   26.2647  -19.0839  -19.8777 O   0  0  0  0  0  0  0  0  0  0  0  0
   26.2772  -19.6659  -17.5901 C   0  0  0  0  0  0  0  0  0  0  0  0
   27.2859  -19.8729  -16.5090 C   0  0  0  0  0  0  0  0  0  0  0  0
   27.4627  -21.2969  -16.1059 C   0  0  2  0  0  0  0  0  0  0  0  0
   26.9511  -22.2365  -17.0787 N   0  0  0  0  0  0  0  0  0  0  0  0
   26.7855  -21.4711  -14.7792 C   0  0  0  0  0  0  0  0  0  0  0  0
   25.6096  -21.9586  -14.8420 O   0  0  0  0  0  0  0  0  0  0  0  0
   27.3905  -21.1270  -13.5507 N   0  0  0  0  0  0  0  0  0  0  0  0
   26.6610  -21.1812  -12.3251 C   0  0  1  0  0  0  0  0  0  0  0  0
   27.5040  -20.8414  -11.1189 C   0  0  0  0  0  0  0  0  0  0  0  0
   26.7064  -20.5989   -9.9107 C   0  0  0  0  0  0  0  0  0  0  0  0
   26.9963  -19.5262   -9.1091 C   0  0  0  0  0  0  0  0  0  0  0  0
   26.2215  -19.3280   -7.9745 C   0  0  0  0  0  0  0  0  0  0  0  0
   25.1840  -20.1693   -7.6383 C   0  0  0  0  0  0  0  0  0  0  0  0
   24.8961  -21.2464   -8.4469 C   0  0  0  0  0  0  0  0  0  0  0  0
   25.6755  -21.4487   -9.5914 C   0  0  0  0  0  0  0  0  0  0  0  0
   25.4951  -20.2453  -12.3197 C   0  0  0  0  0  0  0  0  0  0  0  0
   25.6941  -19.0198  -12.3166 O   0  0  0  0  0  0  0  0  0  0  0  0
   24.1857  -20.7256  -12.3185 N   0  0  0  0  0  0  0  0  0  0  0  0
   22.9848  -19.8927  -12.2804 C   0  0  1  0  0  0  0  0  0  0  0  0
   22.6562  -19.3268  -13.6037 C   0  0  0  0  0  0  0  0  0  0  0  0
   22.3271  -20.4103  -14.5913 C   0  0  0  0  0  0  0  0  0  0  0  0
   22.6805  -20.0028  -15.9837 C   0  0  0  0  0  0  0  0  0  0  0  0
   22.5845  -20.8629  -16.8883 O   0  0  0  0  0  0  0  0  0  0  0  0
   21.9369  -20.7102  -11.6540 C   0  0  0  0  0  0  0  0  0  0  0  0
   22.1198  -22.0678  -11.4025 O   0  0  0  0  0  0  0  0  0  0  0  0
   23.1024  -18.7343  -16.3066 O   0  0  0  0  0  0  0  0  0  0  0  0
   20.8346  -20.2356  -11.3161 O   0  0  0  0  0  0  0  0  0  0  0  0
  2  1  1  0
  3  2  2  0
  4  2  1  0
  5  4  1  0
  6  5  1  0
  6  7  1  6
  8  6  1  0
  8  9  2  0
 10  8  1  0
 11 10  1  0
 11 12  1  1
 13 14  2  0
 13 12  1  0
 15 14  1  0
 16 15  2  0
 17 16  1  0
 17 18  2  0
 18 13  1  0
 19 11  1  0
 20 19  2  0
 21 19  1  0
 22 23  1  6
 22 21  1  0
 24 25  1  0
 24 23  1  0
 25 29  1  0
 26 25  2  0
 27 22  1  0
 27 28  1  0
 30 27  2  0
M  END
$$$$
