QFE.pdb
     RDKit          3D

 30 30  0  0  1  0  0  0  0  0999 V2000
   21.1235  -13.2815  -21.0816 N   0  0  0  0  0  0  0  0  0  0  0  0
   22.3587  -13.0980  -21.7477 C   0  0  0  0  0  0  0  0  0  0  0  0
   23.0449  -14.1016  -22.0305 O   0  0  0  0  0  0  0  0  0  0  0  0
   22.8542  -11.7503  -22.1156 C   0  0  0  0  0  0  0  0  0  0  0  0
   21.9208  -10.6976  -21.6158 C   0  0  0  0  0  0  0  0  0  0  0  0
   22.6020   -9.4931  -21.0622 C   0  0  2  0  0  0  0  0  0  0  0  0
   24.0379   -9.6371  -20.9704 N   0  0  0  0  0  0  0  0  0  0  0  0
   21.9997   -9.2205  -19.7161 C   0  0  0  0  0  0  0  0  0  0  0  0
   20.7699   -8.8867  -19.7412 O   0  0  0  0  0  0  0  0  0  0  0  0
   22.7252   -9.3218  -18.5090 N   0  0  0  0  0  0  0  0  0  0  0  0
   22.1031   -9.0764  -17.2482 C   0  0  1  0  0  0  0  0  0  0  0  0
   22.6021   -9.9901  -16.1539 C   0  0  0  0  0  0  0  0  0  0  0  0
   21.9448   -9.7525  -14.8631 C   0  0  0  0  0  0  0  0  0  0  0  0
   22.6629   -9.2259  -13.8218 C   0  0  0  0  0  0  0  0  0  0  0  0
   22.0089   -9.0151  -12.6156 C   0  0  0  0  0  0  0  0  0  0  0  0
   20.6764   -9.3170  -12.4408 C   0  0  0  0  0  0  0  0  0  0  0  0
   19.9583   -9.8461  -13.4903 C   0  0  0  0  0  0  0  0  0  0  0  0
   20.6151  -10.0597  -14.7075 C   0  0  0  0  0  0  0  0  0  0  0  0
   22.3168   -7.6739  -16.7762 C   0  0  0  0  0  0  0  0  0  0  0  0
   23.4518   -7.1743  -16.8361 O   0  0  0  0  0  0  0  0  0  0  0  0
   21.2616   -6.9157  -16.2694 N   0  0  0  0  0  0  0  0  0  0  0  0
   21.3785   -5.5543  -15.7493 C   0  0  1  0  0  0  0  0  0  0  0  0
   20.7013   -4.5671  -16.6131 C   0  0  0  0  0  0  0  0  0  0  0  0
   20.8470   -3.1756  -16.0654 C   0  0  0  0  0  0  0  0  0  0  0  0
   20.0506   -2.1926  -16.8586 C   0  0  0  0  0  0  0  0  0  0  0  0
   20.0095   -1.0088  -16.4536 O   0  0  0  0  0  0  0  0  0  0  0  0
   20.9214   -5.6064  -14.3539 C   0  0  0  0  0  0  0  0  0  0  0  0
   19.8224   -6.3717  -13.9715 O   0  0  0  0  0  0  0  0  0  0  0  0
   19.3688   -2.5338  -18.0032 O   0  0  0  0  0  0  0  0  0  0  0  0
   21.4892   -4.9722  -13.4429 O   0  0  0  0  0  0  0  0  0  0  0  0
  2  1  1  0
  3  2  2  0
  4  2  1  0
  5  4  1  0
  6  5  1  0
  6  7  1  1
  8  6  1  0
  8  9  2  0
 10  8  1  0
 11 10  1  0
 11 12  1  1
 13 14  2  0
 13 12  1  0
 15 14  1  0
 16 15  2  0
 17 16  1  0
 17 18  2  0
 18 13  1  0
 19 11  1  0
 20 19  2  0
 21 19  1  0
 22 23  1  6
 22 21  1  0
 24 25  1  0
 24 23  1  0
 25 29  1  0
 26 25  2  0
 27 22  1  0
 27 28  1  0
 30 27  2  0
M  END
$$$$
