QFE.pdb
     RDKit          3D

 30 30  0  0  1  0  0  0  0  0999 V2000
   27.4240  -18.6939  -17.3327 N   0  0  0  0  0  0  0  0  0  0  0  0
   28.2316  -17.7522  -16.6513 C   0  0  0  0  0  0  0  0  0  0  0  0
   28.9146  -16.9496  -17.3200 O   0  0  0  0  0  0  0  0  0  0  0  0
   28.2853  -17.6966  -15.1711 C   0  0  0  0  0  0  0  0  0  0  0  0
   27.3073  -18.6562  -14.5777 C   0  0  0  0  0  0  0  0  0  0  0  0
   27.9316  -19.7306  -13.7547 C   0  0  2  0  0  0  0  0  0  0  0  0
   28.8259  -20.5828  -14.5062 N   0  0  0  0  0  0  0  0  0  0  0  0
   26.8174  -20.5252  -13.1411 C   0  0  0  0  0  0  0  0  0  0  0  0
   26.5049  -21.5836  -13.7787 O   0  0  0  0  0  0  0  0  0  0  0  0
   26.1584  -20.1431  -11.9522 N   0  0  0  0  0  0  0  0  0  0  0  0
   25.0975  -20.9280  -11.4085 C   0  0  1  0  0  0  0  0  0  0  0  0
   25.0350  -20.8753   -9.9004 C   0  0  0  0  0  0  0  0  0  0  0  0
   26.3559  -20.7369   -9.2753 C   0  0  0  0  0  0  0  0  0  0  0  0
   27.3673  -21.5912   -9.6281 C   0  0  0  0  0  0  0  0  0  0  0  0
   28.6031  -21.4313   -9.0164 C   0  0  0  0  0  0  0  0  0  0  0  0
   28.8357  -20.4506   -8.0776 C   0  0  0  0  0  0  0  0  0  0  0  0
   27.8161  -19.5939   -7.7259 C   0  0  0  0  0  0  0  0  0  0  0  0
   26.5692  -19.7528   -8.3411 C   0  0  0  0  0  0  0  0  0  0  0  0
   23.7587  -20.4970  -11.9156 C   0  0  0  0  0  0  0  0  0  0  0  0
   23.4637  -19.2910  -11.9161 O   0  0  0  0  0  0  0  0  0  0  0  0
   22.8341  -21.4276  -12.3894 N   0  0  0  0  0  0  0  0  0  0  0  0
   21.6478  -21.1058  -13.1810 C   0  0  1  0  0  0  0  0  0  0  0  0
   21.4871  -22.0090  -14.3375 C   0  0  0  0  0  0  0  0  0  0  0  0
   21.2751  -23.4285  -13.8929 C   0  0  0  0  0  0  0  0  0  0  0  0
   20.3090  -24.1387  -14.7828 C   0  0  0  0  0  0  0  0  0  0  0  0
   20.6968  -24.4637  -15.9279 O   0  0  0  0  0  0  0  0  0  0  0  0
   20.5222  -21.0651  -12.2373 C   0  0  0  0  0  0  0  0  0  0  0  0
   19.2861  -20.5322  -12.5947 O   0  0  0  0  0  0  0  0  0  0  0  0
   19.0250  -24.4458  -14.3974 O   0  0  0  0  0  0  0  0  0  0  0  0
   20.6128  -21.5026  -11.0734 O   0  0  0  0  0  0  0  0  0  0  0  0
  2  1  1  0
  3  2  2  0
  4  2  1  0
  5  4  1  0
  6  5  1  0
  6  7  1  6
  8  6  1  0
  8  9  2  0
 10  8  1  0
 11 10  1  0
 11 12  1  1
 13 14  2  0
 13 12  1  0
 15 14  1  0
 16 15  2  0
 17 16  1  0
 17 18  2  0
 18 13  1  0
 19 11  1  0
 20 19  2  0
 21 19  1  0
 22 23  1  6
 22 21  1  0
 24 25  1  0
 24 23  1  0
 25 29  1  0
 26 25  2  0
 27 22  1  0
 27 28  1  0
 30 27  2  0
M  END
$$$$
