SNV.pdb
     RDKit          3D

 22 21  0  0  1  0  0  0  0  0999 V2000
   14.5800   -7.9629  -18.1607 O   0  0  0  0  0  0  0  0  0  0  0  0
   15.3633   -8.1057  -17.0180 C   0  0  0  0  0  0  0  0  0  0  0  0
   16.6014   -8.8710  -17.4075 C   0  0  2  0  0  0  0  0  0  0  0  0
   16.2338  -10.2377  -17.6602 N   0  0  0  0  0  0  0  0  0  0  0  0
   17.6212   -8.8718  -16.3289 C   0  0  0  0  0  0  0  0  0  0  0  0
   17.6395   -9.7232  -15.3966 O   0  0  0  0  0  0  0  0  0  0  0  0
   21.8901   -7.9872  -13.7236 N   0  0  0  0  0  0  0  0  0  0  0  0
   21.6977   -9.0574  -14.6371 C   0  0  0  0  0  0  0  0  0  0  0  0
   22.5068   -9.9926  -14.6860 O   0  0  0  0  0  0  0  0  0  0  0  0
   20.5284   -9.0348  -15.5177 C   0  0  0  0  0  0  0  0  0  0  0  0
   19.7040   -7.7958  -15.4092 C   0  0  2  0  0  0  0  0  0  0  0  0
   18.6240   -7.8663  -16.3469 N   0  0  0  0  0  0  0  0  0  0  0  0
   20.6124   -6.6298  -15.7177 C   0  0  0  0  0  0  0  0  0  0  0  0
   21.2031   -6.5608  -16.8231 O   0  0  0  0  0  0  0  0  0  0  0  0
   19.9419   -2.9623  -13.9280 C   0  0  0  0  0  0  0  0  0  0  0  0
   20.7580   -3.1920  -15.1764 C   0  0  2  0  0  0  0  0  0  0  0  0
   19.7630   -3.4952  -16.2942 C   0  0  0  0  0  0  0  0  0  0  0  0
   21.5922   -4.4081  -14.9749 C   0  0  2  0  0  0  0  0  0  0  0  0
   20.8039   -5.6018  -14.7561 N   0  0  0  0  0  0  0  0  0  0  0  0
   22.5984   -4.2807  -13.8913 C   0  0  0  0  0  0  0  0  0  0  0  0
   22.5599   -5.0258  -12.7306 O   0  0  0  0  0  0  0  0  0  0  0  0
   23.5311   -3.4616  -14.0252 O   0  0  0  0  0  0  0  0  0  0  0  0
  1  2  1  0
  3  4  1  1
  3  2  1  0
  3  5  1  0
  5 12  1  0
  5  6  2  0
  8  9  2  0
  8  7  1  0
 10  8  1  0
 11 10  1  6
 11 13  1  0
 12 11  1  0
 13 14  2  0
 13 19  1  0
 16 15  1  1
 16 17  1  0
 18 20  1  0
 18 16  1  0
 18 19  1  1
 20 21  1  0
 22 20  2  0
M  END
$$$$
