SNV.pdb
     RDKit          3D

 22 21  0  0  1  0  0  0  0  0999 V2000
   22.7875  -13.8919  -21.2643 O   0  0  0  0  0  0  0  0  0  0  0  0
   22.6315  -13.0768  -20.1458 C   0  0  0  0  0  0  0  0  0  0  0  0
   23.7136  -13.4412  -19.1626 C   0  0  2  0  0  0  0  0  0  0  0  0
   23.4326  -14.7494  -18.6371 N   0  0  0  0  0  0  0  0  0  0  0  0
   23.7691  -12.4988  -18.0171 C   0  0  0  0  0  0  0  0  0  0  0  0
   22.9859  -12.5664  -17.0289 O   0  0  0  0  0  0  0  0  0  0  0  0
   26.3696  -12.1173  -15.2762 N   0  0  0  0  0  0  0  0  0  0  0  0
   27.0895  -11.0923  -15.9456 C   0  0  0  0  0  0  0  0  0  0  0  0
   28.3085  -10.9673  -15.7724 O   0  0  0  0  0  0  0  0  0  0  0  0
   26.3660  -10.1886  -16.8419 C   0  0  0  0  0  0  0  0  0  0  0  0
   24.9155  -10.5055  -16.9905 C   0  0  2  0  0  0  0  0  0  0  0  0
   24.7503  -11.4723  -18.0339 N   0  0  0  0  0  0  0  0  0  0  0  0
   24.2120   -9.2142  -17.3338 C   0  0  0  0  0  0  0  0  0  0  0  0
   24.5759   -8.5379  -18.3267 O   0  0  0  0  0  0  0  0  0  0  0  0
   20.1365   -6.9673  -17.8966 C   0  0  0  0  0  0  0  0  0  0  0  0
   21.0063   -8.1612  -17.5882 C   0  0  2  0  0  0  0  0  0  0  0  0
   20.2261   -9.0203  -16.5960 C   0  0  0  0  0  0  0  0  0  0  0  0
   22.2350   -7.6814  -16.8987 C   0  0  2  0  0  0  0  0  0  0  0  0
   23.1317   -8.7566  -16.5328 N   0  0  0  0  0  0  0  0  0  0  0  0
   21.9713   -6.8370  -15.7069 C   0  0  0  0  0  0  0  0  0  0  0  0
   21.6519   -5.4969  -15.7838 O   0  0  0  0  0  0  0  0  0  0  0  0
   22.0387   -7.3541  -14.5724 O   0  0  0  0  0  0  0  0  0  0  0  0
  1  2  1  0
  3  4  1  1
  3  2  1  0
  3  5  1  0
  5 12  1  0
  5  6  2  0
  8  9  2  0
  8  7  1  0
 10  8  1  0
 11 10  1  6
 11 13  1  0
 12 11  1  0
 13 14  2  0
 13 19  1  0
 16 15  1  1
 16 17  1  0
 18 20  1  0
 18 16  1  0
 18 19  1  1
 20 21  1  0
 22 20  2  0
M  END
$$$$
