SNV.pdb
     RDKit          3D

 22 21  0  0  1  0  0  0  0  0999 V2000
   14.3405   -9.3563  -16.7617 O   0  0  0  0  0  0  0  0  0  0  0  0
   15.4711   -9.1042  -15.9885 C   0  0  0  0  0  0  0  0  0  0  0  0
   16.4057  -10.2745  -16.1537 C   0  0  2  0  0  0  0  0  0  0  0  0
   15.8776  -11.3894  -15.4156 N   0  0  0  0  0  0  0  0  0  0  0  0
   17.7620   -9.9864  -15.6239 C   0  0  0  0  0  0  0  0  0  0  0  0
   18.1195  -10.2748  -14.4477 O   0  0  0  0  0  0  0  0  0  0  0  0
   23.1056  -10.0554  -15.8581 N   0  0  0  0  0  0  0  0  0  0  0  0
   22.3970   -9.3251  -16.8489 C   0  0  0  0  0  0  0  0  0  0  0  0
   22.9633   -8.4351  -17.4960 O   0  0  0  0  0  0  0  0  0  0  0  0
   20.9885   -9.6430  -17.0904 C   0  0  0  0  0  0  0  0  0  0  0  0
   20.0467   -9.0410  -16.1019 C   0  0  2  0  0  0  0  0  0  0  0  0
   18.7023   -9.3562  -16.4816 N   0  0  0  0  0  0  0  0  0  0  0  0
   20.2778   -7.5490  -16.1203 C   0  0  0  0  0  0  0  0  0  0  0  0
   19.8317   -6.8493  -17.0622 O   0  0  0  0  0  0  0  0  0  0  0  0
   21.9995   -5.6373  -12.6724 C   0  0  0  0  0  0  0  0  0  0  0  0
   21.0671   -4.9452  -13.6361 C   0  0  2  0  0  0  0  0  0  0  0  0
   19.6491   -5.3177  -13.2093 C   0  0  0  0  0  0  0  0  0  0  0  0
   21.2911   -5.5111  -14.9944 C   0  0  2  0  0  0  0  0  0  0  0  0
   21.0033   -6.9273  -15.0690 N   0  0  0  0  0  0  0  0  0  0  0  0
   22.6478   -5.2579  -15.5407 C   0  0  0  0  0  0  0  0  0  0  0  0
   23.0792   -4.0127  -15.9498 O   0  0  0  0  0  0  0  0  0  0  0  0
   23.4476   -6.2115  -15.6399 O   0  0  0  0  0  0  0  0  0  0  0  0
  1  2  1  0
  3  4  1  1
  3  2  1  0
  3  5  1  0
  5 12  1  0
  5  6  2  0
  8  9  2  0
  8  7  1  0
 10  8  1  0
 11 10  1  6
 11 13  1  0
 12 11  1  0
 13 14  2  0
 13 19  1  0
 16 15  1  1
 16 17  1  0
 18 20  1  0
 18 16  1  0
 18 19  1  1
 20 21  1  0
 22 20  2  0
M  END
$$$$
