SNV.pdb
     RDKit          3D

 22 21  0  0  1  0  0  0  0  0999 V2000
   22.8904  -20.3049  -10.0626 O   0  0  0  0  0  0  0  0  0  0  0  0
   23.7039  -21.4309  -10.1615 C   0  0  0  0  0  0  0  0  0  0  0  0
   25.1353  -20.9602  -10.1562 C   0  0  2  0  0  0  0  0  0  0  0  0
   25.3022  -20.0155   -9.0855 N   0  0  0  0  0  0  0  0  0  0  0  0
   25.5040  -20.2762  -11.4209 C   0  0  0  0  0  0  0  0  0  0  0  0
   25.5926  -19.0211  -11.5266 O   0  0  0  0  0  0  0  0  0  0  0  0
   27.2517  -19.6344  -16.2095 N   0  0  0  0  0  0  0  0  0  0  0  0
   27.8342  -20.7954  -15.6353 C   0  0  0  0  0  0  0  0  0  0  0  0
   28.8225  -21.3250  -16.1590 O   0  0  0  0  0  0  0  0  0  0  0  0
   27.2464  -21.3532  -14.4160 C   0  0  0  0  0  0  0  0  0  0  0  0
   26.1337  -20.5393  -13.8449 C   0  0  2  0  0  0  0  0  0  0  0  0
   25.7698  -21.0723  -12.5665 N   0  0  0  0  0  0  0  0  0  0  0  0
   24.9791  -20.6239  -14.8143 C   0  0  0  0  0  0  0  0  0  0  0  0
   24.4095  -21.7217  -15.0285 O   0  0  0  0  0  0  0  0  0  0  0  0
   22.9331  -17.1388  -15.6882 C   0  0  0  0  0  0  0  0  0  0  0  0
   22.3249  -18.4971  -15.9377 C   0  0  2  0  0  0  0  0  0  0  0  0
   21.8296  -19.0044  -14.5854 C   0  0  0  0  0  0  0  0  0  0  0  0
   23.4017  -19.4167  -16.3961 C   0  0  2  0  0  0  0  0  0  0  0  0
   24.5300  -19.4583  -15.4909 N   0  0  0  0  0  0  0  0  0  0  0  0
   23.8876  -19.1437  -17.7717 C   0  0  0  0  0  0  0  0  0  0  0  0
   23.1083  -19.3130  -18.8978 O   0  0  0  0  0  0  0  0  0  0  0  0
   25.0585  -18.7402  -17.9307 O   0  0  0  0  0  0  0  0  0  0  0  0
  1  2  1  0
  3  4  1  1
  3  2  1  0
  3  5  1  0
  5 12  1  0
  5  6  2  0
  8  9  2  0
  8  7  1  0
 10  8  1  0
 11 10  1  6
 11 13  1  0
 12 11  1  0
 13 14  2  0
 13 19  1  0
 16 15  1  1
 16 17  1  0
 18 20  1  0
 18 16  1  0
 18 19  1  1
 20 21  1  0
 22 20  2  0
M  END
$$$$
