SNV.pdb
     RDKit          3D

 22 21  0  0  1  0  0  0  0  0999 V2000
   20.4436  -16.5406  -16.8470 O   0  0  0  0  0  0  0  0  0  0  0  0
   21.2428  -15.4432  -16.5360 C   0  0  0  0  0  0  0  0  0  0  0  0
   22.5529  -15.6143  -17.2605 C   0  0  2  0  0  0  0  0  0  0  0  0
   23.2369  -16.7510  -16.7066 N   0  0  0  0  0  0  0  0  0  0  0  0
   23.4390  -14.4343  -17.1003 C   0  0  0  0  0  0  0  0  0  0  0  0
   24.1712  -14.2531  -16.0877 O   0  0  0  0  0  0  0  0  0  0  0  0
   25.0596  -13.0840  -21.5821 N   0  0  0  0  0  0  0  0  0  0  0  0
   25.4295  -12.6903  -20.2686 C   0  0  0  0  0  0  0  0  0  0  0  0
   26.4998  -13.0718  -19.7782 O   0  0  0  0  0  0  0  0  0  0  0  0
   24.5246  -11.8274  -19.5070 C   0  0  0  0  0  0  0  0  0  0  0  0
   24.2761  -12.2837  -18.1083 C   0  0  2  0  0  0  0  0  0  0  0  0
   23.4640  -13.4629  -18.1360 N   0  0  0  0  0  0  0  0  0  0  0  0
   23.5693  -11.1574  -17.3929 C   0  0  0  0  0  0  0  0  0  0  0  0
   22.3520  -10.9363  -17.6044 O   0  0  0  0  0  0  0  0  0  0  0  0
   23.0211   -8.5827  -13.4144 C   0  0  0  0  0  0  0  0  0  0  0  0
   23.6634   -9.7042  -14.1934 C   0  0  2  0  0  0  0  0  0  0  0  0
   25.1149   -9.7802  -13.7254 C   0  0  0  0  0  0  0  0  0  0  0  0
   23.6743   -9.3293  -15.6337 C   0  0  2  0  0  0  0  0  0  0  0  0
   24.2802  -10.3397  -16.4741 N   0  0  0  0  0  0  0  0  0  0  0  0
   24.3068   -8.0161  -15.9139 C   0  0  0  0  0  0  0  0  0  0  0  0
   23.6746   -6.8091  -15.6957 O   0  0  0  0  0  0  0  0  0  0  0  0
   25.4687   -7.9893  -16.3700 O   0  0  0  0  0  0  0  0  0  0  0  0
  1  2  1  0
  3  4  1  1
  3  2  1  0
  3  5  1  0
  5 12  1  0
  5  6  2  0
  8  9  2  0
  8  7  1  0
 10  8  1  0
 11 10  1  6
 11 13  1  0
 12 11  1  0
 13 14  2  0
 13 19  1  0
 16 15  1  1
 16 17  1  0
 18 20  1  0
 18 16  1  0
 18 19  1  6
 20 21  1  0
 22 20  2  0
M  END
$$$$
