SNV.pdb
     RDKit          3D

 22 21  0  0  1  0  0  0  0  0999 V2000
   15.3239  -12.9927  -16.4653 O   0  0  0  0  0  0  0  0  0  0  0  0
   14.7007  -12.2870  -15.4391 C   0  0  0  0  0  0  0  0  0  0  0  0
   15.0667  -10.8340  -15.5982 C   0  0  2  0  0  0  0  0  0  0  0  0
   14.5481  -10.3666  -16.8549 N   0  0  0  0  0  0  0  0  0  0  0  0
   16.5363  -10.6256  -15.6128 C   0  0  0  0  0  0  0  0  0  0  0  0
   17.3022  -11.0448  -14.7006 O   0  0  0  0  0  0  0  0  0  0  0  0
   21.1662   -9.3964  -17.5864 N   0  0  0  0  0  0  0  0  0  0  0  0
   20.2025   -9.1266  -18.5941 C   0  0  0  0  0  0  0  0  0  0  0  0
   20.5606   -8.7799  -19.7268 O   0  0  0  0  0  0  0  0  0  0  0  0
   18.7816   -9.2655  -18.2700 C   0  0  0  0  0  0  0  0  0  0  0  0
   18.5129   -9.6980  -16.8674 C   0  0  2  0  0  0  0  0  0  0  0  0
   17.1076   -9.9210  -16.7054 N   0  0  0  0  0  0  0  0  0  0  0  0
   18.9922   -8.5892  -15.9614 C   0  0  0  0  0  0  0  0  0  0  0  0
   18.3147   -7.5410  -15.8283 O   0  0  0  0  0  0  0  0  0  0  0  0
   22.3190   -9.4073  -13.4368 C   0  0  0  0  0  0  0  0  0  0  0  0
   21.2144   -8.4608  -13.0352 C   0  0  2  0  0  0  0  0  0  0  0  0
   20.0868   -9.3245  -12.4749 C   0  0  0  0  0  0  0  0  0  0  0  0
   20.7011   -7.7911  -14.2614 C   0  0  2  0  0  0  0  0  0  0  0  0
   20.2158   -8.7267  -15.2529 N   0  0  0  0  0  0  0  0  0  0  0  0
   21.6701   -6.8635  -14.8966 C   0  0  0  0  0  0  0  0  0  0  0  0
   22.0989   -5.6936  -14.3038 O   0  0  0  0  0  0  0  0  0  0  0  0
   22.1272   -7.1451  -16.0239 O   0  0  0  0  0  0  0  0  0  0  0  0
  1  2  1  0
  3  4  1  6
  3  2  1  0
  3  5  1  0
  5 12  1  0
  5  6  2  0
  8  9  2  0
  8  7  1  0
 10  8  1  0
 11 10  1  6
 11 13  1  0
 12 11  1  0
 13 14  2  0
 13 19  1  0
 16 15  1  6
 16 17  1  0
 18 20  1  0
 18 16  1  0
 18 19  1  6
 20 21  1  0
 22 20  2  0
M  END
$$$$
