SNV.pdb
     RDKit          3D

 22 21  0  0  1  0  0  0  0  0999 V2000
   13.1692   -9.2062  -14.5849 O   0  0  0  0  0  0  0  0  0  0  0  0
   14.4438   -9.7607  -14.4986 C   0  0  0  0  0  0  0  0  0  0  0  0
   14.6759  -10.5655  -15.7511 C   0  0  2  0  0  0  0  0  0  0  0  0
   14.1831  -11.8987  -15.5361 N   0  0  0  0  0  0  0  0  0  0  0  0
   16.1172  -10.6682  -16.0911 C   0  0  0  0  0  0  0  0  0  0  0  0
   16.6412  -11.7132  -16.5684 O   0  0  0  0  0  0  0  0  0  0  0  0
   20.3271   -7.9466  -18.8861 N   0  0  0  0  0  0  0  0  0  0  0  0
   19.8933   -9.0232  -18.0677 C   0  0  0  0  0  0  0  0  0  0  0  0
   20.6775   -9.9281  -17.7552 O   0  0  0  0  0  0  0  0  0  0  0  0
   18.5056   -9.0435  -17.6016 C   0  0  0  0  0  0  0  0  0  0  0  0
   18.3412   -9.4908  -16.1876 C   0  0  2  0  0  0  0  0  0  0  0  0
   16.9459   -9.5366  -15.8685 N   0  0  0  0  0  0  0  0  0  0  0  0
   19.0618   -8.4885  -15.3182 C   0  0  0  0  0  0  0  0  0  0  0  0
   18.5597   -7.3584  -15.1029 O   0  0  0  0  0  0  0  0  0  0  0  0
   22.8148   -9.6206  -13.5639 C   0  0  0  0  0  0  0  0  0  0  0  0
   21.8296   -8.7552  -12.8171 C   0  0  2  0  0  0  0  0  0  0  0  0
   20.8689   -9.7066  -12.1076 C   0  0  0  0  0  0  0  0  0  0  0  0
   21.0403   -7.9775  -13.8108 C   0  0  2  0  0  0  0  0  0  0  0  0
   20.3153   -8.8198  -14.7377 N   0  0  0  0  0  0  0  0  0  0  0  0
   21.8359   -6.9829  -14.5729 C   0  0  0  0  0  0  0  0  0  0  0  0
   22.3486   -5.8319  -14.0104 O   0  0  0  0  0  0  0  0  0  0  0  0
   22.0591   -7.1868  -15.7843 O   0  0  0  0  0  0  0  0  0  0  0  0
  1  2  1  0
  3  4  1  1
  3  2  1  0
  3  5  1  0
  5 12  1  0
  5  6  2  0
  8  9  2  0
  8  7  1  0
 10  8  1  0
 11 10  1  6
 11 13  1  0
 12 11  1  0
 13 14  2  0
 13 19  1  0
 16 15  1  6
 16 17  1  0
 18 20  1  0
 18 16  1  0
 18 19  1  6
 20 21  1  0
 22 20  2  0
M  END
$$$$
