SNV.pdb
     RDKit          3D

 22 21  0  0  1  0  0  0  0  0999 V2000
   28.5066  -17.7301  -15.5277 O   0  0  0  0  0  0  0  0  0  0  0  0
   27.3657  -18.4188  -15.1229 C   0  0  0  0  0  0  0  0  0  0  0  0
   27.7814  -19.8255  -14.7785 C   0  0  2  0  0  0  0  0  0  0  0  0
   28.2813  -20.4591  -15.9682 N   0  0  0  0  0  0  0  0  0  0  0  0
   26.6441  -20.6387  -14.2799 C   0  0  0  0  0  0  0  0  0  0  0  0
   26.2324  -21.6805  -14.8627 O   0  0  0  0  0  0  0  0  0  0  0  0
   26.2651  -20.4841   -9.2115 N   0  0  0  0  0  0  0  0  0  0  0  0
   25.6874  -21.1995  -10.2939 C   0  0  0  0  0  0  0  0  0  0  0  0
   26.0321  -22.3643  -10.5300 O   0  0  0  0  0  0  0  0  0  0  0  0
   24.6795  -20.5362  -11.1231 C   0  0  0  0  0  0  0  0  0  0  0  0
   24.7952  -20.8317  -12.5811 C   0  0  2  0  0  0  0  0  0  0  0  0
   25.9881  -20.2247  -13.0903 N   0  0  0  0  0  0  0  0  0  0  0  0
   23.5690  -20.2572  -13.2491 C   0  0  0  0  0  0  0  0  0  0  0  0
   23.4464  -19.0161  -13.3911 O   0  0  0  0  0  0  0  0  0  0  0  0
   20.0180  -21.4814  -16.3294 C   0  0  0  0  0  0  0  0  0  0  0  0
   21.4300  -21.1677  -15.8992 C   0  0  2  0  0  0  0  0  0  0  0  0
   22.1926  -22.4903  -15.9199 C   0  0  0  0  0  0  0  0  0  0  0  0
   21.3963  -20.6900  -14.4900 C   0  0  2  0  0  0  0  0  0  0  0  0
   22.5446  -21.1206  -13.7218 N   0  0  0  0  0  0  0  0  0  0  0  0
   20.1557  -21.0476  -13.7578 C   0  0  0  0  0  0  0  0  0  0  0  0
   20.0667  -22.1239  -12.8990 O   0  0  0  0  0  0  0  0  0  0  0  0
   19.1350  -20.3468  -13.9189 O   0  0  0  0  0  0  0  0  0  0  0  0
  1  2  1  0
  3  4  1  6
  3  2  1  0
  3  5  1  0
  5 12  1  0
  5  6  2  0
  8  9  2  0
  8  7  1  0
 10  8  1  0
 11 10  1  1
 11 13  1  0
 12 11  1  0
 13 14  2  0
 13 19  1  0
 16 15  1  1
 16 17  1  0
 18 20  1  0
 18 16  1  0
 18 19  1  1
 20 21  1  0
 22 20  2  0
M  END
$$$$
