SNV.pdb
     RDKit          3D

 22 21  0  0  1  0  0  0  0  0999 V2000
   16.4088  -13.3547  -18.0215 O   0  0  0  0  0  0  0  0  0  0  0  0
   16.5627  -12.6475  -16.8317 C   0  0  0  0  0  0  0  0  0  0  0  0
   18.0083  -12.7567  -16.4208 C   0  0  2  0  0  0  0  0  0  0  0  0
   18.1579  -13.9107  -15.5766 N   0  0  0  0  0  0  0  0  0  0  0  0
   18.4615  -11.5728  -15.6486 C   0  0  0  0  0  0  0  0  0  0  0  0
   18.2369  -11.4259  -14.4148 O   0  0  0  0  0  0  0  0  0  0  0  0
   22.4735   -8.3843  -17.6527 N   0  0  0  0  0  0  0  0  0  0  0  0
   21.6972   -9.4547  -17.1343 C   0  0  0  0  0  0  0  0  0  0  0  0
   21.4810  -10.4615  -17.8206 O   0  0  0  0  0  0  0  0  0  0  0  0
   21.1588   -9.3462  -15.7772 C   0  0  0  0  0  0  0  0  0  0  0  0
   19.6684   -9.3634  -15.7067 C   0  0  2  0  0  0  0  0  0  0  0  0
   19.1822  -10.5570  -16.3309 N   0  0  0  0  0  0  0  0  0  0  0  0
   19.1755   -8.1345  -16.4325 C   0  0  0  0  0  0  0  0  0  0  0  0
   18.7953   -8.2124  -17.6262 O   0  0  0  0  0  0  0  0  0  0  0  0
   16.6157   -4.4796  -17.1451 C   0  0  0  0  0  0  0  0  0  0  0  0
   17.1160   -5.8045  -16.6241 C   0  0  2  0  0  0  0  0  0  0  0  0
   16.3892   -6.0529  -15.3045 C   0  0  0  0  0  0  0  0  0  0  0  0
   18.5670   -5.6718  -16.3203 C   0  0  2  0  0  0  0  0  0  0  0  0
   19.1392   -6.8802  -15.7666 N   0  0  0  0  0  0  0  0  0  0  0  0
   18.8999   -4.5245  -15.4394 C   0  0  0  0  0  0  0  0  0  0  0  0
   19.0293   -3.2298  -15.8987 O   0  0  0  0  0  0  0  0  0  0  0  0
   19.0738   -4.7286  -14.2200 O   0  0  0  0  0  0  0  0  0  0  0  0
  1  2  1  0
  3  4  1  1
  3  2  1  0
  3  5  1  0
  5 12  1  0
  5  6  2  0
  8  9  2  0
  8  7  1  0
 10  8  1  0
 11 10  1  6
 11 13  1  0
 12 11  1  0
 13 14  2  0
 13 19  1  0
 16 15  1  1
 16 17  1  0
 18 20  1  0
 18 16  1  0
 18 19  1  1
 20 21  1  0
 22 20  2  0
M  END
$$$$
