TKT.pdb
     RDKit          3D

 24 23  0  0  1  0  0  0  0  0999 V2000
   20.7095   -6.1830  -10.2327 C   0  0  0  0  0  0  0  0  0  0  0  0
   21.2516   -5.8195  -11.5957 C   0  0  1  0  0  0  0  0  0  0  0  0
   22.6085   -5.5728  -11.5007 O   0  0  0  0  0  0  0  0  0  0  0  0
   20.9344   -6.9203  -12.5860 C   0  0  2  0  0  0  0  0  0  0  0  0
   21.6598   -6.6427  -13.7929 N   0  0  0  0  0  0  0  0  0  0  0  0
   19.4812   -6.9707  -12.7898 C   0  0  0  0  0  0  0  0  0  0  0  0
   18.9338   -6.0936  -13.4971 O   0  0  0  0  0  0  0  0  0  0  0  0
   18.6714   -7.9814  -12.2121 N   0  0  0  0  0  0  0  0  0  0  0  0
   17.1931   -7.9759  -12.3743 C   0  0  1  0  0  0  0  0  0  0  0  0
   16.9022   -9.0428  -13.3806 C   0  0  0  0  0  0  0  0  0  0  0  0
   16.8464   -8.5646  -14.7978 C   0  0  0  0  0  0  0  0  0  0  0  0
   15.3929   -8.3732  -15.2472 C   0  0  0  0  0  0  0  0  0  0  0  0
   15.3904   -7.9583  -16.7045 C   0  0  0  0  0  0  0  0  0  0  0  0
   14.0172   -7.8307  -17.1991 N   0  0  0  0  0  0  0  0  0  0  0  0
   16.5842   -8.1761  -11.0536 C   0  0  0  0  0  0  0  0  0  0  0  0
   16.8865   -9.2290  -10.4271 O   0  0  0  0  0  0  0  0  0  0  0  0
   13.8963   -7.1473   -7.0791 C   0  0  0  0  0  0  0  0  0  0  0  0
   14.4707   -6.5867   -8.3643 C   0  0  1  0  0  0  0  0  0  0  0  0
   15.3450   -5.5523   -8.1456 O   0  0  0  0  0  0  0  0  0  0  0  0
   15.0070   -7.6818   -9.2169 C   0  0  2  0  0  0  0  0  0  0  0  0
   15.6849   -7.2961  -10.4019 N   0  0  0  0  0  0  0  0  0  0  0  0
   13.9911   -8.7649   -9.4021 C   0  0  0  0  0  0  0  0  0  0  0  0
   14.1228   -9.9705   -8.7399 O   0  0  0  0  0  0  0  0  0  0  0  0
   13.0117   -8.6020  -10.1528 O   0  0  0  0  0  0  0  0  0  0  0  0
  2  1  1  1
  2  3  1  0
  4  2  1  0
  4  5  1  6
  6  4  1  0
  7  6  2  0
  8  6  1  0
  9  8  1  0
  9 10  1  6
 10 11  1  0
 11 12  1  0
 12 13  1  0
 13 14  1  0
 15 21  1  0
 15  9  1  0
 16 15  2  0
 18 20  1  0
 18 17  1  1
 19 18  1  0
 20 22  1  0
 20 21  1  6
 22 23  1  0
 24 22  2  0
M  END
$$$$
