TKT.pdb
     RDKit          3D

 24 23  0  0  1  0  0  0  0  0999 V2000
   24.2839  -11.3260  -15.2877 C   0  0  0  0  0  0  0  0  0  0  0  0
   23.8884  -12.1212  -16.5104 C   0  0  1  0  0  0  0  0  0  0  0  0
   24.5408  -13.3400  -16.4979 O   0  0  0  0  0  0  0  0  0  0  0  0
   22.3827  -12.2745  -16.5597 C   0  0  2  0  0  0  0  0  0  0  0  0
   22.0693  -13.1463  -17.6558 N   0  0  0  0  0  0  0  0  0  0  0  0
   21.7747  -10.9447  -16.6935 C   0  0  0  0  0  0  0  0  0  0  0  0
   21.9843  -10.2801  -17.7345 O   0  0  0  0  0  0  0  0  0  0  0  0
   20.9549  -10.3831  -15.6818 N   0  0  0  0  0  0  0  0  0  0  0  0
   20.3320   -9.0425  -15.8455 C   0  0  1  0  0  0  0  0  0  0  0  0
   18.9421   -9.1851  -15.3133 C   0  0  0  0  0  0  0  0  0  0  0  0
   17.9574   -9.7542  -16.2863 C   0  0  0  0  0  0  0  0  0  0  0  0
   16.6002   -9.9840  -15.6104 C   0  0  0  0  0  0  0  0  0  0  0  0
   15.6634  -10.6214  -16.6165 C   0  0  0  0  0  0  0  0  0  0  0  0
   14.3688  -10.9159  -15.9968 N   0  0  0  0  0  0  0  0  0  0  0  0
   21.1712   -8.0571  -15.1527 C   0  0  0  0  0  0  0  0  0  0  0  0
   21.6263   -8.3747  -14.0194 O   0  0  0  0  0  0  0  0  0  0  0  0
   22.4639   -4.1494  -16.6005 C   0  0  0  0  0  0  0  0  0  0  0  0
   23.2489   -4.9924  -15.6161 C   0  0  1  0  0  0  0  0  0  0  0  0
   24.0871   -4.2434  -14.8294 O   0  0  0  0  0  0  0  0  0  0  0  0
   22.3394   -5.8990  -14.8647 C   0  0  2  0  0  0  0  0  0  0  0  0
   21.5294   -6.7734  -15.6339 N   0  0  0  0  0  0  0  0  0  0  0  0
   21.6114   -5.1575  -13.7878 C   0  0  0  0  0  0  0  0  0  0  0  0
   22.3100   -4.4473  -12.8302 O   0  0  0  0  0  0  0  0  0  0  0  0
   20.3679   -5.1657  -13.7336 O   0  0  0  0  0  0  0  0  0  0  0  0
  2  1  1  1
  2  3  1  0
  4  2  1  0
  4  5  1  6
  6  4  1  0
  7  6  2  0
  8  6  1  0
  9  8  1  0
  9 10  1  1
 10 11  1  0
 11 12  1  0
 12 13  1  0
 13 14  1  0
 15 21  1  0
 15  9  1  0
 16 15  2  0
 18 20  1  0
 18 17  1  1
 19 18  1  0
 20 22  1  0
 20 21  1  6
 22 23  1  0
 24 22  2  0
M  END
$$$$
