TKT.pdb
     RDKit          3D

 24 23  0  0  1  0  0  0  0  0999 V2000
   19.5643  -14.1718  -18.3729 C   0  0  0  0  0  0  0  0  0  0  0  0
   18.3728  -13.7255  -17.5575 C   0  0  1  0  0  0  0  0  0  0  0  0
   17.6717  -14.8344  -17.1216 O   0  0  0  0  0  0  0  0  0  0  0  0
   18.8326  -12.8481  -16.4121 C   0  0  2  0  0  0  0  0  0  0  0  0
   18.0466  -13.1879  -15.2604 N   0  0  0  0  0  0  0  0  0  0  0  0
   18.6919  -11.4407  -16.8067 C   0  0  0  0  0  0  0  0  0  0  0  0
   19.3957  -10.9965  -17.7429 O   0  0  0  0  0  0  0  0  0  0  0  0
   17.7838  -10.5623  -16.1628 N   0  0  0  0  0  0  0  0  0  0  0  0
   17.7293   -9.1165  -16.5071 C   0  0  1  0  0  0  0  0  0  0  0  0
   16.3090   -8.7092  -16.2780 C   0  0  0  0  0  0  0  0  0  0  0  0
   16.0295   -7.2590  -16.5211 C   0  0  0  0  0  0  0  0  0  0  0  0
   14.5501   -6.9437  -16.2693 C   0  0  0  0  0  0  0  0  0  0  0  0
   14.3412   -5.4519  -16.4336 C   0  0  0  0  0  0  0  0  0  0  0  0
   12.9205   -5.1163  -16.3093 N   0  0  0  0  0  0  0  0  0  0  0  0
   18.7240   -8.4108  -15.6900 C   0  0  0  0  0  0  0  0  0  0  0  0
   18.7118   -8.6233  -14.4462 O   0  0  0  0  0  0  0  0  0  0  0  0
   22.2425   -8.8253  -15.1081 C   0  0  0  0  0  0  0  0  0  0  0  0
   22.0792   -7.3604  -15.4593 C   0  0  1  0  0  0  0  0  0  0  0  0
   22.6211   -7.0458  -16.6799 O   0  0  0  0  0  0  0  0  0  0  0  0
   20.6642   -6.9363  -15.2816 C   0  0  2  0  0  0  0  0  0  0  0  0
   19.7098   -7.5085  -16.1613 N   0  0  0  0  0  0  0  0  0  0  0  0
   20.5637   -5.4508  -15.1306 C   0  0  0  0  0  0  0  0  0  0  0  0
   21.2631   -4.7986  -14.1332 O   0  0  0  0  0  0  0  0  0  0  0  0
   19.8514   -4.7765  -15.8968 O   0  0  0  0  0  0  0  0  0  0  0  0
  2  1  1  1
  2  3  1  0
  4  2  1  0
  4  5  1  1
  6  4  1  0
  7  6  2  0
  8  6  1  0
  9  8  1  0
  9 10  1  1
 10 11  1  0
 11 12  1  0
 12 13  1  0
 13 14  1  0
 15 21  1  0
 15  9  1  0
 16 15  2  0
 18 20  1  0
 18 17  1  6
 19 18  1  0
 20 22  1  0
 20 21  1  6
 22 23  1  0
 24 22  2  0
M  END
$$$$
