TKT.pdb
     RDKit          3D

 24 23  0  0  1  0  0  0  0  0999 V2000
   15.7783  -11.2919  -16.5118 C   0  0  0  0  0  0  0  0  0  0  0  0
   15.9227  -12.7234  -16.0497 C   0  0  1  0  0  0  0  0  0  0  0  0
   14.7139  -13.3783  -16.1946 O   0  0  0  0  0  0  0  0  0  0  0  0
   17.0401  -13.4010  -16.8148 C   0  0  2  0  0  0  0  0  0  0  0  0
   17.0671  -14.7796  -16.4165 N   0  0  0  0  0  0  0  0  0  0  0  0
   18.2994  -12.6994  -16.5358 C   0  0  0  0  0  0  0  0  0  0  0  0
   18.7505  -12.6973  -15.3671 O   0  0  0  0  0  0  0  0  0  0  0  0
   19.0267  -12.0209  -17.5465 N   0  0  0  0  0  0  0  0  0  0  0  0
   20.2798  -11.2828  -17.2356 C   0  0  1  0  0  0  0  0  0  0  0  0
   21.0637  -11.2815  -18.5088 C   0  0  0  0  0  0  0  0  0  0  0  0
   22.3388  -10.4994  -18.4550 C   0  0  0  0  0  0  0  0  0  0  0  0
   23.1143  -10.6381  -19.7706 C   0  0  0  0  0  0  0  0  0  0  0  0
   24.4628   -9.9665  -19.6073 C   0  0  0  0  0  0  0  0  0  0  0  0
   25.2440  -10.0781  -20.8418 N   0  0  0  0  0  0  0  0  0  0  0  0
   19.9175   -9.9568  -16.7204 C   0  0  0  0  0  0  0  0  0  0  0  0
   19.0966   -9.2752  -17.3942 O   0  0  0  0  0  0  0  0  0  0  0  0
   19.4366   -8.7850  -12.8502 C   0  0  0  0  0  0  0  0  0  0  0  0
   18.9901   -7.9653  -14.0438 C   0  0  1  0  0  0  0  0  0  0  0  0
   18.6320   -6.6857  -13.7022 O   0  0  0  0  0  0  0  0  0  0  0  0
   19.9895   -8.0568  -15.1423 C   0  0  2  0  0  0  0  0  0  0  0  0
   20.3977   -9.3594  -15.5286 N   0  0  0  0  0  0  0  0  0  0  0  0
   21.1099   -7.0874  -14.9313 C   0  0  0  0  0  0  0  0  0  0  0  0
   20.8525   -5.7360  -14.8014 O   0  0  0  0  0  0  0  0  0  0  0  0
   22.2902   -7.4773  -14.8688 O   0  0  0  0  0  0  0  0  0  0  0  0
  2  1  1  6
  2  3  1  0
  4  2  1  0
  4  5  1  1
  6  4  1  0
  7  6  2  0
  8  6  1  0
  9  8  1  0
  9 10  1  6
 10 11  1  0
 11 12  1  0
 12 13  1  0
 13 14  1  0
 15 21  1  0
 15  9  1  0
 16 15  2  0
 18 20  1  0
 18 17  1  1
 19 18  1  0
 20 22  1  0
 20 21  1  1
 22 23  1  0
 24 22  2  0
M  END
$$$$
