TKT.pdb
     RDKit          3D

 24 23  0  0  1  0  0  0  0  0999 V2000
   16.1060   -7.2888  -13.6500 C   0  0  0  0  0  0  0  0  0  0  0  0
   15.8024   -7.9831  -12.3425 C   0  0  1  0  0  0  0  0  0  0  0  0
   14.4373   -8.1677  -12.2254 O   0  0  0  0  0  0  0  0  0  0  0  0
   16.5688   -9.2866  -12.2619 C   0  0  2  0  0  0  0  0  0  0  0  0
   16.2313   -9.9139  -11.0160 N   0  0  0  0  0  0  0  0  0  0  0  0
   18.0036   -9.0019  -12.3897 C   0  0  0  0  0  0  0  0  0  0  0  0
   18.6619   -8.7132  -11.3638 O   0  0  0  0  0  0  0  0  0  0  0  0
   18.6739   -9.0423  -13.6387 N   0  0  0  0  0  0  0  0  0  0  0  0
   20.1238   -8.7305  -13.7496 C   0  0  1  0  0  0  0  0  0  0  0  0
   20.6947   -9.8087  -14.6140 C   0  0  0  0  0  0  0  0  0  0  0  0
   22.1590   -9.6740  -14.8931 C   0  0  0  0  0  0  0  0  0  0  0  0
   22.6793  -10.8988  -15.6551 C   0  0  0  0  0  0  0  0  0  0  0  0
   24.1562  -10.7022  -15.9312 C   0  0  0  0  0  0  0  0  0  0  0  0
   24.7637  -11.9548  -16.3879 N   0  0  0  0  0  0  0  0  0  0  0  0
   20.2627   -7.3664  -14.2741 C   0  0  0  0  0  0  0  0  0  0  0  0
   19.8476   -7.1484  -15.4457 O   0  0  0  0  0  0  0  0  0  0  0  0
   18.5027   -4.6056  -14.6331 C   0  0  0  0  0  0  0  0  0  0  0  0
   19.7595   -4.0545  -13.9908 C   0  0  1  0  0  0  0  0  0  0  0  0
   19.5651   -3.6788  -12.6856 O   0  0  0  0  0  0  0  0  0  0  0  0
   20.9037   -4.9811  -14.2051 C   0  0  2  0  0  0  0  0  0  0  0  0
   20.8177   -6.2565  -13.5900 N   0  0  0  0  0  0  0  0  0  0  0  0
   22.2093   -4.2774  -14.0054 C   0  0  0  0  0  0  0  0  0  0  0  0
   22.5310   -3.1680  -14.7637 O   0  0  0  0  0  0  0  0  0  0  0  0
   23.0275   -4.6757  -13.1562 O   0  0  0  0  0  0  0  0  0  0  0  0
  2  1  1  6
  2  3  1  0
  4  2  1  0
  4  5  1  1
  6  4  1  0
  7  6  2  0
  8  6  1  0
  9  8  1  0
  9 10  1  6
 10 11  1  0
 11 12  1  0
 12 13  1  0
 13 14  1  0
 15 21  1  0
 15  9  1  0
 16 15  2  0
 18 20  1  0
 18 17  1  1
 19 18  1  0
 20 22  1  0
 20 21  1  1
 22 23  1  0
 24 22  2  0
M  END
$$$$
