TKT.pdb
     RDKit          3D

 24 23  0  0  1  0  0  0  0  0999 V2000
   23.8245  -10.9498  -14.7863 C   0  0  0  0  0  0  0  0  0  0  0  0
   23.2443  -11.8557  -15.8476 C   0  0  1  0  0  0  0  0  0  0  0  0
   23.7809  -13.1229  -15.7149 O   0  0  0  0  0  0  0  0  0  0  0  0
   21.7330  -11.8575  -15.7527 C   0  0  2  0  0  0  0  0  0  0  0  0
   21.2399  -12.8416  -16.6737 N   0  0  0  0  0  0  0  0  0  0  0  0
   21.2381  -10.5053  -16.0398 C   0  0  0  0  0  0  0  0  0  0  0  0
   21.4073  -10.0241  -17.1840 O   0  0  0  0  0  0  0  0  0  0  0  0
   20.5724   -9.7208  -15.0639 N   0  0  0  0  0  0  0  0  0  0  0  0
   19.9676   -8.4064  -15.4080 C   0  0  1  0  0  0  0  0  0  0  0  0
   18.5972   -8.4337  -14.8107 C   0  0  0  0  0  0  0  0  0  0  0  0
   17.8149   -7.1700  -14.9874 C   0  0  0  0  0  0  0  0  0  0  0  0
   16.3862   -7.3396  -14.4568 C   0  0  0  0  0  0  0  0  0  0  0  0
   15.6008   -6.0847  -14.7799 C   0  0  0  0  0  0  0  0  0  0  0  0
   15.5064   -5.8979  -16.2300 N   0  0  0  0  0  0  0  0  0  0  0  0
   20.8506   -7.3473  -14.9044 C   0  0  0  0  0  0  0  0  0  0  0  0
   21.4548   -7.5613  -13.8174 O   0  0  0  0  0  0  0  0  0  0  0  0
   23.8273   -3.5045  -15.1831 C   0  0  0  0  0  0  0  0  0  0  0  0
   22.9012   -4.4473  -15.9245 C   0  0  1  0  0  0  0  0  0  0  0  0
   23.5677   -5.2539  -16.8118 O   0  0  0  0  0  0  0  0  0  0  0  0
   22.0209   -5.1720  -14.9687 C   0  0  2  0  0  0  0  0  0  0  0  0
   21.0995   -6.0971  -15.5234 N   0  0  0  0  0  0  0  0  0  0  0  0
   21.4348   -4.2337  -13.9609 C   0  0  0  0  0  0  0  0  0  0  0  0
   22.1037   -3.9634  -12.7824 O   0  0  0  0  0  0  0  0  0  0  0  0
   20.3382   -3.6807  -14.1634 O   0  0  0  0  0  0  0  0  0  0  0  0
  2  1  1  1
  2  3  1  0
  4  2  1  0
  4  5  1  6
  6  4  1  0
  7  6  2  0
  8  6  1  0
  9  8  1  0
  9 10  1  1
 10 11  1  0
 11 12  1  0
 12 13  1  0
 13 14  1  0
 15 21  1  0
 15  9  1  0
 16 15  2  0
 18 20  1  0
 18 17  1  1
 19 18  1  0
 20 22  1  0
 20 21  1  6
 22 23  1  0
 24 22  2  0
M  END
$$$$
