TKT.pdb
     RDKit          3D

 24 23  0  0  1  0  0  0  0  0999 V2000
   24.1098  -11.1116  -14.9417 C   0  0  0  0  0  0  0  0  0  0  0  0
   23.8167  -11.8682  -16.2166 C   0  0  1  0  0  0  0  0  0  0  0  0
   24.5783  -13.0214  -16.2530 O   0  0  0  0  0  0  0  0  0  0  0  0
   22.3331  -12.1545  -16.3156 C   0  0  2  0  0  0  0  0  0  0  0  0
   22.1229  -12.9666  -17.4801 N   0  0  0  0  0  0  0  0  0  0  0  0
   21.6064  -10.8796  -16.3675 C   0  0  0  0  0  0  0  0  0  0  0  0
   21.6522  -10.1938  -17.4148 O   0  0  0  0  0  0  0  0  0  0  0  0
   20.8512  -10.3947  -15.2696 N   0  0  0  0  0  0  0  0  0  0  0  0
   20.0932   -9.1180  -15.3550 C   0  0  1  0  0  0  0  0  0  0  0  0
   18.7728   -9.3989  -14.7121 C   0  0  0  0  0  0  0  0  0  0  0  0
   17.7453   -8.3277  -14.9046 C   0  0  0  0  0  0  0  0  0  0  0  0
   16.4202   -8.7239  -14.2423 C   0  0  0  0  0  0  0  0  0  0  0  0
   15.4224   -7.6035  -14.4542 C   0  0  0  0  0  0  0  0  0  0  0  0
   14.1294   -7.9487  -13.8578 N   0  0  0  0  0  0  0  0  0  0  0  0
   20.8912   -8.0650  -14.7151 C   0  0  0  0  0  0  0  0  0  0  0  0
   21.4910   -8.3590  -13.6445 O   0  0  0  0  0  0  0  0  0  0  0  0
   23.6576   -5.6987  -16.3524 C   0  0  0  0  0  0  0  0  0  0  0  0
   22.7230   -4.9223  -15.4470 C   0  0  1  0  0  0  0  0  0  0  0  0
   21.9414   -4.0290  -16.1351 O   0  0  0  0  0  0  0  0  0  0  0  0
   21.9704   -5.8478  -14.5578 C   0  0  2  0  0  0  0  0  0  0  0  0
   21.0616   -6.7389  -15.1844 N   0  0  0  0  0  0  0  0  0  0  0  0
   21.4168   -5.1218  -13.3720 C   0  0  0  0  0  0  0  0  0  0  0  0
   20.0628   -5.1556  -13.0986 O   0  0  0  0  0  0  0  0  0  0  0  0
   22.1617   -4.4761  -12.6121 O   0  0  0  0  0  0  0  0  0  0  0  0
  2  1  1  1
  2  3  1  0
  4  2  1  0
  4  5  1  6
  6  4  1  0
  7  6  2  0
  8  6  1  0
  9  8  1  0
  9 10  1  1
 10 11  1  0
 11 12  1  0
 12 13  1  0
 13 14  1  0
 15 21  1  0
 15  9  1  0
 16 15  2  0
 18 20  1  0
 18 17  1  6
 19 18  1  0
 20 22  1  0
 20 21  1  6
 22 23  1  0
 24 22  2  0
M  END
$$$$
