TKT.pdb
     RDKit          3D

 24 23  0  0  1  0  0  0  0  0999 V2000
   20.7054   -7.2930  -11.6175 C   0  0  0  0  0  0  0  0  0  0  0  0
   20.5740   -7.6817  -13.0719 C   0  0  1  0  0  0  0  0  0  0  0  0
   21.8323   -7.8545  -13.6178 O   0  0  0  0  0  0  0  0  0  0  0  0
   19.7163   -8.9233  -13.1974 C   0  0  2  0  0  0  0  0  0  0  0  0
   19.8449   -9.4075  -14.5423 N   0  0  0  0  0  0  0  0  0  0  0  0
   18.3333   -8.5825  -12.8410 C   0  0  0  0  0  0  0  0  0  0  0  0
   17.6405   -7.9216  -13.6489 O   0  0  0  0  0  0  0  0  0  0  0  0
   17.7510   -8.9764  -11.6095 N   0  0  0  0  0  0  0  0  0  0  0  0
   16.3352   -8.6567  -11.2852 C   0  0  1  0  0  0  0  0  0  0  0  0
   15.7239   -9.9544  -10.8634 C   0  0  0  0  0  0  0  0  0  0  0  0
   14.3039   -9.8535  -10.4013 C   0  0  0  0  0  0  0  0  0  0  0  0
   13.7630  -11.2340  -10.0099 C   0  0  0  0  0  0  0  0  0  0  0  0
   12.2867  -11.1010   -9.6954 C   0  0  0  0  0  0  0  0  0  0  0  0
   11.7032  -12.4140   -9.4087 N   0  0  0  0  0  0  0  0  0  0  0  0
   16.3234   -7.5977  -10.2685 C   0  0  0  0  0  0  0  0  0  0  0  0
   17.0736   -7.7465   -9.2648 O   0  0  0  0  0  0  0  0  0  0  0  0
   17.2883   -3.9112  -10.4157 C   0  0  0  0  0  0  0  0  0  0  0  0
   15.9260   -4.0241   -9.7619 C   0  0  1  0  0  0  0  0  0  0  0  0
   14.9230   -3.4970  -10.5355 O   0  0  0  0  0  0  0  0  0  0  0  0
   15.6841   -5.4170   -9.2983 C   0  0  2  0  0  0  0  0  0  0  0  0
   15.5501   -6.4108  -10.3018 N   0  0  0  0  0  0  0  0  0  0  0  0
   14.6300   -5.4544   -8.2368 C   0  0  0  0  0  0  0  0  0  0  0  0
   14.7922   -4.7444   -7.0624 O   0  0  0  0  0  0  0  0  0  0  0  0
   13.5910   -6.1225   -8.3899 O   0  0  0  0  0  0  0  0  0  0  0  0
  2  1  1  1
  2  3  1  0
  4  2  1  0
  4  5  1  6
  6  4  1  0
  7  6  2  0
  8  6  1  0
  9  8  1  0
  9 10  1  1
 10 11  1  0
 11 12  1  0
 12 13  1  0
 13 14  1  0
 15 21  1  0
 15  9  1  0
 16 15  2  0
 18 20  1  0
 18 17  1  6
 19 18  1  0
 20 22  1  0
 20 21  1  6
 22 23  1  0
 24 22  2  0
M  END
$$$$
