TKT.pdb
     RDKit          3D

 24 23  0  0  1  0  0  0  0  0999 V2000
   26.2204  -14.1867  -15.9156 C   0  0  0  0  0  0  0  0  0  0  0  0
   25.2995  -13.1598  -16.5328 C   0  0  1  0  0  0  0  0  0  0  0  0
   25.9706  -12.4816  -17.5333 O   0  0  0  0  0  0  0  0  0  0  0  0
   24.0415  -13.8344  -17.0383 C   0  0  2  0  0  0  0  0  0  0  0  0
   24.4032  -14.6376  -18.1713 N   0  0  0  0  0  0  0  0  0  0  0  0
   23.0473  -12.8032  -17.3611 C   0  0  0  0  0  0  0  0  0  0  0  0
   23.0527  -12.2869  -18.5025 O   0  0  0  0  0  0  0  0  0  0  0  0
   22.0767  -12.3688  -16.4229 N   0  0  0  0  0  0  0  0  0  0  0  0
   21.0268  -11.3834  -16.7951 C   0  0  1  0  0  0  0  0  0  0  0  0
   19.7268  -12.0637  -16.5072 C   0  0  0  0  0  0  0  0  0  0  0  0
   19.2665  -13.0061  -17.5749 C   0  0  0  0  0  0  0  0  0  0  0  0
   17.9323  -13.6542  -17.1859 C   0  0  0  0  0  0  0  0  0  0  0  0
   17.5486  -14.6491  -18.2625 C   0  0  0  0  0  0  0  0  0  0  0  0
   16.2733  -15.2920  -17.9356 N   0  0  0  0  0  0  0  0  0  0  0  0
   21.2682  -10.1467  -16.0419 C   0  0  0  0  0  0  0  0  0  0  0  0
   21.5133  -10.2550  -14.8087 O   0  0  0  0  0  0  0  0  0  0  0  0
   23.4389   -6.9319  -17.3048 C   0  0  0  0  0  0  0  0  0  0  0  0
   22.2088   -6.5446  -16.5093 C   0  0  1  0  0  0  0  0  0  0  0  0
   21.2844   -5.8658  -17.2622 O   0  0  0  0  0  0  0  0  0  0  0  0
   21.6684   -7.7227  -15.7786 C   0  0  2  0  0  0  0  0  0  0  0  0
   21.2580   -8.8298  -16.5649 N   0  0  0  0  0  0  0  0  0  0  0  0
   20.6857   -7.3008  -14.7317 C   0  0  0  0  0  0  0  0  0  0  0  0
   21.0601   -6.4242  -13.7313 O   0  0  0  0  0  0  0  0  0  0  0  0
   19.5172   -7.7293  -14.7412 O   0  0  0  0  0  0  0  0  0  0  0  0
  2  1  1  6
  2  3  1  0
  4  2  1  0
  4  5  1  6
  6  4  1  0
  7  6  2  0
  8  6  1  0
  9  8  1  0
  9 10  1  1
 10 11  1  0
 11 12  1  0
 12 13  1  0
 13 14  1  0
 15 21  1  0
 15  9  1  0
 16 15  2  0
 18 20  1  0
 18 17  1  6
 19 18  1  0
 20 22  1  0
 20 21  1  6
 22 23  1  0
 24 22  2  0
M  END
$$$$
