WKQ.pdb
     RDKit          3D

 33 34  0  0  1  0  0  0  0  0999 V2000
    6.4467  -17.9569   24.8851 N   0  0  0  0  0  0  0  0  0  0  0  0
    6.8662  -16.6990   24.3406 C   0  0  1  0  0  0  0  0  0  0  0  0
    7.7283  -15.9668   25.3115 C   0  0  0  0  0  0  0  0  0  0  0  0
    6.9396  -14.9022   25.9729 C   0  0  0  0  0  0  0  0  0  0  0  0
    5.9068  -15.1088   26.8911 C   0  0  0  0  0  0  0  0  0  0  0  0
    5.4263  -13.9417   27.3252 N   0  0  0  0  0  0  0  0  0  0  0  0
    6.1167  -12.9543   26.7154 C   0  0  0  0  0  0  0  0  0  0  0  0
    6.0084  -11.5771   26.8084 C   0  0  0  0  0  0  0  0  0  0  0  0
    6.8505  -10.7946   26.0502 C   0  0  0  0  0  0  0  0  0  0  0  0
    7.7928  -11.3320   25.2057 C   0  0  0  0  0  0  0  0  0  0  0  0
    7.8803  -12.7258   25.1315 C   0  0  0  0  0  0  0  0  0  0  0  0
    7.0626  -13.5287   25.8695 C   0  0  0  0  0  0  0  0  0  0  0  0
    7.5420  -16.9244   23.0360 C   0  0  0  0  0  0  0  0  0  0  0  0
    8.2138  -17.9624   22.8846 O   0  0  0  0  0  0  0  0  0  0  0  0
    7.4377  -15.9954   21.9802 N   0  0  0  0  0  0  0  0  0  0  0  0
    8.5040  -15.7808   20.9851 C   0  0  1  0  0  0  0  0  0  0  0  0
    7.9796  -14.7723   20.0318 C   0  0  0  0  0  0  0  0  0  0  0  0
    8.7190  -14.5739   18.7613 C   0  0  0  0  0  0  0  0  0  0  0  0
    7.8981  -13.6790   17.8250 C   0  0  0  0  0  0  0  0  0  0  0  0
    8.4674  -13.6019   16.4463 C   0  0  0  0  0  0  0  0  0  0  0  0
    7.5719  -12.8364   15.5752 N   0  0  0  0  0  0  0  0  0  0  0  0
    9.7468  -15.4729   21.6847 C   0  0  0  0  0  0  0  0  0  0  0  0
    9.9244  -14.4049   22.3540 O   0  0  0  0  0  0  0  0  0  0  0  0
   12.3625  -18.0100   26.1010 N   0  0  0  0  0  0  0  0  0  0  0  0
   11.7937  -18.6515   24.9841 C   0  0  0  0  0  0  0  0  0  0  0  0
   11.3166  -19.8131   25.1348 O   0  0  0  0  0  0  0  0  0  0  0  0
   11.7216  -18.0330   23.6500 C   0  0  0  0  0  0  0  0  0  0  0  0
   12.2152  -16.6390   23.5574 C   0  0  0  0  0  0  0  0  0  0  0  0
   12.1711  -15.9658   22.2258 C   0  0  2  0  0  0  0  0  0  0  0  0
   10.8348  -16.3618   21.6602 N   0  0  0  0  0  0  0  0  0  0  0  0
   13.1555  -16.3762   21.2294 C   0  0  0  0  0  0  0  0  0  0  0  0
   14.3891  -16.1660   21.3662 O   0  0  0  0  0  0  0  0  0  0  0  0
   12.7510  -17.0436   20.0561 O   0  0  0  0  0  0  0  0  0  0  0  0
  2  1  1  1
  3  2  1  0
  4  5  2  0
  4  3  1  0
  6  5  1  0
  7 12  2  0
  7  6  1  0
  8  7  1  0
  9 10  1  0
  9  8  2  0
 10 11  2  0
 11 12  1  0
 12  4  1  0
 13  2  1  0
 14 13  2  0
 15 13  1  0
 16 22  1  0
 16 15  1  0
 16 17  1  6
 18 17  1  0
 19 18  1  0
 20 19  1  0
 21 20  1  0
 22 30  1  0
 23 22  2  0
 24 25  1  0
 25 27  1  0
 26 25  2  0
 27 28  1  0
 29 28  1  1
 29 31  1  0
 30 29  1  0
 31 32  2  0
 31 33  1  0
M  END
$$$$
