WKQ.pdb
     RDKit          3D

 33 34  0  0  1  0  0  0  0  0999 V2000
    6.6387  -17.2943   25.3771 N   0  0  0  0  0  0  0  0  0  0  0  0
    7.1231  -16.1483   24.6652 C   0  0  1  0  0  0  0  0  0  0  0  0
    8.2500  -15.5088   25.4023 C   0  0  0  0  0  0  0  0  0  0  0  0
    7.7138  -14.6455   26.4794 C   0  0  0  0  0  0  0  0  0  0  0  0
    7.5011  -15.0376   27.8036 C   0  0  0  0  0  0  0  0  0  0  0  0
    7.0432  -14.0136   28.5269 N   0  0  0  0  0  0  0  0  0  0  0  0
    6.9436  -12.9405   27.7132 C   0  0  0  0  0  0  0  0  0  0  0  0
    6.5176  -11.6467   27.9619 C   0  0  0  0  0  0  0  0  0  0  0  0
    6.5091  -10.7420   26.9238 C   0  0  0  0  0  0  0  0  0  0  0  0
    6.9077  -11.0779   25.6517 C   0  0  0  0  0  0  0  0  0  0  0  0
    7.3333  -12.3913   25.4290 C   0  0  0  0  0  0  0  0  0  0  0  0
    7.3549  -13.3108   26.4350 C   0  0  0  0  0  0  0  0  0  0  0  0
    7.4994  -16.5459   23.2833 C   0  0  0  0  0  0  0  0  0  0  0  0
    7.8753  -17.7163   23.0816 O   0  0  0  0  0  0  0  0  0  0  0  0
    7.4393  -15.6331   22.2100 N   0  0  0  0  0  0  0  0  0  0  0  0
    8.3423  -15.6941   21.0465 C   0  0  1  0  0  0  0  0  0  0  0  0
    7.9061  -14.6119   20.1304 C   0  0  0  0  0  0  0  0  0  0  0  0
    8.6053  -14.4864   18.8283 C   0  0  0  0  0  0  0  0  0  0  0  0
    7.6780  -13.8094   17.8118 C   0  0  0  0  0  0  0  0  0  0  0  0
    8.2072  -13.8619   16.4160 C   0  0  0  0  0  0  0  0  0  0  0  0
    7.3170  -13.1274   15.5134 N   0  0  0  0  0  0  0  0  0  0  0  0
    9.7225  -15.6693   21.5190 C   0  0  0  0  0  0  0  0  0  0  0  0
   10.1001  -15.0020   22.5349 O   0  0  0  0  0  0  0  0  0  0  0  0
   12.4085  -18.4786   25.1745 N   0  0  0  0  0  0  0  0  0  0  0  0
   11.8537  -19.1176   24.0491 C   0  0  0  0  0  0  0  0  0  0  0  0
   11.4462  -20.3086   24.1726 O   0  0  0  0  0  0  0  0  0  0  0  0
   11.7190  -18.4643   22.7366 C   0  0  0  0  0  0  0  0  0  0  0  0
   12.0946  -17.0319   22.6872 C   0  0  0  0  0  0  0  0  0  0  0  0
   12.1512  -16.3669   21.3520 C   0  0  2  0  0  0  0  0  0  0  0  0
   10.7283  -16.4017   20.8658 N   0  0  0  0  0  0  0  0  0  0  0  0
   12.9380  -17.0157   20.3079 C   0  0  0  0  0  0  0  0  0  0  0  0
   13.4910  -16.3746   19.3762 O   0  0  0  0  0  0  0  0  0  0  0  0
   13.1163  -18.4135   20.3103 O   0  0  0  0  0  0  0  0  0  0  0  0
  2  1  1  1
  3  2  1  0
  4  5  2  0
  4  3  1  0
  6  5  1  0
  7 12  2  0
  7  6  1  0
  8  7  1  0
  9 10  1  0
  9  8  2  0
 10 11  2  0
 11 12  1  0
 12  4  1  0
 13  2  1  0
 14 13  2  0
 15 13  1  0
 16 22  1  0
 16 15  1  0
 16 17  1  6
 18 17  1  0
 19 18  1  0
 20 19  1  0
 21 20  1  0
 22 30  1  0
 23 22  2  0
 24 25  1  0
 25 27  1  0
 26 25  2  0
 27 28  1  0
 29 28  1  1
 29 31  1  0
 30 29  1  0
 31 32  2  0
 31 33  1  0
M  END
$$$$
