WKQ.pdb
     RDKit          3D

 33 34  0  0  1  0  0  0  0  0999 V2000
    6.2917  -18.0112   24.5695 N   0  0  0  0  0  0  0  0  0  0  0  0
    6.8165  -16.7538   24.1240 C   0  0  1  0  0  0  0  0  0  0  0  0
    7.6707  -16.1370   25.1785 C   0  0  0  0  0  0  0  0  0  0  0  0
    6.9400  -15.0205   25.8207 C   0  0  0  0  0  0  0  0  0  0  0  0
    5.8332  -15.1531   26.6633 C   0  0  0  0  0  0  0  0  0  0  0  0
    5.4333  -13.9575   27.1019 N   0  0  0  0  0  0  0  0  0  0  0  0
    6.2505  -13.0238   26.5693 C   0  0  0  0  0  0  0  0  0  0  0  0
    6.2627  -11.6453   26.6984 C   0  0  0  0  0  0  0  0  0  0  0  0
    7.2219  -10.9258   26.0211 C   0  0  0  0  0  0  0  0  0  0  0  0
    8.1657  -11.5272   25.2227 C   0  0  0  0  0  0  0  0  0  0  0  0
    8.1302  -12.9208   25.1107 C   0  0  0  0  0  0  0  0  0  0  0  0
    7.1947  -13.6623   25.7687 C   0  0  0  0  0  0  0  0  0  0  0  0
    7.5442  -16.9467   22.8423 C   0  0  0  0  0  0  0  0  0  0  0  0
    8.1254  -18.0306   22.6445 O   0  0  0  0  0  0  0  0  0  0  0  0
    7.5879  -15.9370   21.8589 N   0  0  0  0  0  0  0  0  0  0  0  0
    8.5532  -15.9361   20.7447 C   0  0  1  0  0  0  0  0  0  0  0  0
    8.1798  -14.7913   19.8783 C   0  0  0  0  0  0  0  0  0  0  0  0
    8.5471  -14.8636   18.4431 C   0  0  0  0  0  0  0  0  0  0  0  0
    7.9368  -13.6709   17.6971 C   0  0  0  0  0  0  0  0  0  0  0  0
    8.2594  -13.6696   16.2387 C   0  0  0  0  0  0  0  0  0  0  0  0
    7.6516  -12.5045   15.5908 N   0  0  0  0  0  0  0  0  0  0  0  0
    9.9053  -15.9613   21.2924 C   0  0  0  0  0  0  0  0  0  0  0  0
   10.2730  -15.2420   22.2760 O   0  0  0  0  0  0  0  0  0  0  0  0
   11.9637  -20.2095   24.2409 N   0  0  0  0  0  0  0  0  0  0  0  0
   13.2205  -19.6774   23.8947 C   0  0  0  0  0  0  0  0  0  0  0  0
   14.2540  -20.1823   24.4206 O   0  0  0  0  0  0  0  0  0  0  0  0
   13.3905  -18.5655   22.9447 C   0  0  0  0  0  0  0  0  0  0  0  0
   12.1516  -18.0751   22.2967 C   0  0  0  0  0  0  0  0  0  0  0  0
   12.2557  -16.8996   21.3826 C   0  0  2  0  0  0  0  0  0  0  0  0
   10.8927  -16.8037   20.7539 N   0  0  0  0  0  0  0  0  0  0  0  0
   13.1951  -16.9918   20.2694 C   0  0  0  0  0  0  0  0  0  0  0  0
   12.8867  -17.5013   19.1604 O   0  0  0  0  0  0  0  0  0  0  0  0
   14.5078  -16.4957   20.3976 O   0  0  0  0  0  0  0  0  0  0  0  0
  2  1  1  1
  3  2  1  0
  4  5  2  0
  4  3  1  0
  6  5  1  0
  7 12  2  0
  7  6  1  0
  8  7  1  0
  9 10  1  0
  9  8  2  0
 10 11  2  0
 11 12  1  0
 12  4  1  0
 13  2  1  0
 14 13  2  0
 15 13  1  0
 16 22  1  0
 16 15  1  0
 16 17  1  1
 18 17  1  0
 19 18  1  0
 20 19  1  0
 21 20  1  0
 22 30  1  0
 23 22  2  0
 24 25  1  0
 25 27  1  0
 26 25  2  0
 27 28  1  0
 29 28  1  1
 29 31  1  0
 30 29  1  0
 31 32  2  0
 31 33  1  0
M  END
$$$$
