WKQ.pdb
     RDKit          3D

 33 34  0  0  1  0  0  0  0  0999 V2000
    6.8107  -18.3639   24.7495 N   0  0  0  0  0  0  0  0  0  0  0  0
    6.9786  -16.9739   24.4418 C   0  0  1  0  0  0  0  0  0  0  0  0
    7.7887  -16.2964   25.4939 C   0  0  0  0  0  0  0  0  0  0  0  0
    7.0045  -15.1914   26.0911 C   0  0  0  0  0  0  0  0  0  0  0  0
    5.7179  -15.3049   26.6242 C   0  0  0  0  0  0  0  0  0  0  0  0
    5.3092  -14.1324   27.1139 N   0  0  0  0  0  0  0  0  0  0  0  0
    6.2971  -13.2327   26.9192 C   0  0  0  0  0  0  0  0  0  0  0  0
    6.3759  -11.8862   27.2324 C   0  0  0  0  0  0  0  0  0  0  0  0
    7.5213  -11.1964   26.9029 C   0  0  0  0  0  0  0  0  0  0  0  0
    8.5869  -11.7965   26.2750 C   0  0  0  0  0  0  0  0  0  0  0  0
    8.4802  -13.1573   25.9706 C   0  0  0  0  0  0  0  0  0  0  0  0
    7.3608  -13.8692   26.2842 C   0  0  0  0  0  0  0  0  0  0  0  0
    7.5739  -16.8347   23.0869 C   0  0  0  0  0  0  0  0  0  0  0  0
    8.3271  -17.7358   22.6717 O   0  0  0  0  0  0  0  0  0  0  0  0
    7.3046  -15.7146   22.2736 N   0  0  0  0  0  0  0  0  0  0  0  0
    8.0598  -15.4082   21.0453 C   0  0  1  0  0  0  0  0  0  0  0  0
    7.6333  -14.0499   20.6286 C   0  0  0  0  0  0  0  0  0  0  0  0
    8.2241  -13.4914   19.3879 C   0  0  0  0  0  0  0  0  0  0  0  0
    7.5482  -14.1272   18.1671 C   0  0  0  0  0  0  0  0  0  0  0  0
    8.0964  -13.6259   16.8713 C   0  0  0  0  0  0  0  0  0  0  0  0
    7.3497  -14.2057   15.7520 N   0  0  0  0  0  0  0  0  0  0  0  0
    9.4800  -15.6269   21.2981 C   0  0  0  0  0  0  0  0  0  0  0  0
   10.1206  -15.0432   22.2303 O   0  0  0  0  0  0  0  0  0  0  0  0
   12.0529  -17.8163   24.5231 N   0  0  0  0  0  0  0  0  0  0  0  0
   11.7050  -18.5133   23.3501 C   0  0  0  0  0  0  0  0  0  0  0  0
   10.5993  -19.1265   23.3193 O   0  0  0  0  0  0  0  0  0  0  0  0
   12.5635  -18.5575   22.1548 C   0  0  0  0  0  0  0  0  0  0  0  0
   11.9331  -18.1104   20.8906 C   0  0  0  0  0  0  0  0  0  0  0  0
   11.7177  -16.6466   20.6932 C   0  0  2  0  0  0  0  0  0  0  0  0
   10.2303  -16.5173   20.5114 N   0  0  0  0  0  0  0  0  0  0  0  0
   12.3120  -16.0306   19.5110 C   0  0  0  0  0  0  0  0  0  0  0  0
   11.7864  -16.1041   18.3695 O   0  0  0  0  0  0  0  0  0  0  0  0
   13.5187  -15.3096   19.6096 O   0  0  0  0  0  0  0  0  0  0  0  0
  2  1  1  1
  3  2  1  0
  4  5  2  0
  4  3  1  0
  6  5  1  0
  7 12  2  0
  7  6  1  0
  8  7  1  0
  9 10  1  0
  9  8  2  0
 10 11  2  0
 11 12  1  0
 12  4  1  0
 13  2  1  0
 14 13  2  0
 15 13  1  0
 16 22  1  0
 16 15  1  0
 16 17  1  1
 18 17  1  0
 19 18  1  0
 20 19  1  0
 21 20  1  0
 22 30  1  0
 23 22  2  0
 24 25  1  0
 25 27  1  0
 26 25  2  0
 27 28  1  0
 29 28  1  6
 29 31  1  0
 30 29  1  0
 31 32  2  0
 31 33  1  0
M  END
$$$$
