WKQ.pdb
     RDKit          3D

 33 34  0  0  1  0  0  0  0  0999 V2000
    6.4108  -17.7624   25.1878 N   0  0  0  0  0  0  0  0  0  0  0  0
    6.8865  -16.4949   24.7166 C   0  0  1  0  0  0  0  0  0  0  0  0
    8.0853  -16.0624   25.4899 C   0  0  0  0  0  0  0  0  0  0  0  0
    7.6901  -15.0497   26.4955 C   0  0  0  0  0  0  0  0  0  0  0  0
    7.6301  -15.2572   27.8760 C   0  0  0  0  0  0  0  0  0  0  0  0
    7.2729  -14.1342   28.5028 N   0  0  0  0  0  0  0  0  0  0  0  0
    7.0910  -13.1759   27.5690 C   0  0  0  0  0  0  0  0  0  0  0  0
    6.7128  -11.8493   27.6887 C   0  0  0  0  0  0  0  0  0  0  0  0
    6.5930  -11.0900   26.5462 C   0  0  0  0  0  0  0  0  0  0  0  0
    6.8349  -11.6020   25.2935 C   0  0  0  0  0  0  0  0  0  0  0  0
    7.2156  -12.9446   25.2021 C   0  0  0  0  0  0  0  0  0  0  0  0
    7.3445  -13.7232   26.3135 C   0  0  0  0  0  0  0  0  0  0  0  0
    7.1498  -16.5763   23.2560 C   0  0  0  0  0  0  0  0  0  0  0  0
    7.5711  -17.6500   22.7855 O   0  0  0  0  0  0  0  0  0  0  0  0
    6.9342  -15.4733   22.4042 N   0  0  0  0  0  0  0  0  0  0  0  0
    7.7553  -15.2023   21.2103 C   0  0  1  0  0  0  0  0  0  0  0  0
    7.2670  -13.9144   20.6593 C   0  0  0  0  0  0  0  0  0  0  0  0
    7.9467  -13.3771   19.4553 C   0  0  0  0  0  0  0  0  0  0  0  0
    7.5305  -14.1925   18.2251 C   0  0  0  0  0  0  0  0  0  0  0  0
    8.2207  -13.7537   16.9753 C   0  0  0  0  0  0  0  0  0  0  0  0
    7.7891  -14.5815   15.8460 N   0  0  0  0  0  0  0  0  0  0  0  0
    9.1646  -15.2940   21.5765 C   0  0  0  0  0  0  0  0  0  0  0  0
    9.6213  -14.8993   22.6971 O   0  0  0  0  0  0  0  0  0  0  0  0
   13.6033  -18.6613   24.7838 N   0  0  0  0  0  0  0  0  0  0  0  0
   12.4107  -18.3891   24.0865 C   0  0  0  0  0  0  0  0  0  0  0  0
   11.3260  -18.3607   24.7364 O   0  0  0  0  0  0  0  0  0  0  0  0
   12.3658  -18.1294   22.6380 C   0  0  0  0  0  0  0  0  0  0  0  0
   11.2155  -17.3261   22.1617 C   0  0  0  0  0  0  0  0  0  0  0  0
   11.4800  -16.2378   21.1749 C   0  0  2  0  0  0  0  0  0  0  0  0
   10.1116  -15.8402   20.6936 N   0  0  0  0  0  0  0  0  0  0  0  0
   12.2325  -16.5848   19.9734 C   0  0  0  0  0  0  0  0  0  0  0  0
   11.6751  -16.9180   18.8950 O   0  0  0  0  0  0  0  0  0  0  0  0
   13.6413  -16.5512   19.9765 O   0  0  0  0  0  0  0  0  0  0  0  0
  2  1  1  1
  3  2  1  0
  4  5  2  0
  4  3  1  0
  6  5  1  0
  7 12  2  0
  7  6  1  0
  8  7  1  0
  9 10  1  0
  9  8  2  0
 10 11  2  0
 11 12  1  0
 12  4  1  0
 13  2  1  0
 14 13  2  0
 15 13  1  0
 16 22  1  0
 16 15  1  0
 16 17  1  1
 18 17  1  0
 19 18  1  0
 20 19  1  0
 21 20  1  0
 22 30  1  0
 23 22  2  0
 24 25  1  0
 25 27  1  0
 26 25  2  0
 27 28  1  0
 29 28  1  1
 29 31  1  0
 30 29  1  0
 31 32  2  0
 31 33  1  0
M  END
$$$$
