WKQ.pdb
     RDKit          3D

 33 34  0  0  1  0  0  0  0  0999 V2000
    8.4836  -14.0398   23.9948 N   0  0  0  0  0  0  0  0  0  0  0  0
    8.2364  -15.4356   23.7813 C   0  0  1  0  0  0  0  0  0  0  0  0
    7.0459  -15.8838   24.5585 C   0  0  0  0  0  0  0  0  0  0  0  0
    7.0676  -15.2643   25.9034 C   0  0  0  0  0  0  0  0  0  0  0  0
    7.2267  -15.9501   27.1104 C   0  0  0  0  0  0  0  0  0  0  0  0
    7.2366  -15.0959   28.1360 N   0  0  0  0  0  0  0  0  0  0  0  0
    7.0865  -13.8487   27.6407 C   0  0  0  0  0  0  0  0  0  0  0  0
    7.0233  -12.6195   28.2750 C   0  0  0  0  0  0  0  0  0  0  0  0
    6.8518  -11.4880   27.5092 C   0  0  0  0  0  0  0  0  0  0  0  0
    6.7411  -11.5360   26.1397 C   0  0  0  0  0  0  0  0  0  0  0  0
    6.8086  -12.7905   25.5254 C   0  0  0  0  0  0  0  0  0  0  0  0
    6.9789  -13.9297   26.2543 C   0  0  0  0  0  0  0  0  0  0  0  0
    8.0970  -15.6970   22.3247 C   0  0  0  0  0  0  0  0  0  0  0  0
    7.9811  -16.8759   21.9394 O   0  0  0  0  0  0  0  0  0  0  0  0
    8.0939  -14.6473   21.3831 N   0  0  0  0  0  0  0  0  0  0  0  0
    8.6131  -14.7917   20.0110 C   0  0  1  0  0  0  0  0  0  0  0  0
    8.2722  -13.5308   19.3076 C   0  0  0  0  0  0  0  0  0  0  0  0
    8.6667  -13.4069   17.8831 C   0  0  0  0  0  0  0  0  0  0  0  0
    7.8357  -14.3773   17.0350 C   0  0  0  0  0  0  0  0  0  0  0  0
    8.2188  -14.3635   15.5914 C   0  0  0  0  0  0  0  0  0  0  0  0
    7.4326  -15.3554   14.8535 N   0  0  0  0  0  0  0  0  0  0  0  0
   10.0195  -15.1743   20.0768 C   0  0  0  0  0  0  0  0  0  0  0  0
   10.9165  -14.4454   20.6101 O   0  0  0  0  0  0  0  0  0  0  0  0
   11.5331  -21.0103   21.1063 N   0  0  0  0  0  0  0  0  0  0  0  0
   12.7852  -20.4874   20.7302 C   0  0  0  0  0  0  0  0  0  0  0  0
   13.7973  -21.2433   20.7937 O   0  0  0  0  0  0  0  0  0  0  0  0
   12.9726  -19.1048   20.2604 C   0  0  0  0  0  0  0  0  0  0  0  0
   11.7474  -18.2744   20.1930 C   0  0  0  0  0  0  0  0  0  0  0  0
   11.8845  -16.8558   19.7491 C   0  0  2  0  0  0  0  0  0  0  0  0
   10.4663  -16.3971   19.5478 N   0  0  0  0  0  0  0  0  0  0  0  0
   12.5602  -16.6085   18.4793 C   0  0  0  0  0  0  0  0  0  0  0  0
   13.7852  -16.3280   18.4047 O   0  0  0  0  0  0  0  0  0  0  0  0
   11.8506  -16.6839   17.2642 O   0  0  0  0  0  0  0  0  0  0  0  0
  2  1  1  6
  3  2  1  0
  4  5  2  0
  4  3  1  0
  6  5  1  0
  7 12  2  0
  7  6  1  0
  8  7  1  0
  9 10  1  0
  9  8  2  0
 10 11  2  0
 11 12  1  0
 12  4  1  0
 13  2  1  0
 14 13  2  0
 15 13  1  0
 16 22  1  0
 16 15  1  0
 16 17  1  6
 18 17  1  0
 19 18  1  0
 20 19  1  0
 21 20  1  0
 22 30  1  0
 23 22  2  0
 24 25  1  0
 25 27  1  0
 26 25  2  0
 27 28  1  0
 29 28  1  6
 29 31  1  0
 30 29  1  0
 31 32  2  0
 31 33  1  0
M  END
$$$$
