WKQ.pdb
     RDKit          3D

 33 34  0  0  1  0  0  0  0  0999 V2000
    6.3218  -18.0708   24.3403 N   0  0  0  0  0  0  0  0  0  0  0  0
    6.7187  -16.7497   23.9505 C   0  0  1  0  0  0  0  0  0  0  0  0
    7.6844  -16.1793   24.9325 C   0  0  0  0  0  0  0  0  0  0  0  0
    7.0442  -15.0671   25.6714 C   0  0  0  0  0  0  0  0  0  0  0  0
    5.8668  -15.1602   26.4180 C   0  0  0  0  0  0  0  0  0  0  0  0
    5.5795  -13.9873   26.9867 N   0  0  0  0  0  0  0  0  0  0  0  0
    6.5418  -13.1074   26.6356 C   0  0  0  0  0  0  0  0  0  0  0  0
    6.7084  -11.7689   26.9484 C   0  0  0  0  0  0  0  0  0  0  0  0
    7.7969  -11.1001   26.4345 C   0  0  0  0  0  0  0  0  0  0  0  0
    8.7219  -11.7135   25.6233 C   0  0  0  0  0  0  0  0  0  0  0  0
    8.5290  -13.0660   25.3239 C   0  0  0  0  0  0  0  0  0  0  0  0
    7.4627  -13.7572   25.8173 C   0  0  0  0  0  0  0  0  0  0  0  0
    7.2650  -16.7838   22.5685 C   0  0  0  0  0  0  0  0  0  0  0  0
    7.9297  -17.7763   22.2151 O   0  0  0  0  0  0  0  0  0  0  0  0
    7.0472  -15.7258   21.6621 N   0  0  0  0  0  0  0  0  0  0  0  0
    7.9550  -15.4232   20.5407 C   0  0  1  0  0  0  0  0  0  0  0  0
    7.4722  -14.1495   19.9532 C   0  0  0  0  0  0  0  0  0  0  0  0
    8.2622  -13.5570   18.8464 C   0  0  0  0  0  0  0  0  0  0  0  0
    7.7076  -14.0450   17.5026 C   0  0  0  0  0  0  0  0  0  0  0  0
    8.5265  -13.5953   16.3371 C   0  0  0  0  0  0  0  0  0  0  0  0
    7.9116  -14.0479   15.0867 N   0  0  0  0  0  0  0  0  0  0  0  0
    9.3314  -15.4709   21.0223 C   0  0  0  0  0  0  0  0  0  0  0  0
    9.6968  -14.9831   22.1398 O   0  0  0  0  0  0  0  0  0  0  0  0
   14.0019  -19.6330   23.6417 N   0  0  0  0  0  0  0  0  0  0  0  0
   12.9312  -18.7707   23.3374 C   0  0  0  0  0  0  0  0  0  0  0  0
   11.8403  -18.9221   23.9593 O   0  0  0  0  0  0  0  0  0  0  0  0
   13.0219  -17.6967   22.3345 C   0  0  0  0  0  0  0  0  0  0  0  0
   11.7304  -17.1678   21.8367 C   0  0  0  0  0  0  0  0  0  0  0  0
   11.7636  -16.1280   20.7663 C   0  0  2  0  0  0  0  0  0  0  0  0
   10.3472  -16.0761   20.2630 N   0  0  0  0  0  0  0  0  0  0  0  0
   12.5874  -16.3952   19.5914 C   0  0  0  0  0  0  0  0  0  0  0  0
   13.8392  -16.5134   19.6518 O   0  0  0  0  0  0  0  0  0  0  0  0
   11.9960  -16.5406   18.3207 O   0  0  0  0  0  0  0  0  0  0  0  0
  2  1  1  1
  3  2  1  0
  4  5  2  0
  4  3  1  0
  6  5  1  0
  7 12  2  0
  7  6  1  0
  8  7  1  0
  9 10  1  0
  9  8  2  0
 10 11  2  0
 11 12  1  0
 12  4  1  0
 13  2  1  0
 14 13  2  0
 15 13  1  0
 16 22  1  0
 16 15  1  0
 16 17  1  1
 18 17  1  0
 19 18  1  0
 20 19  1  0
 21 20  1  0
 22 30  1  0
 23 22  2  0
 24 25  1  0
 25 27  1  0
 26 25  2  0
 27 28  1  0
 29 28  1  1
 29 31  1  0
 30 29  1  0
 31 32  2  0
 31 33  1  0
M  END
$$$$
