WKQ.pdb
     RDKit          3D

 33 34  0  0  1  0  0  0  0  0999 V2000
    9.4683  -15.1295   24.6942 N   0  0  0  0  0  0  0  0  0  0  0  0
    8.8760  -16.3932   24.3666 C   0  0  1  0  0  0  0  0  0  0  0  0
    7.7285  -16.6867   25.2717 C   0  0  0  0  0  0  0  0  0  0  0  0
    7.2861  -15.4389   25.9350 C   0  0  0  0  0  0  0  0  0  0  0  0
    6.0119  -14.8742   25.8347 C   0  0  0  0  0  0  0  0  0  0  0  0
    5.9291  -13.7709   26.5813 N   0  0  0  0  0  0  0  0  0  0  0  0
    7.1242  -13.5832   27.1811 C   0  0  0  0  0  0  0  0  0  0  0  0
    7.5640  -12.5925   28.0426 C   0  0  0  0  0  0  0  0  0  0  0  0
    8.8611  -12.6434   28.5022 C   0  0  0  0  0  0  0  0  0  0  0  0
    9.7329  -13.6413   28.1361 C   0  0  0  0  0  0  0  0  0  0  0  0
    9.2620  -14.6291   27.2652 C   0  0  0  0  0  0  0  0  0  0  0  0
    7.9835  -14.6084   26.7930 C   0  0  0  0  0  0  0  0  0  0  0  0
    8.4865  -16.4008   22.9321 C   0  0  0  0  0  0  0  0  0  0  0  0
    8.0250  -17.4506   22.4457 O   0  0  0  0  0  0  0  0  0  0  0  0
    8.6285  -15.2551   22.1223 N   0  0  0  0  0  0  0  0  0  0  0  0
    9.2241  -15.2878   20.7743 C   0  0  1  0  0  0  0  0  0  0  0  0
    8.6017  -14.1704   20.0227 C   0  0  0  0  0  0  0  0  0  0  0  0
    8.8969  -14.0651   18.5729 C   0  0  0  0  0  0  0  0  0  0  0  0
    8.0345  -12.9588   17.9533 C   0  0  0  0  0  0  0  0  0  0  0  0
    8.0864  -12.9475   16.4606 C   0  0  0  0  0  0  0  0  0  0  0  0
    7.8745  -14.3007   15.9403 N   0  0  0  0  0  0  0  0  0  0  0  0
   10.6775  -15.2951   20.9010 C   0  0  0  0  0  0  0  0  0  0  0  0
   11.3027  -14.6466   21.8003 O   0  0  0  0  0  0  0  0  0  0  0  0
   15.7216  -19.5678   19.1419 N   0  0  0  0  0  0  0  0  0  0  0  0
   14.9755  -19.2621   20.2963 C   0  0  0  0  0  0  0  0  0  0  0  0
   14.6711  -20.2038   21.0837 O   0  0  0  0  0  0  0  0  0  0  0  0
   14.5378  -17.8977   20.6346 C   0  0  0  0  0  0  0  0  0  0  0  0
   13.4347  -17.3508   19.8103 C   0  0  0  0  0  0  0  0  0  0  0  0
   12.9812  -15.9548   20.0818 C   0  0  2  0  0  0  0  0  0  0  0  0
   11.4808  -16.0395   20.0204 N   0  0  0  0  0  0  0  0  0  0  0  0
   13.3553  -14.9244   19.1182 C   0  0  0  0  0  0  0  0  0  0  0  0
   14.5149  -14.4382   19.0590 O   0  0  0  0  0  0  0  0  0  0  0  0
   12.4119  -14.4318   18.1946 O   0  0  0  0  0  0  0  0  0  0  0  0
  2  1  1  1
  3  2  1  0
  4  5  2  0
  4  3  1  0
  6  5  1  0
  7 12  2  0
  7  6  1  0
  8  7  1  0
  9 10  1  0
  9  8  2  0
 10 11  2  0
 11 12  1  0
 12  4  1  0
 13  2  1  0
 14 13  2  0
 15 13  1  0
 16 22  1  0
 16 15  1  0
 16 17  1  6
 18 17  1  0
 19 18  1  0
 20 19  1  0
 21 20  1  0
 22 30  1  0
 23 22  2  0
 24 25  1  0
 25 27  1  0
 26 25  2  0
 27 28  1  0
 29 28  1  6
 29 31  1  0
 30 29  1  0
 31 32  2  0
 31 33  1  0
M  END
$$$$
