WKQ.pdb
     RDKit          3D

 33 34  0  0  1  0  0  0  0  0999 V2000
    6.1718  -17.8241   24.5532 N   0  0  0  0  0  0  0  0  0  0  0  0
    6.7447  -16.5463   24.2471 C   0  0  1  0  0  0  0  0  0  0  0  0
    7.6447  -16.0963   25.3469 C   0  0  0  0  0  0  0  0  0  0  0  0
    6.9937  -15.0051   26.1075 C   0  0  0  0  0  0  0  0  0  0  0  0
    5.9765  -15.1685   27.0515 C   0  0  0  0  0  0  0  0  0  0  0  0
    5.6349  -13.9913   27.5797 N   0  0  0  0  0  0  0  0  0  0  0  0
    6.4032  -13.0395   27.0077 C   0  0  0  0  0  0  0  0  0  0  0  0
    6.4419  -11.6681   27.1943 C   0  0  0  0  0  0  0  0  0  0  0  0
    7.3347  -10.9248   26.4549 C   0  0  0  0  0  0  0  0  0  0  0  0
    8.1870  -11.4956   25.5396 C   0  0  0  0  0  0  0  0  0  0  0  0
    8.1266  -12.8827   25.3716 C   0  0  0  0  0  0  0  0  0  0  0  0
    7.2552  -13.6474   26.0886 C   0  0  0  0  0  0  0  0  0  0  0  0
    7.4398  -16.6163   22.9350 C   0  0  0  0  0  0  0  0  0  0  0  0
    7.9764  -17.6899   22.6017 O   0  0  0  0  0  0  0  0  0  0  0  0
    7.5020  -15.5028   22.0720 N   0  0  0  0  0  0  0  0  0  0  0  0
    8.2410  -15.5100   20.7965 C   0  0  1  0  0  0  0  0  0  0  0  0
    7.7729  -14.3206   20.0436 C   0  0  0  0  0  0  0  0  0  0  0  0
    7.1717  -14.5433   18.7060 C   0  0  0  0  0  0  0  0  0  0  0  0
    8.0320  -13.8588   17.6370 C   0  0  0  0  0  0  0  0  0  0  0  0
    7.4762  -14.0087   16.2587 C   0  0  0  0  0  0  0  0  0  0  0  0
    8.3175  -13.2917   15.2971 N   0  0  0  0  0  0  0  0  0  0  0  0
    9.6683  -15.6169   21.0791 C   0  0  0  0  0  0  0  0  0  0  0  0
   10.2565  -14.9257   21.9716 O   0  0  0  0  0  0  0  0  0  0  0  0
   11.8165  -19.5497   23.8548 N   0  0  0  0  0  0  0  0  0  0  0  0
   12.8859  -19.7036   22.9519 C   0  0  0  0  0  0  0  0  0  0  0  0
   13.9016  -20.3572   23.3270 O   0  0  0  0  0  0  0  0  0  0  0  0
   12.8765  -19.1457   21.5895 C   0  0  0  0  0  0  0  0  0  0  0  0
   11.6679  -18.3741   21.2164 C   0  0  0  0  0  0  0  0  0  0  0  0
   11.8302  -16.9238   20.9024 C   0  0  2  0  0  0  0  0  0  0  0  0
   10.4855  -16.5126   20.3687 N   0  0  0  0  0  0  0  0  0  0  0  0
   12.7910  -16.5616   19.8651 C   0  0  0  0  0  0  0  0  0  0  0  0
   12.4768  -16.4714   18.6494 O   0  0  0  0  0  0  0  0  0  0  0  0
   14.1327  -16.2868   20.1966 O   0  0  0  0  0  0  0  0  0  0  0  0
  2  1  1  1
  3  2  1  0
  4  5  2  0
  4  3  1  0
  6  5  1  0
  7 12  2  0
  7  6  1  0
  8  7  1  0
  9 10  1  0
  9  8  2  0
 10 11  2  0
 11 12  1  0
 12  4  1  0
 13  2  1  0
 14 13  2  0
 15 13  1  0
 16 22  1  0
 16 15  1  0
 16 17  1  1
 18 17  1  0
 19 18  1  0
 20 19  1  0
 21 20  1  0
 22 30  1  0
 23 22  2  0
 24 25  1  0
 25 27  1  0
 26 25  2  0
 27 28  1  0
 29 28  1  6
 29 31  1  0
 30 29  1  0
 31 32  2  0
 31 33  1  0
M  END
$$$$
