WKQ.pdb
     RDKit          3D

 33 34  0  0  1  0  0  0  0  0999 V2000
    6.5123  -18.7963   24.2426 N   0  0  0  0  0  0  0  0  0  0  0  0
    6.6726  -17.3723   24.2022 C   0  0  1  0  0  0  0  0  0  0  0  0
    7.2753  -16.8746   25.4715 C   0  0  0  0  0  0  0  0  0  0  0  0
    6.6725  -15.5706   25.8308 C   0  0  0  0  0  0  0  0  0  0  0  0
    5.3168  -15.3453   26.0832 C   0  0  0  0  0  0  0  0  0  0  0  0
    5.1083  -14.0691   26.4139 N   0  0  0  0  0  0  0  0  0  0  0  0
    6.2988  -13.4323   26.3880 C   0  0  0  0  0  0  0  0  0  0  0  0
    6.6299  -12.1120   26.6414 C   0  0  0  0  0  0  0  0  0  0  0  0
    7.9472  -11.7268   26.5281 C   0  0  0  0  0  0  0  0  0  0  0  0
    8.9429  -12.6056   26.1728 C   0  0  0  0  0  0  0  0  0  0  0  0
    8.5801  -13.9329   25.9228 C   0  0  0  0  0  0  0  0  0  0  0  0
    7.2855  -14.3468   26.0272 C   0  0  0  0  0  0  0  0  0  0  0  0
    7.4722  -16.9974   23.0066 C   0  0  0  0  0  0  0  0  0  0  0  0
    8.1090  -17.8881   22.4125 O   0  0  0  0  0  0  0  0  0  0  0  0
    7.5223  -15.6680   22.5390 N   0  0  0  0  0  0  0  0  0  0  0  0
    8.2153  -15.2735   21.2991 C   0  0  1  0  0  0  0  0  0  0  0  0
    7.6880  -13.9337   20.9419 C   0  0  0  0  0  0  0  0  0  0  0  0
    8.3094  -13.2317   19.7925 C   0  0  0  0  0  0  0  0  0  0  0  0
    8.2685  -14.1375   18.5558 C   0  0  0  0  0  0  0  0  0  0  0  0
    7.8530  -13.4133   17.3174 C   0  0  0  0  0  0  0  0  0  0  0  0
    7.9871  -14.2920   16.1527 N   0  0  0  0  0  0  0  0  0  0  0  0
    9.6542  -15.4060   21.5006 C   0  0  0  0  0  0  0  0  0  0  0  0
   10.5129  -15.1262   20.6036 O   0  0  0  0  0  0  0  0  0  0  0  0
   10.9971  -17.7702   26.8021 N   0  0  0  0  0  0  0  0  0  0  0  0
   11.1067  -16.3699   26.7024 C   0  0  0  0  0  0  0  0  0  0  0  0
   10.8614  -15.6720   27.7283 O   0  0  0  0  0  0  0  0  0  0  0  0
   11.4994  -15.6788   25.4632 C   0  0  0  0  0  0  0  0  0  0  0  0
   11.7931  -16.5519   24.3026 C   0  0  0  0  0  0  0  0  0  0  0  0
   11.6642  -15.9682   22.9348 C   0  0  2  0  0  0  0  0  0  0  0  0
   10.1792  -15.8542   22.7245 N   0  0  0  0  0  0  0  0  0  0  0  0
   12.1590  -16.7608   21.8136 C   0  0  0  0  0  0  0  0  0  0  0  0
   11.4043  -17.4677   21.0956 O   0  0  0  0  0  0  0  0  0  0  0  0
   13.5290  -16.7569   21.4837 O   0  0  0  0  0  0  0  0  0  0  0  0
  2  1  1  1
  3  2  1  0
  4  5  2  0
  4  3  1  0
  6  5  1  0
  7 12  2  0
  7  6  1  0
  8  7  1  0
  9 10  1  0
  9  8  2  0
 10 11  2  0
 11 12  1  0
 12  4  1  0
 13  2  1  0
 14 13  2  0
 15 13  1  0
 16 22  1  0
 16 15  1  0
 16 17  1  1
 18 17  1  0
 19 18  1  0
 20 19  1  0
 21 20  1  0
 22 30  1  0
 23 22  2  0
 24 25  1  0
 25 27  1  0
 26 25  2  0
 27 28  1  0
 29 28  1  1
 29 31  1  0
 30 29  1  0
 31 32  2  0
 31 33  1  0
M  END
$$$$
