MNR.pdb
     RDKit          3D

 28 27  0  0  1  0  0  0  0  0999 V2000
   20.0575  -19.1197  -11.7030 C   0  0  0  0  0  0  0  0  0  0  0  0
   19.6633  -17.8289  -12.8748 S   0  0  0  0  0  0  0  0  0  0  0  0
   21.0515  -17.0671  -13.6633 C   0  0  0  0  0  0  0  0  0  0  0  0
   20.8729  -15.8997  -14.5255 C   0  0  0  0  0  0  0  0  0  0  0  0
   20.5452  -16.0267  -15.9647 C   0  0  2  0  0  0  0  0  0  0  0  0
   21.5137  -16.5858  -16.8099 N   0  0  0  0  0  0  0  0  0  0  0  0
   20.0582  -14.7231  -16.5217 C   0  0  0  0  0  0  0  0  0  0  0  0
   20.8974  -13.8948  -16.9539 O   0  0  0  0  0  0  0  0  0  0  0  0
   16.6997  -14.9665  -19.9477 N   0  0  0  0  0  0  0  0  0  0  0  0
   17.5112  -13.9478  -19.3255 C   0  0  0  0  0  0  0  0  0  0  0  0
   18.6111  -13.6995  -19.8945 O   0  0  0  0  0  0  0  0  0  0  0  0
   17.0669  -13.2455  -18.0990 C   0  0  0  0  0  0  0  0  0  0  0  0
   18.2657  -13.1049  -17.1411 C   0  0  2  0  0  0  0  0  0  0  0  0
   18.6662  -14.3627  -16.5931 N   0  0  0  0  0  0  0  0  0  0  0  0
   18.0527  -12.0137  -16.1932 C   0  0  0  0  0  0  0  0  0  0  0  0
   17.3701  -12.2847  -15.1381 O   0  0  0  0  0  0  0  0  0  0  0  0
   23.0823   -5.4041  -16.3909 N   0  0  0  0  0  0  0  0  0  0  0  0
   21.8408   -5.3051  -15.6558 C   0  0  0  0  0  0  0  0  0  0  0  0
   21.3737   -4.2018  -15.2030 N   0  0  0  0  0  0  0  0  0  0  0  0
   21.0556   -6.4557  -15.3928 N   0  0  0  0  0  0  0  0  0  0  0  0
   21.4869   -7.7588  -15.5603 C   0  0  0  0  0  0  0  0  0  0  0  0
   20.5682   -8.9103  -15.3063 C   0  0  0  0  0  0  0  0  0  0  0  0
   19.1184   -8.5245  -15.3541 C   0  0  0  0  0  0  0  0  0  0  0  0
   18.2460   -9.7261  -15.1791 C   0  0  2  0  0  0  0  0  0  0  0  0
   18.5036  -10.6875  -16.2834 N   0  0  0  0  0  0  0  0  0  0  0  0
   16.8017   -9.4418  -15.2173 C   0  0  0  0  0  0  0  0  0  0  0  0
   16.1411   -9.0607  -14.0391 O   0  0  0  0  0  0  0  0  0  0  0  0
   16.1051   -9.5233  -16.2754 O   0  0  0  0  0  0  0  0  0  0  0  0
  2  1  1  0
  3  2  1  0
  4  3  1  0
  5  4  1  0
  5  6  1  6
  7  5  1  0
  8  7  2  0
  9 10  1  0
 10 12  1  0
 11 10  2  0
 13 12  1  1
 13 14  1  0
 14  7  1  0
 15 13  1  0
 15 16  2  0
 17 18  1  0
 18 19  2  0
 18 20  1  0
 20 21  1  0
 22 23  1  0
 22 21  1  0
 24 23  1  6
 24 25  1  0
 25 15  1  0
 26 24  1  0
 27 26  1  0
 28 26  2  0
M  END
$$$$
