MNR.pdb
     RDKit          3D

 28 27  0  0  1  0  0  0  0  0999 V2000
   24.2452  -20.8959   -8.7279 C   0  0  0  0  0  0  0  0  0  0  0  0
   25.9503  -20.3602   -8.7153 S   0  0  0  0  0  0  0  0  0  0  0  0
   26.8449  -20.6333  -10.2167 C   0  0  0  0  0  0  0  0  0  0  0  0
   26.1395  -20.9217  -11.4646 C   0  0  0  0  0  0  0  0  0  0  0  0
   26.8586  -21.1769  -12.7345 C   0  0  2  0  0  0  0  0  0  0  0  0
   27.8359  -20.2535  -13.1304 N   0  0  0  0  0  0  0  0  0  0  0  0
   25.8958  -21.4288  -13.8555 C   0  0  0  0  0  0  0  0  0  0  0  0
   25.5312  -20.4644  -14.5724 O   0  0  0  0  0  0  0  0  0  0  0  0
   23.4609  -25.4150  -17.8436 N   0  0  0  0  0  0  0  0  0  0  0  0
   24.0011  -24.1814  -17.3241 C   0  0  0  0  0  0  0  0  0  0  0  0
   23.7097  -23.1383  -17.9739 O   0  0  0  0  0  0  0  0  0  0  0  0
   24.8405  -24.1567  -16.1035 C   0  0  0  0  0  0  0  0  0  0  0  0
   24.4777  -22.9112  -15.2720 C   0  0  2  0  0  0  0  0  0  0  0  0
   25.3608  -22.7295  -14.1630 N   0  0  0  0  0  0  0  0  0  0  0  0
   23.0458  -22.8733  -14.9841 C   0  0  0  0  0  0  0  0  0  0  0  0
   22.6504  -23.4758  -13.9196 O   0  0  0  0  0  0  0  0  0  0  0  0
   16.1760  -18.6303  -18.3806 N   0  0  0  0  0  0  0  0  0  0  0  0
   15.8899  -20.0309  -18.1622 C   0  0  0  0  0  0  0  0  0  0  0  0
   14.9305  -20.6543  -18.7378 N   0  0  0  0  0  0  0  0  0  0  0  0
   16.6793  -20.8068  -17.2764 N   0  0  0  0  0  0  0  0  0  0  0  0
   17.5487  -20.2869  -16.3352 C   0  0  0  0  0  0  0  0  0  0  0  0
   18.4196  -21.1841  -15.5160 C   0  0  0  0  0  0  0  0  0  0  0  0
   19.8236  -21.2745  -16.0390 C   0  0  0  0  0  0  0  0  0  0  0  0
   20.6312  -22.2310  -15.2215 C   0  0  2  0  0  0  0  0  0  0  0  0
   22.0288  -22.2545  -15.7279 N   0  0  0  0  0  0  0  0  0  0  0  0
   20.1586  -23.6248  -15.2700 C   0  0  0  0  0  0  0  0  0  0  0  0
   19.3284  -24.1089  -14.2472 O   0  0  0  0  0  0  0  0  0  0  0  0
   20.4649  -24.4304  -16.2021 O   0  0  0  0  0  0  0  0  0  0  0  0
  2  1  1  0
  3  2  1  0
  4  3  1  0
  5  4  1  0
  5  6  1  6
  7  5  1  0
  8  7  2  0
  9 10  1  0
 10 12  1  0
 11 10  2  0
 13 12  1  1
 13 14  1  0
 14  7  1  0
 15 13  1  0
 15 16  2  0
 17 18  1  0
 18 19  2  0
 18 20  1  0
 20 21  1  0
 22 23  1  0
 22 21  1  0
 24 23  1  6
 24 25  1  0
 25 15  1  0
 26 24  1  0
 27 26  1  0
 28 26  2  0
M  END
$$$$
