MNR.pdb
     RDKit          3D

 28 27  0  0  1  0  0  0  0  0999 V2000
   26.9007  -18.4878  -18.9176 C   0  0  0  0  0  0  0  0  0  0  0  0
   28.1434  -19.7712  -18.9725 S   0  0  0  0  0  0  0  0  0  0  0  0
   27.5455  -21.4198  -18.7403 C   0  0  0  0  0  0  0  0  0  0  0  0
   26.9048  -21.8122  -17.4859 C   0  0  0  0  0  0  0  0  0  0  0  0
   27.5184  -21.5312  -16.1670 C   0  0  2  0  0  0  0  0  0  0  0  0
   28.7001  -22.2089  -15.8369 N   0  0  0  0  0  0  0  0  0  0  0  0
   26.5118  -21.6730  -15.0653 C   0  0  0  0  0  0  0  0  0  0  0  0
   25.4935  -22.3820  -15.2593 O   0  0  0  0  0  0  0  0  0  0  0  0
   25.1543  -21.7233   -9.3406 N   0  0  0  0  0  0  0  0  0  0  0  0
   24.9802  -20.8081  -10.4431 C   0  0  0  0  0  0  0  0  0  0  0  0
   23.8604  -20.2267  -10.5016 O   0  0  0  0  0  0  0  0  0  0  0  0
   26.0569  -20.5747  -11.4336 C   0  0  0  0  0  0  0  0  0  0  0  0
   25.6305  -21.1753  -12.7870 C   0  0  2  0  0  0  0  0  0  0  0  0
   26.6484  -21.0375  -13.7808 N   0  0  0  0  0  0  0  0  0  0  0  0
   24.2882  -20.7321  -13.1563 C   0  0  0  0  0  0  0  0  0  0  0  0
   24.2041  -19.6768  -13.8855 O   0  0  0  0  0  0  0  0  0  0  0  0
   24.5242  -25.7540  -15.5180 N   0  0  0  0  0  0  0  0  0  0  0  0
   23.2209  -26.2092  -15.9484 C   0  0  0  0  0  0  0  0  0  0  0  0
   22.8766  -27.4426  -15.9757 N   0  0  0  0  0  0  0  0  0  0  0  0
   22.2303  -25.2880  -16.3725 N   0  0  0  0  0  0  0  0  0  0  0  0
   22.3258  -23.9144  -16.2449 C   0  0  0  0  0  0  0  0  0  0  0  0
   21.9542  -23.2344  -14.9667 C   0  0  0  0  0  0  0  0  0  0  0  0
   22.1295  -21.7447  -15.0234 C   0  0  0  0  0  0  0  0  0  0  0  0
   21.8674  -21.1307  -13.6855 C   0  0  2  0  0  0  0  0  0  0  0  0
   23.0585  -21.3171  -12.8156 N   0  0  0  0  0  0  0  0  0  0  0  0
   20.7344  -21.7225  -12.9544 C   0  0  0  0  0  0  0  0  0  0  0  0
   19.4263  -21.5055  -13.4143 O   0  0  0  0  0  0  0  0  0  0  0  0
   20.8749  -22.4318  -11.9110 O   0  0  0  0  0  0  0  0  0  0  0  0
  2  1  1  0
  3  2  1  0
  4  3  1  0
  5  4  1  0
  5  6  1  1
  7  5  1  0
  8  7  2  0
  9 10  1  0
 10 12  1  0
 11 10  2  0
 13 12  1  1
 13 14  1  0
 14  7  1  0
 15 13  1  0
 15 16  2  0
 17 18  1  0
 18 19  2  0
 18 20  1  0
 20 21  1  0
 22 23  1  0
 22 21  1  0
 24 23  1  6
 24 25  1  0
 25 15  1  0
 26 24  1  0
 27 26  1  0
 28 26  2  0
M  END
$$$$
