MNR.pdb
     RDKit          3D

 28 27  0  0  1  0  0  0  0  0999 V2000
   25.3191  -22.7524  -22.4791 C   0  0  0  0  0  0  0  0  0  0  0  0
   26.1621  -22.8600  -20.9067 S   0  0  0  0  0  0  0  0  0  0  0  0
   25.1286  -22.7193  -19.4780 C   0  0  0  0  0  0  0  0  0  0  0  0
   25.7117  -22.6358  -18.1396 C   0  0  0  0  0  0  0  0  0  0  0  0
   25.8740  -21.3450  -17.4308 C   0  0  2  0  0  0  0  0  0  0  0  0
   26.7568  -20.4039  -17.9783 N   0  0  0  0  0  0  0  0  0  0  0  0
   26.1806  -21.5640  -15.9800 C   0  0  0  0  0  0  0  0  0  0  0  0
   25.5205  -22.4204  -15.3412 O   0  0  0  0  0  0  0  0  0  0  0  0
   27.7098  -21.2712  -11.1453 N   0  0  0  0  0  0  0  0  0  0  0  0
   28.8417  -20.8034  -11.9090 C   0  0  0  0  0  0  0  0  0  0  0  0
   29.9073  -20.6225  -11.2555 O   0  0  0  0  0  0  0  0  0  0  0  0
   28.7444  -20.5579  -13.3668 C   0  0  0  0  0  0  0  0  0  0  0  0
   27.3460  -20.9846  -13.8536 C   0  0  2  0  0  0  0  0  0  0  0  0
   27.2029  -20.8419  -15.2686 N   0  0  0  0  0  0  0  0  0  0  0  0
   26.2997  -20.3905  -13.0248 C   0  0  0  0  0  0  0  0  0  0  0  0
   25.7725  -19.2974  -13.4484 O   0  0  0  0  0  0  0  0  0  0  0  0
   18.8862  -23.4827  -12.2385 N   0  0  0  0  0  0  0  0  0  0  0  0
   18.6793  -22.2005  -12.8745 C   0  0  0  0  0  0  0  0  0  0  0  0
   17.6105  -21.8904  -13.5085 N   0  0  0  0  0  0  0  0  0  0  0  0
   19.6759  -21.1935  -12.8261 N   0  0  0  0  0  0  0  0  0  0  0  0
   21.0307  -21.4176  -12.9888 C   0  0  0  0  0  0  0  0  0  0  0  0
   22.0202  -20.8908  -12.0000 C   0  0  0  0  0  0  0  0  0  0  0  0
   23.4438  -21.1050  -12.4251 C   0  0  0  0  0  0  0  0  0  0  0  0
   24.3882  -20.5519  -11.4065 C   0  0  2  0  0  0  0  0  0  0  0  0
   25.7850  -20.8647  -11.8080 N   0  0  0  0  0  0  0  0  0  0  0  0
   24.2205  -21.1087  -10.0537 C   0  0  0  0  0  0  0  0  0  0  0  0
   23.1919  -20.6254   -9.2301 O   0  0  0  0  0  0  0  0  0  0  0  0
   24.9675  -22.0189   -9.5792 O   0  0  0  0  0  0  0  0  0  0  0  0
  2  1  1  0
  3  2  1  0
  4  3  1  0
  5  4  1  0
  5  6  1  6
  7  5  1  0
  8  7  2  0
  9 10  1  0
 10 12  1  0
 11 10  2  0
 13 12  1  1
 13 14  1  0
 14  7  1  0
 15 13  1  0
 15 16  2  0
 17 18  1  0
 18 19  2  0
 18 20  1  0
 20 21  1  0
 22 23  1  0
 22 21  1  0
 24 23  1  6
 24 25  1  0
 25 15  1  0
 26 24  1  0
 27 26  1  0
 28 26  2  0
M  END
$$$$
