MNR.pdb
     RDKit          3D

 28 27  0  0  1  0  0  0  0  0999 V2000
   28.6840  -21.2873  -10.7155 C   0  0  0  0  0  0  0  0  0  0  0  0
   29.0223  -19.9631  -11.8673 S   0  0  0  0  0  0  0  0  0  0  0  0
   27.9558  -19.8893  -13.2766 C   0  0  0  0  0  0  0  0  0  0  0  0
   26.7708  -20.7418  -13.3621 C   0  0  0  0  0  0  0  0  0  0  0  0
   25.8719  -20.7246  -14.5396 C   0  0  2  0  0  0  0  0  0  0  0  0
   25.6568  -19.4971  -15.1812 N   0  0  0  0  0  0  0  0  0  0  0  0
   24.5631  -21.3843  -14.2257 C   0  0  0  0  0  0  0  0  0  0  0  0
   24.5667  -22.4931  -13.6360 O   0  0  0  0  0  0  0  0  0  0  0  0
   21.0795  -20.3408  -11.4680 N   0  0  0  0  0  0  0  0  0  0  0  0
   21.2514  -19.8243  -12.8048 C   0  0  0  0  0  0  0  0  0  0  0  0
   21.7232  -18.6554  -12.8847 O   0  0  0  0  0  0  0  0  0  0  0  0
   20.8946  -20.6276  -13.9973 C   0  0  0  0  0  0  0  0  0  0  0  0
   22.0786  -21.5470  -14.3538 C   0  0  2  0  0  0  0  0  0  0  0  0
   23.2861  -20.8114  -14.5631 N   0  0  0  0  0  0  0  0  0  0  0  0
   21.7041  -22.5033  -15.3929 C   0  0  0  0  0  0  0  0  0  0  0  0
   20.8657  -22.0998  -16.2799 O   0  0  0  0  0  0  0  0  0  0  0  0
   19.7832  -29.7476  -14.0942 N   0  0  0  0  0  0  0  0  0  0  0  0
   20.9199  -29.6904  -13.2020 C   0  0  0  0  0  0  0  0  0  0  0  0
   21.7380  -30.6619  -13.0365 N   0  0  0  0  0  0  0  0  0  0  0  0
   21.1947  -28.5235  -12.4453 N   0  0  0  0  0  0  0  0  0  0  0  0
   20.4815  -27.3421  -12.5324 C   0  0  0  0  0  0  0  0  0  0  0  0
   20.3136  -26.6413  -13.8420 C   0  0  0  0  0  0  0  0  0  0  0  0
   21.2627  -25.4916  -14.0169 C   0  0  0  0  0  0  0  0  0  0  0  0
   21.1987  -24.9617  -15.4135 C   0  0  2  0  0  0  0  0  0  0  0  0
   22.1473  -23.8255  -15.5537 N   0  0  0  0  0  0  0  0  0  0  0  0
   19.8795  -24.4398  -15.8080 C   0  0  0  0  0  0  0  0  0  0  0  0
   19.1685  -23.6170  -14.9208 O   0  0  0  0  0  0  0  0  0  0  0  0
   19.3368  -24.6963  -16.9266 O   0  0  0  0  0  0  0  0  0  0  0  0
  2  1  1  0
  3  2  1  0
  4  3  1  0
  5  4  1  0
  5  6  1  1
  7  5  1  0
  8  7  2  0
  9 10  1  0
 10 12  1  0
 11 10  2  0
 13 12  1  6
 13 14  1  0
 14  7  1  0
 15 13  1  0
 15 16  2  0
 17 18  1  0
 18 19  2  0
 18 20  1  0
 20 21  1  0
 22 23  1  0
 22 21  1  0
 24 23  1  1
 24 25  1  0
 25 15  1  0
 26 24  1  0
 27 26  1  0
 28 26  2  0
M  END
$$$$
