MNR.pdb
     RDKit          3D

 28 27  0  0  1  0  0  0  0  0999 V2000
   23.1502  -13.4389  -15.3958 C   0  0  0  0  0  0  0  0  0  0  0  0
   24.1042  -13.5136  -16.9054 S   0  0  0  0  0  0  0  0  0  0  0  0
   25.4202  -14.6957  -16.9163 C   0  0  0  0  0  0  0  0  0  0  0  0
   26.0080  -15.1705  -15.6644 C   0  0  0  0  0  0  0  0  0  0  0  0
   27.1210  -16.1480  -15.6383 C   0  0  2  0  0  0  0  0  0  0  0  0
   27.9278  -16.2522  -16.7798 N   0  0  0  0  0  0  0  0  0  0  0  0
   26.6363  -17.5027  -15.2180 C   0  0  0  0  0  0  0  0  0  0  0  0
   26.3433  -18.3452  -16.1019 O   0  0  0  0  0  0  0  0  0  0  0  0
   26.2569  -21.6949  -10.6355 N   0  0  0  0  0  0  0  0  0  0  0  0
   26.3766  -21.0326  -11.9124 C   0  0  0  0  0  0  0  0  0  0  0  0
   26.5735  -21.7877  -12.9056 O   0  0  0  0  0  0  0  0  0  0  0  0
   26.2705  -19.5599  -12.0341 C   0  0  0  0  0  0  0  0  0  0  0  0
   25.9951  -19.1982  -13.5064 C   0  0  2  0  0  0  0  0  0  0  0  0
   26.4881  -17.8992  -13.8419 N   0  0  0  0  0  0  0  0  0  0  0  0
   24.6086  -19.4870  -13.8654 C   0  0  0  0  0  0  0  0  0  0  0  0
   23.7838  -18.5014  -13.8403 O   0  0  0  0  0  0  0  0  0  0  0  0
   18.6636  -23.1569  -12.6038 N   0  0  0  0  0  0  0  0  0  0  0  0
   18.7338  -23.1855  -11.1597 C   0  0  0  0  0  0  0  0  0  0  0  0
   18.0768  -24.0137  -10.4366 N   0  0  0  0  0  0  0  0  0  0  0  0
   19.5572  -22.2743  -10.4516 N   0  0  0  0  0  0  0  0  0  0  0  0
   20.4651  -21.4126  -11.0393 C   0  0  0  0  0  0  0  0  0  0  0  0
   21.6693  -21.9362  -11.7534 C   0  0  0  0  0  0  0  0  0  0  0  0
   22.5045  -20.8505  -12.3671 C   0  0  0  0  0  0  0  0  0  0  0  0
   22.6642  -21.0737  -13.8368 C   0  0  2  0  0  0  0  0  0  0  0  0
   24.0499  -20.7186  -14.2417 N   0  0  0  0  0  0  0  0  0  0  0  0
   21.7737  -20.2567  -14.6780 C   0  0  0  0  0  0  0  0  0  0  0  0
   21.5009  -18.9300  -14.3103 O   0  0  0  0  0  0  0  0  0  0  0  0
   21.2271  -20.6915  -15.7381 O   0  0  0  0  0  0  0  0  0  0  0  0
  2  1  1  0
  3  2  1  0
  4  3  1  0
  5  4  1  0
  5  6  1  6
  7  5  1  0
  8  7  2  0
  9 10  1  0
 10 12  1  0
 11 10  2  0
 13 12  1  1
 13 14  1  0
 14  7  1  0
 15 13  1  0
 15 16  2  0
 17 18  1  0
 18 19  2  0
 18 20  1  0
 20 21  1  0
 22 23  1  0
 22 21  1  0
 24 23  1  1
 24 25  1  0
 25 15  1  0
 26 24  1  0
 27 26  1  0
 28 26  2  0
M  END
$$$$
