MNR.pdb
     RDKit          3D

 28 27  0  0  1  0  0  0  0  0999 V2000
   24.8671  -18.6023  -19.1493 C   0  0  0  0  0  0  0  0  0  0  0  0
   26.4965  -19.2448  -19.5052 S   0  0  0  0  0  0  0  0  0  0  0  0
   26.7513  -20.9455  -19.0902 C   0  0  0  0  0  0  0  0  0  0  0  0
   26.2130  -21.5002  -17.8489 C   0  0  0  0  0  0  0  0  0  0  0  0
   26.9944  -21.5172  -16.5903 C   0  0  2  0  0  0  0  0  0  0  0  0
   28.1337  -22.3320  -16.5380 N   0  0  0  0  0  0  0  0  0  0  0  0
   26.1080  -21.7853  -15.4116 C   0  0  0  0  0  0  0  0  0  0  0  0
   25.7255  -22.9614  -15.1932 O   0  0  0  0  0  0  0  0  0  0  0  0
   25.0568  -22.2424  -10.9546 N   0  0  0  0  0  0  0  0  0  0  0  0
   25.0668  -20.7996  -10.9957 C   0  0  0  0  0  0  0  0  0  0  0  0
   25.2293  -20.2204   -9.8852 O   0  0  0  0  0  0  0  0  0  0  0  0
   24.8982  -20.0598  -12.2682 C   0  0  0  0  0  0  0  0  0  0  0  0
   24.7828  -21.0724  -13.4240 C   0  0  2  0  0  0  0  0  0  0  0  0
   25.6670  -20.7598  -14.5026 N   0  0  0  0  0  0  0  0  0  0  0  0
   23.3841  -21.3135  -13.7705 C   0  0  0  0  0  0  0  0  0  0  0  0
   22.9468  -20.7584  -14.8443 O   0  0  0  0  0  0  0  0  0  0  0  0
   18.6563  -25.8088   -8.5961 N   0  0  0  0  0  0  0  0  0  0  0  0
   17.8007  -24.6687   -8.8402 C   0  0  0  0  0  0  0  0  0  0  0  0
   16.7359  -24.4280   -8.1703 N   0  0  0  0  0  0  0  0  0  0  0  0
   18.1061  -23.7332   -9.8606 N   0  0  0  0  0  0  0  0  0  0  0  0
   19.2888  -23.7066  -10.5765 C   0  0  0  0  0  0  0  0  0  0  0  0
   19.5158  -22.6881  -11.6468 C   0  0  0  0  0  0  0  0  0  0  0  0
   20.3060  -23.2224  -12.8058 C   0  0  0  0  0  0  0  0  0  0  0  0
   21.0198  -22.1156  -13.5135 C   0  0  2  0  0  0  0  0  0  0  0  0
   22.4400  -22.0851  -13.0749 N   0  0  0  0  0  0  0  0  0  0  0  0
   20.4825  -20.7718  -13.2421 C   0  0  0  0  0  0  0  0  0  0  0  0
   19.4691  -20.2540  -14.0636 O   0  0  0  0  0  0  0  0  0  0  0  0
   20.8910  -20.0394  -12.2891 O   0  0  0  0  0  0  0  0  0  0  0  0
  2  1  1  0
  3  2  1  0
  4  3  1  0
  5  4  1  0
  5  6  1  6
  7  5  1  0
  8  7  2  0
  9 10  1  0
 10 12  1  0
 11 10  2  0
 13 12  1  1
 13 14  1  0
 14  7  1  0
 15 13  1  0
 15 16  2  0
 17 18  1  0
 18 19  2  0
 18 20  1  0
 20 21  1  0
 22 23  1  0
 22 21  1  0
 24 23  1  1
 24 25  1  0
 25 15  1  0
 26 24  1  0
 27 26  1  0
 28 26  2  0
M  END
$$$$
