MNR.pdb
     RDKit          3D

 28 27  0  0  1  0  0  0  0  0999 V2000
   29.1288  -24.9283  -18.0857 C   0  0  0  0  0  0  0  0  0  0  0  0
   29.8687  -23.4334  -18.7279 S   0  0  0  0  0  0  0  0  0  0  0  0
   29.8607  -22.0474  -17.6287 C   0  0  0  0  0  0  0  0  0  0  0  0
   28.9841  -22.0271  -16.4585 C   0  0  0  0  0  0  0  0  0  0  0  0
   27.8371  -21.0958  -16.3502 C   0  0  2  0  0  0  0  0  0  0  0  0
   28.1013  -19.7210  -16.4184 N   0  0  0  0  0  0  0  0  0  0  0  0
   27.0050  -21.4068  -15.1428 C   0  0  0  0  0  0  0  0  0  0  0  0
   26.4823  -22.5441  -15.0408 O   0  0  0  0  0  0  0  0  0  0  0  0
   24.4667  -21.5259  -10.7632 N   0  0  0  0  0  0  0  0  0  0  0  0
   25.4168  -20.4522  -10.5965 C   0  0  0  0  0  0  0  0  0  0  0  0
   25.5140  -19.9823   -9.4282 O   0  0  0  0  0  0  0  0  0  0  0  0
   26.2211  -19.9463  -11.7331 C   0  0  0  0  0  0  0  0  0  0  0  0
   25.9260  -20.8067  -12.9769 C   0  0  2  0  0  0  0  0  0  0  0  0
   26.7702  -20.4659  -14.0787 N   0  0  0  0  0  0  0  0  0  0  0  0
   24.4907  -20.8661  -13.2434 C   0  0  0  0  0  0  0  0  0  0  0  0
   23.9559  -19.8291  -13.7828 O   0  0  0  0  0  0  0  0  0  0  0  0
   19.9596  -28.1897  -13.2487 N   0  0  0  0  0  0  0  0  0  0  0  0
   20.5793  -27.3908  -14.2826 C   0  0  0  0  0  0  0  0  0  0  0  0
   20.8213  -27.8264  -15.4626 N   0  0  0  0  0  0  0  0  0  0  0  0
   20.9598  -26.0476  -14.0364 N   0  0  0  0  0  0  0  0  0  0  0  0
   20.7164  -25.3630  -12.8599 C   0  0  0  0  0  0  0  0  0  0  0  0
   21.0886  -23.9222  -12.7189 C   0  0  0  0  0  0  0  0  0  0  0  0
   21.8964  -23.4100  -13.8757 C   0  0  0  0  0  0  0  0  0  0  0  0
   22.2813  -21.9814  -13.6598 C   0  0  2  0  0  0  0  0  0  0  0  0
   23.6049  -21.9239  -12.9853 N   0  0  0  0  0  0  0  0  0  0  0  0
   21.3554  -21.2234  -12.8016 C   0  0  0  0  0  0  0  0  0  0  0  0
   20.1240  -20.7962  -13.3220 O   0  0  0  0  0  0  0  0  0  0  0  0
   21.6115  -20.9277  -11.5939 O   0  0  0  0  0  0  0  0  0  0  0  0
  2  1  1  0
  3  2  1  0
  4  3  1  0
  5  4  1  0
  5  6  1  1
  7  5  1  0
  8  7  2  0
  9 10  1  0
 10 12  1  0
 11 10  2  0
 13 12  1  1
 13 14  1  0
 14  7  1  0
 15 13  1  0
 15 16  2  0
 17 18  1  0
 18 19  2  0
 18 20  1  0
 20 21  1  0
 22 23  1  0
 22 21  1  0
 24 23  1  1
 24 25  1  0
 25 15  1  0
 26 24  1  0
 27 26  1  0
 28 26  2  0
M  END
$$$$
