LRD.pdb
     RDKit          3D

 28 27  0  0  1  0  0  0  0  0999 V2000
    5.9976  -12.1198   26.4151 C   0  0  0  0  0  0  0  0  0  0  0  0
    6.9380  -13.0229   27.1380 C   0  0  2  0  0  0  0  0  0  0  0  0
    7.9041  -12.2538   28.0107 C   0  0  0  0  0  0  0  0  0  0  0  0
    7.6186  -13.9880   26.2084 C   0  0  0  0  0  0  0  0  0  0  0  0
    6.5446  -14.6762   25.3955 C   0  0  2  0  0  0  0  0  0  0  0  0
    6.0193  -15.7353   26.2299 N   0  0  0  0  0  0  0  0  0  0  0  0
    7.1004  -15.3052   24.1680 C   0  0  0  0  0  0  0  0  0  0  0  0
    7.4732  -16.5010   24.2308 O   0  0  0  0  0  0  0  0  0  0  0  0
    9.7166  -14.3110   15.9110 N   0  0  0  0  0  0  0  0  0  0  0  0
    8.2635  -14.3538   15.9753 C   0  0  0  0  0  0  0  0  0  0  0  0
    7.6589  -14.8079   14.9910 N   0  0  0  0  0  0  0  0  0  0  0  0
    7.5941  -13.8902   17.1269 N   0  0  0  0  0  0  0  0  0  0  0  0
    8.1742  -13.4453   18.3449 C   0  0  0  0  0  0  0  0  0  0  0  0
    8.5439  -14.4462   19.3752 C   0  0  0  0  0  0  0  0  0  0  0  0
    7.7599  -14.1649   20.6330 C   0  0  0  0  0  0  0  0  0  0  0  0
    7.8996  -15.1341   21.7492 C   0  0  2  0  0  0  0  0  0  0  0  0
    7.2161  -14.5913   22.9461 N   0  0  0  0  0  0  0  0  0  0  0  0
    9.2908  -15.4896   22.1185 C   0  0  0  0  0  0  0  0  0  0  0  0
    9.9048  -14.5970   22.8242 O   0  0  0  0  0  0  0  0  0  0  0  0
    6.7424  -14.9841   14.6890 N   0  0  0  0  0  0  0  0  0  0  0  0
    9.9794  -16.6620   21.7904 C   0  0  1  0  0  0  0  0  0  0  0  0
   11.3775  -16.7665   22.2022 C   0  0  0  0  0  0  0  0  0  0  0  0
   11.7048  -18.0761   22.8487 C   0  0  0  0  0  0  0  0  0  0  0  0
   11.9337  -17.9549   24.3033 O   0  0  0  0  0  0  0  0  0  0  0  0
   11.9141  -16.8563   24.9250 C   0  0  0  0  0  0  0  0  0  0  0  0
   12.2155  -16.6907   20.9588 O   0  0  0  0  0  0  0  0  0  0  0  0
   11.6787  -16.6833   19.8302 O   0  0  0  0  0  0  0  0  0  0  0  0
   12.1875  -19.0980   25.0577 O   0  0  0  0  0  0  0  0  0  0  0  0
  2  1  1  6
  3  2  1  0
  4  5  1  0
  4  2  1  0
  5  6  1  1
  7  8  2  0
  7  5  1  0
  9 10  1  0
 10 11  2  0
 12 10  1  0
 12 13  1  0
 13 14  1  0
 14 15  1  0
 16 15  1  6
 16 17  1  0
 17  7  1  0
 18 16  1  0
 19 18  2  0
 20 18  1  0
 21 25  1  0
 21 20  1  0
 21 22  1  6
 23 24  2  0
 23 22  1  0
 25 28  1  0
 26 25  2  0
 27 23  1  0
M  END
$$$$
