LRD.pdb
     RDKit          3D

 28 27  0  0  1  0  0  0  0  0999 V2000
    7.8918  -12.8288   27.8692 C   0  0  0  0  0  0  0  0  0  0  0  0
    6.9922  -12.8775   26.6813 C   0  0  2  0  0  0  0  0  0  0  0  0
    6.2408  -11.5799   26.4862 C   0  0  0  0  0  0  0  0  0  0  0  0
    6.0961  -14.0838   26.7025 C   0  0  0  0  0  0  0  0  0  0  0  0
    6.9595  -15.3005   26.4535 C   0  0  2  0  0  0  0  0  0  0  0  0
    8.3254  -14.8845   26.6878 N   0  0  0  0  0  0  0  0  0  0  0  0
    6.8664  -15.7630   25.0432 C   0  0  0  0  0  0  0  0  0  0  0  0
    5.7626  -16.1929   24.6314 O   0  0  0  0  0  0  0  0  0  0  0  0
    7.7469  -12.3360   19.3054 N   0  0  0  0  0  0  0  0  0  0  0  0
    8.0234  -13.3198   18.2695 C   0  0  0  0  0  0  0  0  0  0  0  0
    7.3516  -13.2598   17.2275 N   0  0  0  0  0  0  0  0  0  0  0  0
    9.0241  -14.2932   18.4696 N   0  0  0  0  0  0  0  0  0  0  0  0
    9.4167  -14.8912   19.6969 C   0  0  0  0  0  0  0  0  0  0  0  0
    8.4758  -15.8076   20.3859 C   0  0  0  0  0  0  0  0  0  0  0  0
    8.2826  -15.3331   21.8048 C   0  0  0  0  0  0  0  0  0  0  0  0
    7.9879  -16.3658   22.8302 C   0  0  2  0  0  0  0  0  0  0  0  0
    7.9836  -15.7286   24.1674 N   0  0  0  0  0  0  0  0  0  0  0  0
    8.9153  -17.5222   22.8595 C   0  0  0  0  0  0  0  0  0  0  0  0
    9.2187  -17.9980   21.6962 O   0  0  0  0  0  0  0  0  0  0  0  0
    7.2872  -13.6937   16.3501 N   0  0  0  0  0  0  0  0  0  0  0  0
    9.4783  -18.1262   23.9885 C   0  0  2  0  0  0  0  0  0  0  0  0
   10.9358  -18.1535   24.0886 C   0  0  0  0  0  0  0  0  0  0  0  0
   11.5870  -16.9221   23.5413 C   0  0  0  0  0  0  0  0  0  0  0  0
   12.5763  -17.2192   22.4848 O   0  0  0  0  0  0  0  0  0  0  0  0
   12.5562  -18.2687   21.7834 C   0  0  0  0  0  0  0  0  0  0  0  0
   11.2817  -18.1980   25.5489 O   0  0  0  0  0  0  0  0  0  0  0  0
   10.5702  -17.6061   26.3888 O   0  0  0  0  0  0  0  0  0  0  0  0
   13.5993  -16.3105   22.2247 O   0  0  0  0  0  0  0  0  0  0  0  0
  2  1  1  1
  3  2  1  0
  4  5  1  0
  4  2  1  0
  5  6  1  6
  7  8  2  0
  7  5  1  0
  9 10  1  0
 10 11  2  0
 12 10  1  0
 12 13  1  0
 13 14  1  0
 14 15  1  0
 16 15  1  6
 16 17  1  0
 17  7  1  0
 18 16  1  0
 19 18  2  0
 20 18  1  0
 21 25  1  0
 21 20  1  0
 21 22  1  6
 23 24  2  0
 23 22  1  0
 25 28  1  0
 26 25  2  0
 27 23  1  0
M  END
$$$$
