LRD.pdb
     RDKit          3D

 28 27  0  0  1  0  0  0  0  0999 V2000
    5.8093  -12.5817   25.8368 C   0  0  0  0  0  0  0  0  0  0  0  0
    6.3409  -13.2823   27.0406 C   0  0  2  0  0  0  0  0  0  0  0  0
    7.1401  -12.3555   27.9288 C   0  0  0  0  0  0  0  0  0  0  0  0
    7.0798  -14.5403   26.6797 C   0  0  0  0  0  0  0  0  0  0  0  0
    6.3094  -15.2221   25.5708 C   0  0  2  0  0  0  0  0  0  0  0  0
    5.7586  -16.4318   26.1428 N   0  0  0  0  0  0  0  0  0  0  0  0
    7.1979  -15.6208   24.4470 C   0  0  0  0  0  0  0  0  0  0  0  0
    7.7279  -16.7568   24.4839 O   0  0  0  0  0  0  0  0  0  0  0  0
    7.3179  -13.0238   16.2237 N   0  0  0  0  0  0  0  0  0  0  0  0
    7.6048  -14.3791   16.6693 C   0  0  0  0  0  0  0  0  0  0  0  0
    7.2708  -15.3115   15.9213 N   0  0  0  0  0  0  0  0  0  0  0  0
    8.2406  -14.5944   17.9096 N   0  0  0  0  0  0  0  0  0  0  0  0
    8.7031  -13.6133   18.8270 C   0  0  0  0  0  0  0  0  0  0  0  0
    9.3024  -14.0523   20.1107 C   0  0  0  0  0  0  0  0  0  0  0  0
    8.2300  -14.0637   21.1718 C   0  0  0  0  0  0  0  0  0  0  0  0
    8.3034  -15.1348   22.1974 C   0  0  2  0  0  0  0  0  0  0  0  0
    7.4544  -14.7557   23.3506 N   0  0  0  0  0  0  0  0  0  0  0  0
    9.6633  -15.4533   22.6948 C   0  0  0  0  0  0  0  0  0  0  0  0
   10.1893  -14.5406   23.4445 O   0  0  0  0  0  0  0  0  0  0  0  0
    7.4158  -16.2757   15.8133 N   0  0  0  0  0  0  0  0  0  0  0  0
   10.4065  -16.6110   22.4420 C   0  0  2  0  0  0  0  0  0  0  0  0
   11.7404  -16.7040   23.0311 C   0  0  0  0  0  0  0  0  0  0  0  0
   12.0920  -18.0886   23.4774 C   0  0  0  0  0  0  0  0  0  0  0  0
   13.4767  -18.1930   23.9823 O   0  0  0  0  0  0  0  0  0  0  0  0
   14.0947  -17.2384   24.5307 C   0  0  0  0  0  0  0  0  0  0  0  0
   12.7277  -16.3450   21.9584 O   0  0  0  0  0  0  0  0  0  0  0  0
   12.4255  -16.4626   20.7515 O   0  0  0  0  0  0  0  0  0  0  0  0
   14.1645  -19.3981   23.8612 O   0  0  0  0  0  0  0  0  0  0  0  0
  2  1  1  6
  3  2  1  0
  4  5  1  0
  4  2  1  0
  5  6  1  1
  7  8  2  0
  7  5  1  0
  9 10  1  0
 10 11  2  0
 12 10  1  0
 12 13  1  0
 13 14  1  0
 14 15  1  0
 16 15  1  6
 16 17  1  0
 17  7  1  0
 18 16  1  0
 19 18  2  0
 20 18  1  0
 21 25  1  0
 21 20  1  0
 21 22  1  1
 23 24  2  0
 23 22  1  0
 25 28  1  0
 26 25  2  0
 27 23  1  0
M  END
$$$$
