LRD.pdb
     RDKit          3D

 28 27  0  0  1  0  0  0  0  0999 V2000
    6.3326  -12.2516   28.1210 C   0  0  0  0  0  0  0  0  0  0  0  0
    6.7280  -12.3936   26.6906 C   0  0  2  0  0  0  0  0  0  0  0  0
    6.5139  -11.1140   25.9138 C   0  0  0  0  0  0  0  0  0  0  0  0
    6.0898  -13.5919   26.0461 C   0  0  0  0  0  0  0  0  0  0  0  0
    7.0728  -14.7381   26.1349 C   0  0  2  0  0  0  0  0  0  0  0  0
    8.3497  -14.1524   26.4815 N   0  0  0  0  0  0  0  0  0  0  0  0
    7.2349  -15.4276   24.8274 C   0  0  0  0  0  0  0  0  0  0  0  0
    6.3066  -16.1710   24.4295 O   0  0  0  0  0  0  0  0  0  0  0  0
    8.2418  -11.9813   18.9704 N   0  0  0  0  0  0  0  0  0  0  0  0
    8.0427  -13.3490   18.5150 C   0  0  0  0  0  0  0  0  0  0  0  0
    8.6107  -13.6927   17.4663 N   0  0  0  0  0  0  0  0  0  0  0  0
    7.2298  -14.2292   19.2589 N   0  0  0  0  0  0  0  0  0  0  0  0
    6.7946  -14.0784   20.6027 C   0  0  0  0  0  0  0  0  0  0  0  0
    7.8074  -13.9814   21.6819 C   0  0  0  0  0  0  0  0  0  0  0  0
    8.6881  -15.2053   21.6367 C   0  0  0  0  0  0  0  0  0  0  0  0
    8.6879  -16.0845   22.8333 C   0  0  2  0  0  0  0  0  0  0  0  0
    8.4004  -15.2642   24.0329 N   0  0  0  0  0  0  0  0  0  0  0  0
    9.9379  -16.8462   23.0687 C   0  0  0  0  0  0  0  0  0  0  0  0
   10.0244  -17.9550   22.4093 O   0  0  0  0  0  0  0  0  0  0  0  0
    8.6626  -14.4605   16.8579 N   0  0  0  0  0  0  0  0  0  0  0  0
   11.0001  -16.4900   23.9061 C   0  0  1  0  0  0  0  0  0  0  0  0
   12.1384  -17.4028   23.9851 C   0  0  0  0  0  0  0  0  0  0  0  0
   13.4575  -16.6971   24.0288 C   0  0  0  0  0  0  0  0  0  0  0  0
   13.7800  -16.0075   22.7625 O   0  0  0  0  0  0  0  0  0  0  0  0
   13.0298  -16.0232   21.7472 C   0  0  0  0  0  0  0  0  0  0  0  0
   12.0198  -18.1523   25.2806 O   0  0  0  0  0  0  0  0  0  0  0  0
   11.0592  -17.9407   26.0515 O   0  0  0  0  0  0  0  0  0  0  0  0
   14.9701  -15.2922   22.6520 O   0  0  0  0  0  0  0  0  0  0  0  0
  2  1  1  1
  3  2  1  0
  4  5  1  0
  4  2  1  0
  5  6  1  6
  7  8  2  0
  7  5  1  0
  9 10  1  0
 10 11  2  0
 12 10  1  0
 12 13  1  0
 13 14  1  0
 14 15  1  0
 16 15  1  6
 16 17  1  0
 17  7  1  0
 18 16  1  0
 19 18  2  0
 20 18  1  0
 21 25  1  0
 21 20  1  0
 21 22  1  6
 23 24  2  0
 23 22  1  0
 25 28  1  0
 26 25  2  0
 27 23  1  0
M  END
$$$$
