EET.pdb
     RDKit          3D

 26 25  0  0  1  0  0  0  0  0999 V2000
    8.7903  -14.0483   18.6501 N   0  0  0  0  0  0  0  0  0  0  0  0
    9.1477  -15.1990   19.4498 C   0  0  1  0  0  0  0  0  0  0  0  0
   10.6172  -15.3809   19.5860 C   0  0  0  0  0  0  0  0  0  0  0  0
   11.3331  -14.0668   19.6780 C   0  0  0  0  0  0  0  0  0  0  0  0
   12.7801  -14.2159   19.8296 C   0  0  0  0  0  0  0  0  0  0  0  0
   13.2591  -14.6696   20.9054 O   0  0  0  0  0  0  0  0  0  0  0  0
    8.4639  -15.0828   20.7754 C   0  0  0  0  0  0  0  0  0  0  0  0
    7.7715  -14.0686   21.0672 O   0  0  0  0  0  0  0  0  0  0  0  0
   13.6812  -13.8679   18.8060 O   0  0  0  0  0  0  0  0  0  0  0  0
    8.5835  -16.1053   21.7180 N   0  0  0  0  0  0  0  0  0  0  0  0
    7.7229  -16.2572   22.9079 C   0  0  1  0  0  0  0  0  0  0  0  0
    7.8704  -17.6705   23.4182 C   0  0  0  0  0  0  0  0  0  0  0  0
    6.9787  -17.8709   24.5999 C   0  0  0  0  0  0  0  0  0  0  0  0
    7.0348  -19.2878   25.0921 C   0  0  0  0  0  0  0  0  0  0  0  0
    6.1316  -20.0901   24.8565 O   0  0  0  0  0  0  0  0  0  0  0  0
    8.2562  -15.3344   23.9040 C   0  0  0  0  0  0  0  0  0  0  0  0
    9.4728  -15.0269   23.8702 O   0  0  0  0  0  0  0  0  0  0  0  0
    8.1379  -19.6545   25.8184 O   0  0  0  0  0  0  0  0  0  0  0  0
    7.5223  -11.8163   27.2274 C   0  0  0  0  0  0  0  0  0  0  0  0
    6.9201  -12.8240   26.2873 C   0  0  1  0  0  0  0  0  0  0  0  0
    6.2727  -12.2149   25.2224 O   0  0  0  0  0  0  0  0  0  0  0  0
    8.0309  -13.7613   25.7801 C   0  0  2  0  0  0  0  0  0  0  0  0
    7.4532  -14.7613   24.9064 N   0  0  0  0  0  0  0  0  0  0  0  0
    8.6815  -14.4116   26.9142 C   0  0  0  0  0  0  0  0  0  0  0  0
    9.4230  -13.6902   27.8182 O   0  0  0  0  0  0  0  0  0  0  0  0
    8.5543  -15.6754   27.0604 O   0  0  0  0  0  0  0  0  0  0  0  0
  2  1  1  6
  2  7  1  0
  3  2  1  0
  4  5  1  0
  4  3  1  0
  5  6  2  0
  5  9  1  0
  7 10  1  0
  7  8  2  0
 10 11  1  0
 11 12  1  1
 12 13  1  0
 13 14  1  0
 14 15  2  0
 16 11  1  0
 16 17  2  0
 18 14  1  0
 20 19  1  1
 20 21  1  0
 20 22  1  0
 22 23  1  6
 23 16  1  0
 24 25  1  0
 24 22  1  0
 26 24  2  0
M  END
$$$$
