EET.pdb
     RDKit          3D

 26 25  0  0  1  0  0  0  0  0999 V2000
    9.6001  -16.7898   17.0537 N   0  0  0  0  0  0  0  0  0  0  0  0
    8.3237  -16.8721   17.7285 C   0  0  1  0  0  0  0  0  0  0  0  0
    7.4275  -17.9115   17.1563 C   0  0  0  0  0  0  0  0  0  0  0  0
    7.5822  -18.0203   15.6690 C   0  0  0  0  0  0  0  0  0  0  0  0
    6.6982  -19.0234   15.0763 C   0  0  0  0  0  0  0  0  0  0  0  0
    6.1605  -19.9016   15.8058 O   0  0  0  0  0  0  0  0  0  0  0  0
    8.5747  -17.0789   19.1888 C   0  0  0  0  0  0  0  0  0  0  0  0
    7.6219  -17.2586   19.9969 O   0  0  0  0  0  0  0  0  0  0  0  0
    6.4149  -19.0527   13.6980 O   0  0  0  0  0  0  0  0  0  0  0  0
    9.8800  -17.0756   19.6832 N   0  0  0  0  0  0  0  0  0  0  0  0
   10.2507  -17.3722   21.0812 C   0  0  1  0  0  0  0  0  0  0  0  0
   11.7435  -17.5910   21.1361 C   0  0  0  0  0  0  0  0  0  0  0  0
   12.0488  -19.0269   20.8588 C   0  0  0  0  0  0  0  0  0  0  0  0
   13.5290  -19.2706   20.8096 C   0  0  0  0  0  0  0  0  0  0  0  0
   14.1032  -19.9383   21.6696 O   0  0  0  0  0  0  0  0  0  0  0  0
    9.9177  -16.1735   21.8430 C   0  0  0  0  0  0  0  0  0  0  0  0
   10.4330  -15.0753   21.5201 O   0  0  0  0  0  0  0  0  0  0  0  0
   14.2197  -18.7170   19.7629 O   0  0  0  0  0  0  0  0  0  0  0  0
    7.3329  -14.0443   21.7242 C   0  0  0  0  0  0  0  0  0  0  0  0
    7.2822  -14.5069   23.1543 C   0  0  1  0  0  0  0  0  0  0  0  0
    6.3723  -15.5388   23.3317 O   0  0  0  0  0  0  0  0  0  0  0  0
    8.6919  -14.9488   23.5873 C   0  0  2  0  0  0  0  0  0  0  0  0
    9.0267  -16.1955   22.9310 N   0  0  0  0  0  0  0  0  0  0  0  0
    8.7281  -15.1271   25.0362 C   0  0  0  0  0  0  0  0  0  0  0  0
    8.9395  -16.3640   25.5954 O   0  0  0  0  0  0  0  0  0  0  0  0
    8.5582  -14.1087   25.7902 O   0  0  0  0  0  0  0  0  0  0  0  0
  2  1  1  6
  2  7  1  0
  3  2  1  0
  4  5  1  0
  4  3  1  0
  5  6  2  0
  5  9  1  0
  7 10  1  0
  7  8  2  0
 10 11  1  0
 11 12  1  6
 12 13  1  0
 13 14  1  0
 14 15  2  0
 16 11  1  0
 16 17  2  0
 18 14  1  0
 20 19  1  6
 20 21  1  0
 20 22  1  0
 22 23  1  6
 23 16  1  0
 24 25  1  0
 24 22  1  0
 26 24  2  0
M  END
$$$$
