EET.pdb
     RDKit          3D

 26 25  0  0  1  0  0  0  0  0999 V2000
   10.0718  -18.9157   20.6388 N   0  0  0  0  0  0  0  0  0  0  0  0
   10.0166  -17.5038   20.9468 C   0  0  1  0  0  0  0  0  0  0  0  0
    9.5732  -16.6728   19.7962 C   0  0  0  0  0  0  0  0  0  0  0  0
    9.0032  -17.5120   18.6923 C   0  0  0  0  0  0  0  0  0  0  0  0
   10.0247  -18.0177   17.7759 C   0  0  0  0  0  0  0  0  0  0  0  0
    9.6855  -18.5440   16.6802 O   0  0  0  0  0  0  0  0  0  0  0  0
    9.1484  -17.3173   22.1509 C   0  0  0  0  0  0  0  0  0  0  0  0
    7.9378  -16.9784   22.0379 O   0  0  0  0  0  0  0  0  0  0  0  0
   11.3992  -17.9414   18.0689 O   0  0  0  0  0  0  0  0  0  0  0  0
    9.6709  -17.5173   23.4297 N   0  0  0  0  0  0  0  0  0  0  0  0
    8.8980  -17.3990   24.6820 C   0  0  1  0  0  0  0  0  0  0  0  0
    9.5777  -18.2399   25.7358 C   0  0  0  0  0  0  0  0  0  0  0  0
    8.8680  -18.0763   27.0402 C   0  0  0  0  0  0  0  0  0  0  0  0
    9.5310  -18.8727   28.1260 C   0  0  0  0  0  0  0  0  0  0  0  0
   10.6946  -18.6591   28.4659 O   0  0  0  0  0  0  0  0  0  0  0  0
    8.9807  -15.9948   25.0685 C   0  0  0  0  0  0  0  0  0  0  0  0
   10.0039  -15.3323   24.7684 O   0  0  0  0  0  0  0  0  0  0  0  0
    8.7849  -19.8528   28.7274 O   0  0  0  0  0  0  0  0  0  0  0  0
    6.7894  -11.7908   26.0869 C   0  0  0  0  0  0  0  0  0  0  0  0
    6.6949  -13.2501   25.7355 C   0  0  1  0  0  0  0  0  0  0  0  0
    6.3123  -13.4401   24.4158 O   0  0  0  0  0  0  0  0  0  0  0  0
    8.0549  -13.9188   26.0058 C   0  0  2  0  0  0  0  0  0  0  0  0
    7.9464  -15.3423   25.7632 N   0  0  0  0  0  0  0  0  0  0  0  0
    8.4529  -13.6818   27.3906 C   0  0  0  0  0  0  0  0  0  0  0  0
    8.7263  -12.4145   27.8450 O   0  0  0  0  0  0  0  0  0  0  0  0
    8.5469  -14.6773   28.1873 O   0  0  0  0  0  0  0  0  0  0  0  0
  2  1  1  6
  2  7  1  0
  3  2  1  0
  4  5  1  0
  4  3  1  0
  5  6  2  0
  5  9  1  0
  7 10  1  0
  7  8  2  0
 10 11  1  0
 11 12  1  1
 12 13  1  0
 13 14  1  0
 14 15  2  0
 16 11  1  0
 16 17  2  0
 18 14  1  0
 20 19  1  6
 20 21  1  0
 20 22  1  0
 22 23  1  1
 23 16  1  0
 24 25  1  0
 24 22  1  0
 26 24  2  0
M  END
$$$$
