EET.pdb
     RDKit          3D

 26 25  0  0  1  0  0  0  0  0999 V2000
   10.6367  -14.4266   19.3760 N   0  0  0  0  0  0  0  0  0  0  0  0
   11.2216  -15.4298   20.2378 C   0  0  1  0  0  0  0  0  0  0  0  0
   12.6571  -15.1793   20.5337 C   0  0  0  0  0  0  0  0  0  0  0  0
   13.1274  -13.8832   19.9447 C   0  0  0  0  0  0  0  0  0  0  0  0
   14.5735  -13.8470   19.7292 C   0  0  0  0  0  0  0  0  0  0  0  0
   15.3281  -13.3226   20.5941 O   0  0  0  0  0  0  0  0  0  0  0  0
   10.3932  -15.5255   21.4800 C   0  0  0  0  0  0  0  0  0  0  0  0
    9.6445  -14.5757   21.8413 O   0  0  0  0  0  0  0  0  0  0  0  0
   15.1732  -14.3831   18.5743 O   0  0  0  0  0  0  0  0  0  0  0  0
   10.4376  -16.6787   22.2651 N   0  0  0  0  0  0  0  0  0  0  0  0
    9.5386  -16.9567   23.4028 C   0  0  1  0  0  0  0  0  0  0  0  0
    9.4613  -18.4532   23.5869 C   0  0  0  0  0  0  0  0  0  0  0  0
    8.6100  -19.0458   22.5117 C   0  0  0  0  0  0  0  0  0  0  0  0
    8.5431  -20.5406   22.6299 C   0  0  0  0  0  0  0  0  0  0  0  0
    8.0848  -21.0899   23.6315 O   0  0  0  0  0  0  0  0  0  0  0  0
   10.1829  -16.3669   24.5712 C   0  0  0  0  0  0  0  0  0  0  0  0
   11.4007  -16.0670   24.5176 O   0  0  0  0  0  0  0  0  0  0  0  0
    9.0152  -21.2735   21.5722 O   0  0  0  0  0  0  0  0  0  0  0  0
   10.0006  -13.4060   28.3134 C   0  0  0  0  0  0  0  0  0  0  0  0
    9.3368  -14.1208   27.1687 C   0  0  1  0  0  0  0  0  0  0  0  0
    9.2047  -13.3033   26.0559 O   0  0  0  0  0  0  0  0  0  0  0  0
   10.1549  -15.3779   26.8221 C   0  0  2  0  0  0  0  0  0  0  0  0
    9.4866  -16.1091   25.7657 N   0  0  0  0  0  0  0  0  0  0  0  0
   10.2820  -16.2238   28.0055 C   0  0  0  0  0  0  0  0  0  0  0  0
   11.0769  -15.8529   29.0628 O   0  0  0  0  0  0  0  0  0  0  0  0
    9.6390  -17.3280   28.0498 O   0  0  0  0  0  0  0  0  0  0  0  0
  2  1  1  6
  2  7  1  0
  3  2  1  0
  4  5  1  0
  4  3  1  0
  5  6  2  0
  5  9  1  0
  7 10  1  0
  7  8  2  0
 10 11  1  0
 11 12  1  1
 12 13  1  0
 13 14  1  0
 14 15  2  0
 16 11  1  0
 16 17  2  0
 18 14  1  0
 20 19  1  1
 20 21  1  0
 20 22  1  0
 22 23  1  6
 23 16  1  0
 24 25  1  0
 24 22  1  0
 26 24  2  0
M  END
$$$$
