EET.pdb
     RDKit          3D

 26 25  0  0  1  0  0  0  0  0999 V2000
   18.3266  -21.0677   14.2359 N   0  0  0  0  0  0  0  0  0  0  0  0
   18.8197  -20.3318   15.3789 C   0  0  1  0  0  0  0  0  0  0  0  0
   18.3903  -18.9082   15.3854 C   0  0  0  0  0  0  0  0  0  0  0  0
   16.9854  -18.7499   14.8864 C   0  0  0  0  0  0  0  0  0  0  0  0
   16.7936  -17.5304   14.1022 C   0  0  0  0  0  0  0  0  0  0  0  0
   17.7814  -16.7956   13.8252 O   0  0  0  0  0  0  0  0  0  0  0  0
   18.4058  -21.0563   16.6207 C   0  0  0  0  0  0  0  0  0  0  0  0
   17.4502  -21.8808   16.6088 O   0  0  0  0  0  0  0  0  0  0  0  0
   15.5280  -17.1319   13.6328 O   0  0  0  0  0  0  0  0  0  0  0  0
   19.0778  -20.8279   17.8225 N   0  0  0  0  0  0  0  0  0  0  0  0
   18.8471  -21.5808   19.0714 C   0  0  1  0  0  0  0  0  0  0  0  0
   20.0442  -21.3810   19.9694 C   0  0  0  0  0  0  0  0  0  0  0  0
   20.8461  -22.6404   20.0211 C   0  0  0  0  0  0  0  0  0  0  0  0
   22.0989  -22.4572   20.8272 C   0  0  0  0  0  0  0  0  0  0  0  0
   23.0736  -21.8538   20.3790 O   0  0  0  0  0  0  0  0  0  0  0  0
   17.6786  -20.9685   19.6940 C   0  0  0  0  0  0  0  0  0  0  0  0
   17.4735  -19.7392   19.5438 O   0  0  0  0  0  0  0  0  0  0  0  0
   22.1144  -22.9917   22.0893 O   0  0  0  0  0  0  0  0  0  0  0  0
   13.2232  -21.3461   21.6577 C   0  0  0  0  0  0  0  0  0  0  0  0
   14.4094  -22.0273   21.0326 C   0  0  1  0  0  0  0  0  0  0  0  0
   14.1214  -22.5034   19.7619 O   0  0  0  0  0  0  0  0  0  0  0  0
   15.5872  -21.0372   20.9850 C   0  0  2  0  0  0  0  0  0  0  0  0
   16.7569  -21.7080   20.4567 N   0  0  0  0  0  0  0  0  0  0  0  0
   15.8667  -20.5404   22.3294 C   0  0  0  0  0  0  0  0  0  0  0  0
   15.2521  -19.4106   22.8121 O   0  0  0  0  0  0  0  0  0  0  0  0
   16.7003  -21.1739   23.0632 O   0  0  0  0  0  0  0  0  0  0  0  0
  2  1  1  6
  2  7  1  0
  3  2  1  0
  4  5  1  0
  4  3  1  0
  5  6  2  0
  5  9  1  0
  7 10  1  0
  7  8  2  0
 10 11  1  0
 11 12  1  1
 12 13  1  0
 13 14  1  0
 14 15  2  0
 16 11  1  0
 16 17  2  0
 18 14  1  0
 20 19  1  6
 20 21  1  0
 20 22  1  0
 22 23  1  1
 23 16  1  0
 24 25  1  0
 24 22  1  0
 26 24  2  0
M  END
$$$$
