EET.pdb
     RDKit          3D

 26 25  0  0  1  0  0  0  0  0999 V2000
    9.0687  -18.3364   19.5513 N   0  0  0  0  0  0  0  0  0  0  0  0
    9.7534  -17.2298   20.1820 C   0  0  1  0  0  0  0  0  0  0  0  0
    9.5001  -15.9278   19.5101 C   0  0  0  0  0  0  0  0  0  0  0  0
    8.0339  -15.6731   19.3280 C   0  0  0  0  0  0  0  0  0  0  0  0
    7.7474  -14.3311   18.8221 C   0  0  0  0  0  0  0  0  0  0  0  0
    6.7946  -13.6624   19.3095 O   0  0  0  0  0  0  0  0  0  0  0  0
    9.3766  -17.2054   21.6297 C   0  0  0  0  0  0  0  0  0  0  0  0
    8.2004  -17.4699   22.0037 O   0  0  0  0  0  0  0  0  0  0  0  0
    8.5043  -13.7401   17.7933 O   0  0  0  0  0  0  0  0  0  0  0  0
   10.3307  -16.8862   22.5972 N   0  0  0  0  0  0  0  0  0  0  0  0
   10.1058  -16.9541   24.0548 C   0  0  1  0  0  0  0  0  0  0  0  0
   11.4215  -17.2806   24.7194 C   0  0  0  0  0  0  0  0  0  0  0  0
   11.7496  -18.7212   24.4979 C   0  0  0  0  0  0  0  0  0  0  0  0
   13.0561  -19.0884   25.1390 C   0  0  0  0  0  0  0  0  0  0  0  0
   13.1371  -19.3456   26.3400 O   0  0  0  0  0  0  0  0  0  0  0  0
    9.6907  -15.6142   24.4554 C   0  0  0  0  0  0  0  0  0  0  0  0
   10.2356  -14.6158   23.9241 O   0  0  0  0  0  0  0  0  0  0  0  0
   14.1614  -19.1263   24.3292 O   0  0  0  0  0  0  0  0  0  0  0  0
    6.4912  -12.3831   25.8471 C   0  0  0  0  0  0  0  0  0  0  0  0
    6.8574  -13.7815   25.4320 C   0  0  1  0  0  0  0  0  0  0  0  0
    6.6159  -14.0004   24.0837 O   0  0  0  0  0  0  0  0  0  0  0  0
    8.3403  -14.0293   25.7629 C   0  0  2  0  0  0  0  0  0  0  0  0
    8.6881  -15.3917   25.4162 N   0  0  0  0  0  0  0  0  0  0  0  0
    8.5700  -13.8074   27.1878 C   0  0  0  0  0  0  0  0  0  0  0  0
    8.4242  -12.5606   27.7459 O   0  0  0  0  0  0  0  0  0  0  0  0
    8.9135  -14.7965   27.9214 O   0  0  0  0  0  0  0  0  0  0  0  0
  2  1  1  6
  2  7  1  0
  3  2  1  0
  4  5  1  0
  4  3  1  0
  5  6  2  0
  5  9  1  0
  7 10  1  0
  7  8  2  0
 10 11  1  0
 11 12  1  1
 12 13  1  0
 13 14  1  0
 14 15  2  0
 16 11  1  0
 16 17  2  0
 18 14  1  0
 20 19  1  6
 20 21  1  0
 20 22  1  0
 22 23  1  1
 23 16  1  0
 24 25  1  0
 24 22  1  0
 26 24  2  0
M  END
$$$$
