EET.pdb
     RDKit          3D

 26 25  0  0  1  0  0  0  0  0999 V2000
    9.5461  -17.5895   13.9383 N   0  0  0  0  0  0  0  0  0  0  0  0
    9.7393  -16.1609   14.0523 C   0  0  1  0  0  0  0  0  0  0  0  0
    8.5884  -15.3736   13.5357 C   0  0  0  0  0  0  0  0  0  0  0  0
    7.6846  -16.2085   12.6791 C   0  0  0  0  0  0  0  0  0  0  0  0
    6.5620  -15.4503   12.1279 C   0  0  0  0  0  0  0  0  0  0  0  0
    5.3790  -15.8482   12.3139 O   0  0  0  0  0  0  0  0  0  0  0  0
   10.0532  -15.8398   15.4794 C   0  0  0  0  0  0  0  0  0  0  0  0
   10.2201  -14.6479   15.8598 O   0  0  0  0  0  0  0  0  0  0  0  0
    6.7476  -14.2708   11.3828 O   0  0  0  0  0  0  0  0  0  0  0  0
   10.1673  -16.8648   16.4199 N   0  0  0  0  0  0  0  0  0  0  0  0
   10.3843  -16.6593   17.8657 C   0  0  1  0  0  0  0  0  0  0  0  0
    9.7143  -17.7907   18.6077 C   0  0  0  0  0  0  0  0  0  0  0  0
    8.2622  -17.4849   18.7801 C   0  0  0  0  0  0  0  0  0  0  0  0
    7.5466  -18.6068   19.4743 C   0  0  0  0  0  0  0  0  0  0  0  0
    7.0842  -18.4755   20.6075 O   0  0  0  0  0  0  0  0  0  0  0  0
   11.8264  -16.7471   18.0672 C   0  0  0  0  0  0  0  0  0  0  0  0
   12.4588  -17.7157   17.5795 O   0  0  0  0  0  0  0  0  0  0  0  0
    7.4278  -19.7899   18.7924 O   0  0  0  0  0  0  0  0  0  0  0  0
   14.4573  -14.6677   16.8818 C   0  0  0  0  0  0  0  0  0  0  0  0
   14.7043  -14.7206   18.3644 C   0  0  1  0  0  0  0  0  0  0  0  0
   14.2910  -13.5584   18.9990 O   0  0  0  0  0  0  0  0  0  0  0  0
   13.9764  -15.9443   18.9495 C   0  0  2  0  0  0  0  0  0  0  0  0
   12.5474  -15.7763   18.7854 N   0  0  0  0  0  0  0  0  0  0  0  0
   14.2993  -16.0772   20.3674 C   0  0  0  0  0  0  0  0  0  0  0  0
   15.5594  -16.4378   20.7790 O   0  0  0  0  0  0  0  0  0  0  0  0
   13.3868  -15.8529   21.2343 O   0  0  0  0  0  0  0  0  0  0  0  0
  2  1  1  1
  2  7  1  0
  3  2  1  0
  4  5  1  0
  4  3  1  0
  5  6  2  0
  5  9  1  0
  7 10  1  0
  7  8  2  0
 10 11  1  0
 11 12  1  1
 12 13  1  0
 13 14  1  0
 14 15  2  0
 16 11  1  0
 16 17  2  0
 18 14  1  0
 20 19  1  6
 20 21  1  0
 20 22  1  0
 22 23  1  1
 23 16  1  0
 24 25  1  0
 24 22  1  0
 26 24  2  0
M  END
$$$$
