EET.pdb
     RDKit          3D

 26 25  0  0  1  0  0  0  0  0999 V2000
    5.9390  -15.3617   20.1173 N   0  0  0  0  0  0  0  0  0  0  0  0
    6.4272  -16.5410   20.7971 C   0  0  1  0  0  0  0  0  0  0  0  0
    7.7631  -16.9811   20.3149 C   0  0  0  0  0  0  0  0  0  0  0  0
    8.6963  -15.8222   20.1308 C   0  0  0  0  0  0  0  0  0  0  0  0
   10.0343  -16.2306   19.7041 C   0  0  0  0  0  0  0  0  0  0  0  0
   11.0528  -15.7548   20.2774 O   0  0  0  0  0  0  0  0  0  0  0  0
    6.4129  -16.2764   22.2696 C   0  0  0  0  0  0  0  0  0  0  0  0
    5.9721  -15.1887   22.7342 O   0  0  0  0  0  0  0  0  0  0  0  0
   10.2399  -17.1511   18.6595 O   0  0  0  0  0  0  0  0  0  0  0  0
    6.8922  -17.2390   23.1595 N   0  0  0  0  0  0  0  0  0  0  0  0
    6.8439  -17.1227   24.6305 C   0  0  1  0  0  0  0  0  0  0  0  0
    7.1961  -18.4669   25.2208 C   0  0  0  0  0  0  0  0  0  0  0  0
    7.1670  -18.3812   26.7120 C   0  0  0  0  0  0  0  0  0  0  0  0
    7.5003  -19.7024   27.3414 C   0  0  0  0  0  0  0  0  0  0  0  0
    7.6669  -20.7170   26.6648 O   0  0  0  0  0  0  0  0  0  0  0  0
    7.8811  -16.1608   24.9869 C   0  0  0  0  0  0  0  0  0  0  0  0
    8.5809  -15.6452   24.0812 O   0  0  0  0  0  0  0  0  0  0  0  0
    7.6122  -19.7341   28.7072 O   0  0  0  0  0  0  0  0  0  0  0  0
    6.4870  -13.4770   26.6880 C   0  0  0  0  0  0  0  0  0  0  0  0
    7.8356  -13.3721   26.0307 C   0  0  1  0  0  0  0  0  0  0  0  0
    8.4164  -12.1296   26.2382 O   0  0  0  0  0  0  0  0  0  0  0  0
    8.7442  -14.4908   26.5718 C   0  0  2  0  0  0  0  0  0  0  0  0
    8.1267  -15.7758   26.3172 N   0  0  0  0  0  0  0  0  0  0  0  0
    8.9418  -14.3127   28.0076 C   0  0  0  0  0  0  0  0  0  0  0  0
    8.5165  -15.2602   28.9069 O   0  0  0  0  0  0  0  0  0  0  0  0
    9.5210  -13.2528   28.4265 O   0  0  0  0  0  0  0  0  0  0  0  0
  2  1  1  6
  2  7  1  0
  3  2  1  0
  4  5  1  0
  4  3  1  0
  5  6  2  0
  5  9  1  0
  7 10  1  0
  7  8  2  0
 10 11  1  0
 11 12  1  1
 12 13  1  0
 13 14  1  0
 14 15  2  0
 16 11  1  0
 16 17  2  0
 18 14  1  0
 20 19  1  1
 20 21  1  0
 20 22  1  0
 22 23  1  1
 23 16  1  0
 24 25  1  0
 24 22  1  0
 26 24  2  0
M  END
$$$$
