NKG.pdb
     RDKit          3D

 22 21  0  0  1  0  0  0  0  0999 V2000
   23.7596  -11.5120  -20.6345 N   0  0  0  0  0  0  0  0  0  0  0  0
   22.9240  -11.5795  -19.4915 C   0  0  0  0  0  0  0  0  0  0  0  0
   22.8537  -12.6944  -18.9127 O   0  0  0  0  0  0  0  0  0  0  0  0
   22.1618  -10.4103  -18.9844 C   0  0  0  0  0  0  0  0  0  0  0  0
   20.9852  -10.9039  -18.2103 C   0  0  2  0  0  0  0  0  0  0  0  0
   20.0672  -11.5291  -19.1355 N   0  0  0  0  0  0  0  0  0  0  0  0
   20.2700   -9.8054  -17.4980 C   0  0  0  0  0  0  0  0  0  0  0  0
   20.0557   -8.7489  -18.1276 O   0  0  0  0  0  0  0  0  0  0  0  0
   19.8386   -9.9226  -16.1646 N   0  0  0  0  0  0  0  0  0  0  0  0
   19.1825   -8.8802  -15.4143 C   0  0  1  0  0  0  0  0  0  0  0  0
   18.0480   -9.4440  -14.6268 C   0  0  0  0  0  0  0  0  0  0  0  0
   16.8383   -9.7914  -15.4617 C   0  0  0  0  0  0  0  0  0  0  0  0
   15.7996  -10.5267  -14.6183 C   0  0  0  0  0  0  0  0  0  0  0  0
   14.7045  -11.1148  -15.4457 C   0  0  0  0  0  0  0  0  0  0  0  0
   13.9141  -11.9658  -14.5464 N   0  0  0  0  0  0  0  0  0  0  0  0
   20.1958   -8.1347  -14.6415 C   0  0  0  0  0  0  0  0  0  0  0  0
   21.1595   -8.6985  -14.0348 O   0  0  0  0  0  0  0  0  0  0  0  0
   20.1967   -6.7038  -14.4948 N   0  0  0  0  0  0  0  0  0  0  0  0
   21.1425   -6.0181  -13.6607 C   0  0  0  0  0  0  0  0  0  0  0  0
   22.1542   -5.2713  -14.3973 C   0  0  0  0  0  0  0  0  0  0  0  0
   22.9277   -4.4899  -13.8048 O   0  0  0  0  0  0  0  0  0  0  0  0
   22.2742   -5.4155  -15.7634 O   0  0  0  0  0  0  0  0  0  0  0  0
  2  1  1  0
  3  2  2  0
  4  5  1  0
  4  2  1  0
  5  6  1  6
  7  9  1  0
  7  5  1  0
  8  7  2  0
 10  9  1  0
 10 11  1  1
 11 12  1  0
 12 13  1  0
 13 14  1  0
 14 15  1  0
 16 10  1  0
 17 16  2  0
 18 16  1  0
 19 18  1  0
 20 22  1  0
 20 19  1  0
 21 20  2  0
M  END
$$$$
