NKG.pdb
     RDKit          3D

 22 21  0  0  1  0  0  0  0  0999 V2000
   26.4513  -21.9459  -10.5153 N   0  0  0  0  0  0  0  0  0  0  0  0
   25.4106  -21.0073  -10.3031 C   0  0  0  0  0  0  0  0  0  0  0  0
   25.1763  -20.6894   -9.1085 O   0  0  0  0  0  0  0  0  0  0  0  0
   24.6240  -20.4160  -11.4153 C   0  0  0  0  0  0  0  0  0  0  0  0
   24.9934  -21.1080  -12.6849 C   0  0  2  0  0  0  0  0  0  0  0  0
   26.4194  -20.9678  -12.8761 N   0  0  0  0  0  0  0  0  0  0  0  0
   24.2945  -20.5338  -13.8712 C   0  0  0  0  0  0  0  0  0  0  0  0
   24.7299  -19.4610  -14.3379 O   0  0  0  0  0  0  0  0  0  0  0  0
   23.1815  -21.1532  -14.4675 N   0  0  0  0  0  0  0  0  0  0  0  0
   22.5118  -20.6820  -15.6547 C   0  0  1  0  0  0  0  0  0  0  0  0
   22.3404  -21.7972  -16.6303 C   0  0  0  0  0  0  0  0  0  0  0  0
   23.5495  -22.0362  -17.5031 C   0  0  0  0  0  0  0  0  0  0  0  0
   23.2923  -23.1903  -18.4689 C   0  0  0  0  0  0  0  0  0  0  0  0
   24.4222  -23.3999  -19.4223 C   0  0  0  0  0  0  0  0  0  0  0  0
   24.1307  -24.6441  -20.1466 N   0  0  0  0  0  0  0  0  0  0  0  0
   21.2771  -19.9751  -15.2603 C   0  0  0  0  0  0  0  0  0  0  0  0
   20.5578  -20.3309  -14.2751 O   0  0  0  0  0  0  0  0  0  0  0  0
   20.7630  -18.8199  -15.9461 N   0  0  0  0  0  0  0  0  0  0  0  0
   19.5894  -18.1227  -15.5022 C   0  0  0  0  0  0  0  0  0  0  0  0
   18.3567  -18.5650  -16.1413 C   0  0  0  0  0  0  0  0  0  0  0  0
   18.2789  -19.6976  -16.6620 O   0  0  0  0  0  0  0  0  0  0  0  0
   17.2536  -17.7385  -16.1818 O   0  0  0  0  0  0  0  0  0  0  0  0
  2  1  1  0
  3  2  2  0
  4  5  1  0
  4  2  1  0
  5  6  1  6
  7  9  1  0
  7  5  1  0
  8  7  2  0
 10  9  1  0
 10 11  1  6
 11 12  1  0
 12 13  1  0
 13 14  1  0
 14 15  1  0
 16 10  1  0
 17 16  2  0
 18 16  1  0
 19 18  1  0
 20 22  1  0
 20 19  1  0
 21 20  2  0
M  END
$$$$
