NKG.pdb
     RDKit          3D

 22 21  0  0  1  0  0  0  0  0999 V2000
   21.6535  -22.8223  -17.1801 N   0  0  0  0  0  0  0  0  0  0  0  0
   21.6687  -22.7026  -15.7679 C   0  0  0  0  0  0  0  0  0  0  0  0
   22.7965  -22.5613  -15.2285 O   0  0  0  0  0  0  0  0  0  0  0  0
   20.4323  -22.7391  -14.9461 C   0  0  0  0  0  0  0  0  0  0  0  0
   20.3770  -24.0420  -14.2203 C   0  0  2  0  0  0  0  0  0  0  0  0
   20.2280  -25.0964  -15.1980 N   0  0  0  0  0  0  0  0  0  0  0  0
   19.2344  -24.1137  -13.2638 C   0  0  0  0  0  0  0  0  0  0  0  0
   18.1030  -24.3619  -13.7293 O   0  0  0  0  0  0  0  0  0  0  0  0
   19.3912  -23.9138  -11.8806 N   0  0  0  0  0  0  0  0  0  0  0  0
   18.3283  -23.9935  -10.9090 C   0  0  1  0  0  0  0  0  0  0  0  0
   18.8404  -24.5556   -9.6257 C   0  0  0  0  0  0  0  0  0  0  0  0
   17.7746  -24.7406   -8.5717 C   0  0  0  0  0  0  0  0  0  0  0  0
   18.3623  -25.4010   -7.3270 C   0  0  0  0  0  0  0  0  0  0  0  0
   17.3639  -25.5314   -6.2242 C   0  0  0  0  0  0  0  0  0  0  0  0
   18.0743  -26.1338   -5.0884 N   0  0  0  0  0  0  0  0  0  0  0  0
   17.6630  -22.6788  -10.8169 C   0  0  0  0  0  0  0  0  0  0  0  0
   18.2993  -21.5854  -10.6984 O   0  0  0  0  0  0  0  0  0  0  0  0
   16.2360  -22.5005  -10.8497 N   0  0  0  0  0  0  0  0  0  0  0  0
   15.6179  -21.2190  -10.6596 C   0  0  0  0  0  0  0  0  0  0  0  0
   15.6820  -20.3481  -11.8262 C   0  0  0  0  0  0  0  0  0  0  0  0
   16.7375  -20.2412  -12.4853 O   0  0  0  0  0  0  0  0  0  0  0  0
   14.5758  -19.6263  -12.2224 O   0  0  0  0  0  0  0  0  0  0  0  0
  2  1  1  0
  3  2  2  0
  4  5  1  0
  4  2  1  0
  5  6  1  6
  7  9  1  0
  7  5  1  0
  8  7  2  0
 10  9  1  0
 10 11  1  1
 11 12  1  0
 12 13  1  0
 13 14  1  0
 14 15  1  0
 16 10  1  0
 17 16  2  0
 18 16  1  0
 19 18  1  0
 20 22  1  0
 20 19  1  0
 21 20  2  0
M  END
$$$$
