NKG.pdb
     RDKit          3D

 22 21  0  0  1  0  0  0  0  0999 V2000
   25.9790  -12.9230  -16.5797 N   0  0  0  0  0  0  0  0  0  0  0  0
   26.3844  -11.7923  -15.8273 C   0  0  0  0  0  0  0  0  0  0  0  0
   27.4818  -11.8866  -15.2193 O   0  0  0  0  0  0  0  0  0  0  0  0
   25.5742  -10.5505  -15.7452 C   0  0  0  0  0  0  0  0  0  0  0  0
   24.2832  -10.7718  -16.4605 C   0  0  2  0  0  0  0  0  0  0  0  0
   24.5678  -10.9124  -17.8708 N   0  0  0  0  0  0  0  0  0  0  0  0
   23.3286   -9.6402  -16.2771 C   0  0  0  0  0  0  0  0  0  0  0  0
   23.4735   -8.6355  -17.0039 O   0  0  0  0  0  0  0  0  0  0  0  0
   22.2908   -9.6711  -15.3285 N   0  0  0  0  0  0  0  0  0  0  0  0
   21.2644   -8.6668  -15.1944 C   0  0  1  0  0  0  0  0  0  0  0  0
   19.9735   -9.2958  -14.7906 C   0  0  0  0  0  0  0  0  0  0  0  0
   19.2479   -9.9820  -15.9236 C   0  0  0  0  0  0  0  0  0  0  0  0
   17.9929  -10.6824  -15.4085 C   0  0  0  0  0  0  0  0  0  0  0  0
   17.2075  -11.3256  -16.5036 C   0  0  0  0  0  0  0  0  0  0  0  0
   16.0668  -11.9923  -15.8619 N   0  0  0  0  0  0  0  0  0  0  0  0
   21.7594   -7.5894  -14.3147 C   0  0  0  0  0  0  0  0  0  0  0  0
   22.3710   -7.8102  -13.2231 O   0  0  0  0  0  0  0  0  0  0  0  0
   21.6005   -6.1883  -14.5991 N   0  0  0  0  0  0  0  0  0  0  0  0
   22.1279   -5.1660  -13.7404 C   0  0  0  0  0  0  0  0  0  0  0  0
   21.9968   -3.8157  -14.2722 C   0  0  0  0  0  0  0  0  0  0  0  0
   21.4390   -3.6143  -15.3714 O   0  0  0  0  0  0  0  0  0  0  0  0
   22.4876   -2.7357  -13.5690 O   0  0  0  0  0  0  0  0  0  0  0  0
  2  1  1  0
  3  2  2  0
  4  5  1  0
  4  2  1  0
  5  6  1  6
  7  9  1  0
  7  5  1  0
  8  7  2  0
 10  9  1  0
 10 11  1  1
 11 12  1  0
 12 13  1  0
 13 14  1  0
 14 15  1  0
 16 10  1  0
 17 16  2  0
 18 16  1  0
 19 18  1  0
 20 22  1  0
 20 19  1  0
 21 20  2  0
M  END
$$$$
