NKG.pdb
     RDKit          3D

 22 21  0  0  1  0  0  0  0  0999 V2000
   22.9408   -9.2523  -15.3361 N   0  0  0  0  0  0  0  0  0  0  0  0
   22.1942   -8.2333  -14.6934 C   0  0  0  0  0  0  0  0  0  0  0  0
   22.8014   -7.5554  -13.8247 O   0  0  0  0  0  0  0  0  0  0  0  0
   20.7693   -7.9607  -15.0110 C   0  0  0  0  0  0  0  0  0  0  0  0
   20.2905   -8.9849  -15.9851 C   0  0  2  0  0  0  0  0  0  0  0  0
   20.9580   -8.7539  -17.2464 N   0  0  0  0  0  0  0  0  0  0  0  0
   18.8167   -8.9164  -16.2060 C   0  0  0  0  0  0  0  0  0  0  0  0
   18.4004   -8.1662  -17.1128 O   0  0  0  0  0  0  0  0  0  0  0  0
   17.9007   -9.6575  -15.4381 N   0  0  0  0  0  0  0  0  0  0  0  0
   16.4672   -9.6087  -15.5887 C   0  0  1  0  0  0  0  0  0  0  0  0
   15.8637  -10.9257  -15.2333 C   0  0  0  0  0  0  0  0  0  0  0  0
   14.3620  -10.9709  -15.3881 C   0  0  0  0  0  0  0  0  0  0  0  0
   13.8230  -12.3391  -14.9778 C   0  0  0  0  0  0  0  0  0  0  0  0
   12.3306  -12.3888  -14.9787 C   0  0  0  0  0  0  0  0  0  0  0  0
   11.9582  -13.7268  -14.5006 N   0  0  0  0  0  0  0  0  0  0  0  0
   15.9467   -8.4410  -14.8503 C   0  0  0  0  0  0  0  0  0  0  0  0
   16.2008   -8.2252  -13.6241 O   0  0  0  0  0  0  0  0  0  0  0  0
   15.1031   -7.4346  -15.4373 N   0  0  0  0  0  0  0  0  0  0  0  0
   14.5357   -6.3639  -14.6676 C   0  0  0  0  0  0  0  0  0  0  0  0
   15.4868   -5.3198  -14.3088 C   0  0  0  0  0  0  0  0  0  0  0  0
   16.7042   -5.4541  -14.5536 O   0  0  0  0  0  0  0  0  0  0  0  0
   15.0573   -4.1638  -13.6916 O   0  0  0  0  0  0  0  0  0  0  0  0
  2  1  1  0
  3  2  2  0
  4  5  1  0
  4  2  1  0
  5  6  1  6
  7  9  1  0
  7  5  1  0
  8  7  2  0
 10  9  1  0
 10 11  1  1
 11 12  1  0
 12 13  1  0
 13 14  1  0
 14 15  1  0
 16 10  1  0
 17 16  2  0
 18 16  1  0
 19 18  1  0
 20 22  1  0
 20 19  1  0
 21 20  2  0
M  END
$$$$
