NKG.pdb
     RDKit          3D

 22 21  0  0  1  0  0  0  0  0999 V2000
   27.1208  -16.8373  -16.6135 N   0  0  0  0  0  0  0  0  0  0  0  0
   26.2440  -17.6689  -17.3542 C   0  0  0  0  0  0  0  0  0  0  0  0
   26.7443  -18.7109  -17.8509 O   0  0  0  0  0  0  0  0  0  0  0  0
   24.8068  -17.3490  -17.5479 C   0  0  0  0  0  0  0  0  0  0  0  0
   24.0070  -18.1050  -16.5400 C   0  0  2  0  0  0  0  0  0  0  0  0
   24.1575  -19.5167  -16.8122 N   0  0  0  0  0  0  0  0  0  0  0  0
   22.5560  -17.7618  -16.5898 C   0  0  0  0  0  0  0  0  0  0  0  0
   21.9800  -17.8365  -17.6948 O   0  0  0  0  0  0  0  0  0  0  0  0
   21.8323  -17.3644  -15.4513 N   0  0  0  0  0  0  0  0  0  0  0  0
   20.4174  -17.0863  -15.4277 C   0  0  1  0  0  0  0  0  0  0  0  0
   19.7399  -17.9330  -14.4034 C   0  0  0  0  0  0  0  0  0  0  0  0
   19.0709  -19.1617  -14.9723 C   0  0  0  0  0  0  0  0  0  0  0  0
   18.3414  -19.9307  -13.8734 C   0  0  0  0  0  0  0  0  0  0  0  0
   17.6302  -21.1356  -14.3952 C   0  0  0  0  0  0  0  0  0  0  0  0
   17.0573  -21.8189  -13.2280 N   0  0  0  0  0  0  0  0  0  0  0  0
   20.2168  -15.6297  -15.2949 C   0  0  0  0  0  0  0  0  0  0  0  0
   20.7911  -14.9280  -14.4047 O   0  0  0  0  0  0  0  0  0  0  0  0
   19.3559  -14.8594  -16.1520 N   0  0  0  0  0  0  0  0  0  0  0  0
   19.0378  -13.4852  -15.8860 C   0  0  0  0  0  0  0  0  0  0  0  0
   18.0706  -12.9082  -16.8107 C   0  0  0  0  0  0  0  0  0  0  0  0
   17.6596  -13.5607  -17.7933 O   0  0  0  0  0  0  0  0  0  0  0  0
   17.5923  -11.6296  -16.6158 O   0  0  0  0  0  0  0  0  0  0  0  0
  2  1  1  0
  3  2  2  0
  4  5  1  0
  4  2  1  0
  5  6  1  6
  7  9  1  0
  7  5  1  0
  8  7  2  0
 10  9  1  0
 10 11  1  1
 11 12  1  0
 12 13  1  0
 13 14  1  0
 14 15  1  0
 16 10  1  0
 17 16  2  0
 18 16  1  0
 19 18  1  0
 20 22  1  0
 20 19  1  0
 21 20  2  0
M  END
$$$$
