NKG.pdb
     RDKit          3D

 22 21  0  0  1  0  0  0  0  0999 V2000
   29.0016  -22.4176  -17.9035 N   0  0  0  0  0  0  0  0  0  0  0  0
   28.9767  -22.8326  -16.5485 C   0  0  0  0  0  0  0  0  0  0  0  0
   30.0546  -23.2804  -16.0787 O   0  0  0  0  0  0  0  0  0  0  0  0
   27.7557  -22.7530  -15.7070 C   0  0  0  0  0  0  0  0  0  0  0  0
   26.6657  -22.1157  -16.5024 C   0  0  2  0  0  0  0  0  0  0  0  0
   26.9504  -20.7021  -16.6055 N   0  0  0  0  0  0  0  0  0  0  0  0
   25.3247  -22.2871  -15.8717 C   0  0  0  0  0  0  0  0  0  0  0  0
   24.9376  -23.4510  -15.6391 O   0  0  0  0  0  0  0  0  0  0  0  0
   24.5000  -21.1979  -15.5379 N   0  0  0  0  0  0  0  0  0  0  0  0
   23.1869  -21.3056  -14.9512 C   0  0  1  0  0  0  0  0  0  0  0  0
   23.1203  -20.5235  -13.6827 C   0  0  0  0  0  0  0  0  0  0  0  0
   21.7943  -20.6311  -12.9679 C   0  0  0  0  0  0  0  0  0  0  0  0
   21.7634  -19.7037  -11.7555 C   0  0  0  0  0  0  0  0  0  0  0  0
   20.4659  -19.7690  -11.0194 C   0  0  0  0  0  0  0  0  0  0  0  0
   20.5799  -18.8356   -9.8909 N   0  0  0  0  0  0  0  0  0  0  0  0
   22.1760  -20.9654  -15.9720 C   0  0  0  0  0  0  0  0  0  0  0  0
   22.2944  -19.9797  -16.7650 O   0  0  0  0  0  0  0  0  0  0  0  0
   20.9604  -21.7078  -16.1723 N   0  0  0  0  0  0  0  0  0  0  0  0
   19.9347  -21.2718  -17.0770 C   0  0  0  0  0  0  0  0  0  0  0  0
   18.8381  -20.5588  -16.4347 C   0  0  0  0  0  0  0  0  0  0  0  0
   18.8677  -20.3118  -15.2107 O   0  0  0  0  0  0  0  0  0  0  0  0
   17.7472  -20.1441  -17.1693 O   0  0  0  0  0  0  0  0  0  0  0  0
  2  1  1  0
  3  2  2  0
  4  5  1  0
  4  2  1  0
  5  6  1  1
  7  9  1  0
  7  5  1  0
  8  7  2  0
 10  9  1  0
 10 11  1  1
 11 12  1  0
 12 13  1  0
 13 14  1  0
 14 15  1  0
 16 10  1  0
 17 16  2  0
 18 16  1  0
 19 18  1  0
 20 22  1  0
 20 19  1  0
 21 20  2  0
M  END
$$$$
