INH.pdb
     RDKit          3D

 27 27  0  0  1  0  0  0  0  0999 V2000
   12.0847  -13.0597  -12.3821 C   0  0  0  0  0  0  0  0  0  0  0  0
   13.5334  -13.0061  -12.7229 C   0  0  0  0  0  0  0  0  0  0  0  0
   14.2823  -11.9822  -11.9175 C   0  0  2  0  0  0  0  0  0  0  0  0
   13.6566  -10.6063  -12.1104 C   0  0  0  0  0  0  0  0  0  0  0  0
   15.7501  -11.9503  -12.2242 C   0  0  2  0  0  0  0  0  0  0  0  0
   16.2517  -13.2812  -11.7868 N   0  0  0  0  0  0  0  0  0  0  0  0
   16.5319  -10.9723  -11.4446 C   0  0  0  0  0  0  0  0  0  0  0  0
   16.8126  -11.1702  -10.2052 O   0  0  0  0  0  0  0  0  0  0  0  0
   19.7505   -6.8795  -10.1575 N   0  0  0  0  0  0  0  0  0  0  0  0
   19.9570   -7.5386  -11.4427 C   0  0  0  0  0  0  0  0  0  0  0  0
   21.0085   -7.2340  -12.0464 O   0  0  0  0  0  0  0  0  0  0  0  0
   18.9853   -8.4731  -11.9440 C   0  0  0  0  0  0  0  0  0  0  0  0
   17.8199   -8.8059  -11.0788 C   0  0  2  0  0  0  0  0  0  0  0  0
   17.0393   -9.7630  -11.9515 N   0  0  0  0  0  0  0  0  0  0  0  0
   16.9217   -7.6943  -10.7384 C   0  0  0  0  0  0  0  0  0  0  0  0
   16.3518   -7.1008  -11.7234 O   0  0  0  0  0  0  0  0  0  0  0  0
   16.5880   -7.1847   -9.4729 N   0  0  0  0  0  0  0  0  0  0  0  0
   15.6914   -6.0393   -9.2758 C   0  0  1  0  0  0  0  0  0  0  0  0
   15.0946   -6.0559   -7.9067 C   0  0  0  0  0  0  0  0  0  0  0  0
   13.8906   -6.9065   -7.8400 C   0  0  0  0  0  0  0  0  0  0  0  0
   13.3164   -7.5658   -8.9243 C   0  0  0  0  0  0  0  0  0  0  0  0
   12.2095   -8.2234   -8.4744 N   0  0  0  0  0  0  0  0  0  0  0  0
   12.0866   -7.9923   -7.1668 C   0  0  0  0  0  0  0  0  0  0  0  0
   13.0931   -7.2028   -6.7829 N   0  0  0  0  0  0  0  0  0  0  0  0
   16.3522   -4.7723   -9.5459 C   0  0  0  0  0  0  0  0  0  0  0  0
   17.5786   -4.6508   -9.1966 O   0  0  0  0  0  0  0  0  0  0  0  0
   15.7733   -3.6906  -10.1480 O   0  0  0  0  0  0  0  0  0  0  0  0
  2  1  1  0
  2  3  1  0
  3  4  1  6
  5  3  1  0
  5  6  1  1
  7  5  1  0
  8  7  2  0
 10 11  2  0
 10  9  1  0
 12 10  1  0
 13 12  1  6
 13 14  1  0
 14  7  1  0
 15 16  2  0
 15 13  1  0
 17 15  1  0
 18 25  1  0
 18 17  1  0
 18 19  1  1
 20 21  2  0
 20 19  1  0
 22 21  1  0
 23 24  2  0
 23 22  1  0
 24 20  1  0
 25 27  1  0
 26 25  2  0
M  END
$$$$
