INH.pdb
     RDKit          3D

 27 27  0  0  1  0  0  0  0  0999 V2000
   28.0088  -10.9618  -16.3860 C   0  0  0  0  0  0  0  0  0  0  0  0
   26.7053  -11.6802  -16.3326 C   0  0  0  0  0  0  0  0  0  0  0  0
   25.5265  -10.7505  -16.3940 C   0  0  2  0  0  0  0  0  0  0  0  0
   25.5407   -9.8092  -15.1959 C   0  0  0  0  0  0  0  0  0  0  0  0
   24.2140  -11.4696  -16.4940 C   0  0  2  0  0  0  0  0  0  0  0  0
   24.3670  -12.3629  -17.6742 N   0  0  0  0  0  0  0  0  0  0  0  0
   23.0541  -10.6150  -16.8096 C   0  0  0  0  0  0  0  0  0  0  0  0
   22.9829   -9.9577  -17.9128 O   0  0  0  0  0  0  0  0  0  0  0  0
   19.1745  -12.2995  -14.8295 N   0  0  0  0  0  0  0  0  0  0  0  0
   19.2938  -10.8504  -14.9505 C   0  0  0  0  0  0  0  0  0  0  0  0
   19.0924  -10.1995  -13.9023 O   0  0  0  0  0  0  0  0  0  0  0  0
   19.6244  -10.2522  -16.2161 C   0  0  0  0  0  0  0  0  0  0  0  0
   20.8603   -9.4257  -16.3004 C   0  0  2  0  0  0  0  0  0  0  0  0
   21.9392  -10.4333  -15.9722 N   0  0  0  0  0  0  0  0  0  0  0  0
   20.9785   -8.3285  -15.3307 C   0  0  0  0  0  0  0  0  0  0  0  0
   21.8648   -8.4721  -14.4137 O   0  0  0  0  0  0  0  0  0  0  0  0
   20.2556   -7.1261  -15.2657 N   0  0  0  0  0  0  0  0  0  0  0  0
   20.8922   -5.8048  -15.2052 C   0  0  1  0  0  0  0  0  0  0  0  0
   21.9811   -5.6882  -16.2210 C   0  0  0  0  0  0  0  0  0  0  0  0
   22.6857   -4.3950  -16.1285 C   0  0  0  0  0  0  0  0  0  0  0  0
   22.9908   -3.7339  -14.9410 C   0  0  0  0  0  0  0  0  0  0  0  0
   23.6146   -2.5646  -15.2628 N   0  0  0  0  0  0  0  0  0  0  0  0
   23.7011   -2.4868  -16.5912 C   0  0  0  0  0  0  0  0  0  0  0  0
   23.1450   -3.5829  -17.1137 N   0  0  0  0  0  0  0  0  0  0  0  0
   19.9283   -4.7245  -15.3416 C   0  0  0  0  0  0  0  0  0  0  0  0
   19.1123   -4.7716  -16.3279 O   0  0  0  0  0  0  0  0  0  0  0  0
   19.8148   -3.6543  -14.4991 O   0  0  0  0  0  0  0  0  0  0  0  0
  2  1  1  0
  2  3  1  0
  3  4  1  1
  5  3  1  0
  5  6  1  6
  7  5  1  0
  8  7  2  0
 10 11  2  0
 10  9  1  0
 12 10  1  0
 13 12  1  1
 13 14  1  0
 14  7  1  0
 15 16  2  0
 15 13  1  0
 17 15  1  0
 18 25  1  0
 18 17  1  0
 18 19  1  6
 20 21  2  0
 20 19  1  0
 22 21  1  0
 23 24  2  0
 23 22  1  0
 24 20  1  0
 25 27  1  0
 26 25  2  0
M  END
$$$$
