INH.pdb
     RDKit          3D

 27 27  0  0  1  0  0  0  0  0999 V2000
   29.4593  -19.7606  -18.6995 C   0  0  0  0  0  0  0  0  0  0  0  0
   29.8581  -21.1909  -18.8148 C   0  0  0  0  0  0  0  0  0  0  0  0
   29.0181  -22.0989  -17.9617 C   0  0  2  0  0  0  0  0  0  0  0  0
   29.0784  -21.6517  -16.5064 C   0  0  0  0  0  0  0  0  0  0  0  0
   29.3943  -23.5449  -18.0932 C   0  0  2  0  0  0  0  0  0  0  0  0
   29.0845  -23.8838  -19.5086 N   0  0  0  0  0  0  0  0  0  0  0  0
   28.5827  -24.4788  -17.2904 C   0  0  0  0  0  0  0  0  0  0  0  0
   28.5993  -24.4505  -16.0047 O   0  0  0  0  0  0  0  0  0  0  0  0
   25.2358  -24.7864  -15.2561 N   0  0  0  0  0  0  0  0  0  0  0  0
   24.7145  -25.3088  -16.5148 C   0  0  0  0  0  0  0  0  0  0  0  0
   23.5348  -24.9959  -16.7855 O   0  0  0  0  0  0  0  0  0  0  0  0
   25.5419  -26.1281  -17.3592 C   0  0  0  0  0  0  0  0  0  0  0  0
   26.9420  -26.3924  -16.9265 C   0  0  2  0  0  0  0  0  0  0  0  0
   27.7318  -25.4640  -17.8217 N   0  0  0  0  0  0  0  0  0  0  0  0
   27.4488  -27.7526  -17.1530 C   0  0  0  0  0  0  0  0  0  0  0  0
   27.8818  -28.0096  -18.3334 O   0  0  0  0  0  0  0  0  0  0  0  0
   27.5343  -28.8246  -16.2496 N   0  0  0  0  0  0  0  0  0  0  0  0
   28.0825  -30.1385  -16.6072 C   0  0  1  0  0  0  0  0  0  0  0  0
   28.0792  -31.0584  -15.4304 C   0  0  0  0  0  0  0  0  0  0  0  0
   28.6535  -32.3772  -15.7594 C   0  0  0  0  0  0  0  0  0  0  0  0
   29.4892  -32.6375  -16.8430 C   0  0  0  0  0  0  0  0  0  0  0  0
   29.7876  -33.9682  -16.8296 N   0  0  0  0  0  0  0  0  0  0  0  0
   29.1707  -34.5262  -15.7873 C   0  0  0  0  0  0  0  0  0  0  0  0
   28.4896  -33.5749  -15.1433 N   0  0  0  0  0  0  0  0  0  0  0  0
   27.3905  -30.7319  -17.7403 C   0  0  0  0  0  0  0  0  0  0  0  0
   26.1096  -30.7255  -17.7292 O   0  0  0  0  0  0  0  0  0  0  0  0
   27.9941  -31.2990  -18.8275 O   0  0  0  0  0  0  0  0  0  0  0  0
  2  1  1  0
  2  3  1  0
  3  4  1  1
  5  3  1  0
  5  6  1  6
  7  5  1  0
  8  7  2  0
 10 11  2  0
 10  9  1  0
 12 10  1  0
 13 12  1  6
 13 14  1  0
 14  7  1  0
 15 16  2  0
 15 13  1  0
 17 15  1  0
 18 25  1  0
 18 17  1  0
 18 19  1  1
 20 21  2  0
 20 19  1  0
 22 21  1  0
 23 24  2  0
 23 22  1  0
 24 20  1  0
 25 27  1  0
 26 25  2  0
M  END
$$$$
