INH.pdb
     RDKit          3D

 27 27  0  0  1  0  0  0  0  0999 V2000
   25.3644  -15.3878  -16.0190 C   0  0  0  0  0  0  0  0  0  0  0  0
   23.9537  -15.5484  -15.5693 C   0  0  0  0  0  0  0  0  0  0  0  0
   23.1199  -14.3245  -15.8236 C   0  0  2  0  0  0  0  0  0  0  0  0
   23.6992  -13.1325  -15.0718 C   0  0  0  0  0  0  0  0  0  0  0  0
   21.6716  -14.5180  -15.4852 C   0  0  2  0  0  0  0  0  0  0  0  0
   21.2525  -15.6926  -16.2969 N   0  0  0  0  0  0  0  0  0  0  0  0
   20.7779  -13.4234  -15.9077 C   0  0  0  0  0  0  0  0  0  0  0  0
   20.7521  -13.0076  -17.1245 O   0  0  0  0  0  0  0  0  0  0  0  0
   16.8942  -13.2505  -16.4170 N   0  0  0  0  0  0  0  0  0  0  0  0
   16.7755  -12.5225  -15.1581 C   0  0  0  0  0  0  0  0  0  0  0  0
   15.7095  -12.6966  -14.5287 O   0  0  0  0  0  0  0  0  0  0  0  0
   17.8432  -11.6698  -14.7089 C   0  0  0  0  0  0  0  0  0  0  0  0
   19.0657  -11.5716  -15.5534 C   0  0  2  0  0  0  0  0  0  0  0  0
   19.8877  -12.7410  -15.0598 N   0  0  0  0  0  0  0  0  0  0  0  0
   19.8813  -10.3618  -15.3820 C   0  0  0  0  0  0  0  0  0  0  0  0
   20.9779  -10.5021  -14.7302 O   0  0  0  0  0  0  0  0  0  0  0  0
   19.6331   -9.0575  -15.8400 N   0  0  0  0  0  0  0  0  0  0  0  0
   20.6319   -7.9828  -15.7933 C   0  0  1  0  0  0  0  0  0  0  0  0
   21.6695   -8.1698  -16.8514 C   0  0  0  0  0  0  0  0  0  0  0  0
   22.6619   -7.0778  -16.8500 C   0  0  0  0  0  0  0  0  0  0  0  0
   22.6938   -6.0276  -15.9355 C   0  0  0  0  0  0  0  0  0  0  0  0
   23.7316   -5.2103  -16.2747 N   0  0  0  0  0  0  0  0  0  0  0  0
   24.3299   -5.7174  -17.3531 C   0  0  0  0  0  0  0  0  0  0  0  0
   23.6910   -6.8374  -17.7010 N   0  0  0  0  0  0  0  0  0  0  0  0
   20.0241   -6.6645  -15.8802 C   0  0  0  0  0  0  0  0  0  0  0  0
   18.8639   -6.5748  -16.4157 O   0  0  0  0  0  0  0  0  0  0  0  0
   20.5877   -5.5024  -15.4336 O   0  0  0  0  0  0  0  0  0  0  0  0
  2  1  1  0
  2  3  1  0
  3  4  1  1
  5  3  1  0
  5  6  1  6
  7  5  1  0
  8  7  2  0
 10 11  2  0
 10  9  1  0
 12 10  1  0
 13 12  1  1
 13 14  1  0
 14  7  1  0
 15 16  2  0
 15 13  1  0
 17 15  1  0
 18 25  1  0
 18 17  1  0
 18 19  1  6
 20 21  2  0
 20 19  1  0
 22 21  1  0
 23 24  2  0
 23 22  1  0
 24 20  1  0
 25 27  1  0
 26 25  2  0
M  END
$$$$
