INH.pdb
     RDKit          3D

 27 27  0  0  1  0  0  0  0  0999 V2000
   29.6021  -17.2220  -16.7265 C   0  0  0  0  0  0  0  0  0  0  0  0
   28.1938  -17.7010  -16.7988 C   0  0  0  0  0  0  0  0  0  0  0  0
   27.9650  -18.9550  -16.0033 C   0  0  2  0  0  0  0  0  0  0  0  0
   29.0111  -20.0018  -16.3661 C   0  0  0  0  0  0  0  0  0  0  0  0
   26.5791  -19.5068  -16.1595 C   0  0  2  0  0  0  0  0  0  0  0  0
   25.6931  -18.3129  -16.0992 N   0  0  0  0  0  0  0  0  0  0  0  0
   26.1235  -20.3766  -15.0590 C   0  0  0  0  0  0  0  0  0  0  0  0
   26.5078  -21.6004  -14.9654 O   0  0  0  0  0  0  0  0  0  0  0  0
   26.7849  -20.1474  -10.0198 N   0  0  0  0  0  0  0  0  0  0  0  0
   25.5602  -20.7182  -10.5704 C   0  0  0  0  0  0  0  0  0  0  0  0
   25.1191  -21.7286   -9.9809 O   0  0  0  0  0  0  0  0  0  0  0  0
   24.9343  -20.1223  -11.7202 C   0  0  0  0  0  0  0  0  0  0  0  0
   24.8059  -20.9449  -12.9548 C   0  0  2  0  0  0  0  0  0  0  0  0
   25.2537  -19.9785  -14.0284 N   0  0  0  0  0  0  0  0  0  0  0  0
   23.4498  -21.3883  -13.3050 C   0  0  0  0  0  0  0  0  0  0  0  0
   23.3414  -22.1084  -14.3617 O   0  0  0  0  0  0  0  0  0  0  0  0
   22.2396  -21.1390  -12.6373 N   0  0  0  0  0  0  0  0  0  0  0  0
   21.1106  -20.4305  -13.2523 C   0  0  1  0  0  0  0  0  0  0  0  0
   21.5080  -19.0537  -13.6736 C   0  0  0  0  0  0  0  0  0  0  0  0
   20.4188  -18.3590  -14.3868 C   0  0  0  0  0  0  0  0  0  0  0  0
   19.1655  -18.9034  -14.6571 C   0  0  0  0  0  0  0  0  0  0  0  0
   18.4486  -17.9748  -15.3527 N   0  0  0  0  0  0  0  0  0  0  0  0
   19.2104  -16.8927  -15.5163 C   0  0  0  0  0  0  0  0  0  0  0  0
   20.3928  -17.1196  -14.9383 N   0  0  0  0  0  0  0  0  0  0  0  0
   20.5348  -21.1740  -14.3616 C   0  0  0  0  0  0  0  0  0  0  0  0
   21.3104  -21.5078  -15.3248 O   0  0  0  0  0  0  0  0  0  0  0  0
   19.2258  -21.5533  -14.4652 O   0  0  0  0  0  0  0  0  0  0  0  0
  2  1  1  0
  2  3  1  0
  3  4  1  6
  5  3  1  0
  5  6  1  1
  7  5  1  0
  8  7  2  0
 10 11  2  0
 10  9  1  0
 12 10  1  0
 13 12  1  1
 13 14  1  0
 14  7  1  0
 15 16  2  0
 15 13  1  0
 17 15  1  0
 18 25  1  0
 18 17  1  0
 18 19  1  6
 20 21  2  0
 20 19  1  0
 22 21  1  0
 23 24  2  0
 23 22  1  0
 24 20  1  0
 25 27  1  0
 26 25  2  0
M  END
$$$$
