INH.pdb
     RDKit          3D

 27 27  0  0  1  0  0  0  0  0999 V2000
   16.4030  -14.1931  -17.9484 C   0  0  0  0  0  0  0  0  0  0  0  0
   17.8682  -14.3871  -18.1317 C   0  0  0  0  0  0  0  0  0  0  0  0
   18.6875  -13.4039  -17.3443 C   0  0  2  0  0  0  0  0  0  0  0  0
   18.3224  -11.9801  -17.7458 C   0  0  0  0  0  0  0  0  0  0  0  0
   20.1643  -13.6335  -17.4705 C   0  0  2  0  0  0  0  0  0  0  0  0
   20.3814  -14.9895  -16.8976 N   0  0  0  0  0  0  0  0  0  0  0  0
   21.0092  -12.7366  -16.6599 C   0  0  0  0  0  0  0  0  0  0  0  0
   21.0153  -12.7971  -15.3752 O   0  0  0  0  0  0  0  0  0  0  0  0
   24.9704   -9.9553  -14.7945 N   0  0  0  0  0  0  0  0  0  0  0  0
   25.1428  -10.4347  -16.1617 C   0  0  0  0  0  0  0  0  0  0  0  0
   26.3201  -10.4686  -16.5808 O   0  0  0  0  0  0  0  0  0  0  0  0
   24.0013  -10.8327  -16.9410 C   0  0  0  0  0  0  0  0  0  0  0  0
   22.6676  -10.8418  -16.2786 C   0  0  2  0  0  0  0  0  0  0  0  0
   21.8703  -11.7554  -17.1822 N   0  0  0  0  0  0  0  0  0  0  0  0
   21.9586   -9.5563  -16.2224 C   0  0  0  0  0  0  0  0  0  0  0  0
   21.3179   -9.2129  -17.2801 O   0  0  0  0  0  0  0  0  0  0  0  0
   21.8750   -8.6399  -15.1614 N   0  0  0  0  0  0  0  0  0  0  0  0
   21.0507   -7.4262  -15.2076 C   0  0  1  0  0  0  0  0  0  0  0  0
   20.5568   -7.0623  -13.8456 C   0  0  0  0  0  0  0  0  0  0  0  0
   19.6111   -8.0637  -13.3160 C   0  0  0  0  0  0  0  0  0  0  0  0
   18.6706   -8.7555  -14.0758 C   0  0  0  0  0  0  0  0  0  0  0  0
   17.9680   -9.5658  -13.2333 N   0  0  0  0  0  0  0  0  0  0  0  0
   18.4397   -9.3962  -11.9976 C   0  0  0  0  0  0  0  0  0  0  0  0
   19.4252   -8.4960  -12.0434 N   0  0  0  0  0  0  0  0  0  0  0  0
   21.7489   -6.3118  -15.8286 C   0  0  0  0  0  0  0  0  0  0  0  0
   22.9635   -6.4947  -16.1921 O   0  0  0  0  0  0  0  0  0  0  0  0
   21.2156   -5.0754  -16.0624 O   0  0  0  0  0  0  0  0  0  0  0  0
  2  1  1  0
  2  3  1  0
  3  4  1  6
  5  3  1  0
  5  6  1  1
  7  5  1  0
  8  7  2  0
 10 11  2  0
 10  9  1  0
 12 10  1  0
 13 12  1  6
 13 14  1  0
 14  7  1  0
 15 16  2  0
 15 13  1  0
 17 15  1  0
 18 25  1  0
 18 17  1  0
 18 19  1  1
 20 21  2  0
 20 19  1  0
 22 21  1  0
 23 24  2  0
 23 22  1  0
 24 20  1  0
 25 27  1  0
 26 25  2  0
M  END
$$$$
