INH.pdb
     RDKit          3D

 27 27  0  0  1  0  0  0  0  0999 V2000
   28.4723  -12.9165  -16.1356 C   0  0  0  0  0  0  0  0  0  0  0  0
   27.9371  -11.5341  -15.9928 C   0  0  0  0  0  0  0  0  0  0  0  0
   26.4716  -11.4426  -16.3120 C   0  0  2  0  0  0  0  0  0  0  0  0
   26.1989  -12.0359  -17.6887 C   0  0  0  0  0  0  0  0  0  0  0  0
   25.9340  -10.0457  -16.2153 C   0  0  2  0  0  0  0  0  0  0  0  0
   26.1077   -9.6774  -14.7841 N   0  0  0  0  0  0  0  0  0  0  0  0
   24.4876   -9.9121  -16.4712 C   0  0  0  0  0  0  0  0  0  0  0  0
   24.0112   -9.9308  -17.6658 O   0  0  0  0  0  0  0  0  0  0  0  0
   19.1965  -10.0346  -15.9448 N   0  0  0  0  0  0  0  0  0  0  0  0
   19.9794  -10.7533  -14.9451 C   0  0  0  0  0  0  0  0  0  0  0  0
   19.3326  -11.5152  -14.1940 O   0  0  0  0  0  0  0  0  0  0  0  0
   21.4032  -10.5660  -14.8657 C   0  0  0  0  0  0  0  0  0  0  0  0
   22.0416   -9.6218  -15.8240 C   0  0  2  0  0  0  0  0  0  0  0  0
   23.5069   -9.7579  -15.4756 N   0  0  0  0  0  0  0  0  0  0  0  0
   21.6878   -8.2036  -15.6758 C   0  0  0  0  0  0  0  0  0  0  0  0
   21.9995   -7.6528  -14.5593 O   0  0  0  0  0  0  0  0  0  0  0  0
   21.0544   -7.3511  -16.5948 N   0  0  0  0  0  0  0  0  0  0  0  0
   20.7861   -5.9331  -16.3265 C   0  0  1  0  0  0  0  0  0  0  0  0
   20.6135   -5.1708  -17.5994 C   0  0  0  0  0  0  0  0  0  0  0  0
   21.9087   -4.8392  -18.2239 C   0  0  0  0  0  0  0  0  0  0  0  0
   23.1550   -5.0427  -17.6361 C   0  0  0  0  0  0  0  0  0  0  0  0
   24.1045   -4.5881  -18.5032 N   0  0  0  0  0  0  0  0  0  0  0  0
   23.4902   -4.1182  -19.5895 C   0  0  0  0  0  0  0  0  0  0  0  0
   22.1732   -4.2671  -19.4254 N   0  0  0  0  0  0  0  0  0  0  0  0
   19.6452   -5.7479  -15.4440 C   0  0  0  0  0  0  0  0  0  0  0  0
   18.6525   -6.5469  -15.5737 O   0  0  0  0  0  0  0  0  0  0  0  0
   19.5404   -4.7875  -14.4772 O   0  0  0  0  0  0  0  0  0  0  0  0
  2  1  1  0
  2  3  1  0
  3  4  1  6
  5  3  1  0
  5  6  1  1
  7  5  1  0
  8  7  2  0
 10 11  2  0
 10  9  1  0
 12 10  1  0
 13 12  1  1
 13 14  1  0
 14  7  1  0
 15 16  2  0
 15 13  1  0
 17 15  1  0
 18 25  1  0
 18 17  1  0
 18 19  1  6
 20 21  2  0
 20 19  1  0
 22 21  1  0
 23 24  2  0
 23 22  1  0
 24 20  1  0
 25 27  1  0
 26 25  2  0
M  END
$$$$
