INH.pdb
     RDKit          3D

 27 27  0  0  1  0  0  0  0  0999 V2000
   15.8788  -17.0279  -16.3191 C   0  0  0  0  0  0  0  0  0  0  0  0
   15.5132  -15.5984  -16.1173 C   0  0  0  0  0  0  0  0  0  0  0  0
   16.7087  -14.7222  -15.8704 C   0  0  2  0  0  0  0  0  0  0  0  0
   17.5041  -15.2467  -14.6813 C   0  0  0  0  0  0  0  0  0  0  0  0
   16.3510  -13.2781  -15.6800 C   0  0  2  0  0  0  0  0  0  0  0  0
   15.8174  -12.8485  -17.0009 N   0  0  0  0  0  0  0  0  0  0  0  0
   17.4911  -12.3797  -15.4180 C   0  0  0  0  0  0  0  0  0  0  0  0
   18.1731  -12.4578  -14.3304 O   0  0  0  0  0  0  0  0  0  0  0  0
   22.0934   -9.9748  -18.2471 N   0  0  0  0  0  0  0  0  0  0  0  0
   20.9103   -9.5373  -17.5138 C   0  0  0  0  0  0  0  0  0  0  0  0
   20.9593   -8.3792  -17.0454 O   0  0  0  0  0  0  0  0  0  0  0  0
   19.7821  -10.4168  -17.3646 C   0  0  0  0  0  0  0  0  0  0  0  0
   19.1930  -10.5788  -16.0065 C   0  0  2  0  0  0  0  0  0  0  0  0
   17.9426  -11.3785  -16.2960 N   0  0  0  0  0  0  0  0  0  0  0  0
   18.7747   -9.3460  -15.3258 C   0  0  0  0  0  0  0  0  0  0  0  0
   17.6884   -8.8053  -15.7439 O   0  0  0  0  0  0  0  0  0  0  0  0
   19.3977   -8.6683  -14.2651 N   0  0  0  0  0  0  0  0  0  0  0  0
   18.8791   -7.4215  -13.6896 C   0  0  1  0  0  0  0  0  0  0  0  0
   18.9664   -7.4430  -12.1986 C   0  0  0  0  0  0  0  0  0  0  0  0
   17.7644   -8.0389  -11.5842 C   0  0  0  0  0  0  0  0  0  0  0  0
   16.6640   -8.5239  -12.2871 C   0  0  0  0  0  0  0  0  0  0  0  0
   15.7496   -8.9665  -11.3772 N   0  0  0  0  0  0  0  0  0  0  0  0
   16.2457   -8.7716  -10.1549 C   0  0  0  0  0  0  0  0  0  0  0  0
   17.4539   -8.2154  -10.2752 N   0  0  0  0  0  0  0  0  0  0  0  0
   19.5397   -6.2476  -14.2380 C   0  0  0  0  0  0  0  0  0  0  0  0
   20.5213   -6.4333  -15.0396 O   0  0  0  0  0  0  0  0  0  0  0  0
   19.1990   -4.9512  -13.9715 O   0  0  0  0  0  0  0  0  0  0  0  0
  2  1  1  0
  2  3  1  0
  3  4  1  1
  5  3  1  0
  5  6  1  6
  7  5  1  0
  8  7  2  0
 10 11  2  0
 10  9  1  0
 12 10  1  0
 13 12  1  6
 13 14  1  0
 14  7  1  0
 15 16  2  0
 15 13  1  0
 17 15  1  0
 18 25  1  0
 18 17  1  0
 18 19  1  1
 20 21  2  0
 20 19  1  0
 22 21  1  0
 23 24  2  0
 23 22  1  0
 24 20  1  0
 25 27  1  0
 26 25  2  0
M  END
$$$$
