VMQ.pdb
     RDKit          3D

 25 24  0  0  1  0  0  0  0  0999 V2000
   20.1848  -14.2909  -20.5171 C   0  0  0  0  0  0  0  0  0  0  0  0
   20.7063  -13.6356  -19.2803 C   0  0  1  0  0  0  0  0  0  0  0  0
   22.0595  -14.2492  -18.9655 C   0  0  0  0  0  0  0  0  0  0  0  0
   20.8974  -12.1597  -19.4054 C   0  0  2  0  0  0  0  0  0  0  0  0
   21.6600  -11.8860  -20.5997 N   0  0  0  0  0  0  0  0  0  0  0  0
   21.5202  -11.5509  -18.1994 C   0  0  0  0  0  0  0  0  0  0  0  0
   20.8831  -11.5461  -17.1150 O   0  0  0  0  0  0  0  0  0  0  0  0
   28.0856  -10.3192  -16.8210 C   0  0  0  0  0  0  0  0  0  0  0  0
   27.0765  -10.6986  -15.3503 S   0  0  0  0  0  0  0  0  0  0  0  0
   25.4005  -10.0057  -15.5826 C   0  0  0  0  0  0  0  0  0  0  0  0
   24.8006  -10.7024  -16.7632 C   0  0  0  0  0  0  0  0  0  0  0  0
   23.3877  -10.2975  -17.0583 C   0  0  2  0  0  0  0  0  0  0  0  0
   22.8161  -10.9638  -18.2004 N   0  0  0  0  0  0  0  0  0  0  0  0
   23.2206   -8.8233  -17.1243 C   0  0  0  0  0  0  0  0  0  0  0  0
   23.6577   -8.1869  -18.1161 O   0  0  0  0  0  0  0  0  0  0  0  0
   19.2592   -6.4021  -19.2795 N   0  0  0  0  0  0  0  0  0  0  0  0
   19.4600   -5.2594  -18.4715 C   0  0  0  0  0  0  0  0  0  0  0  0
   18.7509   -4.2509  -18.6506 O   0  0  0  0  0  0  0  0  0  0  0  0
   20.5013   -5.2335  -17.4097 C   0  0  0  0  0  0  0  0  0  0  0  0
   21.1547   -6.5819  -17.3101 C   0  0  0  0  0  0  0  0  0  0  0  0
   22.2324   -6.6563  -16.2849 C   0  0  2  0  0  0  0  0  0  0  0  0
   22.5782   -8.0812  -16.1013 N   0  0  0  0  0  0  0  0  0  0  0  0
   21.7664   -6.1736  -14.9683 C   0  0  0  0  0  0  0  0  0  0  0  0
   21.4074   -7.0018  -14.0681 O   0  0  0  0  0  0  0  0  0  0  0  0
   21.6887   -4.8469  -14.6260 O   0  0  0  0  0  0  0  0  0  0  0  0
  2  1  1  6
  3  2  1  0
  4  2  1  0
  4  5  1  6
  6  4  1  0
  7  6  2  0
  9 10  1  0
  9  8  1  0
 11 10  1  0
 12 11  1  6
 12 13  1  0
 13  6  1  0
 14 12  1  0
 14 15  2  0
 17 16  1  0
 17 19  1  0
 18 17  2  0
 19 20  1  0
 21 20  1  6
 21 22  1  0
 22 14  1  0
 23 21  1  0
 24 23  2  0
 25 23  1  0
M  END
$$$$
