VMQ.pdb
     RDKit          3D

 25 24  0  0  1  0  0  0  0  0999 V2000
   28.8893  -16.4660    9.5162 C   0  0  0  0  0  0  0  0  0  0  0  0
   30.2140  -17.1466    9.6295 C   0  0  1  0  0  0  0  0  0  0  0  0
   29.9652  -18.6447    9.6554 C   0  0  0  0  0  0  0  0  0  0  0  0
   31.1452  -16.8627    8.4969 C   0  0  2  0  0  0  0  0  0  0  0  0
   30.4968  -17.2181    7.2574 N   0  0  0  0  0  0  0  0  0  0  0  0
   32.4626  -17.5376    8.6456 C   0  0  0  0  0  0  0  0  0  0  0  0
   32.6771  -18.6100    8.0244 O   0  0  0  0  0  0  0  0  0  0  0  0
   37.8944  -15.3599   12.1405 C   0  0  0  0  0  0  0  0  0  0  0  0
   38.4340  -16.1041   10.5657 S   0  0  0  0  0  0  0  0  0  0  0  0
   37.2421  -17.4034   10.0812 C   0  0  0  0  0  0  0  0  0  0  0  0
   35.8886  -16.7658   10.0566 C   0  0  0  0  0  0  0  0  0  0  0  0
   34.7905  -17.6812    9.6053 C   0  0  2  0  0  0  0  0  0  0  0  0
   33.5119  -17.0330    9.4631 N   0  0  0  0  0  0  0  0  0  0  0  0
   34.7074  -18.9169   10.4248 C   0  0  0  0  0  0  0  0  0  0  0  0
   34.0237  -18.9247   11.4795 O   0  0  0  0  0  0  0  0  0  0  0  0
   34.0855  -24.5743    8.4872 N   0  0  0  0  0  0  0  0  0  0  0  0
   33.2312  -24.2172    9.5556 C   0  0  0  0  0  0  0  0  0  0  0  0
   32.1744  -24.8526    9.7329 O   0  0  0  0  0  0  0  0  0  0  0  0
   33.5660  -23.0972   10.4754 C   0  0  0  0  0  0  0  0  0  0  0  0
   34.8494  -22.4515   10.0387 C   0  0  0  0  0  0  0  0  0  0  0  0
   35.2866  -21.3264   10.9110 C   0  0  2  0  0  0  0  0  0  0  0  0
   35.3761  -20.1154   10.0690 N   0  0  0  0  0  0  0  0  0  0  0  0
   36.6430  -21.5516   11.4524 C   0  0  0  0  0  0  0  0  0  0  0  0
   36.8228  -22.3511   12.4290 O   0  0  0  0  0  0  0  0  0  0  0  0
   37.7708  -20.9417   10.9629 O   0  0  0  0  0  0  0  0  0  0  0  0
  2  1  1  6
  3  2  1  0
  4  2  1  0
  4  5  1  6
  6  4  1  0
  7  6  2  0
  9 10  1  0
  9  8  1  0
 11 10  1  0
 12 11  1  1
 12 13  1  0
 13  6  1  0
 14 12  1  0
 14 15  2  0
 17 16  1  0
 17 19  1  0
 18 17  2  0
 19 20  1  0
 21 20  1  6
 21 22  1  0
 22 14  1  0
 23 21  1  0
 24 23  2  0
 25 23  1  0
M  END
$$$$
