VMQ.pdb
     RDKit          3D

 25 24  0  0  1  0  0  0  0  0999 V2000
   27.7841  -19.4340  -18.1610 C   0  0  0  0  0  0  0  0  0  0  0  0
   26.8585  -20.0414  -17.1584 C   0  0  1  0  0  0  0  0  0  0  0  0
   25.8353  -20.8710  -17.9146 C   0  0  0  0  0  0  0  0  0  0  0  0
   27.5304  -20.9407  -16.1733 C   0  0  2  0  0  0  0  0  0  0  0  0
   28.1612  -22.0264  -16.8848 N   0  0  0  0  0  0  0  0  0  0  0  0
   26.6084  -21.4342  -15.1153 C   0  0  0  0  0  0  0  0  0  0  0  0
   25.9477  -22.4852  -15.3175 O   0  0  0  0  0  0  0  0  0  0  0  0
   24.3535  -21.1639   -7.5060 C   0  0  0  0  0  0  0  0  0  0  0  0
   25.4070  -20.5107   -8.8434 S   0  0  0  0  0  0  0  0  0  0  0  0
   24.8365  -21.1953  -10.4399 C   0  0  0  0  0  0  0  0  0  0  0  0
   25.8008  -20.7277  -11.4842 C   0  0  0  0  0  0  0  0  0  0  0  0
   25.4869  -21.2142  -12.8670 C   0  0  2  0  0  0  0  0  0  0  0  0
   26.4267  -20.7762  -13.8671 N   0  0  0  0  0  0  0  0  0  0  0  0
   24.0803  -20.9441  -13.2592 C   0  0  0  0  0  0  0  0  0  0  0  0
   23.7561  -19.8075  -13.6868 O   0  0  0  0  0  0  0  0  0  0  0  0
   19.8426  -25.3892  -14.3868 N   0  0  0  0  0  0  0  0  0  0  0  0
   19.0760  -24.2295  -14.6443 C   0  0  0  0  0  0  0  0  0  0  0  0
   17.9054  -24.3480  -15.0536 O   0  0  0  0  0  0  0  0  0  0  0  0
   19.6366  -22.8674  -14.4371 C   0  0  0  0  0  0  0  0  0  0  0  0
   21.0590  -22.9727  -13.9675 C   0  0  0  0  0  0  0  0  0  0  0  0
   21.6919  -21.6602  -13.6597 C   0  0  2  0  0  0  0  0  0  0  0  0
   23.0617  -21.9265  -13.1734 N   0  0  0  0  0  0  0  0  0  0  0  0
   20.9937  -20.9630  -12.5597 C   0  0  0  0  0  0  0  0  0  0  0  0
   21.2941  -21.2108  -11.3458 O   0  0  0  0  0  0  0  0  0  0  0  0
   20.0066  -20.0293  -12.7532 O   0  0  0  0  0  0  0  0  0  0  0  0
  2  1  1  6
  3  2  1  0
  4  2  1  0
  4  5  1  6
  6  4  1  0
  7  6  2  0
  9 10  1  0
  9  8  1  0
 11 10  1  0
 12 11  1  1
 12 13  1  0
 13  6  1  0
 14 12  1  0
 14 15  2  0
 17 16  1  0
 17 19  1  0
 18 17  2  0
 19 20  1  0
 21 20  1  1
 21 22  1  0
 22 14  1  0
 23 21  1  0
 24 23  2  0
 25 23  1  0
M  END
$$$$
