VMQ.pdb
     RDKit          3D

 25 24  0  0  1  0  0  0  0  0999 V2000
   23.6979  -32.2114  -23.2449 C   0  0  0  0  0  0  0  0  0  0  0  0
   23.8831  -31.8136  -21.8172 C   0  0  1  0  0  0  0  0  0  0  0  0
   25.3167  -32.1318  -21.4292 C   0  0  0  0  0  0  0  0  0  0  0  0
   23.6553  -30.3613  -21.5536 C   0  0  2  0  0  0  0  0  0  0  0  0
   24.3911  -29.5881  -22.5250 N   0  0  0  0  0  0  0  0  0  0  0  0
   23.9927  -29.9646  -20.1600 C   0  0  0  0  0  0  0  0  0  0  0  0
   23.3380  -30.4569  -19.2056 O   0  0  0  0  0  0  0  0  0  0  0  0
   29.2595  -26.1141  -16.2073 C   0  0  0  0  0  0  0  0  0  0  0  0
   28.9605  -27.8194  -16.7801 S   0  0  0  0  0  0  0  0  0  0  0  0
   27.1584  -28.1254  -16.8259 C   0  0  0  0  0  0  0  0  0  0  0  0
   26.8216  -28.5359  -18.2249 C   0  0  0  0  0  0  0  0  0  0  0  0
   25.3505  -28.6494  -18.4906 C   0  0  2  0  0  0  0  0  0  0  0  0
   25.0297  -29.0456  -19.8379 N   0  0  0  0  0  0  0  0  0  0  0  0
   24.6009  -27.4399  -18.0656 C   0  0  0  0  0  0  0  0  0  0  0  0
   24.5488  -26.4371  -18.8215 O   0  0  0  0  0  0  0  0  0  0  0  0
   21.0524  -27.0115  -12.8886 N   0  0  0  0  0  0  0  0  0  0  0  0
   21.0339  -25.6714  -13.3390 C   0  0  0  0  0  0  0  0  0  0  0  0
   20.4391  -24.8079  -12.6665 O   0  0  0  0  0  0  0  0  0  0  0  0
   21.7102  -25.2679  -14.6008 C   0  0  0  0  0  0  0  0  0  0  0  0
   22.4293  -26.4479  -15.1882 C   0  0  0  0  0  0  0  0  0  0  0  0
   23.2246  -26.1257  -16.4055 C   0  0  2  0  0  0  0  0  0  0  0  0
   23.9259  -27.3581  -16.8215 N   0  0  0  0  0  0  0  0  0  0  0  0
   24.2782  -25.1296  -16.1204 C   0  0  0  0  0  0  0  0  0  0  0  0
   25.4041  -25.4988  -15.6499 O   0  0  0  0  0  0  0  0  0  0  0  0
   24.1316  -23.7818  -16.3335 O   0  0  0  0  0  0  0  0  0  0  0  0
  2  1  1  6
  3  2  1  0
  4  2  1  0
  4  5  1  6
  6  4  1  0
  7  6  2  0
  9 10  1  0
  9  8  1  0
 11 10  1  0
 12 11  1  6
 12 13  1  0
 13  6  1  0
 14 12  1  0
 14 15  2  0
 17 16  1  0
 17 19  1  0
 18 17  2  0
 19 20  1  0
 21 20  1  1
 21 22  1  0
 22 14  1  0
 23 21  1  0
 24 23  2  0
 25 23  1  0
M  END
$$$$
