VMQ.pdb
     RDKit          3D

 25 24  0  0  1  0  0  0  0  0999 V2000
   28.5786  -19.9806  -18.4774 C   0  0  0  0  0  0  0  0  0  0  0  0
   28.4625  -20.7102  -17.1792 C   0  0  1  0  0  0  0  0  0  0  0  0
   29.7985  -20.6016  -16.4650 C   0  0  0  0  0  0  0  0  0  0  0  0
   27.4152  -20.1657  -16.2643 C   0  0  2  0  0  0  0  0  0  0  0  0
   27.5757  -18.7346  -16.1682 N   0  0  0  0  0  0  0  0  0  0  0  0
   27.4201  -20.8142  -14.9255 C   0  0  0  0  0  0  0  0  0  0  0  0
   27.0337  -22.0064  -14.8189 O   0  0  0  0  0  0  0  0  0  0  0  0
   29.3698  -21.3120   -7.3135 C   0  0  0  0  0  0  0  0  0  0  0  0
   29.7774  -20.8978   -9.0420 S   0  0  0  0  0  0  0  0  0  0  0  0
   28.2478  -20.9451  -10.0427 C   0  0  0  0  0  0  0  0  0  0  0  0
   28.6243  -20.5407  -11.4334 C   0  0  0  0  0  0  0  0  0  0  0  0
   27.4916  -20.5979  -12.4137 C   0  0  2  0  0  0  0  0  0  0  0  0
   27.8433  -20.1542  -13.7384 N   0  0  0  0  0  0  0  0  0  0  0  0
   26.2647  -19.9339  -11.9045 C   0  0  0  0  0  0  0  0  0  0  0  0
   26.1256  -18.6912  -12.0324 O   0  0  0  0  0  0  0  0  0  0  0  0
   23.0932  -19.4493  -14.8520 N   0  0  0  0  0  0  0  0  0  0  0  0
   22.3434  -20.4499  -14.1921 C   0  0  0  0  0  0  0  0  0  0  0  0
   21.6524  -21.2397  -14.8634 O   0  0  0  0  0  0  0  0  0  0  0  0
   22.3607  -20.5817  -12.7106 C   0  0  0  0  0  0  0  0  0  0  0  0
   23.2728  -19.5443  -12.1218 C   0  0  0  0  0  0  0  0  0  0  0  0
   23.9594  -19.9817  -10.8747 C   0  0  2  0  0  0  0  0  0  0  0  0
   25.2188  -20.6477  -11.2668 N   0  0  0  0  0  0  0  0  0  0  0  0
   23.1693  -20.9943  -10.1440 C   0  0  0  0  0  0  0  0  0  0  0  0
   23.6024  -22.1875  -10.0254 O   0  0  0  0  0  0  0  0  0  0  0  0
   21.9552  -20.7375   -9.5579 O   0  0  0  0  0  0  0  0  0  0  0  0
  2  1  1  6
  3  2  1  0
  4  2  1  0
  4  5  1  1
  6  4  1  0
  7  6  2  0
  9 10  1  0
  9  8  1  0
 11 10  1  0
 12 11  1  1
 12 13  1  0
 13  6  1  0
 14 12  1  0
 14 15  2  0
 17 16  1  0
 17 19  1  0
 18 17  2  0
 19 20  1  0
 21 20  1  6
 21 22  1  0
 22 14  1  0
 23 21  1  0
 24 23  2  0
 25 23  1  0
M  END
$$$$
