VMQ.pdb
     RDKit          3D

 25 24  0  0  1  0  0  0  0  0999 V2000
   28.2207  -19.5848  -16.5343 C   0  0  0  0  0  0  0  0  0  0  0  0
   27.1877  -19.8735  -15.4948 C   0  0  1  0  0  0  0  0  0  0  0  0
   25.8504  -20.0243  -16.1990 C   0  0  0  0  0  0  0  0  0  0  0  0
   27.4344  -21.1263  -14.7201 C   0  0  2  0  0  0  0  0  0  0  0  0
   27.5216  -22.2356  -15.6393 N   0  0  0  0  0  0  0  0  0  0  0  0
   26.4168  -21.3637  -13.6612 C   0  0  0  0  0  0  0  0  0  0  0  0
   25.4449  -22.1246  -13.9028 O   0  0  0  0  0  0  0  0  0  0  0  0
   26.2615  -19.1421   -7.4971 C   0  0  0  0  0  0  0  0  0  0  0  0
   27.3574  -20.5641   -7.8165 S   0  0  0  0  0  0  0  0  0  0  0  0
   26.9091  -21.3131   -9.4231 C   0  0  0  0  0  0  0  0  0  0  0  0
   25.8273  -20.4640  -10.0131 C   0  0  0  0  0  0  0  0  0  0  0  0
   25.4202  -20.8687  -11.3980 C   0  0  2  0  0  0  0  0  0  0  0  0
   26.4792  -20.7707  -12.3696 N   0  0  0  0  0  0  0  0  0  0  0  0
   24.1788  -20.1886  -11.8473 C   0  0  0  0  0  0  0  0  0  0  0  0
   24.2528  -19.1567  -12.5611 O   0  0  0  0  0  0  0  0  0  0  0  0
   20.9772  -23.5328  -14.4787 N   0  0  0  0  0  0  0  0  0  0  0  0
   20.4238  -22.3708  -15.0639 C   0  0  0  0  0  0  0  0  0  0  0  0
   19.5205  -22.4845  -15.9141 O   0  0  0  0  0  0  0  0  0  0  0  0
   20.8965  -21.0119  -14.6867 C   0  0  0  0  0  0  0  0  0  0  0  0
   22.0065  -21.1242  -13.6816 C   0  0  0  0  0  0  0  0  0  0  0  0
   21.7252  -20.4346  -12.3919 C   0  0  2  0  0  0  0  0  0  0  0  0
   22.8851  -20.6557  -11.5034 N   0  0  0  0  0  0  0  0  0  0  0  0
   20.5600  -21.0249  -11.7009 C   0  0  0  0  0  0  0  0  0  0  0  0
   20.6936  -22.0802  -10.9983 O   0  0  0  0  0  0  0  0  0  0  0  0
   19.2927  -20.5013  -11.7591 O   0  0  0  0  0  0  0  0  0  0  0  0
  2  1  1  6
  3  2  1  0
  4  2  1  0
  4  5  1  6
  6  4  1  0
  7  6  2  0
  9 10  1  0
  9  8  1  0
 11 10  1  0
 12 11  1  1
 12 13  1  0
 13  6  1  0
 14 12  1  0
 14 15  2  0
 17 16  1  0
 17 19  1  0
 18 17  2  0
 19 20  1  0
 21 20  1  6
 21 22  1  0
 22 14  1  0
 23 21  1  0
 24 23  2  0
 25 23  1  0
M  END
$$$$
