HKV.pdb
     RDKit          3D

 27 27  0  0  1  0  0  0  0  0999 V2000
   23.4312  -10.6741  -18.2388 N   0  0  0  0  0  0  0  0  0  0  0  0
   23.1172   -9.8136  -17.1284 C   0  0  1  0  0  0  0  0  0  0  0  0
   24.2609   -8.8421  -16.8495 C   0  0  0  0  0  0  0  0  0  0  0  0
   25.4558   -9.6264  -16.4378 C   0  0  0  0  0  0  0  0  0  0  0  0
   25.7739   -9.9764  -15.1466 C   0  0  0  0  0  0  0  0  0  0  0  0
   26.9181  -10.6825  -15.1281 N   0  0  0  0  0  0  0  0  0  0  0  0
   27.3044  -10.7643  -16.4325 C   0  0  0  0  0  0  0  0  0  0  0  0
   26.4165  -10.1254  -17.2078 N   0  0  0  0  0  0  0  0  0  0  0  0
   21.9261   -8.9897  -17.4266 C   0  0  0  0  0  0  0  0  0  0  0  0
   21.7989   -8.5067  -18.5721 O   0  0  0  0  0  0  0  0  0  0  0  0
   20.9601   -8.7693  -16.4065 N   0  0  0  0  0  0  0  0  0  0  0  0
   19.7258   -8.1184  -16.6696 C   0  0  1  0  0  0  0  0  0  0  0  0
   18.5622   -8.7709  -16.0042 C   0  0  0  0  0  0  0  0  0  0  0  0
   17.2048   -8.2832  -16.2943 C   0  0  0  0  0  0  0  0  0  0  0  0
   16.1022   -9.0087  -15.5838 C   0  0  0  0  0  0  0  0  0  0  0  0
   14.7419   -8.3943  -15.9366 C   0  0  0  0  0  0  0  0  0  0  0  0
   13.7328   -9.2101  -15.3231 N   0  0  0  0  0  0  0  0  0  0  0  0
   19.8202   -6.6815  -16.1994 C   0  0  0  0  0  0  0  0  0  0  0  0
   20.3142   -6.4108  -15.0665 O   0  0  0  0  0  0  0  0  0  0  0  0
   21.2640   -3.5442  -17.9149 C   0  0  0  0  0  0  0  0  0  0  0  0
   19.8082   -3.2916  -17.5832 C   0  0  1  0  0  0  0  0  0  0  0  0
   18.9389   -3.4264  -18.8107 C   0  0  0  0  0  0  0  0  0  0  0  0
   19.3966   -4.2480  -16.4847 C   0  0  2  0  0  0  0  0  0  0  0  0
   19.3672   -5.6158  -16.9982 N   0  0  0  0  0  0  0  0  0  0  0  0
   18.0496   -3.8238  -16.0226 C   0  0  0  0  0  0  0  0  0  0  0  0
   17.0077   -4.4458  -16.2564 O   0  0  0  0  0  0  0  0  0  0  0  0
   17.9610   -2.6551  -15.2825 O   0  0  0  0  0  0  0  0  0  0  0  0
  2  1  1  6
  2  3  1  0
  4  5  2  0
  4  3  1  0
  6  5  1  0
  7  8  2  0
  7  6  1  0
  8  4  1  0
  9  2  1  0
  9 11  1  0
 10  9  2  0
 12 11  1  0
 12 13  1  1
 13 14  1  0
 14 15  1  0
 16 15  1  0
 16 17  1  0
 18 12  1  0
 19 18  2  0
 21 20  1  6
 21 23  1  0
 22 21  1  0
 23 25  1  0
 23 24  1  6
 24 18  1  0
 25 27  1  0
 26 25  2  0
M  END
$$$$
