HKV.pdb
     RDKit          3D

 27 27  0  0  1  0  0  0  0  0999 V2000
   29.0325  -21.1377  -17.4423 N   0  0  0  0  0  0  0  0  0  0  0  0
   28.1423  -21.8800  -16.5887 C   0  0  1  0  0  0  0  0  0  0  0  0
   28.9107  -22.5664  -15.4626 C   0  0  0  0  0  0  0  0  0  0  0  0
   29.6586  -23.7174  -16.0356 C   0  0  0  0  0  0  0  0  0  0  0  0
   30.7383  -24.3372  -15.4515 C   0  0  0  0  0  0  0  0  0  0  0  0
   31.1745  -25.3397  -16.2343 N   0  0  0  0  0  0  0  0  0  0  0  0
   30.3451  -25.3306  -17.3157 C   0  0  0  0  0  0  0  0  0  0  0  0
   29.4395  -24.3508  -17.1825 N   0  0  0  0  0  0  0  0  0  0  0  0
   27.1638  -20.9781  -15.9441 C   0  0  0  0  0  0  0  0  0  0  0  0
   27.5654  -19.8947  -15.4681 O   0  0  0  0  0  0  0  0  0  0  0  0
   25.7968  -21.3652  -15.8828 N   0  0  0  0  0  0  0  0  0  0  0  0
   24.8120  -20.5477  -15.2677 C   0  0  1  0  0  0  0  0  0  0  0  0
   23.6282  -20.2957  -16.1379 C   0  0  0  0  0  0  0  0  0  0  0  0
   22.4721  -19.5741  -15.5836 C   0  0  0  0  0  0  0  0  0  0  0  0
   22.2909  -18.1758  -16.0923 C   0  0  0  0  0  0  0  0  0  0  0  0
   21.0835  -17.5123  -15.4179 C   0  0  0  0  0  0  0  0  0  0  0  0
   20.9412  -16.2033  -15.9891 N   0  0  0  0  0  0  0  0  0  0  0  0
   24.3502  -21.2162  -13.9890 C   0  0  0  0  0  0  0  0  0  0  0  0
   23.7949  -22.3523  -14.0262 O   0  0  0  0  0  0  0  0  0  0  0  0
   26.1739  -21.5801  -10.6145 C   0  0  0  0  0  0  0  0  0  0  0  0
   24.8253  -20.9474  -10.3420 C   0  0  1  0  0  0  0  0  0  0  0  0
   24.9668  -19.4760  -10.0332 C   0  0  0  0  0  0  0  0  0  0  0  0
   23.9317  -21.1962  -11.5381 C   0  0  2  0  0  0  0  0  0  0  0  0
   24.5224  -20.6019  -12.7353 N   0  0  0  0  0  0  0  0  0  0  0  0
   22.6152  -20.5790  -11.2315 C   0  0  0  0  0  0  0  0  0  0  0  0
   22.1828  -19.5584  -11.7779 O   0  0  0  0  0  0  0  0  0  0  0  0
   21.8252  -21.1906  -10.2706 O   0  0  0  0  0  0  0  0  0  0  0  0
  2  1  1  6
  2  3  1  0
  4  5  2  0
  4  3  1  0
  6  5  1  0
  7  8  2  0
  7  6  1  0
  8  4  1  0
  9  2  1  0
  9 11  1  0
 10  9  2  0
 12 11  1  0
 12 13  1  6
 13 14  1  0
 14 15  1  0
 16 15  1  0
 16 17  1  0
 18 12  1  0
 19 18  2  0
 21 20  1  6
 21 23  1  0
 22 21  1  0
 23 25  1  0
 23 24  1  6
 24 18  1  0
 25 27  1  0
 26 25  2  0
M  END
$$$$
