HKV.pdb
     RDKit          3D

 27 27  0  0  1  0  0  0  0  0999 V2000
   21.6156  -18.1585  -17.2874 N   0  0  0  0  0  0  0  0  0  0  0  0
   22.4578  -17.4361  -16.3705 C   0  0  1  0  0  0  0  0  0  0  0  0
   21.6298  -16.7808  -15.2684 C   0  0  0  0  0  0  0  0  0  0  0  0
   21.4172  -15.3524  -15.6245 C   0  0  0  0  0  0  0  0  0  0  0  0
   20.3336  -14.8539  -16.3088 C   0  0  0  0  0  0  0  0  0  0  0  0
   20.4565  -13.5236  -16.4624 N   0  0  0  0  0  0  0  0  0  0  0  0
   21.6372  -13.2057  -15.8604 C   0  0  0  0  0  0  0  0  0  0  0  0
   22.2031  -14.3141  -15.3616 N   0  0  0  0  0  0  0  0  0  0  0  0
   23.4054  -18.3516  -15.6996 C   0  0  0  0  0  0  0  0  0  0  0  0
   22.9870  -19.4535  -15.2843 O   0  0  0  0  0  0  0  0  0  0  0  0
   24.7626  -17.9563  -15.5448 N   0  0  0  0  0  0  0  0  0  0  0  0
   25.7588  -18.8570  -15.0833 C   0  0  1  0  0  0  0  0  0  0  0  0
   27.1479  -18.3783  -15.3351 C   0  0  0  0  0  0  0  0  0  0  0  0
   28.2776  -19.2790  -15.0574 C   0  0  0  0  0  0  0  0  0  0  0  0
   28.4041  -20.4472  -15.9881 C   0  0  0  0  0  0  0  0  0  0  0  0
   29.5745  -21.3444  -15.5663 C   0  0  0  0  0  0  0  0  0  0  0  0
   29.5712  -22.4871  -16.4347 N   0  0  0  0  0  0  0  0  0  0  0  0
   25.5735  -19.0709  -13.5950 C   0  0  0  0  0  0  0  0  0  0  0  0
   25.5037  -18.0806  -12.8108 O   0  0  0  0  0  0  0  0  0  0  0  0
   23.0127  -20.5282  -11.6407 C   0  0  0  0  0  0  0  0  0  0  0  0
   24.2271  -21.3041  -11.1756 C   0  0  1  0  0  0  0  0  0  0  0  0
   24.2123  -22.7139  -11.7166 C   0  0  0  0  0  0  0  0  0  0  0  0
   25.4674  -20.5448  -11.5953 C   0  0  2  0  0  0  0  0  0  0  0  0
   25.4744  -20.3619  -13.0451 N   0  0  0  0  0  0  0  0  0  0  0  0
   26.6373  -21.3477  -11.1544 C   0  0  0  0  0  0  0  0  0  0  0  0
   27.3972  -21.9473  -11.9227 O   0  0  0  0  0  0  0  0  0  0  0  0
   26.8885  -21.4263   -9.7934 O   0  0  0  0  0  0  0  0  0  0  0  0
  2  1  1  6
  2  3  1  0
  4  5  2  0
  4  3  1  0
  6  5  1  0
  7  8  2  0
  7  6  1  0
  8  4  1  0
  9  2  1  0
  9 11  1  0
 10  9  2  0
 12 11  1  0
 12 13  1  1
 13 14  1  0
 14 15  1  0
 16 15  1  0
 16 17  1  0
 18 12  1  0
 19 18  2  0
 21 20  1  6
 21 23  1  0
 22 21  1  0
 23 25  1  0
 23 24  1  6
 24 18  1  0
 25 27  1  0
 26 25  2  0
M  END
$$$$
