HKV.pdb
     RDKit          3D

 27 27  0  0  1  0  0  0  0  0999 V2000
   29.1095  -31.1307  -16.4724 N   0  0  0  0  0  0  0  0  0  0  0  0
   27.9493  -31.3610  -17.2927 C   0  0  1  0  0  0  0  0  0  0  0  0
   27.9788  -32.7608  -17.9004 C   0  0  0  0  0  0  0  0  0  0  0  0
   29.0725  -32.8147  -18.9070 C   0  0  0  0  0  0  0  0  0  0  0  0
   29.1761  -32.0081  -20.0160 C   0  0  0  0  0  0  0  0  0  0  0  0
   30.2830  -32.3208  -20.7126 N   0  0  0  0  0  0  0  0  0  0  0  0
   30.8646  -33.3369  -20.0151 C   0  0  0  0  0  0  0  0  0  0  0  0
   30.1264  -33.6229  -18.9330 N   0  0  0  0  0  0  0  0  0  0  0  0
   26.7135  -31.2768  -16.4852 C   0  0  0  0  0  0  0  0  0  0  0  0
   26.7779  -31.5093  -15.2590 O   0  0  0  0  0  0  0  0  0  0  0  0
   25.4888  -30.9349  -17.1219 N   0  0  0  0  0  0  0  0  0  0  0  0
   24.2893  -30.7409  -16.3871 C   0  0  1  0  0  0  0  0  0  0  0  0
   23.2962  -29.8845  -17.0960 C   0  0  0  0  0  0  0  0  0  0  0  0
   23.3175  -28.4299  -16.8754 C   0  0  0  0  0  0  0  0  0  0  0  0
   22.2486  -27.6616  -17.5924 C   0  0  0  0  0  0  0  0  0  0  0  0
   22.3555  -26.1660  -17.2696 C   0  0  0  0  0  0  0  0  0  0  0  0
   21.3491  -25.4902  -18.0380 N   0  0  0  0  0  0  0  0  0  0  0  0
   23.6636  -32.0916  -16.1062 C   0  0  0  0  0  0  0  0  0  0  0  0
   23.7678  -33.0316  -16.9466 O   0  0  0  0  0  0  0  0  0  0  0  0
   22.4160  -33.1729  -12.2564 C   0  0  0  0  0  0  0  0  0  0  0  0
   22.8426  -34.1712  -13.3122 C   0  0  1  0  0  0  0  0  0  0  0  0
   22.3005  -35.5480  -13.0101 C   0  0  0  0  0  0  0  0  0  0  0  0
   22.3859  -33.6616  -14.6622 C   0  0  2  0  0  0  0  0  0  0  0  0
   22.9556  -32.3402  -14.9163 N   0  0  0  0  0  0  0  0  0  0  0  0
   20.9016  -33.6030  -14.6240 C   0  0  0  0  0  0  0  0  0  0  0  0
   20.2533  -32.5797  -14.3797 O   0  0  0  0  0  0  0  0  0  0  0  0
   20.2040  -34.7732  -14.8794 O   0  0  0  0  0  0  0  0  0  0  0  0
  2  1  1  1
  2  3  1  0
  4  5  2  0
  4  3  1  0
  6  5  1  0
  7  8  2  0
  7  6  1  0
  8  4  1  0
  9  2  1  0
  9 11  1  0
 10  9  2  0
 12 11  1  0
 12 13  1  6
 13 14  1  0
 14 15  1  0
 16 15  1  0
 16 17  1  0
 18 12  1  0
 19 18  2  0
 21 20  1  1
 21 23  1  0
 22 21  1  0
 23 25  1  0
 23 24  1  1
 24 18  1  0
 25 27  1  0
 26 25  2  0
M  END
$$$$
