HKV.pdb
     RDKit          3D

 27 27  0  0  1  0  0  0  0  0999 V2000
   21.4196  -18.1170  -17.6181 N   0  0  0  0  0  0  0  0  0  0  0  0
   22.2100  -17.5266  -16.5700 C   0  0  1  0  0  0  0  0  0  0  0  0
   21.3537  -17.2272  -15.3425 C   0  0  0  0  0  0  0  0  0  0  0  0
   20.3849  -16.1546  -15.6938 C   0  0  0  0  0  0  0  0  0  0  0  0
   20.6490  -14.8051  -15.6782 C   0  0  0  0  0  0  0  0  0  0  0  0
   19.5553  -14.1162  -16.0492 N   0  0  0  0  0  0  0  0  0  0  0  0
   18.6072  -15.0637  -16.2955 C   0  0  0  0  0  0  0  0  0  0  0  0
   19.1198  -16.2834  -16.0778 N   0  0  0  0  0  0  0  0  0  0  0  0
   23.2709  -18.4572  -16.1285 C   0  0  0  0  0  0  0  0  0  0  0  0
   22.9444  -19.4955  -15.5145 O   0  0  0  0  0  0  0  0  0  0  0  0
   24.6295  -18.1479  -16.4127 N   0  0  0  0  0  0  0  0  0  0  0  0
   25.6867  -19.0360  -16.0809 C   0  0  1  0  0  0  0  0  0  0  0  0
   26.9454  -18.7593  -16.8302 C   0  0  0  0  0  0  0  0  0  0  0  0
   28.1069  -19.6400  -16.6298 C   0  0  0  0  0  0  0  0  0  0  0  0
   27.8974  -21.0701  -17.0268 C   0  0  0  0  0  0  0  0  0  0  0  0
   29.1496  -21.9007  -16.7192 C   0  0  0  0  0  0  0  0  0  0  0  0
   28.8439  -23.2671  -17.0346 N   0  0  0  0  0  0  0  0  0  0  0  0
   25.9647  -18.9325  -14.5953 C   0  0  0  0  0  0  0  0  0  0  0  0
   26.2246  -17.8112  -14.0702 O   0  0  0  0  0  0  0  0  0  0  0  0
   25.5997  -22.2616  -11.9909 C   0  0  0  0  0  0  0  0  0  0  0  0
   25.5163  -20.8349  -11.4902 C   0  0  1  0  0  0  0  0  0  0  0  0
   25.9132  -20.7443  -10.0359 C   0  0  0  0  0  0  0  0  0  0  0  0
   26.3865  -19.9678  -12.3743 C   0  0  2  0  0  0  0  0  0  0  0  0
   25.9428  -20.0665  -13.7631 N   0  0  0  0  0  0  0  0  0  0  0  0
   27.7811  -20.4582  -12.2249 C   0  0  0  0  0  0  0  0  0  0  0  0
   28.3374  -21.2225  -13.0210 O   0  0  0  0  0  0  0  0  0  0  0  0
   28.5003  -20.0285  -11.1206 O   0  0  0  0  0  0  0  0  0  0  0  0
  2  1  1  6
  2  3  1  0
  4  5  2  0
  4  3  1  0
  6  5  1  0
  7  8  2  0
  7  6  1  0
  8  4  1  0
  9  2  1  0
  9 11  1  0
 10  9  2  0
 12 11  1  0
 12 13  1  6
 13 14  1  0
 14 15  1  0
 16 15  1  0
 16 17  1  0
 18 12  1  0
 19 18  2  0
 21 20  1  6
 21 23  1  0
 22 21  1  0
 23 25  1  0
 23 24  1  6
 24 18  1  0
 25 27  1  0
 26 25  2  0
M  END
$$$$
