HKV.pdb
     RDKit          3D

 27 27  0  0  1  0  0  0  0  0999 V2000
   29.4912  -22.9611  -17.3768 N   0  0  0  0  0  0  0  0  0  0  0  0
   28.1543  -23.2955  -16.9610 C   0  0  1  0  0  0  0  0  0  0  0  0
   28.1582  -24.5046  -16.0294 C   0  0  0  0  0  0  0  0  0  0  0  0
   27.7273  -25.6985  -16.8049 C   0  0  0  0  0  0  0  0  0  0  0  0
   28.3618  -26.1981  -17.9179 C   0  0  0  0  0  0  0  0  0  0  0  0
   27.7110  -27.2836  -18.3723 N   0  0  0  0  0  0  0  0  0  0  0  0
   26.6602  -27.4484  -17.5202 C   0  0  0  0  0  0  0  0  0  0  0  0
   26.6828  -26.4890  -16.5838 N   0  0  0  0  0  0  0  0  0  0  0  0
   27.5487  -22.1798  -16.2028 C   0  0  0  0  0  0  0  0  0  0  0  0
   28.2762  -21.4988  -15.4487 O   0  0  0  0  0  0  0  0  0  0  0  0
   26.1600  -21.9117  -16.3506 N   0  0  0  0  0  0  0  0  0  0  0  0
   25.5259  -20.8394  -15.6691 C   0  0  1  0  0  0  0  0  0  0  0  0
   24.5373  -20.1083  -16.5120 C   0  0  0  0  0  0  0  0  0  0  0  0
   23.7629  -19.0080  -15.9167 C   0  0  0  0  0  0  0  0  0  0  0  0
   22.8149  -18.3184  -16.8508 C   0  0  0  0  0  0  0  0  0  0  0  0
   22.1756  -17.1041  -16.1658 C   0  0  0  0  0  0  0  0  0  0  0  0
   21.2909  -16.4938  -17.1170 N   0  0  0  0  0  0  0  0  0  0  0  0
   24.8206  -21.3864  -14.4450 C   0  0  0  0  0  0  0  0  0  0  0  0
   23.9666  -22.3127  -14.5599 O   0  0  0  0  0  0  0  0  0  0  0  0
   26.5849  -21.9867  -11.0186 C   0  0  0  0  0  0  0  0  0  0  0  0
   25.2631  -21.2940  -10.7610 C   0  0  1  0  0  0  0  0  0  0  0  0
   25.4716  -19.8473  -10.3814 C   0  0  0  0  0  0  0  0  0  0  0  0
   24.3993  -21.4414  -11.9951 C   0  0  2  0  0  0  0  0  0  0  0  0
   25.0902  -20.8876  -13.1576 N   0  0  0  0  0  0  0  0  0  0  0  0
   23.1342  -20.7088  -11.7288 C   0  0  0  0  0  0  0  0  0  0  0  0
   22.8356  -19.6277  -12.2476 O   0  0  0  0  0  0  0  0  0  0  0  0
   22.2347  -21.2784  -10.8412 O   0  0  0  0  0  0  0  0  0  0  0  0
  2  1  1  1
  2  3  1  0
  4  5  2  0
  4  3  1  0
  6  5  1  0
  7  8  2  0
  7  6  1  0
  8  4  1  0
  9  2  1  0
  9 11  1  0
 10  9  2  0
 12 11  1  0
 12 13  1  6
 13 14  1  0
 14 15  1  0
 16 15  1  0
 16 17  1  0
 18 12  1  0
 19 18  2  0
 21 20  1  6
 21 23  1  0
 22 21  1  0
 23 25  1  0
 23 24  1  6
 24 18  1  0
 25 27  1  0
 26 25  2  0
M  END
$$$$
