HKV.pdb
     RDKit          3D

 27 27  0  0  1  0  0  0  0  0999 V2000
   27.5685  -20.3370  -17.5693 N   0  0  0  0  0  0  0  0  0  0  0  0
   27.1665  -19.7428  -16.3214 C   0  0  1  0  0  0  0  0  0  0  0  0
   26.5036  -18.3871  -16.5502 C   0  0  0  0  0  0  0  0  0  0  0  0
   27.5284  -17.4433  -17.0711 C   0  0  0  0  0  0  0  0  0  0  0  0
   28.8694  -17.7165  -17.2051 C   0  0  0  0  0  0  0  0  0  0  0  0
   29.5111  -16.6459  -17.7054 N   0  0  0  0  0  0  0  0  0  0  0  0
   28.5429  -15.7027  -17.8795 C   0  0  0  0  0  0  0  0  0  0  0  0
   27.3571  -16.1957  -17.4943 N   0  0  0  0  0  0  0  0  0  0  0  0
   26.1677  -20.5914  -15.6366 C   0  0  0  0  0  0  0  0  0  0  0  0
   25.2935  -21.1648  -16.3211 O   0  0  0  0  0  0  0  0  0  0  0  0
   26.2276  -20.7324  -14.2228 N   0  0  0  0  0  0  0  0  0  0  0  0
   25.3003  -21.5365  -13.5088 C   0  0  1  0  0  0  0  0  0  0  0  0
   25.7266  -21.8264  -12.1101 C   0  0  0  0  0  0  0  0  0  0  0  0
   25.4735  -20.8255  -11.0618 C   0  0  0  0  0  0  0  0  0  0  0  0
   26.0483  -21.1530   -9.7167 C   0  0  0  0  0  0  0  0  0  0  0  0
   25.7732  -20.0158   -8.7250 C   0  0  0  0  0  0  0  0  0  0  0  0
   26.4450  -20.3455   -7.5002 N   0  0  0  0  0  0  0  0  0  0  0  0
   23.9607  -20.8296  -13.4791 C   0  0  0  0  0  0  0  0  0  0  0  0
   23.8602  -19.6712  -12.9804 O   0  0  0  0  0  0  0  0  0  0  0  0
   21.8549  -19.7360  -16.1891 C   0  0  0  0  0  0  0  0  0  0  0  0
   20.9487  -20.6224  -15.3606 C   0  0  1  0  0  0  0  0  0  0  0  0
   20.7784  -21.9785  -16.0029 C   0  0  0  0  0  0  0  0  0  0  0  0
   21.5245  -20.7205  -13.9643 C   0  0  2  0  0  0  0  0  0  0  0  0
   22.8006  -21.4318  -13.9990 N   0  0  0  0  0  0  0  0  0  0  0  0
   20.5304  -21.4506  -13.1357 C   0  0  0  0  0  0  0  0  0  0  0  0
   20.6930  -22.5980  -12.7066 O   0  0  0  0  0  0  0  0  0  0  0  0
   19.3466  -20.7990  -12.8267 O   0  0  0  0  0  0  0  0  0  0  0  0
  2  1  1  6
  2  3  1  0
  4  5  2  0
  4  3  1  0
  6  5  1  0
  7  8  2  0
  7  6  1  0
  8  4  1  0
  9  2  1  0
  9 11  1  0
 10  9  2  0
 12 11  1  0
 12 13  1  1
 13 14  1  0
 14 15  1  0
 16 15  1  0
 16 17  1  0
 18 12  1  0
 19 18  2  0
 21 20  1  6
 21 23  1  0
 22 21  1  0
 23 25  1  0
 23 24  1  6
 24 18  1  0
 25 27  1  0
 26 25  2  0
M  END
$$$$
