FRH.pdb
     RDKit          3D

 33 34  0  0  1  0  0  0  0  0999 V2000
    6.0962  -16.9216   25.1670 N   0  0  0  0  0  0  0  0  0  0  0  0
    6.6234  -15.6827   24.6510 C   0  0  1  0  0  0  0  0  0  0  0  0
    7.5692  -14.9798   25.5764 C   0  0  0  0  0  0  0  0  0  0  0  0
    7.0183  -13.7703   26.2221 C   0  0  0  0  0  0  0  0  0  0  0  0
    5.7302  -13.3127   26.0497 C   0  0  0  0  0  0  0  0  0  0  0  0
    5.2628  -12.1674   26.6833 C   0  0  0  0  0  0  0  0  0  0  0  0
    6.0966  -11.4459   27.5177 C   0  0  0  0  0  0  0  0  0  0  0  0
    7.3842  -11.8901   27.6979 C   0  0  0  0  0  0  0  0  0  0  0  0
    7.8411  -13.0260   27.0681 C   0  0  0  0  0  0  0  0  0  0  0  0
    7.3675  -15.9897   23.4041 C   0  0  0  0  0  0  0  0  0  0  0  0
    7.9949  -17.0761   23.3108 O   0  0  0  0  0  0  0  0  0  0  0  0
    8.9575  -15.5949   16.1054 N   0  0  0  0  0  0  0  0  0  0  0  0
    8.1597  -14.4438   15.8748 C   0  0  0  0  0  0  0  0  0  0  0  0
    8.2701  -13.8407   14.7217 N   0  0  0  0  0  0  0  0  0  0  0  0
    7.2877  -13.9932   16.8809 N   0  0  0  0  0  0  0  0  0  0  0  0
    7.8270  -13.4331   18.0811 C   0  0  0  0  0  0  0  0  0  0  0  0
    8.5737  -14.4835   18.9073 C   0  0  0  0  0  0  0  0  0  0  0  0
    8.5180  -14.0404   20.3104 C   0  0  0  0  0  0  0  0  0  0  0  0
    8.5645  -14.9648   21.4188 C   0  0  2  0  0  0  0  0  0  0  0  0
    7.4252  -15.1205   22.2845 N   0  0  0  0  0  0  0  0  0  0  0  0
    9.8523  -15.1077   22.1806 C   0  0  0  0  0  0  0  0  0  0  0  0
   10.1001  -14.3808   23.1812 O   0  0  0  0  0  0  0  0  0  0  0  0
    7.6695  -13.0260   14.4946 N   0  0  0  0  0  0  0  0  0  0  0  0
   10.8414  -16.0421   21.8360 C   0  0  2  0  0  0  0  0  0  0  0  0
   11.6800  -16.7291   22.8610 C   0  0  0  0  0  0  0  0  0  0  0  0
   10.7995  -17.2495   23.9389 C   0  0  0  0  0  0  0  0  0  0  0  0
   11.5482  -18.0549   24.9173 C   0  0  0  0  0  0  0  0  0  0  0  0
   12.9340  -18.2781   24.8032 N   0  0  0  0  0  0  0  0  0  0  0  0
   13.3012  -19.0496   25.8335 C   0  0  0  0  0  0  0  0  0  0  0  0
   12.2314  -19.3328   26.5991 N   0  0  0  0  0  0  0  0  0  0  0  0
   11.1993  -18.7129   26.0091 C   0  0  0  0  0  0  0  0  0  0  0  0
   12.5482  -17.6937   22.1854 O   0  0  0  0  0  0  0  0  0  0  0  0
   13.1155  -18.6094   22.8728 O   0  0  0  0  0  0  0  0  0  0  0  0
  2  1  1  1
  2 10  1  0
  2  3  1  0
  3  4  1  0
  4  5  2  0
  5  6  1  0
  7  6  2  0
  8  7  1  0
  9  4  1  0
  9  8  2  0
 10 11  2  0
 13 15  1  0
 13 12  1  0
 14 13  2  0
 16 15  1  0
 16 17  1  0
 18 17  1  0
 19 18  1  1
 20 19  1  0
 20 10  1  0
 21 19  1  0
 22 21  2  0
 23 21  1  0
 24 31  1  0
 24 23  1  0
 24 25  1  1
 25 26  1  0
 26 30  1  0
 26 27  2  0
 27 28  1  0
 29 28  1  0
 30 29  2  0
 31 33  1  0
 32 31  2  0
M  END
$$$$
