FRH.pdb
     RDKit          3D

 33 34  0  0  1  0  0  0  0  0999 V2000
    6.2699  -16.5873   25.8493 N   0  0  0  0  0  0  0  0  0  0  0  0
    6.8875  -15.6747   24.9192 C   0  0  1  0  0  0  0  0  0  0  0  0
    7.8477  -14.7096   25.5448 C   0  0  0  0  0  0  0  0  0  0  0  0
    7.2140  -13.5820   26.2591 C   0  0  0  0  0  0  0  0  0  0  0  0
    7.8592  -12.7757   27.1711 C   0  0  0  0  0  0  0  0  0  0  0  0
    7.2142  -11.7261   27.8145 C   0  0  0  0  0  0  0  0  0  0  0  0
    5.8831  -11.4618   27.5492 C   0  0  0  0  0  0  0  0  0  0  0  0
    5.2268  -12.2587   26.6426 C   0  0  0  0  0  0  0  0  0  0  0  0
    5.8716  -13.2964   26.0078 C   0  0  0  0  0  0  0  0  0  0  0  0
    7.6470  -16.4791   23.9298 C   0  0  0  0  0  0  0  0  0  0  0  0
    8.1927  -17.5522   24.2945 O   0  0  0  0  0  0  0  0  0  0  0  0
    8.1587  -15.0578   15.2630 N   0  0  0  0  0  0  0  0  0  0  0  0
    8.3368  -13.9302   16.1065 C   0  0  0  0  0  0  0  0  0  0  0  0
    8.7166  -12.8071   15.5587 N   0  0  0  0  0  0  0  0  0  0  0  0
    8.1035  -14.0547   17.4870 N   0  0  0  0  0  0  0  0  0  0  0  0
    8.6061  -15.1967   18.1858 C   0  0  0  0  0  0  0  0  0  0  0  0
    8.2760  -15.1339   19.6793 C   0  0  0  0  0  0  0  0  0  0  0  0
    8.7785  -16.3810   20.2795 C   0  0  0  0  0  0  0  0  0  0  0  0
    8.8628  -16.5761   21.7079 C   0  0  2  0  0  0  0  0  0  0  0  0
    7.8078  -16.1109   22.5693 N   0  0  0  0  0  0  0  0  0  0  0  0
   10.2054  -16.4485   22.3715 C   0  0  0  0  0  0  0  0  0  0  0  0
   10.5767  -15.3570   22.8833 O   0  0  0  0  0  0  0  0  0  0  0  0
    8.9191  -11.9771   16.1470 N   0  0  0  0  0  0  0  0  0  0  0  0
   11.1134  -17.5148   22.4649 C   0  0  1  0  0  0  0  0  0  0  0  0
   12.5250  -17.3227   22.9078 C   0  0  0  0  0  0  0  0  0  0  0  0
   12.9861  -18.5507   23.6058 C   0  0  0  0  0  0  0  0  0  0  0  0
   12.3137  -18.7291   24.9030 C   0  0  0  0  0  0  0  0  0  0  0  0
   12.0810  -17.6541   25.7825 N   0  0  0  0  0  0  0  0  0  0  0  0
   11.4684  -18.1484   26.8651 C   0  0  0  0  0  0  0  0  0  0  0  0
   11.2963  -19.4761   26.7292 N   0  0  0  0  0  0  0  0  0  0  0  0
   11.8202  -19.7807   25.5331 C   0  0  0  0  0  0  0  0  0  0  0  0
   13.3167  -16.8686   21.7641 O   0  0  0  0  0  0  0  0  0  0  0  0
   12.8120  -16.9339   20.5920 O   0  0  0  0  0  0  0  0  0  0  0  0
  2  1  1  1
  2 10  1  0
  2  3  1  0
  3  4  1  0
  4  5  2  0
  5  6  1  0
  7  6  2  0
  8  7  1  0
  9  4  1  0
  9  8  2  0
 10 11  2  0
 13 15  1  0
 13 12  1  0
 14 13  2  0
 16 15  1  0
 16 17  1  0
 18 17  1  0
 19 18  1  6
 20 19  1  0
 20 10  1  0
 21 19  1  0
 22 21  2  0
 23 21  1  0
 24 31  1  0
 24 23  1  0
 24 25  1  1
 25 26  1  0
 26 30  1  0
 26 27  2  0
 27 28  1  0
 29 28  1  0
 30 29  2  0
 31 33  1  0
 32 31  2  0
M  END
$$$$
