FRH.pdb
     RDKit          3D

 33 34  0  0  1  0  0  0  0  0999 V2000
    5.7884  -16.2490   25.3717 N   0  0  0  0  0  0  0  0  0  0  0  0
    6.8544  -15.6148   24.6364 C   0  0  1  0  0  0  0  0  0  0  0  0
    7.8200  -14.8463   25.4860 C   0  0  0  0  0  0  0  0  0  0  0  0
    7.2184  -13.7414   26.2609 C   0  0  0  0  0  0  0  0  0  0  0  0
    6.8876  -13.8157   27.5963 C   0  0  0  0  0  0  0  0  0  0  0  0
    6.3239  -12.7437   28.2779 C   0  0  0  0  0  0  0  0  0  0  0  0
    6.0765  -11.5539   27.6182 C   0  0  0  0  0  0  0  0  0  0  0  0
    6.4003  -11.4660   26.2858 C   0  0  0  0  0  0  0  0  0  0  0  0
    6.9594  -12.5313   25.6164 C   0  0  0  0  0  0  0  0  0  0  0  0
    7.6222  -16.6778   23.9413 C   0  0  0  0  0  0  0  0  0  0  0  0
    7.0122  -17.6699   23.4659 O   0  0  0  0  0  0  0  0  0  0  0  0
    6.8609  -12.6788   18.0191 N   0  0  0  0  0  0  0  0  0  0  0  0
    7.8491  -13.5645   17.5153 C   0  0  0  0  0  0  0  0  0  0  0  0
    7.8612  -13.8056   16.2318 N   0  0  0  0  0  0  0  0  0  0  0  0
    8.7715  -14.1483   18.4008 N   0  0  0  0  0  0  0  0  0  0  0  0
    8.7053  -13.8342   19.7944 C   0  0  0  0  0  0  0  0  0  0  0  0
    9.7717  -14.5877   20.5933 C   0  0  0  0  0  0  0  0  0  0  0  0
    9.0972  -15.1597   21.7705 C   0  0  0  0  0  0  0  0  0  0  0  0
    9.7163  -16.1570   22.6116 C   0  0  2  0  0  0  0  0  0  0  0  0
    9.0309  -16.6545   23.7753 N   0  0  0  0  0  0  0  0  0  0  0  0
   11.1994  -16.0803   22.8430 C   0  0  0  0  0  0  0  0  0  0  0  0
   11.7051  -15.1399   23.5145 O   0  0  0  0  0  0  0  0  0  0  0  0
    8.5859  -14.4225   15.8194 N   0  0  0  0  0  0  0  0  0  0  0  0
   12.0993  -17.0324   22.3390 C   0  0  1  0  0  0  0  0  0  0  0  0
   13.5745  -16.9112   22.5252 C   0  0  0  0  0  0  0  0  0  0  0  0
   13.9877  -15.5145   22.2311 C   0  0  0  0  0  0  0  0  0  0  0  0
   14.1160  -15.2738   20.7847 C   0  0  0  0  0  0  0  0  0  0  0  0
   13.6900  -16.2135   19.8262 N   0  0  0  0  0  0  0  0  0  0  0  0
   13.9548  -15.7011   18.6183 C   0  0  0  0  0  0  0  0  0  0  0  0
   14.5250  -14.4892   18.7487 N   0  0  0  0  0  0  0  0  0  0  0  0
   14.6018  -14.2740   20.0699 C   0  0  0  0  0  0  0  0  0  0  0  0
   13.9260  -17.4476   23.8404 O   0  0  0  0  0  0  0  0  0  0  0  0
   13.0007  -17.6494   24.6983 O   0  0  0  0  0  0  0  0  0  0  0  0
  2  1  1  1
  2 10  1  0
  2  3  1  0
  3  4  1  0
  4  5  2  0
  5  6  1  0
  7  6  2  0
  8  7  1  0
  9  4  1  0
  9  8  2  0
 10 11  2  0
 13 15  1  0
 13 12  1  0
 14 13  2  0
 16 15  1  0
 16 17  1  0
 18 17  1  0
 19 18  1  1
 20 19  1  0
 20 10  1  0
 21 19  1  0
 22 21  2  0
 23 21  1  0
 24 31  1  0
 24 23  1  0
 24 25  1  6
 25 26  1  0
 26 30  1  0
 26 27  2  0
 27 28  1  0
 29 28  1  0
 30 29  2  0
 31 33  1  0
 32 31  2  0
M  END
$$$$
