FRH.pdb
     RDKit          3D

 33 34  0  0  1  0  0  0  0  0999 V2000
    6.4880  -16.1020   25.9329 N   0  0  0  0  0  0  0  0  0  0  0  0
    6.7593  -15.2029   24.8387 C   0  0  1  0  0  0  0  0  0  0  0  0
    7.6545  -14.0539   25.1896 C   0  0  0  0  0  0  0  0  0  0  0  0
    7.0667  -13.0763   26.1287 C   0  0  0  0  0  0  0  0  0  0  0  0
    5.7207  -12.7976   26.2226 C   0  0  0  0  0  0  0  0  0  0  0  0
    5.2207  -11.8676   27.1263 C   0  0  0  0  0  0  0  0  0  0  0  0
    6.0800  -11.1864   27.9688 C   0  0  0  0  0  0  0  0  0  0  0  0
    7.4251  -11.4535   27.8853 C   0  0  0  0  0  0  0  0  0  0  0  0
    7.9141  -12.3767   26.9885 C   0  0  0  0  0  0  0  0  0  0  0  0
    7.4322  -15.9800   23.7681 C   0  0  0  0  0  0  0  0  0  0  0  0
    7.9999  -17.0650   24.0562 O   0  0  0  0  0  0  0  0  0  0  0  0
    9.7852  -15.4315   15.7077 N   0  0  0  0  0  0  0  0  0  0  0  0
    8.7281  -14.6837   16.2892 C   0  0  0  0  0  0  0  0  0  0  0  0
    8.5913  -13.4345   15.9337 N   0  0  0  0  0  0  0  0  0  0  0  0
    7.8727  -15.3013   17.2180 N   0  0  0  0  0  0  0  0  0  0  0  0
    8.2509  -16.5515   17.8004 C   0  0  0  0  0  0  0  0  0  0  0  0
    9.1492  -16.3544   19.0242 C   0  0  0  0  0  0  0  0  0  0  0  0
    8.3248  -15.7065   20.0579 C   0  0  0  0  0  0  0  0  0  0  0  0
    8.4943  -15.9744   21.4668 C   0  0  2  0  0  0  0  0  0  0  0  0
    7.4847  -15.5724   22.4104 N   0  0  0  0  0  0  0  0  0  0  0  0
    9.8712  -15.8594   22.0585 C   0  0  0  0  0  0  0  0  0  0  0  0
   10.5091  -14.7722   22.0147 O   0  0  0  0  0  0  0  0  0  0  0  0
    7.8429  -12.8485   16.3490 N   0  0  0  0  0  0  0  0  0  0  0  0
   10.5219  -16.9323   22.6877 C   0  0  1  0  0  0  0  0  0  0  0  0
   11.2202  -16.7829   23.9976 C   0  0  0  0  0  0  0  0  0  0  0  0
   10.2759  -16.2030   24.9876 C   0  0  0  0  0  0  0  0  0  0  0  0
   10.9274  -15.9485   26.2827 C   0  0  0  0  0  0  0  0  0  0  0  0
   12.2845  -16.2463   26.5122 N   0  0  0  0  0  0  0  0  0  0  0  0
   12.5594  -15.9101   27.7783 C   0  0  0  0  0  0  0  0  0  0  0  0
   11.4575  -15.4150   28.3714 N   0  0  0  0  0  0  0  0  0  0  0  0
   10.5007  -15.4573   27.4330 C   0  0  0  0  0  0  0  0  0  0  0  0
   11.8469  -18.0593   24.3422 O   0  0  0  0  0  0  0  0  0  0  0  0
   11.3134  -19.1458   23.9325 O   0  0  0  0  0  0  0  0  0  0  0  0
  2  1  1  1
  2 10  1  0
  2  3  1  0
  3  4  1  0
  4  5  2  0
  5  6  1  0
  7  6  2  0
  8  7  1  0
  9  4  1  0
  9  8  2  0
 10 11  2  0
 13 15  1  0
 13 12  1  0
 14 13  2  0
 16 15  1  0
 16 17  1  0
 18 17  1  0
 19 18  1  6
 20 19  1  0
 20 10  1  0
 21 19  1  0
 22 21  2  0
 23 21  1  0
 24 31  1  0
 24 23  1  0
 24 25  1  6
 25 26  1  0
 26 30  1  0
 26 27  2  0
 27 28  1  0
 29 28  1  0
 30 29  2  0
 31 33  1  0
 32 31  2  0
M  END
$$$$
