FRH.pdb
     RDKit          3D

 33 34  0  0  1  0  0  0  0  0999 V2000
    6.8612  -16.0963   26.0314 N   0  0  0  0  0  0  0  0  0  0  0  0
    7.1604  -15.3220   24.8523 C   0  0  1  0  0  0  0  0  0  0  0  0
    7.8681  -14.0296   25.1240 C   0  0  0  0  0  0  0  0  0  0  0  0
    7.0871  -13.0495   25.9066 C   0  0  0  0  0  0  0  0  0  0  0  0
    7.5016  -12.4955   27.0981 C   0  0  0  0  0  0  0  0  0  0  0  0
    6.7261  -11.5755   27.7937 C   0  0  0  0  0  0  0  0  0  0  0  0
    5.4957  -11.1874   27.2963 C   0  0  0  0  0  0  0  0  0  0  0  0
    5.0690  -11.7328   26.1096 C   0  0  0  0  0  0  0  0  0  0  0  0
    5.8423  -12.6431   25.4247 C   0  0  0  0  0  0  0  0  0  0  0  0
    8.0445  -16.1390   23.9842 C   0  0  0  0  0  0  0  0  0  0  0  0
    8.6610  -17.1182   24.4778 O   0  0  0  0  0  0  0  0  0  0  0  0
    8.4678  -12.4221   17.2195 N   0  0  0  0  0  0  0  0  0  0  0  0
    8.6096  -13.7598   17.6724 C   0  0  0  0  0  0  0  0  0  0  0  0
    9.7913  -14.3112   17.5995 N   0  0  0  0  0  0  0  0  0  0  0  0
    7.4892  -14.4419   18.1778 N   0  0  0  0  0  0  0  0  0  0  0  0
    7.5179  -14.9494   19.5145 C   0  0  0  0  0  0  0  0  0  0  0  0
    8.1314  -16.3507   19.5722 C   0  0  0  0  0  0  0  0  0  0  0  0
    9.3529  -16.2477   20.3880 C   0  0  0  0  0  0  0  0  0  0  0  0
    9.3431  -16.4032   21.8236 C   0  0  2  0  0  0  0  0  0  0  0  0
    8.2510  -15.8840   22.6041 N   0  0  0  0  0  0  0  0  0  0  0  0
   10.6452  -16.2936   22.5662 C   0  0  0  0  0  0  0  0  0  0  0  0
   10.9629  -15.2319   23.1686 O   0  0  0  0  0  0  0  0  0  0  0  0
    9.9305  -15.2969   17.8908 N   0  0  0  0  0  0  0  0  0  0  0  0
   11.5721  -17.3452   22.6379 C   0  0  2  0  0  0  0  0  0  0  0  0
   12.8960  -17.1959   23.3094 C   0  0  0  0  0  0  0  0  0  0  0  0
   13.2855  -18.4983   23.9093 C   0  0  0  0  0  0  0  0  0  0  0  0
   12.3869  -18.8861   25.0087 C   0  0  0  0  0  0  0  0  0  0  0  0
   11.8705  -17.9479   25.9232 N   0  0  0  0  0  0  0  0  0  0  0  0
   11.1063  -18.6174   26.7947 C   0  0  0  0  0  0  0  0  0  0  0  0
   11.1043  -19.9284   26.4909 N   0  0  0  0  0  0  0  0  0  0  0  0
   11.8881  -20.0426   25.4091 C   0  0  0  0  0  0  0  0  0  0  0  0
   13.8344  -16.5897   22.3645 O   0  0  0  0  0  0  0  0  0  0  0  0
   13.4579  -16.3782   21.1619 O   0  0  0  0  0  0  0  0  0  0  0  0
  2  1  1  1
  2 10  1  0
  2  3  1  0
  3  4  1  0
  4  5  2  0
  5  6  1  0
  7  6  2  0
  8  7  1  0
  9  4  1  0
  9  8  2  0
 10 11  2  0
 13 15  1  0
 13 12  1  0
 14 13  2  0
 16 15  1  0
 16 17  1  0
 18 17  1  0
 19 18  1  6
 20 19  1  0
 20 10  1  0
 21 19  1  0
 22 21  2  0
 23 21  1  0
 24 31  1  0
 24 23  1  0
 24 25  1  1
 25 26  1  0
 26 30  1  0
 26 27  2  0
 27 28  1  0
 29 28  1  0
 30 29  2  0
 31 33  1  0
 32 31  2  0
M  END
$$$$
