FRH.pdb
     RDKit          3D

 33 34  0  0  1  0  0  0  0  0999 V2000
    6.0830  -17.4044   25.8141 N   0  0  0  0  0  0  0  0  0  0  0  0
    6.4430  -16.1101   25.2901 C   0  0  1  0  0  0  0  0  0  0  0  0
    7.1945  -15.2407   26.2515 C   0  0  0  0  0  0  0  0  0  0  0  0
    6.6286  -13.8881   26.4345 C   0  0  0  0  0  0  0  0  0  0  0  0
    6.1242  -13.1097   25.4157 C   0  0  0  0  0  0  0  0  0  0  0  0
    5.6018  -11.8423   25.6445 C   0  0  0  0  0  0  0  0  0  0  0  0
    5.5762  -11.3225   26.9256 C   0  0  0  0  0  0  0  0  0  0  0  0
    6.0770  -12.0873   27.9512 C   0  0  0  0  0  0  0  0  0  0  0  0
    6.5923  -13.3426   27.7182 C   0  0  0  0  0  0  0  0  0  0  0  0
    7.3157  -16.3246   24.1090 C   0  0  0  0  0  0  0  0  0  0  0  0
    7.9378  -17.4115   23.9901 O   0  0  0  0  0  0  0  0  0  0  0  0
   10.1586  -13.5760   16.3010 N   0  0  0  0  0  0  0  0  0  0  0  0
    8.7537  -13.7578   16.3908 C   0  0  0  0  0  0  0  0  0  0  0  0
    8.1082  -14.1014   15.3087 N   0  0  0  0  0  0  0  0  0  0  0  0
    8.1082  -13.5642   17.6243 N   0  0  0  0  0  0  0  0  0  0  0  0
    8.8205  -13.8149   18.8388 C   0  0  0  0  0  0  0  0  0  0  0  0
    8.5576  -15.2282   19.3648 C   0  0  0  0  0  0  0  0  0  0  0  0
    7.7900  -15.0824   20.6128 C   0  0  0  0  0  0  0  0  0  0  0  0
    8.2682  -15.5806   21.8811 C   0  0  2  0  0  0  0  0  0  0  0  0
    7.5050  -15.3644   23.0821 N   0  0  0  0  0  0  0  0  0  0  0  0
    9.7449  -15.5385   22.1579 C   0  0  0  0  0  0  0  0  0  0  0  0
   10.4442  -14.5487   21.8080 O   0  0  0  0  0  0  0  0  0  0  0  0
    7.0789  -14.2276   15.3281 N   0  0  0  0  0  0  0  0  0  0  0  0
   10.4271  -16.5759   22.8125 C   0  0  1  0  0  0  0  0  0  0  0  0
   11.0416  -16.3992   24.1604 C   0  0  0  0  0  0  0  0  0  0  0  0
   10.0845  -15.6788   25.0395 C   0  0  0  0  0  0  0  0  0  0  0  0
   10.6478  -15.4314   26.3767 C   0  0  0  0  0  0  0  0  0  0  0  0
   11.9608  -15.8075   26.7200 N   0  0  0  0  0  0  0  0  0  0  0  0
   12.1569  -15.4558   27.9965 C   0  0  0  0  0  0  0  0  0  0  0  0
   11.0462  -14.8772   28.4891 N   0  0  0  0  0  0  0  0  0  0  0  0
   10.1650  -14.8843   27.4786 C   0  0  0  0  0  0  0  0  0  0  0  0
   11.5280  -17.6978   24.6271 O   0  0  0  0  0  0  0  0  0  0  0  0
   12.2230  -17.7545   25.6979 O   0  0  0  0  0  0  0  0  0  0  0  0
  2  1  1  1
  2 10  1  0
  2  3  1  0
  3  4  1  0
  4  5  2  0
  5  6  1  0
  7  6  2  0
  8  7  1  0
  9  4  1  0
  9  8  2  0
 10 11  2  0
 13 15  1  0
 13 12  1  0
 14 13  2  0
 16 15  1  0
 16 17  1  0
 18 17  1  0
 19 18  1  6
 20 19  1  0
 20 10  1  0
 21 19  1  0
 22 21  2  0
 23 21  1  0
 24 31  1  0
 24 23  1  0
 24 25  1  6
 25 26  1  0
 26 30  1  0
 26 27  2  0
 27 28  1  0
 29 28  1  0
 30 29  2  0
 31 33  1  0
 32 31  2  0
M  END
$$$$
