FRH.pdb
     RDKit          3D

 33 34  0  0  1  0  0  0  0  0999 V2000
    6.5818  -16.3093   25.7380 N   0  0  0  0  0  0  0  0  0  0  0  0
    7.0372  -15.4662   24.6604 C   0  0  1  0  0  0  0  0  0  0  0  0
    7.9480  -14.3555   25.0866 C   0  0  0  0  0  0  0  0  0  0  0  0
    7.3327  -13.3650   25.9941 C   0  0  0  0  0  0  0  0  0  0  0  0
    8.0302  -12.6084   26.9104 C   0  0  0  0  0  0  0  0  0  0  0  0
    7.4003  -11.6887   27.7404 C   0  0  0  0  0  0  0  0  0  0  0  0
    6.0314  -11.5084   27.6647 C   0  0  0  0  0  0  0  0  0  0  0  0
    5.3230  -12.2571   26.7563 C   0  0  0  0  0  0  0  0  0  0  0  0
    5.9529  -13.1660   25.9361 C   0  0  0  0  0  0  0  0  0  0  0  0
    7.7900  -16.3166   23.7050 C   0  0  0  0  0  0  0  0  0  0  0  0
    8.2183  -17.4380   24.0812 O   0  0  0  0  0  0  0  0  0  0  0  0
    9.1922  -14.9577   15.2732 N   0  0  0  0  0  0  0  0  0  0  0  0
    8.2679  -14.1533   15.9898 C   0  0  0  0  0  0  0  0  0  0  0  0
    7.9666  -12.9802   15.5012 N   0  0  0  0  0  0  0  0  0  0  0  0
    7.7131  -14.6363   17.1876 N   0  0  0  0  0  0  0  0  0  0  0  0
    8.4338  -15.6016   17.9583 C   0  0  0  0  0  0  0  0  0  0  0  0
    8.4528  -15.2357   19.4446 C   0  0  0  0  0  0  0  0  0  0  0  0
    9.1519  -16.3272   20.1432 C   0  0  0  0  0  0  0  0  0  0  0  0
    9.1698  -16.4417   21.5826 C   0  0  2  0  0  0  0  0  0  0  0  0
    8.0707  -15.9420   22.3659 N   0  0  0  0  0  0  0  0  0  0  0  0
   10.4780  -16.2616   22.3005 C   0  0  0  0  0  0  0  0  0  0  0  0
   10.8763  -15.1166   22.6490 O   0  0  0  0  0  0  0  0  0  0  0  0
    7.3324  -12.3425   16.0179 N   0  0  0  0  0  0  0  0  0  0  0  0
   11.3228  -17.3344   22.6252 C   0  0  1  0  0  0  0  0  0  0  0  0
   11.8160  -17.5682   24.0136 C   0  0  0  0  0  0  0  0  0  0  0  0
   10.6529  -17.6467   24.9350 C   0  0  0  0  0  0  0  0  0  0  0  0
   11.0660  -17.9522   26.3144 C   0  0  0  0  0  0  0  0  0  0  0  0
   12.4138  -18.1577   26.6668 N   0  0  0  0  0  0  0  0  0  0  0  0
   12.4485  -18.4233   27.9783 C   0  0  0  0  0  0  0  0  0  0  0  0
   11.2019  -18.3997   28.4845 N   0  0  0  0  0  0  0  0  0  0  0  0
   10.4033  -18.1120   27.4466 C   0  0  0  0  0  0  0  0  0  0  0  0
   12.7331  -18.7082   23.9989 O   0  0  0  0  0  0  0  0  0  0  0  0
   12.5173  -19.6707   23.1866 O   0  0  0  0  0  0  0  0  0  0  0  0
  2  1  1  1
  2 10  1  0
  2  3  1  0
  3  4  1  0
  4  5  2  0
  5  6  1  0
  7  6  2  0
  8  7  1  0
  9  4  1  0
  9  8  2  0
 10 11  2  0
 13 15  1  0
 13 12  1  0
 14 13  2  0
 16 15  1  0
 16 17  1  0
 18 17  1  0
 19 18  1  6
 20 19  1  0
 20 10  1  0
 21 19  1  0
 22 21  2  0
 23 21  1  0
 24 31  1  0
 24 23  1  0
 24 25  1  1
 25 26  1  0
 26 30  1  0
 26 27  2  0
 27 28  1  0
 29 28  1  0
 30 29  2  0
 31 33  1  0
 32 31  2  0
M  END
$$$$
