FRH.pdb
     RDKit          3D

 33 34  0  0  1  0  0  0  0  0999 V2000
    6.0515  -17.8757   26.2827 N   0  0  0  0  0  0  0  0  0  0  0  0
    6.2190  -16.4777   25.9717 C   0  0  1  0  0  0  0  0  0  0  0  0
    6.4781  -15.6058   27.1623 C   0  0  0  0  0  0  0  0  0  0  0  0
    6.4431  -14.1548   26.8856 C   0  0  0  0  0  0  0  0  0  0  0  0
    7.5598  -13.3562   26.7694 C   0  0  0  0  0  0  0  0  0  0  0  0
    7.4694  -11.9944   26.5068 C   0  0  0  0  0  0  0  0  0  0  0  0
    6.2316  -11.3974   26.3537 C   0  0  0  0  0  0  0  0  0  0  0  0
    5.1092  -12.1815   26.4682 C   0  0  0  0  0  0  0  0  0  0  0  0
    5.2055  -13.5303   26.7275 C   0  0  0  0  0  0  0  0  0  0  0  0
    7.3871  -16.3505   25.0649 C   0  0  0  0  0  0  0  0  0  0  0  0
    8.3977  -17.0752   25.2543 O   0  0  0  0  0  0  0  0  0  0  0  0
    7.6680  -14.7818   16.3615 N   0  0  0  0  0  0  0  0  0  0  0  0
    8.1253  -13.9154   17.3887 C   0  0  0  0  0  0  0  0  0  0  0  0
    8.8350  -12.8746   17.0439 N   0  0  0  0  0  0  0  0  0  0  0  0
    7.8061  -14.2002   18.7276 N   0  0  0  0  0  0  0  0  0  0  0  0
    8.4903  -15.2577   19.4048 C   0  0  0  0  0  0  0  0  0  0  0  0
    9.2498  -14.7435   20.6304 C   0  0  0  0  0  0  0  0  0  0  0  0
    8.2838  -14.6945   21.7406 C   0  0  0  0  0  0  0  0  0  0  0  0
    8.4746  -15.4298   22.9688 C   0  0  2  0  0  0  0  0  0  0  0  0
    7.4463  -15.4438   23.9756 N   0  0  0  0  0  0  0  0  0  0  0  0
    9.8443  -15.4507   23.5873 C   0  0  0  0  0  0  0  0  0  0  0  0
   10.2390  -14.5070   24.3254 O   0  0  0  0  0  0  0  0  0  0  0  0
    9.1626  -12.2006   17.7609 N   0  0  0  0  0  0  0  0  0  0  0  0
   10.7536  -16.5015   23.3894 C   0  0  1  0  0  0  0  0  0  0  0  0
   12.1768  -16.4168   23.8286 C   0  0  0  0  0  0  0  0  0  0  0  0
   12.3880  -17.3426   24.9715 C   0  0  0  0  0  0  0  0  0  0  0  0
   11.9466  -16.7510   26.2449 C   0  0  0  0  0  0  0  0  0  0  0  0
   11.4739  -15.4275   26.3344 N   0  0  0  0  0  0  0  0  0  0  0  0
   11.1680  -15.1978   27.6171 C   0  0  0  0  0  0  0  0  0  0  0  0
   11.4177  -16.2967   28.3526 N   0  0  0  0  0  0  0  0  0  0  0  0
   11.8846  -17.2055   27.4844 C   0  0  0  0  0  0  0  0  0  0  0  0
   13.0387  -16.5933   22.6595 O   0  0  0  0  0  0  0  0  0  0  0  0
   12.5222  -16.9846   21.5582 O   0  0  0  0  0  0  0  0  0  0  0  0
  2  1  1  1
  2 10  1  0
  2  3  1  0
  3  4  1  0
  4  5  2  0
  5  6  1  0
  7  6  2  0
  8  7  1  0
  9  4  1  0
  9  8  2  0
 10 11  2  0
 13 15  1  0
 13 12  1  0
 14 13  2  0
 16 15  1  0
 16 17  1  0
 18 17  1  0
 19 18  1  1
 20 19  1  0
 20 10  1  0
 21 19  1  0
 22 21  2  0
 23 21  1  0
 24 31  1  0
 24 23  1  0
 24 25  1  6
 25 26  1  0
 26 30  1  0
 26 27  2  0
 27 28  1  0
 29 28  1  0
 30 29  2  0
 31 33  1  0
 32 31  2  0
M  END
$$$$
