FRH.pdb
     RDKit          3D

 33 34  0  0  1  0  0  0  0  0999 V2000
    6.3018  -17.2789   26.2534 N   0  0  0  0  0  0  0  0  0  0  0  0
    6.8858  -16.1347   25.5984 C   0  0  1  0  0  0  0  0  0  0  0  0
    7.5048  -15.1378   26.5300 C   0  0  0  0  0  0  0  0  0  0  0  0
    6.9127  -13.7853   26.4708 C   0  0  0  0  0  0  0  0  0  0  0  0
    7.4618  -12.6674   27.0599 C   0  0  0  0  0  0  0  0  0  0  0  0
    6.8622  -11.4167   26.9719 C   0  0  0  0  0  0  0  0  0  0  0  0
    5.6765  -11.2623   26.2775 C   0  0  0  0  0  0  0  0  0  0  0  0
    5.1168  -12.3689   25.6859 C   0  0  0  0  0  0  0  0  0  0  0  0
    5.7162  -13.6051   25.7759 C   0  0  0  0  0  0  0  0  0  0  0  0
    7.9575  -16.6252   24.6964 C   0  0  0  0  0  0  0  0  0  0  0  0
    8.5101  -17.7294   24.9372 O   0  0  0  0  0  0  0  0  0  0  0  0
    9.2126  -13.8074   16.9136 N   0  0  0  0  0  0  0  0  0  0  0  0
    8.5348  -13.3354   18.0680 C   0  0  0  0  0  0  0  0  0  0  0  0
    8.8294  -12.1416   18.5082 N   0  0  0  0  0  0  0  0  0  0  0  0
    7.5809  -14.1559   18.6945 N   0  0  0  0  0  0  0  0  0  0  0  0
    8.0082  -15.3386   19.3756 C   0  0  0  0  0  0  0  0  0  0  0  0
    8.9327  -15.0094   20.5505 C   0  0  0  0  0  0  0  0  0  0  0  0
    9.2381  -16.2835   21.2223 C   0  0  0  0  0  0  0  0  0  0  0  0
    9.4328  -16.3814   22.6499 C   0  0  2  0  0  0  0  0  0  0  0  0
    8.4160  -15.9166   23.5563 N   0  0  0  0  0  0  0  0  0  0  0  0
   10.8091  -16.1421   23.2045 C   0  0  0  0  0  0  0  0  0  0  0  0
   11.1824  -14.9854   23.5416 O   0  0  0  0  0  0  0  0  0  0  0  0
    8.3900  -11.7773   19.3743 N   0  0  0  0  0  0  0  0  0  0  0  0
   11.7483  -17.1701   23.3817 C   0  0  1  0  0  0  0  0  0  0  0  0
   12.4258  -17.4136   24.6884 C   0  0  0  0  0  0  0  0  0  0  0  0
   11.4049  -17.7814   25.7033 C   0  0  0  0  0  0  0  0  0  0  0  0
   11.2157  -16.7163   26.7015 C   0  0  0  0  0  0  0  0  0  0  0  0
   11.8948  -15.4850   26.6240 N   0  0  0  0  0  0  0  0  0  0  0  0
   11.5140  -14.7511   27.6766 C   0  0  0  0  0  0  0  0  0  0  0  0
   10.6316  -15.4412   28.4223 N   0  0  0  0  0  0  0  0  0  0  0  0
   10.4827  -16.6178   27.7967 C   0  0  0  0  0  0  0  0  0  0  0  0
   13.5255  -18.3554   24.4770 O   0  0  0  0  0  0  0  0  0  0  0  0
   13.3609  -19.3348   23.6730 O   0  0  0  0  0  0  0  0  0  0  0  0
  2  1  1  1
  2 10  1  0
  2  3  1  0
  3  4  1  0
  4  5  2  0
  5  6  1  0
  7  6  2  0
  8  7  1  0
  9  4  1  0
  9  8  2  0
 10 11  2  0
 13 15  1  0
 13 12  1  0
 14 13  2  0
 16 15  1  0
 16 17  1  0
 18 17  1  0
 19 18  1  6
 20 19  1  0
 20 10  1  0
 21 19  1  0
 22 21  2  0
 23 21  1  0
 24 31  1  0
 24 23  1  0
 24 25  1  1
 25 26  1  0
 26 30  1  0
 26 27  2  0
 27 28  1  0
 29 28  1  0
 30 29  2  0
 31 33  1  0
 32 31  2  0
M  END
$$$$
