FRH.pdb
     RDKit          3D

 33 34  0  0  1  0  0  0  0  0999 V2000
    6.9702  -16.5962   22.3507 N   0  0  0  0  0  0  0  0  0  0  0  0
    8.3550  -16.5009   21.9600 C   0  0  1  0  0  0  0  0  0  0  0  0
    8.9444  -15.1306   22.1003 C   0  0  0  0  0  0  0  0  0  0  0  0
    8.3320  -14.1023   21.2340 C   0  0  0  0  0  0  0  0  0  0  0  0
    7.2286  -14.3118   20.4358 C   0  0  0  0  0  0  0  0  0  0  0  0
    6.6920  -13.3069   19.6397 C   0  0  0  0  0  0  0  0  0  0  0  0
    7.2648  -12.0484   19.6297 C   0  0  0  0  0  0  0  0  0  0  0  0
    8.3664  -11.8255   20.4200 C   0  0  0  0  0  0  0  0  0  0  0  0
    8.8928  -12.8249   21.2072 C   0  0  0  0  0  0  0  0  0  0  0  0
    9.1370  -17.4126   22.8318 C   0  0  0  0  0  0  0  0  0  0  0  0
    8.7375  -17.6411   24.0026 O   0  0  0  0  0  0  0  0  0  0  0  0
   14.6095  -20.9820   19.7206 N   0  0  0  0  0  0  0  0  0  0  0  0
   13.3966  -21.3417   19.0769 C   0  0  0  0  0  0  0  0  0  0  0  0
   13.3831  -21.3847   17.7716 N   0  0  0  0  0  0  0  0  0  0  0  0
   12.2620  -21.6356   19.8527 N   0  0  0  0  0  0  0  0  0  0  0  0
   12.2304  -21.2481   21.2289 C   0  0  0  0  0  0  0  0  0  0  0  0
   12.5366  -19.7583   21.4021 C   0  0  0  0  0  0  0  0  0  0  0  0
   12.3708  -19.4528   22.8330 C   0  0  0  0  0  0  0  0  0  0  0  0
   11.3350  -18.5747   23.3244 C   0  0  2  0  0  0  0  0  0  0  0  0
   10.3348  -18.0567   22.4284 N   0  0  0  0  0  0  0  0  0  0  0  0
   11.6888  -17.5715   24.3862 C   0  0  0  0  0  0  0  0  0  0  0  0
   11.6528  -16.3332   24.1487 O   0  0  0  0  0  0  0  0  0  0  0  0
   12.4957  -21.5475   17.2600 N   0  0  0  0  0  0  0  0  0  0  0  0
   12.0720  -17.9402   25.6852 C   0  0  2  0  0  0  0  0  0  0  0  0
   11.7014  -17.1337   26.8843 C   0  0  0  0  0  0  0  0  0  0  0  0
   10.6206  -16.1833   26.5149 C   0  0  0  0  0  0  0  0  0  0  0  0
   10.2542  -15.3062   27.6387 C   0  0  0  0  0  0  0  0  0  0  0  0
   10.8787  -15.3977   28.8976 N   0  0  0  0  0  0  0  0  0  0  0  0
   10.3150  -14.4793   29.6916 C   0  0  0  0  0  0  0  0  0  0  0  0
    9.3668  -13.8064   29.0141 N   0  0  0  0  0  0  0  0  0  0  0  0
    9.3660  -14.3383   27.7832 C   0  0  0  0  0  0  0  0  0  0  0  0
   11.4361  -18.0452   27.9977 O   0  0  0  0  0  0  0  0  0  0  0  0
   12.3827  -18.3326   28.8065 O   0  0  0  0  0  0  0  0  0  0  0  0
  2  1  1  1
  2 10  1  0
  2  3  1  0
  3  4  1  0
  4  5  2  0
  5  6  1  0
  7  6  2  0
  8  7  1  0
  9  4  1  0
  9  8  2  0
 10 11  2  0
 13 15  1  0
 13 12  1  0
 14 13  2  0
 16 15  1  0
 16 17  1  0
 18 17  1  0
 19 18  1  6
 20 19  1  0
 20 10  1  0
 21 19  1  0
 22 21  2  0
 23 21  1  0
 24 31  1  0
 24 23  1  0
 24 25  1  6
 25 26  1  0
 26 30  1  0
 26 27  2  0
 27 28  1  0
 29 28  1  0
 30 29  2  0
 31 33  1  0
 32 31  2  0
M  END
$$$$
