QFC.pdb
     RDKit          3D

 27 27  0  0  1  0  0  0  0  0999 V2000
   12.4919  -18.6250   17.3790 N   0  0  0  0  0  0  0  0  0  0  0  0
   11.1460  -18.6141   17.8140 C   0  0  0  0  0  0  0  0  0  0  0  0
   10.2484  -18.5193   16.9491 O   0  0  0  0  0  0  0  0  0  0  0  0
   10.8741  -18.7150   19.2464 C   0  0  0  0  0  0  0  0  0  0  0  0
   11.0018  -17.4337   20.0245 C   0  0  0  0  0  0  0  0  0  0  0  0
   10.6198  -17.6946   21.4571 C   0  0  2  0  0  0  0  0  0  0  0  0
    9.4406  -18.5392   21.4185 N   0  0  0  0  0  0  0  0  0  0  0  0
   10.2606  -16.4515   22.1823 C   0  0  0  0  0  0  0  0  0  0  0  0
   11.0965  -15.5236   22.1972 O   0  0  0  0  0  0  0  0  0  0  0  0
    9.0258  -16.2742   22.8498 N   0  0  0  0  0  0  0  0  0  0  0  0
    8.7783  -15.1369   23.7032 C   0  0  1  0  0  0  0  0  0  0  0  0
    7.3238  -15.0559   24.1176 C   0  0  0  0  0  0  0  0  0  0  0  0
    7.0603  -13.8464   24.9287 C   0  0  0  0  0  0  0  0  0  0  0  0
    7.6492  -12.6604   24.5651 C   0  0  0  0  0  0  0  0  0  0  0  0
    7.3924  -11.5365   25.3486 C   0  0  0  0  0  0  0  0  0  0  0  0
    6.5752  -11.6087   26.4520 C   0  0  0  0  0  0  0  0  0  0  0  0
    5.9926  -12.8028   26.8033 C   0  0  0  0  0  0  0  0  0  0  0  0
    6.2392  -13.9278   26.0338 C   0  0  0  0  0  0  0  0  0  0  0  0
    9.6908  -15.0883   24.8779 C   0  0  0  0  0  0  0  0  0  0  0  0
   10.5505  -14.1614   24.9911 O   0  0  0  0  0  0  0  0  0  0  0  0
    9.6674  -16.0458   25.9233 N   0  0  0  0  0  0  0  0  0  0  0  0
   10.2940  -15.8016   27.2150 C   0  0  1  0  0  0  0  0  0  0  0  0
    9.6150  -14.6530   27.9318 C   0  0  0  0  0  0  0  0  0  0  0  0
   10.3345  -14.4291   29.5789 S   0  0  0  0  0  0  0  0  0  0  0  0
   10.2702  -17.0288   28.0474 C   0  0  0  0  0  0  0  0  0  0  0  0
    9.2731  -17.7854   27.9558 O   0  0  0  0  0  0  0  0  0  0  0  0
   11.2858  -17.3720   28.9093 O   0  0  0  0  0  0  0  0  0  0  0  0
  2  4  1  0
  2  1  1  0
  3  2  2  0
  5  4  1  0
  6  5  1  0
  6  8  1  0
  6  7  1  6
  8  9  2  0
 10  8  1  0
 10 11  1  0
 11 12  1  1
 12 13  1  0
 13 14  2  0
 14 15  1  0
 16 15  2  0
 17 16  1  0
 18 13  1  0
 18 17  2  0
 19 21  1  0
 19 11  1  0
 20 19  2  0
 22 25  1  0
 22 23  1  1
 22 21  1  0
 23 24  1  0
 25 27  1  0
 26 25  2  0
M  END
$$$$
