QFC.pdb
     RDKit          3D

 27 27  0  0  1  0  0  0  0  0999 V2000
   13.0987  -16.9925   17.2900 N   0  0  0  0  0  0  0  0  0  0  0  0
   12.1355  -18.0206   17.1633 C   0  0  0  0  0  0  0  0  0  0  0  0
   12.2222  -18.7909   16.1826 O   0  0  0  0  0  0  0  0  0  0  0  0
   11.0931  -18.1304   18.1817 C   0  0  0  0  0  0  0  0  0  0  0  0
   11.2253  -17.1934   19.3513 C   0  0  0  0  0  0  0  0  0  0  0  0
   10.2739  -17.6292   20.4335 C   0  0  2  0  0  0  0  0  0  0  0  0
    8.9952  -17.8566   19.7865 N   0  0  0  0  0  0  0  0  0  0  0  0
   10.0764  -16.5844   21.4678 C   0  0  0  0  0  0  0  0  0  0  0  0
   11.0146  -15.7868   21.6766 O   0  0  0  0  0  0  0  0  0  0  0  0
    8.8846  -16.4544   22.2189 N   0  0  0  0  0  0  0  0  0  0  0  0
    8.7322  -15.4415   23.2356 C   0  0  1  0  0  0  0  0  0  0  0  0
    7.5132  -14.5782   22.9855 C   0  0  0  0  0  0  0  0  0  0  0  0
    7.5676  -13.9416   21.6505 C   0  0  0  0  0  0  0  0  0  0  0  0
    8.1726  -12.7156   21.5224 C   0  0  0  0  0  0  0  0  0  0  0  0
    8.2049  -12.1324   20.2567 C   0  0  0  0  0  0  0  0  0  0  0  0
    7.6497  -12.7619   19.1677 C   0  0  0  0  0  0  0  0  0  0  0  0
    7.0478  -13.9889   19.3115 C   0  0  0  0  0  0  0  0  0  0  0  0
    7.0083  -14.5802   20.5636 C   0  0  0  0  0  0  0  0  0  0  0  0
    8.7379  -16.0030   24.6140 C   0  0  0  0  0  0  0  0  0  0  0  0
    8.5253  -15.2556   25.6176 O   0  0  0  0  0  0  0  0  0  0  0  0
    8.9755  -17.3717   24.8972 N   0  0  0  0  0  0  0  0  0  0  0  0
    9.0242  -17.8867   26.2585 C   0  0  1  0  0  0  0  0  0  0  0  0
    7.8520  -18.8080   26.5256 C   0  0  0  0  0  0  0  0  0  0  0  0
    6.2959  -17.9786   26.1115 S   0  0  0  0  0  0  0  0  0  0  0  0
   10.3090  -18.5842   26.5075 C   0  0  0  0  0  0  0  0  0  0  0  0
   11.1591  -18.6035   25.5845 O   0  0  0  0  0  0  0  0  0  0  0  0
   10.6079  -19.2067   27.6971 O   0  0  0  0  0  0  0  0  0  0  0  0
  2  4  1  0
  2  1  1  0
  3  2  2  0
  5  4  1  0
  6  5  1  0
  6  8  1  0
  6  7  1  6
  8  9  2  0
 10  8  1  0
 10 11  1  0
 11 12  1  6
 12 13  1  0
 13 14  2  0
 14 15  1  0
 16 15  2  0
 17 16  1  0
 18 13  1  0
 18 17  2  0
 19 21  1  0
 19 11  1  0
 20 19  2  0
 22 25  1  0
 22 23  1  6
 22 21  1  0
 23 24  1  0
 25 27  1  0
 26 25  2  0
M  END
$$$$
