QFC.pdb
     RDKit          3D

 27 27  0  0  1  0  0  0  0  0999 V2000
   10.9992  -19.8198   21.7191 N   0  0  0  0  0  0  0  0  0  0  0  0
   10.2910  -20.4531   20.6712 C   0  0  0  0  0  0  0  0  0  0  0  0
   10.3896  -21.6942   20.5599 O   0  0  0  0  0  0  0  0  0  0  0  0
    9.4823  -19.6278   19.7764 C   0  0  0  0  0  0  0  0  0  0  0  0
    9.4901  -18.1519   20.0683 C   0  0  0  0  0  0  0  0  0  0  0  0
    8.2491  -17.8034   20.8460 C   0  0  2  0  0  0  0  0  0  0  0  0
    7.3418  -17.1712   19.9066 N   0  0  0  0  0  0  0  0  0  0  0  0
    8.5179  -16.8335   21.9357 C   0  0  0  0  0  0  0  0  0  0  0  0
    9.5168  -16.0924   21.8225 O   0  0  0  0  0  0  0  0  0  0  0  0
    7.7003  -16.7134   23.0840 N   0  0  0  0  0  0  0  0  0  0  0  0
    7.9663  -15.7324   24.1086 C   0  0  1  0  0  0  0  0  0  0  0  0
    6.7149  -15.3861   24.8884 C   0  0  0  0  0  0  0  0  0  0  0  0
    6.9358  -14.2204   25.7731 C   0  0  0  0  0  0  0  0  0  0  0  0
    6.7671  -12.9567   25.2628 C   0  0  0  0  0  0  0  0  0  0  0  0
    6.9880  -11.8743   26.1129 C   0  0  0  0  0  0  0  0  0  0  0  0
    7.3631  -12.0617   27.4224 C   0  0  0  0  0  0  0  0  0  0  0  0
    7.5278  -13.3325   27.9189 C   0  0  0  0  0  0  0  0  0  0  0  0
    7.3117  -14.4175   27.0853 C   0  0  0  0  0  0  0  0  0  0  0  0
    9.0856  -16.1263   25.0070 C   0  0  0  0  0  0  0  0  0  0  0  0
    9.1161  -17.2806   25.5341 O   0  0  0  0  0  0  0  0  0  0  0  0
   10.1652  -15.2661   25.3305 N   0  0  0  0  0  0  0  0  0  0  0  0
   11.2588  -15.6835   26.1969 C   0  0  1  0  0  0  0  0  0  0  0  0
   12.3068  -14.5948   26.2999 C   0  0  0  0  0  0  0  0  0  0  0  0
   13.7562  -15.2032   27.1998 S   0  0  0  0  0  0  0  0  0  0  0  0
   10.7495  -16.0522   27.5400 C   0  0  0  0  0  0  0  0  0  0  0  0
   11.2241  -17.0748   28.0914 O   0  0  0  0  0  0  0  0  0  0  0  0
    9.7866  -15.3279   28.2035 O   0  0  0  0  0  0  0  0  0  0  0  0
  2  4  1  0
  2  1  1  0
  3  2  2  0
  5  4  1  0
  6  5  1  0
  6  8  1  0
  6  7  1  6
  8  9  2  0
 10  8  1  0
 10 11  1  0
 11 12  1  1
 12 13  1  0
 13 14  2  0
 14 15  1  0
 16 15  2  0
 17 16  1  0
 18 13  1  0
 18 17  2  0
 19 21  1  0
 19 11  1  0
 20 19  2  0
 22 25  1  0
 22 23  1  1
 22 21  1  0
 23 24  1  0
 25 27  1  0
 26 25  2  0
M  END
$$$$
