QFC.pdb
     RDKit          3D

 27 27  0  0  1  0  0  0  0  0999 V2000
   11.4401  -16.4688   16.4789 N   0  0  0  0  0  0  0  0  0  0  0  0
   10.9450  -17.4774   17.3383 C   0  0  0  0  0  0  0  0  0  0  0  0
   10.0194  -18.2056   16.9194 O   0  0  0  0  0  0  0  0  0  0  0  0
   11.5392  -17.6171   18.6661 C   0  0  0  0  0  0  0  0  0  0  0  0
   11.1692  -16.5497   19.6598 C   0  0  0  0  0  0  0  0  0  0  0  0
   10.7607  -17.2077   20.9508 C   0  0  2  0  0  0  0  0  0  0  0  0
    9.5544  -17.9606   20.6621 N   0  0  0  0  0  0  0  0  0  0  0  0
   10.4343  -16.2218   22.0098 C   0  0  0  0  0  0  0  0  0  0  0  0
   11.3395  -15.4462   22.3827 O   0  0  0  0  0  0  0  0  0  0  0  0
    9.1561  -16.1235   22.6084 N   0  0  0  0  0  0  0  0  0  0  0  0
    8.9123  -15.2705   23.7468 C   0  0  1  0  0  0  0  0  0  0  0  0
    7.4961  -14.7335   23.7488 C   0  0  0  0  0  0  0  0  0  0  0  0
    7.2690  -13.8150   24.8868 C   0  0  0  0  0  0  0  0  0  0  0  0
    7.8387  -12.5659   24.8575 C   0  0  0  0  0  0  0  0  0  0  0  0
    7.6170  -11.7213   25.9440 C   0  0  0  0  0  0  0  0  0  0  0  0
    6.8521  -12.1224   27.0138 C   0  0  0  0  0  0  0  0  0  0  0  0
    6.2881  -13.3755   27.0288 C   0  0  0  0  0  0  0  0  0  0  0  0
    6.5002  -14.2254   25.9558 C   0  0  0  0  0  0  0  0  0  0  0  0
    9.2577  -15.9219   25.0396 C   0  0  0  0  0  0  0  0  0  0  0  0
    8.9220  -17.1245   25.2679 O   0  0  0  0  0  0  0  0  0  0  0  0
    9.9641  -15.2655   26.0790 N   0  0  0  0  0  0  0  0  0  0  0  0
   10.6317  -15.9964   27.1471 C   0  0  1  0  0  0  0  0  0  0  0  0
   11.4428  -15.0563   28.0146 C   0  0  0  0  0  0  0  0  0  0  0  0
   10.3769  -13.7660   28.7072 S   0  0  0  0  0  0  0  0  0  0  0  0
    9.6455  -16.7458   27.9627 C   0  0  0  0  0  0  0  0  0  0  0  0
    8.4258  -16.5588   27.7338 O   0  0  0  0  0  0  0  0  0  0  0  0
   10.0062  -17.6307   28.9521 O   0  0  0  0  0  0  0  0  0  0  0  0
  2  4  1  0
  2  1  1  0
  3  2  2  0
  5  4  1  0
  6  5  1  0
  6  8  1  0
  6  7  1  6
  8  9  2  0
 10  8  1  0
 10 11  1  0
 11 12  1  1
 12 13  1  0
 13 14  2  0
 14 15  1  0
 16 15  2  0
 17 16  1  0
 18 13  1  0
 18 17  2  0
 19 21  1  0
 19 11  1  0
 20 19  2  0
 22 25  1  0
 22 23  1  1
 22 21  1  0
 23 24  1  0
 25 27  1  0
 26 25  2  0
M  END
$$$$
