QFC.pdb
     RDKit          3D

 27 27  0  0  1  0  0  0  0  0999 V2000
   12.6797  -17.5318   18.3822 N   0  0  0  0  0  0  0  0  0  0  0  0
   11.6735  -18.5181   18.2577 C   0  0  0  0  0  0  0  0  0  0  0  0
   11.8826  -19.4782   17.4849 O   0  0  0  0  0  0  0  0  0  0  0  0
   10.4463  -18.3661   19.0366 C   0  0  0  0  0  0  0  0  0  0  0  0
   10.3576  -17.1192   19.8737 C   0  0  0  0  0  0  0  0  0  0  0  0
   10.2427  -17.5131   21.3222 C   0  0  2  0  0  0  0  0  0  0  0  0
    9.0676  -18.3581   21.4241 N   0  0  0  0  0  0  0  0  0  0  0  0
   10.0361  -16.3442   22.2118 C   0  0  0  0  0  0  0  0  0  0  0  0
   10.8987  -15.4410   22.1967 O   0  0  0  0  0  0  0  0  0  0  0  0
    8.9167  -16.2104   23.0665 N   0  0  0  0  0  0  0  0  0  0  0  0
    8.7477  -15.0631   23.9256 C   0  0  1  0  0  0  0  0  0  0  0  0
    7.2955  -14.8574   24.3033 C   0  0  0  0  0  0  0  0  0  0  0  0
    7.1151  -13.6244   25.1016 C   0  0  0  0  0  0  0  0  0  0  0  0
    7.8005  -12.4910   24.7391 C   0  0  0  0  0  0  0  0  0  0  0  0
    7.6203  -11.3441   25.5106 C   0  0  0  0  0  0  0  0  0  0  0  0
    6.7830  -11.3432   26.6012 C   0  0  0  0  0  0  0  0  0  0  0  0
    6.1035  -12.4851   26.9516 C   0  0  0  0  0  0  0  0  0  0  0  0
    6.2732  -13.6323   26.1939 C   0  0  0  0  0  0  0  0  0  0  0  0
    9.6294  -15.1056   25.1240 C   0  0  0  0  0  0  0  0  0  0  0  0
   10.4933  -14.1974   25.3237 O   0  0  0  0  0  0  0  0  0  0  0  0
    9.5707  -16.1334   26.0988 N   0  0  0  0  0  0  0  0  0  0  0  0
   10.4883  -16.1864   27.2285 C   0  0  1  0  0  0  0  0  0  0  0  0
    9.9650  -15.3583   28.3837 C   0  0  0  0  0  0  0  0  0  0  0  0
   10.4918  -13.6342   28.2082 S   0  0  0  0  0  0  0  0  0  0  0  0
   10.7185  -17.5898   27.6489 C   0  0  0  0  0  0  0  0  0  0  0  0
   10.1179  -18.4990   27.0263 O   0  0  0  0  0  0  0  0  0  0  0  0
   11.5555  -17.9365   28.6839 O   0  0  0  0  0  0  0  0  0  0  0  0
  2  4  1  0
  2  1  1  0
  3  2  2  0
  5  4  1  0
  6  5  1  0
  6  8  1  0
  6  7  1  6
  8  9  2  0
 10  8  1  0
 10 11  1  0
 11 12  1  1
 12 13  1  0
 13 14  2  0
 14 15  1  0
 16 15  2  0
 17 16  1  0
 18 13  1  0
 18 17  2  0
 19 21  1  0
 19 11  1  0
 20 19  2  0
 22 25  1  0
 22 23  1  1
 22 21  1  0
 23 24  1  0
 25 27  1  0
 26 25  2  0
M  END
$$$$
