QFC.pdb
     RDKit          3D

 27 27  0  0  1  0  0  0  0  0999 V2000
    8.8610  -21.2907   21.2869 N   0  0  0  0  0  0  0  0  0  0  0  0
    8.4305  -20.8480   20.0143 C   0  0  0  0  0  0  0  0  0  0  0  0
    8.1322  -21.7111   19.1606 O   0  0  0  0  0  0  0  0  0  0  0  0
    8.3555  -19.4102   19.7635 C   0  0  0  0  0  0  0  0  0  0  0  0
    8.6156  -18.5280   20.9542 C   0  0  0  0  0  0  0  0  0  0  0  0
    8.4250  -17.0915   20.5459 C   0  0  2  0  0  0  0  0  0  0  0  0
    9.3907  -16.8339   19.4940 N   0  0  0  0  0  0  0  0  0  0  0  0
    8.7032  -16.1464   21.6548 C   0  0  0  0  0  0  0  0  0  0  0  0
    9.8908  -15.8145   21.8531 O   0  0  0  0  0  0  0  0  0  0  0  0
    7.6924  -15.6110   22.4873 N   0  0  0  0  0  0  0  0  0  0  0  0
    8.0028  -14.9446   23.7292 C   0  0  1  0  0  0  0  0  0  0  0  0
    6.8609  -14.0630   24.1904 C   0  0  0  0  0  0  0  0  0  0  0  0
    7.1970  -13.3586   25.4479 C   0  0  0  0  0  0  0  0  0  0  0  0
    7.8800  -12.1692   25.3820 C   0  0  0  0  0  0  0  0  0  0  0  0
    8.1919  -11.5280   26.5797 C   0  0  0  0  0  0  0  0  0  0  0  0
    7.8287  -12.0661   27.7917 C   0  0  0  0  0  0  0  0  0  0  0  0
    7.1451  -13.2573   27.8417 C   0  0  0  0  0  0  0  0  0  0  0  0
    6.8286  -13.9055   26.6592 C   0  0  0  0  0  0  0  0  0  0  0  0
    8.4385  -15.8869   24.7957 C   0  0  0  0  0  0  0  0  0  0  0  0
    7.7036  -16.8648   25.1344 O   0  0  0  0  0  0  0  0  0  0  0  0
    9.6682  -15.7632   25.4906 N   0  0  0  0  0  0  0  0  0  0  0  0
   10.2134  -16.8414   26.3036 C   0  0  1  0  0  0  0  0  0  0  0  0
   11.6228  -17.1827   25.8663 C   0  0  0  0  0  0  0  0  0  0  0  0
   12.6504  -15.6912   25.8432 S   0  0  0  0  0  0  0  0  0  0  0  0
   10.1819  -16.4787   27.7412 C   0  0  0  0  0  0  0  0  0  0  0  0
    9.8038  -15.3228   28.0506 O   0  0  0  0  0  0  0  0  0  0  0  0
   10.5462  -17.3475   28.7435 O   0  0  0  0  0  0  0  0  0  0  0  0
  2  4  1  0
  2  1  1  0
  3  2  2  0
  5  4  1  0
  6  5  1  0
  6  8  1  0
  6  7  1  6
  8  9  2  0
 10  8  1  0
 10 11  1  0
 11 12  1  1
 12 13  1  0
 13 14  2  0
 14 15  1  0
 16 15  2  0
 17 16  1  0
 18 13  1  0
 18 17  2  0
 19 21  1  0
 19 11  1  0
 20 19  2  0
 22 25  1  0
 22 23  1  6
 22 21  1  0
 23 24  1  0
 25 27  1  0
 26 25  2  0
M  END
$$$$
