QFC.pdb
     RDKit          3D

 27 27  0  0  1  0  0  0  0  0999 V2000
    7.0168  -19.3638   21.9705 N   0  0  0  0  0  0  0  0  0  0  0  0
    7.5726  -19.9892   20.8301 C   0  0  0  0  0  0  0  0  0  0  0  0
    6.8168  -20.6737   20.1069 O   0  0  0  0  0  0  0  0  0  0  0  0
    8.9959  -19.8032   20.5555 C   0  0  0  0  0  0  0  0  0  0  0  0
    9.7113  -18.8351   21.4580 C   0  0  0  0  0  0  0  0  0  0  0  0
    9.4142  -17.4323   20.9995 C   0  0  2  0  0  0  0  0  0  0  0  0
   10.4757  -17.0697   20.0791 N   0  0  0  0  0  0  0  0  0  0  0  0
    9.4326  -16.4561   22.1162 C   0  0  0  0  0  0  0  0  0  0  0  0
   10.5445  -16.0866   22.5486 O   0  0  0  0  0  0  0  0  0  0  0  0
    8.2580  -15.9317   22.7051 N   0  0  0  0  0  0  0  0  0  0  0  0
    8.3083  -15.0277   23.8290 C   0  0  1  0  0  0  0  0  0  0  0  0
    7.0030  -14.2793   24.0023 C   0  0  0  0  0  0  0  0  0  0  0  0
    7.0524  -13.3717   25.1703 C   0  0  0  0  0  0  0  0  0  0  0  0
    8.0261  -12.4048   25.2206 C   0  0  0  0  0  0  0  0  0  0  0  0
    8.0574  -11.5668   26.3341 C   0  0  0  0  0  0  0  0  0  0  0  0
    7.1433  -11.7005   27.3524 C   0  0  0  0  0  0  0  0  0  0  0  0
    6.1743  -12.6728   27.2878 C   0  0  0  0  0  0  0  0  0  0  0  0
    6.1314  -13.5128   26.1872 C   0  0  0  0  0  0  0  0  0  0  0  0
    8.7326  -15.6971   25.0887 C   0  0  0  0  0  0  0  0  0  0  0  0
    8.0436  -16.6417   25.5828 O   0  0  0  0  0  0  0  0  0  0  0  0
    9.9009  -15.3379   25.8070 N   0  0  0  0  0  0  0  0  0  0  0  0
   10.3432  -16.0681   26.9868 C   0  0  1  0  0  0  0  0  0  0  0  0
   11.7871  -16.5014   26.8393 C   0  0  0  0  0  0  0  0  0  0  0  0
   12.0807  -18.0295   27.7665 S   0  0  0  0  0  0  0  0  0  0  0  0
   10.1628  -15.2462   28.2079 C   0  0  0  0  0  0  0  0  0  0  0  0
   10.2846  -15.8097   29.3226 O   0  0  0  0  0  0  0  0  0  0  0  0
    9.8698  -13.9027   28.1730 O   0  0  0  0  0  0  0  0  0  0  0  0
  2  4  1  0
  2  1  1  0
  3  2  2  0
  5  4  1  0
  6  5  1  0
  6  8  1  0
  6  7  1  6
  8  9  2  0
 10  8  1  0
 10 11  1  0
 11 12  1  1
 12 13  1  0
 13 14  2  0
 14 15  1  0
 16 15  2  0
 17 16  1  0
 18 13  1  0
 18 17  2  0
 19 21  1  0
 19 11  1  0
 20 19  2  0
 22 25  1  0
 22 23  1  6
 22 21  1  0
 23 24  1  0
 25 27  1  0
 26 25  2  0
M  END
$$$$
