QFC.pdb
     RDKit          3D

 27 27  0  0  1  0  0  0  0  0999 V2000
    8.4565  -19.6763   18.4992 N   0  0  0  0  0  0  0  0  0  0  0  0
    9.2210  -19.8419   19.6777 C   0  0  0  0  0  0  0  0  0  0  0  0
    8.7090  -20.4724   20.6279 O   0  0  0  0  0  0  0  0  0  0  0  0
   10.5656  -19.2711   19.7239 C   0  0  0  0  0  0  0  0  0  0  0  0
   10.8335  -18.3297   20.8664 C   0  0  0  0  0  0  0  0  0  0  0  0
   10.1454  -17.0198   20.5889 C   0  0  2  0  0  0  0  0  0  0  0  0
   10.9866  -16.3080   19.6448 N   0  0  0  0  0  0  0  0  0  0  0  0
   10.0191  -16.1783   21.8039 C   0  0  0  0  0  0  0  0  0  0  0  0
   11.0627  -15.6882   22.2840 O   0  0  0  0  0  0  0  0  0  0  0  0
    8.7813  -15.9102   22.4344 N   0  0  0  0  0  0  0  0  0  0  0  0
    8.6936  -15.1007   23.6260 C   0  0  1  0  0  0  0  0  0  0  0  0
    7.3649  -14.3790   23.7141 C   0  0  0  0  0  0  0  0  0  0  0  0
    7.2309  -13.6499   24.9950 C   0  0  0  0  0  0  0  0  0  0  0  0
    7.9229  -12.4765   25.1681 C   0  0  0  0  0  0  0  0  0  0  0  0
    7.7868  -11.8116   26.3856 C   0  0  0  0  0  0  0  0  0  0  0  0
    6.9854  -12.3114   27.3848 C   0  0  0  0  0  0  0  0  0  0  0  0
    6.2987  -13.4869   27.1968 C   0  0  0  0  0  0  0  0  0  0  0  0
    6.4247  -14.1584   25.9918 C   0  0  0  0  0  0  0  0  0  0  0  0
    8.9888  -15.8676   24.8669 C   0  0  0  0  0  0  0  0  0  0  0  0
    8.1726  -16.7386   25.2984 O   0  0  0  0  0  0  0  0  0  0  0  0
   10.1670  -15.6852   25.6342 N   0  0  0  0  0  0  0  0  0  0  0  0
   10.5672  -16.6189   26.6776 C   0  0  1  0  0  0  0  0  0  0  0  0
   12.0724  -16.7865   26.6987 C   0  0  0  0  0  0  0  0  0  0  0  0
   12.7435  -16.6340   25.0232 S   0  0  0  0  0  0  0  0  0  0  0  0
   10.0694  -16.1691   28.0002 C   0  0  0  0  0  0  0  0  0  0  0  0
    9.4958  -15.0550   28.0676 O   0  0  0  0  0  0  0  0  0  0  0  0
   10.2076  -16.9141   29.1482 O   0  0  0  0  0  0  0  0  0  0  0  0
  2  4  1  0
  2  1  1  0
  3  2  2  0
  5  4  1  0
  6  5  1  0
  6  8  1  0
  6  7  1  6
  8  9  2  0
 10  8  1  0
 10 11  1  0
 11 12  1  1
 12 13  1  0
 13 14  2  0
 14 15  1  0
 16 15  2  0
 17 16  1  0
 18 13  1  0
 18 17  2  0
 19 21  1  0
 19 11  1  0
 20 19  2  0
 22 25  1  0
 22 23  1  1
 22 21  1  0
 23 24  1  0
 25 27  1  0
 26 25  2  0
M  END
$$$$
