QFC.pdb
     RDKit          3D

 27 27  0  0  1  0  0  0  0  0999 V2000
   13.2588  -16.5231   17.5840 N   0  0  0  0  0  0  0  0  0  0  0  0
   12.8131  -17.6258   18.3496 C   0  0  0  0  0  0  0  0  0  0  0  0
   13.6659  -18.4466   18.7516 O   0  0  0  0  0  0  0  0  0  0  0  0
   11.3844  -17.7483   18.6317 C   0  0  0  0  0  0  0  0  0  0  0  0
   10.8124  -16.7079   19.5558 C   0  0  0  0  0  0  0  0  0  0  0  0
   10.3557  -17.3808   20.8226 C   0  0  2  0  0  0  0  0  0  0  0  0
    9.0727  -17.9886   20.5231 N   0  0  0  0  0  0  0  0  0  0  0  0
   10.1506  -16.4183   21.9324 C   0  0  0  0  0  0  0  0  0  0  0  0
   11.1106  -15.6867   22.2539 O   0  0  0  0  0  0  0  0  0  0  0  0
    8.9282  -16.2949   22.6340 N   0  0  0  0  0  0  0  0  0  0  0  0
    8.7761  -15.3851   23.7439 C   0  0  1  0  0  0  0  0  0  0  0  0
    7.3593  -14.8593   23.8447 C   0  0  0  0  0  0  0  0  0  0  0  0
    7.2106  -13.9237   24.9818 C   0  0  0  0  0  0  0  0  0  0  0  0
    6.5370  -14.3415   26.1031 C   0  0  0  0  0  0  0  0  0  0  0  0
    6.4031  -13.4404   27.1581 C   0  0  0  0  0  0  0  0  0  0  0  0
    6.9278  -12.1717   27.0825 C   0  0  0  0  0  0  0  0  0  0  0  0
    7.5996  -11.7680   25.9537 C   0  0  0  0  0  0  0  0  0  0  0  0
    7.7401  -12.6531   24.8975 C   0  0  0  0  0  0  0  0  0  0  0  0
    9.2429  -15.9650   25.0327 C   0  0  0  0  0  0  0  0  0  0  0  0
    9.0454  -17.1900   25.2998 O   0  0  0  0  0  0  0  0  0  0  0  0
    9.9201  -15.2132   26.0259 N   0  0  0  0  0  0  0  0  0  0  0  0
   10.7527  -15.8407   27.0426 C   0  0  1  0  0  0  0  0  0  0  0  0
   11.5406  -14.7985   27.8088 C   0  0  0  0  0  0  0  0  0  0  0  0
   10.4155  -13.6711   28.6713 S   0  0  0  0  0  0  0  0  0  0  0  0
    9.9258  -16.6574   27.9638 C   0  0  0  0  0  0  0  0  0  0  0  0
    8.6774  -16.5859   27.8575 O   0  0  0  0  0  0  0  0  0  0  0  0
   10.4631  -17.4840   28.9230 O   0  0  0  0  0  0  0  0  0  0  0  0
  2  4  1  0
  2  1  1  0
  3  2  2  0
  5  4  1  0
  6  5  1  0
  6  8  1  0
  6  7  1  6
  8  9  2  0
 10  8  1  0
 10 11  1  0
 11 12  1  1
 12 13  1  0
 13 14  2  0
 14 15  1  0
 16 15  2  0
 17 16  1  0
 18 13  1  0
 18 17  2  0
 19 21  1  0
 19 11  1  0
 20 19  2  0
 22 25  1  0
 22 23  1  1
 22 21  1  0
 23 24  1  0
 25 27  1  0
 26 25  2  0
M  END
$$$$
