QFC.pdb
     RDKit          3D

 27 27  0  0  1  0  0  0  0  0999 V2000
   10.0048  -21.9850   21.6774 N   0  0  0  0  0  0  0  0  0  0  0  0
   10.7632  -20.8136   21.4462 C   0  0  0  0  0  0  0  0  0  0  0  0
   12.0050  -20.9248   21.3550 O   0  0  0  0  0  0  0  0  0  0  0  0
   10.0596  -19.5385   21.3249 C   0  0  0  0  0  0  0  0  0  0  0  0
    8.5726  -19.5926   21.5474 C   0  0  0  0  0  0  0  0  0  0  0  0
    7.9889  -18.2339   21.2652 C   0  0  2  0  0  0  0  0  0  0  0  0
    8.5607  -17.7970   20.0052 N   0  0  0  0  0  0  0  0  0  0  0  0
    8.3564  -17.2345   22.2978 C   0  0  0  0  0  0  0  0  0  0  0  0
    9.4489  -16.6421   22.1724 O   0  0  0  0  0  0  0  0  0  0  0  0
    7.5318  -16.9271   23.4056 N   0  0  0  0  0  0  0  0  0  0  0  0
    7.8760  -15.8873   24.3454 C   0  0  1  0  0  0  0  0  0  0  0  0
    6.6429  -15.1988   24.8925 C   0  0  0  0  0  0  0  0  0  0  0  0
    7.0037  -14.0599   25.7660 C   0  0  0  0  0  0  0  0  0  0  0  0
    7.2672  -12.8399   25.1935 C   0  0  0  0  0  0  0  0  0  0  0  0
    7.6122  -11.7841   26.0357 C   0  0  0  0  0  0  0  0  0  0  0  0
    7.6873  -11.9546   27.3980 C   0  0  0  0  0  0  0  0  0  0  0  0
    7.4205  -13.1815   27.9565 C   0  0  0  0  0  0  0  0  0  0  0  0
    7.0765  -14.2397   27.1315 C   0  0  0  0  0  0  0  0  0  0  0  0
    8.7695  -16.3674   25.4345 C   0  0  0  0  0  0  0  0  0  0  0  0
    8.3700  -17.2462   26.2586 O   0  0  0  0  0  0  0  0  0  0  0  0
   10.0912  -15.8911   25.6254 N   0  0  0  0  0  0  0  0  0  0  0  0
   11.0376  -16.5578   26.5088 C   0  0  1  0  0  0  0  0  0  0  0  0
   12.4627  -16.2592   26.0915 C   0  0  0  0  0  0  0  0  0  0  0  0
   12.7366  -14.4697   26.0326 S   0  0  0  0  0  0  0  0  0  0  0  0
   10.8074  -16.1580   27.9182 C   0  0  0  0  0  0  0  0  0  0  0  0
    9.9495  -15.2713   28.1481 O   0  0  0  0  0  0  0  0  0  0  0  0
   11.4879  -16.7123   28.9774 O   0  0  0  0  0  0  0  0  0  0  0  0
  2  4  1  0
  2  1  1  0
  3  2  2  0
  5  4  1  0
  6  5  1  0
  6  8  1  0
  6  7  1  6
  8  9  2  0
 10  8  1  0
 10 11  1  0
 11 12  1  1
 12 13  1  0
 13 14  2  0
 14 15  1  0
 16 15  2  0
 17 16  1  0
 18 13  1  0
 18 17  2  0
 19 21  1  0
 19 11  1  0
 20 19  2  0
 22 25  1  0
 22 23  1  6
 22 21  1  0
 23 24  1  0
 25 27  1  0
 26 25  2  0
M  END
$$$$
