IPW.pdb
     RDKit          3D

 30 32  0  0  1  0  0  0  0  0999 V2000
   18.1893   -8.5799    8.6994 C   0  0  0  0  0  0  0  0  0  0  0  0
   19.5802   -9.1688    8.6794 C   0  0  0  0  0  0  0  0  0  0  0  0
   19.4791  -10.6470    8.4749 C   0  0  2  0  0  0  0  0  0  0  0  0
   18.5860  -11.2971    9.5241 C   0  0  0  0  0  0  0  0  0  0  0  0
   20.8240  -11.3402    8.4291 C   0  0  2  0  0  0  0  0  0  0  0  0
   21.5095  -10.7705    7.2669 N   0  0  0  0  0  0  0  0  0  0  0  0
   20.6887  -12.8058    8.2957 C   0  0  0  0  0  0  0  0  0  0  0  0
   20.3201  -13.3047    7.2038 O   0  0  0  0  0  0  0  0  0  0  0  0
   20.9621  -13.7269    9.3747 N   0  0  0  0  0  0  0  0  0  0  0  0
   21.4534  -13.3739   10.6682 C   0  0  0  0  0  0  0  0  0  0  0  0
   21.4562  -14.6205   11.4941 C   0  0  0  0  0  0  0  0  0  0  0  0
   20.9241  -15.7142   10.6366 C   0  0  0  0  0  0  0  0  0  0  0  0
   20.7712  -15.1239    9.2683 C   0  0  1  0  0  0  0  0  0  0  0  0
   19.3824  -15.4872    8.8180 C   0  0  0  0  0  0  0  0  0  0  0  0
   18.4348  -14.6667    8.7897 O   0  0  0  0  0  0  0  0  0  0  0  0
   19.1710  -16.8318    8.4125 N   0  0  0  0  0  0  0  0  0  0  0  0
   18.2737  -17.2089    7.3191 C   0  0  1  0  0  0  0  0  0  0  0  0
   18.6266  -16.3283    6.1523 C   0  0  0  0  0  0  0  0  0  0  0  0
   17.7348  -16.4620    5.0051 C   0  0  0  0  0  0  0  0  0  0  0  0
   16.7927  -17.4467    4.7985 C   0  0  0  0  0  0  0  0  0  0  0  0
   16.1891  -17.2642    3.6196 N   0  0  0  0  0  0  0  0  0  0  0  0
   16.7195  -16.1679    3.0405 C   0  0  0  0  0  0  0  0  0  0  0  0
   16.5009  -15.4942    1.8658 C   0  0  0  0  0  0  0  0  0  0  0  0
   17.2043  -14.3595    1.5422 C   0  0  0  0  0  0  0  0  0  0  0  0
   18.1568  -13.8553    2.3867 C   0  0  0  0  0  0  0  0  0  0  0  0
   18.3951  -14.5019    3.5567 C   0  0  0  0  0  0  0  0  0  0  0  0
   17.6932  -15.6497    3.8974 C   0  0  0  0  0  0  0  0  0  0  0  0
   18.1673  -18.6275    7.0921 C   0  0  0  0  0  0  0  0  0  0  0  0
   16.9797  -19.3274    6.8971 O   0  0  0  0  0  0  0  0  0  0  0  0
   19.2155  -19.3267    7.0608 O   0  0  0  0  0  0  0  0  0  0  0  0
  2  1  1  0
  3  2  1  0
  3  4  1  1
  5  3  1  0
  5  6  1  6
  7  5  1  0
  8  7  2  0
  9 13  1  0
  9  7  1  0
 10  9  1  0
 11 10  1  0
 11 12  1  0
 12 13  1  0
 13 14  1  1
 14 15  2  0
 16 14  1  0
 17 16  1  0
 17 28  1  0
 17 18  1  6
 19 27  1  0
 19 18  1  0
 20 19  2  0
 21 20  1  0
 21 22  1  0
 22 27  2  0
 23 22  1  0
 23 24  2  0
 24 25  1  0
 25 26  2  0
 27 26  1  0
 28 30  2  0
 28 29  1  0
M  END
$$$$
