IPW.pdb
     RDKit          3D

 30 32  0  0  1  0  0  0  0  0999 V2000
   26.3343  -14.0151  -15.0102 C   0  0  0  0  0  0  0  0  0  0  0  0
   26.2062  -15.3115  -15.7748 C   0  0  0  0  0  0  0  0  0  0  0  0
   26.2721  -16.4529  -14.8105 C   0  0  2  0  0  0  0  0  0  0  0  0
   27.6098  -16.4936  -14.0825 C   0  0  0  0  0  0  0  0  0  0  0  0
   25.9811  -17.7948  -15.4476 C   0  0  2  0  0  0  0  0  0  0  0  0
   24.6712  -17.6408  -16.0845 N   0  0  0  0  0  0  0  0  0  0  0  0
   25.9591  -18.8881  -14.4534 C   0  0  0  0  0  0  0  0  0  0  0  0
   25.0966  -18.8883  -13.5406 O   0  0  0  0  0  0  0  0  0  0  0  0
   26.8952  -19.9886  -14.4669 N   0  0  0  0  0  0  0  0  0  0  0  0
   27.9325  -20.1893  -15.4274 C   0  0  0  0  0  0  0  0  0  0  0  0
   28.7308  -21.3698  -14.9742 C   0  0  0  0  0  0  0  0  0  0  0  0
   28.1310  -21.8380  -13.6952 C   0  0  0  0  0  0  0  0  0  0  0  0
   26.8884  -21.0237  -13.5036 C   0  0  1  0  0  0  0  0  0  0  0  0
   26.9521  -20.5041  -12.0931 C   0  0  0  0  0  0  0  0  0  0  0  0
   27.7283  -19.5869  -11.7352 O   0  0  0  0  0  0  0  0  0  0  0  0
   26.0774  -21.1042  -11.1486 N   0  0  0  0  0  0  0  0  0  0  0  0
   26.3679  -21.1720   -9.7155 C   0  0  1  0  0  0  0  0  0  0  0  0
   26.6125  -19.7597   -9.2606 C   0  0  0  0  0  0  0  0  0  0  0  0
   26.7085  -19.6009   -7.8133 C   0  0  0  0  0  0  0  0  0  0  0  0
   25.6765  -19.3364   -6.9387 C   0  0  0  0  0  0  0  0  0  0  0  0
   26.1484  -19.2232   -5.6929 N   0  0  0  0  0  0  0  0  0  0  0  0
   27.4834  -19.4105   -5.7300 C   0  0  0  0  0  0  0  0  0  0  0  0
   28.4830  -19.4278   -4.7908 C   0  0  0  0  0  0  0  0  0  0  0  0
   29.7912  -19.6703   -5.1327 C   0  0  0  0  0  0  0  0  0  0  0  0
   30.1483  -19.9054   -6.4334 C   0  0  0  0  0  0  0  0  0  0  0  0
   29.1796  -19.8937   -7.3849 C   0  0  0  0  0  0  0  0  0  0  0  0
   27.8538  -19.6496   -7.0554 C   0  0  0  0  0  0  0  0  0  0  0  0
   25.4507  -21.9817   -8.9549 C   0  0  0  0  0  0  0  0  0  0  0  0
   25.7480  -22.6346   -7.7617 O   0  0  0  0  0  0  0  0  0  0  0  0
   24.2717  -22.1352   -9.3731 O   0  0  0  0  0  0  0  0  0  0  0  0
  2  1  1  0
  3  2  1  0
  3  4  1  6
  5  3  1  0
  5  6  1  1
  7  5  1  0
  8  7  2  0
  9 13  1  0
  9  7  1  0
 10  9  1  0
 11 10  1  0
 11 12  1  0
 12 13  1  0
 13 14  1  1
 14 15  2  0
 16 14  1  0
 17 16  1  0
 17 28  1  0
 17 18  1  1
 19 27  1  0
 19 18  1  0
 20 19  2  0
 21 20  1  0
 21 22  1  0
 22 27  2  0
 23 22  1  0
 23 24  2  0
 24 25  1  0
 25 26  2  0
 27 26  1  0
 28 30  2  0
 28 29  1  0
M  END
$$$$
