IPW.pdb
     RDKit          3D

 30 32  0  0  1  0  0  0  0  0999 V2000
   27.3010  -14.3668  -16.6198 C   0  0  0  0  0  0  0  0  0  0  0  0
   27.3091  -15.6854  -17.3566 C   0  0  0  0  0  0  0  0  0  0  0  0
   27.0975  -16.7926  -16.3734 C   0  0  2  0  0  0  0  0  0  0  0  0
   28.2297  -16.8615  -15.3563 C   0  0  0  0  0  0  0  0  0  0  0  0
   26.8955  -18.1438  -17.0251 C   0  0  2  0  0  0  0  0  0  0  0  0
   25.8367  -17.9371  -18.0159 N   0  0  0  0  0  0  0  0  0  0  0  0
   26.5064  -19.1797  -16.0455 C   0  0  0  0  0  0  0  0  0  0  0  0
   25.5358  -18.9802  -15.2740 O   0  0  0  0  0  0  0  0  0  0  0  0
   27.1930  -20.4444  -15.9168 N   0  0  0  0  0  0  0  0  0  0  0  0
   28.2167  -20.9298  -16.7859 C   0  0  0  0  0  0  0  0  0  0  0  0
   28.7268  -22.2061  -16.1969 C   0  0  0  0  0  0  0  0  0  0  0  0
   27.9744  -22.4359  -14.9336 C   0  0  0  0  0  0  0  0  0  0  0  0
   26.9192  -21.3736  -14.8867 C   0  0  1  0  0  0  0  0  0  0  0  0
   27.0128  -20.7632  -13.5147 C   0  0  0  0  0  0  0  0  0  0  0  0
   28.0697  -20.2700  -13.0549 O   0  0  0  0  0  0  0  0  0  0  0  0
   25.8282  -20.7628  -12.7311 N   0  0  0  0  0  0  0  0  0  0  0  0
   25.7524  -21.3461  -11.3906 C   0  0  1  0  0  0  0  0  0  0  0  0
   26.9029  -20.7744  -10.6089 C   0  0  0  0  0  0  0  0  0  0  0  0
   26.5864  -20.4485   -9.2223 C   0  0  0  0  0  0  0  0  0  0  0  0
   25.3313  -20.3166   -8.6681 C   0  0  0  0  0  0  0  0  0  0  0  0
   25.4324  -19.9771   -7.3788 N   0  0  0  0  0  0  0  0  0  0  0  0
   26.7417  -19.8827   -7.0700 C   0  0  0  0  0  0  0  0  0  0  0  0
   27.4468  -19.5914   -5.9300 C   0  0  0  0  0  0  0  0  0  0  0  0
   28.8204  -19.5881   -5.9114 C   0  0  0  0  0  0  0  0  0  0  0  0
   29.5418  -19.8778   -7.0385 C   0  0  0  0  0  0  0  0  0  0  0  0
   28.8702  -20.1693   -8.1821 C   0  0  0  0  0  0  0  0  0  0  0  0
   27.4828  -20.1760   -8.2170 C   0  0  0  0  0  0  0  0  0  0  0  0
   24.4415  -21.3111  -10.7941 C   0  0  0  0  0  0  0  0  0  0  0  0
   23.3551  -20.5844  -11.2736 O   0  0  0  0  0  0  0  0  0  0  0  0
   24.2217  -21.9817   -9.7499 O   0  0  0  0  0  0  0  0  0  0  0  0
  2  1  1  0
  3  2  1  0
  3  4  1  1
  5  3  1  0
  5  6  1  6
  7  5  1  0
  8  7  2  0
  9 13  1  0
  9  7  1  0
 10  9  1  0
 11 10  1  0
 11 12  1  0
 12 13  1  0
 13 14  1  1
 14 15  2  0
 16 14  1  0
 17 16  1  0
 17 28  1  0
 17 18  1  1
 19 27  1  0
 19 18  1  0
 20 19  2  0
 21 20  1  0
 21 22  1  0
 22 27  2  0
 23 22  1  0
 23 24  2  0
 24 25  1  0
 25 26  2  0
 27 26  1  0
 28 30  2  0
 28 29  1  0
M  END
$$$$
