IPW.pdb
     RDKit          3D

 30 32  0  0  1  0  0  0  0  0999 V2000
   24.1251  -16.1935  -16.5509 C   0  0  0  0  0  0  0  0  0  0  0  0
   25.1187  -17.3207  -16.7052 C   0  0  0  0  0  0  0  0  0  0  0  0
   25.3035  -17.9902  -15.3805 C   0  0  2  0  0  0  0  0  0  0  0  0
   26.4099  -17.3283  -14.5688 C   0  0  0  0  0  0  0  0  0  0  0  0
   25.5528  -19.4792  -15.4899 C   0  0  2  0  0  0  0  0  0  0  0  0
   24.3746  -20.0159  -16.1749 N   0  0  0  0  0  0  0  0  0  0  0  0
   25.7266  -20.1116  -14.1655 C   0  0  0  0  0  0  0  0  0  0  0  0
   24.7441  -20.2269  -13.3919 O   0  0  0  0  0  0  0  0  0  0  0  0
   26.9933  -20.6201  -13.6918 N   0  0  0  0  0  0  0  0  0  0  0  0
   28.2031  -20.6805  -14.4480 C   0  0  0  0  0  0  0  0  0  0  0  0
   29.2796  -21.1475  -13.5212 C   0  0  0  0  0  0  0  0  0  0  0  0
   28.6539  -21.3361  -12.1842 C   0  0  0  0  0  0  0  0  0  0  0  0
   27.1838  -21.1333  -12.3880 C   0  0  1  0  0  0  0  0  0  0  0  0
   26.7503  -20.1704  -11.3163 C   0  0  0  0  0  0  0  0  0  0  0  0
   26.4459  -18.9768  -11.5500 O   0  0  0  0  0  0  0  0  0  0  0  0
   26.6944  -20.6715   -9.9886 N   0  0  0  0  0  0  0  0  0  0  0  0
   26.2436  -19.8730   -8.8475 C   0  0  1  0  0  0  0  0  0  0  0  0
   24.8412  -19.4305   -9.1616 C   0  0  0  0  0  0  0  0  0  0  0  0
   23.8060  -20.3746   -8.7542 C   0  0  0  0  0  0  0  0  0  0  0  0
   23.7338  -21.0608   -7.5610 C   0  0  0  0  0  0  0  0  0  0  0  0
   22.6640  -21.8627   -7.5566 N   0  0  0  0  0  0  0  0  0  0  0  0
   22.0236  -21.7161   -8.7344 C   0  0  0  0  0  0  0  0  0  0  0  0
   20.8885  -22.2497   -9.2898 C   0  0  0  0  0  0  0  0  0  0  0  0
   20.4578  -21.8862  -10.5426 C   0  0  0  0  0  0  0  0  0  0  0  0
   21.1508  -20.9708  -11.2886 C   0  0  0  0  0  0  0  0  0  0  0  0
   22.2789  -20.4264  -10.7644 C   0  0  0  0  0  0  0  0  0  0  0  0
   22.7271  -20.7840   -9.5006 C   0  0  0  0  0  0  0  0  0  0  0  0
   26.4959  -20.4693   -7.5606 C   0  0  0  0  0  0  0  0  0  0  0  0
   26.5761  -19.7808   -6.3532 O   0  0  0  0  0  0  0  0  0  0  0  0
   26.6634  -21.7160   -7.4814 O   0  0  0  0  0  0  0  0  0  0  0  0
  2  1  1  0
  3  2  1  0
  3  4  1  6
  5  3  1  0
  5  6  1  1
  7  5  1  0
  8  7  2  0
  9 13  1  0
  9  7  1  0
 10  9  1  0
 11 10  1  0
 11 12  1  0
 12 13  1  0
 13 14  1  1
 14 15  2  0
 16 14  1  0
 17 16  1  0
 17 28  1  0
 17 18  1  6
 19 27  1  0
 19 18  1  0
 20 19  2  0
 21 20  1  0
 21 22  1  0
 22 27  2  0
 23 22  1  0
 23 24  2  0
 24 25  1  0
 25 26  2  0
 27 26  1  0
 28 30  2  0
 28 29  1  0
M  END
$$$$
