IPW.pdb
     RDKit          3D

 30 32  0  0  1  0  0  0  0  0999 V2000
   28.8354  -39.1906  -13.8344 C   0  0  0  0  0  0  0  0  0  0  0  0
   28.6507  -40.2238  -12.7482 C   0  0  0  0  0  0  0  0  0  0  0  0
   28.4276  -39.5243  -11.4451 C   0  0  2  0  0  0  0  0  0  0  0  0
   29.6845  -38.8030  -10.9750 C   0  0  0  0  0  0  0  0  0  0  0  0
   27.9085  -40.4371  -10.3548 C   0  0  2  0  0  0  0  0  0  0  0  0
   26.6047  -40.9026  -10.8331 N   0  0  0  0  0  0  0  0  0  0  0  0
   27.7760  -39.7361   -9.0605 C   0  0  0  0  0  0  0  0  0  0  0  0
   26.8921  -38.8566   -8.9113 O   0  0  0  0  0  0  0  0  0  0  0  0
   28.6247  -40.0079   -7.9232 N   0  0  0  0  0  0  0  0  0  0  0  0
   29.5776  -41.0671   -7.8280 C   0  0  0  0  0  0  0  0  0  0  0  0
   30.3145  -40.8828   -6.5399 C   0  0  0  0  0  0  0  0  0  0  0  0
   29.7685  -39.6576   -5.8954 C   0  0  0  0  0  0  0  0  0  0  0  0
   28.6054  -39.2347   -6.7394 C   0  0  1  0  0  0  0  0  0  0  0  0
   28.8019  -37.7664   -7.0022 C   0  0  0  0  0  0  0  0  0  0  0  0
   29.4758  -37.3266   -7.9636 O   0  0  0  0  0  0  0  0  0  0  0  0
   28.1800  -36.8645   -6.0983 N   0  0  0  0  0  0  0  0  0  0  0  0
   27.9146  -35.4612   -6.4198 C   0  0  1  0  0  0  0  0  0  0  0  0
   27.1946  -35.4529   -7.7399 C   0  0  0  0  0  0  0  0  0  0  0  0
   26.9145  -34.1207   -8.2651 C   0  0  0  0  0  0  0  0  0  0  0  0
   27.7518  -33.3399   -9.0326 C   0  0  0  0  0  0  0  0  0  0  0  0
   27.1694  -32.1660   -9.2979 N   0  0  0  0  0  0  0  0  0  0  0  0
   25.9531  -32.1586   -8.7155 C   0  0  0  0  0  0  0  0  0  0  0  0
   24.9179  -31.2610   -8.6518 C   0  0  0  0  0  0  0  0  0  0  0  0
   23.7553  -31.5457   -7.9777 C   0  0  0  0  0  0  0  0  0  0  0  0
   23.5858  -32.7452   -7.3395 C   0  0  0  0  0  0  0  0  0  0  0  0
   24.5945  -33.6531   -7.3850 C   0  0  0  0  0  0  0  0  0  0  0  0
   25.7751  -33.3799   -8.0615 C   0  0  0  0  0  0  0  0  0  0  0  0
   27.3568  -34.6925   -5.3366 C   0  0  0  0  0  0  0  0  0  0  0  0
   27.7722  -33.4210   -4.9508 O   0  0  0  0  0  0  0  0  0  0  0  0
   26.4121  -35.1789   -4.6586 O   0  0  0  0  0  0  0  0  0  0  0  0
  2  1  1  0
  3  2  1  0
  3  4  1  1
  5  3  1  0
  5  6  1  6
  7  5  1  0
  8  7  2  0
  9 13  1  0
  9  7  1  0
 10  9  1  0
 11 10  1  0
 11 12  1  0
 12 13  1  0
 13 14  1  6
 14 15  2  0
 16 14  1  0
 17 16  1  0
 17 28  1  0
 17 18  1  6
 19 27  1  0
 19 18  1  0
 20 19  2  0
 21 20  1  0
 21 22  1  0
 22 27  2  0
 23 22  1  0
 23 24  2  0
 24 25  1  0
 25 26  2  0
 27 26  1  0
 28 30  2  0
 28 29  1  0
M  END
$$$$
