IPW.pdb
     RDKit          3D

 30 32  0  0  1  0  0  0  0  0999 V2000
   23.5594  -21.3383  -20.2649 C   0  0  0  0  0  0  0  0  0  0  0  0
   24.9530  -20.7797  -20.0988 C   0  0  0  0  0  0  0  0  0  0  0  0
   25.3666  -20.9232  -18.6686 C   0  0  2  0  0  0  0  0  0  0  0  0
   24.3843  -20.2336  -17.7302 C   0  0  0  0  0  0  0  0  0  0  0  0
   26.7757  -20.4399  -18.3997 C   0  0  2  0  0  0  0  0  0  0  0  0
   27.6428  -21.3462  -19.1560 N   0  0  0  0  0  0  0  0  0  0  0  0
   27.1078  -20.4710  -16.9600 C   0  0  0  0  0  0  0  0  0  0  0  0
   27.2444  -21.5721  -16.3716 O   0  0  0  0  0  0  0  0  0  0  0  0
   27.2906  -19.2790  -16.1643 N   0  0  0  0  0  0  0  0  0  0  0  0
   27.2764  -17.9382  -16.6554 C   0  0  0  0  0  0  0  0  0  0  0  0
   27.3689  -17.0329  -15.4688 C   0  0  0  0  0  0  0  0  0  0  0  0
   27.4148  -17.8999  -14.2601 C   0  0  0  0  0  0  0  0  0  0  0  0
   27.5136  -19.3056  -14.7682 C   0  0  1  0  0  0  0  0  0  0  0  0
   26.4609  -20.0843  -14.0272 C   0  0  0  0  0  0  0  0  0  0  0  0
   25.2834  -20.2086  -14.4395 O   0  0  0  0  0  0  0  0  0  0  0  0
   26.8550  -20.6944  -12.8067 N   0  0  0  0  0  0  0  0  0  0  0  0
   25.9254  -21.4069  -11.9286 C   0  0  1  0  0  0  0  0  0  0  0  0
   26.7232  -21.8591  -10.7367 C   0  0  0  0  0  0  0  0  0  0  0  0
   26.6046  -20.9929   -9.5685 C   0  0  0  0  0  0  0  0  0  0  0  0
   25.5073  -20.2446   -9.2000 C   0  0  0  0  0  0  0  0  0  0  0  0
   25.7783  -19.5478   -8.0916 N   0  0  0  0  0  0  0  0  0  0  0  0
   27.0442  -19.8255   -7.7189 C   0  0  0  0  0  0  0  0  0  0  0  0
   27.8538  -19.4356   -6.6826 C   0  0  0  0  0  0  0  0  0  0  0  0
   29.1344  -19.9139   -6.5470 C   0  0  0  0  0  0  0  0  0  0  0  0
   29.6538  -20.8043   -7.4482 C   0  0  0  0  0  0  0  0  0  0  0  0
   28.8752  -21.2076   -8.4850 C   0  0  0  0  0  0  0  0  0  0  0  0
   27.5798  -20.7328   -8.6359 C   0  0  0  0  0  0  0  0  0  0  0  0
   24.6793  -20.7235  -11.6927 C   0  0  0  0  0  0  0  0  0  0  0  0
   23.4417  -21.3373  -11.5198 O   0  0  0  0  0  0  0  0  0  0  0  0
   24.6690  -19.4647  -11.6313 O   0  0  0  0  0  0  0  0  0  0  0  0
  2  1  1  0
  3  2  1  0
  3  4  1  1
  5  3  1  0
  5  6  1  6
  7  5  1  0
  8  7  2  0
  9 13  1  0
  9  7  1  0
 10  9  1  0
 11 10  1  0
 11 12  1  0
 12 13  1  0
 13 14  1  1
 14 15  2  0
 16 14  1  0
 17 16  1  0
 17 28  1  0
 17 18  1  1
 19 27  1  0
 19 18  1  0
 20 19  2  0
 21 20  1  0
 21 22  1  0
 22 27  2  0
 23 22  1  0
 23 24  2  0
 24 25  1  0
 25 26  2  0
 27 26  1  0
 28 30  2  0
 28 29  1  0
M  END
$$$$
