IPW.pdb
     RDKit          3D

 30 32  0  0  1  0  0  0  0  0999 V2000
   23.3319  -21.8813  -19.5704 C   0  0  0  0  0  0  0  0  0  0  0  0
   24.8132  -21.5969  -19.4895 C   0  0  0  0  0  0  0  0  0  0  0  0
   25.2412  -21.6529  -18.0574 C   0  0  2  0  0  0  0  0  0  0  0  0
   24.4866  -20.6379  -17.2080 C   0  0  0  0  0  0  0  0  0  0  0  0
   26.7340  -21.4866  -17.8700 C   0  0  2  0  0  0  0  0  0  0  0  0
   27.3347  -22.6506  -18.5253 N   0  0  0  0  0  0  0  0  0  0  0  0
   27.1114  -21.4320  -16.4421 C   0  0  0  0  0  0  0  0  0  0  0  0
   27.0197  -22.4620  -15.7295 O   0  0  0  0  0  0  0  0  0  0  0  0
   27.5933  -20.2326  -15.7965 N   0  0  0  0  0  0  0  0  0  0  0  0
   27.9402  -19.0135  -16.4541 C   0  0  0  0  0  0  0  0  0  0  0  0
   28.2545  -18.0119  -15.3890 C   0  0  0  0  0  0  0  0  0  0  0  0
   28.0546  -18.6895  -14.0792 C   0  0  0  0  0  0  0  0  0  0  0  0
   27.7843  -20.1277  -14.3994 C   0  0  1  0  0  0  0  0  0  0  0  0
   26.5541  -20.4978  -13.6162 C   0  0  0  0  0  0  0  0  0  0  0  0
   25.3894  -20.2959  -14.0339 O   0  0  0  0  0  0  0  0  0  0  0  0
   26.7597  -21.1029  -12.3478 N   0  0  0  0  0  0  0  0  0  0  0  0
   25.6667  -21.4550  -11.4398 C   0  0  1  0  0  0  0  0  0  0  0  0
   26.3053  -21.9860  -10.1863 C   0  0  0  0  0  0  0  0  0  0  0  0
   26.5558  -20.9762   -9.1633 C   0  0  0  0  0  0  0  0  0  0  0  0
   25.7066  -19.9624   -8.7746 C   0  0  0  0  0  0  0  0  0  0  0  0
   26.2894  -19.2105   -7.8352 N   0  0  0  0  0  0  0  0  0  0  0  0
   27.5170  -19.7143   -7.5946 C   0  0  0  0  0  0  0  0  0  0  0  0
   28.5465  -19.3880   -6.7489 C   0  0  0  0  0  0  0  0  0  0  0  0
   29.7092  -20.1186   -6.7109 C   0  0  0  0  0  0  0  0  0  0  0  0
   29.8846  -21.2077   -7.5219 C   0  0  0  0  0  0  0  0  0  0  0  0
   28.8823  -21.5539   -8.3701 C   0  0  0  0  0  0  0  0  0  0  0  0
   27.7021  -20.8253   -8.4206 C   0  0  0  0  0  0  0  0  0  0  0  0
   24.6472  -20.4457  -11.3081 C   0  0  0  0  0  0  0  0  0  0  0  0
   24.8384  -19.0773  -11.4793 O   0  0  0  0  0  0  0  0  0  0  0  0
   23.4716  -20.7922  -11.0141 O   0  0  0  0  0  0  0  0  0  0  0  0
  2  1  1  0
  3  2  1  0
  3  4  1  1
  5  3  1  0
  5  6  1  1
  7  5  1  0
  8  7  2  0
  9 13  1  0
  9  7  1  0
 10  9  1  0
 11 10  1  0
 11 12  1  0
 12 13  1  0
 13 14  1  1
 14 15  2  0
 16 14  1  0
 17 16  1  0
 17 28  1  0
 17 18  1  1
 19 27  1  0
 19 18  1  0
 20 19  2  0
 21 20  1  0
 21 22  1  0
 22 27  2  0
 23 22  1  0
 23 24  2  0
 24 25  1  0
 25 26  2  0
 27 26  1  0
 28 30  2  0
 28 29  1  0
M  END
$$$$
