IPW.pdb
     RDKit          3D

 30 32  0  0  1  0  0  0  0  0999 V2000
   29.4379  -21.2623  -17.6161 C   0  0  0  0  0  0  0  0  0  0  0  0
   28.2197  -20.3767  -17.5008 C   0  0  0  0  0  0  0  0  0  0  0  0
   27.8171  -20.2889  -16.0629 C   0  0  2  0  0  0  0  0  0  0  0  0
   27.5553  -21.6677  -15.4702 C   0  0  0  0  0  0  0  0  0  0  0  0
   26.6281  -19.3824  -15.8266 C   0  0  2  0  0  0  0  0  0  0  0  0
   27.0594  -18.0582  -16.2800 N   0  0  0  0  0  0  0  0  0  0  0  0
   26.2299  -19.3490  -14.4038 C   0  0  0  0  0  0  0  0  0  0  0  0
   27.0139  -18.8763  -13.5441 O   0  0  0  0  0  0  0  0  0  0  0  0
   24.9578  -19.8405  -13.9266 N   0  0  0  0  0  0  0  0  0  0  0  0
   23.9012  -20.3488  -14.7417 C   0  0  0  0  0  0  0  0  0  0  0  0
   22.8419  -20.8634  -13.8202 C   0  0  0  0  0  0  0  0  0  0  0  0
   23.3328  -20.6559  -12.4307 C   0  0  0  0  0  0  0  0  0  0  0  0
   24.6031  -19.8724  -12.5581 C   0  0  1  0  0  0  0  0  0  0  0  0
   25.6168  -20.5944  -11.7127 C   0  0  0  0  0  0  0  0  0  0  0  0
   26.4894  -21.3569  -12.1910 O   0  0  0  0  0  0  0  0  0  0  0  0
   25.5526  -20.3785  -10.3104 N   0  0  0  0  0  0  0  0  0  0  0  0
   26.1783  -21.2692   -9.3316 C   0  0  1  0  0  0  0  0  0  0  0  0
   27.5715  -20.7492   -9.1083 C   0  0  0  0  0  0  0  0  0  0  0  0
   27.6775  -19.7412   -8.0586 C   0  0  0  0  0  0  0  0  0  0  0  0
   26.9668  -18.5639   -7.9660 C   0  0  0  0  0  0  0  0  0  0  0  0
   27.3564  -17.8762   -6.8876 N   0  0  0  0  0  0  0  0  0  0  0  0
   28.3183  -18.5846   -6.2618 C   0  0  0  0  0  0  0  0  0  0  0  0
   29.0678  -18.4038   -5.1274 C   0  0  0  0  0  0  0  0  0  0  0  0
   29.9892  -19.3353   -4.7143 C   0  0  0  0  0  0  0  0  0  0  0  0
   30.1949  -20.4872   -5.4253 C   0  0  0  0  0  0  0  0  0  0  0  0
   29.4675  -20.6927   -6.5533 C   0  0  0  0  0  0  0  0  0  0  0  0
   28.5335  -19.7608   -6.9838 C   0  0  0  0  0  0  0  0  0  0  0  0
   25.3668  -21.5562   -8.1764 C   0  0  0  0  0  0  0  0  0  0  0  0
   25.5436  -22.6337   -7.3126 O   0  0  0  0  0  0  0  0  0  0  0  0
   24.4071  -20.7903   -7.8920 O   0  0  0  0  0  0  0  0  0  0  0  0
  2  1  1  0
  3  2  1  0
  3  4  1  6
  5  3  1  0
  5  6  1  1
  7  5  1  0
  8  7  2  0
  9 13  1  0
  9  7  1  0
 10  9  1  0
 11 10  1  0
 11 12  1  0
 12 13  1  0
 13 14  1  1
 14 15  2  0
 16 14  1  0
 17 16  1  0
 17 28  1  0
 17 18  1  1
 19 27  1  0
 19 18  1  0
 20 19  2  0
 21 20  1  0
 21 22  1  0
 22 27  2  0
 23 22  1  0
 23 24  2  0
 24 25  1  0
 25 26  2  0
 27 26  1  0
 28 30  2  0
 28 29  1  0
M  END
$$$$
