IPW.pdb
     RDKit          3D

 30 32  0  0  1  0  0  0  0  0999 V2000
   29.5172  -16.5884  -16.2404 C   0  0  0  0  0  0  0  0  0  0  0  0
   28.3354  -17.3906  -16.7319 C   0  0  0  0  0  0  0  0  0  0  0  0
   27.8489  -18.2683  -15.6228 C   0  0  2  0  0  0  0  0  0  0  0  0
   28.9553  -19.1772  -15.1023 C   0  0  0  0  0  0  0  0  0  0  0  0
   26.6304  -19.0858  -15.9945 C   0  0  2  0  0  0  0  0  0  0  0  0
   25.6662  -18.1183  -16.5230 N   0  0  0  0  0  0  0  0  0  0  0  0
   26.0707  -19.8075  -14.8326 C   0  0  0  0  0  0  0  0  0  0  0  0
   25.6447  -19.1651  -13.8412 O   0  0  0  0  0  0  0  0  0  0  0  0
   25.9805  -21.2479  -14.7645 N   0  0  0  0  0  0  0  0  0  0  0  0
   26.3943  -22.1585  -15.7837 C   0  0  0  0  0  0  0  0  0  0  0  0
   26.2411  -23.5392  -15.2301 C   0  0  0  0  0  0  0  0  0  0  0  0
   25.7418  -23.3980  -13.8354 C   0  0  0  0  0  0  0  0  0  0  0  0
   25.4543  -21.9397  -13.6492 C   0  0  1  0  0  0  0  0  0  0  0  0
   26.1219  -21.5517  -12.3579 C   0  0  0  0  0  0  0  0  0  0  0  0
   27.3405  -21.2691  -12.2746 O   0  0  0  0  0  0  0  0  0  0  0  0
   25.3024  -21.5142  -11.1985 N   0  0  0  0  0  0  0  0  0  0  0  0
   25.8218  -21.2435   -9.8569 C   0  0  1  0  0  0  0  0  0  0  0  0
   26.7265  -20.0487   -9.9808 C   0  0  0  0  0  0  0  0  0  0  0  0
   27.1910  -19.5099   -8.7068 C   0  0  0  0  0  0  0  0  0  0  0  0
   26.6948  -18.4086   -8.0429 C   0  0  0  0  0  0  0  0  0  0  0  0
   27.3927  -18.1951   -6.9227 N   0  0  0  0  0  0  0  0  0  0  0  0
   28.3473  -19.1436   -6.8345 C   0  0  0  0  0  0  0  0  0  0  0  0
   29.3306  -19.4431   -5.9262 C   0  0  0  0  0  0  0  0  0  0  0  0
   30.1699  -20.5170   -6.0981 C   0  0  0  0  0  0  0  0  0  0  0  0
   30.0550  -21.3341   -7.1907 C   0  0  0  0  0  0  0  0  0  0  0  0
   29.0908  -21.0613   -8.1070 C   0  0  0  0  0  0  0  0  0  0  0  0
   28.2358  -19.9797   -7.9477 C   0  0  0  0  0  0  0  0  0  0  0  0
   24.8243  -21.2357   -8.8175 C   0  0  0  0  0  0  0  0  0  0  0  0
   25.0265  -21.6412   -7.5011 O   0  0  0  0  0  0  0  0  0  0  0  0
   23.6595  -20.8350   -9.0844 O   0  0  0  0  0  0  0  0  0  0  0  0
  2  1  1  0
  3  2  1  0
  3  4  1  6
  5  3  1  0
  5  6  1  1
  7  5  1  0
  8  7  2  0
  9 13  1  0
  9  7  1  0
 10  9  1  0
 11 10  1  0
 11 12  1  0
 12 13  1  0
 13 14  1  1
 14 15  2  0
 16 14  1  0
 17 16  1  0
 17 28  1  0
 17 18  1  6
 19 27  1  0
 19 18  1  0
 20 19  2  0
 21 20  1  0
 21 22  1  0
 22 27  2  0
 23 22  1  0
 23 24  2  0
 24 25  1  0
 25 26  2  0
 27 26  1  0
 28 30  2  0
 28 29  1  0
M  END
$$$$
