IAW.pdb
     RDKit          3D

 28 29  0  0  1  0  0  0  0  0999 V2000
    7.8457  -11.5009   19.9940 C   0  0  0  0  0  0  0  0  0  0  0  0
    7.4061  -12.9036   19.8213 C   0  0  0  0  0  0  0  0  0  0  0  0
    7.9900  -13.9432   20.6937 C   0  0  2  0  0  0  0  0  0  0  0  0
    9.5192  -13.9019   20.6369 C   0  0  0  0  0  0  0  0  0  0  0  0
    7.4531  -15.3078   20.6193 C   0  0  2  0  0  0  0  0  0  0  0  0
    5.9514  -15.1926   20.5484 N   0  0  0  0  0  0  0  0  0  0  0  0
    7.8128  -16.3070   21.6046 C   0  0  0  0  0  0  0  0  0  0  0  0
    7.2378  -16.4509   22.7276 O   0  0  0  0  0  0  0  0  0  0  0  0
   10.0892  -19.2994   21.6017 C   0  0  0  0  0  0  0  0  0  0  0  0
    9.2787  -18.2541   22.3438 C   0  0  2  0  0  0  0  0  0  0  0  0
    8.8794  -17.2580   21.4077 N   0  0  0  0  0  0  0  0  0  0  0  0
   10.1210  -17.7362   23.4439 C   0  0  0  0  0  0  0  0  0  0  0  0
   11.3347  -18.0869   23.5165 O   0  0  0  0  0  0  0  0  0  0  0  0
    9.6675  -16.8586   24.4468 N   0  0  0  0  0  0  0  0  0  0  0  0
   10.4431  -16.4945   25.6403 C   0  0  1  0  0  0  0  0  0  0  0  0
   10.0098  -15.0915   25.9603 C   0  0  0  0  0  0  0  0  0  0  0  0
    8.5912  -14.7836   25.8125 C   0  0  0  0  0  0  0  0  0  0  0  0
    7.6241  -15.7516   25.6153 C   0  0  0  0  0  0  0  0  0  0  0  0
    6.4450  -15.1292   25.4912 N   0  0  0  0  0  0  0  0  0  0  0  0
    6.6083  -13.8114   25.5996 C   0  0  0  0  0  0  0  0  0  0  0  0
    5.6790  -12.8007   25.5496 C   0  0  0  0  0  0  0  0  0  0  0  0
    6.0923  -11.5064   25.7068 C   0  0  0  0  0  0  0  0  0  0  0  0
    7.4274  -11.2510   25.9109 C   0  0  0  0  0  0  0  0  0  0  0  0
    8.3483  -12.2608   25.9594 C   0  0  0  0  0  0  0  0  0  0  0  0
    7.9461  -13.5716   25.8017 C   0  0  0  0  0  0  0  0  0  0  0  0
   10.2707  -17.4206   26.7334 C   0  0  0  0  0  0  0  0  0  0  0  0
   11.1151  -17.3881   27.8310 O   0  0  0  0  0  0  0  0  0  0  0  0
    9.3592  -18.2759   26.7228 O   0  0  0  0  0  0  0  0  0  0  0  0
  2  1  1  0
  2  3  1  0
  3  5  1  0
  3  4  1  6
  5  6  1  1
  5  7  1  0
  7  8  2  0
 10  9  1  6
 11  7  1  0
 11 10  1  0
 12 13  2  0
 12 10  1  0
 14 12  1  0
 15 14  1  0
 15 16  1  1
 17 25  1  0
 17 16  1  0
 18 17  2  0
 19 18  1  0
 19 20  1  0
 20 21  1  0
 20 25  2  0
 21 22  2  0
 22 23  1  0
 24 23  2  0
 25 24  1  0
 26 15  1  0
 27 26  1  0
 28 26  2  0
M  END
$$$$
