IAW.pdb
     RDKit          3D

 28 29  0  0  1  0  0  0  0  0999 V2000
    8.5484  -20.6841   16.9131 C   0  0  0  0  0  0  0  0  0  0  0  0
    8.4568  -20.3207   18.3450 C   0  0  0  0  0  0  0  0  0  0  0  0
    9.0117  -19.0241   18.7852 C   0  0  2  0  0  0  0  0  0  0  0  0
   10.4403  -18.8420   18.2662 C   0  0  0  0  0  0  0  0  0  0  0  0
    8.8628  -18.6363   20.1936 C   0  0  2  0  0  0  0  0  0  0  0  0
    7.4307  -18.9058   20.5810 N   0  0  0  0  0  0  0  0  0  0  0  0
    9.2436  -17.3148   20.6490 C   0  0  0  0  0  0  0  0  0  0  0  0
   10.4362  -16.8803   20.6819 O   0  0  0  0  0  0  0  0  0  0  0  0
    7.3026  -14.2201   21.5663 C   0  0  0  0  0  0  0  0  0  0  0  0
    8.5995  -15.0040   21.5043 C   0  0  2  0  0  0  0  0  0  0  0  0
    8.2903  -16.3398   21.1198 N   0  0  0  0  0  0  0  0  0  0  0  0
    9.2469  -14.8989   22.8300 C   0  0  0  0  0  0  0  0  0  0  0  0
    9.6903  -13.7793   23.2190 O   0  0  0  0  0  0  0  0  0  0  0  0
    9.4148  -15.9762   23.7203 N   0  0  0  0  0  0  0  0  0  0  0  0
   10.1231  -15.8858   25.0044 C   0  0  1  0  0  0  0  0  0  0  0  0
    9.0813  -16.2164   26.0358 C   0  0  0  0  0  0  0  0  0  0  0  0
    7.8780  -15.3914   26.0538 C   0  0  0  0  0  0  0  0  0  0  0  0
    6.6224  -15.8790   25.7422 C   0  0  0  0  0  0  0  0  0  0  0  0
    5.7577  -14.8601   25.8272 N   0  0  0  0  0  0  0  0  0  0  0  0
    6.3962  -13.7447   26.1781 C   0  0  0  0  0  0  0  0  0  0  0  0
    5.9069  -12.4790   26.3932 C   0  0  0  0  0  0  0  0  0  0  0  0
    6.7687  -11.4858   26.7692 C   0  0  0  0  0  0  0  0  0  0  0  0
    8.1026  -11.7805   26.9222 C   0  0  0  0  0  0  0  0  0  0  0  0
    8.5845  -13.0419   26.7063 C   0  0  0  0  0  0  0  0  0  0  0  0
    7.7268  -14.0540   26.3259 C   0  0  0  0  0  0  0  0  0  0  0  0
   11.2929  -16.7284   25.0678 C   0  0  0  0  0  0  0  0  0  0  0  0
   12.1729  -16.6418   26.1340 O   0  0  0  0  0  0  0  0  0  0  0  0
   11.5462  -17.5573   24.1671 O   0  0  0  0  0  0  0  0  0  0  0  0
  2  1  1  0
  2  3  1  0
  3  5  1  0
  3  4  1  1
  5  6  1  6
  5  7  1  0
  7  8  2  0
 10  9  1  1
 11  7  1  0
 11 10  1  0
 12 13  2  0
 12 10  1  0
 14 12  1  0
 15 14  1  0
 15 16  1  1
 17 25  1  0
 17 16  1  0
 18 17  2  0
 19 18  1  0
 19 20  1  0
 20 21  1  0
 20 25  2  0
 21 22  2  0
 22 23  1  0
 24 23  2  0
 25 24  1  0
 26 15  1  0
 27 26  1  0
 28 26  2  0
M  END
$$$$
