IAW.pdb
     RDKit          3D

 28 29  0  0  1  0  0  0  0  0999 V2000
    7.4705  -11.5978   19.5596 C   0  0  0  0  0  0  0  0  0  0  0  0
    7.4678  -13.0700   19.4065 C   0  0  0  0  0  0  0  0  0  0  0  0
    7.8824  -13.9037   20.5535 C   0  0  2  0  0  0  0  0  0  0  0  0
    9.2835  -13.5117   21.0297 C   0  0  0  0  0  0  0  0  0  0  0  0
    7.6938  -15.3576   20.4717 C   0  0  2  0  0  0  0  0  0  0  0  0
    6.2933  -15.5976   19.9674 N   0  0  0  0  0  0  0  0  0  0  0  0
    7.9453  -16.2093   21.6163 C   0  0  0  0  0  0  0  0  0  0  0  0
    7.1660  -16.3265   22.6119 O   0  0  0  0  0  0  0  0  0  0  0  0
   10.6295  -18.7149   22.4931 C   0  0  0  0  0  0  0  0  0  0  0  0
    9.4485  -17.8402   22.8680 C   0  0  2  0  0  0  0  0  0  0  0  0
    9.1273  -17.0262   21.7446 N   0  0  0  0  0  0  0  0  0  0  0  0
    9.8287  -17.0717   24.0732 C   0  0  0  0  0  0  0  0  0  0  0  0
   10.5211  -16.0199   23.9478 O   0  0  0  0  0  0  0  0  0  0  0  0
    9.4719  -17.4267   25.3877 N   0  0  0  0  0  0  0  0  0  0  0  0
   10.0083  -16.7813   26.5937 C   0  0  1  0  0  0  0  0  0  0  0  0
    8.7954  -16.4454   27.4150 C   0  0  0  0  0  0  0  0  0  0  0  0
    7.8051  -15.5622   26.8082 C   0  0  0  0  0  0  0  0  0  0  0  0
    6.6840  -16.0259   26.1454 C   0  0  0  0  0  0  0  0  0  0  0  0
    6.0116  -14.9613   25.6896 N   0  0  0  0  0  0  0  0  0  0  0  0
    6.6454  -13.8393   26.0278 C   0  0  0  0  0  0  0  0  0  0  0  0
    6.3104  -12.5294   25.7834 C   0  0  0  0  0  0  0  0  0  0  0  0
    7.1225  -11.5345   26.2537 C   0  0  0  0  0  0  0  0  0  0  0  0
    8.2532  -11.8717   26.9589 C   0  0  0  0  0  0  0  0  0  0  0  0
    8.5822  -13.1771   27.1989 C   0  0  0  0  0  0  0  0  0  0  0  0
    7.7726  -14.1917   26.7300 C   0  0  0  0  0  0  0  0  0  0  0  0
   10.9758  -17.5946   27.2900 C   0  0  0  0  0  0  0  0  0  0  0  0
   11.7810  -17.0508   28.2773 O   0  0  0  0  0  0  0  0  0  0  0  0
   11.1161  -18.8080   27.0245 O   0  0  0  0  0  0  0  0  0  0  0  0
  2  1  1  0
  2  3  1  0
  3  5  1  0
  3  4  1  6
  5  6  1  1
  5  7  1  0
  7  8  2  0
 10  9  1  6
 11  7  1  0
 11 10  1  0
 12 13  2  0
 12 10  1  0
 14 12  1  0
 15 14  1  0
 15 16  1  1
 17 25  1  0
 17 16  1  0
 18 17  2  0
 19 18  1  0
 19 20  1  0
 20 21  1  0
 20 25  2  0
 21 22  2  0
 22 23  1  0
 24 23  2  0
 25 24  1  0
 26 15  1  0
 27 26  1  0
 28 26  2  0
M  END
$$$$
