VSQ.pdb
     RDKit          3D

 23 22  0  0  1  0  0  0  0  0999 V2000
   24.4004  -11.9923  -16.6094 C   0  0  0  0  0  0  0  0  0  0  0  0
   23.2026  -11.0783  -16.6196 C   0  0  2  0  0  0  0  0  0  0  0  0
   23.5787   -9.7303  -17.1759 C   0  0  0  0  0  0  0  0  0  0  0  0
   22.5509  -10.9704  -15.2621 C   0  0  2  0  0  0  0  0  0  0  0  0
   22.0924  -12.3284  -14.9283 N   0  0  0  0  0  0  0  0  0  0  0  0
   21.3391  -10.1154  -15.2898 C   0  0  0  0  0  0  0  0  0  0  0  0
   20.3678  -10.4973  -15.9881 O   0  0  0  0  0  0  0  0  0  0  0  0
   18.0862   -7.3036  -13.6736 O   0  0  0  0  0  0  0  0  0  0  0  0
   19.2397   -8.0357  -13.4868 C   0  0  0  0  0  0  0  0  0  0  0  0
   20.0641   -8.0152  -14.7352 C   0  0  2  0  0  0  0  0  0  0  0  0
   21.1956   -8.8923  -14.5824 N   0  0  0  0  0  0  0  0  0  0  0  0
   20.4680   -6.6404  -15.1295 C   0  0  0  0  0  0  0  0  0  0  0  0
   21.4711   -6.1126  -14.5810 O   0  0  0  0  0  0  0  0  0  0  0  0
   20.3232   -5.3581  -21.1085 N   0  0  0  0  0  0  0  0  0  0  0  0
   19.6688   -5.8388  -19.9403 C   0  0  0  0  0  0  0  0  0  0  0  0
   19.4365   -7.0583  -19.8896 O   0  0  0  0  0  0  0  0  0  0  0  0
   19.2791   -4.9498  -18.8394 C   0  0  0  0  0  0  0  0  0  0  0  0
   20.4083   -4.4683  -17.9791 C   0  0  0  0  0  0  0  0  0  0  0  0
   20.1504   -4.5371  -16.5150 C   0  0  2  0  0  0  0  0  0  0  0  0
   19.7685   -5.8880  -16.1049 N   0  0  0  0  0  0  0  0  0  0  0  0
   19.1834   -3.5384  -16.0140 C   0  0  0  0  0  0  0  0  0  0  0  0
   19.4765   -2.3109  -16.1945 O   0  0  0  0  0  0  0  0  0  0  0  0
   18.0109   -3.7967  -15.3810 O   0  0  0  0  0  0  0  0  0  0  0  0
  2  1  1  1
  2  3  1  0
  4  5  1  6
  4  2  1  0
  4  6  1  0
  6 11  1  0
  7  6  2  0
  9  8  1  0
 10  9  1  1
 11 10  1  0
 12 20  1  0
 12 10  1  0
 13 12  2  0
 14 15  1  0
 15 16  2  0
 15 17  1  0
 17 18  1  0
 19 18  1  6
 19 20  1  0
 19 21  1  0
 21 23  1  0
 22 21  2  0
M  END
$$$$
