VSQ.pdb
     RDKit          3D

 23 22  0  0  1  0  0  0  0  0999 V2000
   18.6694  -10.6221  -15.8714 C   0  0  0  0  0  0  0  0  0  0  0  0
   19.4344  -10.3653  -17.1438 C   0  0  2  0  0  0  0  0  0  0  0  0
   19.7542  -11.6658  -17.8327 C   0  0  0  0  0  0  0  0  0  0  0  0
   20.6685   -9.5269  -16.9128 C   0  0  2  0  0  0  0  0  0  0  0  0
   21.6055  -10.3877  -16.1733 N   0  0  0  0  0  0  0  0  0  0  0  0
   20.3958   -8.3593  -16.0395 C   0  0  0  0  0  0  0  0  0  0  0  0
   19.6517   -7.4527  -16.4880 O   0  0  0  0  0  0  0  0  0  0  0  0
   19.7134   -8.2303  -12.1190 O   0  0  0  0  0  0  0  0  0  0  0  0
   20.7580   -7.4006  -12.4682 C   0  0  0  0  0  0  0  0  0  0  0  0
   20.6545   -7.0321  -13.9146 C   0  0  2  0  0  0  0  0  0  0  0  0
   20.9161   -8.1902  -14.7289 N   0  0  0  0  0  0  0  0  0  0  0  0
   21.5265   -5.8835  -14.2744 C   0  0  0  0  0  0  0  0  0  0  0  0
   22.6350   -6.1030  -14.8299 O   0  0  0  0  0  0  0  0  0  0  0  0
   22.4423   -3.1056  -18.8194 N   0  0  0  0  0  0  0  0  0  0  0  0
   21.1432   -3.3183  -18.2801 C   0  0  0  0  0  0  0  0  0  0  0  0
   20.1987   -3.3449  -19.0868 O   0  0  0  0  0  0  0  0  0  0  0  0
   20.9126   -3.4983  -16.8417 C   0  0  0  0  0  0  0  0  0  0  0  0
   22.1492   -3.5088  -15.9946 C   0  0  0  0  0  0  0  0  0  0  0  0
   21.9045   -3.3866  -14.5317 C   0  0  2  0  0  0  0  0  0  0  0  0
   21.1638   -4.5384  -14.0182 N   0  0  0  0  0  0  0  0  0  0  0  0
   21.2654   -2.1195  -14.1195 C   0  0  0  0  0  0  0  0  0  0  0  0
   21.9251   -1.0479  -14.3238 O   0  0  0  0  0  0  0  0  0  0  0  0
   20.0433   -1.9811  -13.5455 O   0  0  0  0  0  0  0  0  0  0  0  0
  2  1  1  1
  2  3  1  0
  4  5  1  1
  4  2  1  0
  4  6  1  0
  6 11  1  0
  7  6  2  0
  9  8  1  0
 10  9  1  1
 11 10  1  0
 12 20  1  0
 12 10  1  0
 13 12  2  0
 14 15  1  0
 15 16  2  0
 15 17  1  0
 17 18  1  0
 19 18  1  6
 19 20  1  0
 19 21  1  0
 21 23  1  0
 22 21  2  0
M  END
$$$$
