VSQ.pdb
     RDKit          3D

 23 22  0  0  1  0  0  0  0  0999 V2000
   20.1471  -12.5893  -18.0753 C   0  0  0  0  0  0  0  0  0  0  0  0
   19.8016  -13.2934  -16.7888 C   0  0  2  0  0  0  0  0  0  0  0  0
   19.7217  -14.7806  -17.0122 C   0  0  0  0  0  0  0  0  0  0  0  0
   18.5458  -12.7464  -16.1541 C   0  0  2  0  0  0  0  0  0  0  0  0
   17.4566  -13.6352  -16.5892 N   0  0  0  0  0  0  0  0  0  0  0  0
   18.2077  -11.3932  -16.6591 C   0  0  0  0  0  0  0  0  0  0  0  0
   18.5641  -11.0968  -17.8261 O   0  0  0  0  0  0  0  0  0  0  0  0
   15.1458   -8.9922  -15.3571 O   0  0  0  0  0  0  0  0  0  0  0  0
   15.7760   -8.8806  -16.5786 C   0  0  0  0  0  0  0  0  0  0  0  0
   17.2498   -9.0770  -16.4115 C   0  0  2  0  0  0  0  0  0  0  0  0
   17.5081  -10.4044  -15.9175 N   0  0  0  0  0  0  0  0  0  0  0  0
   17.8719   -8.0296  -15.5601 C   0  0  0  0  0  0  0  0  0  0  0  0
   18.4382   -8.3654  -14.4867 O   0  0  0  0  0  0  0  0  0  0  0  0
   22.6080   -6.3900  -14.0214 N   0  0  0  0  0  0  0  0  0  0  0  0
   21.9701   -5.1932  -13.5918 C   0  0  0  0  0  0  0  0  0  0  0  0
   22.6582   -4.3972  -12.9311 O   0  0  0  0  0  0  0  0  0  0  0  0
   20.5666   -4.8985  -13.9045 C   0  0  0  0  0  0  0  0  0  0  0  0
   19.8659   -5.9364  -14.7283 C   0  0  0  0  0  0  0  0  0  0  0  0
   18.4585   -5.6065  -15.0822 C   0  0  2  0  0  0  0  0  0  0  0  0
   17.8569   -6.6556  -15.9046 N   0  0  0  0  0  0  0  0  0  0  0  0
   18.2764   -4.2777  -15.7025 C   0  0  0  0  0  0  0  0  0  0  0  0
   17.9919   -4.2555  -16.9450 O   0  0  0  0  0  0  0  0  0  0  0  0
   18.3801   -3.0756  -15.0810 O   0  0  0  0  0  0  0  0  0  0  0  0
  2  1  1  6
  2  3  1  0
  4  5  1  6
  4  2  1  0
  4  6  1  0
  6 11  1  0
  7  6  2  0
  9  8  1  0
 10  9  1  1
 11 10  1  0
 12 20  1  0
 12 10  1  0
 13 12  2  0
 14 15  1  0
 15 16  2  0
 15 17  1  0
 17 18  1  0
 19 18  1  6
 19 20  1  0
 19 21  1  0
 21 23  1  0
 22 21  2  0
M  END
$$$$
