VSQ.pdb
     RDKit          3D

 23 22  0  0  1  0  0  0  0  0999 V2000
   17.5283  -12.4440  -17.5935 C   0  0  0  0  0  0  0  0  0  0  0  0
   18.8878  -12.7343  -18.1746 C   0  0  2  0  0  0  0  0  0  0  0  0
   19.0883  -14.2200  -18.3181 C   0  0  0  0  0  0  0  0  0  0  0  0
   19.9998  -12.0849  -17.3867 C   0  0  2  0  0  0  0  0  0  0  0  0
   20.1229  -12.8677  -16.1467 N   0  0  0  0  0  0  0  0  0  0  0  0
   19.6593  -10.7011  -16.9751 C   0  0  0  0  0  0  0  0  0  0  0  0
   19.6686   -9.8078  -17.8576 O   0  0  0  0  0  0  0  0  0  0  0  0
   17.6103   -7.6560  -13.9052 O   0  0  0  0  0  0  0  0  0  0  0  0
   17.9788   -8.9518  -14.1998 C   0  0  0  0  0  0  0  0  0  0  0  0
   19.0151   -8.9541  -15.2790 C   0  0  2  0  0  0  0  0  0  0  0  0
   19.3222  -10.3103  -15.6520 N   0  0  0  0  0  0  0  0  0  0  0  0
   20.2306   -8.1853  -14.9043 C   0  0  0  0  0  0  0  0  0  0  0  0
   21.2701   -8.8072  -14.5602 O   0  0  0  0  0  0  0  0  0  0  0  0
   24.4001   -6.5163  -17.9327 N   0  0  0  0  0  0  0  0  0  0  0  0
   24.7013   -5.6833  -16.8196 C   0  0  0  0  0  0  0  0  0  0  0  0
   25.8226   -5.1484  -16.8068 O   0  0  0  0  0  0  0  0  0  0  0  0
   23.7448   -5.4573  -15.7295 C   0  0  0  0  0  0  0  0  0  0  0  0
   22.4424   -6.1874  -15.8630 C   0  0  0  0  0  0  0  0  0  0  0  0
   21.4993   -5.9937  -14.7282 C   0  0  2  0  0  0  0  0  0  0  0  0
   20.2739   -6.7695  -14.9165 N   0  0  0  0  0  0  0  0  0  0  0  0
   21.1901   -4.5818  -14.4205 C   0  0  0  0  0  0  0  0  0  0  0  0
   20.0792   -4.1279  -14.8506 O   0  0  0  0  0  0  0  0  0  0  0  0
   21.9707   -3.7179  -13.7230 O   0  0  0  0  0  0  0  0  0  0  0  0
  2  1  1  1
  2  3  1  0
  4  5  1  1
  4  2  1  0
  4  6  1  0
  6 11  1  0
  7  6  2  0
  9  8  1  0
 10  9  1  1
 11 10  1  0
 12 20  1  0
 12 10  1  0
 13 12  2  0
 14 15  1  0
 15 16  2  0
 15 17  1  0
 17 18  1  0
 19 18  1  6
 19 20  1  0
 19 21  1  0
 21 23  1  0
 22 21  2  0
M  END
$$$$
