VSQ.pdb
     RDKit          3D

 23 22  0  0  1  0  0  0  0  0999 V2000
   19.9436  -12.2515  -17.4836 C   0  0  0  0  0  0  0  0  0  0  0  0
   18.4798  -12.4485  -17.1856 C   0  0  2  0  0  0  0  0  0  0  0  0
   17.7454  -12.8708  -18.4307 C   0  0  0  0  0  0  0  0  0  0  0  0
   17.8559  -11.2331  -16.5432 C   0  0  2  0  0  0  0  0  0  0  0  0
   17.5790  -10.2956  -17.6433 N   0  0  0  0  0  0  0  0  0  0  0  0
   18.7958  -10.5389  -15.6294 C   0  0  0  0  0  0  0  0  0  0  0  0
   19.2881  -11.1998  -14.6819 O   0  0  0  0  0  0  0  0  0  0  0  0
   22.2208   -8.7590  -13.8454 O   0  0  0  0  0  0  0  0  0  0  0  0
   21.2956   -9.4086  -14.6352 C   0  0  0  0  0  0  0  0  0  0  0  0
   20.1015   -8.5323  -14.8469 C   0  0  2  0  0  0  0  0  0  0  0  0
   19.1815   -9.1772  -15.7472 N   0  0  0  0  0  0  0  0  0  0  0  0
   20.4700   -7.1666  -15.3030 C   0  0  0  0  0  0  0  0  0  0  0  0
   20.7933   -6.9862  -16.5066 O   0  0  0  0  0  0  0  0  0  0  0  0
   17.2016   -2.4527  -14.2894 N   0  0  0  0  0  0  0  0  0  0  0  0
   17.5179   -2.9864  -15.5696 C   0  0  0  0  0  0  0  0  0  0  0  0
   16.6541   -2.8692  -16.4549 O   0  0  0  0  0  0  0  0  0  0  0  0
   18.7984   -3.6479  -15.8474 C   0  0  0  0  0  0  0  0  0  0  0  0
   19.7357   -3.7370  -14.6809 C   0  0  0  0  0  0  0  0  0  0  0  0
   20.8584   -4.6984  -14.8546 C   0  0  2  0  0  0  0  0  0  0  0  0
   20.4742   -6.0461  -14.4363 N   0  0  0  0  0  0  0  0  0  0  0  0
   22.1248   -4.2861  -14.2145 C   0  0  0  0  0  0  0  0  0  0  0  0
   22.5291   -4.9889  -13.2307 O   0  0  0  0  0  0  0  0  0  0  0  0
   22.9038   -3.2331  -14.5702 O   0  0  0  0  0  0  0  0  0  0  0  0
  2  1  1  6
  2  3  1  0
  4  5  1  6
  4  2  1  0
  4  6  1  0
  6 11  1  0
  7  6  2  0
  9  8  1  0
 10  9  1  6
 11 10  1  0
 12 20  1  0
 12 10  1  0
 13 12  2  0
 14 15  1  0
 15 16  2  0
 15 17  1  0
 17 18  1  0
 19 18  1  1
 19 20  1  0
 19 21  1  0
 21 23  1  0
 22 21  2  0
M  END
$$$$
