VSQ.pdb
     RDKit          3D

 23 22  0  0  1  0  0  0  0  0999 V2000
   16.9867  -10.4994  -17.9237 C   0  0  0  0  0  0  0  0  0  0  0  0
   16.4535  -11.0234  -16.6156 C   0  0  2  0  0  0  0  0  0  0  0  0
   15.5870   -9.9860  -15.9515 C   0  0  0  0  0  0  0  0  0  0  0  0
   17.5515  -11.5145  -15.7032 C   0  0  2  0  0  0  0  0  0  0  0  0
   16.8715  -12.1481  -14.5622 N   0  0  0  0  0  0  0  0  0  0  0  0
   18.3546  -10.3997  -15.1443 C   0  0  0  0  0  0  0  0  0  0  0  0
   17.8170   -9.6662  -14.2784 O   0  0  0  0  0  0  0  0  0  0  0  0
   22.2569   -9.5282  -16.3688 O   0  0  0  0  0  0  0  0  0  0  0  0
   21.9129   -9.3205  -15.0496 C   0  0  0  0  0  0  0  0  0  0  0  0
   20.4513   -9.0182  -14.9457 C   0  0  2  0  0  0  0  0  0  0  0  0
   19.6917  -10.0994  -15.5174 N   0  0  0  0  0  0  0  0  0  0  0  0
   20.0966   -7.7045  -15.5437 C   0  0  0  0  0  0  0  0  0  0  0  0
   19.2613   -7.6624  -16.4851 O   0  0  0  0  0  0  0  0  0  0  0  0
   16.3902   -3.6311  -15.2512 N   0  0  0  0  0  0  0  0  0  0  0  0
   17.1661   -3.2434  -16.3787 C   0  0  0  0  0  0  0  0  0  0  0  0
   16.7116   -2.3271  -17.0839 O   0  0  0  0  0  0  0  0  0  0  0  0
   18.4441   -3.8860  -16.7079 C   0  0  0  0  0  0  0  0  0  0  0  0
   18.8705   -4.9741  -15.7692 C   0  0  0  0  0  0  0  0  0  0  0  0
   20.3416   -5.1817  -15.6816 C   0  0  2  0  0  0  0  0  0  0  0  0
   20.6613   -6.4842  -15.0983 N   0  0  0  0  0  0  0  0  0  0  0  0
   21.0749   -4.0989  -14.9935 C   0  0  0  0  0  0  0  0  0  0  0  0
   21.4538   -4.3284  -13.7980 O   0  0  0  0  0  0  0  0  0  0  0  0
   21.3879   -2.8824  -15.5075 O   0  0  0  0  0  0  0  0  0  0  0  0
  2  1  1  6
  2  3  1  0
  4  5  1  1
  4  2  1  0
  4  6  1  0
  6 11  1  0
  7  6  2  0
  9  8  1  0
 10  9  1  6
 11 10  1  0
 12 20  1  0
 12 10  1  0
 13 12  2  0
 14 15  1  0
 15 16  2  0
 15 17  1  0
 17 18  1  0
 19 18  1  1
 19 20  1  0
 19 21  1  0
 21 23  1  0
 22 21  2  0
M  END
$$$$
