VSQ.pdb
     RDKit          3D

 23 22  0  0  1  0  0  0  0  0999 V2000
   21.5789  -14.0529  -18.8677 C   0  0  0  0  0  0  0  0  0  0  0  0
   20.6342  -12.8971  -18.6634 C   0  0  2  0  0  0  0  0  0  0  0  0
   20.7298  -11.9339  -19.8170 C   0  0  0  0  0  0  0  0  0  0  0  0
   20.8428  -12.2130  -17.3338 C   0  0  2  0  0  0  0  0  0  0  0  0
   20.5186  -13.2191  -16.3099 N   0  0  0  0  0  0  0  0  0  0  0  0
   19.8971  -11.0888  -17.1289 C   0  0  0  0  0  0  0  0  0  0  0  0
   20.0649  -10.0492  -17.8129 O   0  0  0  0  0  0  0  0  0  0  0  0
   16.7596  -11.2064  -14.3762 O   0  0  0  0  0  0  0  0  0  0  0  0
   16.6081  -10.4509  -15.5199 C   0  0  0  0  0  0  0  0  0  0  0  0
   17.9438   -9.9732  -15.9957 C   0  0  2  0  0  0  0  0  0  0  0  0
   18.8118  -11.1012  -16.2129 N   0  0  0  0  0  0  0  0  0  0  0  0
   18.5476   -8.9669  -15.0838 C   0  0  0  0  0  0  0  0  0  0  0  0
   19.5627   -9.2800  -14.4076 O   0  0  0  0  0  0  0  0  0  0  0  0
   22.8735   -6.0467  -15.2636 N   0  0  0  0  0  0  0  0  0  0  0  0
   22.2801   -5.2373  -14.2555 C   0  0  0  0  0  0  0  0  0  0  0  0
   23.0058   -4.3787  -13.7265 O   0  0  0  0  0  0  0  0  0  0  0  0
   20.8793   -5.3969  -13.8472 C   0  0  0  0  0  0  0  0  0  0  0  0
   20.1290   -6.4840  -14.5560 C   0  0  0  0  0  0  0  0  0  0  0  0
   18.6939   -6.5996  -14.1792 C   0  0  2  0  0  0  0  0  0  0  0  0
   18.0280   -7.6571  -14.9389 N   0  0  0  0  0  0  0  0  0  0  0  0
   17.9348   -5.3341  -14.2560 C   0  0  0  0  0  0  0  0  0  0  0  0
   17.3190   -5.0964  -15.3467 O   0  0  0  0  0  0  0  0  0  0  0  0
   17.8253   -4.3978  -13.2795 O   0  0  0  0  0  0  0  0  0  0  0  0
  2  1  1  6
  2  3  1  0
  4  5  1  1
  4  2  1  0
  4  6  1  0
  6 11  1  0
  7  6  2  0
  9  8  1  0
 10  9  1  1
 11 10  1  0
 12 20  1  0
 12 10  1  0
 13 12  2  0
 14 15  1  0
 15 16  2  0
 15 17  1  0
 17 18  1  0
 19 18  1  6
 19 20  1  0
 19 21  1  0
 21 23  1  0
 22 21  2  0
M  END
$$$$
