VSQ.pdb
     RDKit          3D

 23 22  0  0  1  0  0  0  0  0999 V2000
   16.7151  -14.3818  -17.6050 C   0  0  0  0  0  0  0  0  0  0  0  0
   18.1267  -14.6759  -17.1678 C   0  0  2  0  0  0  0  0  0  0  0  0
   18.2281  -16.0832  -16.6413 C   0  0  0  0  0  0  0  0  0  0  0  0
   18.6447  -13.6607  -16.1778 C   0  0  2  0  0  0  0  0  0  0  0  0
   18.0492  -14.0241  -14.8820 N   0  0  0  0  0  0  0  0  0  0  0  0
   18.1719  -12.2886  -16.4846 C   0  0  0  0  0  0  0  0  0  0  0  0
   18.6505  -11.7156  -17.4943 O   0  0  0  0  0  0  0  0  0  0  0  0
   14.8808  -10.7558  -17.2050 O   0  0  0  0  0  0  0  0  0  0  0  0
   15.3378  -10.1187  -16.0706 C   0  0  0  0  0  0  0  0  0  0  0  0
   16.8292  -10.2138  -15.9985 C   0  0  2  0  0  0  0  0  0  0  0  0
   17.2144  -11.5725  -15.7182 N   0  0  0  0  0  0  0  0  0  0  0  0
   17.4159   -9.2520  -15.0292 C   0  0  0  0  0  0  0  0  0  0  0  0
   17.4052   -9.5319  -13.8015 O   0  0  0  0  0  0  0  0  0  0  0  0
   22.8565   -6.4295  -15.3409 N   0  0  0  0  0  0  0  0  0  0  0  0
   22.2176   -5.7325  -14.2781 C   0  0  0  0  0  0  0  0  0  0  0  0
   22.9147   -4.9298  -13.6351 O   0  0  0  0  0  0  0  0  0  0  0  0
   20.8037   -5.9409  -13.9434 C   0  0  0  0  0  0  0  0  0  0  0  0
   20.0768   -6.9115  -14.8247 C   0  0  0  0  0  0  0  0  0  0  0  0
   18.6350   -7.0889  -14.5013 C   0  0  2  0  0  0  0  0  0  0  0  0
   17.9929   -8.0211  -15.4274 N   0  0  0  0  0  0  0  0  0  0  0  0
   17.8684   -5.8296  -14.4011 C   0  0  0  0  0  0  0  0  0  0  0  0
   17.2454   -5.4491  -15.4463 O   0  0  0  0  0  0  0  0  0  0  0  0
   17.7590   -5.0360  -13.3055 O   0  0  0  0  0  0  0  0  0  0  0  0
  2  1  1  1
  2  3  1  0
  4  5  1  1
  4  2  1  0
  4  6  1  0
  6 11  1  0
  7  6  2  0
  9  8  1  0
 10  9  1  1
 11 10  1  0
 12 20  1  0
 12 10  1  0
 13 12  2  0
 14 15  1  0
 15 16  2  0
 15 17  1  0
 17 18  1  0
 19 18  1  6
 19 20  1  0
 19 21  1  0
 21 23  1  0
 22 21  2  0
M  END
$$$$
