LQV.pdb
     RDKit          3D

 25 24  0  0  1  0  0  0  0  0999 V2000
   27.0942  -19.4911   -7.3854 C   0  0  0  0  0  0  0  0  0  0  0  0
   27.8256  -20.3997   -8.3257 C   0  0  2  0  0  0  0  0  0  0  0  0
   29.3114  -20.0717   -8.1989 C   0  0  0  0  0  0  0  0  0  0  0  0
   27.4473  -20.2107   -9.7575 C   0  0  0  0  0  0  0  0  0  0  0  0
   25.9863  -20.5045  -10.0000 C   0  0  2  0  0  0  0  0  0  0  0  0
   25.7796  -21.9152   -9.8800 N   0  0  0  0  0  0  0  0  0  0  0  0
   25.5440  -20.0504  -11.3371 C   0  0  0  0  0  0  0  0  0  0  0  0
   25.7341  -18.8451  -11.7028 O   0  0  0  0  0  0  0  0  0  0  0  0
   26.7872  -22.8287  -16.3286 N   0  0  0  0  0  0  0  0  0  0  0  0
   27.5121  -22.1223  -15.3123 C   0  0  0  0  0  0  0  0  0  0  0  0
   28.7583  -22.2288  -15.3428 O   0  0  0  0  0  0  0  0  0  0  0  0
   26.8092  -21.3116  -14.2847 C   0  0  0  0  0  0  0  0  0  0  0  0
   25.3275  -21.3855  -14.5796 C   0  0  0  0  0  0  0  0  0  0  0  0
   24.5241  -20.5649  -13.5926 C   0  0  2  0  0  0  0  0  0  0  0  0
   24.9019  -20.9273  -12.2463 N   0  0  0  0  0  0  0  0  0  0  0  0
   23.0697  -20.8029  -13.7378 C   0  0  0  0  0  0  0  0  0  0  0  0
   22.5416  -21.8553  -13.2621 O   0  0  0  0  0  0  0  0  0  0  0  0
   20.2828  -18.5886  -12.6660 C   0  0  0  0  0  0  0  0  0  0  0  0
   20.0301  -18.9456  -14.0917 C   0  0  1  0  0  0  0  0  0  0  0  0
   20.4856  -17.8438  -15.0480 C   0  0  0  0  0  0  0  0  0  0  0  0
   20.7747  -20.2023  -14.5268 C   0  0  2  0  0  0  0  0  0  0  0  0
   22.1870  -19.9165  -14.3899 N   0  0  0  0  0  0  0  0  0  0  0  0
   20.4146  -20.6065  -15.8998 C   0  0  0  0  0  0  0  0  0  0  0  0
   19.2701  -21.0755  -16.1224 O   0  0  0  0  0  0  0  0  0  0  0  0
   21.2806  -20.4973  -16.9784 O   0  0  0  0  0  0  0  0  0  0  0  0
  2  1  1  1
  2  3  1  0
  4  2  1  0
  4  5  1  0
  5  7  1  0
  5  6  1  6
  7  8  2  0
  9 10  1  0
 10 12  1  0
 11 10  2  0
 12 13  1  0
 14 13  1  6
 15 14  1  0
 15  7  1  0
 16 17  2  0
 16 14  1  0
 19 18  1  1
 19 21  1  0
 20 19  1  0
 21 23  1  0
 21 22  1  6
 22 16  1  0
 23 25  1  0
 24 23  2  0
M  END
$$$$
