LQV.pdb
     RDKit          3D

 25 24  0  0  1  0  0  0  0  0999 V2000
   17.9666  -13.0174  -14.5644 C   0  0  0  0  0  0  0  0  0  0  0  0
   17.4854  -12.1328  -15.6737 C   0  0  2  0  0  0  0  0  0  0  0  0
   18.4251  -12.3493  -16.8575 C   0  0  0  0  0  0  0  0  0  0  0  0
   17.5183  -10.6785  -15.3377 C   0  0  0  0  0  0  0  0  0  0  0  0
   16.4860  -10.3147  -14.2977 C   0  0  2  0  0  0  0  0  0  0  0  0
   15.1849  -10.5035  -14.8622 N   0  0  0  0  0  0  0  0  0  0  0  0
   16.6297   -8.9150  -13.8398 C   0  0  0  0  0  0  0  0  0  0  0  0
   16.1394   -7.9600  -14.5255 O   0  0  0  0  0  0  0  0  0  0  0  0
   15.7736   -7.0452   -8.3416 N   0  0  0  0  0  0  0  0  0  0  0  0
   14.9261   -6.7430   -9.4587 C   0  0  0  0  0  0  0  0  0  0  0  0
   13.7292   -6.4910   -9.1960 O   0  0  0  0  0  0  0  0  0  0  0  0
   15.4536   -6.7333  -10.8476 C   0  0  0  0  0  0  0  0  0  0  0  0
   16.9207   -7.0956  -10.7815 C   0  0  0  0  0  0  0  0  0  0  0  0
   17.5184   -7.2424  -12.1650 C   0  0  2  0  0  0  0  0  0  0  0  0
   17.3083   -8.5907  -12.6389 N   0  0  0  0  0  0  0  0  0  0  0  0
   18.9761   -6.9818  -12.1627 C   0  0  0  0  0  0  0  0  0  0  0  0
   19.7327   -7.5777  -11.3349 O   0  0  0  0  0  0  0  0  0  0  0  0
   21.2886   -7.9001  -14.6033 C   0  0  0  0  0  0  0  0  0  0  0  0
   21.5341   -6.4409  -14.4178 C   0  0  1  0  0  0  0  0  0  0  0  0
   20.7990   -5.5987  -15.4600 C   0  0  0  0  0  0  0  0  0  0  0  0
   21.0571   -5.9291  -13.0638 C   0  0  2  0  0  0  0  0  0  0  0  0
   19.6184   -6.0866  -13.0437 N   0  0  0  0  0  0  0  0  0  0  0  0
   21.4720   -4.5327  -12.8270 C   0  0  0  0  0  0  0  0  0  0  0  0
   20.6298   -3.6098  -12.9623 O   0  0  0  0  0  0  0  0  0  0  0  0
   22.7600   -4.1725  -12.4574 O   0  0  0  0  0  0  0  0  0  0  0  0
  2  1  1  1
  2  3  1  0
  4  2  1  0
  4  5  1  0
  5  7  1  0
  5  6  1  6
  7  8  2  0
  9 10  1  0
 10 12  1  0
 11 10  2  0
 12 13  1  0
 14 13  1  1
 15 14  1  0
 15  7  1  0
 16 17  2  0
 16 14  1  0
 19 18  1  6
 19 21  1  0
 20 19  1  0
 21 23  1  0
 21 22  1  6
 22 16  1  0
 23 25  1  0
 24 23  2  0
M  END
$$$$
