LQV.pdb
     RDKit          3D

 25 24  0  0  1  0  0  0  0  0999 V2000
   27.1396  -18.6019   -6.9379 C   0  0  0  0  0  0  0  0  0  0  0  0
   27.4975  -20.0554   -7.0005 C   0  0  2  0  0  0  0  0  0  0  0  0
   28.9898  -20.1618   -6.6958 C   0  0  0  0  0  0  0  0  0  0  0  0
   27.2707  -20.6712   -8.3415 C   0  0  0  0  0  0  0  0  0  0  0  0
   25.9887  -20.1881   -8.9762 C   0  0  2  0  0  0  0  0  0  0  0  0
   24.9179  -21.0289   -8.5365 N   0  0  0  0  0  0  0  0  0  0  0  0
   26.0601  -20.2078  -10.4541 C   0  0  0  0  0  0  0  0  0  0  0  0
   27.0031  -19.6035  -11.0610 O   0  0  0  0  0  0  0  0  0  0  0  0
   27.9790  -21.8473  -14.0118 N   0  0  0  0  0  0  0  0  0  0  0  0
   26.9926  -22.1469  -15.0090 C   0  0  0  0  0  0  0  0  0  0  0  0
   27.3889  -22.1625  -16.1956 O   0  0  0  0  0  0  0  0  0  0  0  0
   25.5801  -22.4221  -14.6397 C   0  0  0  0  0  0  0  0  0  0  0  0
   25.4770  -22.3370  -13.1331 C   0  0  0  0  0  0  0  0  0  0  0  0
   25.1110  -20.9392  -12.6804 C   0  0  2  0  0  0  0  0  0  0  0  0
   25.0958  -20.8899  -11.2368 N   0  0  0  0  0  0  0  0  0  0  0  0
   23.7696  -20.5400  -13.1645 C   0  0  0  0  0  0  0  0  0  0  0  0
   22.7247  -20.9690  -12.5841 O   0  0  0  0  0  0  0  0  0  0  0  0
   23.3741  -17.0814  -15.0367 C   0  0  0  0  0  0  0  0  0  0  0  0
   22.3895  -18.0649  -15.5727 C   0  0  1  0  0  0  0  0  0  0  0  0
   22.8112  -18.6140  -16.9352 C   0  0  0  0  0  0  0  0  0  0  0  0
   22.2213  -19.2829  -14.6720 C   0  0  2  0  0  0  0  0  0  0  0  0
   23.5507  -19.6853  -14.2652 N   0  0  0  0  0  0  0  0  0  0  0  0
   21.4887  -20.3702  -15.3497 C   0  0  0  0  0  0  0  0  0  0  0  0
   22.1326  -21.2427  -15.9848 O   0  0  0  0  0  0  0  0  0  0  0  0
   20.1063  -20.4879  -15.3263 O   0  0  0  0  0  0  0  0  0  0  0  0
  2  1  1  6
  2  3  1  0
  4  2  1  0
  4  5  1  0
  5  7  1  0
  5  6  1  6
  7  8  2  0
  9 10  1  0
 10 12  1  0
 11 10  2  0
 12 13  1  0
 14 13  1  1
 15 14  1  0
 15  7  1  0
 16 17  2  0
 16 14  1  0
 19 18  1  1
 19 21  1  0
 20 19  1  0
 21 23  1  0
 21 22  1  6
 22 16  1  0
 23 25  1  0
 24 23  2  0
M  END
$$$$
