LQV.pdb
     RDKit          3D

 25 24  0  0  1  0  0  0  0  0999 V2000
   14.9531  -14.4906  -19.1474 C   0  0  0  0  0  0  0  0  0  0  0  0
   16.3915  -14.3199  -18.7642 C   0  0  2  0  0  0  0  0  0  0  0  0
   17.0578  -15.6860  -18.9099 C   0  0  0  0  0  0  0  0  0  0  0  0
   16.5869  -13.8763  -17.3521 C   0  0  0  0  0  0  0  0  0  0  0  0
   18.0407  -13.6189  -17.0361 C   0  0  2  0  0  0  0  0  0  0  0  0
   18.5868  -14.7891  -16.4200 N   0  0  0  0  0  0  0  0  0  0  0  0
   18.2153  -12.4572  -16.1364 C   0  0  0  0  0  0  0  0  0  0  0  0
   17.8504  -12.5264  -14.9179 O   0  0  0  0  0  0  0  0  0  0  0  0
   23.1556   -9.6497  -15.0809 N   0  0  0  0  0  0  0  0  0  0  0  0
   22.2977   -8.6330  -14.5447 C   0  0  0  0  0  0  0  0  0  0  0  0
   22.8577   -7.7094  -13.9133 O   0  0  0  0  0  0  0  0  0  0  0  0
   20.8252   -8.6854  -14.7358 C   0  0  0  0  0  0  0  0  0  0  0  0
   20.5052   -9.9692  -15.4688 C   0  0  0  0  0  0  0  0  0  0  0  0
   19.0224  -10.0927  -15.7495 C   0  0  2  0  0  0  0  0  0  0  0  0
   18.7865  -11.2428  -16.5910 N   0  0  0  0  0  0  0  0  0  0  0  0
   18.4962   -8.8991  -16.4505 C   0  0  0  0  0  0  0  0  0  0  0  0
   18.7931   -8.6872  -17.6670 O   0  0  0  0  0  0  0  0  0  0  0  0
   15.2259   -7.0841  -15.1276 C   0  0  0  0  0  0  0  0  0  0  0  0
   15.7596   -6.6200  -16.4405 C   0  0  1  0  0  0  0  0  0  0  0  0
   15.4233   -5.1537  -16.7102 C   0  0  0  0  0  0  0  0  0  0  0  0
   17.2780   -6.7172  -16.5286 C   0  0  2  0  0  0  0  0  0  0  0  0
   17.6560   -7.9384  -15.8496 N   0  0  0  0  0  0  0  0  0  0  0  0
   17.9388   -5.5288  -15.9550 C   0  0  0  0  0  0  0  0  0  0  0  0
   18.3146   -5.5529  -14.7560 O   0  0  0  0  0  0  0  0  0  0  0  0
   18.1736   -4.3657  -16.6743 O   0  0  0  0  0  0  0  0  0  0  0  0
  2  1  1  1
  2  3  1  0
  4  2  1  0
  4  5  1  0
  5  7  1  0
  5  6  1  1
  7  8  2  0
  9 10  1  0
 10 12  1  0
 11 10  2  0
 12 13  1  0
 14 13  1  6
 15 14  1  0
 15  7  1  0
 16 17  2  0
 16 14  1  0
 19 18  1  1
 19 21  1  0
 20 19  1  0
 21 23  1  0
 21 22  1  1
 22 16  1  0
 23 25  1  0
 24 23  2  0
M  END
$$$$
