LQV.pdb
     RDKit          3D

 25 24  0  0  1  0  0  0  0  0999 V2000
   27.6382  -18.6950   -6.4126 C   0  0  0  0  0  0  0  0  0  0  0  0
   27.8749  -20.1542   -6.6560 C   0  0  2  0  0  0  0  0  0  0  0  0
   29.3797  -20.3876   -6.5444 C   0  0  0  0  0  0  0  0  0  0  0  0
   27.4515  -20.6119   -8.0125 C   0  0  0  0  0  0  0  0  0  0  0  0
   25.9866  -20.3488   -8.2666 C   0  0  2  0  0  0  0  0  0  0  0  0
   25.2285  -21.4350   -7.7258 N   0  0  0  0  0  0  0  0  0  0  0  0
   25.6909  -20.2074   -9.7095 C   0  0  0  0  0  0  0  0  0  0  0  0
   26.1121  -19.1941  -10.3565 O   0  0  0  0  0  0  0  0  0  0  0  0
   26.1270  -20.9823  -14.6502 N   0  0  0  0  0  0  0  0  0  0  0  0
   27.1582  -21.4465  -13.7679 C   0  0  0  0  0  0  0  0  0  0  0  0
   28.3318  -21.1414  -14.0757 O   0  0  0  0  0  0  0  0  0  0  0  0
   26.8368  -22.2458  -12.5574 C   0  0  0  0  0  0  0  0  0  0  0  0
   25.3314  -22.3707  -12.4791 C   0  0  0  0  0  0  0  0  0  0  0  0
   24.7062  -21.1490  -11.8394 C   0  0  2  0  0  0  0  0  0  0  0  0
   24.9392  -21.1802  -10.4141 N   0  0  0  0  0  0  0  0  0  0  0  0
   23.2428  -21.1025  -12.0613 C   0  0  0  0  0  0  0  0  0  0  0  0
   22.4716  -21.8792  -11.4173 O   0  0  0  0  0  0  0  0  0  0  0  0
   20.9471  -17.9211  -12.3499 C   0  0  0  0  0  0  0  0  0  0  0  0
   20.7480  -18.8398  -13.5075 C   0  0  1  0  0  0  0  0  0  0  0  0
   21.5590  -18.4077  -14.7287 C   0  0  0  0  0  0  0  0  0  0  0  0
   21.1836  -20.2695  -13.2086 C   0  0  2  0  0  0  0  0  0  0  0  0
   22.6104  -20.2273  -12.9692 N   0  0  0  0  0  0  0  0  0  0  0  0
   20.8253  -21.1930  -14.3026 C   0  0  0  0  0  0  0  0  0  0  0  0
   21.6753  -21.4528  -15.1911 O   0  0  0  0  0  0  0  0  0  0  0  0
   19.5832  -21.8021  -14.4099 O   0  0  0  0  0  0  0  0  0  0  0  0
  2  1  1  6
  2  3  1  0
  4  2  1  0
  4  5  1  0
  5  7  1  0
  5  6  1  6
  7  8  2  0
  9 10  1  0
 10 12  1  0
 11 10  2  0
 12 13  1  0
 14 13  1  6
 15 14  1  0
 15  7  1  0
 16 17  2  0
 16 14  1  0
 19 18  1  1
 19 21  1  0
 20 19  1  0
 21 23  1  0
 21 22  1  6
 22 16  1  0
 23 25  1  0
 24 23  2  0
M  END
$$$$
