LQV.pdb
     RDKit          3D

 25 24  0  0  1  0  0  0  0  0999 V2000
   23.6587  -19.4695   -9.3932 C   0  0  0  0  0  0  0  0  0  0  0  0
   23.8641  -20.9167   -9.7220 C   0  0  2  0  0  0  0  0  0  0  0  0
   25.0423  -21.4031   -8.8815 C   0  0  0  0  0  0  0  0  0  0  0  0
   24.2056  -21.1633  -11.1544 C   0  0  0  0  0  0  0  0  0  0  0  0
   23.2060  -20.5288  -12.0914 C   0  0  2  0  0  0  0  0  0  0  0  0
   21.9496  -21.1955  -11.9362 N   0  0  0  0  0  0  0  0  0  0  0  0
   23.6402  -20.6112  -13.5036 C   0  0  0  0  0  0  0  0  0  0  0  0
   24.2124  -21.6620  -13.9407 O   0  0  0  0  0  0  0  0  0  0  0  0
   23.0866  -21.7683  -18.2760 N   0  0  0  0  0  0  0  0  0  0  0  0
   22.2002  -22.1586  -17.2180 C   0  0  0  0  0  0  0  0  0  0  0  0
   21.8398  -23.3566  -17.2086 O   0  0  0  0  0  0  0  0  0  0  0  0
   21.7423  -21.1833  -16.1950 C   0  0  0  0  0  0  0  0  0  0  0  0
   22.3460  -19.8404  -16.5418 C   0  0  0  0  0  0  0  0  0  0  0  0
   23.6662  -19.6261  -15.8319 C   0  0  2  0  0  0  0  0  0  0  0  0
   23.4380  -19.5394  -14.4082 N   0  0  0  0  0  0  0  0  0  0  0  0
   24.3243  -18.3723  -16.2655 C   0  0  0  0  0  0  0  0  0  0  0  0
   23.7258  -17.2588  -16.1437 O   0  0  0  0  0  0  0  0  0  0  0  0
   27.3755  -16.8659  -15.1007 C   0  0  0  0  0  0  0  0  0  0  0  0
   27.5221  -16.9005  -16.5843 C   0  0  1  0  0  0  0  0  0  0  0  0
   28.3971  -18.0651  -17.0470 C   0  0  0  0  0  0  0  0  0  0  0  0
   26.1906  -17.0739  -17.3055 C   0  0  2  0  0  0  0  0  0  0  0  0
   25.6173  -18.3136  -16.8265 N   0  0  0  0  0  0  0  0  0  0  0  0
   26.3545  -17.0614  -18.7722 C   0  0  0  0  0  0  0  0  0  0  0  0
   26.2110  -18.1311  -19.4160 O   0  0  0  0  0  0  0  0  0  0  0  0
   26.6632  -15.9178  -19.4949 O   0  0  0  0  0  0  0  0  0  0  0  0
  2  1  1  6
  2  3  1  0
  4  2  1  0
  4  5  1  0
  5  7  1  0
  5  6  1  6
  7  8  2  0
  9 10  1  0
 10 12  1  0
 11 10  2  0
 12 13  1  0
 14 13  1  6
 15 14  1  0
 15  7  1  0
 16 17  2  0
 16 14  1  0
 19 18  1  1
 19 21  1  0
 20 19  1  0
 21 23  1  0
 21 22  1  1
 22 16  1  0
 23 25  1  0
 24 23  2  0
M  END
$$$$
