LQV.pdb
     RDKit          3D

 25 24  0  0  1  0  0  0  0  0999 V2000
   29.0985  -22.1303  -12.3587 C   0  0  0  0  0  0  0  0  0  0  0  0
   29.4063  -20.7186  -12.7553 C   0  0  2  0  0  0  0  0  0  0  0  0
   30.2133  -20.1002  -11.6162 C   0  0  0  0  0  0  0  0  0  0  0  0
   28.1916  -19.8730  -12.9522 C   0  0  0  0  0  0  0  0  0  0  0  0
   27.3600  -20.3415  -14.1221 C   0  0  2  0  0  0  0  0  0  0  0  0
   28.0935  -20.1021  -15.3270 N   0  0  0  0  0  0  0  0  0  0  0  0
   26.0556  -19.6459  -14.1888 C   0  0  0  0  0  0  0  0  0  0  0  0
   25.9860  -18.3888  -13.9949 O   0  0  0  0  0  0  0  0  0  0  0  0
   25.5034  -20.0038  -17.4805 N   0  0  0  0  0  0  0  0  0  0  0  0
   24.8400  -18.7349  -17.5643 C   0  0  0  0  0  0  0  0  0  0  0  0
   25.3843  -17.8698  -18.2858 O   0  0  0  0  0  0  0  0  0  0  0  0
   23.5754  -18.4747  -16.8292 C   0  0  0  0  0  0  0  0  0  0  0  0
   23.1905  -19.7520  -16.1161 C   0  0  0  0  0  0  0  0  0  0  0  0
   23.5707  -19.7054  -14.6512 C   0  0  2  0  0  0  0  0  0  0  0  0
   24.8538  -20.3430  -14.4669 N   0  0  0  0  0  0  0  0  0  0  0  0
   22.5833  -20.4150  -13.8059 C   0  0  0  0  0  0  0  0  0  0  0  0
   22.4710  -21.6781  -13.8742 O   0  0  0  0  0  0  0  0  0  0  0  0
   19.6068  -20.2852   -9.8547 C   0  0  0  0  0  0  0  0  0  0  0  0
   20.5379  -19.6435  -10.8269 C   0  0  1  0  0  0  0  0  0  0  0  0
   21.9077  -19.3633  -10.2096 C   0  0  0  0  0  0  0  0  0  0  0  0
   20.8071  -20.5132  -12.0492 C   0  0  2  0  0  0  0  0  0  0  0  0
   21.7212  -19.7727  -12.8925 N   0  0  0  0  0  0  0  0  0  0  0  0
   19.5607  -20.8728  -12.7529 C   0  0  0  0  0  0  0  0  0  0  0  0
   19.1030  -20.0961  -13.6285 O   0  0  0  0  0  0  0  0  0  0  0  0
   18.8519  -22.0385  -12.5002 O   0  0  0  0  0  0  0  0  0  0  0  0
  2  1  1  1
  2  3  1  0
  4  2  1  0
  4  5  1  0
  5  7  1  0
  5  6  1  6
  7  8  2  0
  9 10  1  0
 10 12  1  0
 11 10  2  0
 12 13  1  0
 14 13  1  6
 15 14  1  0
 15  7  1  0
 16 17  2  0
 16 14  1  0
 19 18  1  1
 19 21  1  0
 20 19  1  0
 21 23  1  0
 21 22  1  6
 22 16  1  0
 23 25  1  0
 24 23  2  0
M  END
$$$$
