LQV.pdb
     RDKit          3D

 25 24  0  0  1  0  0  0  0  0999 V2000
   27.4898  -21.1341   -6.3313 C   0  0  0  0  0  0  0  0  0  0  0  0
   28.0061  -19.9472   -7.0860 C   0  0  2  0  0  0  0  0  0  0  0  0
   27.8565  -18.7353   -6.1695 C   0  0  0  0  0  0  0  0  0  0  0  0
   27.2466  -19.6564   -8.3381 C   0  0  0  0  0  0  0  0  0  0  0  0
   27.3694  -20.7735   -9.3464 C   0  0  2  0  0  0  0  0  0  0  0  0
   28.7386  -20.8744   -9.7495 N   0  0  0  0  0  0  0  0  0  0  0  0
   26.5181  -20.5438  -10.5347 C   0  0  0  0  0  0  0  0  0  0  0  0
   26.6828  -19.5049  -11.2532 O   0  0  0  0  0  0  0  0  0  0  0  0
   26.5229  -22.1483  -15.1778 N   0  0  0  0  0  0  0  0  0  0  0  0
   25.0900  -22.0845  -15.1733 C   0  0  0  0  0  0  0  0  0  0  0  0
   24.5637  -21.3510  -16.0395 O   0  0  0  0  0  0  0  0  0  0  0  0
   24.2859  -22.8528  -14.1882 C   0  0  0  0  0  0  0  0  0  0  0  0
   25.0114  -22.7951  -12.8622 C   0  0  0  0  0  0  0  0  0  0  0  0
   24.8375  -21.4478  -12.1932 C   0  0  2  0  0  0  0  0  0  0  0  0
   25.5032  -21.4581  -10.9113 N   0  0  0  0  0  0  0  0  0  0  0  0
   23.4095  -21.1305  -11.9629 C   0  0  0  0  0  0  0  0  0  0  0  0
   22.8232  -21.5387  -10.9130 O   0  0  0  0  0  0  0  0  0  0  0  0
   21.6467  -18.4758  -14.4579 C   0  0  0  0  0  0  0  0  0  0  0  0
   20.9328  -18.7202  -13.1717 C   0  0  1  0  0  0  0  0  0  0  0  0
   19.4149  -18.6491  -13.3359 C   0  0  0  0  0  0  0  0  0  0  0  0
   21.2199  -20.0992  -12.5895 C   0  0  2  0  0  0  0  0  0  0  0  0
   22.6150  -20.3794  -12.8544 N   0  0  0  0  0  0  0  0  0  0  0  0
   20.3244  -21.1296  -13.1503 C   0  0  0  0  0  0  0  0  0  0  0  0
   20.7244  -21.8355  -14.1100 O   0  0  0  0  0  0  0  0  0  0  0  0
   19.0442  -21.3690  -12.6718 O   0  0  0  0  0  0  0  0  0  0  0  0
  2  1  1  1
  2  3  1  0
  4  2  1  0
  4  5  1  0
  5  7  1  0
  5  6  1  6
  7  8  2  0
  9 10  1  0
 10 12  1  0
 11 10  2  0
 12 13  1  0
 14 13  1  1
 15 14  1  0
 15  7  1  0
 16 17  2  0
 16 14  1  0
 19 18  1  6
 19 21  1  0
 20 19  1  0
 21 23  1  0
 21 22  1  6
 22 16  1  0
 23 25  1  0
 24 23  2  0
M  END
$$$$
