LQV.pdb
     RDKit          3D

 25 24  0  0  1  0  0  0  0  0999 V2000
   22.1492  -16.2740  -14.6901 C   0  0  0  0  0  0  0  0  0  0  0  0
   23.1286  -15.5877  -15.5926 C   0  0  2  0  0  0  0  0  0  0  0  0
   24.4267  -15.4284  -14.8047 C   0  0  0  0  0  0  0  0  0  0  0  0
   22.6958  -14.2243  -16.0203 C   0  0  0  0  0  0  0  0  0  0  0  0
   21.3993  -14.2590  -16.7933 C   0  0  2  0  0  0  0  0  0  0  0  0
   21.6258  -14.9385  -18.0319 N   0  0  0  0  0  0  0  0  0  0  0  0
   20.8770  -12.9007  -17.0611 C   0  0  0  0  0  0  0  0  0  0  0  0
   21.3179  -12.2242  -18.0463 O   0  0  0  0  0  0  0  0  0  0  0  0
   15.2457  -11.0032  -15.3607 N   0  0  0  0  0  0  0  0  0  0  0  0
   15.7487   -9.8170  -15.9909 C   0  0  0  0  0  0  0  0  0  0  0  0
   14.9238   -8.8957  -16.1800 O   0  0  0  0  0  0  0  0  0  0  0  0
   17.1744   -9.7014  -16.3926 C   0  0  0  0  0  0  0  0  0  0  0  0
   17.8420  -11.0254  -16.0937 C   0  0  0  0  0  0  0  0  0  0  0  0
   19.3066  -11.0071  -16.4775 C   0  0  2  0  0  0  0  0  0  0  0  0
   19.8814  -12.3114  -16.2429 N   0  0  0  0  0  0  0  0  0  0  0  0
   20.0703  -10.0217  -15.6782 C   0  0  0  0  0  0  0  0  0  0  0  0
   20.3124  -10.2412  -14.4510 O   0  0  0  0  0  0  0  0  0  0  0  0
   23.4546   -8.6995  -16.6943 C   0  0  0  0  0  0  0  0  0  0  0  0
   22.5885   -7.5436  -16.3232 C   0  0  1  0  0  0  0  0  0  0  0  0
   21.9478   -6.8909  -17.5476 C   0  0  0  0  0  0  0  0  0  0  0  0
   21.4307   -7.9407  -15.4150 C   0  0  2  0  0  0  0  0  0  0  0  0
   20.5713   -8.8076  -16.1928 N   0  0  0  0  0  0  0  0  0  0  0  0
   20.7133   -6.7617  -14.8922 C   0  0  0  0  0  0  0  0  0  0  0  0
   19.5902   -6.4633  -15.3708 O   0  0  0  0  0  0  0  0  0  0  0  0
   21.2146   -5.9490  -13.8855 O   0  0  0  0  0  0  0  0  0  0  0  0
  2  1  1  1
  2  3  1  0
  4  2  1  0
  4  5  1  0
  5  7  1  0
  5  6  1  6
  7  8  2  0
  9 10  1  0
 10 12  1  0
 11 10  2  0
 12 13  1  0
 14 13  1  1
 15 14  1  0
 15  7  1  0
 16 17  2  0
 16 14  1  0
 19 18  1  6
 19 21  1  0
 20 19  1  0
 21 23  1  0
 21 22  1  6
 22 16  1  0
 23 25  1  0
 24 23  2  0
M  END
$$$$
