LQV.pdb
     RDKit          3D

 25 24  0  0  1  0  0  0  0  0999 V2000
   26.2069  -15.7694  -15.3769 C   0  0  0  0  0  0  0  0  0  0  0  0
   25.1285  -16.0015  -16.3908 C   0  0  2  0  0  0  0  0  0  0  0  0
   25.8075  -16.5291  -17.6525 C   0  0  0  0  0  0  0  0  0  0  0  0
   24.3846  -14.7634  -16.7686 C   0  0  0  0  0  0  0  0  0  0  0  0
   23.5878  -14.2075  -15.6128 C   0  0  2  0  0  0  0  0  0  0  0  0
   22.8175  -15.2680  -15.0390 N   0  0  0  0  0  0  0  0  0  0  0  0
   22.6867  -13.1129  -16.0363 C   0  0  0  0  0  0  0  0  0  0  0  0
   23.1007  -12.2114  -16.8355 O   0  0  0  0  0  0  0  0  0  0  0  0
   17.3657  -13.1856  -17.5573 N   0  0  0  0  0  0  0  0  0  0  0  0
   17.1403  -11.8794  -17.0093 C   0  0  0  0  0  0  0  0  0  0  0  0
   16.1784  -11.2358  -17.4844 O   0  0  0  0  0  0  0  0  0  0  0  0
   18.0094  -11.3319  -15.9358 C   0  0  0  0  0  0  0  0  0  0  0  0
   19.0172  -12.4005  -15.5746 C   0  0  0  0  0  0  0  0  0  0  0  0
   20.4228  -11.9900  -15.9600 C   0  0  2  0  0  0  0  0  0  0  0  0
   21.3497  -13.0289  -15.5749 N   0  0  0  0  0  0  0  0  0  0  0  0
   20.8333  -10.7386  -15.2829 C   0  0  0  0  0  0  0  0  0  0  0  0
   21.0030  -10.7164  -14.0246 O   0  0  0  0  0  0  0  0  0  0  0  0
   23.8149   -8.5929  -16.1216 C   0  0  0  0  0  0  0  0  0  0  0  0
   22.6133   -7.7120  -16.0586 C   0  0  1  0  0  0  0  0  0  0  0  0
   22.0321   -7.4348  -17.4447 C   0  0  0  0  0  0  0  0  0  0  0  0
   21.4751   -8.3225  -15.2494 C   0  0  2  0  0  0  0  0  0  0  0  0
   21.0605   -9.5178  -15.9524 N   0  0  0  0  0  0  0  0  0  0  0  0
   20.3641   -7.3699  -15.0587 C   0  0  0  0  0  0  0  0  0  0  0  0
   20.5326   -6.3693  -14.3172 O   0  0  0  0  0  0  0  0  0  0  0  0
   19.1225   -7.5166  -15.6605 O   0  0  0  0  0  0  0  0  0  0  0  0
  2  1  1  1
  2  3  1  0
  4  2  1  0
  4  5  1  0
  5  7  1  0
  5  6  1  6
  7  8  2  0
  9 10  1  0
 10 12  1  0
 11 10  2  0
 12 13  1  0
 14 13  1  1
 15 14  1  0
 15  7  1  0
 16 17  2  0
 16 14  1  0
 19 18  1  6
 19 21  1  0
 20 19  1  0
 21 23  1  0
 21 22  1  6
 22 16  1  0
 23 25  1  0
 24 23  2  0
M  END
$$$$
