NYR.pdb
     RDKit          3D

 32 32  0  0  1  0  0  0  0  0999 V2000
   15.0303  -15.2685   17.4344 N   0  0  0  0  0  0  0  0  0  0  0  0
   14.2980  -14.0831   17.6630 C   0  0  0  0  0  0  0  0  0  0  0  0
   14.6097  -13.0313   17.0621 O   0  0  0  0  0  0  0  0  0  0  0  0
   13.1623  -14.0600   18.6051 C   0  0  0  0  0  0  0  0  0  0  0  0
   12.9289  -15.4365   19.2256 C   0  0  2  0  0  0  0  0  0  0  0  0
   12.1282  -16.2032   18.3233 N   0  0  0  0  0  0  0  0  0  0  0  0
   12.2255  -15.2413   20.5495 C   0  0  0  0  0  0  0  0  0  0  0  0
   12.8496  -14.7878   21.5376 O   0  0  0  0  0  0  0  0  0  0  0  0
    7.3972  -12.3203   16.9536 O   0  0  0  0  0  0  0  0  0  0  0  0
    7.7113  -13.0020   18.1320 C   0  0  0  0  0  0  0  0  0  0  0  0
    7.5130  -14.3873   18.1189 C   0  0  0  0  0  0  0  0  0  0  0  0
    7.8149  -15.1004   19.2749 C   0  0  0  0  0  0  0  0  0  0  0  0
    8.2951  -14.4827   20.4083 C   0  0  0  0  0  0  0  0  0  0  0  0
    8.6081  -15.2568   21.6220 C   0  0  0  0  0  0  0  0  0  0  0  0
   10.0593  -15.4463   21.8632 C   0  0  2  0  0  0  0  0  0  0  0  0
   10.8514  -15.5692   20.6892 N   0  0  0  0  0  0  0  0  0  0  0  0
   10.2298  -16.5756   22.8408 C   0  0  0  0  0  0  0  0  0  0  0  0
    9.6457  -17.6715   22.6788 O   0  0  0  0  0  0  0  0  0  0  0  0
    8.4815  -13.1176   20.3946 C   0  0  0  0  0  0  0  0  0  0  0  0
    8.1901  -12.3644   19.2528 C   0  0  0  0  0  0  0  0  0  0  0  0
   17.5334  -18.6650   23.3114 N   0  0  0  0  0  0  0  0  0  0  0  0
   17.3091  -17.2921   23.5759 C   0  0  0  0  0  0  0  0  0  0  0  0
   18.2525  -16.4129   23.4455 N   0  0  0  0  0  0  0  0  0  0  0  0
   16.0099  -16.8938   23.9921 N   0  0  0  0  0  0  0  0  0  0  0  0
   14.9844  -17.8973   24.0999 C   0  0  0  0  0  0  0  0  0  0  0  0
   13.7042  -17.1591   24.5200 C   0  0  0  0  0  0  0  0  0  0  0  0
   12.6115  -18.1808   24.4782 C   0  0  0  0  0  0  0  0  0  0  0  0
   11.2709  -17.6216   24.8836 C   0  0  2  0  0  0  0  0  0  0  0  0
   11.0549  -16.4626   23.9897 N   0  0  0  0  0  0  0  0  0  0  0  0
   11.3653  -17.1506   26.2892 C   0  0  0  0  0  0  0  0  0  0  0  0
   11.5296  -17.8737   27.2816 O   0  0  0  0  0  0  0  0  0  0  0  0
   11.2612  -15.7717   26.5284 O   0  0  0  0  0  0  0  0  0  0  0  0
  2  1  1  0
  3  2  2  0
  4  2  1  0
  5  6  1  6
  5  4  1  0
  7  5  1  0
  8  7  2  0
  9 10  1  0
 10 20  2  0
 10 11  1  0
 11 12  2  0
 12 13  1  0
 13 14  1  0
 15 14  1  6
 15 16  1  0
 16  7  1  0
 17 29  1  0
 17 15  1  0
 18 17  2  0
 19 13  2  0
 20 19  1  0
 21 22  1  0
 22 24  1  0
 22 23  2  0
 24 25  1  0
 26 25  1  0
 27 26  1  0
 28 27  1  6
 28 29  1  0
 30 32  1  0
 30 28  1  0
 31 30  2  0
M  END
$$$$
