NYR.pdb
     RDKit          3D

 32 32  0  0  1  0  0  0  0  0999 V2000
   10.0958  -20.0531   17.0081 N   0  0  0  0  0  0  0  0  0  0  0  0
   11.4139  -19.7163   17.3859 C   0  0  0  0  0  0  0  0  0  0  0  0
   12.3623  -20.4740   17.0846 O   0  0  0  0  0  0  0  0  0  0  0  0
   11.6974  -18.4771   18.1357 C   0  0  0  0  0  0  0  0  0  0  0  0
   10.4117  -17.7165   18.4555 C   0  0  2  0  0  0  0  0  0  0  0  0
   10.1762  -16.7759   17.4053 N   0  0  0  0  0  0  0  0  0  0  0  0
   10.5977  -17.0178   19.7833 C   0  0  0  0  0  0  0  0  0  0  0  0
   11.6791  -16.4428   20.0505 O   0  0  0  0  0  0  0  0  0  0  0  0
    6.9767  -11.8992   18.1398 O   0  0  0  0  0  0  0  0  0  0  0  0
    7.2749  -12.8307   19.1375 C   0  0  0  0  0  0  0  0  0  0  0  0
    8.2179  -12.4357   20.0931 C   0  0  0  0  0  0  0  0  0  0  0  0
    8.5405  -13.3374   21.1025 C   0  0  0  0  0  0  0  0  0  0  0  0
    7.9622  -14.5850   21.1783 C   0  0  0  0  0  0  0  0  0  0  0  0
    8.3186  -15.5246   22.2555 C   0  0  0  0  0  0  0  0  0  0  0  0
    9.5421  -16.3191   21.9873 C   0  0  2  0  0  0  0  0  0  0  0  0
    9.5509  -17.0048   20.7422 N   0  0  0  0  0  0  0  0  0  0  0  0
    9.7997  -17.2014   23.1769 C   0  0  0  0  0  0  0  0  0  0  0  0
    8.9684  -18.0649   23.5400 O   0  0  0  0  0  0  0  0  0  0  0  0
    7.0366  -14.9489   20.2248 C   0  0  0  0  0  0  0  0  0  0  0  0
    6.6847  -14.0719   19.1938 C   0  0  0  0  0  0  0  0  0  0  0  0
   17.2962  -19.6341   23.0907 N   0  0  0  0  0  0  0  0  0  0  0  0
   16.3384  -20.0150   22.1198 C   0  0  0  0  0  0  0  0  0  0  0  0
   16.6784  -20.6573   21.0466 N   0  0  0  0  0  0  0  0  0  0  0  0
   14.9782  -19.6741   22.3512 N   0  0  0  0  0  0  0  0  0  0  0  0
   14.6167  -19.1142   23.6264 C   0  0  0  0  0  0  0  0  0  0  0  0
   13.0961  -18.8994   23.5852 C   0  0  0  0  0  0  0  0  0  0  0  0
   12.7201  -18.3821   24.9382 C   0  0  0  0  0  0  0  0  0  0  0  0
   11.2531  -18.0515   25.0520 C   0  0  2  0  0  0  0  0  0  0  0  0
   10.9884  -17.1053   23.9459 N   0  0  0  0  0  0  0  0  0  0  0  0
   11.0261  -17.3687   26.3514 C   0  0  0  0  0  0  0  0  0  0  0  0
   11.1135  -17.8979   27.4681 O   0  0  0  0  0  0  0  0  0  0  0  0
   10.6826  -16.0082   26.3273 O   0  0  0  0  0  0  0  0  0  0  0  0
  2  1  1  0
  3  2  2  0
  4  2  1  0
  5  6  1  6
  5  4  1  0
  7  5  1  0
  8  7  2  0
  9 10  1  0
 10 20  2  0
 10 11  1  0
 11 12  2  0
 12 13  1  0
 13 14  1  0
 15 14  1  1
 15 16  1  0
 16  7  1  0
 17 29  1  0
 17 15  1  0
 18 17  2  0
 19 13  2  0
 20 19  1  0
 21 22  1  0
 22 24  1  0
 22 23  2  0
 24 25  1  0
 26 25  1  0
 27 26  1  0
 28 27  1  1
 28 29  1  0
 30 32  1  0
 30 28  1  0
 31 30  2  0
M  END
$$$$
