NYR.pdb
     RDKit          3D

 32 32  0  0  1  0  0  0  0  0999 V2000
    7.4462  -17.4425   16.6749 N   0  0  0  0  0  0  0  0  0  0  0  0
    8.0628  -16.1728   16.6378 C   0  0  0  0  0  0  0  0  0  0  0  0
    8.3412  -15.6463   15.5379 O   0  0  0  0  0  0  0  0  0  0  0  0
    8.3880  -15.4481   17.8816 C   0  0  0  0  0  0  0  0  0  0  0  0
    8.0060  -16.2650   19.1148 C   0  0  2  0  0  0  0  0  0  0  0  0
    6.5819  -16.3822   19.1494 N   0  0  0  0  0  0  0  0  0  0  0  0
    8.5245  -15.5408   20.3365 C   0  0  0  0  0  0  0  0  0  0  0  0
    9.7418  -15.2588   20.4366 O   0  0  0  0  0  0  0  0  0  0  0  0
    8.3598  -12.8905   28.8038 O   0  0  0  0  0  0  0  0  0  0  0  0
    7.9883  -13.2352   27.5017 C   0  0  0  0  0  0  0  0  0  0  0  0
    8.3215  -12.3184   26.4982 C   0  0  0  0  0  0  0  0  0  0  0  0
    7.9674  -12.6276   25.1887 C   0  0  0  0  0  0  0  0  0  0  0  0
    7.3091  -13.7937   24.8671 C   0  0  0  0  0  0  0  0  0  0  0  0
    6.9431  -14.1013   23.4736 C   0  0  0  0  0  0  0  0  0  0  0  0
    7.9914  -14.8289   22.7175 C   0  0  2  0  0  0  0  0  0  0  0  0
    7.6397  -15.1719   21.3836 N   0  0  0  0  0  0  0  0  0  0  0  0
    8.4496  -15.9930   23.5511 C   0  0  0  0  0  0  0  0  0  0  0  0
    7.6952  -16.9653   23.7832 O   0  0  0  0  0  0  0  0  0  0  0  0
    6.9928  -14.6793   25.8740 C   0  0  0  0  0  0  0  0  0  0  0  0
    7.3310  -14.4060   27.2033 C   0  0  0  0  0  0  0  0  0  0  0  0
   15.5522  -18.6037   26.0923 N   0  0  0  0  0  0  0  0  0  0  0  0
   15.3137  -19.8870   25.5433 C   0  0  0  0  0  0  0  0  0  0  0  0
   16.0290  -20.9136   25.8818 N   0  0  0  0  0  0  0  0  0  0  0  0
   14.2588  -20.0269   24.6013 N   0  0  0  0  0  0  0  0  0  0  0  0
   13.6337  -18.8375   24.0868 C   0  0  0  0  0  0  0  0  0  0  0  0
   12.2864  -18.7117   24.8143 C   0  0  0  0  0  0  0  0  0  0  0  0
   11.6028  -17.5278   24.2056 C   0  0  0  0  0  0  0  0  0  0  0  0
   10.2305  -17.2838   24.7815 C   0  0  2  0  0  0  0  0  0  0  0  0
    9.7505  -16.0532   24.1148 N   0  0  0  0  0  0  0  0  0  0  0  0
   10.3715  -17.0334   26.2387 C   0  0  0  0  0  0  0  0  0  0  0  0
   10.4847  -15.9204   26.7707 O   0  0  0  0  0  0  0  0  0  0  0  0
   10.3788  -18.1429   27.0982 O   0  0  0  0  0  0  0  0  0  0  0  0
  2  1  1  0
  3  2  2  0
  4  2  1  0
  5  6  1  1
  5  4  1  0
  7  5  1  0
  8  7  2  0
  9 10  1  0
 10 20  2  0
 10 11  1  0
 11 12  2  0
 12 13  1  0
 13 14  1  0
 15 14  1  1
 15 16  1  0
 16  7  1  0
 17 29  1  0
 17 15  1  0
 18 17  2  0
 19 13  2  0
 20 19  1  0
 21 22  1  0
 22 24  1  0
 22 23  2  0
 24 25  1  0
 26 25  1  0
 27 26  1  0
 28 27  1  6
 28 29  1  0
 30 32  1  0
 30 28  1  0
 31 30  2  0
M  END
$$$$
