NYR.pdb
     RDKit          3D

 32 32  0  0  1  0  0  0  0  0999 V2000
    5.9551  -21.1840   17.3748 N   0  0  0  0  0  0  0  0  0  0  0  0
    6.4761  -21.0477   18.6800 C   0  0  0  0  0  0  0  0  0  0  0  0
    6.6187  -22.0579   19.4035 O   0  0  0  0  0  0  0  0  0  0  0  0
    6.8589  -19.7255   19.2123 C   0  0  0  0  0  0  0  0  0  0  0  0
    6.1158  -19.4144   20.5104 C   0  0  2  0  0  0  0  0  0  0  0  0
    4.7335  -19.2257   20.1995 N   0  0  0  0  0  0  0  0  0  0  0  0
    6.7175  -18.1624   21.1072 C   0  0  0  0  0  0  0  0  0  0  0  0
    7.2844  -17.3197   20.3723 O   0  0  0  0  0  0  0  0  0  0  0  0
    8.6344  -12.0660   27.2468 O   0  0  0  0  0  0  0  0  0  0  0  0
    8.1356  -13.1982   26.5976 C   0  0  0  0  0  0  0  0  0  0  0  0
    7.2085  -12.9688   25.5747 C   0  0  0  0  0  0  0  0  0  0  0  0
    6.6894  -14.0726   24.9053 C   0  0  0  0  0  0  0  0  0  0  0  0
    7.0623  -15.3598   25.2228 C   0  0  0  0  0  0  0  0  0  0  0  0
    6.4999  -16.5146   24.5013 C   0  0  0  0  0  0  0  0  0  0  0  0
    7.1674  -16.8063   23.2092 C   0  0  2  0  0  0  0  0  0  0  0  0
    6.6478  -17.9267   22.5053 N   0  0  0  0  0  0  0  0  0  0  0  0
    8.6503  -16.8647   23.4490 C   0  0  0  0  0  0  0  0  0  0  0  0
    9.1765  -17.8321   24.0453 O   0  0  0  0  0  0  0  0  0  0  0  0
    7.9769  -15.5580   26.2340 C   0  0  0  0  0  0  0  0  0  0  0  0
    8.5223  -14.4753   26.9315 C   0  0  0  0  0  0  0  0  0  0  0  0
   14.3612  -15.7922   18.3850 N   0  0  0  0  0  0  0  0  0  0  0  0
   15.0530  -14.7065   18.9746 C   0  0  0  0  0  0  0  0  0  0  0  0
   16.0016  -14.0850   18.3469 N   0  0  0  0  0  0  0  0  0  0  0  0
   14.6793  -14.3071   20.2863 N   0  0  0  0  0  0  0  0  0  0  0  0
   13.2805  -14.1521   20.5858 C   0  0  0  0  0  0  0  0  0  0  0  0
   12.9585  -15.1842   21.6773 C   0  0  0  0  0  0  0  0  0  0  0  0
   11.4815  -15.0943   21.9011 C   0  0  0  0  0  0  0  0  0  0  0  0
   10.9866  -16.0670   22.9419 C   0  0  2  0  0  0  0  0  0  0  0  0
    9.5270  -15.8363   23.0160 N   0  0  0  0  0  0  0  0  0  0  0  0
   11.6089  -15.7168   24.2442 C   0  0  0  0  0  0  0  0  0  0  0  0
   11.1194  -14.9632   25.0970 O   0  0  0  0  0  0  0  0  0  0  0  0
   12.8578  -16.2802   24.5481 O   0  0  0  0  0  0  0  0  0  0  0  0
  2  1  1  0
  3  2  2  0
  4  2  1  0
  5  6  1  6
  5  4  1  0
  7  5  1  0
  8  7  2  0
  9 10  1  0
 10 20  2  0
 10 11  1  0
 11 12  2  0
 12 13  1  0
 13 14  1  0
 15 14  1  1
 15 16  1  0
 16  7  1  0
 17 29  1  0
 17 15  1  0
 18 17  2  0
 19 13  2  0
 20 19  1  0
 21 22  1  0
 22 24  1  0
 22 23  2  0
 24 25  1  0
 26 25  1  0
 27 26  1  0
 28 27  1  6
 28 29  1  0
 30 32  1  0
 30 28  1  0
 31 30  2  0
M  END
$$$$
