NYR.pdb
     RDKit          3D

 32 32  0  0  1  0  0  0  0  0999 V2000
   13.9851  -15.9601   16.6022 N   0  0  0  0  0  0  0  0  0  0  0  0
   13.5770  -14.6633   16.9837 C   0  0  0  0  0  0  0  0  0  0  0  0
   13.9774  -13.6685   16.3400 O   0  0  0  0  0  0  0  0  0  0  0  0
   12.6797  -14.4565   18.1370 C   0  0  0  0  0  0  0  0  0  0  0  0
   12.3194  -15.7830   18.8037 C   0  0  2  0  0  0  0  0  0  0  0  0
   11.2628  -16.3871   18.0541 N   0  0  0  0  0  0  0  0  0  0  0  0
   11.8858  -15.4926   20.2226 C   0  0  0  0  0  0  0  0  0  0  0  0
   12.6935  -14.9960   21.0427 O   0  0  0  0  0  0  0  0  0  0  0  0
    7.0080  -11.7211   17.8934 O   0  0  0  0  0  0  0  0  0  0  0  0
    7.4272  -12.5510   18.9363 C   0  0  0  0  0  0  0  0  0  0  0  0
    7.0409  -13.8937   18.8542 C   0  0  0  0  0  0  0  0  0  0  0  0
    7.4400  -14.7507   19.8751 C   0  0  0  0  0  0  0  0  0  0  0  0
    8.1920  -14.3130   20.9425 C   0  0  0  0  0  0  0  0  0  0  0  0
    8.6037  -15.2376   22.0132 C   0  0  0  0  0  0  0  0  0  0  0  0
   10.0309  -15.6370   21.9542 C   0  0  2  0  0  0  0  0  0  0  0  0
   10.5603  -15.7787   20.6426 N   0  0  0  0  0  0  0  0  0  0  0  0
   10.2165  -16.8474   22.8262 C   0  0  0  0  0  0  0  0  0  0  0  0
    9.4001  -17.7969   22.8055 O   0  0  0  0  0  0  0  0  0  0  0  0
    8.5591  -12.9862   20.9991 C   0  0  0  0  0  0  0  0  0  0  0  0
    8.1783  -12.0922   19.9932 C   0  0  0  0  0  0  0  0  0  0  0  0
   16.6084  -20.2634   25.8734 N   0  0  0  0  0  0  0  0  0  0  0  0
   16.1327  -21.5374   25.4789 C   0  0  0  0  0  0  0  0  0  0  0  0
   16.6013  -22.6279   25.9997 N   0  0  0  0  0  0  0  0  0  0  0  0
   15.1165  -21.5953   24.4870 N   0  0  0  0  0  0  0  0  0  0  0  0
   14.6787  -20.3672   23.8784 C   0  0  0  0  0  0  0  0  0  0  0  0
   13.3353  -20.0173   24.5363 C   0  0  0  0  0  0  0  0  0  0  0  0
   12.8590  -18.7728   23.8551 C   0  0  0  0  0  0  0  0  0  0  0  0
   11.5654  -18.2502   24.4275 C   0  0  2  0  0  0  0  0  0  0  0  0
   11.3175  -16.9793   23.7118 N   0  0  0  0  0  0  0  0  0  0  0  0
   11.7707  -17.9718   25.8720 C   0  0  0  0  0  0  0  0  0  0  0  0
   11.9530  -16.8527   26.3711 O   0  0  0  0  0  0  0  0  0  0  0  0
   11.7599  -19.0596   26.7587 O   0  0  0  0  0  0  0  0  0  0  0  0
  2  1  1  0
  3  2  2  0
  4  2  1  0
  5  6  1  6
  5  4  1  0
  7  5  1  0
  8  7  2  0
  9 10  1  0
 10 20  2  0
 10 11  1  0
 11 12  2  0
 12 13  1  0
 13 14  1  0
 15 14  1  6
 15 16  1  0
 16  7  1  0
 17 29  1  0
 17 15  1  0
 18 17  2  0
 19 13  2  0
 20 19  1  0
 21 22  1  0
 22 24  1  0
 22 23  2  0
 24 25  1  0
 26 25  1  0
 27 26  1  0
 28 27  1  6
 28 29  1  0
 30 32  1  0
 30 28  1  0
 31 30  2  0
M  END
$$$$
