NYR.pdb
     RDKit          3D

 32 32  0  0  1  0  0  0  0  0999 V2000
    7.0211  -13.5351   16.6911 N   0  0  0  0  0  0  0  0  0  0  0  0
    8.3110  -13.7989   17.2011 C   0  0  0  0  0  0  0  0  0  0  0  0
    9.1505  -14.3994   16.4946 O   0  0  0  0  0  0  0  0  0  0  0  0
    8.6919  -13.3766   18.5629 C   0  0  0  0  0  0  0  0  0  0  0  0
    9.1383  -14.5683   19.4081 C   0  0  2  0  0  0  0  0  0  0  0  0
    8.0308  -15.4624   19.5398 N   0  0  0  0  0  0  0  0  0  0  0  0
    9.5832  -14.0474   20.7559 C   0  0  0  0  0  0  0  0  0  0  0  0
   10.0318  -12.8822   20.8680 O   0  0  0  0  0  0  0  0  0  0  0  0
    5.6992  -12.2964   28.2141 O   0  0  0  0  0  0  0  0  0  0  0  0
    6.2179  -12.6450   26.9645 C   0  0  0  0  0  0  0  0  0  0  0  0
    5.5673  -13.6851   26.2910 C   0  0  0  0  0  0  0  0  0  0  0  0
    6.0558  -14.0603   25.0434 C   0  0  0  0  0  0  0  0  0  0  0  0
    7.1443  -13.4413   24.4700 C   0  0  0  0  0  0  0  0  0  0  0  0
    7.6454  -13.8548   23.1478 C   0  0  0  0  0  0  0  0  0  0  0  0
    8.9766  -14.5081   23.1808 C   0  0  2  0  0  0  0  0  0  0  0  0
    9.4983  -14.8709   21.9091 N   0  0  0  0  0  0  0  0  0  0  0  0
    8.9200  -15.6406   24.1678 C   0  0  0  0  0  0  0  0  0  0  0  0
    8.4550  -15.4788   25.3193 O   0  0  0  0  0  0  0  0  0  0  0  0
    7.7666  -12.4201   25.1543 C   0  0  0  0  0  0  0  0  0  0  0  0
    7.3068  -12.0128   26.4107 C   0  0  0  0  0  0  0  0  0  0  0  0
   15.2563  -14.4632   21.3375 N   0  0  0  0  0  0  0  0  0  0  0  0
   14.2931  -14.9837   20.4395 C   0  0  0  0  0  0  0  0  0  0  0  0
   14.3872  -14.7972   19.1603 N   0  0  0  0  0  0  0  0  0  0  0  0
   13.2071  -15.7255   20.9783 N   0  0  0  0  0  0  0  0  0  0  0  0
   13.1124  -15.8671   22.4070 C   0  0  0  0  0  0  0  0  0  0  0  0
   11.8244  -16.6603   22.6751 C   0  0  0  0  0  0  0  0  0  0  0  0
   11.7296  -16.7942   24.1626 C   0  0  0  0  0  0  0  0  0  0  0  0
   10.5032  -17.5519   24.6056 C   0  0  2  0  0  0  0  0  0  0  0  0
    9.3856  -16.9431   23.8511 N   0  0  0  0  0  0  0  0  0  0  0  0
   10.3055  -17.3151   26.0585 C   0  0  0  0  0  0  0  0  0  0  0  0
   10.5543  -18.1265   26.9610 O   0  0  0  0  0  0  0  0  0  0  0  0
    9.7939  -16.0707   26.4577 O   0  0  0  0  0  0  0  0  0  0  0  0
  2  1  1  0
  3  2  2  0
  4  2  1  0
  5  6  1  1
  5  4  1  0
  7  5  1  0
  8  7  2  0
  9 10  1  0
 10 20  2  0
 10 11  1  0
 11 12  2  0
 12 13  1  0
 13 14  1  0
 15 14  1  6
 15 16  1  0
 16  7  1  0
 17 29  1  0
 17 15  1  0
 18 17  2  0
 19 13  2  0
 20 19  1  0
 21 22  1  0
 22 24  1  0
 22 23  2  0
 24 25  1  0
 26 25  1  0
 27 26  1  0
 28 27  1  6
 28 29  1  0
 30 32  1  0
 30 28  1  0
 31 30  2  0
M  END
$$$$
