NYR.pdb
     RDKit          3D

 32 32  0  0  1  0  0  0  0  0999 V2000
    7.3513  -12.2180   18.1170 N   0  0  0  0  0  0  0  0  0  0  0  0
    7.9375  -13.3830   18.6580 C   0  0  0  0  0  0  0  0  0  0  0  0
    8.1382  -14.3778   17.9269 O   0  0  0  0  0  0  0  0  0  0  0  0
    8.3214  -13.4510   20.0814 C   0  0  0  0  0  0  0  0  0  0  0  0
    8.1445  -14.8635   20.6361 C   0  0  2  0  0  0  0  0  0  0  0  0
    6.7457  -15.1541   20.6804 N   0  0  0  0  0  0  0  0  0  0  0  0
    8.7550  -14.9046   22.0186 C   0  0  0  0  0  0  0  0  0  0  0  0
    9.8736  -14.3808   22.2330 O   0  0  0  0  0  0  0  0  0  0  0  0
    5.8646  -10.2485   26.4478 O   0  0  0  0  0  0  0  0  0  0  0  0
    6.2169  -11.5759   26.1907 C   0  0  0  0  0  0  0  0  0  0  0  0
    7.5528  -11.9200   26.4264 C   0  0  0  0  0  0  0  0  0  0  0  0
    7.9409  -13.2335   26.1815 C   0  0  0  0  0  0  0  0  0  0  0  0
    7.0549  -14.1821   25.7214 C   0  0  0  0  0  0  0  0  0  0  0  0
    7.4871  -15.5676   25.4683 C   0  0  0  0  0  0  0  0  0  0  0  0
    8.5324  -15.6956   24.4238 C   0  0  2  0  0  0  0  0  0  0  0  0
    8.0695  -15.5363   23.0893 N   0  0  0  0  0  0  0  0  0  0  0  0
    9.2836  -16.9752   24.6652 C   0  0  0  0  0  0  0  0  0  0  0  0
    8.6836  -18.0620   24.8300 O   0  0  0  0  0  0  0  0  0  0  0  0
    5.7453  -13.8171   25.4976 C   0  0  0  0  0  0  0  0  0  0  0  0
    5.3148  -12.5071   25.7313 C   0  0  0  0  0  0  0  0  0  0  0  0
   14.9770  -14.4230   21.7503 N   0  0  0  0  0  0  0  0  0  0  0  0
   14.1249  -15.1778   20.9081 C   0  0  0  0  0  0  0  0  0  0  0  0
   13.8442  -14.7902   19.7036 N   0  0  0  0  0  0  0  0  0  0  0  0
   13.5776  -16.3860   21.4187 N   0  0  0  0  0  0  0  0  0  0  0  0
   13.4107  -16.5183   22.8416 C   0  0  0  0  0  0  0  0  0  0  0  0
   12.8247  -17.9188   23.0767 C   0  0  0  0  0  0  0  0  0  0  0  0
   12.8006  -18.1075   24.5611 C   0  0  0  0  0  0  0  0  0  0  0  0
   11.4042  -18.2627   25.1091 C   0  0  2  0  0  0  0  0  0  0  0  0
   10.7010  -17.0210   24.7184 N   0  0  0  0  0  0  0  0  0  0  0  0
   11.4878  -18.3380   26.5902 C   0  0  0  0  0  0  0  0  0  0  0  0
   11.1234  -17.4542   27.3781 O   0  0  0  0  0  0  0  0  0  0  0  0
   12.0231  -19.5037   27.1595 O   0  0  0  0  0  0  0  0  0  0  0  0
  2  1  1  0
  3  2  2  0
  4  2  1  0
  5  6  1  1
  5  4  1  0
  7  5  1  0
  8  7  2  0
  9 10  1  0
 10 20  2  0
 10 11  1  0
 11 12  2  0
 12 13  1  0
 13 14  1  0
 15 14  1  1
 15 16  1  0
 16  7  1  0
 17 29  1  0
 17 15  1  0
 18 17  2  0
 19 13  2  0
 20 19  1  0
 21 22  1  0
 22 24  1  0
 22 23  2  0
 24 25  1  0
 26 25  1  0
 27 26  1  0
 28 27  1  6
 28 29  1  0
 30 32  1  0
 30 28  1  0
 31 30  2  0
M  END
$$$$
