NYR.pdb
     RDKit          3D

 32 32  0  0  1  0  0  0  0  0999 V2000
    7.0608  -12.8618   18.0564 N   0  0  0  0  0  0  0  0  0  0  0  0
    8.0529  -13.7423   18.5403 C   0  0  0  0  0  0  0  0  0  0  0  0
    8.6134  -14.5413   17.7581 O   0  0  0  0  0  0  0  0  0  0  0  0
    8.4450  -13.7388   19.9630 C   0  0  0  0  0  0  0  0  0  0  0  0
    8.3281  -15.1344   20.5735 C   0  0  2  0  0  0  0  0  0  0  0  0
    6.9528  -15.5226   20.5405 N   0  0  0  0  0  0  0  0  0  0  0  0
    8.8438  -15.0704   21.9932 C   0  0  0  0  0  0  0  0  0  0  0  0
    9.9976  -14.6409   22.2293 O   0  0  0  0  0  0  0  0  0  0  0  0
    6.1586   -9.9127   26.2281 O   0  0  0  0  0  0  0  0  0  0  0  0
    6.3999  -11.2768   26.0460 C   0  0  0  0  0  0  0  0  0  0  0  0
    7.6553  -11.6215   25.5324 C   0  0  0  0  0  0  0  0  0  0  0  0
    7.9319  -12.9711   25.3373 C   0  0  0  0  0  0  0  0  0  0  0  0
    7.0138  -13.9540   25.6334 C   0  0  0  0  0  0  0  0  0  0  0  0
    7.3272  -15.3774   25.4187 C   0  0  0  0  0  0  0  0  0  0  0  0
    8.4133  -15.6181   24.4376 C   0  0  2  0  0  0  0  0  0  0  0  0
    8.0283  -15.4955   23.0747 N   0  0  0  0  0  0  0  0  0  0  0  0
    9.0701  -16.9275   24.7754 C   0  0  0  0  0  0  0  0  0  0  0  0
    8.4022  -17.9801   24.8943 O   0  0  0  0  0  0  0  0  0  0  0  0
    5.7852  -13.5875   26.1379 C   0  0  0  0  0  0  0  0  0  0  0  0
    5.4678  -12.2418   26.3488 C   0  0  0  0  0  0  0  0  0  0  0  0
   17.6383  -18.9481   24.9111 N   0  0  0  0  0  0  0  0  0  0  0  0
   16.9795  -20.1837   24.7003 C   0  0  0  0  0  0  0  0  0  0  0  0
   17.6238  -21.2385   24.3100 N   0  0  0  0  0  0  0  0  0  0  0  0
   15.5782  -20.2431   24.9298 N   0  0  0  0  0  0  0  0  0  0  0  0
   14.8096  -19.0326   24.8106 C   0  0  0  0  0  0  0  0  0  0  0  0
   13.3593  -19.4101   25.1484 C   0  0  0  0  0  0  0  0  0  0  0  0
   12.5617  -18.1546   24.9837 C   0  0  0  0  0  0  0  0  0  0  0  0
   11.0914  -18.3551   25.2526 C   0  0  2  0  0  0  0  0  0  0  0  0
   10.4704  -17.0411   24.9757 N   0  0  0  0  0  0  0  0  0  0  0  0
   10.9192  -18.6901   26.6894 C   0  0  0  0  0  0  0  0  0  0  0  0
   10.8507  -19.8344   27.1590 O   0  0  0  0  0  0  0  0  0  0  0  0
   10.8247  -17.6301   27.6043 O   0  0  0  0  0  0  0  0  0  0  0  0
  2  1  1  0
  3  2  2  0
  4  2  1  0
  5  6  1  1
  5  4  1  0
  7  5  1  0
  8  7  2  0
  9 10  1  0
 10 20  2  0
 10 11  1  0
 11 12  2  0
 12 13  1  0
 13 14  1  0
 15 14  1  1
 15 16  1  0
 16  7  1  0
 17 29  1  0
 17 15  1  0
 18 17  2  0
 19 13  2  0
 20 19  1  0
 21 22  1  0
 22 24  1  0
 22 23  2  0
 24 25  1  0
 26 25  1  0
 27 26  1  0
 28 27  1  1
 28 29  1  0
 30 32  1  0
 30 28  1  0
 31 30  2  0
M  END
$$$$
