NYR.pdb
     RDKit          3D

 32 32  0  0  1  0  0  0  0  0999 V2000
    8.5648  -16.3444   15.8302 N   0  0  0  0  0  0  0  0  0  0  0  0
    8.7115  -14.9663   16.1003 C   0  0  0  0  0  0  0  0  0  0  0  0
    8.7291  -14.1441   15.1579 O   0  0  0  0  0  0  0  0  0  0  0  0
    8.8456  -14.4723   17.4845 C   0  0  0  0  0  0  0  0  0  0  0  0
    8.9203  -15.6282   18.4806 C   0  0  2  0  0  0  0  0  0  0  0  0
    7.6982  -16.3653   18.4020 N   0  0  0  0  0  0  0  0  0  0  0  0
    9.1192  -15.0456   19.8615 C   0  0  0  0  0  0  0  0  0  0  0  0
   10.2164  -14.5291   20.1791 O   0  0  0  0  0  0  0  0  0  0  0  0
    7.2639  -12.8098   28.2290 O   0  0  0  0  0  0  0  0  0  0  0  0
    7.1462  -13.2384   26.9044 C   0  0  0  0  0  0  0  0  0  0  0  0
    7.4667  -12.2991   25.9176 C   0  0  0  0  0  0  0  0  0  0  0  0
    7.3613  -12.6899   24.5864 C   0  0  0  0  0  0  0  0  0  0  0  0
    6.9563  -13.9565   24.2280 C   0  0  0  0  0  0  0  0  0  0  0  0
    6.8512  -14.3494   22.8120 C   0  0  0  0  0  0  0  0  0  0  0  0
    8.1456  -14.7129   22.1856 C   0  0  2  0  0  0  0  0  0  0  0  0
    8.0667  -15.0766   20.8137 N   0  0  0  0  0  0  0  0  0  0  0  0
    8.8173  -15.7383   23.0559 C   0  0  0  0  0  0  0  0  0  0  0  0
    8.3783  -16.9080   23.1423 O   0  0  0  0  0  0  0  0  0  0  0  0
    6.6468  -14.8621   25.2191 C   0  0  0  0  0  0  0  0  0  0  0  0
    6.7396  -14.5090   26.5692 C   0  0  0  0  0  0  0  0  0  0  0  0
   15.8607  -14.9603   20.9452 N   0  0  0  0  0  0  0  0  0  0  0  0
   14.7067  -15.2313   20.1708 C   0  0  0  0  0  0  0  0  0  0  0  0
   14.6491  -14.9321   18.9110 N   0  0  0  0  0  0  0  0  0  0  0  0
   13.5987  -15.8475   20.8130 N   0  0  0  0  0  0  0  0  0  0  0  0
   13.5020  -15.7664   22.2463 C   0  0  0  0  0  0  0  0  0  0  0  0
   12.2656  -16.5887   22.6403 C   0  0  0  0  0  0  0  0  0  0  0  0
   12.1139  -16.4149   24.1189 C   0  0  0  0  0  0  0  0  0  0  0  0
   10.6788  -16.4999   24.5745 C   0  0  2  0  0  0  0  0  0  0  0  0
    9.9755  -15.4396   23.8195 N   0  0  0  0  0  0  0  0  0  0  0  0
   10.6287  -16.1891   26.0260 C   0  0  0  0  0  0  0  0  0  0  0  0
   10.2339  -15.1245   26.5214 O   0  0  0  0  0  0  0  0  0  0  0  0
   11.0626  -17.1760   26.9246 O   0  0  0  0  0  0  0  0  0  0  0  0
  2  1  1  0
  3  2  2  0
  4  2  1  0
  5  6  1  1
  5  4  1  0
  7  5  1  0
  8  7  2  0
  9 10  1  0
 10 20  2  0
 10 11  1  0
 11 12  2  0
 12 13  1  0
 13 14  1  0
 15 14  1  1
 15 16  1  0
 16  7  1  0
 17 29  1  0
 17 15  1  0
 18 17  2  0
 19 13  2  0
 20 19  1  0
 21 22  1  0
 22 24  1  0
 22 23  2  0
 24 25  1  0
 26 25  1  0
 27 26  1  0
 28 27  1  6
 28 29  1  0
 30 32  1  0
 30 28  1  0
 31 30  2  0
M  END
$$$$
