NYR.pdb
     RDKit          3D

 32 32  0  0  1  0  0  0  0  0999 V2000
    9.5822  -18.5294   13.6708 N   0  0  0  0  0  0  0  0  0  0  0  0
   10.6839  -17.6919   13.9511 C   0  0  0  0  0  0  0  0  0  0  0  0
   11.5807  -17.5328   13.0939 O   0  0  0  0  0  0  0  0  0  0  0  0
   10.7993  -16.9946   15.2466 C   0  0  0  0  0  0  0  0  0  0  0  0
    9.6824  -17.4116   16.2019 C   0  0  2  0  0  0  0  0  0  0  0  0
    8.4295  -17.1480   15.5664 N   0  0  0  0  0  0  0  0  0  0  0  0
    9.8291  -16.6088   17.4745 C   0  0  0  0  0  0  0  0  0  0  0  0
   10.9179  -16.5998   18.0958 O   0  0  0  0  0  0  0  0  0  0  0  0
    7.1601  -11.9237   24.5244 O   0  0  0  0  0  0  0  0  0  0  0  0
    7.2363  -12.5081   23.2576 C   0  0  0  0  0  0  0  0  0  0  0  0
    6.8485  -13.8499   23.1691 C   0  0  0  0  0  0  0  0  0  0  0  0
    6.9110  -14.4661   21.9232 C   0  0  0  0  0  0  0  0  0  0  0  0
    7.3380  -13.7956   20.7986 C   0  0  0  0  0  0  0  0  0  0  0  0
    7.3969  -14.4674   19.4887 C   0  0  0  0  0  0  0  0  0  0  0  0
    8.6621  -15.2002   19.2392 C   0  0  2  0  0  0  0  0  0  0  0  0
    8.7367  -15.8565   17.9804 N   0  0  0  0  0  0  0  0  0  0  0  0
    8.9259  -16.0969   20.4166 C   0  0  0  0  0  0  0  0  0  0  0  0
    8.4313  -17.2455   20.4847 O   0  0  0  0  0  0  0  0  0  0  0  0
    7.7141  -12.4751   20.9132 C   0  0  0  0  0  0  0  0  0  0  0  0
    7.6660  -11.8191   22.1474 C   0  0  0  0  0  0  0  0  0  0  0  0
   10.3979  -22.6535   22.1234 N   0  0  0  0  0  0  0  0  0  0  0  0
   11.2691  -22.2609   23.1684 C   0  0  0  0  0  0  0  0  0  0  0  0
   11.6116  -23.0820   24.1110 N   0  0  0  0  0  0  0  0  0  0  0  0
   11.7669  -20.9297   23.1608 N   0  0  0  0  0  0  0  0  0  0  0  0
   11.1074  -19.9534   22.3348 C   0  0  0  0  0  0  0  0  0  0  0  0
   11.7969  -18.6112   22.6232 C   0  0  0  0  0  0  0  0  0  0  0  0
   11.1206  -17.6074   21.7431 C   0  0  0  0  0  0  0  0  0  0  0  0
   10.2091  -16.6793   22.5060 C   0  0  2  0  0  0  0  0  0  0  0  0
    9.7428  -15.6947   21.5049 N   0  0  0  0  0  0  0  0  0  0  0  0
   11.0110  -15.9849   23.5457 C   0  0  0  0  0  0  0  0  0  0  0  0
   11.3336  -16.4602   24.6433 O   0  0  0  0  0  0  0  0  0  0  0  0
   11.4474  -14.6787   23.2753 O   0  0  0  0  0  0  0  0  0  0  0  0
  2  1  1  0
  3  2  2  0
  4  2  1  0
  5  6  1  6
  5  4  1  0
  7  5  1  0
  8  7  2  0
  9 10  1  0
 10 20  2  0
 10 11  1  0
 11 12  2  0
 12 13  1  0
 13 14  1  0
 15 14  1  1
 15 16  1  0
 16  7  1  0
 17 29  1  0
 17 15  1  0
 18 17  2  0
 19 13  2  0
 20 19  1  0
 21 22  1  0
 22 24  1  0
 22 23  2  0
 24 25  1  0
 26 25  1  0
 27 26  1  0
 28 27  1  6
 28 29  1  0
 30 32  1  0
 30 28  1  0
 31 30  2  0
M  END
$$$$
