NYR.pdb
     RDKit          3D

 32 32  0  0  1  0  0  0  0  0999 V2000
    7.0222  -14.6606   17.7475 N   0  0  0  0  0  0  0  0  0  0  0  0
    7.5720  -13.4778   18.2880 C   0  0  0  0  0  0  0  0  0  0  0  0
    7.5874  -12.4289   17.6069 O   0  0  0  0  0  0  0  0  0  0  0  0
    8.1337  -13.4541   19.6525 C   0  0  0  0  0  0  0  0  0  0  0  0
    8.0866  -14.8393   20.2953 C   0  0  2  0  0  0  0  0  0  0  0  0
    6.7156  -15.2028   20.4729 N   0  0  0  0  0  0  0  0  0  0  0  0
    8.8086  -14.7660   21.6216 C   0  0  0  0  0  0  0  0  0  0  0  0
   10.0036  -14.3906   21.6723 O   0  0  0  0  0  0  0  0  0  0  0  0
    6.3901  -10.1570   26.8549 O   0  0  0  0  0  0  0  0  0  0  0  0
    6.7926  -11.4401   26.4758 C   0  0  0  0  0  0  0  0  0  0  0  0
    5.8407  -12.2158   25.8044 C   0  0  0  0  0  0  0  0  0  0  0  0
    6.2054  -13.4996   25.4111 C   0  0  0  0  0  0  0  0  0  0  0  0
    7.4587  -14.0115   25.6642 C   0  0  0  0  0  0  0  0  0  0  0  0
    7.8240  -15.3740   25.2393 C   0  0  0  0  0  0  0  0  0  0  0  0
    8.7439  -15.4206   24.0766 C   0  0  2  0  0  0  0  0  0  0  0  0
    8.1426  -15.1213   22.8238 N   0  0  0  0  0  0  0  0  0  0  0  0
    9.4762  -16.7331   24.1091 C   0  0  0  0  0  0  0  0  0  0  0  0
    9.0487  -17.7335   23.4886 O   0  0  0  0  0  0  0  0  0  0  0  0
    8.3771  -13.2269   26.3269 C   0  0  0  0  0  0  0  0  0  0  0  0
    8.0502  -11.9311   26.7391 C   0  0  0  0  0  0  0  0  0  0  0  0
   14.7272  -16.2846   19.2340 N   0  0  0  0  0  0  0  0  0  0  0  0
   14.8982  -15.3299   20.2658 C   0  0  0  0  0  0  0  0  0  0  0  0
   15.5522  -14.2282   20.0694 N   0  0  0  0  0  0  0  0  0  0  0  0
   14.3290  -15.6092   21.5377 N   0  0  0  0  0  0  0  0  0  0  0  0
   13.4806  -16.7634   21.6731 C   0  0  0  0  0  0  0  0  0  0  0  0
   13.0057  -16.7778   23.1341 C   0  0  0  0  0  0  0  0  0  0  0  0
   12.0976  -17.9611   23.2566 C   0  0  0  0  0  0  0  0  0  0  0  0
   11.5170  -18.1132   24.6400 C   0  0  2  0  0  0  0  0  0  0  0  0
   10.6814  -16.9084   24.8375 N   0  0  0  0  0  0  0  0  0  0  0  0
   12.6332  -18.1064   25.6200 C   0  0  0  0  0  0  0  0  0  0  0  0
   12.8649  -17.2086   26.4416 O   0  0  0  0  0  0  0  0  0  0  0  0
   13.5077  -19.2040   25.6272 O   0  0  0  0  0  0  0  0  0  0  0  0
  2  1  1  0
  3  2  2  0
  4  2  1  0
  5  6  1  1
  5  4  1  0
  7  5  1  0
  8  7  2  0
  9 10  1  0
 10 20  2  0
 10 11  1  0
 11 12  2  0
 12 13  1  0
 13 14  1  0
 15 14  1  1
 15 16  1  0
 16  7  1  0
 17 29  1  0
 17 15  1  0
 18 17  2  0
 19 13  2  0
 20 19  1  0
 21 22  1  0
 22 24  1  0
 22 23  2  0
 24 25  1  0
 26 25  1  0
 27 26  1  0
 28 27  1  6
 28 29  1  0
 30 32  1  0
 30 28  1  0
 31 30  2  0
M  END
$$$$
