NYR.pdb
     RDKit          3D

 32 32  0  0  1  0  0  0  0  0999 V2000
   10.1818  -17.0981   16.2769 N   0  0  0  0  0  0  0  0  0  0  0  0
   10.6354  -17.7622   17.4375 C   0  0  0  0  0  0  0  0  0  0  0  0
   10.9201  -18.9791   17.3890 O   0  0  0  0  0  0  0  0  0  0  0  0
   10.7816  -17.0428   18.7177 C   0  0  0  0  0  0  0  0  0  0  0  0
    9.8202  -17.5879   19.7725 C   0  0  2  0  0  0  0  0  0  0  0  0
    8.5091  -17.6269   19.2044 N   0  0  0  0  0  0  0  0  0  0  0  0
    9.8689  -16.6686   20.9718 C   0  0  0  0  0  0  0  0  0  0  0  0
   10.9627  -16.4076   21.5258 O   0  0  0  0  0  0  0  0  0  0  0  0
    6.8117  -11.6745   27.6314 O   0  0  0  0  0  0  0  0  0  0  0  0
    6.8972  -12.4330   26.4611 C   0  0  0  0  0  0  0  0  0  0  0  0
    7.6463  -11.8797   25.4165 C   0  0  0  0  0  0  0  0  0  0  0  0
    7.7538  -12.6064   24.2349 C   0  0  0  0  0  0  0  0  0  0  0  0
    7.1502  -13.8340   24.0762 C   0  0  0  0  0  0  0  0  0  0  0  0
    7.2765  -14.5868   22.8161 C   0  0  0  0  0  0  0  0  0  0  0  0
    8.5347  -15.3632   22.6969 C   0  0  2  0  0  0  0  0  0  0  0  0
    8.6777  -16.0909   21.4842 N   0  0  0  0  0  0  0  0  0  0  0  0
    8.6909  -16.1984   23.9371 C   0  0  0  0  0  0  0  0  0  0  0  0
    7.8865  -17.1190   24.2083 O   0  0  0  0  0  0  0  0  0  0  0  0
    6.4184  -14.3562   25.1203 C   0  0  0  0  0  0  0  0  0  0  0  0
    6.2858  -13.6576   26.3246 C   0  0  0  0  0  0  0  0  0  0  0  0
   14.1484  -21.4574   24.5726 N   0  0  0  0  0  0  0  0  0  0  0  0
   14.5880  -20.1172   24.6978 C   0  0  0  0  0  0  0  0  0  0  0  0
   15.7374  -19.7342   24.2371 N   0  0  0  0  0  0  0  0  0  0  0  0
   13.7301  -19.1888   25.3472 N   0  0  0  0  0  0  0  0  0  0  0  0
   12.4891  -19.6668   25.8964 C   0  0  0  0  0  0  0  0  0  0  0  0
   11.8747  -18.4847   26.6614 C   0  0  0  0  0  0  0  0  0  0  0  0
   11.3795  -17.5350   25.6162 C   0  0  0  0  0  0  0  0  0  0  0  0
   10.0182  -16.9703   25.9356 C   0  0  2  0  0  0  0  0  0  0  0  0
    9.7493  -15.9913   24.8593 N   0  0  0  0  0  0  0  0  0  0  0  0
   10.0985  -16.2623   27.2388 C   0  0  0  0  0  0  0  0  0  0  0  0
   10.2863  -15.0469   27.3879 O   0  0  0  0  0  0  0  0  0  0  0  0
    9.9509  -17.0223   28.4094 O   0  0  0  0  0  0  0  0  0  0  0  0
  2  1  1  0
  3  2  2  0
  4  2  1  0
  5  6  1  6
  5  4  1  0
  7  5  1  0
  8  7  2  0
  9 10  1  0
 10 20  2  0
 10 11  1  0
 11 12  2  0
 12 13  1  0
 13 14  1  0
 15 14  1  6
 15 16  1  0
 16  7  1  0
 17 29  1  0
 17 15  1  0
 18 17  2  0
 19 13  2  0
 20 19  1  0
 21 22  1  0
 22 24  1  0
 22 23  2  0
 24 25  1  0
 26 25  1  0
 27 26  1  0
 28 27  1  6
 28 29  1  0
 30 32  1  0
 30 28  1  0
 31 30  2  0
M  END
$$$$
