PMF.pdb
     RDKit          3D

 27 28  0  0  1  0  0  0  0  0999 V2000
    7.0803  -14.8924   19.6938 N   0  0  0  0  0  0  0  0  0  0  0  0
    6.7281  -14.5124   18.3332 C   0  0  0  0  0  0  0  0  0  0  0  0
    7.4255  -13.2024   18.0484 C   0  0  0  0  0  0  0  0  0  0  0  0
    8.2312  -12.9434   19.3294 C   0  0  0  0  0  0  0  0  0  0  0  0
    8.4026  -14.3657   19.8212 C   0  0  1  0  0  0  0  0  0  0  0  0
    8.9281  -14.4460   21.1986 C   0  0  0  0  0  0  0  0  0  0  0  0
   10.1126  -14.1301   21.4504 O   0  0  0  0  0  0  0  0  0  0  0  0
    6.3875  -12.2977   26.9513 C   0  0  0  0  0  0  0  0  0  0  0  0
    5.3483  -12.8941   25.5946 S   0  0  0  0  0  0  0  0  0  0  0  0
    6.4672  -13.2493   24.1771 C   0  0  0  0  0  0  0  0  0  0  0  0
    7.2531  -14.4519   24.5590 C   0  0  0  0  0  0  0  0  0  0  0  0
    8.4079  -14.7960   23.6635 C   0  0  2  0  0  0  0  0  0  0  0  0
    8.1008  -14.8832   22.2660 N   0  0  0  0  0  0  0  0  0  0  0  0
    9.2243  -15.9007   24.2014 C   0  0  0  0  0  0  0  0  0  0  0  0
    8.9975  -17.0542   23.7236 O   0  0  0  0  0  0  0  0  0  0  0  0
   10.2227  -15.8048   25.1900 N   0  0  0  0  0  0  0  0  0  0  0  0
   11.1327  -16.9258   25.4809 C   0  0  1  0  0  0  0  0  0  0  0  0
   12.2401  -16.3562   26.3213 C   0  0  0  0  0  0  0  0  0  0  0  0
   11.7806  -15.7036   27.5521 C   0  0  0  0  0  0  0  0  0  0  0  0
   11.3499  -16.3540   28.6840 C   0  0  0  0  0  0  0  0  0  0  0  0
   10.9363  -15.6538   29.8200 C   0  0  0  0  0  0  0  0  0  0  0  0
   10.9555  -14.2876   29.8176 C   0  0  0  0  0  0  0  0  0  0  0  0
   11.3839  -13.6322   28.6905 C   0  0  0  0  0  0  0  0  0  0  0  0
   11.7948  -14.3089   27.5633 C   0  0  0  0  0  0  0  0  0  0  0  0
   10.3999  -17.9444   26.2631 C   0  0  0  0  0  0  0  0  0  0  0  0
    9.0972  -17.7508   26.6993 O   0  0  0  0  0  0  0  0  0  0  0  0
   10.9809  -19.0213   26.5403 O   0  0  0  0  0  0  0  0  0  0  0  0
  1  5  1  0
  1  2  1  0
  2  3  1  0
  4  3  1  0
  5  4  1  0
  5  6  1  1
  7  6  2  0
  8  9  1  0
 10  9  1  0
 11 10  1  0
 12 11  1  1
 12 13  1  0
 13  6  1  0
 14 12  1  0
 14 15  2  0
 16 14  1  0
 17 16  1  0
 17 18  1  1
 19 20  2  0
 19 18  1  0
 21 20  1  0
 22 21  2  0
 23 22  1  0
 23 24  2  0
 24 19  1  0
 25 17  1  0
 26 25  1  0
 27 25  2  0
M  END
$$$$
