PMF.pdb
     RDKit          3D

 27 28  0  0  1  0  0  0  0  0999 V2000
    8.1160  -14.9279   19.2292 N   0  0  0  0  0  0  0  0  0  0  0  0
    7.8607  -14.2928   17.9442 C   0  0  0  0  0  0  0  0  0  0  0  0
    7.8798  -12.8003   18.1801 C   0  0  0  0  0  0  0  0  0  0  0  0
    8.2319  -12.6809   19.6698 C   0  0  0  0  0  0  0  0  0  0  0  0
    8.9793  -13.9837   19.8658 C   0  0  1  0  0  0  0  0  0  0  0  0
    9.2369  -14.2992   21.2850 C   0  0  0  0  0  0  0  0  0  0  0  0
   10.3618  -14.0906   21.7923 O   0  0  0  0  0  0  0  0  0  0  0  0
    5.3344  -13.2524   26.7853 C   0  0  0  0  0  0  0  0  0  0  0  0
    6.4261  -12.5001   25.5531 S   0  0  0  0  0  0  0  0  0  0  0  0
    6.2086  -13.4497   23.9915 C   0  0  0  0  0  0  0  0  0  0  0  0
    6.8885  -14.7550   24.2005 C   0  0  0  0  0  0  0  0  0  0  0  0
    8.2247  -14.9158   23.5353 C   0  0  2  0  0  0  0  0  0  0  0  0
    8.2140  -14.8455   22.1035 N   0  0  0  0  0  0  0  0  0  0  0  0
    9.0053  -16.0290   24.1077 C   0  0  0  0  0  0  0  0  0  0  0  0
    8.7131  -17.1931   23.6958 O   0  0  0  0  0  0  0  0  0  0  0  0
   10.0347  -15.9303   25.0637 N   0  0  0  0  0  0  0  0  0  0  0  0
   10.7314  -17.1229   25.5754 C   0  0  1  0  0  0  0  0  0  0  0  0
   11.9151  -16.6144   26.3483 C   0  0  0  0  0  0  0  0  0  0  0  0
   11.5840  -15.5833   27.3379 C   0  0  0  0  0  0  0  0  0  0  0  0
   11.2407  -14.2842   27.0483 C   0  0  0  0  0  0  0  0  0  0  0  0
   10.9302  -13.3658   28.0543 C   0  0  0  0  0  0  0  0  0  0  0  0
   10.9658  -13.7571   29.3629 C   0  0  0  0  0  0  0  0  0  0  0  0
   11.3084  -15.0527   29.6588 C   0  0  0  0  0  0  0  0  0  0  0  0
   11.6167  -15.9693   28.6779 C   0  0  0  0  0  0  0  0  0  0  0  0
    9.8250  -17.8486   26.4909 C   0  0  0  0  0  0  0  0  0  0  0  0
    8.5961  -17.3361   26.8807 O   0  0  0  0  0  0  0  0  0  0  0  0
   10.1842  -18.9681   26.9290 O   0  0  0  0  0  0  0  0  0  0  0  0
  1  5  1  0
  1  2  1  0
  2  3  1  0
  4  3  1  0
  5  4  1  0
  5  6  1  1
  7  6  2  0
  8  9  1  0
 10  9  1  0
 11 10  1  0
 12 11  1  6
 12 13  1  0
 13  6  1  0
 14 12  1  0
 14 15  2  0
 16 14  1  0
 17 16  1  0
 17 18  1  1
 19 20  2  0
 19 18  1  0
 21 20  1  0
 22 21  2  0
 23 22  1  0
 23 24  2  0
 24 19  1  0
 25 17  1  0
 26 25  1  0
 27 25  2  0
M  END
$$$$
