PMF.pdb
     RDKit          3D

 27 28  0  0  1  0  0  0  0  0999 V2000
    7.1765  -15.5717   19.4923 N   0  0  0  0  0  0  0  0  0  0  0  0
    6.8218  -15.3750   18.0941 C   0  0  0  0  0  0  0  0  0  0  0  0
    7.2566  -13.9762   17.7230 C   0  0  0  0  0  0  0  0  0  0  0  0
    7.9314  -13.4629   19.0030 C   0  0  0  0  0  0  0  0  0  0  0  0
    8.3592  -14.7795   19.6177 C   0  0  1  0  0  0  0  0  0  0  0  0
    8.8228  -14.6471   21.0132 C   0  0  0  0  0  0  0  0  0  0  0  0
   10.0041  -14.3205   21.2661 O   0  0  0  0  0  0  0  0  0  0  0  0
    7.0452  -10.9315   26.0857 C   0  0  0  0  0  0  0  0  0  0  0  0
    6.1523  -12.5002   26.2198 S   0  0  0  0  0  0  0  0  0  0  0  0
    7.3218  -13.8288   25.7152 C   0  0  0  0  0  0  0  0  0  0  0  0
    7.0555  -14.0929   24.2768 C   0  0  0  0  0  0  0  0  0  0  0  0
    8.2089  -14.6320   23.4813 C   0  0  2  0  0  0  0  0  0  0  0  0
    7.9382  -14.8875   22.0969 N   0  0  0  0  0  0  0  0  0  0  0  0
    8.9277  -15.7055   24.1934 C   0  0  0  0  0  0  0  0  0  0  0  0
    8.5640  -16.8940   23.9375 O   0  0  0  0  0  0  0  0  0  0  0  0
    9.9695  -15.5444   25.1273 N   0  0  0  0  0  0  0  0  0  0  0  0
   10.8444  -16.6656   25.5105 C   0  0  1  0  0  0  0  0  0  0  0  0
   11.7563  -16.1357   26.5804 C   0  0  0  0  0  0  0  0  0  0  0  0
   11.0556  -15.6303   27.7660 C   0  0  0  0  0  0  0  0  0  0  0  0
   10.3877  -14.4315   27.8442 C   0  0  0  0  0  0  0  0  0  0  0  0
    9.7369  -14.0291   29.0132 C   0  0  0  0  0  0  0  0  0  0  0  0
    9.7584  -14.8391   30.1132 C   0  0  0  0  0  0  0  0  0  0  0  0
   10.4240  -16.0373   30.0419 C   0  0  0  0  0  0  0  0  0  0  0  0
   11.0698  -16.4474   28.8964 C   0  0  0  0  0  0  0  0  0  0  0  0
   10.0111  -17.7505   26.0717 C   0  0  0  0  0  0  0  0  0  0  0  0
   10.5353  -18.9883   26.4149 O   0  0  0  0  0  0  0  0  0  0  0  0
    8.7861  -17.5398   26.2422 O   0  0  0  0  0  0  0  0  0  0  0  0
  1  5  1  0
  1  2  1  0
  2  3  1  0
  4  3  1  0
  5  4  1  0
  5  6  1  1
  7  6  2  0
  8  9  1  0
 10  9  1  0
 11 10  1  0
 12 11  1  1
 12 13  1  0
 13  6  1  0
 14 12  1  0
 14 15  2  0
 16 14  1  0
 17 16  1  0
 17 18  1  1
 19 20  2  0
 19 18  1  0
 21 20  1  0
 22 21  2  0
 23 22  1  0
 23 24  2  0
 24 19  1  0
 25 17  1  0
 26 25  1  0
 27 25  2  0
M  END
$$$$
