PMF.pdb
     RDKit          3D

 27 28  0  0  1  0  0  0  0  0999 V2000
    8.4153  -14.7981   19.1493 N   0  0  0  0  0  0  0  0  0  0  0  0
    8.7076  -13.8749   18.0622 C   0  0  0  0  0  0  0  0  0  0  0  0
    8.0133  -12.5738   18.3919 C   0  0  0  0  0  0  0  0  0  0  0  0
    7.3855  -12.8449   19.7666 C   0  0  0  0  0  0  0  0  0  0  0  0
    8.3236  -13.9207   20.2736 C   0  0  1  0  0  0  0  0  0  0  0  0
    7.8341  -14.5919   21.4941 C   0  0  0  0  0  0  0  0  0  0  0  0
    7.5860  -13.9343   22.5296 O   0  0  0  0  0  0  0  0  0  0  0  0
    6.0768  -20.9078   22.5533 C   0  0  0  0  0  0  0  0  0  0  0  0
    5.7175  -20.1984   20.9273 S   0  0  0  0  0  0  0  0  0  0  0  0
    6.0311  -18.3889   21.0496 C   0  0  0  0  0  0  0  0  0  0  0  0
    6.7684  -18.1798   22.3232 C   0  0  0  0  0  0  0  0  0  0  0  0
    7.1606  -16.7641   22.6328 C   0  0  2  0  0  0  0  0  0  0  0  0
    7.6347  -15.9971   21.5184 N   0  0  0  0  0  0  0  0  0  0  0  0
    7.9719  -16.6631   23.8607 C   0  0  0  0  0  0  0  0  0  0  0  0
    9.2308  -16.7168   23.7109 O   0  0  0  0  0  0  0  0  0  0  0  0
    7.4917  -16.5176   25.1766 N   0  0  0  0  0  0  0  0  0  0  0  0
    8.4063  -16.3552   26.3197 C   0  0  1  0  0  0  0  0  0  0  0  0
    7.6618  -15.5365   27.3359 C   0  0  0  0  0  0  0  0  0  0  0  0
    7.3468  -14.1746   26.8909 C   0  0  0  0  0  0  0  0  0  0  0  0
    6.0992  -13.5982   26.9167 C   0  0  0  0  0  0  0  0  0  0  0  0
    5.8872  -12.2878   26.4811 C   0  0  0  0  0  0  0  0  0  0  0  0
    6.9390  -11.5508   26.0149 C   0  0  0  0  0  0  0  0  0  0  0  0
    8.1872  -12.1206   25.9861 C   0  0  0  0  0  0  0  0  0  0  0  0
    8.4114  -13.4111   26.4124 C   0  0  0  0  0  0  0  0  0  0  0  0
    8.7016  -17.6882   26.8874 C   0  0  0  0  0  0  0  0  0  0  0  0
    9.6824  -17.8858   27.8485 O   0  0  0  0  0  0  0  0  0  0  0  0
    8.0389  -18.6735   26.4824 O   0  0  0  0  0  0  0  0  0  0  0  0
  1  5  1  0
  1  2  1  0
  2  3  1  0
  4  3  1  0
  5  4  1  0
  5  6  1  1
  7  6  2  0
  8  9  1  0
 10  9  1  0
 11 10  1  0
 12 11  1  6
 12 13  1  0
 13  6  1  0
 14 12  1  0
 14 15  2  0
 16 14  1  0
 17 16  1  0
 17 18  1  1
 19 20  2  0
 19 18  1  0
 21 20  1  0
 22 21  2  0
 23 22  1  0
 23 24  2  0
 24 19  1  0
 25 17  1  0
 26 25  1  0
 27 25  2  0
M  END
$$$$
