PMF.pdb
     RDKit          3D

 27 28  0  0  1  0  0  0  0  0999 V2000
    8.3906  -15.3552   19.2984 N   0  0  0  0  0  0  0  0  0  0  0  0
    8.6715  -14.5936   18.0898 C   0  0  0  0  0  0  0  0  0  0  0  0
    8.0133  -13.2438   18.2579 C   0  0  0  0  0  0  0  0  0  0  0  0
    7.4183  -13.3127   19.6716 C   0  0  0  0  0  0  0  0  0  0  0  0
    8.3478  -14.3328   20.2959 C   0  0  1  0  0  0  0  0  0  0  0  0
    7.8787  -14.8221   21.6075 C   0  0  0  0  0  0  0  0  0  0  0  0
    7.7207  -14.0322   22.5652 O   0  0  0  0  0  0  0  0  0  0  0  0
    7.2264  -21.3927   23.4027 C   0  0  0  0  0  0  0  0  0  0  0  0
    5.6581  -20.5506   23.7304 S   0  0  0  0  0  0  0  0  0  0  0  0
    6.0625  -18.8028   24.1414 C   0  0  0  0  0  0  0  0  0  0  0  0
    6.6577  -18.2139   22.9132 C   0  0  0  0  0  0  0  0  0  0  0  0
    7.1430  -16.7980   23.0298 C   0  0  2  0  0  0  0  0  0  0  0  0
    7.5969  -16.1985   21.8093 N   0  0  0  0  0  0  0  0  0  0  0  0
    8.0244  -16.6019   24.1963 C   0  0  0  0  0  0  0  0  0  0  0  0
    9.2716  -16.7004   23.9839 O   0  0  0  0  0  0  0  0  0  0  0  0
    7.6225  -16.3216   25.5167 N   0  0  0  0  0  0  0  0  0  0  0  0
    8.5986  -15.9828   26.5664 C   0  0  1  0  0  0  0  0  0  0  0  0
    7.8708  -15.1044   27.5441 C   0  0  0  0  0  0  0  0  0  0  0  0
    7.3371  -13.8709   26.9564 C   0  0  0  0  0  0  0  0  0  0  0  0
    6.0285  -13.6668   26.5884 C   0  0  0  0  0  0  0  0  0  0  0  0
    5.6005  -12.4542   26.0422 C   0  0  0  0  0  0  0  0  0  0  0  0
    6.4965  -11.4381   25.8640 C   0  0  0  0  0  0  0  0  0  0  0  0
    7.8047  -11.6357   26.2289 C   0  0  0  0  0  0  0  0  0  0  0  0
    8.2411  -12.8254   26.7687 C   0  0  0  0  0  0  0  0  0  0  0  0
    9.0191  -17.2268   27.2461 C   0  0  0  0  0  0  0  0  0  0  0  0
    8.4660  -18.4626   26.9431 O   0  0  0  0  0  0  0  0  0  0  0  0
    9.9086  -17.1580   28.1282 O   0  0  0  0  0  0  0  0  0  0  0  0
  1  5  1  0
  1  2  1  0
  2  3  1  0
  4  3  1  0
  5  4  1  0
  5  6  1  1
  7  6  2  0
  8  9  1  0
 10  9  1  0
 11 10  1  0
 12 11  1  6
 12 13  1  0
 13  6  1  0
 14 12  1  0
 14 15  2  0
 16 14  1  0
 17 16  1  0
 17 18  1  1
 19 20  2  0
 19 18  1  0
 21 20  1  0
 22 21  2  0
 23 22  1  0
 23 24  2  0
 24 19  1  0
 25 17  1  0
 26 25  1  0
 27 25  2  0
M  END
$$$$
