PMF.pdb
     RDKit          3D

 27 28  0  0  1  0  0  0  0  0999 V2000
    7.3756  -17.0011   19.7892 N   0  0  0  0  0  0  0  0  0  0  0  0
    6.9812  -17.0438   18.3883 C   0  0  0  0  0  0  0  0  0  0  0  0
    7.2317  -15.6667   17.8191 C   0  0  0  0  0  0  0  0  0  0  0  0
    7.8528  -14.9031   18.9975 C   0  0  0  0  0  0  0  0  0  0  0  0
    8.4507  -16.0599   19.7711 C   0  0  1  0  0  0  0  0  0  0  0  0
    8.9117  -15.6808   21.1215 C   0  0  0  0  0  0  0  0  0  0  0  0
   10.1221  -15.4526   21.3432 O   0  0  0  0  0  0  0  0  0  0  0  0
    6.2334  -11.5791   25.6437 C   0  0  0  0  0  0  0  0  0  0  0  0
    5.9580  -13.2435   26.2997 S   0  0  0  0  0  0  0  0  0  0  0  0
    7.3598  -14.2872   25.7224 C   0  0  0  0  0  0  0  0  0  0  0  0
    7.2021  -14.4177   24.2501 C   0  0  0  0  0  0  0  0  0  0  0  0
    8.3002  -15.1472   23.5319 C   0  0  2  0  0  0  0  0  0  0  0  0
    7.9917  -15.5671   22.1963 N   0  0  0  0  0  0  0  0  0  0  0  0
    8.9453  -16.1660   24.3816 C   0  0  0  0  0  0  0  0  0  0  0  0
    8.4359  -17.3279   24.3546 O   0  0  0  0  0  0  0  0  0  0  0  0
   10.0621  -15.9785   25.2188 N   0  0  0  0  0  0  0  0  0  0  0  0
   10.8412  -17.1170   25.7348 C   0  0  1  0  0  0  0  0  0  0  0  0
   11.9497  -16.5244   26.5578 C   0  0  0  0  0  0  0  0  0  0  0  0
   11.4899  -15.6123   27.6106 C   0  0  0  0  0  0  0  0  0  0  0  0
   11.0328  -14.3316   27.4095 C   0  0  0  0  0  0  0  0  0  0  0  0
   10.6038  -13.5306   28.4708 C   0  0  0  0  0  0  0  0  0  0  0  0
   10.6352  -14.0216   29.7454 C   0  0  0  0  0  0  0  0  0  0  0  0
   11.0910  -15.2994   29.9531 C   0  0  0  0  0  0  0  0  0  0  0  0
   11.5169  -16.1007   28.9169 C   0  0  0  0  0  0  0  0  0  0  0  0
    9.9702  -17.9356   26.6052 C   0  0  0  0  0  0  0  0  0  0  0  0
   10.3787  -19.1523   27.1320 O   0  0  0  0  0  0  0  0  0  0  0  0
    8.8209  -17.5108   26.8747 O   0  0  0  0  0  0  0  0  0  0  0  0
  1  5  1  0
  1  2  1  0
  2  3  1  0
  4  3  1  0
  5  4  1  0
  5  6  1  1
  7  6  2  0
  8  9  1  0
 10  9  1  0
 11 10  1  0
 12 11  1  1
 12 13  1  0
 13  6  1  0
 14 12  1  0
 14 15  2  0
 16 14  1  0
 17 16  1  0
 17 18  1  1
 19 20  2  0
 19 18  1  0
 21 20  1  0
 22 21  2  0
 23 22  1  0
 23 24  2  0
 24 19  1  0
 25 17  1  0
 26 25  1  0
 27 25  2  0
M  END
$$$$
