PMF.pdb
     RDKit          3D

 27 28  0  0  1  0  0  0  0  0999 V2000
    8.0032  -14.9911   18.9977 N   0  0  0  0  0  0  0  0  0  0  0  0
    8.4001  -14.1862   17.8513 C   0  0  0  0  0  0  0  0  0  0  0  0
    7.9002  -12.7830   18.1054 C   0  0  0  0  0  0  0  0  0  0  0  0
    7.2675  -12.8789   19.5011 C   0  0  0  0  0  0  0  0  0  0  0  0
    8.0563  -14.0424   20.0651 C   0  0  1  0  0  0  0  0  0  0  0  0
    7.5018  -14.5626   21.3308 C   0  0  0  0  0  0  0  0  0  0  0  0
    7.4602  -13.8431   22.3539 O   0  0  0  0  0  0  0  0  0  0  0  0
    4.8734  -20.2896   20.7627 C   0  0  0  0  0  0  0  0  0  0  0  0
    3.5519  -19.0943   21.0803 S   0  0  0  0  0  0  0  0  0  0  0  0
    4.3550  -17.4543   21.3110 C   0  0  0  0  0  0  0  0  0  0  0  0
    5.4927  -17.6758   22.2416 C   0  0  0  0  0  0  0  0  0  0  0  0
    6.3419  -16.4747   22.5419 C   0  0  2  0  0  0  0  0  0  0  0  0
    7.0044  -15.8894   21.4134 N   0  0  0  0  0  0  0  0  0  0  0  0
    7.1828  -16.6679   23.7384 C   0  0  0  0  0  0  0  0  0  0  0  0
    8.3996  -16.9621   23.5310 O   0  0  0  0  0  0  0  0  0  0  0  0
    6.7718  -16.5629   25.0813 N   0  0  0  0  0  0  0  0  0  0  0  0
    7.7283  -16.6873   26.1944 C   0  0  1  0  0  0  0  0  0  0  0  0
    7.2789  -15.7080   27.2413 C   0  0  0  0  0  0  0  0  0  0  0  0
    7.5302  -14.3051   26.8939 C   0  0  0  0  0  0  0  0  0  0  0  0
    8.7710  -13.7326   26.7452 C   0  0  0  0  0  0  0  0  0  0  0  0
    8.9216  -12.3864   26.4029 C   0  0  0  0  0  0  0  0  0  0  0  0
    7.8149  -11.6091   26.2090 C   0  0  0  0  0  0  0  0  0  0  0  0
    6.5730  -12.1745   26.3565 C   0  0  0  0  0  0  0  0  0  0  0  0
    6.4089  -13.5000   26.6934 C   0  0  0  0  0  0  0  0  0  0  0  0
    7.6479  -18.0587   26.7414 C   0  0  0  0  0  0  0  0  0  0  0  0
    8.5707  -18.5503   27.6533 O   0  0  0  0  0  0  0  0  0  0  0  0
    6.7095  -18.8014   26.3645 O   0  0  0  0  0  0  0  0  0  0  0  0
  1  5  1  0
  1  2  1  0
  2  3  1  0
  4  3  1  0
  5  4  1  0
  5  6  1  1
  7  6  2  0
  8  9  1  0
 10  9  1  0
 11 10  1  0
 12 11  1  6
 12 13  1  0
 13  6  1  0
 14 12  1  0
 14 15  2  0
 16 14  1  0
 17 16  1  0
 17 18  1  1
 19 20  2  0
 19 18  1  0
 21 20  1  0
 22 21  2  0
 23 22  1  0
 23 24  2  0
 24 19  1  0
 25 17  1  0
 26 25  1  0
 27 25  2  0
M  END
$$$$
