PMF.pdb
     RDKit          3D

 27 28  0  0  1  0  0  0  0  0999 V2000
    7.9407  -15.0517   18.9722 N   0  0  0  0  0  0  0  0  0  0  0  0
    8.2585  -14.2248   17.8168 C   0  0  0  0  0  0  0  0  0  0  0  0
    7.7250  -12.8411   18.1067 C   0  0  0  0  0  0  0  0  0  0  0  0
    7.1600  -12.9692   19.5285 C   0  0  0  0  0  0  0  0  0  0  0  0
    8.0113  -14.1105   20.0451 C   0  0  1  0  0  0  0  0  0  0  0  0
    7.5323  -14.6589   21.3296 C   0  0  0  0  0  0  0  0  0  0  0  0
    7.5352  -13.9566   22.3654 O   0  0  0  0  0  0  0  0  0  0  0  0
    4.8988  -20.3373   20.2125 C   0  0  0  0  0  0  0  0  0  0  0  0
    3.6902  -19.2735   21.0393 S   0  0  0  0  0  0  0  0  0  0  0  0
    4.4778  -17.6225   21.2424 C   0  0  0  0  0  0  0  0  0  0  0  0
    5.5678  -17.8013   22.2372 C   0  0  0  0  0  0  0  0  0  0  0  0
    6.3903  -16.5824   22.5398 C   0  0  2  0  0  0  0  0  0  0  0  0
    7.0586  -15.9941   21.4162 N   0  0  0  0  0  0  0  0  0  0  0  0
    7.2168  -16.7504   23.7500 C   0  0  0  0  0  0  0  0  0  0  0  0
    8.4257  -17.0891   23.5649 O   0  0  0  0  0  0  0  0  0  0  0  0
    6.8001  -16.5771   25.0840 N   0  0  0  0  0  0  0  0  0  0  0  0
    7.7342  -16.7328   26.2121 C   0  0  1  0  0  0  0  0  0  0  0  0
    7.2744  -15.7698   27.2697 C   0  0  0  0  0  0  0  0  0  0  0  0
    7.4492  -14.3586   26.9092 C   0  0  0  0  0  0  0  0  0  0  0  0
    8.6566  -13.7325   26.7098 C   0  0  0  0  0  0  0  0  0  0  0  0
    8.7337  -12.3824   26.3585 C   0  0  0  0  0  0  0  0  0  0  0  0
    7.5867  -11.6556   26.2069 C   0  0  0  0  0  0  0  0  0  0  0  0
    6.3780  -12.2748   26.4050 C   0  0  0  0  0  0  0  0  0  0  0  0
    6.2863  -13.6048   26.7513 C   0  0  0  0  0  0  0  0  0  0  0  0
    7.6304  -18.1138   26.7302 C   0  0  0  0  0  0  0  0  0  0  0  0
    6.7180  -19.0297   26.2267 O   0  0  0  0  0  0  0  0  0  0  0  0
    8.3970  -18.4660   27.6589 O   0  0  0  0  0  0  0  0  0  0  0  0
  1  5  1  0
  1  2  1  0
  2  3  1  0
  4  3  1  0
  5  4  1  0
  5  6  1  1
  7  6  2  0
  8  9  1  0
 10  9  1  0
 11 10  1  0
 12 11  1  6
 12 13  1  0
 13  6  1  0
 14 12  1  0
 14 15  2  0
 16 14  1  0
 17 16  1  0
 17 18  1  1
 19 20  2  0
 19 18  1  0
 21 20  1  0
 22 21  2  0
 23 22  1  0
 23 24  2  0
 24 19  1  0
 25 17  1  0
 26 25  1  0
 27 25  2  0
M  END
$$$$
