PMF.pdb
     RDKit          3D

 27 28  0  0  1  0  0  0  0  0999 V2000
    7.6714  -15.1844   19.2148 N   0  0  0  0  0  0  0  0  0  0  0  0
    7.4400  -14.8712   17.8119 C   0  0  0  0  0  0  0  0  0  0  0  0
    7.8317  -13.4252   17.6141 C   0  0  0  0  0  0  0  0  0  0  0  0
    8.3542  -13.0068   18.9958 C   0  0  0  0  0  0  0  0  0  0  0  0
    8.7926  -14.3555   19.5278 C   0  0  1  0  0  0  0  0  0  0  0  0
    9.1147  -14.3363   20.9685 C   0  0  0  0  0  0  0  0  0  0  0  0
   10.2756  -14.0818   21.3607 O   0  0  0  0  0  0  0  0  0  0  0  0
    5.8720  -11.6165   26.6047 C   0  0  0  0  0  0  0  0  0  0  0  0
    5.5962  -13.3682   26.2414 S   0  0  0  0  0  0  0  0  0  0  0  0
    7.1848  -14.0401   25.5993 C   0  0  0  0  0  0  0  0  0  0  0  0
    7.0660  -14.0441   24.1176 C   0  0  0  0  0  0  0  0  0  0  0  0
    8.2720  -14.5206   23.3611 C   0  0  2  0  0  0  0  0  0  0  0  0
    8.1144  -14.6060   21.9388 N   0  0  0  0  0  0  0  0  0  0  0  0
    8.9072  -15.6897   23.9980 C   0  0  0  0  0  0  0  0  0  0  0  0
    8.4759  -16.8291   23.6431 O   0  0  0  0  0  0  0  0  0  0  0  0
    9.9367  -15.6683   24.9587 N   0  0  0  0  0  0  0  0  0  0  0  0
   10.6493  -16.8947   25.3556 C   0  0  1  0  0  0  0  0  0  0  0  0
   11.8324  -16.4456   26.1654 C   0  0  0  0  0  0  0  0  0  0  0  0
   11.4846  -15.5996   27.3123 C   0  0  0  0  0  0  0  0  0  0  0  0
   11.1733  -14.2623   27.2486 C   0  0  0  0  0  0  0  0  0  0  0  0
   10.8437  -13.5304   28.3921 C   0  0  0  0  0  0  0  0  0  0  0  0
   10.8275  -14.1487   29.6104 C   0  0  0  0  0  0  0  0  0  0  0  0
   11.1379  -15.4837   29.6809 C   0  0  0  0  0  0  0  0  0  0  0  0
   11.4645  -16.2181   28.5623 C   0  0  0  0  0  0  0  0  0  0  0  0
    9.7565  -17.7111   26.2058 C   0  0  0  0  0  0  0  0  0  0  0  0
   10.0898  -18.9937   26.6165 O   0  0  0  0  0  0  0  0  0  0  0  0
    8.6588  -17.2224   26.5667 O   0  0  0  0  0  0  0  0  0  0  0  0
  1  5  1  0
  1  2  1  0
  2  3  1  0
  4  3  1  0
  5  4  1  0
  5  6  1  1
  7  6  2  0
  8  9  1  0
 10  9  1  0
 11 10  1  0
 12 11  1  1
 12 13  1  0
 13  6  1  0
 14 12  1  0
 14 15  2  0
 16 14  1  0
 17 16  1  0
 17 18  1  1
 19 20  2  0
 19 18  1  0
 21 20  1  0
 22 21  2  0
 23 22  1  0
 23 24  2  0
 24 19  1  0
 25 17  1  0
 26 25  1  0
 27 25  2  0
M  END
$$$$
