ATG.pdb
     RDKit          3D

 17 16  0  0  1  0  0  0  0  0999 V2000
   21.0848  -12.5764  -16.2849 C   0  0  0  0  0  0  0  0  0  0  0  0
   19.7895  -11.9379  -16.6901 C   0  0  2  0  0  0  0  0  0  0  0  0
   19.3668  -12.5524  -17.9341 N   0  0  0  0  0  0  0  0  0  0  0  0
   19.8580  -10.4800  -16.7907 C   0  0  0  0  0  0  0  0  0  0  0  0
   20.4529   -9.9264  -17.7273 O   0  0  0  0  0  0  0  0  0  0  0  0
   18.0088   -6.0884  -15.8654 C   0  0  0  0  0  0  0  0  0  0  0  0
   17.9380   -7.5807  -15.6198 C   0  0  1  0  0  0  0  0  0  0  0  0
   17.0681   -8.0998  -16.5893 O   0  0  0  0  0  0  0  0  0  0  0  0
   19.2710   -8.2493  -15.7544 C   0  0  2  0  0  0  0  0  0  0  0  0
   19.2460   -9.6685  -15.8201 N   0  0  0  0  0  0  0  0  0  0  0  0
   20.2544   -7.7623  -14.7522 C   0  0  0  0  0  0  0  0  0  0  0  0
   20.1904   -8.0591  -13.5326 O   0  0  0  0  0  0  0  0  0  0  0  0
   21.3270   -6.9219  -15.1570 N   0  0  0  0  0  0  0  0  0  0  0  0
   22.3646   -6.4846  -14.2471 C   0  0  0  0  0  0  0  0  0  0  0  0
   21.9695   -5.2900  -13.4780 C   0  0  0  0  0  0  0  0  0  0  0  0
   20.8993   -4.7063  -13.7830 O   0  0  0  0  0  0  0  0  0  0  0  0
   22.7211   -4.7898  -12.4443 O   0  0  0  0  0  0  0  0  0  0  0  0
  2  1  1  6
  2  4  1  0
  2  3  1  0
  4  5  2  0
  7  6  1  6
  8  7  1  0
  9  7  1  0
 10  4  1  0
  9 10  1  1
 11 12  2  0
 11  9  1  0
 13 11  1  0
 14 13  1  0
 14 15  1  0
 15 17  1  0
 16 15  2  0
M  END
$$$$
