ATG.pdb
     RDKit          3D

 17 16  0  0  1  0  0  0  0  0999 V2000
   17.9480  -12.6447  -14.4217 C   0  0  0  0  0  0  0  0  0  0  0  0
   17.6073  -11.7454  -15.5728 C   0  0  2  0  0  0  0  0  0  0  0  0
   17.1860  -12.5858  -16.6773 N   0  0  0  0  0  0  0  0  0  0  0  0
   18.6910  -10.8386  -15.9522 C   0  0  0  0  0  0  0  0  0  0  0  0
   19.6440  -11.2279  -16.6433 O   0  0  0  0  0  0  0  0  0  0  0  0
   18.4015   -8.0139  -18.0658 C   0  0  0  0  0  0  0  0  0  0  0  0
   19.0571   -7.4260  -16.8342 C   0  0  1  0  0  0  0  0  0  0  0  0
   18.0624   -6.6969  -16.1672 O   0  0  0  0  0  0  0  0  0  0  0  0
   19.5921   -8.4763  -15.9109 C   0  0  2  0  0  0  0  0  0  0  0  0
   18.6751   -9.4958  -15.5381 N   0  0  0  0  0  0  0  0  0  0  0  0
   20.2801   -7.8959  -14.7283 C   0  0  0  0  0  0  0  0  0  0  0  0
   19.7473   -7.8318  -13.5918 O   0  0  0  0  0  0  0  0  0  0  0  0
   21.5993   -7.3815  -14.8532 N   0  0  0  0  0  0  0  0  0  0  0  0
   22.3272   -6.8154  -13.7373 C   0  0  0  0  0  0  0  0  0  0  0  0
   22.0439   -5.3800  -13.5528 C   0  0  0  0  0  0  0  0  0  0  0  0
   21.2170   -4.8276  -14.3210 O   0  0  0  0  0  0  0  0  0  0  0  0
   22.6450   -4.6233  -12.5783 O   0  0  0  0  0  0  0  0  0  0  0  0
  2  1  1  1
  2  4  1  0
  2  3  1  0
  4  5  2  0
  7  6  1  6
  8  7  1  0
  9  7  1  0
 10  4  1  0
  9 10  1  1
 11 12  2  0
 11  9  1  0
 13 11  1  0
 14 13  1  0
 14 15  1  0
 15 17  1  0
 16 15  2  0
M  END
$$$$
