ATG.pdb
     RDKit          3D

 17 16  0  0  1  0  0  0  0  0999 V2000
   15.9105  -10.5036  -15.6952 C   0  0  0  0  0  0  0  0  0  0  0  0
   17.1320  -11.0348  -16.3848 C   0  0  2  0  0  0  0  0  0  0  0  0
   16.9829  -12.4732  -16.4968 N   0  0  0  0  0  0  0  0  0  0  0  0
   18.3865  -10.6597  -15.7320 C   0  0  0  0  0  0  0  0  0  0  0  0
   18.7959  -11.2630  -14.7291 O   0  0  0  0  0  0  0  0  0  0  0  0
   21.7473  -10.9779  -16.5370 C   0  0  0  0  0  0  0  0  0  0  0  0
   21.6263   -9.4786  -16.3649 C   0  0  1  0  0  0  0  0  0  0  0  0
   21.6320   -8.9310  -17.6557 O   0  0  0  0  0  0  0  0  0  0  0  0
   20.3599   -9.0797  -15.6729 C   0  0  2  0  0  0  0  0  0  0  0  0
   19.1610   -9.5988  -16.2317 N   0  0  0  0  0  0  0  0  0  0  0  0
   20.2726   -7.6130  -15.4493 C   0  0  0  0  0  0  0  0  0  0  0  0
   19.5143   -6.8647  -16.1161 O   0  0  0  0  0  0  0  0  0  0  0  0
   21.0679   -6.9970  -14.4451 N   0  0  0  0  0  0  0  0  0  0  0  0
   21.0353   -5.5733  -14.1850 C   0  0  0  0  0  0  0  0  0  0  0  0
   21.9006   -5.1894  -13.0543 C   0  0  0  0  0  0  0  0  0  0  0  0
   22.3853   -6.0978  -12.3338 O   0  0  0  0  0  0  0  0  0  0  0  0
   22.1980   -3.8832  -12.7565 O   0  0  0  0  0  0  0  0  0  0  0  0
  2  1  1  1
  2  4  1  0
  2  3  1  0
  4  5  2  0
  7  6  1  6
  8  7  1  0
  9  7  1  0
 10  4  1  0
  9 10  1  6
 11 12  2  0
 11  9  1  0
 13 11  1  0
 14 13  1  0
 14 15  1  0
 15 17  1  0
 16 15  2  0
M  END
$$$$
