ATG.pdb
     RDKit          3D

 17 16  0  0  1  0  0  0  0  0999 V2000
   18.8012  -13.0695  -17.2511 C   0  0  0  0  0  0  0  0  0  0  0  0
   18.8593  -11.7015  -16.6391 C   0  0  2  0  0  0  0  0  0  0  0  0
   19.0070  -10.7433  -17.7179 N   0  0  0  0  0  0  0  0  0  0  0  0
   19.9029  -11.5543  -15.6244 C   0  0  0  0  0  0  0  0  0  0  0  0
   19.9479  -12.2994  -14.6342 O   0  0  0  0  0  0  0  0  0  0  0  0
   23.4765  -12.1158  -15.8677 C   0  0  0  0  0  0  0  0  0  0  0  0
   23.3401  -10.6584  -15.4809 C   0  0  1  0  0  0  0  0  0  0  0  0
   23.5077   -9.9192  -16.6605 O   0  0  0  0  0  0  0  0  0  0  0  0
   21.9989  -10.3422  -14.8951 C   0  0  2  0  0  0  0  0  0  0  0  0
   20.8852  -10.5572  -15.7509 N   0  0  0  0  0  0  0  0  0  0  0  0
   21.9572   -8.9967  -14.2653 C   0  0  0  0  0  0  0  0  0  0  0  0
   22.7842   -8.6241  -13.3954 O   0  0  0  0  0  0  0  0  0  0  0  0
   20.9506   -8.0657  -14.6404 N   0  0  0  0  0  0  0  0  0  0  0  0
   20.8584   -6.7397  -14.0669 C   0  0  0  0  0  0  0  0  0  0  0  0
   19.7592   -5.9502  -14.6527 C   0  0  0  0  0  0  0  0  0  0  0  0
   19.0660   -6.4694  -15.5632 O   0  0  0  0  0  0  0  0  0  0  0  0
   19.4622   -4.6738  -14.2452 O   0  0  0  0  0  0  0  0  0  0  0  0
  2  1  1  6
  2  4  1  0
  2  3  1  0
  4  5  2  0
  7  6  1  6
  8  7  1  0
  9  7  1  0
 10  4  1  0
  9 10  1  6
 11 12  2  0
 11  9  1  0
 13 11  1  0
 14 13  1  0
 14 15  1  0
 15 17  1  0
 16 15  2  0
M  END
$$$$
