ATG.pdb
     RDKit          3D

 17 16  0  0  1  0  0  0  0  0999 V2000
   17.0455  -12.4920  -15.7526 C   0  0  0  0  0  0  0  0  0  0  0  0
   17.3320  -11.0287  -15.9151 C   0  0  2  0  0  0  0  0  0  0  0  0
   17.3373  -10.7371  -17.3359 N   0  0  0  0  0  0  0  0  0  0  0  0
   18.5649  -10.5938  -15.2584 C   0  0  0  0  0  0  0  0  0  0  0  0
   18.7452  -10.7716  -14.0446 O   0  0  0  0  0  0  0  0  0  0  0  0
   22.2597   -9.9209  -17.5011 C   0  0  0  0  0  0  0  0  0  0  0  0
   22.0431  -10.1658  -16.0228 C   0  0  1  0  0  0  0  0  0  0  0  0
   23.1714   -9.6521  -15.3678 O   0  0  0  0  0  0  0  0  0  0  0  0
   20.8210   -9.4773  -15.4990 C   0  0  2  0  0  0  0  0  0  0  0  0
   19.5800   -9.9599  -15.9952 N   0  0  0  0  0  0  0  0  0  0  0  0
   20.9157   -7.9976  -15.5997 C   0  0  0  0  0  0  0  0  0  0  0  0
   20.5957   -7.3619  -16.6356 O   0  0  0  0  0  0  0  0  0  0  0  0
   21.3849   -7.2371  -14.4943 N   0  0  0  0  0  0  0  0  0  0  0  0
   21.4660   -5.7918  -14.5169 C   0  0  0  0  0  0  0  0  0  0  0  0
   22.0479   -5.2431  -13.2780 C   0  0  0  0  0  0  0  0  0  0  0  0
   22.3570   -6.0389  -12.3559 O   0  0  0  0  0  0  0  0  0  0  0  0
   22.2655   -3.9011  -13.0904 O   0  0  0  0  0  0  0  0  0  0  0  0
  2  1  1  6
  2  4  1  0
  2  3  1  0
  4  5  2  0
  7  6  1  6
  8  7  1  0
  9  7  1  0
 10  4  1  0
  9 10  1  6
 11 12  2  0
 11  9  1  0
 13 11  1  0
 14 13  1  0
 14 15  1  0
 15 17  1  0
 16 15  2  0
M  END
$$$$
