PSL.pdb
     RDKit          3D

 22 22  0  0  1  0  0  0  0  0999 V2000
   20.5238  -15.2841  -19.9174 N   0  0  0  0  0  0  0  0  0  0  0  0
   20.6568  -16.7308  -19.7049 C   0  0  0  0  0  0  0  0  0  0  0  0
   21.7576  -16.8483  -18.6780 C   0  0  0  0  0  0  0  0  0  0  0  0
   21.9520  -15.4363  -18.1251 C   0  0  0  0  0  0  0  0  0  0  0  0
   20.6412  -14.7874  -18.5766 C   0  0  1  0  0  0  0  0  0  0  0  0
   20.8173  -13.3207  -18.5246 C   0  0  0  0  0  0  0  0  0  0  0  0
   21.5477  -12.8050  -19.4242 O   0  0  0  0  0  0  0  0  0  0  0  0
   19.3781   -8.9300  -17.8689 O   0  0  0  0  0  0  0  0  0  0  0  0
   19.1659  -10.2958  -17.8118 C   0  0  0  0  0  0  0  0  0  0  0  0
   20.4467  -11.0773  -17.5806 C   0  0  2  0  0  0  0  0  0  0  0  0
   20.2241  -12.4868  -17.5429 N   0  0  0  0  0  0  0  0  0  0  0  0
   21.1736  -10.5620  -16.4048 C   0  0  0  0  0  0  0  0  0  0  0  0
   20.8692  -10.9851  -15.2752 O   0  0  0  0  0  0  0  0  0  0  0  0
   25.1199  -10.7010  -14.3242 C   0  0  0  0  0  0  0  0  0  0  0  0
   25.1546  -10.0716  -15.7299 C   0  0  2  0  0  0  0  0  0  0  0  0
   26.5710   -9.9668  -16.1349 C   0  0  0  0  0  0  0  0  0  0  0  0
   24.3551   -8.8428  -15.6977 C   0  0  0  0  0  0  0  0  0  0  0  0
   22.8922   -8.9851  -15.4526 C   0  0  2  0  0  0  0  0  0  0  0  0
   22.1881   -9.6166  -16.5339 N   0  0  0  0  0  0  0  0  0  0  0  0
   22.2218   -7.6972  -15.1767 C   0  0  0  0  0  0  0  0  0  0  0  0
   21.6265   -7.0961  -16.1008 O   0  0  0  0  0  0  0  0  0  0  0  0
   22.2250   -7.1228  -13.9245 O   0  0  0  0  0  0  0  0  0  0  0  0
  2  1  1  0
  3  4  1  0
  3  2  1  0
  4  5  1  0
  5  1  1  0
  5  6  1  6
  7  6  2  0
  8  9  1  0
 10  9  1  1
 10 11  1  0
 10 12  1  0
 11  6  1  0
 12 19  1  0
 13 12  2  0
 15 14  1  1
 16 15  1  0
 17 15  1  0
 18 17  1  6
 19 18  1  0
 20 18  1  0
 20 22  1  0
 21 20  2  0
M  END
$$$$
