PSL.pdb
     RDKit          3D

 22 22  0  0  1  0  0  0  0  0999 V2000
   19.6631  -12.7549  -16.8861 N   0  0  0  0  0  0  0  0  0  0  0  0
   19.4933  -13.9174  -17.7668 C   0  0  0  0  0  0  0  0  0  0  0  0
   18.7088  -13.3755  -18.9378 C   0  0  0  0  0  0  0  0  0  0  0  0
   18.7708  -11.8541  -18.8013 C   0  0  0  0  0  0  0  0  0  0  0  0
   19.9504  -11.7182  -17.8352 C   0  0  1  0  0  0  0  0  0  0  0  0
   19.8971  -10.3671  -17.2383 C   0  0  0  0  0  0  0  0  0  0  0  0
   20.4547   -9.4352  -17.8936 O   0  0  0  0  0  0  0  0  0  0  0  0
   18.6614   -9.1814  -13.2471 O   0  0  0  0  0  0  0  0  0  0  0  0
   18.2052   -8.5610  -14.3964 C   0  0  0  0  0  0  0  0  0  0  0  0
   19.1619   -8.7179  -15.5647 C   0  0  2  0  0  0  0  0  0  0  0  0
   19.2690  -10.0726  -16.0014 N   0  0  0  0  0  0  0  0  0  0  0  0
   20.4626   -8.0875  -15.2691 C   0  0  0  0  0  0  0  0  0  0  0  0
   21.4196   -8.8088  -14.9354 O   0  0  0  0  0  0  0  0  0  0  0  0
   24.0463   -4.0296  -17.5681 C   0  0  0  0  0  0  0  0  0  0  0  0
   23.7179   -4.6724  -16.2072 C   0  0  2  0  0  0  0  0  0  0  0  0
   24.9316   -5.3740  -15.7426 C   0  0  0  0  0  0  0  0  0  0  0  0
   22.4865   -5.4541  -16.3590 C   0  0  0  0  0  0  0  0  0  0  0  0
   21.8665   -6.0011  -15.1193 C   0  0  2  0  0  0  0  0  0  0  0  0
   20.6389   -6.7087  -15.3559 N   0  0  0  0  0  0  0  0  0  0  0  0
   21.5942   -4.9654  -14.1007 C   0  0  0  0  0  0  0  0  0  0  0  0
   20.4773   -4.3982  -14.0745 O   0  0  0  0  0  0  0  0  0  0  0  0
   22.5337   -4.5934  -13.1644 O   0  0  0  0  0  0  0  0  0  0  0  0
  2  1  1  0
  3  4  1  0
  3  2  1  0
  4  5  1  0
  5  1  1  0
  5  6  1  1
  7  6  2  0
  8  9  1  0
 10  9  1  1
 10 11  1  0
 10 12  1  0
 11  6  1  0
 12 19  1  0
 13 12  2  0
 15 14  1  6
 16 15  1  0
 17 15  1  0
 18 17  1  6
 19 18  1  0
 20 18  1  0
 20 22  1  0
 21 20  2  0
M  END
$$$$
