PSL.pdb
     RDKit          3D

 22 22  0  0  1  0  0  0  0  0999 V2000
   19.6703  -15.2559  -17.4416 N   0  0  0  0  0  0  0  0  0  0  0  0
   19.5995  -16.6220  -17.9751 C   0  0  0  0  0  0  0  0  0  0  0  0
   19.8364  -16.4471  -19.4562 C   0  0  0  0  0  0  0  0  0  0  0  0
   20.3593  -15.0199  -19.6199 C   0  0  0  0  0  0  0  0  0  0  0  0
   20.7782  -14.7195  -18.1786 C   0  0  1  0  0  0  0  0  0  0  0  0
   20.9022  -13.2535  -18.0363 C   0  0  0  0  0  0  0  0  0  0  0  0
   22.0119  -12.7425  -18.3770 O   0  0  0  0  0  0  0  0  0  0  0  0
   18.9034   -8.8892  -17.8851 O   0  0  0  0  0  0  0  0  0  0  0  0
   18.7461  -10.2636  -17.8771 C   0  0  0  0  0  0  0  0  0  0  0  0
   20.0367  -10.9980  -17.5617 C   0  0  2  0  0  0  0  0  0  0  0  0
   19.8667  -12.4152  -17.5501 N   0  0  0  0  0  0  0  0  0  0  0  0
   20.6587  -10.4672  -16.3338 C   0  0  0  0  0  0  0  0  0  0  0  0
   20.2353  -10.8521  -15.2291 O   0  0  0  0  0  0  0  0  0  0  0  0
   24.2866  -10.8312  -14.0389 C   0  0  0  0  0  0  0  0  0  0  0  0
   24.5530  -10.1111  -15.3744 C   0  0  2  0  0  0  0  0  0  0  0  0
   26.0163  -10.0584  -15.5666 C   0  0  0  0  0  0  0  0  0  0  0  0
   23.8140   -8.8445  -15.3634 C   0  0  0  0  0  0  0  0  0  0  0  0
   22.3296   -8.9198  -15.2566 C   0  0  2  0  0  0  0  0  0  0  0  0
   21.7045   -9.5490  -16.3868 N   0  0  0  0  0  0  0  0  0  0  0  0
   21.6930   -7.5987  -15.0739 C   0  0  0  0  0  0  0  0  0  0  0  0
   21.1039   -7.0543  -16.0365 O   0  0  0  0  0  0  0  0  0  0  0  0
   21.7214   -6.9319  -13.8688 O   0  0  0  0  0  0  0  0  0  0  0  0
  2  1  1  0
  3  4  1  0
  3  2  1  0
  4  5  1  0
  5  1  1  0
  5  6  1  6
  7  6  2  0
  8  9  1  0
 10  9  1  1
 10 11  1  0
 10 12  1  0
 11  6  1  0
 12 19  1  0
 13 12  2  0
 15 14  1  1
 16 15  1  0
 17 15  1  0
 18 17  1  6
 19 18  1  0
 20 18  1  0
 20 22  1  0
 21 20  2  0
M  END
$$$$
