PSL.pdb
     RDKit          3D

 22 22  0  0  1  0  0  0  0  0999 V2000
   18.6013  -10.1760  -16.4702 N   0  0  0  0  0  0  0  0  0  0  0  0
   18.6162  -11.2785  -17.4397 C   0  0  0  0  0  0  0  0  0  0  0  0
   19.0468  -12.4744  -16.6244 C   0  0  0  0  0  0  0  0  0  0  0  0
   18.9273  -12.0372  -15.1644 C   0  0  0  0  0  0  0  0  0  0  0  0
   18.0216  -10.8133  -15.3231 C   0  0  1  0  0  0  0  0  0  0  0  0
   18.1394   -9.9972  -14.0963 C   0  0  0  0  0  0  0  0  0  0  0  0
   17.6420  -10.4889  -13.0382 O   0  0  0  0  0  0  0  0  0  0  0  0
   19.5230   -5.9237  -13.8124 O   0  0  0  0  0  0  0  0  0  0  0  0
   19.8330   -6.8738  -12.8558 C   0  0  0  0  0  0  0  0  0  0  0  0
   18.8286   -8.0114  -12.8146 C   0  0  2  0  0  0  0  0  0  0  0  0
   18.7652   -8.7255  -14.0489 N   0  0  0  0  0  0  0  0  0  0  0  0
   17.5153   -7.5380  -12.3375 C   0  0  0  0  0  0  0  0  0  0  0  0
   16.6245   -7.2924  -13.1705 O   0  0  0  0  0  0  0  0  0  0  0  0
   14.8225   -6.7978   -6.8022 C   0  0  0  0  0  0  0  0  0  0  0  0
   14.6535   -6.6337   -8.3246 C   0  0  2  0  0  0  0  0  0  0  0  0
   13.3706   -7.2621   -8.6994 C   0  0  0  0  0  0  0  0  0  0  0  0
   15.8747   -7.1223   -8.9729 C   0  0  0  0  0  0  0  0  0  0  0  0
   16.0518   -6.8123  -10.4196 C   0  0  2  0  0  0  0  0  0  0  0  0
   17.2548   -7.3616  -10.9808 N   0  0  0  0  0  0  0  0  0  0  0  0
   16.0477   -5.3628  -10.7075 C   0  0  0  0  0  0  0  0  0  0  0  0
   17.1135   -4.7095  -10.6235 O   0  0  0  0  0  0  0  0  0  0  0  0
   14.9011   -4.6911  -11.0707 O   0  0  0  0  0  0  0  0  0  0  0  0
  2  1  1  0
  3  4  1  0
  3  2  1  0
  4  5  1  0
  5  1  1  0
  5  6  1  1
  7  6  2  0
  8  9  1  0
 10  9  1  6
 10 11  1  0
 10 12  1  0
 11  6  1  0
 12 19  1  0
 13 12  2  0
 15 14  1  1
 16 15  1  0
 17 15  1  0
 18 17  1  1
 19 18  1  0
 20 18  1  0
 20 22  1  0
 21 20  2  0
M  END
$$$$
