PSL.pdb
     RDKit          3D

 22 22  0  0  1  0  0  0  0  0999 V2000
   37.8831   -7.1185  -13.8265 N   0  0  0  0  0  0  0  0  0  0  0  0
   37.1320   -7.4148  -15.0528 C   0  0  0  0  0  0  0  0  0  0  0  0
   36.0744   -8.3949  -14.6042 C   0  0  0  0  0  0  0  0  0  0  0  0
   36.0860   -8.3367  -13.0766 C   0  0  0  0  0  0  0  0  0  0  0  0
   36.8252   -7.0133  -12.8631 C   0  0  1  0  0  0  0  0  0  0  0  0
   37.3213   -6.9880  -11.4710 C   0  0  0  0  0  0  0  0  0  0  0  0
   36.4435   -6.9375  -10.5569 O   0  0  0  0  0  0  0  0  0  0  0  0
   41.3952   -6.4886  -10.0548 O   0  0  0  0  0  0  0  0  0  0  0  0
   40.5360   -7.4574   -9.5678 C   0  0  0  0  0  0  0  0  0  0  0  0
   39.0749   -7.0860   -9.7457 C   0  0  2  0  0  0  0  0  0  0  0  0
   38.6951   -7.0168  -11.1198 N   0  0  0  0  0  0  0  0  0  0  0  0
   38.7430   -5.8702   -8.9787 C   0  0  0  0  0  0  0  0  0  0  0  0
   38.5031   -4.8162   -9.5945 O   0  0  0  0  0  0  0  0  0  0  0  0
   36.7390   -4.6070   -3.3367 C   0  0  0  0  0  0  0  0  0  0  0  0
   37.2987   -3.9747   -4.6251 C   0  0  2  0  0  0  0  0  0  0  0  0
   36.3835   -2.8847   -5.0190 C   0  0  0  0  0  0  0  0  0  0  0  0
   37.5432   -5.0510   -5.5906 C   0  0  0  0  0  0  0  0  0  0  0  0
   38.4313   -4.7436   -6.7470 C   0  0  2  0  0  0  0  0  0  0  0  0
   38.6932   -5.8793   -7.5869 N   0  0  0  0  0  0  0  0  0  0  0  0
   39.7356   -4.1782   -6.3432 C   0  0  0  0  0  0  0  0  0  0  0  0
   39.8196   -2.9661   -6.0374 O   0  0  0  0  0  0  0  0  0  0  0  0
   40.8803   -4.9427   -6.2882 O   0  0  0  0  0  0  0  0  0  0  0  0
  2  1  1  0
  3  4  1  0
  3  2  1  0
  4  5  1  0
  5  1  1  0
  5  6  1  1
  7  6  2  0
  8  9  1  0
 10  9  1  6
 10 11  1  0
 10 12  1  0
 11  6  1  0
 12 19  1  0
 13 12  2  0
 15 14  1  1
 16 15  1  0
 17 15  1  0
 18 17  1  1
 19 18  1  0
 20 18  1  0
 20 22  1  0
 21 20  2  0
M  END
$$$$
