AHW.pdb
     RDKit          3D

 30 32  0  0  1  0  0  0  0  0999 V2000
    8.4971  -12.2286   19.7592 C   0  0  0  0  0  0  0  0  0  0  0  0
    8.3288  -13.5634   19.1035 C   0  0  2  0  0  0  0  0  0  0  0  0
    7.0731  -13.5869   18.3868 N   0  0  0  0  0  0  0  0  0  0  0  0
    8.4195  -14.6987   20.0619 C   0  0  0  0  0  0  0  0  0  0  0  0
    7.3779  -15.1675   20.5881 O   0  0  0  0  0  0  0  0  0  0  0  0
    9.6496  -15.2959   20.4232 N   0  0  0  0  0  0  0  0  0  0  0  0
    9.7190  -16.4718   21.2763 C   0  0  1  0  0  0  0  0  0  0  0  0
   10.6335  -17.5154   20.6627 C   0  0  0  0  0  0  0  0  0  0  0  0
   10.0276  -18.0953   19.4314 C   0  0  0  0  0  0  0  0  0  0  0  0
    8.6802  -18.2209   19.2159 C   0  0  0  0  0  0  0  0  0  0  0  0
    8.5618  -18.7907   17.9845 N   0  0  0  0  0  0  0  0  0  0  0  0
    9.7819  -19.0046   17.4694 C   0  0  0  0  0  0  0  0  0  0  0  0
   10.6930  -18.5807   18.3507 N   0  0  0  0  0  0  0  0  0  0  0  0
   10.2748  -16.1096   22.5930 C   0  0  0  0  0  0  0  0  0  0  0  0
   11.1610  -15.2334   22.6703 O   0  0  0  0  0  0  0  0  0  0  0  0
    9.7956  -16.7602   23.7490 N   0  0  0  0  0  0  0  0  0  0  0  0
   10.1922  -16.3679   25.0857 C   0  0  1  0  0  0  0  0  0  0  0  0
    9.7810  -14.9321   25.3079 C   0  0  0  0  0  0  0  0  0  0  0  0
    8.3207  -14.7784   25.4445 C   0  0  0  0  0  0  0  0  0  0  0  0
    7.3278  -15.7086   25.2388 C   0  0  0  0  0  0  0  0  0  0  0  0
    6.1380  -15.1392   25.4802 N   0  0  0  0  0  0  0  0  0  0  0  0
    6.2904  -13.8476   25.8445 C   0  0  0  0  0  0  0  0  0  0  0  0
    5.3931  -12.8595   26.1882 C   0  0  0  0  0  0  0  0  0  0  0  0
    5.8996  -11.6092   26.5175 C   0  0  0  0  0  0  0  0  0  0  0  0
    7.2546  -11.3357   26.5096 C   0  0  0  0  0  0  0  0  0  0  0  0
    8.0975  -12.3680   26.1567 C   0  0  0  0  0  0  0  0  0  0  0  0
    7.6608  -13.6252   25.8208 C   0  0  0  0  0  0  0  0  0  0  0  0
    9.6013  -17.2901   26.0518 C   0  0  0  0  0  0  0  0  0  0  0  0
    9.9767  -17.2346   27.3813 O   0  0  0  0  0  0  0  0  0  0  0  0
    8.7367  -18.1666   25.7305 O   0  0  0  0  0  0  0  0  0  0  0  0
  2  1  1  1
  2  3  1  0
  2  4  1  0
  4  5  2  0
  6  4  1  0
  6  7  1  0
  7 14  1  0
  7  8  1  6
  9  8  1  0
 10  9  2  0
 11 12  1  0
 11 10  1  0
 12 13  2  0
 13  9  1  0
 14 15  2  0
 16 17  1  0
 16 14  1  0
 17 28  1  0
 17 18  1  1
 19 18  1  0
 20 19  2  0
 21 22  1  0
 21 20  1  0
 22 27  2  0
 23 22  1  0
 23 24  2  0
 24 25  1  0
 25 26  2  0
 27 19  1  0
 27 26  1  0
 28 30  2  0
 28 29  1  0
M  END
$$$$
