AHW.pdb
     RDKit          3D

 30 32  0  0  1  0  0  0  0  0999 V2000
    8.0154  -12.0913   19.2495 C   0  0  0  0  0  0  0  0  0  0  0  0
    8.6050  -13.3796   18.7672 C   0  0  2  0  0  0  0  0  0  0  0  0
    8.2025  -13.6038   17.3965 N   0  0  0  0  0  0  0  0  0  0  0  0
    8.2482  -14.5413   19.6268 C   0  0  0  0  0  0  0  0  0  0  0  0
    7.2940  -15.2956   19.3071 O   0  0  0  0  0  0  0  0  0  0  0  0
    8.9444  -14.8514   20.8181 N   0  0  0  0  0  0  0  0  0  0  0  0
    9.1400  -16.2209   21.2671 C   0  0  1  0  0  0  0  0  0  0  0  0
    9.8798  -17.0214   20.2117 C   0  0  0  0  0  0  0  0  0  0  0  0
   10.0918  -18.4259   20.6612 C   0  0  0  0  0  0  0  0  0  0  0  0
   10.5356  -18.7819   21.9079 C   0  0  0  0  0  0  0  0  0  0  0  0
   10.5874  -20.1429   21.8990 N   0  0  0  0  0  0  0  0  0  0  0  0
   10.1932  -20.5996   20.7008 C   0  0  0  0  0  0  0  0  0  0  0  0
    9.8853  -19.5521   19.9296 N   0  0  0  0  0  0  0  0  0  0  0  0
    9.9560  -16.2393   22.4949 C   0  0  0  0  0  0  0  0  0  0  0  0
   11.1753  -15.9781   22.4310 O   0  0  0  0  0  0  0  0  0  0  0  0
    9.3452  -16.5524   23.7269 N   0  0  0  0  0  0  0  0  0  0  0  0
   10.0090  -16.3548   24.9991 C   0  0  1  0  0  0  0  0  0  0  0  0
    9.7135  -14.9556   25.4839 C   0  0  0  0  0  0  0  0  0  0  0  0
    8.2669  -14.6841   25.5752 C   0  0  0  0  0  0  0  0  0  0  0  0
    7.2088  -15.5312   25.3375 C   0  0  0  0  0  0  0  0  0  0  0  0
    6.0620  -14.8672   25.5424 N   0  0  0  0  0  0  0  0  0  0  0  0
    6.3071  -13.5917   25.9130 C   0  0  0  0  0  0  0  0  0  0  0  0
    5.4824  -12.5338   26.2299 C   0  0  0  0  0  0  0  0  0  0  0  0
    6.0779  -11.3281   26.5764 C   0  0  0  0  0  0  0  0  0  0  0  0
    7.4502  -11.1652   26.6110 C   0  0  0  0  0  0  0  0  0  0  0  0
    8.2174  -12.2628   26.2832 C   0  0  0  0  0  0  0  0  0  0  0  0
    7.6910  -13.4809   25.9323 C   0  0  0  0  0  0  0  0  0  0  0  0
    9.5740  -17.3897   25.9334 C   0  0  0  0  0  0  0  0  0  0  0  0
   10.2425  -17.5673   27.1305 O   0  0  0  0  0  0  0  0  0  0  0  0
    8.5874  -18.1590   25.7016 O   0  0  0  0  0  0  0  0  0  0  0  0
  2  1  1  1
  2  3  1  0
  2  4  1  0
  4  5  2  0
  6  4  1  0
  6  7  1  0
  7 14  1  0
  7  8  1  6
  9  8  1  0
 10  9  2  0
 11 12  1  0
 11 10  1  0
 12 13  2  0
 13  9  1  0
 14 15  2  0
 16 17  1  0
 16 14  1  0
 17 28  1  0
 17 18  1  1
 19 18  1  0
 20 19  2  0
 21 22  1  0
 21 20  1  0
 22 27  2  0
 23 22  1  0
 23 24  2  0
 24 25  1  0
 25 26  2  0
 27 19  1  0
 27 26  1  0
 28 30  2  0
 28 29  1  0
M  END
$$$$
