AHW.pdb
     RDKit          3D

 30 32  0  0  1  0  0  0  0  0999 V2000
    5.4797  -20.1974   22.2004 C   0  0  0  0  0  0  0  0  0  0  0  0
    5.9240  -19.8748   20.8081 C   0  0  2  0  0  0  0  0  0  0  0  0
    5.9044  -21.0809   20.0106 N   0  0  0  0  0  0  0  0  0  0  0  0
    7.2613  -19.2228   20.7599 C   0  0  0  0  0  0  0  0  0  0  0  0
    8.2078  -19.6678   21.4581 O   0  0  0  0  0  0  0  0  0  0  0  0
    7.5325  -18.0972   19.9477 N   0  0  0  0  0  0  0  0  0  0  0  0
    8.8240  -17.4285   19.9566 C   0  0  1  0  0  0  0  0  0  0  0  0
    9.1381  -16.8695   18.5815 C   0  0  0  0  0  0  0  0  0  0  0  0
    9.3811  -17.9672   17.6041 C   0  0  0  0  0  0  0  0  0  0  0  0
    9.6992  -19.2550   17.9483 C   0  0  0  0  0  0  0  0  0  0  0  0
    9.8335  -19.9226   16.7687 N   0  0  0  0  0  0  0  0  0  0  0  0
    9.6079  -19.0814   15.7483 C   0  0  0  0  0  0  0  0  0  0  0  0
    9.3283  -17.8743   16.2495 N   0  0  0  0  0  0  0  0  0  0  0  0
    8.8025  -16.2987   20.9037 C   0  0  0  0  0  0  0  0  0  0  0  0
    8.2723  -15.2196   20.5669 O   0  0  0  0  0  0  0  0  0  0  0  0
    9.3827  -16.4544   22.1797 N   0  0  0  0  0  0  0  0  0  0  0  0
    9.5186  -15.3559   23.1139 C   0  0  1  0  0  0  0  0  0  0  0  0
    8.1575  -14.7403   23.3343 C   0  0  0  0  0  0  0  0  0  0  0  0
    7.8215  -14.6120   24.7645 C   0  0  0  0  0  0  0  0  0  0  0  0
    7.7851  -15.5844   25.7374 C   0  0  0  0  0  0  0  0  0  0  0  0
    7.4305  -15.0242   26.9030 N   0  0  0  0  0  0  0  0  0  0  0  0
    7.2239  -13.6979   26.7533 C   0  0  0  0  0  0  0  0  0  0  0  0
    6.8531  -12.7029   27.6322 C   0  0  0  0  0  0  0  0  0  0  0  0
    6.7281  -11.4122   27.1356 C   0  0  0  0  0  0  0  0  0  0  0  0
    6.9616  -11.1057   25.8081 C   0  0  0  0  0  0  0  0  0  0  0  0
    7.3292  -12.1469   24.9825 C   0  0  0  0  0  0  0  0  0  0  0  0
    7.4701  -13.4434   25.4108 C   0  0  0  0  0  0  0  0  0  0  0  0
   10.1330  -15.8459   24.3450 C   0  0  0  0  0  0  0  0  0  0  0  0
   10.7979  -14.9704   25.1833 O   0  0  0  0  0  0  0  0  0  0  0  0
   10.0901  -17.0672   24.6997 O   0  0  0  0  0  0  0  0  0  0  0  0
  2  1  1  1
  2  3  1  0
  2  4  1  0
  4  5  2  0
  6  4  1  0
  6  7  1  0
  7 14  1  0
  7  8  1  6
  9  8  1  0
 10  9  2  0
 11 12  1  0
 11 10  1  0
 12 13  2  0
 13  9  1  0
 14 15  2  0
 16 17  1  0
 16 14  1  0
 17 28  1  0
 17 18  1  1
 19 18  1  0
 20 19  2  0
 21 22  1  0
 21 20  1  0
 22 27  2  0
 23 22  1  0
 23 24  2  0
 24 25  1  0
 25 26  2  0
 27 19  1  0
 27 26  1  0
 28 30  2  0
 28 29  1  0
M  END
$$$$
