AHW.pdb
     RDKit          3D

 30 32  0  0  1  0  0  0  0  0999 V2000
    8.2576  -12.3866   19.9758 C   0  0  0  0  0  0  0  0  0  0  0  0
    8.1354  -13.7392   19.3469 C   0  0  2  0  0  0  0  0  0  0  0  0
    6.8772  -13.8234   18.6394 N   0  0  0  0  0  0  0  0  0  0  0  0
    8.2745  -14.8515   20.3263 C   0  0  0  0  0  0  0  0  0  0  0  0
    7.2615  -15.3025   20.9197 O   0  0  0  0  0  0  0  0  0  0  0  0
    9.5203  -15.4457   20.6344 N   0  0  0  0  0  0  0  0  0  0  0  0
    9.6364  -16.5753   21.5431 C   0  0  1  0  0  0  0  0  0  0  0  0
   10.5776  -17.6185   20.9703 C   0  0  0  0  0  0  0  0  0  0  0  0
    9.9943  -18.2499   19.7535 C   0  0  0  0  0  0  0  0  0  0  0  0
    8.7372  -18.7916   19.6884 C   0  0  0  0  0  0  0  0  0  0  0  0
    8.6072  -19.2532   18.4136 N   0  0  0  0  0  0  0  0  0  0  0  0
    9.7341  -19.0055   17.7291 C   0  0  0  0  0  0  0  0  0  0  0  0
   10.5959  -18.3880   18.5430 N   0  0  0  0  0  0  0  0  0  0  0  0
   10.1940  -16.1315   22.8338 C   0  0  0  0  0  0  0  0  0  0  0  0
   11.0935  -15.2658   22.8538 O   0  0  0  0  0  0  0  0  0  0  0  0
    9.7013  -16.6930   24.0300 N   0  0  0  0  0  0  0  0  0  0  0  0
   10.1778  -16.2871   25.3362 C   0  0  1  0  0  0  0  0  0  0  0  0
    9.8189  -14.8360   25.5500 C   0  0  0  0  0  0  0  0  0  0  0  0
    8.3616  -14.6098   25.5507 C   0  0  0  0  0  0  0  0  0  0  0  0
    7.3469  -15.4915   25.2568 C   0  0  0  0  0  0  0  0  0  0  0  0
    6.1697  -14.8627   25.3857 N   0  0  0  0  0  0  0  0  0  0  0  0
    6.3518  -13.5775   25.7590 C   0  0  0  0  0  0  0  0  0  0  0  0
    5.4768  -12.5439   26.0156 C   0  0  0  0  0  0  0  0  0  0  0  0
    6.0122  -11.3177   26.3869 C   0  0  0  0  0  0  0  0  0  0  0  0
    7.3741  -11.1112   26.5033 C   0  0  0  0  0  0  0  0  0  0  0  0
    8.1937  -12.1862   26.2326 C   0  0  0  0  0  0  0  0  0  0  0  0
    7.7278  -13.4229   25.8613 C   0  0  0  0  0  0  0  0  0  0  0  0
    9.6126  -17.1735   26.3502 C   0  0  0  0  0  0  0  0  0  0  0  0
   10.0324  -17.0793   27.6641 O   0  0  0  0  0  0  0  0  0  0  0  0
    8.7313  -18.0523   26.0855 O   0  0  0  0  0  0  0  0  0  0  0  0
  2  1  1  1
  2  3  1  0
  2  4  1  0
  4  5  2  0
  6  4  1  0
  6  7  1  0
  7 14  1  0
  7  8  1  6
  9  8  1  0
 10  9  2  0
 11 12  1  0
 11 10  1  0
 12 13  2  0
 13  9  1  0
 14 15  2  0
 16 17  1  0
 16 14  1  0
 17 28  1  0
 17 18  1  1
 19 18  1  0
 20 19  2  0
 21 22  1  0
 21 20  1  0
 22 27  2  0
 23 22  1  0
 23 24  2  0
 24 25  1  0
 25 26  2  0
 27 19  1  0
 27 26  1  0
 28 30  2  0
 28 29  1  0
M  END
$$$$
