AHW.pdb
     RDKit          3D

 30 32  0  0  1  0  0  0  0  0999 V2000
    7.1526  -13.0224   18.9507 C   0  0  0  0  0  0  0  0  0  0  0  0
    8.5147  -13.5130   19.3302 C   0  0  2  0  0  0  0  0  0  0  0  0
    9.2037  -13.9700   18.1440 N   0  0  0  0  0  0  0  0  0  0  0  0
    8.4816  -14.5749   20.3729 C   0  0  0  0  0  0  0  0  0  0  0  0
    7.9168  -14.3612   21.4759 O   0  0  0  0  0  0  0  0  0  0  0  0
    9.0681  -15.8479   20.1844 N   0  0  0  0  0  0  0  0  0  0  0  0
    8.9788  -16.8982   21.1865 C   0  0  1  0  0  0  0  0  0  0  0  0
    9.5635  -18.1910   20.6491 C   0  0  0  0  0  0  0  0  0  0  0  0
    9.3781  -19.3035   21.6226 C   0  0  0  0  0  0  0  0  0  0  0  0
    8.2292  -19.5258   22.3357 C   0  0  0  0  0  0  0  0  0  0  0  0
    8.4820  -20.6276   23.0955 N   0  0  0  0  0  0  0  0  0  0  0  0
    9.7296  -21.0602   22.8584 C   0  0  0  0  0  0  0  0  0  0  0  0
   10.2918  -20.2533   21.9532 N   0  0  0  0  0  0  0  0  0  0  0  0
    9.7520  -16.5222   22.3841 C   0  0  0  0  0  0  0  0  0  0  0  0
   10.7239  -15.7460   22.2741 O   0  0  0  0  0  0  0  0  0  0  0  0
    9.3812  -17.0462   23.6398 N   0  0  0  0  0  0  0  0  0  0  0  0
    9.9570  -16.5749   24.8825 C   0  0  1  0  0  0  0  0  0  0  0  0
    9.7176  -15.0879   24.9905 C   0  0  0  0  0  0  0  0  0  0  0  0
    8.3069  -14.7627   25.2714 C   0  0  0  0  0  0  0  0  0  0  0  0
    7.1902  -15.5546   25.1326 C   0  0  0  0  0  0  0  0  0  0  0  0
    6.1086  -14.8549   25.5049 N   0  0  0  0  0  0  0  0  0  0  0  0
    6.4551  -13.6087   25.8937 C   0  0  0  0  0  0  0  0  0  0  0  0
    5.7245  -12.5340   26.3531 C   0  0  0  0  0  0  0  0  0  0  0  0
    6.4124  -11.3706   26.6717 C   0  0  0  0  0  0  0  0  0  0  0  0
    7.7846  -11.2649   26.5424 C   0  0  0  0  0  0  0  0  0  0  0  0
    8.4550  -12.3764   26.0777 C   0  0  0  0  0  0  0  0  0  0  0  0
    7.8346  -13.5549   25.7457 C   0  0  0  0  0  0  0  0  0  0  0  0
    9.3848  -17.3304   25.9938 C   0  0  0  0  0  0  0  0  0  0  0  0
    9.9271  -17.2169   27.2605 O   0  0  0  0  0  0  0  0  0  0  0  0
    8.3877  -18.1092   25.8586 O   0  0  0  0  0  0  0  0  0  0  0  0
  2  1  1  6
  2  3  1  0
  2  4  1  0
  4  5  2  0
  6  4  1  0
  6  7  1  0
  7 14  1  0
  7  8  1  6
  9  8  1  0
 10  9  2  0
 11 12  1  0
 11 10  1  0
 12 13  2  0
 13  9  1  0
 14 15  2  0
 16 17  1  0
 16 14  1  0
 17 28  1  0
 17 18  1  1
 19 18  1  0
 20 19  2  0
 21 22  1  0
 21 20  1  0
 22 27  2  0
 23 22  1  0
 23 24  2  0
 24 25  1  0
 25 26  2  0
 27 19  1  0
 27 26  1  0
 28 30  2  0
 28 29  1  0
M  END
$$$$
