AHW.pdb
     RDKit          3D

 30 32  0  0  1  0  0  0  0  0999 V2000
    8.5467  -12.2013   20.1581 C   0  0  0  0  0  0  0  0  0  0  0  0
    8.4575  -13.5742   19.5690 C   0  0  2  0  0  0  0  0  0  0  0  0
    7.2289  -13.6900   18.8154 N   0  0  0  0  0  0  0  0  0  0  0  0
    8.5640  -14.6535   20.5885 C   0  0  0  0  0  0  0  0  0  0  0  0
    7.5438  -15.0307   21.2197 O   0  0  0  0  0  0  0  0  0  0  0  0
    9.7860  -15.2963   20.8945 N   0  0  0  0  0  0  0  0  0  0  0  0
    9.8534  -16.4570   21.7683 C   0  0  1  0  0  0  0  0  0  0  0  0
   10.9131  -17.4257   21.2778 C   0  0  0  0  0  0  0  0  0  0  0  0
   10.4820  -18.0914   20.0166 C   0  0  0  0  0  0  0  0  0  0  0  0
    9.2047  -18.5182   19.7630 C   0  0  0  0  0  0  0  0  0  0  0  0
    9.2454  -19.0615   18.5147 N   0  0  0  0  0  0  0  0  0  0  0  0
   10.4916  -18.9715   18.0261 C   0  0  0  0  0  0  0  0  0  0  0  0
   11.2625  -18.3760   18.9414 N   0  0  0  0  0  0  0  0  0  0  0  0
   10.2252  -16.0420   23.1333 C   0  0  0  0  0  0  0  0  0  0  0  0
   11.0228  -15.0952   23.2960 O   0  0  0  0  0  0  0  0  0  0  0  0
    9.6728  -16.7226   24.2381 N   0  0  0  0  0  0  0  0  0  0  0  0
    9.9354  -16.3296   25.6072 C   0  0  1  0  0  0  0  0  0  0  0  0
    8.6735  -16.5225   26.4138 C   0  0  0  0  0  0  0  0  0  0  0  0
    7.5862  -15.6240   25.9832 C   0  0  0  0  0  0  0  0  0  0  0  0
    6.4568  -15.9169   25.2537 C   0  0  0  0  0  0  0  0  0  0  0  0
    5.7376  -14.7968   25.0920 N   0  0  0  0  0  0  0  0  0  0  0  0
    6.3436  -13.7483   25.6901 C   0  0  0  0  0  0  0  0  0  0  0  0
    6.0117  -12.4154   25.8045 C   0  0  0  0  0  0  0  0  0  0  0  0
    6.8801  -11.5883   26.5045 C   0  0  0  0  0  0  0  0  0  0  0  0
    8.0463  -12.0587   27.0785 C   0  0  0  0  0  0  0  0  0  0  0  0
    8.3189  -13.4017   26.9272 C   0  0  0  0  0  0  0  0  0  0  0  0
    7.5026  -14.2713   26.2478 C   0  0  0  0  0  0  0  0  0  0  0  0
   11.0667  -17.0987   26.1189 C   0  0  0  0  0  0  0  0  0  0  0  0
   11.6153  -16.7882   27.3494 O   0  0  0  0  0  0  0  0  0  0  0  0
   11.5909  -18.0652   25.4785 O   0  0  0  0  0  0  0  0  0  0  0  0
  2  1  1  1
  2  3  1  0
  2  4  1  0
  4  5  2  0
  6  4  1  0
  6  7  1  0
  7 14  1  0
  7  8  1  6
  9  8  1  0
 10  9  2  0
 11 12  1  0
 11 10  1  0
 12 13  2  0
 13  9  1  0
 14 15  2  0
 16 17  1  0
 16 14  1  0
 17 28  1  0
 17 18  1  1
 19 18  1  0
 20 19  2  0
 21 22  1  0
 21 20  1  0
 22 27  2  0
 23 22  1  0
 23 24  2  0
 24 25  1  0
 25 26  2  0
 27 19  1  0
 27 26  1  0
 28 30  2  0
 28 29  1  0
M  END
$$$$
