GCL.pdb
     RDKit          3D

 19 18  0  0  1  0  0  0  0  0999 V2000
    2.8029  -18.9747   21.6703 N   0  0  0  0  0  0  0  0  0  0  0  0
    3.4431  -17.7030   21.5951 C   0  0  0  0  0  0  0  0  0  0  0  0
    4.8696  -17.8077   21.9818 C   0  0  0  0  0  0  0  0  0  0  0  0
    5.2139  -18.7209   22.7695 O   0  0  0  0  0  0  0  0  0  0  0  0
    5.8655  -16.9141   21.4957 N   0  0  0  0  0  0  0  0  0  0  0  0
    7.2286  -16.9518   21.9884 C   0  0  1  0  0  0  0  0  0  0  0  0
    8.1589  -16.7972   20.7782 C   0  0  0  0  0  0  0  0  0  0  0  0
    9.8814  -16.8051   21.2589 S   0  0  0  0  0  0  0  0  0  0  0  0
    7.4942  -15.8287   22.9270 C   0  0  0  0  0  0  0  0  0  0  0  0
    7.0715  -14.6897   22.6093 O   0  0  0  0  0  0  0  0  0  0  0  0
    8.4444  -12.6451   26.8922 C   0  0  0  0  0  0  0  0  0  0  0  0
    7.2685  -12.8296   25.9132 C   0  0  2  0  0  0  0  0  0  0  0  0
    6.0424  -12.2894   26.5790 C   0  0  0  0  0  0  0  0  0  0  0  0
    7.1557  -14.2527   25.4991 C   0  0  0  0  0  0  0  0  0  0  0  0
    8.4308  -14.8249   24.9757 C   0  0  2  0  0  0  0  0  0  0  0  0
    8.1925  -15.9923   24.1422 N   0  0  0  0  0  0  0  0  0  0  0  0
    9.3656  -15.2351   26.0309 C   0  0  0  0  0  0  0  0  0  0  0  0
    9.0198  -16.2034   26.9647 O   0  0  0  0  0  0  0  0  0  0  0  0
   10.5291  -14.7088   26.1213 O   0  0  0  0  0  0  0  0  0  0  0  0
  1  2  1  0
  2  3  1  0
  3  4  2  0
  5  3  1  0
  5  6  1  0
  6  9  1  0
  6  7  1  6
  8  7  1  0
  9 10  2  0
 12 14  1  0
 12 11  1  1
 13 12  1  0
 15 14  1  1
 15 17  1  0
 16  9  1  0
 16 15  1  0
 17 19  2  0
 17 18  1  0
M  END
$$$$
