GCL.pdb
     RDKit          3D

 19 18  0  0  1  0  0  0  0  0999 V2000
    7.8853  -12.7272   18.8980 N   0  0  0  0  0  0  0  0  0  0  0  0
    8.3937  -13.9813   19.3467 C   0  0  0  0  0  0  0  0  0  0  0  0
    7.7863  -14.3623   20.6433 C   0  0  0  0  0  0  0  0  0  0  0  0
    7.1535  -13.4935   21.2897 O   0  0  0  0  0  0  0  0  0  0  0  0
    7.8916  -15.6745   21.1856 N   0  0  0  0  0  0  0  0  0  0  0  0
    7.2171  -16.0474   22.4137 C   0  0  1  0  0  0  0  0  0  0  0  0
    7.0977  -17.5770   22.4259 C   0  0  0  0  0  0  0  0  0  0  0  0
    6.3360  -18.1721   23.9305 S   0  0  0  0  0  0  0  0  0  0  0  0
    8.0011  -15.6316   23.6074 C   0  0  0  0  0  0  0  0  0  0  0  0
    9.2510  -15.7393   23.5518 O   0  0  0  0  0  0  0  0  0  0  0  0
    7.6769  -11.6295   25.2795 C   0  0  0  0  0  0  0  0  0  0  0  0
    6.7367  -12.6350   25.9727 C   0  0  2  0  0  0  0  0  0  0  0  0
    5.7915  -11.8495   26.8258 C   0  0  0  0  0  0  0  0  0  0  0  0
    7.5231  -13.6524   26.7184 C   0  0  0  0  0  0  0  0  0  0  0  0
    8.2580  -14.6041   25.8347 C   0  0  2  0  0  0  0  0  0  0  0  0
    7.4026  -15.1282   24.7821 N   0  0  0  0  0  0  0  0  0  0  0  0
    8.8132  -15.7593   26.5509 C   0  0  0  0  0  0  0  0  0  0  0  0
    8.4373  -17.0569   26.2282 O   0  0  0  0  0  0  0  0  0  0  0  0
    9.6608  -15.6025   27.4973 O   0  0  0  0  0  0  0  0  0  0  0  0
  1  2  1  0
  2  3  1  0
  3  4  2  0
  5  3  1  0
  5  6  1  0
  6  9  1  0
  6  7  1  6
  8  7  1  0
  9 10  2  0
 12 14  1  0
 12 11  1  1
 13 12  1  0
 15 14  1  1
 15 17  1  0
 16  9  1  0
 16 15  1  0
 17 19  2  0
 17 18  1  0
M  END
$$$$
