GCL.pdb
     RDKit          3D

 19 18  0  0  1  0  0  0  0  0999 V2000
    9.2975  -17.9479   19.2382 N   0  0  0  0  0  0  0  0  0  0  0  0
    9.1845  -18.7795   20.3907 C   0  0  0  0  0  0  0  0  0  0  0  0
    8.5571  -18.0424   21.5125 C   0  0  0  0  0  0  0  0  0  0  0  0
    8.2649  -16.8336   21.3495 O   0  0  0  0  0  0  0  0  0  0  0  0
    8.2724  -18.6501   22.7681 N   0  0  0  0  0  0  0  0  0  0  0  0
    7.6496  -17.9105   23.8485 C   0  0  1  0  0  0  0  0  0  0  0  0
    6.6356  -18.8455   24.5205 C   0  0  0  0  0  0  0  0  0  0  0  0
    7.3947  -20.3733   25.0572 S   0  0  0  0  0  0  0  0  0  0  0  0
    8.6513  -17.4991   24.8682 C   0  0  0  0  0  0  0  0  0  0  0  0
    9.8149  -17.9594   24.7628 O   0  0  0  0  0  0  0  0  0  0  0  0
    9.4847  -13.6676   29.6940 C   0  0  0  0  0  0  0  0  0  0  0  0
   10.0577  -14.6687   28.6718 C   0  0  2  0  0  0  0  0  0  0  0  0
   11.2416  -14.0210   28.0259 C   0  0  0  0  0  0  0  0  0  0  0  0
    9.0032  -15.0948   27.7148 C   0  0  0  0  0  0  0  0  0  0  0  0
    9.4121  -16.2371   26.8459 C   0  0  2  0  0  0  0  0  0  0  0  0
    8.3482  -16.6245   25.9334 N   0  0  0  0  0  0  0  0  0  0  0  0
    9.7904  -17.4397   27.5984 C   0  0  0  0  0  0  0  0  0  0  0  0
   11.1220  -17.7431   27.8517 O   0  0  0  0  0  0  0  0  0  0  0  0
    8.9008  -18.2460   28.0424 O   0  0  0  0  0  0  0  0  0  0  0  0
  1  2  1  0
  2  3  1  0
  3  4  2  0
  5  3  1  0
  5  6  1  0
  6  9  1  0
  6  7  1  1
  8  7  1  0
  9 10  2  0
 12 14  1  0
 12 11  1  1
 13 12  1  0
 15 14  1  1
 15 17  1  0
 16  9  1  0
 16 15  1  0
 17 19  2  0
 17 18  1  0
M  END
$$$$
