GCL.pdb
     RDKit          3D

 19 18  0  0  1  0  0  0  0  0999 V2000
    4.5310  -18.6325   21.4254 N   0  0  0  0  0  0  0  0  0  0  0  0
    4.7756  -17.3797   22.0605 C   0  0  0  0  0  0  0  0  0  0  0  0
    6.1785  -16.9498   21.8547 C   0  0  0  0  0  0  0  0  0  0  0  0
    7.0911  -17.8037   21.9602 O   0  0  0  0  0  0  0  0  0  0  0  0
    6.5331  -15.6070   21.5420 N   0  0  0  0  0  0  0  0  0  0  0  0
    7.9175  -15.1831   21.4647 C   0  0  1  0  0  0  0  0  0  0  0  0
    7.9772  -13.9804   20.5139 C   0  0  0  0  0  0  0  0  0  0  0  0
    7.1591  -14.3203   18.9603 S   0  0  0  0  0  0  0  0  0  0  0  0
    8.4245  -14.7513   22.7948 C   0  0  0  0  0  0  0  0  0  0  0  0
    9.0050  -13.6401   22.8659 O   0  0  0  0  0  0  0  0  0  0  0  0
    5.7923  -12.5995   26.9580 C   0  0  0  0  0  0  0  0  0  0  0  0
    7.1984  -13.1780   26.7055 C   0  0  2  0  0  0  0  0  0  0  0  0
    8.1814  -12.0674   26.9017 C   0  0  0  0  0  0  0  0  0  0  0  0
    7.2646  -13.8158   25.3645 C   0  0  0  0  0  0  0  0  0  0  0  0
    8.3162  -14.8690   25.2558 C   0  0  2  0  0  0  0  0  0  0  0  0
    8.2802  -15.5314   23.9618 N   0  0  0  0  0  0  0  0  0  0  0  0
    8.2033  -15.9175   26.2774 C   0  0  0  0  0  0  0  0  0  0  0  0
    9.0385  -15.9366   27.3870 O   0  0  0  0  0  0  0  0  0  0  0  0
    7.3301  -16.8477   26.1729 O   0  0  0  0  0  0  0  0  0  0  0  0
  1  2  1  0
  2  3  1  0
  3  4  2  0
  5  3  1  0
  5  6  1  0
  6  9  1  0
  6  7  1  6
  8  7  1  0
  9 10  2  0
 12 14  1  0
 12 11  1  6
 13 12  1  0
 15 14  1  6
 15 17  1  0
 16  9  1  0
 16 15  1  0
 17 19  2  0
 17 18  1  0
M  END
$$$$
