GCL.pdb
     RDKit          3D

 19 18  0  0  1  0  0  0  0  0999 V2000
    6.4938  -15.9973   18.9441 N   0  0  0  0  0  0  0  0  0  0  0  0
    7.5512  -16.3155   19.8459 C   0  0  0  0  0  0  0  0  0  0  0  0
    7.0657  -16.3216   21.2457 C   0  0  0  0  0  0  0  0  0  0  0  0
    5.9857  -15.7416   21.5105 O   0  0  0  0  0  0  0  0  0  0  0  0
    7.7751  -16.9591   22.3027 N   0  0  0  0  0  0  0  0  0  0  0  0
    7.2872  -16.9394   23.6679 C   0  0  1  0  0  0  0  0  0  0  0  0
    7.3262  -18.3815   24.1904 C   0  0  0  0  0  0  0  0  0  0  0  0
    6.7701  -18.4887   25.8868 S   0  0  0  0  0  0  0  0  0  0  0  0
    8.1564  -16.1042   24.5394 C   0  0  0  0  0  0  0  0  0  0  0  0
    9.3913  -16.1115   24.3116 O   0  0  0  0  0  0  0  0  0  0  0  0
    7.3168  -11.8853   25.0247 C   0  0  0  0  0  0  0  0  0  0  0  0
    6.7340  -12.7319   26.1731 C   0  0  2  0  0  0  0  0  0  0  0  0
    5.8010  -11.8550   26.9470 C   0  0  0  0  0  0  0  0  0  0  0  0
    7.8268  -13.3229   26.9891 C   0  0  0  0  0  0  0  0  0  0  0  0
    8.5616  -14.4217   26.2965 C   0  0  2  0  0  0  0  0  0  0  0  0
    7.6535  -15.3159   25.5962 N   0  0  0  0  0  0  0  0  0  0  0  0
    9.3658  -15.2510   27.2026 C   0  0  0  0  0  0  0  0  0  0  0  0
    9.1816  -16.6256   27.2771 O   0  0  0  0  0  0  0  0  0  0  0  0
   10.2613  -14.7284   27.9534 O   0  0  0  0  0  0  0  0  0  0  0  0
  1  2  1  0
  2  3  1  0
  3  4  2  0
  5  3  1  0
  5  6  1  0
  6  9  1  0
  6  7  1  1
  8  7  1  0
  9 10  2  0
 12 14  1  0
 12 11  1  6
 13 12  1  0
 15 14  1  1
 15 17  1  0
 16  9  1  0
 16 15  1  0
 17 19  2  0
 17 18  1  0
M  END
$$$$
