VEH.pdb
     RDKit          3D

 27 27  0  0  1  0  0  0  0  0999 V2000
    6.2875  -11.4096   26.0159 C   0  0  0  0  0  0  0  0  0  0  0  0
    7.2852  -12.5169   25.7395 C   0  0  1  0  0  0  0  0  0  0  0  0
    8.2918  -12.5982   26.8526 C   0  0  0  0  0  0  0  0  0  0  0  0
    6.5339  -13.8119   25.5309 C   0  0  2  0  0  0  0  0  0  0  0  0
    5.7084  -14.1214   26.6704 N   0  0  0  0  0  0  0  0  0  0  0  0
    7.3768  -14.9107   25.0807 C   0  0  0  0  0  0  0  0  0  0  0  0
    7.6620  -15.8470   25.8931 O   0  0  0  0  0  0  0  0  0  0  0  0
    7.9482  -15.0668   23.7704 N   0  0  0  0  0  0  0  0  0  0  0  0
    8.7771  -16.1530   23.4035 C   0  0  1  0  0  0  0  0  0  0  0  0
    9.0283  -16.4631   21.9870 C   0  0  0  0  0  0  0  0  0  0  0  0
    9.8453  -17.6488   21.6421 C   0  0  0  0  0  0  0  0  0  0  0  0
   10.0386  -17.8393   20.1939 C   0  0  0  0  0  0  0  0  0  0  0  0
    9.2343  -18.3947   19.4283 O   0  0  0  0  0  0  0  0  0  0  0  0
   10.0889  -16.0766   24.1250 C   0  0  0  0  0  0  0  0  0  0  0  0
   10.8558  -15.0799   23.9035 O   0  0  0  0  0  0  0  0  0  0  0  0
   11.2300  -17.3584   19.6069 O   0  0  0  0  0  0  0  0  0  0  0  0
   10.4500  -17.1059   25.0335 N   0  0  0  0  0  0  0  0  0  0  0  0
   11.7229  -17.0680   25.7494 C   0  0  1  0  0  0  0  0  0  0  0  0
   11.3939  -17.3922   27.1867 C   0  0  0  0  0  0  0  0  0  0  0  0
   10.7506  -16.2600   27.8493 C   0  0  0  0  0  0  0  0  0  0  0  0
   10.3833  -15.0774   27.2511 C   0  0  0  0  0  0  0  0  0  0  0  0
    9.8381  -14.2956   28.1922 N   0  0  0  0  0  0  0  0  0  0  0  0
    9.8512  -14.9490   29.3622 C   0  0  0  0  0  0  0  0  0  0  0  0
   10.4116  -16.1507   29.1433 N   0  0  0  0  0  0  0  0  0  0  0  0
   12.7103  -17.9475   25.1298 C   0  0  0  0  0  0  0  0  0  0  0  0
   12.4040  -18.6863   24.1693 O   0  0  0  0  0  0  0  0  0  0  0  0
   14.0086  -17.9758   25.5996 O   0  0  0  0  0  0  0  0  0  0  0  0
  2  4  1  0
  2  1  1  1
  3  2  1  0
  4  6  1  0
  4  5  1  1
  6  7  2  0
  8  9  1  0
  8  6  1  0
  9 10  1  6
 11 10  1  0
 12 13  2  0
 12 11  1  0
 14 15  2  0
 14  9  1  0
 16 12  1  0
 17 14  1  0
 18 17  1  0
 18 25  1  0
 18 19  1  1
 20 19  1  0
 20 24  1  0
 21 22  1  0
 21 20  2  0
 22 23  1  0
 23 24  2  0
 25 27  1  0
 26 25  2  0
M  END
$$$$
