VEH.pdb
     RDKit          3D

 27 27  0  0  1  0  0  0  0  0999 V2000
    9.1994  -12.6982   20.1825 C   0  0  0  0  0  0  0  0  0  0  0  0
    8.1240  -13.3656   19.3482 C   0  0  1  0  0  0  0  0  0  0  0  0
    7.7321  -12.4780   18.2005 C   0  0  0  0  0  0  0  0  0  0  0  0
    8.6225  -14.7203   18.8998 C   0  0  2  0  0  0  0  0  0  0  0  0
    7.6909  -15.3413   17.9931 N   0  0  0  0  0  0  0  0  0  0  0  0
    9.0583  -15.5749   19.9954 C   0  0  0  0  0  0  0  0  0  0  0  0
    8.1845  -16.1363   20.7296 O   0  0  0  0  0  0  0  0  0  0  0  0
   10.4179  -15.8698   20.3592 N   0  0  0  0  0  0  0  0  0  0  0  0
   10.7734  -16.6783   21.4644 C   0  0  1  0  0  0  0  0  0  0  0  0
   12.0583  -17.3954   21.4899 C   0  0  0  0  0  0  0  0  0  0  0  0
   12.4079  -18.2069   22.6779 C   0  0  0  0  0  0  0  0  0  0  0  0
   13.7168  -18.8763   22.5789 C   0  0  0  0  0  0  0  0  0  0  0  0
   13.8939  -20.1040   22.5252 O   0  0  0  0  0  0  0  0  0  0  0  0
   10.6180  -15.9126   22.7437 C   0  0  0  0  0  0  0  0  0  0  0  0
   11.4644  -14.9970   23.0196 O   0  0  0  0  0  0  0  0  0  0  0  0
   14.8793  -18.0750   22.5406 O   0  0  0  0  0  0  0  0  0  0  0  0
    9.5411  -16.2180   23.6169 N   0  0  0  0  0  0  0  0  0  0  0  0
    9.2477  -15.3779   24.7754 C   0  0  1  0  0  0  0  0  0  0  0  0
    7.7604  -15.1227   24.7297 C   0  0  0  0  0  0  0  0  0  0  0  0
    7.3782  -14.0617   25.6586 C   0  0  0  0  0  0  0  0  0  0  0  0
    8.2263  -13.3839   26.5026 C   0  0  0  0  0  0  0  0  0  0  0  0
    7.4943  -12.5022   27.1961 N   0  0  0  0  0  0  0  0  0  0  0  0
    6.2136  -12.6045   26.8148 C   0  0  0  0  0  0  0  0  0  0  0  0
    6.1513  -13.5614   25.8734 N   0  0  0  0  0  0  0  0  0  0  0  0
    9.7308  -15.9860   26.0121 C   0  0  0  0  0  0  0  0  0  0  0  0
    9.5845  -15.4127   27.1130 O   0  0  0  0  0  0  0  0  0  0  0  0
   10.3612  -17.2143   25.9833 O   0  0  0  0  0  0  0  0  0  0  0  0
  2  4  1  0
  2  1  1  6
  3  2  1  0
  4  6  1  0
  4  5  1  1
  6  7  2  0
  8  9  1  0
  8  6  1  0
  9 10  1  6
 11 10  1  0
 12 13  2  0
 12 11  1  0
 14 15  2  0
 14  9  1  0
 16 12  1  0
 17 14  1  0
 18 17  1  0
 18 25  1  0
 18 19  1  1
 20 19  1  0
 20 24  1  0
 21 22  1  0
 21 20  2  0
 22 23  1  0
 23 24  2  0
 25 27  1  0
 26 25  2  0
M  END
$$$$
