VEH.pdb
     RDKit          3D

 27 27  0  0  1  0  0  0  0  0999 V2000
    8.5828  -12.1096   18.6817 C   0  0  0  0  0  0  0  0  0  0  0  0
    8.9168  -13.3145   19.5388 C   0  0  1  0  0  0  0  0  0  0  0  0
    8.4299  -13.1022   20.9447 C   0  0  0  0  0  0  0  0  0  0  0  0
    8.3321  -14.5506   18.8948 C   0  0  2  0  0  0  0  0  0  0  0  0
    6.9084  -14.4187   18.7178 N   0  0  0  0  0  0  0  0  0  0  0  0
    8.7481  -15.7932   19.5300 C   0  0  0  0  0  0  0  0  0  0  0  0
    7.9903  -16.3295   20.3995 O   0  0  0  0  0  0  0  0  0  0  0  0
    9.9666  -16.5142   19.2786 N   0  0  0  0  0  0  0  0  0  0  0  0
   10.3012  -17.7308   19.9185 C   0  0  1  0  0  0  0  0  0  0  0  0
    9.9627  -19.0234   19.3019 C   0  0  0  0  0  0  0  0  0  0  0  0
    8.9235  -19.0697   18.2482 C   0  0  0  0  0  0  0  0  0  0  0  0
    8.3755  -20.4166   18.0096 C   0  0  0  0  0  0  0  0  0  0  0  0
    9.0294  -21.4018   17.6312 O   0  0  0  0  0  0  0  0  0  0  0  0
   11.7506  -17.7388   20.3012 C   0  0  0  0  0  0  0  0  0  0  0  0
   12.6308  -17.7812   19.3770 O   0  0  0  0  0  0  0  0  0  0  0  0
    6.9951  -20.6269   18.2223 O   0  0  0  0  0  0  0  0  0  0  0  0
   12.1133  -17.6995   21.6731 N   0  0  0  0  0  0  0  0  0  0  0  0
   13.1150  -16.7551   22.1618 C   0  0  1  0  0  0  0  0  0  0  0  0
   12.6721  -15.3979   21.6705 C   0  0  0  0  0  0  0  0  0  0  0  0
   13.4114  -15.0026   20.4739 C   0  0  0  0  0  0  0  0  0  0  0  0
   14.3907  -15.7397   19.8502 C   0  0  0  0  0  0  0  0  0  0  0  0
   14.8288  -15.0319   18.8008 N   0  0  0  0  0  0  0  0  0  0  0  0
   14.1562  -13.8741   18.7453 C   0  0  0  0  0  0  0  0  0  0  0  0
   13.2907  -13.8642   19.7732 N   0  0  0  0  0  0  0  0  0  0  0  0
   13.2878  -16.8606   23.6080 C   0  0  0  0  0  0  0  0  0  0  0  0
   12.3704  -17.2944   24.3375 O   0  0  0  0  0  0  0  0  0  0  0  0
   14.4780  -16.4801   24.1960 O   0  0  0  0  0  0  0  0  0  0  0  0
  2  4  1  0
  2  1  1  6
  3  2  1  0
  4  6  1  0
  4  5  1  1
  6  7  2  0
  8  9  1  0
  8  6  1  0
  9 10  1  6
 11 10  1  0
 12 13  2  0
 12 11  1  0
 14 15  2  0
 14  9  1  0
 16 12  1  0
 17 14  1  0
 18 17  1  0
 18 25  1  0
 18 19  1  1
 20 19  1  0
 20 24  1  0
 21 22  1  0
 21 20  2  0
 22 23  1  0
 23 24  2  0
 25 27  1  0
 26 25  2  0
M  END
$$$$
