VEH.pdb
     RDKit          3D

 27 27  0  0  1  0  0  0  0  0999 V2000
    8.4850  -12.6833   21.3164 C   0  0  0  0  0  0  0  0  0  0  0  0
    7.4762  -13.4590   20.4926 C   0  0  1  0  0  0  0  0  0  0  0  0
    7.0227  -12.6370   19.3191 C   0  0  0  0  0  0  0  0  0  0  0  0
    8.0894  -14.7787   20.0837 C   0  0  2  0  0  0  0  0  0  0  0  0
    7.2558  -15.4639   19.1291 N   0  0  0  0  0  0  0  0  0  0  0  0
    8.5165  -15.5985   21.2090 C   0  0  0  0  0  0  0  0  0  0  0  0
    7.6462  -16.2559   21.8634 O   0  0  0  0  0  0  0  0  0  0  0  0
    9.8636  -15.7575   21.6866 N   0  0  0  0  0  0  0  0  0  0  0  0
   10.2165  -16.6064   22.7619 C   0  0  1  0  0  0  0  0  0  0  0  0
   11.4981  -17.3299   22.7603 C   0  0  0  0  0  0  0  0  0  0  0  0
   12.7572  -16.5661   22.6067 C   0  0  0  0  0  0  0  0  0  0  0  0
   13.9566  -17.4125   22.4797 C   0  0  0  0  0  0  0  0  0  0  0  0
   14.9426  -17.1598   21.7688 O   0  0  0  0  0  0  0  0  0  0  0  0
   10.0658  -15.8861   24.0678 C   0  0  0  0  0  0  0  0  0  0  0  0
    9.9617  -14.6135   24.0602 O   0  0  0  0  0  0  0  0  0  0  0  0
   14.0105  -18.6153   23.2183 O   0  0  0  0  0  0  0  0  0  0  0  0
   10.0419  -16.6274   25.2783 N   0  0  0  0  0  0  0  0  0  0  0  0
    9.2924  -16.1527   26.4389 C   0  0  1  0  0  0  0  0  0  0  0  0
    7.8818  -15.9265   25.9507 C   0  0  0  0  0  0  0  0  0  0  0  0
    7.5006  -14.5212   26.0711 C   0  0  0  0  0  0  0  0  0  0  0  0
    8.2774  -13.5169   26.5993 C   0  0  0  0  0  0  0  0  0  0  0  0
    7.5706  -12.3805   26.5419 N   0  0  0  0  0  0  0  0  0  0  0  0
    6.3748  -12.6389   25.9947 C   0  0  0  0  0  0  0  0  0  0  0  0
    6.3402  -13.9517   25.7096 N   0  0  0  0  0  0  0  0  0  0  0  0
    9.4141  -17.0732   27.5661 C   0  0  0  0  0  0  0  0  0  0  0  0
    9.1642  -16.7012   28.7328 O   0  0  0  0  0  0  0  0  0  0  0  0
    9.8097  -18.3797   27.3578 O   0  0  0  0  0  0  0  0  0  0  0  0
  2  4  1  0
  2  1  1  6
  3  2  1  0
  4  6  1  0
  4  5  1  1
  6  7  2  0
  8  9  1  0
  8  6  1  0
  9 10  1  6
 11 10  1  0
 12 13  2  0
 12 11  1  0
 14 15  2  0
 14  9  1  0
 16 12  1  0
 17 14  1  0
 18 17  1  0
 18 25  1  0
 18 19  1  6
 20 19  1  0
 20 24  1  0
 21 22  1  0
 21 20  2  0
 22 23  1  0
 23 24  2  0
 25 27  1  0
 26 25  2  0
M  END
$$$$
