VEH.pdb
     RDKit          3D

 27 27  0  0  1  0  0  0  0  0999 V2000
    8.0095  -12.5229   19.3240 C   0  0  0  0  0  0  0  0  0  0  0  0
    8.3260  -13.4500   20.4808 C   0  0  1  0  0  0  0  0  0  0  0  0
    7.2474  -13.3654   21.5238 C   0  0  0  0  0  0  0  0  0  0  0  0
    8.5185  -14.8510   19.9468 C   0  0  2  0  0  0  0  0  0  0  0  0
    7.3876  -15.2638   19.1554 N   0  0  0  0  0  0  0  0  0  0  0  0
    8.9275  -15.8123   20.9613 C   0  0  0  0  0  0  0  0  0  0  0  0
    8.0830  -16.6632   21.3861 O   0  0  0  0  0  0  0  0  0  0  0  0
   10.2290  -15.9154   21.5641 N   0  0  0  0  0  0  0  0  0  0  0  0
   10.6069  -16.9661   22.4329 C   0  0  1  0  0  0  0  0  0  0  0  0
   11.9297  -17.6003   22.3160 C   0  0  0  0  0  0  0  0  0  0  0  0
   12.3017  -18.2640   21.0459 C   0  0  0  0  0  0  0  0  0  0  0  0
   13.7302  -18.6124   20.9508 C   0  0  0  0  0  0  0  0  0  0  0  0
   14.6535  -18.0266   21.5388 O   0  0  0  0  0  0  0  0  0  0  0  0
   10.3814  -16.5702   23.8610 C   0  0  0  0  0  0  0  0  0  0  0  0
   10.8330  -15.4468   24.2668 O   0  0  0  0  0  0  0  0  0  0  0  0
   14.1028  -19.6989   20.1287 O   0  0  0  0  0  0  0  0  0  0  0  0
    9.6756  -17.4454   24.7278 N   0  0  0  0  0  0  0  0  0  0  0  0
    9.5453  -17.1524   26.1530 C   0  0  1  0  0  0  0  0  0  0  0  0
    8.0762  -16.8928   26.3848 C   0  0  0  0  0  0  0  0  0  0  0  0
    7.7280  -15.5100   26.0667 C   0  0  0  0  0  0  0  0  0  0  0  0
    8.5864  -14.5541   25.5761 C   0  0  0  0  0  0  0  0  0  0  0  0
    7.8919  -13.4183   25.4282 N   0  0  0  0  0  0  0  0  0  0  0  0
    6.6249  -13.6301   25.8102 C   0  0  0  0  0  0  0  0  0  0  0  0
    6.5332  -14.9130   26.1996 N   0  0  0  0  0  0  0  0  0  0  0  0
   10.1195  -18.2167   26.9716 C   0  0  0  0  0  0  0  0  0  0  0  0
   10.5050  -19.2890   26.4583 O   0  0  0  0  0  0  0  0  0  0  0  0
   10.2470  -18.0523   28.3368 O   0  0  0  0  0  0  0  0  0  0  0  0
  2  4  1  0
  2  1  1  6
  3  2  1  0
  4  6  1  0
  4  5  1  1
  6  7  2  0
  8  9  1  0
  8  6  1  0
  9 10  1  1
 11 10  1  0
 12 13  2  0
 12 11  1  0
 14 15  2  0
 14  9  1  0
 16 12  1  0
 17 14  1  0
 18 17  1  0
 18 25  1  0
 18 19  1  1
 20 19  1  0
 20 24  1  0
 21 22  1  0
 21 20  2  0
 22 23  1  0
 23 24  2  0
 25 27  1  0
 26 25  2  0
M  END
$$$$
