VEH.pdb
     RDKit          3D

 27 27  0  0  1  0  0  0  0  0999 V2000
    8.3211  -12.2243   19.2024 C   0  0  0  0  0  0  0  0  0  0  0  0
    8.5231  -13.2375   20.3118 C   0  0  1  0  0  0  0  0  0  0  0  0
    7.4923  -13.0414   21.3877 C   0  0  0  0  0  0  0  0  0  0  0  0
    8.4947  -14.6268   19.7170 C   0  0  2  0  0  0  0  0  0  0  0  0
    7.3031  -14.8309   18.9334 N   0  0  0  0  0  0  0  0  0  0  0  0
    8.7694  -15.6818   20.6825 C   0  0  0  0  0  0  0  0  0  0  0  0
    7.8081  -16.3951   21.1124 O   0  0  0  0  0  0  0  0  0  0  0  0
   10.0543  -16.0249   21.2296 N   0  0  0  0  0  0  0  0  0  0  0  0
   10.2554  -17.0807   22.1496 C   0  0  1  0  0  0  0  0  0  0  0  0
   11.3819  -18.0141   21.9894 C   0  0  0  0  0  0  0  0  0  0  0  0
   11.3364  -19.0198   20.9037 C   0  0  0  0  0  0  0  0  0  0  0  0
   12.6335  -19.2405   20.2404 C   0  0  0  0  0  0  0  0  0  0  0  0
   13.7390  -19.2409   20.8056 O   0  0  0  0  0  0  0  0  0  0  0  0
   10.2526  -16.5577   23.5544 C   0  0  0  0  0  0  0  0  0  0  0  0
   11.0888  -15.6469   23.8736 O   0  0  0  0  0  0  0  0  0  0  0  0
   12.6439  -19.4723   18.8471 O   0  0  0  0  0  0  0  0  0  0  0  0
    9.3274  -17.0813   24.4953 N   0  0  0  0  0  0  0  0  0  0  0  0
    9.3499  -16.6556   25.8925 C   0  0  1  0  0  0  0  0  0  0  0  0
    7.9054  -16.4519   26.2816 C   0  0  0  0  0  0  0  0  0  0  0  0
    7.3944  -15.1830   25.7683 C   0  0  0  0  0  0  0  0  0  0  0  0
    8.1094  -14.2598   25.0420 C   0  0  0  0  0  0  0  0  0  0  0  0
    7.2937  -13.2325   24.7710 N   0  0  0  0  0  0  0  0  0  0  0  0
    6.0893  -13.4808   25.3039 C   0  0  0  0  0  0  0  0  0  0  0  0
    6.1597  -14.6768   25.9127 N   0  0  0  0  0  0  0  0  0  0  0  0
   10.0853  -17.6016   26.7272 C   0  0  0  0  0  0  0  0  0  0  0  0
   10.5240  -18.6727   26.2557 O   0  0  0  0  0  0  0  0  0  0  0  0
   10.3096  -17.3240   28.0613 O   0  0  0  0  0  0  0  0  0  0  0  0
  2  4  1  0
  2  1  1  6
  3  2  1  0
  4  6  1  0
  4  5  1  1
  6  7  2  0
  8  9  1  0
  8  6  1  0
  9 10  1  6
 11 10  1  0
 12 13  2  0
 12 11  1  0
 14 15  2  0
 14  9  1  0
 16 12  1  0
 17 14  1  0
 18 17  1  0
 18 25  1  0
 18 19  1  1
 20 19  1  0
 20 24  1  0
 21 22  1  0
 21 20  2  0
 22 23  1  0
 23 24  2  0
 25 27  1  0
 26 25  2  0
M  END
$$$$
