VEH.pdb
     RDKit          3D

 27 27  0  0  1  0  0  0  0  0999 V2000
    8.4440  -13.0352   20.9794 C   0  0  0  0  0  0  0  0  0  0  0  0
    8.0684  -13.3748   19.5506 C   0  0  1  0  0  0  0  0  0  0  0  0
    8.2098  -12.1618   18.6745 C   0  0  0  0  0  0  0  0  0  0  0  0
    8.9146  -14.5376   19.0852 C   0  0  2  0  0  0  0  0  0  0  0  0
    8.6130  -14.8843   17.7196 N   0  0  0  0  0  0  0  0  0  0  0  0
    8.9167  -15.6650   20.0070 C   0  0  0  0  0  0  0  0  0  0  0  0
    8.2999  -16.7300   19.6860 O   0  0  0  0  0  0  0  0  0  0  0  0
    9.5613  -15.7162   21.2914 N   0  0  0  0  0  0  0  0  0  0  0  0
    9.6372  -16.8872   22.0816 C   0  0  1  0  0  0  0  0  0  0  0  0
   10.5334  -17.9923   21.7053 C   0  0  0  0  0  0  0  0  0  0  0  0
   11.8625  -17.6799   21.1327 C   0  0  0  0  0  0  0  0  0  0  0  0
   12.8560  -18.7533   21.3109 C   0  0  0  0  0  0  0  0  0  0  0  0
   12.8011  -19.6482   22.1698 O   0  0  0  0  0  0  0  0  0  0  0  0
    9.8773  -16.5336   23.5184 C   0  0  0  0  0  0  0  0  0  0  0  0
   10.8290  -15.7315   23.8041 O   0  0  0  0  0  0  0  0  0  0  0  0
   13.9710  -18.7864   20.4443 O   0  0  0  0  0  0  0  0  0  0  0  0
    9.0482  -17.0932   24.5258 N   0  0  0  0  0  0  0  0  0  0  0  0
    9.1442  -16.6495   25.9143 C   0  0  1  0  0  0  0  0  0  0  0  0
    7.7348  -16.3053   26.3324 C   0  0  0  0  0  0  0  0  0  0  0  0
    7.3826  -14.9454   25.9311 C   0  0  0  0  0  0  0  0  0  0  0  0
    8.2368  -14.0205   25.3778 C   0  0  0  0  0  0  0  0  0  0  0  0
    7.5395  -12.8971   25.1636 N   0  0  0  0  0  0  0  0  0  0  0  0
    6.2749  -13.0865   25.5647 C   0  0  0  0  0  0  0  0  0  0  0  0
    6.1875  -14.3430   26.0333 N   0  0  0  0  0  0  0  0  0  0  0  0
    9.8081  -17.6470   26.7490 C   0  0  0  0  0  0  0  0  0  0  0  0
    9.9877  -17.4504   27.9701 O   0  0  0  0  0  0  0  0  0  0  0  0
   10.2506  -18.8330   26.1969 O   0  0  0  0  0  0  0  0  0  0  0  0
  2  4  1  0
  2  1  1  1
  3  2  1  0
  4  6  1  0
  4  5  1  6
  6  7  2  0
  8  9  1  0
  8  6  1  0
  9 10  1  6
 11 10  1  0
 12 13  2  0
 12 11  1  0
 14 15  2  0
 14  9  1  0
 16 12  1  0
 17 14  1  0
 18 17  1  0
 18 25  1  0
 18 19  1  1
 20 19  1  0
 20 24  1  0
 21 22  1  0
 21 20  2  0
 22 23  1  0
 23 24  2  0
 25 27  1  0
 26 25  2  0
M  END
$$$$
