VEH.pdb
     RDKit          3D

 27 27  0  0  1  0  0  0  0  0999 V2000
    9.1562  -12.7395   20.3719 C   0  0  0  0  0  0  0  0  0  0  0  0
    8.0763  -13.4281   19.5610 C   0  0  1  0  0  0  0  0  0  0  0  0
    7.7707  -12.6330   18.3228 C   0  0  0  0  0  0  0  0  0  0  0  0
    8.5183  -14.8414   19.2575 C   0  0  2  0  0  0  0  0  0  0  0  0
    7.5894  -15.4961   18.3719 N   0  0  0  0  0  0  0  0  0  0  0  0
    8.8664  -15.6123   20.4430 C   0  0  0  0  0  0  0  0  0  0  0  0
    7.9366  -16.0879   21.1689 O   0  0  0  0  0  0  0  0  0  0  0  0
   10.1942  -15.9103   20.9079 N   0  0  0  0  0  0  0  0  0  0  0  0
   10.4630  -16.6456   22.0862 C   0  0  1  0  0  0  0  0  0  0  0  0
   11.5702  -17.6140   22.1329 C   0  0  0  0  0  0  0  0  0  0  0  0
   11.6415  -18.6781   21.1059 C   0  0  0  0  0  0  0  0  0  0  0  0
   12.9230  -19.4051   21.0881 C   0  0  0  0  0  0  0  0  0  0  0  0
   13.3289  -20.1680   21.9796 O   0  0  0  0  0  0  0  0  0  0  0  0
   10.5720  -15.7245   23.2638 C   0  0  0  0  0  0  0  0  0  0  0  0
   10.9393  -14.5172   23.0688 O   0  0  0  0  0  0  0  0  0  0  0  0
   13.7758  -19.2349   19.9750 O   0  0  0  0  0  0  0  0  0  0  0  0
   10.2672  -16.2089   24.5630 N   0  0  0  0  0  0  0  0  0  0  0  0
    9.5891  -15.3641   25.5432 C   0  0  1  0  0  0  0  0  0  0  0  0
    8.3698  -14.8186   24.8396 C   0  0  0  0  0  0  0  0  0  0  0  0
    7.6203  -13.9135   25.7077 C   0  0  0  0  0  0  0  0  0  0  0  0
    7.9655  -13.5546   26.9896 C   0  0  0  0  0  0  0  0  0  0  0  0
    7.0218  -12.7225   27.4492 N   0  0  0  0  0  0  0  0  0  0  0  0
    6.0949  -12.5474   26.4972 C   0  0  0  0  0  0  0  0  0  0  0  0
    6.4689  -13.2801   25.4346 N   0  0  0  0  0  0  0  0  0  0  0  0
    9.3132  -16.0942   26.7774 C   0  0  0  0  0  0  0  0  0  0  0  0
    9.4880  -15.5622   27.8947 O   0  0  0  0  0  0  0  0  0  0  0  0
    8.8503  -17.3943   26.7279 O   0  0  0  0  0  0  0  0  0  0  0  0
  2  4  1  0
  2  1  1  6
  3  2  1  0
  4  6  1  0
  4  5  1  1
  6  7  2  0
  8  9  1  0
  8  6  1  0
  9 10  1  6
 11 10  1  0
 12 13  2  0
 12 11  1  0
 14 15  2  0
 14  9  1  0
 16 12  1  0
 17 14  1  0
 18 17  1  0
 18 25  1  0
 18 19  1  6
 20 19  1  0
 20 24  1  0
 21 22  1  0
 21 20  2  0
 22 23  1  0
 23 24  2  0
 25 27  1  0
 26 25  2  0
M  END
$$$$
