VEH.pdb
     RDKit          3D

 27 27  0  0  1  0  0  0  0  0999 V2000
    8.5556  -12.7823   21.3008 C   0  0  0  0  0  0  0  0  0  0  0  0
    7.5380  -13.4626   20.4065 C   0  0  1  0  0  0  0  0  0  0  0  0
    7.1031  -12.5293   19.3118 C   0  0  0  0  0  0  0  0  0  0  0  0
    8.1315  -14.7494   19.8804 C   0  0  2  0  0  0  0  0  0  0  0  0
    7.2671  -15.3561   18.9003 N   0  0  0  0  0  0  0  0  0  0  0  0
    8.5851  -15.6548   20.9269 C   0  0  0  0  0  0  0  0  0  0  0  0
    7.7266  -16.3318   21.5767 O   0  0  0  0  0  0  0  0  0  0  0  0
    9.9473  -15.8815   21.3280 N   0  0  0  0  0  0  0  0  0  0  0  0
   10.3304  -16.8588   22.2765 C   0  0  1  0  0  0  0  0  0  0  0  0
   11.6616  -17.4835   22.2177 C   0  0  0  0  0  0  0  0  0  0  0  0
   12.0003  -18.5520   23.1851 C   0  0  0  0  0  0  0  0  0  0  0  0
   13.3321  -19.1464   22.9754 C   0  0  0  0  0  0  0  0  0  0  0  0
   13.5621  -20.1896   22.3427 O   0  0  0  0  0  0  0  0  0  0  0  0
   10.0884  -16.3591   23.6689 C   0  0  0  0  0  0  0  0  0  0  0  0
   10.6345  -15.2637   24.0332 O   0  0  0  0  0  0  0  0  0  0  0  0
   14.4540  -18.4924   23.5312 O   0  0  0  0  0  0  0  0  0  0  0  0
    9.2632  -17.1077   24.5486 N   0  0  0  0  0  0  0  0  0  0  0  0
    9.0695  -16.6942   25.9363 C   0  0  1  0  0  0  0  0  0  0  0  0
    7.5882  -16.4437   26.0857 C   0  0  0  0  0  0  0  0  0  0  0  0
    7.2588  -15.0469   25.8118 C   0  0  0  0  0  0  0  0  0  0  0  0
    8.1569  -14.0505   25.5086 C   0  0  0  0  0  0  0  0  0  0  0  0
    7.4661  -12.9156   25.3386 N   0  0  0  0  0  0  0  0  0  0  0  0
    6.1631  -13.1670   25.5253 C   0  0  0  0  0  0  0  0  0  0  0  0
    6.0450  -14.4740   25.8147 N   0  0  0  0  0  0  0  0  0  0  0  0
    9.6261  -17.6717   26.8675 C   0  0  0  0  0  0  0  0  0  0  0  0
    9.5465  -17.5036   28.1034 O   0  0  0  0  0  0  0  0  0  0  0  0
   10.2534  -18.8064   26.3923 O   0  0  0  0  0  0  0  0  0  0  0  0
  2  4  1  0
  2  1  1  6
  3  2  1  0
  4  6  1  0
  4  5  1  1
  6  7  2  0
  8  9  1  0
  8  6  1  0
  9 10  1  1
 11 10  1  0
 12 13  2  0
 12 11  1  0
 14 15  2  0
 14  9  1  0
 16 12  1  0
 17 14  1  0
 18 17  1  0
 18 25  1  0
 18 19  1  1
 20 19  1  0
 20 24  1  0
 21 22  1  0
 21 20  2  0
 22 23  1  0
 23 24  2  0
 25 27  1  0
 26 25  2  0
M  END
$$$$
