VEH.pdb
     RDKit          3D

 27 27  0  0  1  0  0  0  0  0999 V2000
    7.8986  -12.2516   19.3380 C   0  0  0  0  0  0  0  0  0  0  0  0
    8.2086  -13.1117   20.5471 C   0  0  1  0  0  0  0  0  0  0  0  0
    7.3977  -12.6581   21.7283 C   0  0  0  0  0  0  0  0  0  0  0  0
    7.9685  -14.5611   20.1912 C   0  0  2  0  0  0  0  0  0  0  0  0
    6.6332  -14.7566   19.6868 N   0  0  0  0  0  0  0  0  0  0  0  0
    8.3593  -15.4930   21.2398 C   0  0  0  0  0  0  0  0  0  0  0  0
    7.4637  -15.9886   21.9948 O   0  0  0  0  0  0  0  0  0  0  0  0
    9.6955  -15.9361   21.5335 N   0  0  0  0  0  0  0  0  0  0  0  0
   10.0152  -16.7930   22.6129 C   0  0  1  0  0  0  0  0  0  0  0  0
   11.1290  -17.7493   22.5102 C   0  0  0  0  0  0  0  0  0  0  0  0
   11.1330  -18.9479   23.3794 C   0  0  0  0  0  0  0  0  0  0  0  0
   12.2197  -19.8973   23.0814 C   0  0  0  0  0  0  0  0  0  0  0  0
   13.0659  -19.7622   22.1829 O   0  0  0  0  0  0  0  0  0  0  0  0
   10.1655  -16.0050   23.8792 C   0  0  0  0  0  0  0  0  0  0  0  0
   10.2331  -14.7318   23.8074 O   0  0  0  0  0  0  0  0  0  0  0  0
   12.3263  -21.0644   23.8700 O   0  0  0  0  0  0  0  0  0  0  0  0
   10.2292  -16.6844   25.1240 N   0  0  0  0  0  0  0  0  0  0  0  0
    9.4265  -16.2478   26.2638 C   0  0  1  0  0  0  0  0  0  0  0  0
    7.9994  -16.2182   25.7720 C   0  0  0  0  0  0  0  0  0  0  0  0
    7.4219  -14.8831   25.9078 C   0  0  0  0  0  0  0  0  0  0  0  0
    8.0811  -13.7598   26.3493 C   0  0  0  0  0  0  0  0  0  0  0  0
    7.2080  -12.7440   26.3414 N   0  0  0  0  0  0  0  0  0  0  0  0
    6.0216  -13.1932   25.9093 C   0  0  0  0  0  0  0  0  0  0  0  0
    6.1613  -14.5036   25.6462 N   0  0  0  0  0  0  0  0  0  0  0  0
    9.6576  -17.0904   27.4338 C   0  0  0  0  0  0  0  0  0  0  0  0
   10.0689  -16.6032   28.5088 O   0  0  0  0  0  0  0  0  0  0  0  0
    9.4224  -18.4497   27.3697 O   0  0  0  0  0  0  0  0  0  0  0  0
  2  4  1  0
  2  1  1  6
  3  2  1  0
  4  6  1  0
  4  5  1  1
  6  7  2  0
  8  9  1  0
  8  6  1  0
  9 10  1  6
 11 10  1  0
 12 13  2  0
 12 11  1  0
 14 15  2  0
 14  9  1  0
 16 12  1  0
 17 14  1  0
 18 17  1  0
 18 25  1  0
 18 19  1  6
 20 19  1  0
 20 24  1  0
 21 22  1  0
 21 20  2  0
 22 23  1  0
 23 24  2  0
 25 27  1  0
 26 25  2  0
M  END
$$$$
