VEH.pdb
     RDKit          3D

 27 27  0  0  1  0  0  0  0  0999 V2000
    6.4354  -13.2069   19.0141 C   0  0  0  0  0  0  0  0  0  0  0  0
    7.4971  -14.0053   19.7444 C   0  0  1  0  0  0  0  0  0  0  0  0
    8.2314  -14.8951   18.7813 C   0  0  0  0  0  0  0  0  0  0  0  0
    8.4118  -13.0494   20.4757 C   0  0  2  0  0  0  0  0  0  0  0  0
    8.9560  -12.0633   19.5773 N   0  0  0  0  0  0  0  0  0  0  0  0
    9.4009  -13.7126   21.3138 C   0  0  0  0  0  0  0  0  0  0  0  0
   10.5623  -13.9347   20.8453 O   0  0  0  0  0  0  0  0  0  0  0  0
    9.2093  -14.1648   22.6653 N   0  0  0  0  0  0  0  0  0  0  0  0
    9.4056  -15.5041   23.0766 C   0  0  1  0  0  0  0  0  0  0  0  0
    8.3319  -16.5004   22.9337 C   0  0  0  0  0  0  0  0  0  0  0  0
    7.2546  -16.5503   23.9482 C   0  0  0  0  0  0  0  0  0  0  0  0
    7.5398  -17.4532   25.0772 C   0  0  0  0  0  0  0  0  0  0  0  0
    7.3050  -18.6721   25.0997 O   0  0  0  0  0  0  0  0  0  0  0  0
   10.6642  -16.0557   22.4778 C   0  0  0  0  0  0  0  0  0  0  0  0
   10.8125  -17.3226   22.4160 O   0  0  0  0  0  0  0  0  0  0  0  0
    8.1286  -16.9086   26.2399 O   0  0  0  0  0  0  0  0  0  0  0  0
   11.6591  -15.1657   21.9947 N   0  0  0  0  0  0  0  0  0  0  0  0
   12.8248  -15.6606   21.2666 C   0  0  1  0  0  0  0  0  0  0  0  0
   13.0498  -14.6812   20.1398 C   0  0  0  0  0  0  0  0  0  0  0  0
   14.2364  -15.0331   19.3636 C   0  0  0  0  0  0  0  0  0  0  0  0
   14.9909  -16.1730   19.5149 C   0  0  0  0  0  0  0  0  0  0  0  0
   15.9943  -16.1194   18.6292 N   0  0  0  0  0  0  0  0  0  0  0  0
   15.8944  -14.9826   17.9265 C   0  0  0  0  0  0  0  0  0  0  0  0
   14.8157  -14.3236   18.3825 N   0  0  0  0  0  0  0  0  0  0  0  0
   13.9681  -15.8510   22.1549 C   0  0  0  0  0  0  0  0  0  0  0  0
   15.0715  -16.2374   21.7128 O   0  0  0  0  0  0  0  0  0  0  0  0
   13.8463  -15.6042   23.5081 O   0  0  0  0  0  0  0  0  0  0  0  0
  2  4  1  0
  2  1  1  6
  3  2  1  0
  4  6  1  0
  4  5  1  6
  6  7  2  0
  8  9  1  0
  8  6  1  0
  9 10  1  6
 11 10  1  0
 12 13  2  0
 12 11  1  0
 14 15  2  0
 14  9  1  0
 16 12  1  0
 17 14  1  0
 18 17  1  0
 18 25  1  0
 18 19  1  6
 20 19  1  0
 20 24  1  0
 21 22  1  0
 21 20  2  0
 22 23  1  0
 23 24  2  0
 25 27  1  0
 26 25  2  0
M  END
$$$$
