SNT.pdb
     RDKit          3D

 22 21  0  0  1  0  0  0  0  0999 V2000
    8.9346  -12.0507   18.4296 O   0  0  0  0  0  0  0  0  0  0  0  0
    8.5477  -12.6720   19.6279 C   0  0  0  0  0  0  0  0  0  0  0  0
    8.4031  -14.1714   19.4442 C   0  0  2  0  0  0  0  0  0  0  0  0
    7.3042  -14.4875   18.5490 N   0  0  0  0  0  0  0  0  0  0  0  0
    8.1665  -14.7721   20.7685 C   0  0  0  0  0  0  0  0  0  0  0  0
    7.0021  -14.9771   21.1588 O   0  0  0  0  0  0  0  0  0  0  0  0
   10.9096  -18.2230   20.8834 N   0  0  0  0  0  0  0  0  0  0  0  0
    9.8992  -18.0184   21.8994 C   0  0  0  0  0  0  0  0  0  0  0  0
    8.9194  -18.7737   21.9155 O   0  0  0  0  0  0  0  0  0  0  0  0
   10.0579  -16.9420   22.8664 C   0  0  0  0  0  0  0  0  0  0  0  0
    9.0461  -15.8545   22.8554 C   0  0  2  0  0  0  0  0  0  0  0  0
    9.2560  -15.1155   21.5948 N   0  0  0  0  0  0  0  0  0  0  0  0
    9.1169  -14.8867   23.9527 C   0  0  0  0  0  0  0  0  0  0  0  0
   10.0592  -14.0779   24.0459 O   0  0  0  0  0  0  0  0  0  0  0  0
    6.6853  -12.2158   25.2498 C   0  0  0  0  0  0  0  0  0  0  0  0
    6.9234  -13.2187   26.3456 C   0  0  1  0  0  0  0  0  0  0  0  0
    5.8517  -14.0513   26.5096 O   0  0  0  0  0  0  0  0  0  0  0  0
    8.2136  -13.9357   26.0377 C   0  0  2  0  0  0  0  0  0  0  0  0
    8.1032  -14.8507   24.9425 N   0  0  0  0  0  0  0  0  0  0  0  0
    8.7587  -14.6064   27.2676 C   0  0  0  0  0  0  0  0  0  0  0  0
    9.0233  -13.8723   28.4151 O   0  0  0  0  0  0  0  0  0  0  0  0
    8.9936  -15.8416   27.3065 O   0  0  0  0  0  0  0  0  0  0  0  0
  2  1  1  0
  2  3  1  0
  3  5  1  0
  3  4  1  6
  5 12  1  0
  6  5  2  0
  7  8  1  0
  8  9  2  0
 10  8  1  0
 11 10  1  1
 11 13  1  0
 12 11  1  0
 13 14  2  0
 13 19  1  0
 16 17  1  0
 16 15  1  6
 18 16  1  0
 18 19  1  6
 20 18  1  0
 20 21  1  0
 22 20  2  0
M  END
$$$$
