SNT.pdb
     RDKit          3D

 22 21  0  0  1  0  0  0  0  0999 V2000
    2.8878  -20.2150   22.7688 O   0  0  0  0  0  0  0  0  0  0  0  0
    2.7601  -18.8897   22.3228 C   0  0  0  0  0  0  0  0  0  0  0  0
    3.7933  -18.5692   21.2586 C   0  0  2  0  0  0  0  0  0  0  0  0
    3.8809  -19.6332   20.2741 N   0  0  0  0  0  0  0  0  0  0  0  0
    5.0942  -18.3885   21.9261 C   0  0  0  0  0  0  0  0  0  0  0  0
    6.0169  -19.1985   21.7190 O   0  0  0  0  0  0  0  0  0  0  0  0
    9.2180  -15.0061   22.8380 N   0  0  0  0  0  0  0  0  0  0  0  0
    8.0394  -14.9261   23.6744 C   0  0  0  0  0  0  0  0  0  0  0  0
    8.1316  -14.3551   24.7681 O   0  0  0  0  0  0  0  0  0  0  0  0
    6.7889  -15.5121   23.2144 C   0  0  0  0  0  0  0  0  0  0  0  0
    6.6426  -16.9867   23.3183 C   0  0  2  0  0  0  0  0  0  0  0  0
    5.2966  -17.3000   22.7991 N   0  0  0  0  0  0  0  0  0  0  0  0
    6.7423  -17.5588   24.6631 C   0  0  0  0  0  0  0  0  0  0  0  0
    5.8556  -17.3702   25.5168 O   0  0  0  0  0  0  0  0  0  0  0  0
    6.5668  -20.7618   26.1177 C   0  0  0  0  0  0  0  0  0  0  0  0
    7.9543  -20.3148   26.4893 C   0  0  1  0  0  0  0  0  0  0  0  0
    8.9070  -20.9571   25.7488 O   0  0  0  0  0  0  0  0  0  0  0  0
    7.9982  -18.8122   26.3717 C   0  0  2  0  0  0  0  0  0  0  0  0
    7.8630  -18.3475   25.0246 N   0  0  0  0  0  0  0  0  0  0  0  0
    9.2338  -18.2609   27.0269 C   0  0  0  0  0  0  0  0  0  0  0  0
    9.5012  -18.5204   28.3636 O   0  0  0  0  0  0  0  0  0  0  0  0
   10.0631  -17.5527   26.3999 O   0  0  0  0  0  0  0  0  0  0  0  0
  2  1  1  0
  2  3  1  0
  3  5  1  0
  3  4  1  6
  5 12  1  0
  6  5  2  0
  7  8  1  0
  8  9  2  0
 10  8  1  0
 11 10  1  1
 11 13  1  0
 12 11  1  0
 13 14  2  0
 13 19  1  0
 16 17  1  0
 16 15  1  6
 18 16  1  0
 18 19  1  6
 20 18  1  0
 20 21  1  0
 22 20  2  0
M  END
$$$$
