SNT.pdb
     RDKit          3D

 22 21  0  0  1  0  0  0  0  0999 V2000
    8.9469  -11.8624   18.6847 O   0  0  0  0  0  0  0  0  0  0  0  0
    8.4463  -12.5400   19.8081 C   0  0  0  0  0  0  0  0  0  0  0  0
    8.3316  -14.0295   19.5416 C   0  0  2  0  0  0  0  0  0  0  0  0
    7.2880  -14.3109   18.5717 N   0  0  0  0  0  0  0  0  0  0  0  0
    8.0299  -14.6991   20.8188 C   0  0  0  0  0  0  0  0  0  0  0  0
    6.8529  -14.9841   21.1083 O   0  0  0  0  0  0  0  0  0  0  0  0
    9.1781  -19.0596   24.1447 N   0  0  0  0  0  0  0  0  0  0  0  0
    9.8593  -17.7842   24.0779 C   0  0  0  0  0  0  0  0  0  0  0  0
   10.5324  -17.4249   25.0518 O   0  0  0  0  0  0  0  0  0  0  0  0
    9.7378  -16.9648   22.8810 C   0  0  0  0  0  0  0  0  0  0  0  0
    8.8064  -15.8087   22.9322 C   0  0  2  0  0  0  0  0  0  0  0  0
    9.0713  -15.0179   21.7141 N   0  0  0  0  0  0  0  0  0  0  0  0
    8.9440  -14.9108   24.0814 C   0  0  0  0  0  0  0  0  0  0  0  0
    9.9771  -14.2390   24.2610 O   0  0  0  0  0  0  0  0  0  0  0  0
    6.5345  -12.1492   25.5189 C   0  0  0  0  0  0  0  0  0  0  0  0
    6.7910  -13.2130   26.5512 C   0  0  1  0  0  0  0  0  0  0  0  0
    5.7103  -14.0352   26.7082 O   0  0  0  0  0  0  0  0  0  0  0  0
    8.0566  -13.9339   26.1612 C   0  0  2  0  0  0  0  0  0  0  0  0
    7.8924  -14.7867   25.0234 N   0  0  0  0  0  0  0  0  0  0  0  0
    8.6301  -14.6789   27.3341 C   0  0  0  0  0  0  0  0  0  0  0  0
    8.9219  -14.0170   28.5183 O   0  0  0  0  0  0  0  0  0  0  0  0
    8.8654  -15.9139   27.2910 O   0  0  0  0  0  0  0  0  0  0  0  0
  2  1  1  0
  2  3  1  0
  3  5  1  0
  3  4  1  6
  5 12  1  0
  6  5  2  0
  7  8  1  0
  8  9  2  0
 10  8  1  0
 11 10  1  1
 11 13  1  0
 12 11  1  0
 13 14  2  0
 13 19  1  0
 16 17  1  0
 16 15  1  6
 18 16  1  0
 18 19  1  6
 20 18  1  0
 20 21  1  0
 22 20  2  0
M  END
$$$$
