SNT.pdb
     RDKit          3D

 22 21  0  0  1  0  0  0  0  0999 V2000
    8.6327  -20.4990   18.4691 O   0  0  0  0  0  0  0  0  0  0  0  0
    7.9761  -19.8338   19.5171 C   0  0  0  0  0  0  0  0  0  0  0  0
    6.5571  -20.3449   19.6847 C   0  0  2  0  0  0  0  0  0  0  0  0
    5.6638  -19.7441   18.7100 N   0  0  0  0  0  0  0  0  0  0  0  0
    6.1124  -20.0155   21.0501 C   0  0  0  0  0  0  0  0  0  0  0  0
    5.6491  -18.8865   21.2973 O   0  0  0  0  0  0  0  0  0  0  0  0
    3.1054  -21.2561   22.6340 N   0  0  0  0  0  0  0  0  0  0  0  0
    3.7882  -22.1929   23.5007 C   0  0  0  0  0  0  0  0  0  0  0  0
    3.2030  -23.2362   23.8168 O   0  0  0  0  0  0  0  0  0  0  0  0
    5.1307  -21.8891   23.9740 C   0  0  0  0  0  0  0  0  0  0  0  0
    5.7802  -20.6587   23.4535 C   0  0  2  0  0  0  0  0  0  0  0  0
    6.2102  -20.9761   22.0774 N   0  0  0  0  0  0  0  0  0  0  0  0
    6.9559  -20.1822   24.1858 C   0  0  0  0  0  0  0  0  0  0  0  0
    8.0146  -20.8374   24.2120 O   0  0  0  0  0  0  0  0  0  0  0  0
    6.9449  -16.3666   26.0067 C   0  0  0  0  0  0  0  0  0  0  0  0
    8.2150  -16.9487   25.4490 C   0  0  1  0  0  0  0  0  0  0  0  0
    9.3194  -16.4507   26.0822 O   0  0  0  0  0  0  0  0  0  0  0  0
    8.0977  -18.4505   25.5144 C   0  0  2  0  0  0  0  0  0  0  0  0
    6.9124  -18.9517   24.8877 N   0  0  0  0  0  0  0  0  0  0  0  0
    8.2225  -18.9349   26.9319 C   0  0  0  0  0  0  0  0  0  0  0  0
    9.3826  -18.7059   27.6581 O   0  0  0  0  0  0  0  0  0  0  0  0
    7.2946  -19.5581   27.5092 O   0  0  0  0  0  0  0  0  0  0  0  0
  2  1  1  0
  2  3  1  0
  3  5  1  0
  3  4  1  6
  5 12  1  0
  6  5  2  0
  7  8  1  0
  8  9  2  0
 10  8  1  0
 11 10  1  1
 11 13  1  0
 12 11  1  0
 13 14  2  0
 13 19  1  0
 16 17  1  0
 16 15  1  1
 18 16  1  0
 18 19  1  1
 20 18  1  0
 20 21  1  0
 22 20  2  0
M  END
$$$$
