SNT.pdb
     RDKit          3D

 22 21  0  0  1  0  0  0  0  0999 V2000
    8.7260  -13.3453   18.6860 O   0  0  0  0  0  0  0  0  0  0  0  0
    8.0384  -13.6175   19.8797 C   0  0  0  0  0  0  0  0  0  0  0  0
    7.8429  -15.1104   20.0694 C   0  0  2  0  0  0  0  0  0  0  0  0
    6.8963  -15.6430   19.1054 N   0  0  0  0  0  0  0  0  0  0  0  0
    7.3508  -15.3351   21.4398 C   0  0  0  0  0  0  0  0  0  0  0  0
    6.1438  -15.1756   21.7006 O   0  0  0  0  0  0  0  0  0  0  0  0
    6.6456  -18.5331   25.7552 N   0  0  0  0  0  0  0  0  0  0  0  0
    7.9435  -18.0020   25.3966 C   0  0  0  0  0  0  0  0  0  0  0  0
    8.8415  -18.0182   26.2474 O   0  0  0  0  0  0  0  0  0  0  0  0
    8.1586  -17.4679   24.0597 C   0  0  0  0  0  0  0  0  0  0  0  0
    7.7523  -16.0613   23.8087 C   0  0  2  0  0  0  0  0  0  0  0  0
    8.2438  -15.7304   22.4566 N   0  0  0  0  0  0  0  0  0  0  0  0
    8.2831  -15.0547   24.7312 C   0  0  0  0  0  0  0  0  0  0  0  0
    9.4083  -14.5484   24.5630 O   0  0  0  0  0  0  0  0  0  0  0  0
    6.6650  -11.7809   25.8537 C   0  0  0  0  0  0  0  0  0  0  0  0
    6.9885  -12.5805   27.0863 C   0  0  1  0  0  0  0  0  0  0  0  0
    5.8639  -13.1124   27.6527 O   0  0  0  0  0  0  0  0  0  0  0  0
    8.0263  -13.6065   26.7071 C   0  0  2  0  0  0  0  0  0  0  0  0
    7.5184  -14.6317   25.8469 N   0  0  0  0  0  0  0  0  0  0  0  0
    8.6793  -14.1838   27.9319 C   0  0  0  0  0  0  0  0  0  0  0  0
    9.2637  -13.3549   28.8791 O   0  0  0  0  0  0  0  0  0  0  0  0
    8.7219  -15.4228   28.1453 O   0  0  0  0  0  0  0  0  0  0  0  0
  2  1  1  0
  2  3  1  0
  3  5  1  0
  3  4  1  6
  5 12  1  0
  6  5  2  0
  7  8  1  0
  8  9  2  0
 10  8  1  0
 11 10  1  1
 11 13  1  0
 12 11  1  0
 13 14  2  0
 13 19  1  0
 16 17  1  0
 16 15  1  6
 18 16  1  0
 18 19  1  1
 20 18  1  0
 20 21  1  0
 22 20  2  0
M  END
$$$$
