SNT.pdb
     RDKit          3D

 22 21  0  0  1  0  0  0  0  0999 V2000
    7.7991  -12.3749   17.2494 O   0  0  0  0  0  0  0  0  0  0  0  0
    8.4627  -13.3640   17.9933 C   0  0  0  0  0  0  0  0  0  0  0  0
    9.5250  -14.0550   17.1585 C   0  0  2  0  0  0  0  0  0  0  0  0
    8.9274  -14.8421   16.0945 N   0  0  0  0  0  0  0  0  0  0  0  0
   10.3119  -14.9240   18.0507 C   0  0  0  0  0  0  0  0  0  0  0  0
    9.9759  -16.1114   18.2166 O   0  0  0  0  0  0  0  0  0  0  0  0
   14.8392  -13.9181   17.4720 N   0  0  0  0  0  0  0  0  0  0  0  0
   14.2912  -15.0430   18.1995 C   0  0  0  0  0  0  0  0  0  0  0  0
   14.3901  -16.1709   17.7009 O   0  0  0  0  0  0  0  0  0  0  0  0
   13.6445  -14.8231   19.4850 C   0  0  0  0  0  0  0  0  0  0  0  0
   12.2339  -15.2659   19.6285 C   0  0  2  0  0  0  0  0  0  0  0  0
   11.4448  -14.4139   18.7171 N   0  0  0  0  0  0  0  0  0  0  0  0
   11.6460  -15.1474   20.9650 C   0  0  0  0  0  0  0  0  0  0  0  0
   12.2811  -14.6471   21.9122 O   0  0  0  0  0  0  0  0  0  0  0  0
    8.1932  -13.6906   21.8474 C   0  0  0  0  0  0  0  0  0  0  0  0
    8.2908  -15.0583   22.4665 C   0  0  1  0  0  0  0  0  0  0  0  0
    7.5003  -15.9644   21.8164 O   0  0  0  0  0  0  0  0  0  0  0  0
    9.7492  -15.4385   22.5094 C   0  0  2  0  0  0  0  0  0  0  0  0
   10.3273  -15.6051   21.2106 N   0  0  0  0  0  0  0  0  0  0  0  0
    9.9596  -16.6530   23.3698 C   0  0  0  0  0  0  0  0  0  0  0  0
    9.5569  -16.6575   24.6977 O   0  0  0  0  0  0  0  0  0  0  0  0
   10.5009  -17.6991   22.9280 O   0  0  0  0  0  0  0  0  0  0  0  0
  2  1  1  0
  2  3  1  0
  3  5  1  0
  3  4  1  6
  5 12  1  0
  6  5  2  0
  7  8  1  0
  8  9  2  0
 10  8  1  0
 11 10  1  1
 11 13  1  0
 12 11  1  0
 13 14  2  0
 13 19  1  0
 16 17  1  0
 16 15  1  6
 18 16  1  0
 18 19  1  6
 20 18  1  0
 20 21  1  0
 22 20  2  0
M  END
$$$$
