DDG.pdb
     RDKit          3D

 21 20  0  0  1  0  0  0  0  0999 V2000
   10.6931  -17.8538   18.2591 N   0  0  0  0  0  0  0  0  0  0  0  0
   11.2826  -18.9330   19.0185 C   0  0  1  0  0  0  0  0  0  0  0  0
   12.7845  -18.7979   19.1280 C   0  0  0  0  0  0  0  0  0  0  0  0
   13.3029  -18.6697   17.7386 C   0  0  0  0  0  0  0  0  0  0  0  0
   13.0532  -19.4997   16.8297 O   0  0  0  0  0  0  0  0  0  0  0  0
   10.6321  -19.0921   20.3456 C   0  0  0  0  0  0  0  0  0  0  0  0
   10.4480  -18.0782   21.0532 O   0  0  0  0  0  0  0  0  0  0  0  0
   14.1105  -17.5826   17.3964 O   0  0  0  0  0  0  0  0  0  0  0  0
   10.2091  -20.3530   20.8455 N   0  0  0  0  0  0  0  0  0  0  0  0
    9.5575  -20.5680   22.0982 C   0  0  1  0  0  0  0  0  0  0  0  0
    8.4986  -21.6427   22.0343 C   0  0  0  0  0  0  0  0  0  0  0  0
    7.4353  -21.3071   21.0531 C   0  0  0  0  0  0  0  0  0  0  0  0
    6.7805  -20.2292   21.0737 O   0  0  0  0  0  0  0  0  0  0  0  0
   10.5740  -20.8447   23.1327 C   0  0  0  0  0  0  0  0  0  0  0  0
   11.4677  -21.6763   22.8702 O   0  0  0  0  0  0  0  0  0  0  0  0
    7.0909  -22.1927   20.0220 O   0  0  0  0  0  0  0  0  0  0  0  0
   10.6041  -20.2226   24.4187 N   0  0  0  0  0  0  0  0  0  0  0  0
   11.6374  -20.4424   25.3775 C   0  0  0  0  0  0  0  0  0  0  0  0
   11.1443  -20.6887   26.7414 C   0  0  0  0  0  0  0  0  0  0  0  0
   11.9355  -20.9682   27.8458 O   0  0  0  0  0  0  0  0  0  0  0  0
    9.9018  -20.6438   26.9299 O   0  0  0  0  0  0  0  0  0  0  0  0
  2  1  1  1
  2  3  1  0
  3  4  1  0
  4  8  1  0
  5  4  2  0
  6  2  1  0
  7  6  2  0
  9  6  1  0
 10 14  1  0
 10  9  1  0
 10 11  1  6
 12 11  1  0
 13 12  2  0
 14 15  2  0
 16 12  1  0
 17 14  1  0
 17 18  1  0
 18 19  1  0
 19 20  1  0
 21 19  2  0
M  END
$$$$
