DDG.pdb
     RDKit          3D

 21 20  0  0  1  0  0  0  0  0999 V2000
   11.1061  -18.3168   21.1616 N   0  0  0  0  0  0  0  0  0  0  0  0
   11.8045  -17.0717   21.3861 C   0  0  1  0  0  0  0  0  0  0  0  0
   12.1880  -16.3924   20.0910 C   0  0  0  0  0  0  0  0  0  0  0  0
   13.1901  -17.2720   19.4293 C   0  0  0  0  0  0  0  0  0  0  0  0
   14.0136  -17.9778   20.0627 O   0  0  0  0  0  0  0  0  0  0  0  0
   11.0460  -16.1705   22.2929 C   0  0  0  0  0  0  0  0  0  0  0  0
   11.5626  -15.0853   22.6364 O   0  0  0  0  0  0  0  0  0  0  0  0
   13.2429  -17.3381   18.0351 O   0  0  0  0  0  0  0  0  0  0  0  0
    9.7534  -16.4920   22.7875 N   0  0  0  0  0  0  0  0  0  0  0  0
    8.9541  -15.6488   23.6182 C   0  0  1  0  0  0  0  0  0  0  0  0
    7.4996  -15.6304   23.2125 C   0  0  0  0  0  0  0  0  0  0  0  0
    7.3174  -15.0663   21.8507 C   0  0  0  0  0  0  0  0  0  0  0  0
    7.8968  -14.0223   21.4436 O   0  0  0  0  0  0  0  0  0  0  0  0
    9.1366  -16.0438   25.0291 C   0  0  0  0  0  0  0  0  0  0  0  0
    8.9773  -17.2459   25.3276 O   0  0  0  0  0  0  0  0  0  0  0  0
    6.4693  -15.6783   20.9170 O   0  0  0  0  0  0  0  0  0  0  0  0
    9.4844  -15.1402   26.0799 N   0  0  0  0  0  0  0  0  0  0  0  0
    9.5051  -15.5043   27.4590 C   0  0  0  0  0  0  0  0  0  0  0  0
   10.6865  -16.2877   27.8526 C   0  0  0  0  0  0  0  0  0  0  0  0
   11.6714  -16.7476   26.9912 O   0  0  0  0  0  0  0  0  0  0  0  0
   10.8216  -16.5679   29.0710 O   0  0  0  0  0  0  0  0  0  0  0  0
  2  1  1  6
  2  3  1  0
  3  4  1  0
  4  8  1  0
  5  4  2  0
  6  2  1  0
  7  6  2  0
  9  6  1  0
 10 14  1  0
 10  9  1  0
 10 11  1  6
 12 11  1  0
 13 12  2  0
 14 15  2  0
 16 12  1  0
 17 14  1  0
 17 18  1  0
 18 19  1  0
 19 20  1  0
 21 19  2  0
M  END
$$$$
