DDG.pdb
     RDKit          3D

 21 20  0  0  1  0  0  0  0  0999 V2000
   17.2207  -15.0927   20.2188 N   0  0  0  0  0  0  0  0  0  0  0  0
   16.6179  -15.8708   21.2771 C   0  0  1  0  0  0  0  0  0  0  0  0
   17.0655  -15.4124   22.6465 C   0  0  0  0  0  0  0  0  0  0  0  0
   18.5536  -15.3891   22.6224 C   0  0  0  0  0  0  0  0  0  0  0  0
   19.2499  -16.3038   22.1165 O   0  0  0  0  0  0  0  0  0  0  0  0
   15.1373  -15.9156   21.1530 C   0  0  0  0  0  0  0  0  0  0  0  0
   14.5095  -14.8424   21.0243 O   0  0  0  0  0  0  0  0  0  0  0  0
   19.2403  -14.3093   23.1825 O   0  0  0  0  0  0  0  0  0  0  0  0
   14.4028  -17.1317   21.1745 N   0  0  0  0  0  0  0  0  0  0  0  0
   12.9820  -17.2398   21.0770 C   0  0  1  0  0  0  0  0  0  0  0  0
   12.5371  -18.4097   20.2320 C   0  0  0  0  0  0  0  0  0  0  0  0
   12.5030  -18.0618   18.7885 C   0  0  0  0  0  0  0  0  0  0  0  0
   11.5797  -18.4169   18.0058 O   0  0  0  0  0  0  0  0  0  0  0  0
   12.4038  -17.2785   22.4350 C   0  0  0  0  0  0  0  0  0  0  0  0
   11.1805  -17.0606   22.5588 O   0  0  0  0  0  0  0  0  0  0  0  0
   13.5216  -17.2992   18.1995 O   0  0  0  0  0  0  0  0  0  0  0  0
   13.1524  -17.5496   23.6215 N   0  0  0  0  0  0  0  0  0  0  0  0
   12.5726  -17.6110   24.9235 C   0  0  0  0  0  0  0  0  0  0  0  0
   13.5247  -17.9721   25.9851 C   0  0  0  0  0  0  0  0  0  0  0  0
   14.8770  -18.2215   25.8037 O   0  0  0  0  0  0  0  0  0  0  0  0
   13.0828  -18.0645   27.1588 O   0  0  0  0  0  0  0  0  0  0  0  0
  2  1  1  6
  2  3  1  0
  3  4  1  0
  4  8  1  0
  5  4  2  0
  6  2  1  0
  7  6  2  0
  9  6  1  0
 10 14  1  0
 10  9  1  0
 10 11  1  1
 12 11  1  0
 13 12  2  0
 14 15  2  0
 16 12  1  0
 17 14  1  0
 17 18  1  0
 18 19  1  0
 19 20  1  0
 21 19  2  0
M  END
$$$$
