DDG.pdb
     RDKit          3D

 21 20  0  0  1  0  0  0  0  0999 V2000
    7.9292  -18.3191   17.4571 N   0  0  0  0  0  0  0  0  0  0  0  0
    9.3270  -18.3974   17.8159 C   0  0  1  0  0  0  0  0  0  0  0  0
   10.1648  -17.3870   17.0656 C   0  0  0  0  0  0  0  0  0  0  0  0
   10.1362  -17.7899   15.6330 C   0  0  0  0  0  0  0  0  0  0  0  0
   10.1817  -18.9857   15.2516 O   0  0  0  0  0  0  0  0  0  0  0  0
    9.5236  -18.3124   19.2870 C   0  0  0  0  0  0  0  0  0  0  0  0
    8.8060  -17.5309   19.9479 O   0  0  0  0  0  0  0  0  0  0  0  0
   10.0548  -16.8126   14.6383 O   0  0  0  0  0  0  0  0  0  0  0  0
   10.4967  -19.0852   19.9760 N   0  0  0  0  0  0  0  0  0  0  0  0
   10.7008  -19.0855   21.3896 C   0  0  1  0  0  0  0  0  0  0  0  0
   11.3243  -20.3650   21.8942 C   0  0  0  0  0  0  0  0  0  0  0  0
   10.3554  -21.4905   21.8783 C   0  0  0  0  0  0  0  0  0  0  0  0
    9.1052  -21.3373   21.9481 O   0  0  0  0  0  0  0  0  0  0  0  0
   11.4862  -17.8936   21.7668 C   0  0  0  0  0  0  0  0  0  0  0  0
   12.2647  -17.4106   20.9182 O   0  0  0  0  0  0  0  0  0  0  0  0
   10.7870  -22.8211   21.7821 O   0  0  0  0  0  0  0  0  0  0  0  0
   11.4153  -17.2529   23.0421 N   0  0  0  0  0  0  0  0  0  0  0  0
   12.1309  -16.0626   23.3679 C   0  0  0  0  0  0  0  0  0  0  0  0
   11.8191  -15.5240   24.7009 C   0  0  0  0  0  0  0  0  0  0  0  0
   12.4271  -14.4242   25.2877 O   0  0  0  0  0  0  0  0  0  0  0  0
   10.9272  -16.1044   25.3709 O   0  0  0  0  0  0  0  0  0  0  0  0
  2  1  1  1
  2  3  1  0
  3  4  1  0
  4  8  1  0
  5  4  2  0
  6  2  1  0
  7  6  2  0
  9  6  1  0
 10 14  1  0
 10  9  1  0
 10 11  1  6
 12 11  1  0
 13 12  2  0
 14 15  2  0
 16 12  1  0
 17 14  1  0
 17 18  1  0
 18 19  1  0
 19 20  1  0
 21 19  2  0
M  END
$$$$
