DDG.pdb
     RDKit          3D

 21 20  0  0  1  0  0  0  0  0999 V2000
   10.6283  -14.2839   17.7973 N   0  0  0  0  0  0  0  0  0  0  0  0
   11.1046  -15.5996   17.4359 C   0  0  1  0  0  0  0  0  0  0  0  0
   11.1830  -15.7850   15.9374 C   0  0  0  0  0  0  0  0  0  0  0  0
    9.8012  -15.6075   15.4135 C   0  0  0  0  0  0  0  0  0  0  0  0
    8.8286  -15.2698   16.1330 O   0  0  0  0  0  0  0  0  0  0  0  0
   12.3872  -15.9262   18.1128 C   0  0  0  0  0  0  0  0  0  0  0  0
   12.9371  -17.0217   17.8681 O   0  0  0  0  0  0  0  0  0  0  0  0
    9.5400  -15.8197   14.0578 O   0  0  0  0  0  0  0  0  0  0  0  0
   13.0166  -15.0420   19.0298 N   0  0  0  0  0  0  0  0  0  0  0  0
   14.2583  -15.2861   19.6919 C   0  0  1  0  0  0  0  0  0  0  0  0
   15.1740  -14.0853   19.6876 C   0  0  0  0  0  0  0  0  0  0  0  0
   15.9997  -14.0299   18.4543 C   0  0  0  0  0  0  0  0  0  0  0  0
   16.2635  -12.9617   17.8374 O   0  0  0  0  0  0  0  0  0  0  0  0
   13.9913  -15.7813   21.0570 C   0  0  0  0  0  0  0  0  0  0  0  0
   14.9441  -16.2653   21.7029 O   0  0  0  0  0  0  0  0  0  0  0  0
   16.5465  -15.1921   17.8918 O   0  0  0  0  0  0  0  0  0  0  0  0
   12.7114  -15.7439   21.6912 N   0  0  0  0  0  0  0  0  0  0  0  0
   12.4530  -16.2982   22.9800 C   0  0  0  0  0  0  0  0  0  0  0  0
   13.5224  -16.0549   23.9605 C   0  0  0  0  0  0  0  0  0  0  0  0
   14.7242  -15.4139   23.6991 O   0  0  0  0  0  0  0  0  0  0  0  0
   13.3387  -16.4594   25.1369 O   0  0  0  0  0  0  0  0  0  0  0  0
  2  1  1  6
  2  3  1  0
  3  4  1  0
  4  8  1  0
  5  4  2  0
  6  2  1  0
  7  6  2  0
  9  6  1  0
 10 14  1  0
 10  9  1  0
 10 11  1  1
 12 11  1  0
 13 12  2  0
 14 15  2  0
 16 12  1  0
 17 14  1  0
 17 18  1  0
 18 19  1  0
 19 20  1  0
 21 19  2  0
M  END
$$$$
