DDG.pdb
     RDKit          3D

 21 20  0  0  1  0  0  0  0  0999 V2000
    7.5709  -17.3261   20.3659 N   0  0  0  0  0  0  0  0  0  0  0  0
    7.3899  -18.1968   21.5051 C   0  0  1  0  0  0  0  0  0  0  0  0
    7.0701  -19.6156   21.0921 C   0  0  0  0  0  0  0  0  0  0  0  0
    6.0922  -19.5233   19.9737 C   0  0  0  0  0  0  0  0  0  0  0  0
    6.4164  -19.2309   18.7961 O   0  0  0  0  0  0  0  0  0  0  0  0
    8.5436  -18.1276   22.4400 C   0  0  0  0  0  0  0  0  0  0  0  0
    8.5597  -18.8827   23.4360 O   0  0  0  0  0  0  0  0  0  0  0  0
    4.7381  -19.7687   20.2134 O   0  0  0  0  0  0  0  0  0  0  0  0
    9.6330  -17.2358   22.2483 N   0  0  0  0  0  0  0  0  0  0  0  0
   10.7818  -17.1425   23.0918 C   0  0  1  0  0  0  0  0  0  0  0  0
   11.9146  -16.3687   22.4605 C   0  0  0  0  0  0  0  0  0  0  0  0
   12.4680  -17.0748   21.2769 C   0  0  0  0  0  0  0  0  0  0  0  0
   12.7363  -16.5035   20.1847 O   0  0  0  0  0  0  0  0  0  0  0  0
   10.3808  -16.5822   24.3977 C   0  0  0  0  0  0  0  0  0  0  0  0
    9.7553  -15.5014   24.4058 O   0  0  0  0  0  0  0  0  0  0  0  0
   12.7303  -18.4518   21.3078 O   0  0  0  0  0  0  0  0  0  0  0  0
   10.6612  -17.1955   25.6574 N   0  0  0  0  0  0  0  0  0  0  0  0
   10.3694  -16.5862   26.9139 C   0  0  0  0  0  0  0  0  0  0  0  0
   10.6954  -17.4274   28.0759 C   0  0  0  0  0  0  0  0  0  0  0  0
   10.6866  -17.0118   29.3991 O   0  0  0  0  0  0  0  0  0  0  0  0
   11.0096  -18.6256   27.8592 O   0  0  0  0  0  0  0  0  0  0  0  0
  2  1  1  6
  2  3  1  0
  3  4  1  0
  4  8  1  0
  5  4  2  0
  6  2  1  0
  7  6  2  0
  9  6  1  0
 10 14  1  0
 10  9  1  0
 10 11  1  6
 12 11  1  0
 13 12  2  0
 14 15  2  0
 16 12  1  0
 17 14  1  0
 17 18  1  0
 18 19  1  0
 19 20  1  0
 21 19  2  0
M  END
$$$$
