DDG.pdb
     RDKit          3D

 21 20  0  0  1  0  0  0  0  0999 V2000
   -6.0389  -25.1589   25.6753 N   0  0  0  0  0  0  0  0  0  0  0  0
   -5.7879  -23.7369   25.7335 C   0  0  1  0  0  0  0  0  0  0  0  0
   -6.4586  -22.9936   24.6006 C   0  0  0  0  0  0  0  0  0  0  0  0
   -5.9618  -23.6045   23.3374 C   0  0  0  0  0  0  0  0  0  0  0  0
   -6.7201  -24.0008   22.4179 O   0  0  0  0  0  0  0  0  0  0  0  0
   -6.1345  -23.1704   27.0634 C   0  0  0  0  0  0  0  0  0  0  0  0
   -5.9410  -21.9529   27.2702 O   0  0  0  0  0  0  0  0  0  0  0  0
   -4.5886  -23.7589   23.1339 O   0  0  0  0  0  0  0  0  0  0  0  0
   -6.6785  -23.9578   28.1137 N   0  0  0  0  0  0  0  0  0  0  0  0
   -6.9798  -23.4865   29.4278 C   0  0  1  0  0  0  0  0  0  0  0  0
   -8.4256  -23.6950   29.8110 C   0  0  0  0  0  0  0  0  0  0  0  0
   -9.3173  -22.7147   29.1404 C   0  0  0  0  0  0  0  0  0  0  0  0
   -9.1244  -21.4682   29.1585 O   0  0  0  0  0  0  0  0  0  0  0  0
   -6.0502  -24.1086   30.3915 C   0  0  0  0  0  0  0  0  0  0  0  0
   -6.1891  -23.8348   31.6019 O   0  0  0  0  0  0  0  0  0  0  0  0
  -10.4530  -23.1305   28.4311 O   0  0  0  0  0  0  0  0  0  0  0  0
   -4.9984  -25.0063   30.0312 N   0  0  0  0  0  0  0  0  0  0  0  0
   -4.0928  -25.5790   30.9729 C   0  0  0  0  0  0  0  0  0  0  0  0
   -4.6575  -26.7009   31.7388 C   0  0  0  0  0  0  0  0  0  0  0  0
   -5.9658  -27.1541   31.6574 O   0  0  0  0  0  0  0  0  0  0  0  0
   -3.8960  -27.3050   32.5366 O   0  0  0  0  0  0  0  0  0  0  0  0
  2  1  1  1
  2  3  1  0
  3  4  1  0
  4  8  1  0
  5  4  2  0
  6  2  1  0
  7  6  2  0
  9  6  1  0
 10 14  1  0
 10  9  1  0
 10 11  1  1
 12 11  1  0
 13 12  2  0
 14 15  2  0
 16 12  1  0
 17 14  1  0
 17 18  1  0
 18 19  1  0
 19 20  1  0
 21 19  2  0
M  END
$$$$
