QAD.pdb
     RDKit          3D

 23 22  0  0  1  0  0  0  0  0999 V2000
   16.7290  -12.0672  -16.9759 N   0  0  0  0  0  0  0  0  0  0  0  0
   16.7646  -12.8131  -18.2121 C   0  0  0  0  0  0  0  0  0  0  0  0
   15.8257  -13.5683  -18.5346 O   0  0  0  0  0  0  0  0  0  0  0  0
   17.9348  -12.6636  -19.0756 C   0  0  0  0  0  0  0  0  0  0  0  0
   18.9132  -11.6837  -18.5421 C   0  0  0  0  0  0  0  0  0  0  0  0
   20.1738  -12.3358  -18.0804 C   0  0  2  0  0  0  0  0  0  0  0  0
   20.0424  -13.5418  -17.3452 N   0  0  0  0  0  0  0  0  0  0  0  0
   20.8979  -11.3253  -17.2491 C   0  0  0  0  0  0  0  0  0  0  0  0
   20.5148  -11.1478  -16.0722 O   0  0  0  0  0  0  0  0  0  0  0  0
   23.9427   -9.2498  -17.7208 C   0  0  0  0  0  0  0  0  0  0  0  0
   22.6253   -9.5612  -17.0601 C   0  0  2  0  0  0  0  0  0  0  0  0
   21.9700  -10.6128  -17.7962 N   0  0  0  0  0  0  0  0  0  0  0  0
   21.7588   -8.3708  -16.9193 C   0  0  0  0  0  0  0  0  0  0  0  0
   21.1117   -7.9866  -17.9317 O   0  0  0  0  0  0  0  0  0  0  0  0
   21.6018   -7.6301  -15.7318 N   0  0  0  0  0  0  0  0  0  0  0  0
   20.8219   -6.4234  -15.6977 C   0  0  1  0  0  0  0  0  0  0  0  0
   19.5311   -6.7191  -14.9705 C   0  0  0  0  0  0  0  0  0  0  0  0
   18.6369   -5.5583  -14.8703 C   0  0  0  0  0  0  0  0  0  0  0  0
   18.4353   -4.6905  -15.7436 O   0  0  0  0  0  0  0  0  0  0  0  0
   21.4912   -5.3196  -14.9786 C   0  0  0  0  0  0  0  0  0  0  0  0
   22.4575   -5.6342  -14.2369 O   0  0  0  0  0  0  0  0  0  0  0  0
   17.9371   -5.4084  -13.6702 O   0  0  0  0  0  0  0  0  0  0  0  0
   21.1354   -4.0006  -15.0647 O   0  0  0  0  0  0  0  0  0  0  0  0
  2  1  1  0
  2  3  2  0
  4  2  1  0
  5  4  1  0
  6  5  1  0
  6  7  1  1
  8  6  1  0
  8 12  1  0
  9  8  2  0
 11 10  1  6
 11 12  1  0
 11 13  1  0
 13 15  1  0
 13 14  2  0
 15 16  1  0
 16 17  1  1
 17 18  1  0
 18 19  2  0
 18 22  1  0
 20 16  1  0
 20 23  1  0
 21 20  2  0
M  END
$$$$
