QAD.pdb
     RDKit          3D

 23 22  0  0  1  0  0  0  0  0999 V2000
   18.0249  -12.5839  -20.8052 N   0  0  0  0  0  0  0  0  0  0  0  0
   17.3644  -13.7773  -20.3306 C   0  0  0  0  0  0  0  0  0  0  0  0
   16.7572  -14.5318  -21.1168 O   0  0  0  0  0  0  0  0  0  0  0  0
   17.4217  -14.0765  -18.9008 C   0  0  0  0  0  0  0  0  0  0  0  0
   18.2236  -13.0832  -18.1442 C   0  0  0  0  0  0  0  0  0  0  0  0
   19.6771  -13.4221  -18.1287 C   0  0  2  0  0  0  0  0  0  0  0  0
   20.0505  -14.6245  -17.4752 N   0  0  0  0  0  0  0  0  0  0  0  0
   20.3777  -12.2693  -17.4833 C   0  0  0  0  0  0  0  0  0  0  0  0
   20.4807  -12.2659  -16.2373 O   0  0  0  0  0  0  0  0  0  0  0  0
   22.2949   -9.3569  -18.7812 C   0  0  0  0  0  0  0  0  0  0  0  0
   21.5992  -10.1250  -17.6880 C   0  0  2  0  0  0  0  0  0  0  0  0
   20.8944  -11.2373  -18.2737 N   0  0  0  0  0  0  0  0  0  0  0  0
   20.7019   -9.2773  -16.8732 C   0  0  0  0  0  0  0  0  0  0  0  0
   19.5135   -9.1235  -17.2675 O   0  0  0  0  0  0  0  0  0  0  0  0
   21.0781   -8.6253  -15.6829 N   0  0  0  0  0  0  0  0  0  0  0  0
   20.1434   -7.8295  -14.9356 C   0  0  1  0  0  0  0  0  0  0  0  0
   19.6586   -8.6512  -13.7641 C   0  0  0  0  0  0  0  0  0  0  0  0
   18.6168   -7.9838  -12.9726 C   0  0  0  0  0  0  0  0  0  0  0  0
   17.9228   -7.0070  -13.3199 O   0  0  0  0  0  0  0  0  0  0  0  0
   20.7397   -6.5922  -14.3908 C   0  0  0  0  0  0  0  0  0  0  0  0
   21.9958   -6.5487  -14.3356 O   0  0  0  0  0  0  0  0  0  0  0  0
   18.3763   -8.4958  -11.6950 O   0  0  0  0  0  0  0  0  0  0  0  0
   20.0280   -5.5092  -13.9498 O   0  0  0  0  0  0  0  0  0  0  0  0
  2  1  1  0
  2  3  2  0
  4  2  1  0
  5  4  1  0
  6  5  1  0
  6  7  1  1
  8  6  1  0
  8 12  1  0
  9  8  2  0
 11 10  1  6
 11 12  1  0
 11 13  1  0
 13 15  1  0
 13 14  2  0
 15 16  1  0
 16 17  1  1
 17 18  1  0
 18 19  2  0
 18 22  1  0
 20 16  1  0
 20 23  1  0
 21 20  2  0
M  END
$$$$
