QAD.pdb
     RDKit          3D

 23 22  0  0  1  0  0  0  0  0999 V2000
   11.9142  -12.9802  -12.1856 N   0  0  0  0  0  0  0  0  0  0  0  0
   11.7030  -13.0643  -10.7594 C   0  0  0  0  0  0  0  0  0  0  0  0
   11.0493  -14.0023  -10.2605 O   0  0  0  0  0  0  0  0  0  0  0  0
   12.2724  -12.0166   -9.9137 C   0  0  0  0  0  0  0  0  0  0  0  0
   12.9940  -10.9834  -10.6973 C   0  0  0  0  0  0  0  0  0  0  0  0
   14.3908  -10.7782  -10.2133 C   0  0  2  0  0  0  0  0  0  0  0  0
   14.6679  -11.1482   -8.8722 N   0  0  0  0  0  0  0  0  0  0  0  0
   14.6989   -9.3268  -10.4005 C   0  0  0  0  0  0  0  0  0  0  0  0
   14.4479   -8.8104  -11.5112 O   0  0  0  0  0  0  0  0  0  0  0  0
   15.7372   -6.6001   -8.0997 C   0  0  0  0  0  0  0  0  0  0  0  0
   15.5027   -7.1770   -9.4713 C   0  0  2  0  0  0  0  0  0  0  0  0
   15.2514   -8.5906   -9.3473 N   0  0  0  0  0  0  0  0  0  0  0  0
   16.6135   -6.8993  -10.4078 C   0  0  0  0  0  0  0  0  0  0  0  0
   17.6466   -7.6191  -10.3306 O   0  0  0  0  0  0  0  0  0  0  0  0
   16.6031   -5.8851  -11.3848 N   0  0  0  0  0  0  0  0  0  0  0  0
   17.6873   -5.7283  -12.3152 C   0  0  1  0  0  0  0  0  0  0  0  0
   17.7980   -6.9988  -13.1252 C   0  0  0  0  0  0  0  0  0  0  0  0
   18.7320   -6.8934  -14.2539 C   0  0  0  0  0  0  0  0  0  0  0  0
   19.9038   -6.4665  -14.2191 O   0  0  0  0  0  0  0  0  0  0  0  0
   17.4810   -4.6154  -13.2650 C   0  0  0  0  0  0  0  0  0  0  0  0
   16.2917   -4.3652  -13.5905 O   0  0  0  0  0  0  0  0  0  0  0  0
   18.2597   -7.3155  -15.4993 O   0  0  0  0  0  0  0  0  0  0  0  0
   18.4809   -3.8520  -13.8046 O   0  0  0  0  0  0  0  0  0  0  0  0
  2  1  1  0
  2  3  2  0
  4  2  1  0
  5  4  1  0
  6  5  1  0
  6  7  1  1
  8  6  1  0
  8 12  1  0
  9  8  2  0
 11 10  1  1
 11 12  1  0
 11 13  1  0
 13 15  1  0
 13 14  2  0
 15 16  1  0
 16 17  1  6
 17 18  1  0
 18 19  2  0
 18 22  1  0
 20 16  1  0
 20 23  1  0
 21 20  2  0
M  END
$$$$
