QAD.pdb
     RDKit          3D

 23 22  0  0  1  0  0  0  0  0999 V2000
   17.2677  -14.5259  -16.3996 N   0  0  0  0  0  0  0  0  0  0  0  0
   18.1966  -15.0538  -17.3714 C   0  0  0  0  0  0  0  0  0  0  0  0
   18.0965  -16.2260  -17.7858 O   0  0  0  0  0  0  0  0  0  0  0  0
   19.2630  -14.1782  -17.8544 C   0  0  0  0  0  0  0  0  0  0  0  0
   19.2376  -12.8423  -17.2085 C   0  0  0  0  0  0  0  0  0  0  0  0
   20.3502  -11.9651  -17.6776 C   0  0  2  0  0  0  0  0  0  0  0  0
   21.5473  -12.6071  -18.0863 N   0  0  0  0  0  0  0  0  0  0  0  0
   20.6517  -11.0215  -16.5573 C   0  0  0  0  0  0  0  0  0  0  0  0
   19.6899  -10.5071  -15.9460 O   0  0  0  0  0  0  0  0  0  0  0  0
   23.7656  -10.0420  -14.7802 C   0  0  0  0  0  0  0  0  0  0  0  0
   22.3078   -9.8722  -15.1192 C   0  0  2  0  0  0  0  0  0  0  0  0
   21.9802  -10.7395  -16.2226 N   0  0  0  0  0  0  0  0  0  0  0  0
   21.9449   -8.4665  -15.4025 C   0  0  0  0  0  0  0  0  0  0  0  0
   22.1998   -8.0092  -16.5502 O   0  0  0  0  0  0  0  0  0  0  0  0
   21.3323   -7.5958  -14.4805 N   0  0  0  0  0  0  0  0  0  0  0  0
   21.1296   -6.2054  -14.7821 C   0  0  1  0  0  0  0  0  0  0  0  0
   19.6527   -5.9098  -14.6637 C   0  0  0  0  0  0  0  0  0  0  0  0
   19.3091   -4.5147  -14.9683 C   0  0  0  0  0  0  0  0  0  0  0  0
   19.5347   -3.9027  -16.0317 O   0  0  0  0  0  0  0  0  0  0  0  0
   21.8371   -5.3005  -13.8527 C   0  0  0  0  0  0  0  0  0  0  0  0
   21.9270   -4.0944  -14.1993 O   0  0  0  0  0  0  0  0  0  0  0  0
   18.6607   -3.7950  -13.9612 O   0  0  0  0  0  0  0  0  0  0  0  0
   22.3915   -5.6812  -12.6603 O   0  0  0  0  0  0  0  0  0  0  0  0
  2  1  1  0
  2  3  2  0
  4  2  1  0
  5  4  1  0
  6  5  1  0
  6  7  1  1
  8  6  1  0
  8 12  1  0
  9  8  2  0
 11 10  1  6
 11 12  1  0
 11 13  1  0
 13 15  1  0
 13 14  2  0
 15 16  1  0
 16 17  1  1
 17 18  1  0
 18 19  2  0
 18 22  1  0
 20 16  1  0
 20 23  1  0
 21 20  2  0
M  END
$$$$
