QAD.pdb
     RDKit          3D

 23 22  0  0  1  0  0  0  0  0999 V2000
   16.4167  -10.4148  -18.0330 N   0  0  0  0  0  0  0  0  0  0  0  0
   16.5879  -11.8488  -18.0350 C   0  0  0  0  0  0  0  0  0  0  0  0
   16.1701  -12.5448  -18.9820 O   0  0  0  0  0  0  0  0  0  0  0  0
   17.2607  -12.4658  -16.8932 C   0  0  0  0  0  0  0  0  0  0  0  0
   17.6783  -11.4710  -15.8742 C   0  0  0  0  0  0  0  0  0  0  0  0
   19.0577  -10.9556  -16.1178 C   0  0  2  0  0  0  0  0  0  0  0  0
   20.1271  -11.8703  -15.9395 N   0  0  0  0  0  0  0  0  0  0  0  0
   19.2458   -9.7888  -15.2014 C   0  0  0  0  0  0  0  0  0  0  0  0
   19.7753   -9.9946  -14.0876 O   0  0  0  0  0  0  0  0  0  0  0  0
   19.1528   -6.1367  -15.5888 C   0  0  0  0  0  0  0  0  0  0  0  0
   18.9855   -7.3699  -14.7401 C   0  0  2  0  0  0  0  0  0  0  0  0
   18.8329   -8.5142  -15.6029 N   0  0  0  0  0  0  0  0  0  0  0  0
   17.8670   -7.2571  -13.7788 C   0  0  0  0  0  0  0  0  0  0  0  0
   16.7255   -7.6441  -14.1510 O   0  0  0  0  0  0  0  0  0  0  0  0
   17.9827   -6.7469  -12.4713 N   0  0  0  0  0  0  0  0  0  0  0  0
   16.8487   -6.6729  -11.5916 C   0  0  1  0  0  0  0  0  0  0  0  0
   17.3532   -6.3737  -10.1993 C   0  0  0  0  0  0  0  0  0  0  0  0
   16.2878   -6.3208   -9.1898 C   0  0  0  0  0  0  0  0  0  0  0  0
   15.1214   -6.7473   -9.3087 O   0  0  0  0  0  0  0  0  0  0  0  0
   15.8992   -5.6014  -11.9571 C   0  0  0  0  0  0  0  0  0  0  0  0
   14.6858   -5.8114  -11.6993 O   0  0  0  0  0  0  0  0  0  0  0  0
   16.6133   -5.7306   -7.9658 O   0  0  0  0  0  0  0  0  0  0  0  0
   16.2466   -4.4161  -12.5473 O   0  0  0  0  0  0  0  0  0  0  0  0
  2  1  1  0
  2  3  2  0
  4  2  1  0
  5  4  1  0
  6  5  1  0
  6  7  1  1
  8  6  1  0
  8 12  1  0
  9  8  2  0
 11 10  1  6
 11 12  1  0
 11 13  1  0
 13 15  1  0
 13 14  2  0
 15 16  1  0
 16 17  1  1
 17 18  1  0
 18 19  2  0
 18 22  1  0
 20 16  1  0
 20 23  1  0
 21 20  2  0
M  END
$$$$
