QAD.pdb
     RDKit          3D

 23 22  0  0  1  0  0  0  0  0999 V2000
   18.7123  -15.9888  -15.4725 N   0  0  0  0  0  0  0  0  0  0  0  0
   18.4245  -15.8911  -16.8843 C   0  0  0  0  0  0  0  0  0  0  0  0
   17.7275  -16.7511  -17.4593 O   0  0  0  0  0  0  0  0  0  0  0  0
   18.9765  -14.7582  -17.6252 C   0  0  0  0  0  0  0  0  0  0  0  0
   19.8686  -13.9147  -16.7917 C   0  0  0  0  0  0  0  0  0  0  0  0
   19.1186  -12.8615  -16.0462 C   0  0  2  0  0  0  0  0  0  0  0  0
   17.7099  -13.0086  -15.9674 N   0  0  0  0  0  0  0  0  0  0  0  0
   19.4445  -11.5585  -16.7038 C   0  0  0  0  0  0  0  0  0  0  0  0
   20.4604  -11.5039  -17.4306 O   0  0  0  0  0  0  0  0  0  0  0  0
   17.6961   -8.6106  -17.7308 C   0  0  0  0  0  0  0  0  0  0  0  0
   18.9321   -9.1639  -17.0711 C   0  0  2  0  0  0  0  0  0  0  0  0
   18.6201  -10.4479  -16.4957 N   0  0  0  0  0  0  0  0  0  0  0  0
   19.5091   -8.2415  -16.0690 C   0  0  0  0  0  0  0  0  0  0  0  0
   19.1982   -8.4130  -14.8585 O   0  0  0  0  0  0  0  0  0  0  0  0
   20.3848   -7.1798  -16.3679 N   0  0  0  0  0  0  0  0  0  0  0  0
   20.8389   -6.2725  -15.3500 C   0  0  1  0  0  0  0  0  0  0  0  0
   22.1010   -5.6056  -15.8447 C   0  0  0  0  0  0  0  0  0  0  0  0
   22.6658   -4.6418  -14.8911 C   0  0  0  0  0  0  0  0  0  0  0  0
   22.2469   -4.3908  -13.7431 O   0  0  0  0  0  0  0  0  0  0  0  0
   19.8641   -5.2040  -15.0477 C   0  0  0  0  0  0  0  0  0  0  0  0
   19.2824   -4.6770  -16.0310 O   0  0  0  0  0  0  0  0  0  0  0  0
   23.7916   -3.9297  -15.3128 O   0  0  0  0  0  0  0  0  0  0  0  0
   19.5574   -4.7577  -13.7905 O   0  0  0  0  0  0  0  0  0  0  0  0
  2  1  1  0
  2  3  2  0
  4  2  1  0
  5  4  1  0
  6  5  1  0
  6  7  1  6
  8  6  1  0
  8 12  1  0
  9  8  2  0
 11 10  1  1
 11 12  1  0
 11 13  1  0
 13 15  1  0
 13 14  2  0
 15 16  1  0
 16 17  1  6
 17 18  1  0
 18 19  2  0
 18 22  1  0
 20 16  1  0
 20 23  1  0
 21 20  2  0
M  END
$$$$
