QAD.pdb
     RDKit          3D

 23 22  0  0  1  0  0  0  0  0999 V2000
   18.7271  -15.8371  -14.6384 N   0  0  0  0  0  0  0  0  0  0  0  0
   17.9357  -15.7638  -15.8442 C   0  0  0  0  0  0  0  0  0  0  0  0
   17.2755  -16.7451  -16.2405 O   0  0  0  0  0  0  0  0  0  0  0  0
   17.9323  -14.5083  -16.5931 C   0  0  0  0  0  0  0  0  0  0  0  0
   18.7859  -13.4696  -15.9647 C   0  0  0  0  0  0  0  0  0  0  0  0
   18.7972  -12.1975  -16.7451 C   0  0  2  0  0  0  0  0  0  0  0  0
   18.7398  -12.3088  -18.1581 N   0  0  0  0  0  0  0  0  0  0  0  0
   20.0437  -11.4685  -16.3558 C   0  0  0  0  0  0  0  0  0  0  0  0
   20.3204  -11.3837  -15.1395 O   0  0  0  0  0  0  0  0  0  0  0  0
   22.9325  -10.0462  -18.1899 C   0  0  0  0  0  0  0  0  0  0  0  0
   22.0083  -10.1068  -17.0020 C   0  0  2  0  0  0  0  0  0  0  0  0
   20.8595  -10.9071  -17.3436 N   0  0  0  0  0  0  0  0  0  0  0  0
   21.6154   -8.7676  -16.5122 C   0  0  0  0  0  0  0  0  0  0  0  0
   20.5682   -8.2478  -16.9862 O   0  0  0  0  0  0  0  0  0  0  0  0
   22.3277   -8.0255  -15.5503 N   0  0  0  0  0  0  0  0  0  0  0  0
   21.9152   -6.7035  -15.1661 C   0  0  1  0  0  0  0  0  0  0  0  0
   22.3495   -6.4729  -13.7376 C   0  0  0  0  0  0  0  0  0  0  0  0
   21.9648   -5.1553  -13.2147 C   0  0  0  0  0  0  0  0  0  0  0  0
   20.8585   -4.8332  -12.7363 O   0  0  0  0  0  0  0  0  0  0  0  0
   22.5275   -5.6414  -15.9909 C   0  0  0  0  0  0  0  0  0  0  0  0
   23.6314   -5.9125  -16.5302 O   0  0  0  0  0  0  0  0  0  0  0  0
   22.9400   -4.1556  -13.2566 O   0  0  0  0  0  0  0  0  0  0  0  0
   21.9825   -4.4038  -16.2034 O   0  0  0  0  0  0  0  0  0  0  0  0
  2  1  1  0
  2  3  2  0
  4  2  1  0
  5  4  1  0
  6  5  1  0
  6  7  1  6
  8  6  1  0
  8 12  1  0
  9  8  2  0
 11 10  1  6
 11 12  1  0
 11 13  1  0
 13 15  1  0
 13 14  2  0
 15 16  1  0
 16 17  1  1
 17 18  1  0
 18 19  2  0
 18 22  1  0
 20 16  1  0
 20 23  1  0
 21 20  2  0
M  END
$$$$
