QAD.pdb
     RDKit          3D

 23 22  0  0  1  0  0  0  0  0999 V2000
   17.9693  -11.0714  -12.4534 N   0  0  0  0  0  0  0  0  0  0  0  0
   17.1521  -12.0179  -13.1759 C   0  0  0  0  0  0  0  0  0  0  0  0
   17.5947  -13.1409  -13.4903 O   0  0  0  0  0  0  0  0  0  0  0  0
   15.7910  -11.6230  -13.5346 C   0  0  0  0  0  0  0  0  0  0  0  0
   15.4090  -10.3109  -12.9562 C   0  0  0  0  0  0  0  0  0  0  0  0
   14.8182  -10.4436  -11.5920 C   0  0  2  0  0  0  0  0  0  0  0  0
   13.5802  -11.1286  -11.4909 N   0  0  0  0  0  0  0  0  0  0  0  0
   14.6616   -9.0558  -11.0574 C   0  0  0  0  0  0  0  0  0  0  0  0
   13.8541   -8.2920  -11.6301 O   0  0  0  0  0  0  0  0  0  0  0  0
   15.6602   -7.3689   -7.9337 C   0  0  0  0  0  0  0  0  0  0  0  0
   15.2591   -7.3300   -9.3852 C   0  0  2  0  0  0  0  0  0  0  0  0
   15.4085   -8.6487   -9.9471 N   0  0  0  0  0  0  0  0  0  0  0  0
   16.0085   -6.3174  -10.1603 C   0  0  0  0  0  0  0  0  0  0  0  0
   17.1716   -6.6120  -10.5501 O   0  0  0  0  0  0  0  0  0  0  0  0
   15.5170   -5.0414  -10.4975 N   0  0  0  0  0  0  0  0  0  0  0  0
   16.3472   -4.0654  -11.1483 C   0  0  1  0  0  0  0  0  0  0  0  0
   15.8850   -3.9363  -12.5808 C   0  0  0  0  0  0  0  0  0  0  0  0
   16.5722   -2.8717  -13.3235 C   0  0  0  0  0  0  0  0  0  0  0  0
   16.0612   -2.0763  -14.1376 O   0  0  0  0  0  0  0  0  0  0  0  0
   16.2588   -2.7250  -10.5330 C   0  0  0  0  0  0  0  0  0  0  0  0
   15.2651   -2.5093   -9.7921 O   0  0  0  0  0  0  0  0  0  0  0  0
   17.9438   -2.7337  -13.0955 O   0  0  0  0  0  0  0  0  0  0  0  0
   17.1707   -1.7200  -10.7127 O   0  0  0  0  0  0  0  0  0  0  0  0
  2  1  1  0
  2  3  2  0
  4  2  1  0
  5  4  1  0
  6  5  1  0
  6  7  1  6
  8  6  1  0
  8 12  1  0
  9  8  2  0
 11 10  1  1
 11 12  1  0
 11 13  1  0
 13 15  1  0
 13 14  2  0
 15 16  1  0
 16 17  1  6
 17 18  1  0
 18 19  2  0
 18 22  1  0
 20 16  1  0
 20 23  1  0
 21 20  2  0
M  END
$$$$
