EYK.pdb
     RDKit          3D

 31 31  0  0  1  0  0  0  0  0999 V2000
   28.3587  -21.3497  -18.5538 N   0  0  0  0  0  0  0  0  0  0  0  0
   28.4938  -20.4272  -17.4452 C   0  0  1  0  0  0  0  0  0  0  0  0
   28.2885  -18.9963  -17.8815 C   0  0  0  0  0  0  0  0  0  0  0  0
   26.9337  -18.7992  -18.5198 C   0  0  0  0  0  0  0  0  0  0  0  0
   27.0857  -18.7167  -19.9962 C   0  0  0  0  0  0  0  0  0  0  0  0
   28.2246  -18.8015  -20.5337 O   0  0  0  0  0  0  0  0  0  0  0  0
   27.5524  -20.7651  -16.3269 C   0  0  0  0  0  0  0  0  0  0  0  0
   26.4654  -21.3170  -16.5928 O   0  0  0  0  0  0  0  0  0  0  0  0
   25.9886  -18.5451  -20.8282 O   0  0  0  0  0  0  0  0  0  0  0  0
   24.2841  -21.0775   -8.1226 O   0  0  0  0  0  0  0  0  0  0  0  0
   25.1284  -20.8921   -9.2071 C   0  0  0  0  0  0  0  0  0  0  0  0
   25.5505  -19.6481   -9.6275 C   0  0  0  0  0  0  0  0  0  0  0  0
   26.3870  -19.4701  -10.7025 C   0  0  0  0  0  0  0  0  0  0  0  0
   26.8189  -20.5838  -11.3855 C   0  0  0  0  0  0  0  0  0  0  0  0
   27.7198  -20.5241  -12.5587 C   0  0  0  0  0  0  0  0  0  0  0  0
   27.0242  -20.6723  -13.8569 C   0  0  2  0  0  0  0  0  0  0  0  0
   27.8890  -20.4640  -14.9920 N   0  0  0  0  0  0  0  0  0  0  0  0
   25.7537  -19.9059  -13.9797 C   0  0  0  0  0  0  0  0  0  0  0  0
   25.7199  -18.6691  -14.1621 O   0  0  0  0  0  0  0  0  0  0  0  0
   26.4122  -21.8612  -10.9889 C   0  0  0  0  0  0  0  0  0  0  0  0
   25.5719  -22.0134   -9.9060 C   0  0  0  0  0  0  0  0  0  0  0  0
   24.4787  -20.5728  -13.8919 N   0  0  0  0  0  0  0  0  0  0  0  0
   23.2224  -19.8383  -13.8846 C   0  0  1  0  0  0  0  0  0  0  0  0
   22.6538  -19.9015  -15.2853 C   0  0  0  0  0  0  0  0  0  0  0  0
   21.3840  -19.0921  -15.3572 C   0  0  0  0  0  0  0  0  0  0  0  0
   20.7470  -19.1682  -16.7281 C   0  0  0  0  0  0  0  0  0  0  0  0
   19.5689  -18.2468  -16.8572 C   0  0  0  0  0  0  0  0  0  0  0  0
   18.9588  -18.3277  -18.1620 N   0  0  0  0  0  0  0  0  0  0  0  0
   22.2940  -20.2985  -12.8493 C   0  0  0  0  0  0  0  0  0  0  0  0
   22.2185  -21.5350  -12.6365 O   0  0  0  0  0  0  0  0  0  0  0  0
   21.4830  -19.4805  -12.0752 O   0  0  0  0  0  0  0  0  0  0  0  0
  2  1  1  6
  2  3  1  0
  3  4  1  0
  4  5  1  0
  5  6  2  0
  5  9  1  0
  7  2  1  0
  8  7  2  0
 10 11  1  0
 11 12  2  0
 11 21  1  0
 12 13  1  0
 13 14  2  0
 14 15  1  0
 16 15  1  1
 16 17  1  0
 17  7  1  0
 18 22  1  0
 18 16  1  0
 19 18  2  0
 20 14  1  0
 21 20  2  0
 23 29  1  0
 23 24  1  6
 23 22  1  0
 25 24  1  0
 26 25  1  0
 27 26  1  0
 27 28  1  0
 29 31  1  0
 30 29  2  0
M  END
$$$$
