EYK.pdb
     RDKit          3D

 31 31  0  0  1  0  0  0  0  0999 V2000
   16.7989  -11.2578  -14.1915 N   0  0  0  0  0  0  0  0  0  0  0  0
   17.1132   -9.9047  -13.7806 C   0  0  1  0  0  0  0  0  0  0  0  0
   17.2867   -8.9871  -14.9671 C   0  0  0  0  0  0  0  0  0  0  0  0
   18.6019   -9.2299  -15.6695 C   0  0  0  0  0  0  0  0  0  0  0  0
   19.7210   -8.7791  -14.8013 C   0  0  0  0  0  0  0  0  0  0  0  0
   20.2873   -9.5820  -14.0089 O   0  0  0  0  0  0  0  0  0  0  0  0
   16.0727   -9.3535  -12.8507 C   0  0  0  0  0  0  0  0  0  0  0  0
   14.8716   -9.6239  -13.0533 O   0  0  0  0  0  0  0  0  0  0  0  0
   20.1785   -7.4695  -14.8319 O   0  0  0  0  0  0  0  0  0  0  0  0
   11.8797   -6.4085   -5.8286 O   0  0  0  0  0  0  0  0  0  0  0  0
   12.8729   -6.8236   -6.7030 C   0  0  0  0  0  0  0  0  0  0  0  0
   14.0154   -6.0901   -6.9462 C   0  0  0  0  0  0  0  0  0  0  0  0
   14.9962   -6.5059   -7.8135 C   0  0  0  0  0  0  0  0  0  0  0  0
   14.8264   -7.7061   -8.4646 C   0  0  0  0  0  0  0  0  0  0  0  0
   15.8090   -8.2620   -9.4223 C   0  0  0  0  0  0  0  0  0  0  0  0
   15.5223   -7.9301  -10.8360 C   0  0  2  0  0  0  0  0  0  0  0  0
   16.4446   -8.5405  -11.7614 N   0  0  0  0  0  0  0  0  0  0  0  0
   15.3352   -6.4796  -11.1150 C   0  0  0  0  0  0  0  0  0  0  0  0
   16.2842   -5.6660  -11.1525 O   0  0  0  0  0  0  0  0  0  0  0  0
   13.6814   -8.4773   -8.2437 C   0  0  0  0  0  0  0  0  0  0  0  0
   12.7111   -8.0377   -7.3678 C   0  0  0  0  0  0  0  0  0  0  0  0
   14.0215   -5.9391  -11.3601 N   0  0  0  0  0  0  0  0  0  0  0  0
   13.8029   -4.5202  -11.5985 C   0  0  1  0  0  0  0  0  0  0  0  0
   12.3976   -4.3638  -12.1371 C   0  0  0  0  0  0  0  0  0  0  0  0
   12.3267   -4.9062  -13.5420 C   0  0  0  0  0  0  0  0  0  0  0  0
   10.9291   -4.8019  -14.1137 C   0  0  0  0  0  0  0  0  0  0  0  0
   10.8293   -5.4144  -15.4807 C   0  0  0  0  0  0  0  0  0  0  0  0
    9.4684   -5.4540  -15.9580 N   0  0  0  0  0  0  0  0  0  0  0  0
   14.0805   -3.6909  -10.4235 C   0  0  0  0  0  0  0  0  0  0  0  0
   13.8953   -4.1997   -9.2892 O   0  0  0  0  0  0  0  0  0  0  0  0
   14.5349   -2.3799  -10.4537 O   0  0  0  0  0  0  0  0  0  0  0  0
  2  1  1  6
  2  3  1  0
  3  4  1  0
  4  5  1  0
  5  6  2  0
  5  9  1  0
  7  2  1  0
  8  7  2  0
 10 11  1  0
 11 12  2  0
 11 21  1  0
 12 13  1  0
 13 14  2  0
 14 15  1  0
 16 15  1  1
 16 17  1  0
 17  7  1  0
 18 22  1  0
 18 16  1  0
 19 18  2  0
 20 14  1  0
 21 20  2  0
 23 29  1  0
 23 24  1  1
 23 22  1  0
 25 24  1  0
 26 25  1  0
 27 26  1  0
 27 28  1  0
 29 31  1  0
 30 29  2  0
M  END
$$$$
