EYK.pdb
     RDKit          3D

 31 31  0  0  1  0  0  0  0  0999 V2000
   22.4103  -12.3676  -17.3708 N   0  0  0  0  0  0  0  0  0  0  0  0
   22.1172  -10.9810  -17.6705 C   0  0  1  0  0  0  0  0  0  0  0  0
   21.4010  -10.8348  -18.9917 C   0  0  0  0  0  0  0  0  0  0  0  0
   22.2256  -11.3802  -20.1338 C   0  0  0  0  0  0  0  0  0  0  0  0
   21.4985  -11.1780  -21.4144 C   0  0  0  0  0  0  0  0  0  0  0  0
   21.6994  -10.1475  -22.1151 O   0  0  0  0  0  0  0  0  0  0  0  0
   21.3177  -10.3361  -16.5768 C   0  0  0  0  0  0  0  0  0  0  0  0
   20.1884  -10.7892  -16.3009 O   0  0  0  0  0  0  0  0  0  0  0  0
   20.5805  -12.1084  -21.8803 O   0  0  0  0  0  0  0  0  0  0  0  0
   19.1677   -5.4843   -9.5641 O   0  0  0  0  0  0  0  0  0  0  0  0
   19.8176   -6.2145  -10.5477 C   0  0  0  0  0  0  0  0  0  0  0  0
   19.6263   -7.5684  -10.7292 C   0  0  0  0  0  0  0  0  0  0  0  0
   20.2727   -8.2871  -11.7053 C   0  0  0  0  0  0  0  0  0  0  0  0
   21.1473   -7.6229  -12.5344 C   0  0  0  0  0  0  0  0  0  0  0  0
   21.9039   -8.2841  -13.6215 C   0  0  0  0  0  0  0  0  0  0  0  0
   21.1173   -8.4941  -14.8578 C   0  0  2  0  0  0  0  0  0  0  0  0
   21.8335   -9.2323  -15.8685 N   0  0  0  0  0  0  0  0  0  0  0  0
   20.4807   -7.2680  -15.4130 C   0  0  0  0  0  0  0  0  0  0  0  0
   21.1353   -6.3355  -15.9288 O   0  0  0  0  0  0  0  0  0  0  0  0
   21.3670   -6.2509  -12.3808 C   0  0  0  0  0  0  0  0  0  0  0  0
   20.7056   -5.5517  -11.3930 C   0  0  0  0  0  0  0  0  0  0  0  0
   19.0494   -7.1001  -15.3791 N   0  0  0  0  0  0  0  0  0  0  0  0
   18.4074   -5.8627  -15.7967 C   0  0  1  0  0  0  0  0  0  0  0  0
   16.9137   -6.1038  -15.7895 C   0  0  0  0  0  0  0  0  0  0  0  0
   16.1908   -4.8361  -16.1678 C   0  0  0  0  0  0  0  0  0  0  0  0
   14.6962   -5.0520  -16.2713 C   0  0  0  0  0  0  0  0  0  0  0  0
   13.9701   -3.8022  -16.6767 C   0  0  0  0  0  0  0  0  0  0  0  0
   12.5380   -3.9717  -16.6383 N   0  0  0  0  0  0  0  0  0  0  0  0
   18.8222   -4.7040  -15.0023 C   0  0  0  0  0  0  0  0  0  0  0  0
   19.2798   -3.7062  -15.6146 O   0  0  0  0  0  0  0  0  0  0  0  0
   18.7531   -4.6108  -13.6193 O   0  0  0  0  0  0  0  0  0  0  0  0
  2  1  1  1
  2  3  1  0
  3  4  1  0
  4  5  1  0
  5  6  2  0
  5  9  1  0
  7  2  1  0
  8  7  2  0
 10 11  1  0
 11 12  2  0
 11 21  1  0
 12 13  1  0
 13 14  2  0
 14 15  1  0
 16 15  1  1
 16 17  1  0
 17  7  1  0
 18 22  1  0
 18 16  1  0
 19 18  2  0
 20 14  1  0
 21 20  2  0
 23 29  1  0
 23 24  1  1
 23 22  1  0
 25 24  1  0
 26 25  1  0
 27 26  1  0
 27 28  1  0
 29 31  1  0
 30 29  2  0
M  END
$$$$
