EYK.pdb
     RDKit          3D

 31 31  0  0  1  0  0  0  0  0999 V2000
   28.2022  -20.3899  -17.0996 N   0  0  0  0  0  0  0  0  0  0  0  0
   27.5601  -21.6840  -16.9919 C   0  0  1  0  0  0  0  0  0  0  0  0
   28.5316  -22.8119  -17.2448 C   0  0  0  0  0  0  0  0  0  0  0  0
   29.6349  -22.3938  -18.1880 C   0  0  0  0  0  0  0  0  0  0  0  0
   29.3058  -22.8380  -19.5678 C   0  0  0  0  0  0  0  0  0  0  0  0
   28.2317  -23.4559  -19.8083 O   0  0  0  0  0  0  0  0  0  0  0  0
   26.8982  -21.8633  -15.6575 C   0  0  0  0  0  0  0  0  0  0  0  0
   26.2149  -22.8865  -15.4501 O   0  0  0  0  0  0  0  0  0  0  0  0
   30.1618  -22.5903  -20.6314 O   0  0  0  0  0  0  0  0  0  0  0  0
   24.6697  -20.1170   -7.2761 O   0  0  0  0  0  0  0  0  0  0  0  0
   25.3298  -20.2566   -8.4878 C   0  0  0  0  0  0  0  0  0  0  0  0
   26.0378  -21.3890   -8.8324 C   0  0  0  0  0  0  0  0  0  0  0  0
   26.6899  -21.5221  -10.0341 C   0  0  0  0  0  0  0  0  0  0  0  0
   26.6309  -20.4780  -10.9284 C   0  0  0  0  0  0  0  0  0  0  0  0
   27.2910  -20.4990  -12.2533 C   0  0  0  0  0  0  0  0  0  0  0  0
   26.4078  -20.9402  -13.3563 C   0  0  2  0  0  0  0  0  0  0  0  0
   27.0447  -20.8899  -14.6490 N   0  0  0  0  0  0  0  0  0  0  0  0
   25.0619  -20.3038  -13.3759 C   0  0  0  0  0  0  0  0  0  0  0  0
   24.8903  -19.0809  -13.5737 O   0  0  0  0  0  0  0  0  0  0  0  0
   25.9229  -19.3141  -10.6143 C   0  0  0  0  0  0  0  0  0  0  0  0
   25.2765  -19.2051   -9.4010 C   0  0  0  0  0  0  0  0  0  0  0  0
   23.8717  -21.0888  -13.1633 N   0  0  0  0  0  0  0  0  0  0  0  0
   22.5417  -20.4994  -13.2001 C   0  0  1  0  0  0  0  0  0  0  0  0
   22.0066  -20.6789  -14.6039 C   0  0  0  0  0  0  0  0  0  0  0  0
   22.2780  -19.4378  -15.4156 C   0  0  0  0  0  0  0  0  0  0  0  0
   21.7026  -19.5434  -16.8116 C   0  0  0  0  0  0  0  0  0  0  0  0
   22.1035  -18.3853  -17.6786 C   0  0  0  0  0  0  0  0  0  0  0  0
   21.5412  -18.4809  -19.0037 N   0  0  0  0  0  0  0  0  0  0  0  0
   21.6534  -21.0207  -12.1586 C   0  0  0  0  0  0  0  0  0  0  0  0
   21.7817  -22.2264  -11.8275 O   0  0  0  0  0  0  0  0  0  0  0  0
   20.6734  -20.2923  -11.4989 O   0  0  0  0  0  0  0  0  0  0  0  0
  2  1  1  1
  2  3  1  0
  3  4  1  0
  4  5  1  0
  5  6  2  0
  5  9  1  0
  7  2  1  0
  8  7  2  0
 10 11  1  0
 11 12  2  0
 11 21  1  0
 12 13  1  0
 13 14  2  0
 14 15  1  0
 16 15  1  1
 16 17  1  0
 17  7  1  0
 18 22  1  0
 18 16  1  0
 19 18  2  0
 20 14  1  0
 21 20  2  0
 23 29  1  0
 23 24  1  6
 23 22  1  0
 25 24  1  0
 26 25  1  0
 27 26  1  0
 27 28  1  0
 29 31  1  0
 30 29  2  0
M  END
$$$$
