EYK.pdb
     RDKit          3D

 31 31  0  0  1  0  0  0  0  0999 V2000
   23.1247  -22.3179  -17.6033 N   0  0  0  0  0  0  0  0  0  0  0  0
   21.8148  -22.9299  -17.5132 C   0  0  1  0  0  0  0  0  0  0  0  0
   21.9049  -24.3877  -17.1307 C   0  0  0  0  0  0  0  0  0  0  0  0
   22.2700  -25.2513  -18.3151 C   0  0  0  0  0  0  0  0  0  0  0  0
   22.1177  -26.6847  -17.9525 C   0  0  0  0  0  0  0  0  0  0  0  0
   22.2798  -27.5901  -18.8168 O   0  0  0  0  0  0  0  0  0  0  0  0
   20.9278  -22.1981  -16.5494 C   0  0  0  0  0  0  0  0  0  0  0  0
   21.4306  -21.6856  -15.5290 O   0  0  0  0  0  0  0  0  0  0  0  0
   21.7946  -27.0740  -16.6604 O   0  0  0  0  0  0  0  0  0  0  0  0
   22.6841  -16.5416  -17.4792 O   0  0  0  0  0  0  0  0  0  0  0  0
   21.6081  -17.3805  -17.2310 C   0  0  0  0  0  0  0  0  0  0  0  0
   21.0944  -17.5912  -15.9684 C   0  0  0  0  0  0  0  0  0  0  0  0
   20.0282  -18.4234  -15.7280 C   0  0  0  0  0  0  0  0  0  0  0  0
   19.4521  -19.0720  -16.7962 C   0  0  0  0  0  0  0  0  0  0  0  0
   18.3007  -19.9935  -16.6678 C   0  0  0  0  0  0  0  0  0  0  0  0
   18.6330  -21.2815  -16.0183 C   0  0  2  0  0  0  0  0  0  0  0  0
   19.5437  -22.0894  -16.7913 N   0  0  0  0  0  0  0  0  0  0  0  0
   17.4603  -22.0669  -15.5444 C   0  0  0  0  0  0  0  0  0  0  0  0
   16.6517  -22.6189  -16.3226 O   0  0  0  0  0  0  0  0  0  0  0  0
   19.9453  -18.8834  -18.0906 C   0  0  0  0  0  0  0  0  0  0  0  0
   21.0170  -18.0424  -18.3057 C   0  0  0  0  0  0  0  0  0  0  0  0
   17.2014  -22.2285  -14.1356 N   0  0  0  0  0  0  0  0  0  0  0  0
   16.1204  -23.0677  -13.6408 C   0  0  1  0  0  0  0  0  0  0  0  0
   16.4521  -23.4357  -12.2112 C   0  0  0  0  0  0  0  0  0  0  0  0
   17.2773  -24.6972  -12.1878 C   0  0  0  0  0  0  0  0  0  0  0  0
   17.7769  -25.0150  -10.7948 C   0  0  0  0  0  0  0  0  0  0  0  0
   18.4990  -26.3299  -10.7384 C   0  0  0  0  0  0  0  0  0  0  0  0
   18.9990  -26.6166   -9.4158 N   0  0  0  0  0  0  0  0  0  0  0  0
   14.7990  -22.4564  -13.8017 C   0  0  0  0  0  0  0  0  0  0  0  0
   14.7084  -21.2103  -13.6646 O   0  0  0  0  0  0  0  0  0  0  0  0
   13.6272  -23.1397  -14.0953 O   0  0  0  0  0  0  0  0  0  0  0  0
  2  1  1  1
  2  3  1  0
  3  4  1  0
  4  5  1  0
  5  6  2  0
  5  9  1  0
  7  2  1  0
  8  7  2  0
 10 11  1  0
 11 12  2  0
 11 21  1  0
 12 13  1  0
 13 14  2  0
 14 15  1  0
 16 15  1  6
 16 17  1  0
 17  7  1  0
 18 22  1  0
 18 16  1  0
 19 18  2  0
 20 14  1  0
 21 20  2  0
 23 29  1  0
 23 24  1  1
 23 22  1  0
 25 24  1  0
 26 25  1  0
 27 26  1  0
 27 28  1  0
 29 31  1  0
 30 29  2  0
M  END
$$$$
