EYK.pdb
     RDKit          3D

 31 31  0  0  1  0  0  0  0  0999 V2000
   21.5796  -11.8629  -17.6741 N   0  0  0  0  0  0  0  0  0  0  0  0
   21.2015  -10.6041  -18.2832 C   0  0  1  0  0  0  0  0  0  0  0  0
   19.7262  -10.5588  -18.6015 C   0  0  0  0  0  0  0  0  0  0  0  0
   19.3254  -11.6745  -19.5377 C   0  0  0  0  0  0  0  0  0  0  0  0
   18.0303  -11.3399  -20.1859 C   0  0  0  0  0  0  0  0  0  0  0  0
   17.4295  -10.2644  -19.9109 O   0  0  0  0  0  0  0  0  0  0  0  0
   21.5785   -9.4367  -17.4193 C   0  0  0  0  0  0  0  0  0  0  0  0
   21.3488   -9.4877  -16.1940 O   0  0  0  0  0  0  0  0  0  0  0  0
   17.4414  -12.1922  -21.1090 O   0  0  0  0  0  0  0  0  0  0  0  0
   27.1042  -11.3095  -15.6764 O   0  0  0  0  0  0  0  0  0  0  0  0
   26.3354  -10.2047  -16.0105 C   0  0  0  0  0  0  0  0  0  0  0  0
   25.7534   -9.3813  -15.0694 C   0  0  0  0  0  0  0  0  0  0  0  0
   24.9926   -8.2880  -15.4058 C   0  0  0  0  0  0  0  0  0  0  0  0
   24.8065   -8.0073  -16.7399 C   0  0  0  0  0  0  0  0  0  0  0  0
   24.0086   -6.8606  -17.2298 C   0  0  0  0  0  0  0  0  0  0  0  0
   22.5496   -7.1095  -17.2479 C   0  0  2  0  0  0  0  0  0  0  0  0
   22.1845   -8.2957  -17.9822 N   0  0  0  0  0  0  0  0  0  0  0  0
   21.7174   -5.9380  -17.6375 C   0  0  0  0  0  0  0  0  0  0  0  0
   21.7000   -5.4714  -18.7977 O   0  0  0  0  0  0  0  0  0  0  0  0
   25.3808   -8.8192  -17.7225 C   0  0  0  0  0  0  0  0  0  0  0  0
   26.1406   -9.9112  -17.3589 C   0  0  0  0  0  0  0  0  0  0  0  0
   20.8764   -5.2767  -16.6713 N   0  0  0  0  0  0  0  0  0  0  0  0
   20.0189   -4.1577  -17.0322 C   0  0  1  0  0  0  0  0  0  0  0  0
   18.6023   -4.6825  -17.1157 C   0  0  0  0  0  0  0  0  0  0  0  0
   17.6720   -3.5742  -17.5390 C   0  0  0  0  0  0  0  0  0  0  0  0
   16.2450   -4.0603  -17.6738 C   0  0  0  0  0  0  0  0  0  0  0  0
   15.3267   -2.9870  -18.1822 C   0  0  0  0  0  0  0  0  0  0  0  0
   14.0244   -3.5056  -18.5233 N   0  0  0  0  0  0  0  0  0  0  0  0
   20.1703   -3.0067  -16.1389 C   0  0  0  0  0  0  0  0  0  0  0  0
   19.5824   -1.9404  -16.4509 O   0  0  0  0  0  0  0  0  0  0  0  0
   20.9131   -2.9908  -14.9666 O   0  0  0  0  0  0  0  0  0  0  0  0
  2  1  1  1
  2  3  1  0
  3  4  1  0
  4  5  1  0
  5  6  2  0
  5  9  1  0
  7  2  1  0
  8  7  2  0
 10 11  1  0
 11 12  2  0
 11 21  1  0
 12 13  1  0
 13 14  2  0
 14 15  1  0
 16 15  1  6
 16 17  1  0
 17  7  1  0
 18 22  1  0
 18 16  1  0
 19 18  2  0
 20 14  1  0
 21 20  2  0
 23 29  1  0
 23 24  1  1
 23 22  1  0
 25 24  1  0
 26 25  1  0
 27 26  1  0
 27 28  1  0
 29 31  1  0
 30 29  2  0
M  END
$$$$
