EYK.pdb
     RDKit          3D

 31 31  0  0  1  0  0  0  0  0999 V2000
   43.3212  -13.2317   -9.0812 N   0  0  0  0  0  0  0  0  0  0  0  0
   43.2932  -13.0042   -7.6508 C   0  0  1  0  0  0  0  0  0  0  0  0
   44.5742  -13.4524   -6.9891 C   0  0  0  0  0  0  0  0  0  0  0  0
   45.7864  -12.8530   -7.6624 C   0  0  0  0  0  0  0  0  0  0  0  0
   47.0218  -13.3808   -7.0261 C   0  0  0  0  0  0  0  0  0  0  0  0
   47.8287  -14.0984   -7.6798 O   0  0  0  0  0  0  0  0  0  0  0  0
   43.0211  -11.5651   -7.3251 C   0  0  0  0  0  0  0  0  0  0  0  0
   43.4548  -10.6768   -8.0864 O   0  0  0  0  0  0  0  0  0  0  0  0
   47.3282  -13.1048   -5.7013 O   0  0  0  0  0  0  0  0  0  0  0  0
   38.2881   -9.8346  -11.0431 O   0  0  0  0  0  0  0  0  0  0  0  0
   38.8075   -9.8322   -9.7573 C   0  0  0  0  0  0  0  0  0  0  0  0
   38.7368  -10.9227   -8.9157 C   0  0  0  0  0  0  0  0  0  0  0  0
   39.2530  -10.9151   -7.6427 C   0  0  0  0  0  0  0  0  0  0  0  0
   39.8656   -9.7679   -7.1932 C   0  0  0  0  0  0  0  0  0  0  0  0
   40.4592   -9.6340   -5.8436 C   0  0  0  0  0  0  0  0  0  0  0  0
   41.9194   -9.8733   -5.8044 C   0  0  2  0  0  0  0  0  0  0  0  0
   42.2850  -11.2182   -6.1745 N   0  0  0  0  0  0  0  0  0  0  0  0
   42.5932   -9.4408   -4.5492 C   0  0  0  0  0  0  0  0  0  0  0  0
   42.1158   -9.6529   -3.4128 O   0  0  0  0  0  0  0  0  0  0  0  0
   39.9563   -8.6425   -8.0175 C   0  0  0  0  0  0  0  0  0  0  0  0
   39.4301   -8.6755   -9.2919 C   0  0  0  0  0  0  0  0  0  0  0  0
   43.8541   -8.7434   -4.5913 N   0  0  0  0  0  0  0  0  0  0  0  0
   44.5439   -8.3222   -3.3812 C   0  0  1  0  0  0  0  0  0  0  0  0
   45.6034   -9.3596   -3.0806 C   0  0  0  0  0  0  0  0  0  0  0  0
   46.3342   -8.9902   -1.8147 C   0  0  0  0  0  0  0  0  0  0  0  0
   47.3785  -10.0226   -1.4480 C   0  0  0  0  0  0  0  0  0  0  0  0
   48.0368   -9.7200   -0.1333 C   0  0  0  0  0  0  0  0  0  0  0  0
   48.9251  -10.7777    0.2834 N   0  0  0  0  0  0  0  0  0  0  0  0
   45.0628   -6.9548   -3.4623 C   0  0  0  0  0  0  0  0  0  0  0  0
   45.1986   -6.3141   -2.3895 O   0  0  0  0  0  0  0  0  0  0  0  0
   45.4215   -6.2988   -4.6316 O   0  0  0  0  0  0  0  0  0  0  0  0
  2  1  1  6
  2  3  1  0
  3  4  1  0
  4  5  1  0
  5  6  2  0
  5  9  1  0
  7  2  1  0
  8  7  2  0
 10 11  1  0
 11 12  2  0
 11 21  1  0
 12 13  1  0
 13 14  2  0
 14 15  1  0
 16 15  1  1
 16 17  1  0
 17  7  1  0
 18 22  1  0
 18 16  1  0
 19 18  2  0
 20 14  1  0
 21 20  2  0
 23 29  1  0
 23 24  1  6
 23 22  1  0
 25 24  1  0
 26 25  1  0
 27 26  1  0
 27 28  1  0
 29 31  1  0
 30 29  2  0
M  END
$$$$
