WCE.pdb
     RDKit          3D

 30 31  0  0  1  0  0  0  0  0999 V2000
   10.0849  -15.5636   22.1412 N   0  0  0  0  0  0  0  0  0  0  0  0
    9.6759  -15.1524   23.4695 C   0  0  1  0  0  0  0  0  0  0  0  0
    8.2816  -15.6753   23.7427 C   0  0  0  0  0  0  0  0  0  0  0  0
    7.2972  -14.5768   23.7971 C   0  0  0  0  0  0  0  0  0  0  0  0
    6.4669  -14.2062   22.7549 C   0  0  0  0  0  0  0  0  0  0  0  0
    5.7324  -13.1789   23.1987 N   0  0  0  0  0  0  0  0  0  0  0  0
    6.0710  -12.8945   24.4743 C   0  0  0  0  0  0  0  0  0  0  0  0
    5.6114  -11.9421   25.3560 C   0  0  0  0  0  0  0  0  0  0  0  0
    6.1155  -11.8324   26.6424 C   0  0  0  0  0  0  0  0  0  0  0  0
    7.0952  -12.7127   27.0073 C   0  0  0  0  0  0  0  0  0  0  0  0
    7.5794  -13.6738   26.1607 C   0  0  0  0  0  0  0  0  0  0  0  0
    7.0636  -13.7674   24.8810 C   0  0  0  0  0  0  0  0  0  0  0  0
   10.5902  -15.8485   24.4442 C   0  0  0  0  0  0  0  0  0  0  0  0
   11.2453  -16.8704   24.1103 O   0  0  0  0  0  0  0  0  0  0  0  0
   10.7468  -15.3781   25.7760 N   0  0  0  0  0  0  0  0  0  0  0  0
   11.7022  -15.9847   26.6501 C   0  0  1  0  0  0  0  0  0  0  0  0
   11.8750  -15.1506   27.8809 C   0  0  0  0  0  0  0  0  0  0  0  0
   10.2443  -14.6183   28.5122 S   0  0  0  0  0  0  0  0  0  0  0  0
   11.1374  -17.3198   27.0689 C   0  0  0  0  0  0  0  0  0  0  0  0
    9.8983  -17.5090   27.1702 O   0  0  0  0  0  0  0  0  0  0  0  0
   11.9815  -18.4218   27.3675 N   0  0  0  0  0  0  0  0  0  0  0  0
   11.3983  -19.7109   27.6620 C   0  0  1  0  0  0  0  0  0  0  0  0
   12.4076  -20.7572   27.2154 C   0  0  0  0  0  0  0  0  0  0  0  0
   11.9382  -22.1485   27.4979 C   0  0  0  0  0  0  0  0  0  0  0  0
   12.9994  -23.0868   27.0447 C   0  0  0  0  0  0  0  0  0  0  0  0
   13.0261  -24.2986   27.3861 O   0  0  0  0  0  0  0  0  0  0  0  0
   11.1350  -19.8208   29.1180 C   0  0  0  0  0  0  0  0  0  0  0  0
   10.2602  -20.7627   29.5805 O   0  0  0  0  0  0  0  0  0  0  0  0
   14.0286  -22.6538   26.2064 O   0  0  0  0  0  0  0  0  0  0  0  0
   11.7190  -19.0465   29.9122 O   0  0  0  0  0  0  0  0  0  0  0  0
  2  1  1  6
  2 13  1  0
  2  3  1  0
  3  4  1  0
  4  5  2  0
  5  6  1  0
  7  6  1  0
  8  7  2  0
  9  8  1  0
 10 11  1  0
 10  9  2  0
 11 12  2  0
 12  4  1  0
 12  7  1  0
 13 14  2  0
 15 13  1  0
 15 16  1  0
 16 17  1  1
 17 18  1  0
 19 20  2  0
 19 16  1  0
 21 19  1  0
 22 21  1  0
 22 23  1  1
 24 25  1  0
 24 23  1  0
 25 26  2  0
 25 29  1  0
 27 22  1  0
 27 28  1  0
 30 27  2  0
M  END
$$$$
