WCE.pdb
     RDKit          3D

 30 31  0  0  1  0  0  0  0  0999 V2000
    7.8688  -17.2839   24.3862 N   0  0  0  0  0  0  0  0  0  0  0  0
    8.3777  -16.4067   23.3506 C   0  0  1  0  0  0  0  0  0  0  0  0
    7.4304  -15.2378   23.1817 C   0  0  0  0  0  0  0  0  0  0  0  0
    6.8403  -14.8339   24.4730 C   0  0  0  0  0  0  0  0  0  0  0  0
    6.2181  -15.6921   25.3615 C   0  0  0  0  0  0  0  0  0  0  0  0
    5.8227  -14.9456   26.3999 N   0  0  0  0  0  0  0  0  0  0  0  0
    6.1731  -13.6581   26.1948 C   0  0  0  0  0  0  0  0  0  0  0  0
    5.9940  -12.5250   26.9562 C   0  0  0  0  0  0  0  0  0  0  0  0
    6.4460  -11.2835   26.5376 C   0  0  0  0  0  0  0  0  0  0  0  0
    7.0821  -11.2244   25.3294 C   0  0  0  0  0  0  0  0  0  0  0  0
    7.2800  -12.3272   24.5424 C   0  0  0  0  0  0  0  0  0  0  0  0
    6.8217  -13.5574   24.9774 C   0  0  0  0  0  0  0  0  0  0  0  0
    9.6744  -15.8335   23.8608 C   0  0  0  0  0  0  0  0  0  0  0  0
   10.3334  -15.0024   23.1826 O   0  0  0  0  0  0  0  0  0  0  0  0
   10.2019  -16.2094   25.1257 N   0  0  0  0  0  0  0  0  0  0  0  0
   11.4501  -15.6768   25.5765 C   0  0  1  0  0  0  0  0  0  0  0  0
   11.5266  -15.7405   27.0700 C   0  0  0  0  0  0  0  0  0  0  0  0
   10.3135  -14.5909   27.8101 S   0  0  0  0  0  0  0  0  0  0  0  0
   12.5386  -16.5597   25.0173 C   0  0  0  0  0  0  0  0  0  0  0  0
   12.5919  -17.7881   25.2812 O   0  0  0  0  0  0  0  0  0  0  0  0
   13.5514  -16.0412   24.1680 N   0  0  0  0  0  0  0  0  0  0  0  0
   14.5909  -16.9167   23.6765 C   0  0  1  0  0  0  0  0  0  0  0  0
   14.6627  -16.7049   22.1722 C   0  0  0  0  0  0  0  0  0  0  0  0
   14.0475  -15.4070   21.7566 C   0  0  0  0  0  0  0  0  0  0  0  0
   14.7386  -14.9518   20.5208 C   0  0  0  0  0  0  0  0  0  0  0  0
   14.1270  -14.7305   19.4425 O   0  0  0  0  0  0  0  0  0  0  0  0
   15.8826  -16.5708   24.3193 C   0  0  0  0  0  0  0  0  0  0  0  0
   16.9925  -17.3244   24.0614 O   0  0  0  0  0  0  0  0  0  0  0  0
   16.1197  -14.7475   20.5059 O   0  0  0  0  0  0  0  0  0  0  0  0
   15.9438  -15.5879   25.0950 O   0  0  0  0  0  0  0  0  0  0  0  0
  2  1  1  1
  2 13  1  0
  2  3  1  0
  3  4  1  0
  4  5  2  0
  5  6  1  0
  7  6  1  0
  8  7  2  0
  9  8  1  0
 10 11  1  0
 10  9  2  0
 11 12  2  0
 12  4  1  0
 12  7  1  0
 13 14  2  0
 15 13  1  0
 15 16  1  0
 16 17  1  1
 17 18  1  0
 19 20  2  0
 19 16  1  0
 21 19  1  0
 22 21  1  0
 22 23  1  6
 24 25  1  0
 24 23  1  0
 25 26  2  0
 25 29  1  0
 27 22  1  0
 27 28  1  0
 30 27  2  0
M  END
$$$$
