WCE.pdb
     RDKit          3D

 30 31  0  0  1  0  0  0  0  0999 V2000
    6.4921  -18.0632   24.8283 N   0  0  0  0  0  0  0  0  0  0  0  0
    6.9468  -16.8395   24.1985 C   0  0  1  0  0  0  0  0  0  0  0  0
    7.9403  -16.1521   25.1110 C   0  0  0  0  0  0  0  0  0  0  0  0
    7.2835  -15.1252   25.9434 C   0  0  0  0  0  0  0  0  0  0  0  0
    6.4873  -15.3887   27.0433 C   0  0  0  0  0  0  0  0  0  0  0  0
    6.0858  -14.2028   27.5169 N   0  0  0  0  0  0  0  0  0  0  0  0
    6.5991  -13.2118   26.7574 C   0  0  0  0  0  0  0  0  0  0  0  0
    6.4815  -11.8420   26.8327 C   0  0  0  0  0  0  0  0  0  0  0  0
    7.1097  -11.0029   25.9260 C   0  0  0  0  0  0  0  0  0  0  0  0
    7.8575  -11.5906   24.9445 C   0  0  0  0  0  0  0  0  0  0  0  0
    7.9995  -12.9480   24.8349 C   0  0  0  0  0  0  0  0  0  0  0  0
    7.3648  -13.7687   25.7493 C   0  0  0  0  0  0  0  0  0  0  0  0
    7.7104  -17.2407   22.9631 C   0  0  0  0  0  0  0  0  0  0  0  0
    8.4405  -18.2662   22.9501 O   0  0  0  0  0  0  0  0  0  0  0  0
    7.6355  -16.4768   21.7671 N   0  0  0  0  0  0  0  0  0  0  0  0
    8.4877  -16.7805   20.6597 C   0  0  1  0  0  0  0  0  0  0  0  0
    8.2361  -15.8206   19.5391 C   0  0  0  0  0  0  0  0  0  0  0  0
    9.3395  -16.1964   18.1313 S   0  0  0  0  0  0  0  0  0  0  0  0
    9.9096  -16.5876   21.1265 C   0  0  0  0  0  0  0  0  0  0  0  0
   10.2864  -15.5167   21.6674 O   0  0  0  0  0  0  0  0  0  0  0  0
   10.8852  -17.6080   20.9749 N   0  0  0  0  0  0  0  0  0  0  0  0
   12.2606  -17.3418   21.3299 C   0  0  1  0  0  0  0  0  0  0  0  0
   12.6469  -18.3737   22.3781 C   0  0  0  0  0  0  0  0  0  0  0  0
   12.7070  -19.7561   21.8114 C   0  0  0  0  0  0  0  0  0  0  0  0
   13.1158  -20.6779   22.9047 C   0  0  0  0  0  0  0  0  0  0  0  0
   12.4823  -21.7313   23.1778 O   0  0  0  0  0  0  0  0  0  0  0  0
   13.1211  -17.4649   20.1276 C   0  0  0  0  0  0  0  0  0  0  0  0
   14.4385  -17.1100   20.1964 O   0  0  0  0  0  0  0  0  0  0  0  0
   14.2401  -20.4075   23.6873 O   0  0  0  0  0  0  0  0  0  0  0  0
   12.6302  -17.8942   19.0570 O   0  0  0  0  0  0  0  0  0  0  0  0
  2  1  1  1
  2 13  1  0
  2  3  1  0
  3  4  1  0
  4  5  2  0
  5  6  1  0
  7  6  1  0
  8  7  2  0
  9  8  1  0
 10 11  1  0
 10  9  2  0
 11 12  2  0
 12  4  1  0
 12  7  1  0
 13 14  2  0
 15 13  1  0
 15 16  1  0
 16 17  1  6
 17 18  1  0
 19 20  2  0
 19 16  1  0
 21 19  1  0
 22 21  1  0
 22 23  1  1
 24 25  1  0
 24 23  1  0
 25 26  2  0
 25 29  1  0
 27 22  1  0
 27 28  1  0
 30 27  2  0
M  END
$$$$
