WCE.pdb
     RDKit          3D

 30 31  0  0  1  0  0  0  0  0999 V2000
    6.3708  -17.3131   23.8672 N   0  0  0  0  0  0  0  0  0  0  0  0
    7.0804  -16.1226   23.4430 C   0  0  1  0  0  0  0  0  0  0  0  0
    7.9691  -15.6466   24.5726 C   0  0  0  0  0  0  0  0  0  0  0  0
    7.1921  -14.9254   25.5997 C   0  0  0  0  0  0  0  0  0  0  0  0
    6.2390  -15.5013   26.4201 C   0  0  0  0  0  0  0  0  0  0  0  0
    5.7684  -14.5232   27.2035 N   0  0  0  0  0  0  0  0  0  0  0  0
    6.3890  -13.3621   26.9049 C   0  0  0  0  0  0  0  0  0  0  0  0
    6.2590  -12.0921   27.4205 C   0  0  0  0  0  0  0  0  0  0  0  0
    7.0159  -11.0306   26.9500 C   0  0  0  0  0  0  0  0  0  0  0  0
    7.9046  -11.2931   25.9455 C   0  0  0  0  0  0  0  0  0  0  0  0
    8.0639  -12.5413   25.4056 C   0  0  0  0  0  0  0  0  0  0  0  0
    7.2995  -13.5877   25.8886 C   0  0  0  0  0  0  0  0  0  0  0  0
    7.9999  -16.5366   22.3235 C   0  0  0  0  0  0  0  0  0  0  0  0
    8.2694  -17.7482   22.1132 O   0  0  0  0  0  0  0  0  0  0  0  0
    8.5974  -15.5756   21.4639 N   0  0  0  0  0  0  0  0  0  0  0  0
    9.2375  -15.9864   20.2530 C   0  0  1  0  0  0  0  0  0  0  0  0
    9.5145  -14.7962   19.3886 C   0  0  0  0  0  0  0  0  0  0  0  0
    8.0447  -13.7116   19.3242 S   0  0  0  0  0  0  0  0  0  0  0  0
   10.5614  -16.6010   20.6359 C   0  0  0  0  0  0  0  0  0  0  0  0
   11.2819  -17.1933   19.7925 O   0  0  0  0  0  0  0  0  0  0  0  0
   11.0516  -16.5373   21.9670 N   0  0  0  0  0  0  0  0  0  0  0  0
   12.2130  -17.3124   22.3398 C   0  0  1  0  0  0  0  0  0  0  0  0
   13.4186  -16.4024   22.1623 C   0  0  0  0  0  0  0  0  0  0  0  0
   14.3740  -16.9273   21.1388 C   0  0  0  0  0  0  0  0  0  0  0  0
   15.6154  -16.1120   21.2159 C   0  0  0  0  0  0  0  0  0  0  0  0
   15.8219  -15.2736   22.1325 O   0  0  0  0  0  0  0  0  0  0  0  0
   12.0891  -17.7530   23.7511 C   0  0  0  0  0  0  0  0  0  0  0  0
   11.0308  -17.3296   24.5041 O   0  0  0  0  0  0  0  0  0  0  0  0
   16.6215  -16.2458   20.2570 O   0  0  0  0  0  0  0  0  0  0  0  0
   12.9587  -18.5116   24.2408 O   0  0  0  0  0  0  0  0  0  0  0  0
  2  1  1  1
  2 13  1  0
  2  3  1  0
  3  4  1  0
  4  5  2  0
  5  6  1  0
  7  6  1  0
  8  7  2  0
  9  8  1  0
 10 11  1  0
 10  9  2  0
 11 12  2  0
 12  4  1  0
 12  7  1  0
 13 14  2  0
 15 13  1  0
 15 16  1  0
 16 17  1  6
 17 18  1  0
 19 20  2  0
 19 16  1  0
 21 19  1  0
 22 21  1  0
 22 23  1  1
 24 25  1  0
 24 23  1  0
 25 26  2  0
 25 29  1  0
 27 22  1  0
 27 28  1  0
 30 27  2  0
M  END
$$$$
