WCE.pdb
     RDKit          3D

 30 31  0  0  1  0  0  0  0  0999 V2000
    6.9103  -18.2125   24.6502 N   0  0  0  0  0  0  0  0  0  0  0  0
    6.9360  -16.8503   24.1557 C   0  0  1  0  0  0  0  0  0  0  0  0
    7.8019  -16.0080   25.0684 C   0  0  0  0  0  0  0  0  0  0  0  0
    6.9906  -15.0499   25.8446 C   0  0  0  0  0  0  0  0  0  0  0  0
    5.8463  -15.3727   26.5515 C   0  0  0  0  0  0  0  0  0  0  0  0
    5.4104  -14.2375   27.1111 N   0  0  0  0  0  0  0  0  0  0  0  0
    6.2359  -13.2213   26.7820 C   0  0  0  0  0  0  0  0  0  0  0  0
    6.2178  -11.8825   27.1031 C   0  0  0  0  0  0  0  0  0  0  0  0
    7.1883  -11.0067   26.6425 C   0  0  0  0  0  0  0  0  0  0  0  0
    8.1736  -11.5256   25.8502 C   0  0  0  0  0  0  0  0  0  0  0  0
    8.2273  -12.8502   25.5079 C   0  0  0  0  0  0  0  0  0  0  0  0
    7.2497  -13.7085   25.9773 C   0  0  0  0  0  0  0  0  0  0  0  0
    7.6317  -16.8827   22.8195 C   0  0  0  0  0  0  0  0  0  0  0  0
    8.3996  -17.8294   22.5052 O   0  0  0  0  0  0  0  0  0  0  0  0
    7.4474  -15.8463   21.8648 N   0  0  0  0  0  0  0  0  0  0  0  0
    8.1762  -15.8576   20.6345 C   0  0  1  0  0  0  0  0  0  0  0  0
    7.8059  -14.6668   19.8068 C   0  0  0  0  0  0  0  0  0  0  0  0
    8.7770  -14.6523   18.2584 S   0  0  0  0  0  0  0  0  0  0  0  0
    9.6399  -15.7442   20.9833 C   0  0  0  0  0  0  0  0  0  0  0  0
   10.1127  -14.7069   21.5141 O   0  0  0  0  0  0  0  0  0  0  0  0
   10.5482  -16.8050   20.7268 N   0  0  0  0  0  0  0  0  0  0  0  0
   11.9615  -16.6083   20.9558 C   0  0  1  0  0  0  0  0  0  0  0  0
   12.3115  -17.3901   22.2125 C   0  0  0  0  0  0  0  0  0  0  0  0
   12.1700  -18.8655   22.0151 C   0  0  0  0  0  0  0  0  0  0  0  0
   12.6534  -19.5375   23.2507 C   0  0  0  0  0  0  0  0  0  0  0  0
   13.8681  -19.5578   23.5823 O   0  0  0  0  0  0  0  0  0  0  0  0
   12.7321  -17.1103   19.7916 C   0  0  0  0  0  0  0  0  0  0  0  0
   12.0904  -17.7872   18.7934 O   0  0  0  0  0  0  0  0  0  0  0  0
   11.7632  -20.1854   24.1093 O   0  0  0  0  0  0  0  0  0  0  0  0
   13.9680  -16.9085   19.7345 O   0  0  0  0  0  0  0  0  0  0  0  0
  2  1  1  1
  2 13  1  0
  2  3  1  0
  3  4  1  0
  4  5  2  0
  5  6  1  0
  7  6  1  0
  8  7  2  0
  9  8  1  0
 10 11  1  0
 10  9  2  0
 11 12  2  0
 12  4  1  0
 12  7  1  0
 13 14  2  0
 15 13  1  0
 15 16  1  0
 16 17  1  6
 17 18  1  0
 19 20  2  0
 19 16  1  0
 21 19  1  0
 22 21  1  0
 22 23  1  1
 24 25  1  0
 24 23  1  0
 25 26  2  0
 25 29  1  0
 27 22  1  0
 27 28  1  0
 30 27  2  0
M  END
$$$$
