WCE.pdb
     RDKit          3D

 30 31  0  0  1  0  0  0  0  0999 V2000
    6.6409  -18.4483   25.0061 N   0  0  0  0  0  0  0  0  0  0  0  0
    6.8671  -17.0782   24.5910 C   0  0  1  0  0  0  0  0  0  0  0  0
    7.5553  -16.3280   25.7117 C   0  0  0  0  0  0  0  0  0  0  0  0
    6.8076  -15.1101   26.0810 C   0  0  0  0  0  0  0  0  0  0  0  0
    5.4371  -15.0456   26.2559 C   0  0  0  0  0  0  0  0  0  0  0  0
    5.1530  -13.7787   26.5814 N   0  0  0  0  0  0  0  0  0  0  0  0
    6.2899  -13.0516   26.6165 C   0  0  0  0  0  0  0  0  0  0  0  0
    6.5226  -11.7236   26.8955 C   0  0  0  0  0  0  0  0  0  0  0  0
    7.7989  -11.1837   26.8711 C   0  0  0  0  0  0  0  0  0  0  0  0
    8.8282  -12.0260   26.5567 C   0  0  0  0  0  0  0  0  0  0  0  0
    8.6391  -13.3521   26.2729 C   0  0  0  0  0  0  0  0  0  0  0  0
    7.3580  -13.8722   26.3024 C   0  0  0  0  0  0  0  0  0  0  0  0
    7.8452  -17.1236   23.4457 C   0  0  0  0  0  0  0  0  0  0  0  0
    8.5589  -18.1392   23.2356 O   0  0  0  0  0  0  0  0  0  0  0  0
    7.9988  -16.0225   22.5606 N   0  0  0  0  0  0  0  0  0  0  0  0
    8.9082  -16.1001   21.4598 C   0  0  1  0  0  0  0  0  0  0  0  0
    8.6516  -14.9797   20.5011 C   0  0  0  0  0  0  0  0  0  0  0  0
    6.9785  -15.1394   19.7826 S   0  0  0  0  0  0  0  0  0  0  0  0
   10.2990  -15.9245   22.0184 C   0  0  0  0  0  0  0  0  0  0  0  0
   10.6267  -14.8934   22.6594 O   0  0  0  0  0  0  0  0  0  0  0  0
   11.2994  -16.9169   21.8440 N   0  0  0  0  0  0  0  0  0  0  0  0
   12.6286  -16.6924   22.3649 C   0  0  1  0  0  0  0  0  0  0  0  0
   13.1087  -18.0241   22.9207 C   0  0  0  0  0  0  0  0  0  0  0  0
   13.4911  -17.9270   24.3629 C   0  0  0  0  0  0  0  0  0  0  0  0
   12.8014  -19.0253   25.0908 C   0  0  0  0  0  0  0  0  0  0  0  0
   12.7479  -20.2038   24.6502 O   0  0  0  0  0  0  0  0  0  0  0  0
   13.5208  -16.2240   21.2759 C   0  0  0  0  0  0  0  0  0  0  0  0
   14.7153  -15.6362   21.5824 O   0  0  0  0  0  0  0  0  0  0  0  0
   12.1733  -18.7899   26.3154 O   0  0  0  0  0  0  0  0  0  0  0  0
   13.1695  -16.3721   20.0817 O   0  0  0  0  0  0  0  0  0  0  0  0
  2  1  1  1
  2 13  1  0
  2  3  1  0
  3  4  1  0
  4  5  2  0
  5  6  1  0
  7  6  1  0
  8  7  2  0
  9  8  1  0
 10 11  1  0
 10  9  2  0
 11 12  2  0
 12  4  1  0
 12  7  1  0
 13 14  2  0
 15 13  1  0
 15 16  1  0
 16 17  1  6
 17 18  1  0
 19 20  2  0
 19 16  1  0
 21 19  1  0
 22 21  1  0
 22 23  1  6
 24 25  1  0
 24 23  1  0
 25 26  2  0
 25 29  1  0
 27 22  1  0
 27 28  1  0
 30 27  2  0
M  END
$$$$
