WCE.pdb
     RDKit          3D

 30 31  0  0  1  0  0  0  0  0999 V2000
    7.9843  -16.6972   21.9684 N   0  0  0  0  0  0  0  0  0  0  0  0
    9.3435  -17.1822   22.1028 C   0  0  1  0  0  0  0  0  0  0  0  0
   10.1423  -16.7609   20.8876 C   0  0  0  0  0  0  0  0  0  0  0  0
   10.0256  -15.3096   20.6450 C   0  0  0  0  0  0  0  0  0  0  0  0
   11.0744  -14.4795   20.2929 C   0  0  0  0  0  0  0  0  0  0  0  0
   10.5620  -13.2492   20.1674 N   0  0  0  0  0  0  0  0  0  0  0  0
    9.2375  -13.2790   20.4267 C   0  0  0  0  0  0  0  0  0  0  0  0
    8.2799  -12.2897   20.4306 C   0  0  0  0  0  0  0  0  0  0  0  0
    6.9539  -12.5563   20.7334 C   0  0  0  0  0  0  0  0  0  0  0  0
    6.6284  -13.8499   21.0309 C   0  0  0  0  0  0  0  0  0  0  0  0
    7.5504  -14.8622   21.0382 C   0  0  0  0  0  0  0  0  0  0  0  0
    8.8686  -14.5761   20.7334 C   0  0  0  0  0  0  0  0  0  0  0  0
    9.9500  -16.4644   23.2806 C   0  0  0  0  0  0  0  0  0  0  0  0
   11.1941  -16.2963   23.3737 O   0  0  0  0  0  0  0  0  0  0  0  0
    9.1408  -15.9511   24.3301 N   0  0  0  0  0  0  0  0  0  0  0  0
    9.7414  -15.4363   25.5214 C   0  0  1  0  0  0  0  0  0  0  0  0
    8.8596  -14.3921   26.1316 C   0  0  0  0  0  0  0  0  0  0  0  0
    9.6250  -13.7377   27.6570 S   0  0  0  0  0  0  0  0  0  0  0  0
    9.8480  -16.5826   26.4970 C   0  0  0  0  0  0  0  0  0  0  0  0
    8.8517  -17.2894   26.7953 O   0  0  0  0  0  0  0  0  0  0  0  0
   11.0796  -16.9131   27.1216 N   0  0  0  0  0  0  0  0  0  0  0  0
   11.1151  -17.9452   28.1325 C   0  0  1  0  0  0  0  0  0  0  0  0
   12.3894  -18.7412   27.8971 C   0  0  0  0  0  0  0  0  0  0  0  0
   12.7235  -18.8517   26.4438 C   0  0  0  0  0  0  0  0  0  0  0  0
   13.9873  -19.6267   26.3259 C   0  0  0  0  0  0  0  0  0  0  0  0
   14.5573  -19.8332   25.2222 O   0  0  0  0  0  0  0  0  0  0  0  0
   11.1226  -17.3259   29.4807 C   0  0  0  0  0  0  0  0  0  0  0  0
   11.0695  -18.1184   30.5922 O   0  0  0  0  0  0  0  0  0  0  0  0
   14.6049  -20.1669   27.4556 O   0  0  0  0  0  0  0  0  0  0  0  0
   11.1777  -16.0781   29.5878 O   0  0  0  0  0  0  0  0  0  0  0  0
  2  1  1  6
  2 13  1  0
  2  3  1  0
  3  4  1  0
  4  5  2  0
  5  6  1  0
  7  6  1  0
  8  7  2  0
  9  8  1  0
 10 11  1  0
 10  9  2  0
 11 12  2  0
 12  4  1  0
 12  7  1  0
 13 14  2  0
 15 13  1  0
 15 16  1  0
 16 17  1  1
 17 18  1  0
 19 20  2  0
 19 16  1  0
 21 19  1  0
 22 21  1  0
 22 23  1  6
 24 25  1  0
 24 23  1  0
 25 26  2  0
 25 29  1  0
 27 22  1  0
 27 28  1  0
 30 27  2  0
M  END
$$$$
