WCE.pdb
     RDKit          3D

 30 31  0  0  1  0  0  0  0  0999 V2000
    6.7026  -18.0565   24.3568 N   0  0  0  0  0  0  0  0  0  0  0  0
    7.4413  -16.8846   23.9305 C   0  0  1  0  0  0  0  0  0  0  0  0
    8.0704  -16.2280   25.1411 C   0  0  0  0  0  0  0  0  0  0  0  0
    7.1689  -15.2215   25.7352 C   0  0  0  0  0  0  0  0  0  0  0  0
    6.0079  -15.5107   26.4291 C   0  0  0  0  0  0  0  0  0  0  0  0
    5.4827  -14.3368   26.8005 N   0  0  0  0  0  0  0  0  0  0  0  0
    6.2687  -13.3286   26.3668 C   0  0  0  0  0  0  0  0  0  0  0  0
    6.1619  -11.9616   26.4919 C   0  0  0  0  0  0  0  0  0  0  0  0
    7.1069  -11.1018   25.9548 C   0  0  0  0  0  0  0  0  0  0  0  0
    8.1592  -11.6660   25.2896 C   0  0  0  0  0  0  0  0  0  0  0  0
    8.3019  -13.0199   25.1430 C   0  0  0  0  0  0  0  0  0  0  0  0
    7.3484  -13.8614   25.6862 C   0  0  0  0  0  0  0  0  0  0  0  0
    8.5790  -17.3728   23.0716 C   0  0  0  0  0  0  0  0  0  0  0  0
    8.9912  -18.5600   23.1458 O   0  0  0  0  0  0  0  0  0  0  0  0
    9.2291  -16.5119   22.1466 N   0  0  0  0  0  0  0  0  0  0  0  0
   10.2831  -17.0057   21.3159 C   0  0  1  0  0  0  0  0  0  0  0  0
   10.3789  -16.1873   20.0663 C   0  0  0  0  0  0  0  0  0  0  0  0
   11.5916  -16.9326   18.9196 S   0  0  0  0  0  0  0  0  0  0  0  0
   11.5713  -16.8352   22.0831 C   0  0  0  0  0  0  0  0  0  0  0  0
   11.7532  -15.8618   22.8582 O   0  0  0  0  0  0  0  0  0  0  0  0
   12.6355  -17.7675   21.9627 N   0  0  0  0  0  0  0  0  0  0  0  0
   13.8683  -17.5433   22.6827 C   0  0  1  0  0  0  0  0  0  0  0  0
   14.5275  -18.9034   22.8508 C   0  0  0  0  0  0  0  0  0  0  0  0
   13.8329  -19.7427   23.8749 C   0  0  0  0  0  0  0  0  0  0  0  0
   14.5368  -21.0510   23.9434 C   0  0  0  0  0  0  0  0  0  0  0  0
   15.5064  -21.3411   23.1940 O   0  0  0  0  0  0  0  0  0  0  0  0
   14.7412  -16.6272   21.9081 C   0  0  0  0  0  0  0  0  0  0  0  0
   15.8751  -16.1241   22.4804 O   0  0  0  0  0  0  0  0  0  0  0  0
   14.1438  -22.0293   24.8588 O   0  0  0  0  0  0  0  0  0  0  0  0
   14.4296  -16.3224   20.7327 O   0  0  0  0  0  0  0  0  0  0  0  0
  2  1  1  1
  2 13  1  0
  2  3  1  0
  3  4  1  0
  4  5  2  0
  5  6  1  0
  7  6  1  0
  8  7  2  0
  9  8  1  0
 10 11  1  0
 10  9  2  0
 11 12  2  0
 12  4  1  0
 12  7  1  0
 13 14  2  0
 15 13  1  0
 15 16  1  0
 16 17  1  6
 17 18  1  0
 19 20  2  0
 19 16  1  0
 21 19  1  0
 22 21  1  0
 22 23  1  6
 24 25  1  0
 24 23  1  0
 25 26  2  0
 25 29  1  0
 27 22  1  0
 27 28  1  0
 30 27  2  0
M  END
$$$$
