PFI.pdb
     RDKit          3D

 27 28  0  0  1  0  0  0  0  0999 V2000
   28.2595  -19.5941  -13.4408 N   0  0  0  0  0  0  0  0  0  0  0  0
   28.9576  -19.5981  -14.6903 C   0  0  0  0  0  0  0  0  0  0  0  0
   29.2356  -21.0214  -15.0602 C   0  0  0  0  0  0  0  0  0  0  0  0
   29.0319  -21.7500  -13.7330 C   0  0  0  0  0  0  0  0  0  0  0  0
   27.8964  -20.9429  -13.1495 C   0  0  1  0  0  0  0  0  0  0  0  0
   27.7292  -21.2001  -11.7010 C   0  0  0  0  0  0  0  0  0  0  0  0
   27.1266  -22.2391  -11.3399 O   0  0  0  0  0  0  0  0  0  0  0  0
   28.2215  -20.3214  -10.7250 N   0  0  0  0  0  0  0  0  0  0  0  0
   27.9353  -20.4784   -9.3226 C   0  0  1  0  0  0  0  0  0  0  0  0
   28.9936  -19.8243   -8.4633 C   0  0  0  0  0  0  0  0  0  0  0  0
   28.6657  -19.9005   -7.0179 C   0  0  0  0  0  0  0  0  0  0  0  0
   28.0512  -18.8590   -6.3568 C   0  0  0  0  0  0  0  0  0  0  0  0
   27.7467  -18.9459   -4.9928 C   0  0  0  0  0  0  0  0  0  0  0  0
   28.0550  -20.0795   -4.2749 C   0  0  0  0  0  0  0  0  0  0  0  0
   28.6699  -21.1145   -4.9469 C   0  0  0  0  0  0  0  0  0  0  0  0
   28.9727  -21.0366   -6.2886 C   0  0  0  0  0  0  0  0  0  0  0  0
   26.5720  -20.0027   -8.9734 C   0  0  0  0  0  0  0  0  0  0  0  0
   26.3189  -18.7893   -9.1731 O   0  0  0  0  0  0  0  0  0  0  0  0
   21.8875  -19.7800  -11.5395 C   0  0  0  0  0  0  0  0  0  0  0  0
   22.3063  -19.8739  -10.1080 C   0  0  0  0  0  0  0  0  0  0  0  0
   23.7268  -20.3174   -9.8944 C   0  0  2  0  0  0  0  0  0  0  0  0
   23.9049  -21.6233  -10.6599 C   0  0  0  0  0  0  0  0  0  0  0  0
   24.1538  -20.4315   -8.4758 C   0  0  2  0  0  0  0  0  0  0  0  0
   25.5546  -20.8256   -8.4347 N   0  0  0  0  0  0  0  0  0  0  0  0
   23.3104  -21.3379   -7.6690 C   0  0  0  0  0  0  0  0  0  0  0  0
   23.8371  -22.3447   -7.0868 O   0  0  0  0  0  0  0  0  0  0  0  0
   21.9523  -21.1761   -7.4884 O   0  0  0  0  0  0  0  0  0  0  0  0
  1  2  1  0
  2  3  1  0
  4  3  1  0
  5  1  1  0
  5  4  1  0
  5  6  1  1
  7  6  2  0
  8  6  1  0
  9  8  1  0
  9 10  1  1
 10 11  1  0
 11 12  2  0
 12 13  1  0
 14 13  2  0
 15 14  1  0
 16 11  1  0
 16 15  2  0
 17 24  1  0
 17  9  1  0
 18 17  2  0
 20 19  1  0
 21 20  1  0
 21 22  1  1
 23 21  1  0
 23 24  1  6
 25 23  1  0
 26 25  2  0
 27 25  1  0
M  END
$$$$
