PFI.pdb
     RDKit          3D

 27 28  0  0  1  0  0  0  0  0999 V2000
   27.9821  -19.7378  -13.7574 N   0  0  0  0  0  0  0  0  0  0  0  0
   28.8327  -19.6607  -14.9060 C   0  0  0  0  0  0  0  0  0  0  0  0
   29.3609  -21.0332  -15.1832 C   0  0  0  0  0  0  0  0  0  0  0  0
   29.0911  -21.7596  -13.8667 C   0  0  0  0  0  0  0  0  0  0  0  0
   27.7833  -21.1200  -13.4645 C   0  0  1  0  0  0  0  0  0  0  0  0
   27.4648  -21.3727  -12.0408 C   0  0  0  0  0  0  0  0  0  0  0  0
   26.8195  -22.4059  -11.7428 O   0  0  0  0  0  0  0  0  0  0  0  0
   27.8607  -20.4959  -11.0202 N   0  0  0  0  0  0  0  0  0  0  0  0
   27.5232  -20.7105   -9.6370 C   0  0  1  0  0  0  0  0  0  0  0  0
   28.5637  -20.1188   -8.7132 C   0  0  0  0  0  0  0  0  0  0  0  0
   28.1151  -20.1100   -7.2986 C   0  0  0  0  0  0  0  0  0  0  0  0
   27.8401  -21.2756   -6.6167 C   0  0  0  0  0  0  0  0  0  0  0  0
   27.4188  -21.2515   -5.2815 C   0  0  0  0  0  0  0  0  0  0  0  0
   27.2684  -20.0571   -4.6136 C   0  0  0  0  0  0  0  0  0  0  0  0
   27.5460  -18.8977   -5.3063 C   0  0  0  0  0  0  0  0  0  0  0  0
   27.9609  -18.9132   -6.6198 C   0  0  0  0  0  0  0  0  0  0  0  0
   26.1582  -20.2225   -9.3123 C   0  0  0  0  0  0  0  0  0  0  0  0
   25.9550  -18.9865   -9.3984 O   0  0  0  0  0  0  0  0  0  0  0  0
   23.2723  -20.1640  -12.7268 C   0  0  0  0  0  0  0  0  0  0  0  0
   23.7793  -19.9063  -11.3448 C   0  0  0  0  0  0  0  0  0  0  0  0
   23.1399  -20.7436  -10.2723 C   0  0  2  0  0  0  0  0  0  0  0  0
   21.6446  -20.4511  -10.3122 C   0  0  0  0  0  0  0  0  0  0  0  0
   23.7110  -20.5816   -8.9102 C   0  0  2  0  0  0  0  0  0  0  0  0
   25.0867  -21.0575   -8.9155 N   0  0  0  0  0  0  0  0  0  0  0  0
   22.9155  -21.2311   -7.8476 C   0  0  0  0  0  0  0  0  0  0  0  0
   23.3537  -22.2893   -7.2835 O   0  0  0  0  0  0  0  0  0  0  0  0
   21.6951  -20.7680   -7.4011 O   0  0  0  0  0  0  0  0  0  0  0  0
  1  2  1  0
  2  3  1  0
  4  3  1  0
  5  1  1  0
  5  4  1  0
  5  6  1  1
  7  6  2  0
  8  6  1  0
  9  8  1  0
  9 10  1  1
 10 11  1  0
 11 12  2  0
 12 13  1  0
 14 13  2  0
 15 14  1  0
 16 11  1  0
 16 15  2  0
 17 24  1  0
 17  9  1  0
 18 17  2  0
 20 19  1  0
 21 20  1  0
 21 22  1  1
 23 21  1  0
 23 24  1  6
 25 23  1  0
 26 25  2  0
 27 25  1  0
M  END
$$$$
