PFI.pdb
     RDKit          3D

 27 28  0  0  1  0  0  0  0  0999 V2000
   27.8558  -19.5431  -13.2983 N   0  0  0  0  0  0  0  0  0  0  0  0
   28.5471  -19.5416  -14.5516 C   0  0  0  0  0  0  0  0  0  0  0  0
   28.8772  -20.9593  -14.8993 C   0  0  0  0  0  0  0  0  0  0  0  0
   28.7081  -21.6727  -13.5592 C   0  0  0  0  0  0  0  0  0  0  0  0
   27.5458  -20.8996  -12.9826 C   0  0  1  0  0  0  0  0  0  0  0  0
   27.3959  -21.1386  -11.5290 C   0  0  0  0  0  0  0  0  0  0  0  0
   26.8355  -22.1937  -11.1474 O   0  0  0  0  0  0  0  0  0  0  0  0
   27.8589  -20.2253  -10.5706 N   0  0  0  0  0  0  0  0  0  0  0  0
   27.6455  -20.4061   -9.1582 C   0  0  1  0  0  0  0  0  0  0  0  0
   28.6525  -19.6290   -8.3405 C   0  0  0  0  0  0  0  0  0  0  0  0
   28.4103  -19.7618   -6.8824 C   0  0  0  0  0  0  0  0  0  0  0  0
   27.7850  -18.7709   -6.1569 C   0  0  0  0  0  0  0  0  0  0  0  0
   27.5621  -18.9110   -4.7816 C   0  0  0  0  0  0  0  0  0  0  0  0
   27.9640  -20.0477   -4.1169 C   0  0  0  0  0  0  0  0  0  0  0  0
   28.5889  -21.0318   -4.8531 C   0  0  0  0  0  0  0  0  0  0  0  0
   28.8116  -20.9014   -6.2063 C   0  0  0  0  0  0  0  0  0  0  0  0
   26.2504  -20.0891   -8.7583 C   0  0  0  0  0  0  0  0  0  0  0  0
   25.8782  -18.8954   -8.8712 O   0  0  0  0  0  0  0  0  0  0  0  0
   22.6958  -20.4307  -11.5911 C   0  0  0  0  0  0  0  0  0  0  0  0
   23.4564  -20.0833  -10.3525 C   0  0  0  0  0  0  0  0  0  0  0  0
   23.1067  -20.9086   -9.1455 C   0  0  2  0  0  0  0  0  0  0  0  0
   21.6269  -20.6777   -8.8625 C   0  0  0  0  0  0  0  0  0  0  0  0
   23.9538  -20.6778   -7.9468 C   0  0  2  0  0  0  0  0  0  0  0  0
   25.3277  -21.0408   -8.2628 N   0  0  0  0  0  0  0  0  0  0  0  0
   23.4739  -21.3714   -6.7334 C   0  0  0  0  0  0  0  0  0  0  0  0
   22.5259  -20.8638   -6.0452 O   0  0  0  0  0  0  0  0  0  0  0  0
   23.9863  -22.5655   -6.2700 O   0  0  0  0  0  0  0  0  0  0  0  0
  1  2  1  0
  2  3  1  0
  4  3  1  0
  5  1  1  0
  5  4  1  0
  5  6  1  1
  7  6  2  0
  8  6  1  0
  9  8  1  0
  9 10  1  1
 10 11  1  0
 11 12  2  0
 12 13  1  0
 14 13  2  0
 15 14  1  0
 16 11  1  0
 16 15  2  0
 17 24  1  0
 17  9  1  0
 18 17  2  0
 20 19  1  0
 21 20  1  0
 21 22  1  1
 23 21  1  0
 23 24  1  6
 25 23  1  0
 26 25  2  0
 27 25  1  0
M  END
$$$$
