PFI.pdb
     RDKit          3D

 27 28  0  0  1  0  0  0  0  0999 V2000
   28.1665  -20.7223  -16.9254 N   0  0  0  0  0  0  0  0  0  0  0  0
   29.2818  -20.9112  -17.8024 C   0  0  0  0  0  0  0  0  0  0  0  0
   29.5915  -22.3747  -17.8480 C   0  0  0  0  0  0  0  0  0  0  0  0
   28.8595  -22.9025  -16.6155 C   0  0  0  0  0  0  0  0  0  0  0  0
   27.6392  -22.0125  -16.6201 C   0  0  1  0  0  0  0  0  0  0  0  0
   26.9239  -22.0566  -15.3245 C   0  0  0  0  0  0  0  0  0  0  0  0
   26.1825  -23.0380  -15.0796 O   0  0  0  0  0  0  0  0  0  0  0  0
   27.0494  -21.0390  -14.3674 N   0  0  0  0  0  0  0  0  0  0  0  0
   26.3672  -21.0760  -13.1000 C   0  0  1  0  0  0  0  0  0  0  0  0
   27.2229  -20.5047  -11.9920 C   0  0  0  0  0  0  0  0  0  0  0  0
   26.5042  -20.4659  -10.6941 C   0  0  0  0  0  0  0  0  0  0  0  0
   26.1911  -19.2764  -10.0725 C   0  0  0  0  0  0  0  0  0  0  0  0
   25.5113  -19.2557   -8.8486 C   0  0  0  0  0  0  0  0  0  0  0  0
   25.1369  -20.4288   -8.2328 C   0  0  0  0  0  0  0  0  0  0  0  0
   25.4559  -21.6123   -8.8638 C   0  0  0  0  0  0  0  0  0  0  0  0
   26.1245  -21.6410  -10.0681 C   0  0  0  0  0  0  0  0  0  0  0  0
   25.0365  -20.4188  -13.1618 C   0  0  0  0  0  0  0  0  0  0  0  0
   25.0183  -19.1731  -13.3175 O   0  0  0  0  0  0  0  0  0  0  0  0
   22.0970  -20.8057  -16.9165 C   0  0  0  0  0  0  0  0  0  0  0  0
   22.6481  -20.2882  -15.6274 C   0  0  0  0  0  0  0  0  0  0  0  0
   21.8702  -20.6863  -14.4040 C   0  0  2  0  0  0  0  0  0  0  0  0
   20.4996  -20.0288  -14.5151 C   0  0  0  0  0  0  0  0  0  0  0  0
   22.5314  -20.3982  -13.1050 C   0  0  2  0  0  0  0  0  0  0  0  0
   23.8032  -21.1046  -13.0557 N   0  0  0  0  0  0  0  0  0  0  0  0
   21.6934  -20.7050  -11.9270 C   0  0  0  0  0  0  0  0  0  0  0  0
   21.5365  -21.9170  -11.5580 O   0  0  0  0  0  0  0  0  0  0  0  0
   21.0455  -19.7523  -11.1682 O   0  0  0  0  0  0  0  0  0  0  0  0
  1  2  1  0
  2  3  1  0
  4  3  1  0
  5  1  1  0
  5  4  1  0
  5  6  1  1
  7  6  2  0
  8  6  1  0
  9  8  1  0
  9 10  1  1
 10 11  1  0
 11 12  2  0
 12 13  1  0
 14 13  2  0
 15 14  1  0
 16 11  1  0
 16 15  2  0
 17 24  1  0
 17  9  1  0
 18 17  2  0
 20 19  1  0
 21 20  1  0
 21 22  1  1
 23 21  1  0
 23 24  1  1
 25 23  1  0
 26 25  2  0
 27 25  1  0
M  END
$$$$
