PFI.pdb
     RDKit          3D

 27 28  0  0  1  0  0  0  0  0999 V2000
   28.3013  -21.4880  -17.8883 N   0  0  0  0  0  0  0  0  0  0  0  0
   29.2498  -22.1398  -18.7394 C   0  0  0  0  0  0  0  0  0  0  0  0
   30.2094  -22.8920  -17.8716 C   0  0  0  0  0  0  0  0  0  0  0  0
   29.9808  -22.2546  -16.5022 C   0  0  0  0  0  0  0  0  0  0  0  0
   28.4950  -21.9918  -16.5675 C   0  0  1  0  0  0  0  0  0  0  0  0
   28.0590  -21.0463  -15.5148 C   0  0  0  0  0  0  0  0  0  0  0  0
   28.9208  -20.3217  -14.9623 O   0  0  0  0  0  0  0  0  0  0  0  0
   26.7181  -20.9368  -15.1184 N   0  0  0  0  0  0  0  0  0  0  0  0
   26.2782  -20.0024  -14.1151 C   0  0  1  0  0  0  0  0  0  0  0  0
   25.4257  -18.9060  -14.7131 C   0  0  0  0  0  0  0  0  0  0  0  0
   26.2219  -17.9696  -15.5448 C   0  0  0  0  0  0  0  0  0  0  0  0
   27.0469  -17.0200  -14.9819 C   0  0  0  0  0  0  0  0  0  0  0  0
   27.7932  -16.1441  -15.7797 C   0  0  0  0  0  0  0  0  0  0  0  0
   27.7210  -16.2103  -17.1530 C   0  0  0  0  0  0  0  0  0  0  0  0
   26.8921  -17.1639  -17.7046 C   0  0  0  0  0  0  0  0  0  0  0  0
   26.1548  -18.0292  -16.9264 C   0  0  0  0  0  0  0  0  0  0  0  0
   25.5916  -20.6780  -12.9843 C   0  0  0  0  0  0  0  0  0  0  0  0
   24.9505  -21.7254  -13.2455 O   0  0  0  0  0  0  0  0  0  0  0  0
   27.3481  -20.1932   -7.7220 C   0  0  0  0  0  0  0  0  0  0  0  0
   26.8188  -20.7425   -9.0072 C   0  0  0  0  0  0  0  0  0  0  0  0
   25.3718  -20.4354   -9.2758 C   0  0  2  0  0  0  0  0  0  0  0  0
   24.5713  -21.0170   -8.1164 C   0  0  0  0  0  0  0  0  0  0  0  0
   24.8587  -20.8820  -10.5967 C   0  0  2  0  0  0  0  0  0  0  0  0
   25.6159  -20.2164  -11.6468 N   0  0  0  0  0  0  0  0  0  0  0  0
   23.4039  -20.6878  -10.7694 C   0  0  0  0  0  0  0  0  0  0  0  0
   22.9629  -19.5916  -11.2530 O   0  0  0  0  0  0  0  0  0  0  0  0
   22.4521  -21.6300  -10.4386 O   0  0  0  0  0  0  0  0  0  0  0  0
  1  2  1  0
  2  3  1  0
  4  3  1  0
  5  1  1  0
  5  4  1  0
  5  6  1  1
  7  6  2  0
  8  6  1  0
  9  8  1  0
  9 10  1  6
 10 11  1  0
 11 12  2  0
 12 13  1  0
 14 13  2  0
 15 14  1  0
 16 11  1  0
 16 15  2  0
 17 24  1  0
 17  9  1  0
 18 17  2  0
 20 19  1  0
 21 20  1  0
 21 22  1  1
 23 21  1  0
 23 24  1  6
 25 23  1  0
 26 25  2  0
 27 25  1  0
M  END
$$$$
