PFI.pdb
     RDKit          3D

 27 28  0  0  1  0  0  0  0  0999 V2000
   28.3039  -20.8848  -17.2248 N   0  0  0  0  0  0  0  0  0  0  0  0
   29.5124  -21.0979  -17.9616 C   0  0  0  0  0  0  0  0  0  0  0  0
   29.9057  -22.5328  -17.7998 C   0  0  0  0  0  0  0  0  0  0  0  0
   29.0810  -22.9633  -16.5881 C   0  0  0  0  0  0  0  0  0  0  0  0
   27.8203  -22.1638  -16.8173 C   0  0  1  0  0  0  0  0  0  0  0  0
   26.9789  -22.1066  -15.6003 C   0  0  0  0  0  0  0  0  0  0  0  0
   26.1104  -22.9946  -15.4270 O   0  0  0  0  0  0  0  0  0  0  0  0
   27.1227  -21.0944  -14.6402 N   0  0  0  0  0  0  0  0  0  0  0  0
   26.4047  -21.0995  -13.3922 C   0  0  1  0  0  0  0  0  0  0  0  0
   27.2199  -20.4792  -12.2800 C   0  0  0  0  0  0  0  0  0  0  0  0
   26.4899  -20.4738  -10.9879 C   0  0  0  0  0  0  0  0  0  0  0  0
   26.5666  -21.5299  -10.1059 C   0  0  0  0  0  0  0  0  0  0  0  0
   25.8730  -21.5099   -8.8898 C   0  0  0  0  0  0  0  0  0  0  0  0
   25.0935  -20.4293   -8.5431 C   0  0  0  0  0  0  0  0  0  0  0  0
   25.0241  -19.3790   -9.4335 C   0  0  0  0  0  0  0  0  0  0  0  0
   25.7035  -19.3912  -10.6319 C   0  0  0  0  0  0  0  0  0  0  0  0
   25.0673  -20.4645  -13.5138 C   0  0  0  0  0  0  0  0  0  0  0  0
   25.0282  -19.2878  -13.9499 O   0  0  0  0  0  0  0  0  0  0  0  0
   20.0945  -20.4979  -16.2878 C   0  0  0  0  0  0  0  0  0  0  0  0
   20.6383  -20.1828  -14.9319 C   0  0  0  0  0  0  0  0  0  0  0  0
   21.9938  -20.7662  -14.6449 C   0  0  2  0  0  0  0  0  0  0  0  0
   21.8836  -22.2717  -14.8559 C   0  0  0  0  0  0  0  0  0  0  0  0
   22.5694  -20.4222  -13.3190 C   0  0  2  0  0  0  0  0  0  0  0  0
   23.8498  -21.0988  -13.1705 N   0  0  0  0  0  0  0  0  0  0  0  0
   21.6681  -20.7094  -12.1837 C   0  0  0  0  0  0  0  0  0  0  0  0
   21.8482  -21.7594  -11.4800 O   0  0  0  0  0  0  0  0  0  0  0  0
   20.6116  -19.9045  -11.8108 O   0  0  0  0  0  0  0  0  0  0  0  0
  1  2  1  0
  2  3  1  0
  4  3  1  0
  5  1  1  0
  5  4  1  0
  5  6  1  1
  7  6  2  0
  8  6  1  0
  9  8  1  0
  9 10  1  1
 10 11  1  0
 11 12  2  0
 12 13  1  0
 14 13  2  0
 15 14  1  0
 16 11  1  0
 16 15  2  0
 17 24  1  0
 17  9  1  0
 18 17  2  0
 20 19  1  0
 21 20  1  0
 21 22  1  1
 23 21  1  0
 23 24  1  1
 25 23  1  0
 26 25  2  0
 27 25  1  0
M  END
$$$$
