PRH.pdb
     RDKit          3D

 29 30  0  0  1  0  0  0  0  0999 V2000
   27.0647  -21.4493  -14.6016 N   0  0  0  0  0  0  0  0  0  0  0  0
   28.3656  -21.1106  -15.1052 C   0  0  0  0  0  0  0  0  0  0  0  0
   28.4168  -19.5805  -15.1637 C   0  0  0  0  0  0  0  0  0  0  0  0
   26.9209  -19.2752  -15.3208 C   0  0  0  0  0  0  0  0  0  0  0  0
   26.3664  -20.2441  -14.2860 C   0  0  1  0  0  0  0  0  0  0  0  0
   24.9088  -20.3522  -14.3652 C   0  0  0  0  0  0  0  0  0  0  0  0
   24.2047  -19.3404  -14.1413 O   0  0  0  0  0  0  0  0  0  0  0  0
   19.2256  -22.2654  -19.4199 N   0  0  0  0  0  0  0  0  0  0  0  0
   19.0661  -23.5514  -18.8343 C   0  0  0  0  0  0  0  0  0  0  0  0
   17.9253  -24.1581  -18.8199 N   0  0  0  0  0  0  0  0  0  0  0  0
   20.1977  -24.2026  -18.2398 N   0  0  0  0  0  0  0  0  0  0  0  0
   21.4604  -23.5130  -18.1699 C   0  0  0  0  0  0  0  0  0  0  0  0
   21.4480  -22.6146  -16.9410 C   0  0  0  0  0  0  0  0  0  0  0  0
   22.7860  -22.5154  -16.2963 C   0  0  0  0  0  0  0  0  0  0  0  0
   22.8575  -21.6491  -15.0746 C   0  0  2  0  0  0  0  0  0  0  0  0
   24.2590  -21.5711  -14.6891 N   0  0  0  0  0  0  0  0  0  0  0  0
   22.0334  -22.2260  -13.9876 C   0  0  0  0  0  0  0  0  0  0  0  0
   22.3672  -23.3230  -13.4840 O   0  0  0  0  0  0  0  0  0  0  0  0
   17.8758  -25.0904  -18.3453 N   0  0  0  0  0  0  0  0  0  0  0  0
   20.8628  -21.5942  -13.4728 C   0  0  2  0  0  0  0  0  0  0  0  0
   20.1899  -22.1599  -12.2998 C   0  0  0  0  0  0  0  0  0  0  0  0
   20.1561  -21.1073  -11.2128 C   0  0  0  0  0  0  0  0  0  0  0  0
   21.4420  -21.0346  -10.4778 C   0  0  0  0  0  0  0  0  0  0  0  0
   22.5465  -21.8681  -10.6276 N   0  0  0  0  0  0  0  0  0  0  0  0
   23.4939  -21.4546   -9.7722 C   0  0  0  0  0  0  0  0  0  0  0  0
   23.0457  -20.3938   -9.0816 N   0  0  0  0  0  0  0  0  0  0  0  0
   21.8051  -20.1550   -9.5213 C   0  0  0  0  0  0  0  0  0  0  0  0
   18.8271  -22.6008  -12.6670 O   0  0  0  0  0  0  0  0  0  0  0  0
   18.1688  -22.0253  -13.5950 O   0  0  0  0  0  0  0  0  0  0  0  0
  1  2  1  0
  3  2  1  0
  4  5  1  0
  4  3  1  0
  5  6  1  6
  5  1  1  0
  6  7  2  0
  9 11  1  0
  9  8  1  0
 10  9  2  0
 12 13  1  0
 12 11  1  0
 13 14  1  0
 15 14  1  6
 16 15  1  0
 16  6  1  0
 17 15  1  0
 18 17  2  0
 19 17  1  0
 20 27  1  0
 20 19  1  0
 20 21  1  6
 22 21  1  0
 23 22  2  0
 24 23  1  0
 25 24  1  0
 25 26  2  0
 26 22  1  0
 27 29  1  0
 28 27  2  0
M  END
$$$$
