PRH.pdb
     RDKit          3D

 29 30  0  0  1  0  0  0  0  0999 V2000
   18.2061  -15.4118    2.6262 N   0  0  0  0  0  0  0  0  0  0  0  0
   17.6673  -14.7841    1.4532 C   0  0  0  0  0  0  0  0  0  0  0  0
   16.9014  -13.5503    1.9415 C   0  0  0  0  0  0  0  0  0  0  0  0
   16.5463  -14.0091    3.3624 C   0  0  0  0  0  0  0  0  0  0  0  0
   17.8858  -14.6104    3.7641 C   0  0  1  0  0  0  0  0  0  0  0  0
   17.7948  -15.3552    5.0211 C   0  0  0  0  0  0  0  0  0  0  0  0
   17.4562  -14.7552    6.0675 O   0  0  0  0  0  0  0  0  0  0  0  0
   15.3676  -22.5618    3.4651 N   0  0  0  0  0  0  0  0  0  0  0  0
   15.8518  -21.3794    2.8407 C   0  0  0  0  0  0  0  0  0  0  0  0
   16.1473  -21.3435    1.5833 N   0  0  0  0  0  0  0  0  0  0  0  0
   16.0206  -20.1869    3.6201 N   0  0  0  0  0  0  0  0  0  0  0  0
   15.4637  -20.1187    4.9468 C   0  0  0  0  0  0  0  0  0  0  0  0
   15.9189  -18.8166    5.5909 C   0  0  0  0  0  0  0  0  0  0  0  0
   17.3613  -18.8384    5.9581 C   0  0  0  0  0  0  0  0  0  0  0  0
   17.9593  -17.5139    6.3271 C   0  0  2  0  0  0  0  0  0  0  0  0
   18.0786  -16.7431    5.0980 N   0  0  0  0  0  0  0  0  0  0  0  0
   19.2799  -17.7080    6.9689 C   0  0  0  0  0  0  0  0  0  0  0  0
   20.2245  -18.1771    6.2935 O   0  0  0  0  0  0  0  0  0  0  0  0
   16.5140  -20.4426    1.1951 N   0  0  0  0  0  0  0  0  0  0  0  0
   19.5423  -17.3865    8.3334 C   0  0  1  0  0  0  0  0  0  0  0  0
   20.8876  -17.5871    8.8799 C   0  0  0  0  0  0  0  0  0  0  0  0
   21.3337  -16.3001    9.5397 C   0  0  0  0  0  0  0  0  0  0  0  0
   22.6818  -16.4306   10.1435 C   0  0  0  0  0  0  0  0  0  0  0  0
   23.7633  -17.1497    9.6432 N   0  0  0  0  0  0  0  0  0  0  0  0
   24.7872  -17.0020   10.4976 C   0  0  0  0  0  0  0  0  0  0  0  0
   24.4100  -16.2206   11.5223 N   0  0  0  0  0  0  0  0  0  0  0  0
   23.1358  -15.8853   11.2912 C   0  0  0  0  0  0  0  0  0  0  0  0
   20.8766  -18.7108    9.8409 O   0  0  0  0  0  0  0  0  0  0  0  0
   19.7877  -19.1522   10.3362 O   0  0  0  0  0  0  0  0  0  0  0  0
  1  2  1  0
  3  2  1  0
  4  5  1  0
  4  3  1  0
  5  6  1  1
  5  1  1  0
  6  7  2  0
  9 11  1  0
  9  8  1  0
 10  9  2  0
 12 13  1  0
 12 11  1  0
 13 14  1  0
 15 14  1  6
 16 15  1  0
 16  6  1  0
 17 15  1  0
 18 17  2  0
 19 17  1  0
 20 27  1  0
 20 19  1  0
 20 21  1  1
 22 21  1  0
 23 22  2  0
 24 23  1  0
 25 24  1  0
 25 26  2  0
 26 22  1  0
 27 29  1  0
 28 27  2  0
M  END
$$$$
