PRH.pdb
     RDKit          3D

 29 30  0  0  1  0  0  0  0  0999 V2000
   25.7208  -17.7697  -16.7891 N   0  0  0  0  0  0  0  0  0  0  0  0
   26.1920  -16.4606  -17.1424 C   0  0  0  0  0  0  0  0  0  0  0  0
   27.5831  -16.3229  -16.5152 C   0  0  0  0  0  0  0  0  0  0  0  0
   27.4381  -17.3011  -15.3415 C   0  0  0  0  0  0  0  0  0  0  0  0
   26.7489  -18.4483  -16.0666 C   0  0  1  0  0  0  0  0  0  0  0  0
   26.2610  -19.4676  -15.1360 C   0  0  0  0  0  0  0  0  0  0  0  0
   26.9732  -20.4695  -14.8937 O   0  0  0  0  0  0  0  0  0  0  0  0
   28.7242  -20.0226  -11.3543 N   0  0  0  0  0  0  0  0  0  0  0  0
   28.5579  -21.1853  -10.5526 C   0  0  0  0  0  0  0  0  0  0  0  0
   29.4986  -22.0605  -10.4161 N   0  0  0  0  0  0  0  0  0  0  0  0
   27.3138  -21.4024   -9.8718 N   0  0  0  0  0  0  0  0  0  0  0  0
   26.2933  -20.3867   -9.9126 C   0  0  0  0  0  0  0  0  0  0  0  0
   25.3085  -20.7414  -11.0180 C   0  0  0  0  0  0  0  0  0  0  0  0
   25.5842  -20.0051  -12.2821 C   0  0  0  0  0  0  0  0  0  0  0  0
   24.5949  -20.2179  -13.3885 C   0  0  2  0  0  0  0  0  0  0  0  0
   25.0007  -19.3614  -14.4933 N   0  0  0  0  0  0  0  0  0  0  0  0
   23.2280  -19.8849  -12.9256 C   0  0  0  0  0  0  0  0  0  0  0  0
   23.0298  -18.7966  -12.3385 O   0  0  0  0  0  0  0  0  0  0  0  0
   29.3305  -22.8570   -9.7571 N   0  0  0  0  0  0  0  0  0  0  0  0
   22.1064  -20.7458  -13.1128 C   0  0  1  0  0  0  0  0  0  0  0  0
   20.8436  -20.1934  -13.6117 C   0  0  0  0  0  0  0  0  0  0  0  0
   21.1050  -19.5300  -14.9468 C   0  0  0  0  0  0  0  0  0  0  0  0
   19.8873  -18.8750  -15.4828 C   0  0  0  0  0  0  0  0  0  0  0  0
   18.6287  -18.8226  -14.8910 N   0  0  0  0  0  0  0  0  0  0  0  0
   17.8170  -18.1350  -15.7087 C   0  0  0  0  0  0  0  0  0  0  0  0
   18.4993  -17.7447  -16.7974 N   0  0  0  0  0  0  0  0  0  0  0  0
   19.7474  -18.2007  -16.6431 C   0  0  0  0  0  0  0  0  0  0  0  0
   19.8373  -21.2702  -13.7318 O   0  0  0  0  0  0  0  0  0  0  0  0
   18.6362  -21.1055  -13.3369 O   0  0  0  0  0  0  0  0  0  0  0  0
  1  2  1  0
  3  2  1  0
  4  5  1  0
  4  3  1  0
  5  6  1  1
  5  1  1  0
  6  7  2  0
  9 11  1  0
  9  8  1  0
 10  9  2  0
 12 13  1  0
 12 11  1  0
 13 14  1  0
 15 14  1  1
 16 15  1  0
 16  6  1  0
 17 15  1  0
 18 17  2  0
 19 17  1  0
 20 27  1  0
 20 19  1  0
 20 21  1  1
 22 21  1  0
 23 22  2  0
 24 23  1  0
 25 24  1  0
 25 26  2  0
 26 22  1  0
 27 29  1  0
 28 27  2  0
M  END
$$$$
