PRH.pdb
     RDKit          3D

 29 30  0  0  1  0  0  0  0  0999 V2000
   24.1360  -17.4556  -17.6797 N   0  0  0  0  0  0  0  0  0  0  0  0
   25.1070  -16.6435  -18.3565 C   0  0  0  0  0  0  0  0  0  0  0  0
   25.8480  -17.5761  -19.3202 C   0  0  0  0  0  0  0  0  0  0  0  0
   25.6594  -18.9115  -18.5875 C   0  0  0  0  0  0  0  0  0  0  0  0
   24.1893  -18.7781  -18.2162 C   0  0  1  0  0  0  0  0  0  0  0  0
   23.7641  -19.8250  -17.2856 C   0  0  0  0  0  0  0  0  0  0  0  0
   23.2183  -20.8601  -17.7332 O   0  0  0  0  0  0  0  0  0  0  0  0
   27.5961  -21.0546   -9.9337 N   0  0  0  0  0  0  0  0  0  0  0  0
   27.7042  -21.0942  -11.3511 C   0  0  0  0  0  0  0  0  0  0  0  0
   28.8500  -21.0968  -11.9485 N   0  0  0  0  0  0  0  0  0  0  0  0
   26.5132  -21.1325  -12.1500 N   0  0  0  0  0  0  0  0  0  0  0  0
   25.2571  -21.4844  -11.5390 C   0  0  0  0  0  0  0  0  0  0  0  0
   24.1975  -21.5563  -12.6297 C   0  0  0  0  0  0  0  0  0  0  0  0
   24.5052  -20.6634  -13.7803 C   0  0  0  0  0  0  0  0  0  0  0  0
   23.5585  -20.7462  -14.9400 C   0  0  2  0  0  0  0  0  0  0  0  0
   23.9492  -19.7091  -15.8838 N   0  0  0  0  0  0  0  0  0  0  0  0
   22.1642  -20.5543  -14.4789 C   0  0  0  0  0  0  0  0  0  0  0  0
   21.8354  -19.4604  -13.9654 O   0  0  0  0  0  0  0  0  0  0  0  0
   28.8528  -21.1128  -12.9957 N   0  0  0  0  0  0  0  0  0  0  0  0
   21.1580  -21.5594  -14.5876 C   0  0  1  0  0  0  0  0  0  0  0  0
   19.7877  -21.2628  -14.1599 C   0  0  0  0  0  0  0  0  0  0  0  0
   19.0844  -20.5277  -15.2804 C   0  0  0  0  0  0  0  0  0  0  0  0
   17.6616  -20.2636  -14.9565 C   0  0  0  0  0  0  0  0  0  0  0  0
   17.1638  -19.5297  -13.8838 N   0  0  0  0  0  0  0  0  0  0  0  0
   15.8245  -19.5387  -13.9643 C   0  0  0  0  0  0  0  0  0  0  0  0
   15.4424  -20.2453  -15.0403 N   0  0  0  0  0  0  0  0  0  0  0  0
   16.5653  -20.6750  -15.6268 C   0  0  0  0  0  0  0  0  0  0  0  0
   19.0869  -22.5182  -13.8144 O   0  0  0  0  0  0  0  0  0  0  0  0
   19.4462  -23.6381  -14.3069 O   0  0  0  0  0  0  0  0  0  0  0  0
  1  2  1  0
  3  2  1  0
  4  5  1  0
  4  3  1  0
  5  6  1  1
  5  1  1  0
  6  7  2  0
  9 11  1  0
  9  8  1  0
 10  9  2  0
 12 13  1  0
 12 11  1  0
 13 14  1  0
 15 14  1  1
 16 15  1  0
 16  6  1  0
 17 15  1  0
 18 17  2  0
 19 17  1  0
 20 27  1  0
 20 19  1  0
 20 21  1  1
 22 21  1  0
 23 22  2  0
 24 23  1  0
 25 24  1  0
 25 26  2  0
 26 22  1  0
 27 29  1  0
 28 27  2  0
M  END
$$$$
