PRH.pdb
     RDKit          3D

 29 30  0  0  1  0  0  0  0  0999 V2000
   27.5222  -20.3432  -18.2448 N   0  0  0  0  0  0  0  0  0  0  0  0
   28.5445  -19.5033  -18.8015 C   0  0  0  0  0  0  0  0  0  0  0  0
   28.0461  -19.0846  -20.1885 C   0  0  0  0  0  0  0  0  0  0  0  0
   27.1239  -20.2703  -20.5032 C   0  0  0  0  0  0  0  0  0  0  0  0
   26.4247  -20.3968  -19.1571 C   0  0  1  0  0  0  0  0  0  0  0  0
   25.6259  -21.6204  -19.0697 C   0  0  0  0  0  0  0  0  0  0  0  0
   24.5836  -21.7239  -19.7571 O   0  0  0  0  0  0  0  0  0  0  0  0
   29.4916  -28.4590  -16.0065 N   0  0  0  0  0  0  0  0  0  0  0  0
   28.1720  -28.5848  -16.5216 C   0  0  0  0  0  0  0  0  0  0  0  0
   27.5166  -29.6964  -16.4554 N   0  0  0  0  0  0  0  0  0  0  0  0
   27.5414  -27.4511  -17.1342 N   0  0  0  0  0  0  0  0  0  0  0  0
   28.2541  -26.2027  -17.2248 C   0  0  0  0  0  0  0  0  0  0  0  0
   27.4228  -25.2360  -18.0566 C   0  0  0  0  0  0  0  0  0  0  0  0
   26.1046  -24.9380  -17.4325 C   0  0  0  0  0  0  0  0  0  0  0  0
   25.2461  -23.9504  -18.1645 C   0  0  2  0  0  0  0  0  0  0  0  0
   25.9921  -22.7021  -18.2279 N   0  0  0  0  0  0  0  0  0  0  0  0
   23.9565  -23.7695  -17.4589 C   0  0  0  0  0  0  0  0  0  0  0  0
   23.8455  -22.8511  -16.6147 O   0  0  0  0  0  0  0  0  0  0  0  0
   26.5823  -29.7393  -16.9268 N   0  0  0  0  0  0  0  0  0  0  0  0
   22.8156  -24.5938  -17.6889 C   0  0  2  0  0  0  0  0  0  0  0  0
   21.4746  -24.0685  -17.4160 C   0  0  0  0  0  0  0  0  0  0  0  0
   21.2839  -22.8003  -18.2199 C   0  0  0  0  0  0  0  0  0  0  0  0
   19.9432  -22.2061  -17.9993 C   0  0  0  0  0  0  0  0  0  0  0  0
   18.9984  -22.5869  -17.0509 N   0  0  0  0  0  0  0  0  0  0  0  0
   17.9276  -21.7910  -17.1934 C   0  0  0  0  0  0  0  0  0  0  0  0
   18.1443  -20.9179  -18.1902 N   0  0  0  0  0  0  0  0  0  0  0  0
   19.3664  -21.1839  -18.6647 C   0  0  0  0  0  0  0  0  0  0  0  0
   20.4575  -25.0847  -17.7615 O   0  0  0  0  0  0  0  0  0  0  0  0
   19.4466  -25.2955  -17.0134 O   0  0  0  0  0  0  0  0  0  0  0  0
  1  2  1  0
  3  2  1  0
  4  5  1  0
  4  3  1  0
  5  6  1  6
  5  1  1  0
  6  7  2  0
  9 11  1  0
  9  8  1  0
 10  9  2  0
 12 13  1  0
 12 11  1  0
 13 14  1  0
 15 14  1  1
 16 15  1  0
 16  6  1  0
 17 15  1  0
 18 17  2  0
 19 17  1  0
 20 27  1  0
 20 19  1  0
 20 21  1  6
 22 21  1  0
 23 22  2  0
 24 23  1  0
 25 24  1  0
 25 26  2  0
 26 22  1  0
 27 29  1  0
 28 27  2  0
M  END
$$$$
