PRH.pdb
     RDKit          3D

 29 30  0  0  1  0  0  0  0  0999 V2000
   18.9238  -22.3111  -10.8305 N   0  0  0  0  0  0  0  0  0  0  0  0
   19.7808  -21.5470  -11.6920 C   0  0  0  0  0  0  0  0  0  0  0  0
   19.3587  -21.8856  -13.1253 C   0  0  0  0  0  0  0  0  0  0  0  0
   18.7761  -23.2878  -12.9014 C   0  0  0  0  0  0  0  0  0  0  0  0
   17.9780  -23.0184  -11.6335 C   0  0  1  0  0  0  0  0  0  0  0  0
   17.4783  -24.2549  -11.0300 C   0  0  0  0  0  0  0  0  0  0  0  0
   16.8300  -25.0636  -11.7338 O   0  0  0  0  0  0  0  0  0  0  0  0
   21.0662  -30.8605  -11.3205 N   0  0  0  0  0  0  0  0  0  0  0  0
   20.2826  -29.8498  -11.9423 C   0  0  0  0  0  0  0  0  0  0  0  0
   20.3271  -29.6388  -13.2163 N   0  0  0  0  0  0  0  0  0  0  0  0
   19.4147  -29.0354  -11.1412 N   0  0  0  0  0  0  0  0  0  0  0  0
   19.5019  -29.1011   -9.7050 C   0  0  0  0  0  0  0  0  0  0  0  0
   18.4099  -28.2176   -9.1180 C   0  0  0  0  0  0  0  0  0  0  0  0
   18.4879  -26.8151   -9.6106 C   0  0  0  0  0  0  0  0  0  0  0  0
   17.4290  -25.8853   -9.0982 C   0  0  2  0  0  0  0  0  0  0  0  0
   17.7032  -24.5733   -9.6659 N   0  0  0  0  0  0  0  0  0  0  0  0
   17.4539  -25.8452   -7.6179 C   0  0  0  0  0  0  0  0  0  0  0  0
   18.4152  -25.2905   -7.0377 O   0  0  0  0  0  0  0  0  0  0  0  0
   19.7052  -28.8926  -13.6081 N   0  0  0  0  0  0  0  0  0  0  0  0
   16.4301  -26.4109   -6.8018 C   0  0  1  0  0  0  0  0  0  0  0  0
   16.5399  -26.3321   -5.3423 C   0  0  0  0  0  0  0  0  0  0  0  0
   17.9359  -26.7589   -4.9429 C   0  0  0  0  0  0  0  0  0  0  0  0
   18.0597  -26.9300   -3.4751 C   0  0  0  0  0  0  0  0  0  0  0  0
   17.0549  -26.7884   -2.5225 N   0  0  0  0  0  0  0  0  0  0  0  0
   17.5925  -27.0304   -1.3173 C   0  0  0  0  0  0  0  0  0  0  0  0
   18.8962  -27.3205   -1.4553 N   0  0  0  0  0  0  0  0  0  0  0  0
   19.1600  -27.2550   -2.7651 C   0  0  0  0  0  0  0  0  0  0  0  0
   16.2463  -24.9551   -4.8904 O   0  0  0  0  0  0  0  0  0  0  0  0
   16.9052  -23.9559   -5.3298 O   0  0  0  0  0  0  0  0  0  0  0  0
  1  2  1  0
  3  2  1  0
  4  5  1  0
  4  3  1  0
  5  6  1  1
  5  1  1  0
  6  7  2  0
  9 11  1  0
  9  8  1  0
 10  9  2  0
 12 13  1  0
 12 11  1  0
 13 14  1  0
 15 14  1  6
 16 15  1  0
 16  6  1  0
 17 15  1  0
 18 17  2  0
 19 17  1  0
 20 27  1  0
 20 19  1  0
 20 21  1  1
 22 21  1  0
 23 22  2  0
 24 23  1  0
 25 24  1  0
 25 26  2  0
 26 22  1  0
 27 29  1  0
 28 27  2  0
M  END
$$$$
