VFP.pdb
     RDKit          3D

 26 27  0  0  1  0  0  0  0  0999 V2000
   23.5035  -19.8963  -13.4720 C   0  0  0  0  0  0  0  0  0  0  0  0
   24.0656  -20.3758  -12.1747 C   0  0  1  0  0  0  0  0  0  0  0  0
   23.5329  -21.7562  -11.8783 C   0  0  0  0  0  0  0  0  0  0  0  0
   25.5750  -20.3296  -12.1166 C   0  0  2  0  0  0  0  0  0  0  0  0
   26.0888  -21.3014  -13.0661 N   0  0  0  0  0  0  0  0  0  0  0  0
   26.0065  -20.6812  -10.7401 C   0  0  0  0  0  0  0  0  0  0  0  0
   26.2593  -21.8900  -10.5033 O   0  0  0  0  0  0  0  0  0  0  0  0
   26.1361  -19.6866   -9.7015 N   0  0  0  0  0  0  0  0  0  0  0  0
   26.5824  -20.0966   -8.4176 C   0  0  1  0  0  0  0  0  0  0  0  0
   27.5191  -19.0048   -7.9221 C   0  0  0  0  0  0  0  0  0  0  0  0
   28.1235  -19.2474   -6.6238 C   0  0  0  0  0  0  0  0  0  0  0  0
   29.1768  -20.1209   -6.4895 C   0  0  0  0  0  0  0  0  0  0  0  0
   29.7818  -20.3812   -5.2722 C   0  0  0  0  0  0  0  0  0  0  0  0
   29.3344  -19.7562   -4.1296 C   0  0  0  0  0  0  0  0  0  0  0  0
   28.2835  -18.8802   -4.2424 C   0  0  0  0  0  0  0  0  0  0  0  0
   27.6835  -18.6229   -5.4535 C   0  0  0  0  0  0  0  0  0  0  0  0
   25.6002  -20.5195   -7.4360 C   0  0  0  0  0  0  0  0  0  0  0  0
   24.6613  -19.6746   -7.2257 O   0  0  0  0  0  0  0  0  0  0  0  0
   25.5338  -21.7225   -6.6847 N   0  0  0  0  0  0  0  0  0  0  0  0
   26.4505  -22.8328   -6.9904 C   0  0  0  0  0  0  0  0  0  0  0  0
   26.3244  -23.7832   -5.8099 C   0  0  0  0  0  0  0  0  0  0  0  0
   25.6739  -22.9508   -4.7308 C   0  0  0  0  0  0  0  0  0  0  0  0
   24.7000  -22.1392   -5.6280 C   0  0  1  0  0  0  0  0  0  0  0  0
   24.0140  -21.1493   -4.8125 C   0  0  0  0  0  0  0  0  0  0  0  0
   22.8701  -21.2418   -4.0812 O   0  0  0  0  0  0  0  0  0  0  0  0
   24.5816  -19.9902   -4.7784 O   0  0  0  0  0  0  0  0  0  0  0  0
  2  4  1  0
  2  1  1  6
  3  2  1  0
  4  5  1  6
  6  4  1  0
  6  7  2  0
  8  6  1  0
  9  8  1  0
  9 10  1  1
 11 10  1  0
 11 12  2  0
 13 12  1  0
 14 13  2  0
 15 16  2  0
 15 14  1  0
 16 11  1  0
 17 19  1  0
 17  9  1  0
 18 17  2  0
 19 20  1  0
 21 20  1  0
 22 23  1  0
 22 21  1  0
 23 19  1  0
 23 24  1  1
 25 24  1  0
 26 24  2  0
M  END
$$$$
