VFP.pdb
     RDKit          3D

 26 27  0  0  1  0  0  0  0  0999 V2000
   23.6107  -21.9604  -12.3439 C   0  0  0  0  0  0  0  0  0  0  0  0
   23.9370  -20.8724  -13.3126 C   0  0  1  0  0  0  0  0  0  0  0  0
   22.8553  -20.7959  -14.3621 C   0  0  0  0  0  0  0  0  0  0  0  0
   24.1817  -19.5331  -12.6568 C   0  0  2  0  0  0  0  0  0  0  0  0
   24.5111  -18.5779  -13.7004 N   0  0  0  0  0  0  0  0  0  0  0  0
   25.3180  -19.6700  -11.7109 C   0  0  0  0  0  0  0  0  0  0  0  0
   26.4768  -19.6999  -12.1981 O   0  0  0  0  0  0  0  0  0  0  0  0
   25.1183  -19.7665  -10.2842 N   0  0  0  0  0  0  0  0  0  0  0  0
   26.2552  -19.9044   -9.4450 C   0  0  1  0  0  0  0  0  0  0  0  0
   25.7961  -19.5417   -8.0405 C   0  0  0  0  0  0  0  0  0  0  0  0
   26.8332  -19.5615   -7.0239 C   0  0  0  0  0  0  0  0  0  0  0  0
   27.4958  -18.4095   -6.6713 C   0  0  0  0  0  0  0  0  0  0  0  0
   28.4897  -18.3834   -5.7085 C   0  0  0  0  0  0  0  0  0  0  0  0
   28.8536  -19.5415   -5.0582 C   0  0  0  0  0  0  0  0  0  0  0  0
   28.2039  -20.7026   -5.3958 C   0  0  0  0  0  0  0  0  0  0  0  0
   27.2161  -20.7263   -6.3533 C   0  0  0  0  0  0  0  0  0  0  0  0
   27.0318  -21.1289   -9.5124 C   0  0  0  0  0  0  0  0  0  0  0  0
   26.3648  -22.1951   -9.2716 O   0  0  0  0  0  0  0  0  0  0  0  0
   28.4097  -21.3099   -9.8035 N   0  0  0  0  0  0  0  0  0  0  0  0
   29.2235  -20.1683  -10.2518 C   0  0  0  0  0  0  0  0  0  0  0  0
   30.6635  -20.6449  -10.1424 C   0  0  0  0  0  0  0  0  0  0  0  0
   30.5859  -21.8593   -9.2481 C   0  0  0  0  0  0  0  0  0  0  0  0
   29.2468  -22.4430   -9.7758 C   0  0  1  0  0  0  0  0  0  0  0  0
   28.8792  -23.5962   -8.9692 C   0  0  0  0  0  0  0  0  0  0  0  0
   28.3294  -23.6702   -7.7267 O   0  0  0  0  0  0  0  0  0  0  0  0
   29.1160  -24.7391   -9.5212 O   0  0  0  0  0  0  0  0  0  0  0  0
  2  4  1  0
  2  1  1  1
  3  2  1  0
  4  5  1  6
  6  4  1  0
  6  7  2  0
  8  6  1  0
  9  8  1  0
  9 10  1  1
 11 10  1  0
 11 12  2  0
 13 12  1  0
 14 13  2  0
 15 16  2  0
 15 14  1  0
 16 11  1  0
 17 19  1  0
 17  9  1  0
 18 17  2  0
 19 20  1  0
 21 20  1  0
 22 23  1  0
 22 21  1  0
 23 19  1  0
 23 24  1  1
 25 24  1  0
 26 24  2  0
M  END
$$$$
