VFP.pdb
     RDKit          3D

 26 27  0  0  1  0  0  0  0  0999 V2000
   23.6908  -15.8464  -19.0847 C   0  0  0  0  0  0  0  0  0  0  0  0
   24.0309  -16.9986  -18.1984 C   0  0  1  0  0  0  0  0  0  0  0  0
   23.5506  -18.2792  -18.8359 C   0  0  0  0  0  0  0  0  0  0  0  0
   25.4953  -17.0664  -17.8311 C   0  0  2  0  0  0  0  0  0  0  0  0
   26.2466  -17.3528  -19.0408 N   0  0  0  0  0  0  0  0  0  0  0  0
   25.6847  -18.1563  -16.8407 C   0  0  0  0  0  0  0  0  0  0  0  0
   25.9569  -19.3010  -17.2841 O   0  0  0  0  0  0  0  0  0  0  0  0
   25.5647  -17.9282  -15.4200 N   0  0  0  0  0  0  0  0  0  0  0  0
   25.6506  -19.0406  -14.5420 C   0  0  1  0  0  0  0  0  0  0  0  0
   26.1685  -18.5002  -13.2173 C   0  0  0  0  0  0  0  0  0  0  0  0
   26.3249  -19.4868  -12.1629 C   0  0  0  0  0  0  0  0  0  0  0  0
   25.3703  -19.6283  -11.1836 C   0  0  0  0  0  0  0  0  0  0  0  0
   25.4793  -20.5549  -10.1613 C   0  0  0  0  0  0  0  0  0  0  0  0
   26.5765  -21.3843  -10.0935 C   0  0  0  0  0  0  0  0  0  0  0  0
   27.5412  -21.2589  -11.0620 C   0  0  0  0  0  0  0  0  0  0  0  0
   27.4308  -20.3371  -12.0774 C   0  0  0  0  0  0  0  0  0  0  0  0
   24.5034  -19.9202  -14.4105 C   0  0  0  0  0  0  0  0  0  0  0  0
   23.4166  -19.3301  -14.0787 O   0  0  0  0  0  0  0  0  0  0  0  0
   24.4166  -21.3254  -14.5951 N   0  0  0  0  0  0  0  0  0  0  0  0
   25.5435  -22.0604  -15.1919 C   0  0  0  0  0  0  0  0  0  0  0  0
   25.2400  -23.5271  -14.9283 C   0  0  0  0  0  0  0  0  0  0  0  0
   24.1907  -23.4999  -13.8425 C   0  0  0  0  0  0  0  0  0  0  0  0
   23.3946  -22.2582  -14.3290 C   0  0  1  0  0  0  0  0  0  0  0  0
   22.3613  -21.9433  -13.3550 C   0  0  0  0  0  0  0  0  0  0  0  0
   21.0383  -22.2605  -13.3320 O   0  0  0  0  0  0  0  0  0  0  0  0
   22.7643  -21.2451  -12.3466 O   0  0  0  0  0  0  0  0  0  0  0  0
  2  4  1  0
  2  1  1  6
  3  2  1  0
  4  5  1  6
  6  4  1  0
  6  7  2  0
  8  6  1  0
  9  8  1  0
  9 10  1  1
 11 10  1  0
 11 12  2  0
 13 12  1  0
 14 13  2  0
 15 16  2  0
 15 14  1  0
 16 11  1  0
 17 19  1  0
 17  9  1  0
 18 17  2  0
 19 20  1  0
 21 20  1  0
 22 23  1  0
 22 21  1  0
 23 19  1  0
 23 24  1  1
 25 24  1  0
 26 24  2  0
M  END
$$$$
