VFP.pdb
     RDKit          3D

 26 27  0  0  1  0  0  0  0  0999 V2000
   26.1960  -16.5902  -19.9160 C   0  0  0  0  0  0  0  0  0  0  0  0
   26.0737  -17.6160  -18.8383 C   0  0  1  0  0  0  0  0  0  0  0  0
   25.4290  -18.8588  -19.4013 C   0  0  0  0  0  0  0  0  0  0  0  0
   27.3814  -17.9235  -18.1460 C   0  0  2  0  0  0  0  0  0  0  0  0
   28.2627  -18.5521  -19.1145 N   0  0  0  0  0  0  0  0  0  0  0  0
   27.1132  -18.8525  -17.0192 C   0  0  0  0  0  0  0  0  0  0  0  0
   27.1876  -20.0854  -17.2548 O   0  0  0  0  0  0  0  0  0  0  0  0
   26.7785  -18.3759  -15.6980 N   0  0  0  0  0  0  0  0  0  0  0  0
   26.4709  -19.3261  -14.6888 C   0  0  1  0  0  0  0  0  0  0  0  0
   27.0201  -18.7602  -13.3876 C   0  0  0  0  0  0  0  0  0  0  0  0
   26.8333  -19.6003  -12.2176 C   0  0  0  0  0  0  0  0  0  0  0  0
   25.8125  -19.3544  -11.3298 C   0  0  0  0  0  0  0  0  0  0  0  0
   25.5986  -20.1292  -10.2031 C   0  0  0  0  0  0  0  0  0  0  0  0
   26.4239  -21.1974   -9.9311 C   0  0  0  0  0  0  0  0  0  0  0  0
   27.4492  -21.4598  -10.8054 C   0  0  0  0  0  0  0  0  0  0  0  0
   27.6601  -20.6883  -11.9249 C   0  0  0  0  0  0  0  0  0  0  0  0
   25.1115  -19.8247  -14.5863 C   0  0  0  0  0  0  0  0  0  0  0  0
   24.2212  -18.9153  -14.4450 O   0  0  0  0  0  0  0  0  0  0  0  0
   24.6347  -21.1617  -14.6199 N   0  0  0  0  0  0  0  0  0  0  0  0
   25.5423  -22.2577  -14.9961 C   0  0  0  0  0  0  0  0  0  0  0  0
   24.8061  -23.5296  -14.6052 C   0  0  0  0  0  0  0  0  0  0  0  0
   23.7286  -23.0588  -13.6575 C   0  0  0  0  0  0  0  0  0  0  0  0
   23.3682  -21.7264  -14.3695 C   0  0  1  0  0  0  0  0  0  0  0  0
   22.3984  -21.0024  -13.5628 C   0  0  0  0  0  0  0  0  0  0  0  0
   21.0468  -21.1318  -13.4730 O   0  0  0  0  0  0  0  0  0  0  0  0
   22.9017  -20.0829  -12.8090 O   0  0  0  0  0  0  0  0  0  0  0  0
  2  4  1  0
  2  1  1  6
  3  2  1  0
  4  5  1  6
  6  4  1  0
  6  7  2  0
  8  6  1  0
  9  8  1  0
  9 10  1  1
 11 10  1  0
 11 12  2  0
 13 12  1  0
 14 13  2  0
 15 16  2  0
 15 14  1  0
 16 11  1  0
 17 19  1  0
 17  9  1  0
 18 17  2  0
 19 20  1  0
 21 20  1  0
 22 23  1  0
 22 21  1  0
 23 19  1  0
 23 24  1  1
 25 24  1  0
 26 24  2  0
M  END
$$$$
