VFP.pdb
     RDKit          3D

 26 27  0  0  1  0  0  0  0  0999 V2000
   23.6965  -19.8040  -13.2114 C   0  0  0  0  0  0  0  0  0  0  0  0
   24.2073  -20.2718  -11.8889 C   0  0  1  0  0  0  0  0  0  0  0  0
   23.3783  -21.4413  -11.4176 C   0  0  0  0  0  0  0  0  0  0  0  0
   25.6842  -20.5922  -11.8909 C   0  0  2  0  0  0  0  0  0  0  0  0
   25.8861  -21.7638  -12.7255 N   0  0  0  0  0  0  0  0  0  0  0  0
   26.1083  -20.8774  -10.4968 C   0  0  0  0  0  0  0  0  0  0  0  0
   26.1293  -22.0806  -10.1324 O   0  0  0  0  0  0  0  0  0  0  0  0
   26.4853  -19.8260   -9.5818 N   0  0  0  0  0  0  0  0  0  0  0  0
   26.8655  -20.1775   -8.2598 C   0  0  1  0  0  0  0  0  0  0  0  0
   27.9549  -19.1962   -7.8534 C   0  0  0  0  0  0  0  0  0  0  0  0
   28.4608  -19.3554   -6.5012 C   0  0  0  0  0  0  0  0  0  0  0  0
   29.3719  -20.3407   -6.2016 C   0  0  0  0  0  0  0  0  0  0  0  0
   29.8795  -20.5274   -4.9277 C   0  0  0  0  0  0  0  0  0  0  0  0
   29.4761  -19.7100   -3.8955 C   0  0  0  0  0  0  0  0  0  0  0  0
   28.5668  -18.7200   -4.1739 C   0  0  0  0  0  0  0  0  0  0  0  0
   28.0634  -18.5361   -5.4410 C   0  0  0  0  0  0  0  0  0  0  0  0
   25.8312  -20.3569   -7.2572 C   0  0  0  0  0  0  0  0  0  0  0  0
   25.0328  -19.3635   -7.1337 O   0  0  0  0  0  0  0  0  0  0  0  0
   25.5824  -21.4643   -6.4041 N   0  0  0  0  0  0  0  0  0  0  0  0
   26.3024  -22.7309   -6.6131 C   0  0  0  0  0  0  0  0  0  0  0  0
   26.0422  -23.5435   -5.3543 C   0  0  0  0  0  0  0  0  0  0  0  0
   25.5516  -22.5271   -4.3509 C   0  0  0  0  0  0  0  0  0  0  0  0
   24.7083  -21.6478   -5.3142 C   0  0  1  0  0  0  0  0  0  0  0  0
   24.2041  -20.4934   -4.5871 C   0  0  0  0  0  0  0  0  0  0  0  0
   24.6399  -19.2047   -4.5575 O   0  0  0  0  0  0  0  0  0  0  0  0
   23.1749  -20.7300   -3.8445 O   0  0  0  0  0  0  0  0  0  0  0  0
  2  4  1  0
  2  1  1  6
  3  2  1  0
  4  5  1  6
  6  4  1  0
  6  7  2  0
  8  6  1  0
  9  8  1  0
  9 10  1  1
 11 10  1  0
 11 12  2  0
 13 12  1  0
 14 13  2  0
 15 16  2  0
 15 14  1  0
 16 11  1  0
 17 19  1  0
 17  9  1  0
 18 17  2  0
 19 20  1  0
 21 20  1  0
 22 23  1  0
 22 21  1  0
 23 19  1  0
 23 24  1  1
 25 24  1  0
 26 24  2  0
M  END
$$$$
