VFP.pdb
     RDKit          3D

 26 27  0  0  1  0  0  0  0  0999 V2000
   23.9093  -19.8717  -13.5596 C   0  0  0  0  0  0  0  0  0  0  0  0
   24.2881  -20.3195  -12.1867 C   0  0  1  0  0  0  0  0  0  0  0  0
   23.3525  -21.4169  -11.7423 C   0  0  0  0  0  0  0  0  0  0  0  0
   25.7373  -20.7300  -12.0637 C   0  0  2  0  0  0  0  0  0  0  0  0
   25.9223  -21.9510  -12.8285 N   0  0  0  0  0  0  0  0  0  0  0  0
   26.0402  -20.9727  -10.6305 C   0  0  0  0  0  0  0  0  0  0  0  0
   26.0252  -22.1642  -10.2290 O   0  0  0  0  0  0  0  0  0  0  0  0
   26.3425  -19.8943   -9.7193 N   0  0  0  0  0  0  0  0  0  0  0  0
   26.6514  -20.2092   -8.3698 C   0  0  1  0  0  0  0  0  0  0  0  0
   27.7327  -19.2293   -7.9391 C   0  0  0  0  0  0  0  0  0  0  0  0
   28.2107  -19.3914   -6.5772 C   0  0  0  0  0  0  0  0  0  0  0  0
   29.1195  -20.3737   -6.2620 C   0  0  0  0  0  0  0  0  0  0  0  0
   29.6010  -20.5631   -4.9784 C   0  0  0  0  0  0  0  0  0  0  0  0
   29.1722  -19.7513   -3.9519 C   0  0  0  0  0  0  0  0  0  0  0  0
   28.2647  -18.7642   -4.2458 C   0  0  0  0  0  0  0  0  0  0  0  0
   27.7874  -18.5777   -5.5227 C   0  0  0  0  0  0  0  0  0  0  0  0
   25.5661  -20.3446   -7.4154 C   0  0  0  0  0  0  0  0  0  0  0  0
   24.7825  -19.3337   -7.3548 O   0  0  0  0  0  0  0  0  0  0  0  0
   25.2539  -21.4259   -6.5497 N   0  0  0  0  0  0  0  0  0  0  0  0
   25.9730  -22.7037   -6.6791 C   0  0  0  0  0  0  0  0  0  0  0  0
   25.6272  -23.4790   -5.4174 C   0  0  0  0  0  0  0  0  0  0  0  0
   25.0854  -22.4312   -4.4743 C   0  0  0  0  0  0  0  0  0  0  0  0
   24.3122  -21.5720   -5.5117 C   0  0  1  0  0  0  0  0  0  0  0  0
   23.7754  -20.3939   -4.8489 C   0  0  0  0  0  0  0  0  0  0  0  0
   22.5557  -20.1704   -4.2885 O   0  0  0  0  0  0  0  0  0  0  0  0
   24.5886  -19.3932   -4.7836 O   0  0  0  0  0  0  0  0  0  0  0  0
  2  4  1  0
  2  1  1  6
  3  2  1  0
  4  5  1  6
  6  4  1  0
  6  7  2  0
  8  6  1  0
  9  8  1  0
  9 10  1  1
 11 10  1  0
 11 12  2  0
 13 12  1  0
 14 13  2  0
 15 16  2  0
 15 14  1  0
 16 11  1  0
 17 19  1  0
 17  9  1  0
 18 17  2  0
 19 20  1  0
 21 20  1  0
 22 23  1  0
 22 21  1  0
 23 19  1  0
 23 24  1  1
 25 24  1  0
 26 24  2  0
M  END
$$$$
