VFP.pdb
     RDKit          3D

 26 27  0  0  1  0  0  0  0  0999 V2000
    8.6268  -17.1088    4.8017 C   0  0  0  0  0  0  0  0  0  0  0  0
   10.0377  -17.0979    4.3137 C   0  0  1  0  0  0  0  0  0  0  0  0
   10.2123  -18.1678    3.2639 C   0  0  0  0  0  0  0  0  0  0  0  0
   10.4960  -15.7447    3.8212 C   0  0  2  0  0  0  0  0  0  0  0  0
    9.7352  -15.4228    2.6265 N   0  0  0  0  0  0  0  0  0  0  0  0
   11.9437  -15.8233    3.5006 C   0  0  0  0  0  0  0  0  0  0  0  0
   12.2674  -15.8482    2.2858 O   0  0  0  0  0  0  0  0  0  0  0  0
   12.9539  -15.8703    4.5312 N   0  0  0  0  0  0  0  0  0  0  0  0
   14.3193  -15.9147    4.1449 C   0  0  1  0  0  0  0  0  0  0  0  0
   14.9669  -14.6637    4.7196 C   0  0  0  0  0  0  0  0  0  0  0  0
   16.3513  -14.4490    4.3360 C   0  0  0  0  0  0  0  0  0  0  0  0
   16.7032  -13.3909    3.5318 C   0  0  0  0  0  0  0  0  0  0  0  0
   18.0093  -13.1495    3.1425 C   0  0  0  0  0  0  0  0  0  0  0  0
   19.0213  -13.9845    3.5607 C   0  0  0  0  0  0  0  0  0  0  0  0
   18.6907  -15.0470    4.3644 C   0  0  0  0  0  0  0  0  0  0  0  0
   17.3917  -15.2852    4.7502 C   0  0  0  0  0  0  0  0  0  0  0  0
   15.0757  -17.1308    4.3820 C   0  0  0  0  0  0  0  0  0  0  0  0
   15.2101  -17.4407    5.6171 O   0  0  0  0  0  0  0  0  0  0  0  0
   15.6807  -18.0147    3.4499 N   0  0  0  0  0  0  0  0  0  0  0  0
   15.4491  -17.8346    2.0075 C   0  0  0  0  0  0  0  0  0  0  0  0
   16.4865  -18.7160    1.3296 C   0  0  0  0  0  0  0  0  0  0  0  0
   17.4975  -19.0013    2.4146 C   0  0  0  0  0  0  0  0  0  0  0  0
   16.5141  -19.1397    3.6088 C   0  0  1  0  0  0  0  0  0  0  0  0
   17.2761  -19.3097    4.8360 C   0  0  0  0  0  0  0  0  0  0  0  0
   17.8041  -18.3882    5.6866 O   0  0  0  0  0  0  0  0  0  0  0  0
   17.4899  -20.5375    5.1733 O   0  0  0  0  0  0  0  0  0  0  0  0
  2  4  1  0
  2  1  1  6
  3  2  1  0
  4  5  1  6
  6  4  1  0
  6  7  2  0
  8  6  1  0
  9  8  1  0
  9 10  1  1
 11 10  1  0
 11 12  2  0
 13 12  1  0
 14 13  2  0
 15 16  2  0
 15 14  1  0
 16 11  1  0
 17 19  1  0
 17  9  1  0
 18 17  2  0
 19 20  1  0
 21 20  1  0
 22 23  1  0
 22 21  1  0
 23 19  1  0
 23 24  1  1
 25 24  1  0
 26 24  2  0
M  END
$$$$
