VFP.pdb
     RDKit          3D

 26 27  0  0  1  0  0  0  0  0999 V2000
   21.9926  -18.0053  -16.2137 C   0  0  0  0  0  0  0  0  0  0  0  0
   22.8834  -18.7709  -15.2921 C   0  0  1  0  0  0  0  0  0  0  0  0
   22.6620  -20.2496  -15.4959 C   0  0  0  0  0  0  0  0  0  0  0  0
   24.3427  -18.3974  -15.4140 C   0  0  2  0  0  0  0  0  0  0  0  0
   24.8004  -18.8070  -16.7303 N   0  0  0  0  0  0  0  0  0  0  0  0
   25.1044  -19.1154  -14.3609 C   0  0  0  0  0  0  0  0  0  0  0  0
   25.5160  -20.2724  -14.6307 O   0  0  0  0  0  0  0  0  0  0  0  0
   25.3711  -18.5229  -13.0715 N   0  0  0  0  0  0  0  0  0  0  0  0
   25.9906  -19.3179  -12.0716 C   0  0  1  0  0  0  0  0  0  0  0  0
   26.8862  -18.3810  -11.2748 C   0  0  0  0  0  0  0  0  0  0  0  0
   27.5333  -18.9751  -10.1181 C   0  0  0  0  0  0  0  0  0  0  0  0
   28.6494  -19.7648  -10.2637 C   0  0  0  0  0  0  0  0  0  0  0  0
   29.2967  -20.3499   -9.1895 C   0  0  0  0  0  0  0  0  0  0  0  0
   28.8293  -20.1530   -7.9092 C   0  0  0  0  0  0  0  0  0  0  0  0
   27.7159  -19.3676   -7.7423 C   0  0  0  0  0  0  0  0  0  0  0  0
   27.0739  -18.7868   -8.8117 C   0  0  0  0  0  0  0  0  0  0  0  0
   25.1623  -20.1810  -11.2493 C   0  0  0  0  0  0  0  0  0  0  0  0
   24.2619  -19.5687  -10.5755 O   0  0  0  0  0  0  0  0  0  0  0  0
   25.2085  -21.5909  -11.0877 N   0  0  0  0  0  0  0  0  0  0  0  0
   26.0098  -22.4117  -12.0102 C   0  0  0  0  0  0  0  0  0  0  0  0
   26.0912  -23.7792  -11.3500 C   0  0  0  0  0  0  0  0  0  0  0  0
   25.6960  -23.5232   -9.9152 C   0  0  0  0  0  0  0  0  0  0  0  0
   24.5892  -22.4641  -10.1715 C   0  0  1  0  0  0  0  0  0  0  0  0
   24.1117  -21.9558   -8.8951 C   0  0  0  0  0  0  0  0  0  0  0  0
   23.1045  -22.3889   -8.0891 O   0  0  0  0  0  0  0  0  0  0  0  0
   24.7456  -20.9209   -8.4545 O   0  0  0  0  0  0  0  0  0  0  0  0
  2  4  1  0
  2  1  1  6
  3  2  1  0
  4  5  1  6
  6  4  1  0
  6  7  2  0
  8  6  1  0
  9  8  1  0
  9 10  1  1
 11 10  1  0
 11 12  2  0
 13 12  1  0
 14 13  2  0
 15 16  2  0
 15 14  1  0
 16 11  1  0
 17 19  1  0
 17  9  1  0
 18 17  2  0
 19 20  1  0
 21 20  1  0
 22 23  1  0
 22 21  1  0
 23 19  1  0
 23 24  1  1
 25 24  1  0
 26 24  2  0
M  END
$$$$
