VFP.pdb
     RDKit          3D

 26 27  0  0  1  0  0  0  0  0999 V2000
   18.1199  -10.5747  -14.4356 C   0  0  0  0  0  0  0  0  0  0  0  0
   17.2976   -9.5247  -13.7646 C   0  0  1  0  0  0  0  0  0  0  0  0
   16.4038   -8.8618  -14.7839 C   0  0  0  0  0  0  0  0  0  0  0  0
   16.5155  -10.0371  -12.5774 C   0  0  2  0  0  0  0  0  0  0  0  0
   15.5502  -11.0076  -13.0634 N   0  0  0  0  0  0  0  0  0  0  0  0
   15.8151   -8.8922  -11.9424 C   0  0  0  0  0  0  0  0  0  0  0  0
   14.6720   -8.5994  -12.3768 O   0  0  0  0  0  0  0  0  0  0  0  0
   16.4087   -8.1335  -10.8669 N   0  0  0  0  0  0  0  0  0  0  0  0
   15.6517   -7.0913  -10.2699 C   0  0  1  0  0  0  0  0  0  0  0  0
   15.4317   -7.4991   -8.8207 C   0  0  0  0  0  0  0  0  0  0  0  0
   14.1715   -8.1681   -8.5485 C   0  0  0  0  0  0  0  0  0  0  0  0
   13.0430   -7.4457   -8.2402 C   0  0  0  0  0  0  0  0  0  0  0  0
   11.8228   -8.0423   -7.9741 C   0  0  0  0  0  0  0  0  0  0  0  0
   11.7002   -9.4134   -8.0115 C   0  0  0  0  0  0  0  0  0  0  0  0
   12.8155  -10.1529   -8.3175 C   0  0  0  0  0  0  0  0  0  0  0  0
   14.0276   -9.5578   -8.5817 C   0  0  0  0  0  0  0  0  0  0  0  0
   16.0964   -5.7193  -10.4340 C   0  0  0  0  0  0  0  0  0  0  0  0
   17.2126   -5.4510   -9.8666 O   0  0  0  0  0  0  0  0  0  0  0  0
   15.4768   -4.6453  -11.1258 N   0  0  0  0  0  0  0  0  0  0  0  0
   14.3177   -4.9015  -11.9961 C   0  0  0  0  0  0  0  0  0  0  0  0
   13.7332   -3.5280  -12.2870 C   0  0  0  0  0  0  0  0  0  0  0  0
   14.3389   -2.6352  -11.2303 C   0  0  0  0  0  0  0  0  0  0  0  0
   15.7576   -3.2659  -11.1880 C   0  0  1  0  0  0  0  0  0  0  0  0
   16.5281   -2.6345  -10.1282 C   0  0  0  0  0  0  0  0  0  0  0  0
   17.3012   -1.5148  -10.1406 O   0  0  0  0  0  0  0  0  0  0  0  0
   16.4723   -3.2366   -8.9875 O   0  0  0  0  0  0  0  0  0  0  0  0
  2  4  1  0
  2  1  1  6
  3  2  1  0
  4  5  1  6
  6  4  1  0
  6  7  2  0
  8  6  1  0
  9  8  1  0
  9 10  1  1
 11 10  1  0
 11 12  2  0
 13 12  1  0
 14 13  2  0
 15 16  2  0
 15 14  1  0
 16 11  1  0
 17 19  1  0
 17  9  1  0
 18 17  2  0
 19 20  1  0
 21 20  1  0
 22 23  1  0
 22 21  1  0
 23 19  1  0
 23 24  1  1
 25 24  1  0
 26 24  2  0
M  END
$$$$
