HPP.pdb
     RDKit          3D

 25 27  0  0  1  0  0  0  0  0999 V2000
   11.3012  -17.1575   20.0324 N   0  0  0  0  0  0  0  0  0  0  0  0
   10.0384  -16.9871   20.6501 C   0  0  1  0  0  0  0  0  0  0  0  0
    9.6627  -18.3187   21.3210 C   0  0  0  0  0  0  0  0  0  0  0  0
    8.2949  -18.7387   20.8947 C   0  0  0  0  0  0  0  0  0  0  0  0
    7.1313  -18.0087   20.8657 C   0  0  0  0  0  0  0  0  0  0  0  0
    6.1368  -18.7727   20.4165 N   0  0  0  0  0  0  0  0  0  0  0  0
    6.6447  -19.9842   20.1564 C   0  0  0  0  0  0  0  0  0  0  0  0
    7.9585  -19.9763   20.4439 N   0  0  0  0  0  0  0  0  0  0  0  0
    9.8680  -15.8581   21.5472 C   0  0  0  0  0  0  0  0  0  0  0  0
   10.9001  -15.5313   22.2324 O   0  0  0  0  0  0  0  0  0  0  0  0
    8.7085  -15.0728   21.7634 N   0  0  0  0  0  0  0  0  0  0  0  0
    7.5408  -15.0693   20.9293 C   0  0  0  0  0  0  0  0  0  0  0  0
    6.8909  -13.7457   21.1695 C   0  0  0  0  0  0  0  0  0  0  0  0
    7.8921  -12.9641   22.0423 C   0  0  0  0  0  0  0  0  0  0  0  0
    8.4440  -14.1357   22.8380 C   0  0  1  0  0  0  0  0  0  0  0  0
    7.5510  -14.6448   23.8583 C   0  0  0  0  0  0  0  0  0  0  0  0
    6.8602  -15.6685   23.6316 O   0  0  0  0  0  0  0  0  0  0  0  0
    7.4323  -14.0231   25.1099 N   0  0  0  0  0  0  0  0  0  0  0  0
    6.8802  -12.6826   25.3162 C   0  0  0  0  0  0  0  0  0  0  0  0
    7.5927  -12.1404   26.5090 C   0  0  0  0  0  0  0  0  0  0  0  0
    8.4491  -13.2583   27.0062 C   0  0  0  0  0  0  0  0  0  0  0  0
    7.8067  -14.5000   26.4329 C   0  0  1  0  0  0  0  0  0  0  0  0
    6.6110  -14.7993   27.2700 C   0  0  0  0  0  0  0  0  0  0  0  0
    5.4951  -14.4127   26.8499 O   0  0  0  0  0  0  0  0  0  0  0  0
    6.6870  -15.4743   28.4689 O   0  0  0  0  0  0  0  0  0  0  0  0
  2  1  1  1
  3  2  1  0
  4  3  1  0
  5  4  2  0
  6  5  1  0
  7  6  1  0
  7  8  2  0
  8  4  1  0
  9  2  1  0
  9 11  1  0
 10  9  2  0
 11 15  1  0
 12 11  1  0
 12 13  1  0
 13 14  1  0
 15 14  1  0
 15 16  1  1
 16 17  2  0
 18 22  1  0
 18 16  1  0
 19 18  1  0
 20 19  1  0
 20 21  1  0
 21 22  1  0
 23 25  1  0
 22 23  1  1
 24 23  2  0
M  END
$$$$
