HPP.pdb
     RDKit          3D

 25 27  0  0  1  0  0  0  0  0999 V2000
    9.5170  -16.6017   21.2821 N   0  0  0  0  0  0  0  0  0  0  0  0
    9.0696  -15.3485   21.7664 C   0  0  1  0  0  0  0  0  0  0  0  0
    7.5847  -15.2063   21.3933 C   0  0  0  0  0  0  0  0  0  0  0  0
    7.4365  -14.2922   20.2221 C   0  0  0  0  0  0  0  0  0  0  0  0
    7.6226  -12.9327   20.1519 C   0  0  0  0  0  0  0  0  0  0  0  0
    7.3820  -12.5134   18.9106 N   0  0  0  0  0  0  0  0  0  0  0  0
    7.0434  -13.5844   18.1815 C   0  0  0  0  0  0  0  0  0  0  0  0
    7.0727  -14.6742   18.9692 N   0  0  0  0  0  0  0  0  0  0  0  0
    9.3128  -15.0339   23.1629 C   0  0  0  0  0  0  0  0  0  0  0  0
   10.5190  -15.1887   23.5662 O   0  0  0  0  0  0  0  0  0  0  0  0
    8.3890  -14.5796   24.1367 N   0  0  0  0  0  0  0  0  0  0  0  0
    6.9617  -14.5740   23.9881 C   0  0  0  0  0  0  0  0  0  0  0  0
    6.4734  -13.5203   24.9279 C   0  0  0  0  0  0  0  0  0  0  0  0
    7.7492  -12.8297   25.4479 C   0  0  0  0  0  0  0  0  0  0  0  0
    8.6631  -14.0442   25.4562 C   0  0  1  0  0  0  0  0  0  0  0  0
    8.4140  -14.9780   26.5351 C   0  0  0  0  0  0  0  0  0  0  0  0
    7.4479  -15.7766   26.4613 O   0  0  0  0  0  0  0  0  0  0  0  0
    9.2298  -15.0205   27.6751 N   0  0  0  0  0  0  0  0  0  0  0  0
    8.9461  -14.3033   28.9198 C   0  0  0  0  0  0  0  0  0  0  0  0
   10.2800  -13.9885   29.5081 C   0  0  0  0  0  0  0  0  0  0  0  0
   11.2775  -14.6523   28.6167 C   0  0  0  0  0  0  0  0  0  0  0  0
   10.4834  -15.7231   27.9053 C   0  0  1  0  0  0  0  0  0  0  0  0
   10.3152  -16.8514   28.8639 C   0  0  0  0  0  0  0  0  0  0  0  0
    9.1889  -17.0022   29.3931 O   0  0  0  0  0  0  0  0  0  0  0  0
   11.3361  -17.7199   29.1836 O   0  0  0  0  0  0  0  0  0  0  0  0
  2  1  1  1
  3  2  1  0
  4  3  1  0
  5  4  2  0
  6  5  1  0
  7  6  1  0
  7  8  2  0
  8  4  1  0
  9  2  1  0
  9 11  1  0
 10  9  2  0
 11 15  1  0
 12 11  1  0
 12 13  1  0
 13 14  1  0
 15 14  1  0
 15 16  1  1
 16 17  2  0
 18 22  1  0
 18 16  1  0
 19 18  1  0
 20 19  1  0
 20 21  1  0
 21 22  1  0
 23 25  1  0
 22 23  1  1
 24 23  2  0
M  END
$$$$
