HPP.pdb
     RDKit          3D

 25 27  0  0  1  0  0  0  0  0999 V2000
   11.6430  -16.1005   19.6334 N   0  0  0  0  0  0  0  0  0  0  0  0
   10.4448  -16.4418   20.3065 C   0  0  1  0  0  0  0  0  0  0  0  0
   10.5913  -17.8838   20.8197 C   0  0  0  0  0  0  0  0  0  0  0  0
   10.6040  -18.8372   19.6708 C   0  0  0  0  0  0  0  0  0  0  0  0
    9.5793  -19.5975   19.1612 C   0  0  0  0  0  0  0  0  0  0  0  0
   10.0254  -20.3129   18.1298 N   0  0  0  0  0  0  0  0  0  0  0  0
   11.3229  -20.0233   17.9691 C   0  0  0  0  0  0  0  0  0  0  0  0
   11.6874  -19.1256   18.9019 N   0  0  0  0  0  0  0  0  0  0  0  0
    9.9668  -15.5415   21.3407 C   0  0  0  0  0  0  0  0  0  0  0  0
   10.8733  -14.9307   22.0091 O   0  0  0  0  0  0  0  0  0  0  0  0
    8.6287  -15.2526   21.7066 N   0  0  0  0  0  0  0  0  0  0  0  0
    7.4604  -15.8242   21.1003 C   0  0  0  0  0  0  0  0  0  0  0  0
    6.3642  -14.8424   21.3583 C   0  0  0  0  0  0  0  0  0  0  0  0
    7.0655  -13.6171   21.9761 C   0  0  0  0  0  0  0  0  0  0  0  0
    8.1527  -14.3545   22.7408 C   0  0  1  0  0  0  0  0  0  0  0  0
    7.6958  -15.0255   23.9404 C   0  0  0  0  0  0  0  0  0  0  0  0
    7.5231  -16.2692   23.9348 O   0  0  0  0  0  0  0  0  0  0  0  0
    7.4377  -14.3210   25.1253 N   0  0  0  0  0  0  0  0  0  0  0  0
    6.4247  -13.2720   25.2575 C   0  0  0  0  0  0  0  0  0  0  0  0
    6.9564  -12.3360   26.2898 C   0  0  0  0  0  0  0  0  0  0  0  0
    8.2145  -12.9655   26.7910 C   0  0  0  0  0  0  0  0  0  0  0  0
    8.0652  -14.4262   26.4342 C   0  0  1  0  0  0  0  0  0  0  0  0
    7.1457  -15.0295   27.4396 C   0  0  0  0  0  0  0  0  0  0  0  0
    7.6171  -15.3044   28.5680 O   0  0  0  0  0  0  0  0  0  0  0  0
    5.8184  -15.2912   27.1775 O   0  0  0  0  0  0  0  0  0  0  0  0
  2  1  1  1
  3  2  1  0
  4  3  1  0
  5  4  2  0
  6  5  1  0
  7  6  1  0
  7  8  2  0
  8  4  1  0
  9  2  1  0
  9 11  1  0
 10  9  2  0
 11 15  1  0
 12 11  1  0
 12 13  1  0
 13 14  1  0
 15 14  1  0
 15 16  1  1
 16 17  2  0
 18 22  1  0
 18 16  1  0
 19 18  1  0
 20 19  1  0
 20 21  1  0
 21 22  1  0
 23 25  1  0
 22 23  1  1
 24 23  2  0
M  END
$$$$
