HPP.pdb
     RDKit          3D

 25 27  0  0  1  0  0  0  0  0999 V2000
    8.4105  -14.8773   20.8638 N   0  0  0  0  0  0  0  0  0  0  0  0
    7.6313  -14.5053   21.9863 C   0  0  1  0  0  0  0  0  0  0  0  0
    6.4812  -15.5179   22.1132 C   0  0  0  0  0  0  0  0  0  0  0  0
    7.0224  -16.8673   22.4532 C   0  0  0  0  0  0  0  0  0  0  0  0
    8.3292  -17.2778   22.5598 C   0  0  0  0  0  0  0  0  0  0  0  0
    8.3657  -18.5697   22.8824 N   0  0  0  0  0  0  0  0  0  0  0  0
    7.1004  -18.9959   22.9847 C   0  0  0  0  0  0  0  0  0  0  0  0
    6.2726  -17.9681   22.7253 N   0  0  0  0  0  0  0  0  0  0  0  0
    8.3162  -14.2978   23.2497 C   0  0  0  0  0  0  0  0  0  0  0  0
    9.5944  -14.3765   23.2092 O   0  0  0  0  0  0  0  0  0  0  0  0
    7.7540  -14.0212   24.5207 N   0  0  0  0  0  0  0  0  0  0  0  0
    6.3503  -13.9459   24.8089 C   0  0  0  0  0  0  0  0  0  0  0  0
    6.2453  -13.0877   26.0273 C   0  0  0  0  0  0  0  0  0  0  0  0
    7.6712  -12.5510   26.2592 C   0  0  0  0  0  0  0  0  0  0  0  0
    8.4408  -13.7679   25.7725 C   0  0  1  0  0  0  0  0  0  0  0  0
    8.4331  -14.8909   26.6873 C   0  0  0  0  0  0  0  0  0  0  0  0
    7.5790  -15.8014   26.5536 O   0  0  0  0  0  0  0  0  0  0  0  0
    9.3632  -14.9961   27.7318 N   0  0  0  0  0  0  0  0  0  0  0  0
    9.3080  -14.2129   28.9677 C   0  0  0  0  0  0  0  0  0  0  0  0
   10.7276  -14.0422   29.3919 C   0  0  0  0  0  0  0  0  0  0  0  0
   11.5336  -14.8471   28.4261 C   0  0  0  0  0  0  0  0  0  0  0  0
   10.5454  -15.8362   27.8533 C   0  0  1  0  0  0  0  0  0  0  0  0
   10.3586  -16.9069   28.8726 C   0  0  0  0  0  0  0  0  0  0  0  0
    9.3524  -16.8327   29.6166 O   0  0  0  0  0  0  0  0  0  0  0  0
   11.2373  -17.9575   29.0238 O   0  0  0  0  0  0  0  0  0  0  0  0
  2  1  1  6
  3  2  1  0
  4  3  1  0
  5  4  2  0
  6  5  1  0
  7  6  1  0
  7  8  2  0
  8  4  1  0
  9  2  1  0
  9 11  1  0
 10  9  2  0
 11 15  1  0
 12 11  1  0
 12 13  1  0
 13 14  1  0
 15 14  1  0
 15 16  1  1
 16 17  2  0
 18 22  1  0
 18 16  1  0
 19 18  1  0
 20 19  1  0
 20 21  1  0
 21 22  1  0
 23 25  1  0
 22 23  1  1
 24 23  2  0
M  END
$$$$
