HPP.pdb
     RDKit          3D

 25 27  0  0  1  0  0  0  0  0999 V2000
   10.0776  -16.9565   19.5138 N   0  0  0  0  0  0  0  0  0  0  0  0
    9.8642  -17.3095   20.8685 C   0  0  1  0  0  0  0  0  0  0  0  0
   11.2160  -17.7479   21.4558 C   0  0  0  0  0  0  0  0  0  0  0  0
   11.7796  -18.8761   20.6566 C   0  0  0  0  0  0  0  0  0  0  0  0
   11.5242  -20.2225   20.7539 C   0  0  0  0  0  0  0  0  0  0  0  0
   12.2447  -20.8796   19.8463 N   0  0  0  0  0  0  0  0  0  0  0  0
   12.9602  -19.9743   19.1667 C   0  0  0  0  0  0  0  0  0  0  0  0
   12.6858  -18.7500   19.6511 N   0  0  0  0  0  0  0  0  0  0  0  0
    9.1851  -16.3505   21.7214 C   0  0  0  0  0  0  0  0  0  0  0  0
    9.4283  -15.1170   21.4752 O   0  0  0  0  0  0  0  0  0  0  0  0
    8.2901  -16.6026   22.7907 N   0  0  0  0  0  0  0  0  0  0  0  0
    7.8758  -17.9017   23.2378 C   0  0  0  0  0  0  0  0  0  0  0  0
    6.5623  -17.6831   23.9153 C   0  0  0  0  0  0  0  0  0  0  0  0
    6.2095  -16.2099   23.6320 C   0  0  0  0  0  0  0  0  0  0  0  0
    7.6201  -15.6441   23.6481 C   0  0  1  0  0  0  0  0  0  0  0  0
    8.2052  -15.5227   24.9675 C   0  0  0  0  0  0  0  0  0  0  0  0
    9.1176  -16.3090   25.3223 O   0  0  0  0  0  0  0  0  0  0  0  0
    7.7806  -14.5403   25.8739 N   0  0  0  0  0  0  0  0  0  0  0  0
    6.3887  -14.1167   26.0392 C   0  0  0  0  0  0  0  0  0  0  0  0
    6.4567  -12.6823   26.4420 C   0  0  0  0  0  0  0  0  0  0  0  0
    7.9103  -12.3802   26.6034 C   0  0  0  0  0  0  0  0  0  0  0  0
    8.5489  -13.7339   26.8105 C   0  0  1  0  0  0  0  0  0  0  0  0
    8.2863  -14.1291   28.2230 C   0  0  0  0  0  0  0  0  0  0  0  0
    9.0307  -13.6484   29.1096 O   0  0  0  0  0  0  0  0  0  0  0  0
    7.2716  -14.9891   28.5830 O   0  0  0  0  0  0  0  0  0  0  0  0
  2  1  1  6
  3  2  1  0
  4  3  1  0
  5  4  2  0
  6  5  1  0
  7  6  1  0
  7  8  2  0
  8  4  1  0
  9  2  1  0
  9 11  1  0
 10  9  2  0
 11 15  1  0
 12 11  1  0
 12 13  1  0
 13 14  1  0
 15 14  1  0
 15 16  1  1
 16 17  2  0
 18 22  1  0
 18 16  1  0
 19 18  1  0
 20 19  1  0
 20 21  1  0
 21 22  1  0
 23 25  1  0
 22 23  1  1
 24 23  2  0
M  END
$$$$
