YYN.pdb
     RDKit          3D

 33 34  0  0  1  0  0  0  0  0999 V2000
   17.0425  -16.6320  -19.0236 O   0  0  0  0  0  0  0  0  0  0  0  0
   17.6525  -15.4889  -18.5507 C   0  0  0  0  0  0  0  0  0  0  0  0
   18.6258  -14.8842  -19.3368 C   0  0  0  0  0  0  0  0  0  0  0  0
   19.2494  -13.7275  -18.8681 C   0  0  0  0  0  0  0  0  0  0  0  0
   18.9043  -13.2033  -17.6557 C   0  0  0  0  0  0  0  0  0  0  0  0
   19.5749  -11.9733  -17.1683 C   0  0  0  0  0  0  0  0  0  0  0  0
   20.9908  -12.2557  -16.7029 C   0  0  2  0  0  0  0  0  0  0  0  0
   21.0144  -13.2621  -15.6852 N   0  0  0  0  0  0  0  0  0  0  0  0
   21.5766  -10.9657  -16.2610 C   0  0  0  0  0  0  0  0  0  0  0  0
   21.3493  -10.5970  -15.0821 O   0  0  0  0  0  0  0  0  0  0  0  0
   17.9233  -13.8291  -16.8838 C   0  0  0  0  0  0  0  0  0  0  0  0
   17.2963  -14.9677  -17.3244 C   0  0  0  0  0  0  0  0  0  0  0  0
   27.9782  -12.6587  -15.8283 O   0  0  0  0  0  0  0  0  0  0  0  0
   27.0672  -11.6682  -16.1724 C   0  0  0  0  0  0  0  0  0  0  0  0
   26.2545  -11.7887  -17.2744 C   0  0  0  0  0  0  0  0  0  0  0  0
   25.3480  -10.7933  -17.6089 C   0  0  0  0  0  0  0  0  0  0  0  0
   25.2298   -9.6448  -16.8456 C   0  0  0  0  0  0  0  0  0  0  0  0
   24.2407   -8.6043  -17.2460 C   0  0  0  0  0  0  0  0  0  0  0  0
   22.8823   -8.9241  -16.6614 C   0  0  2  0  0  0  0  0  0  0  0  0
   22.3635  -10.1717  -17.1257 N   0  0  0  0  0  0  0  0  0  0  0  0
   21.9634   -7.8009  -17.0618 C   0  0  0  0  0  0  0  0  0  0  0  0
   21.2856   -7.8336  -18.1150 O   0  0  0  0  0  0  0  0  0  0  0  0
   26.0377   -9.5219  -15.7477 C   0  0  0  0  0  0  0  0  0  0  0  0
   26.9459  -10.5183  -15.4120 C   0  0  0  0  0  0  0  0  0  0  0  0
   19.2406   -3.5577  -15.9473 N   0  0  0  0  0  0  0  0  0  0  0  0
   18.6957   -4.8080  -16.3888 C   0  0  0  0  0  0  0  0  0  0  0  0
   17.4348   -4.8786  -16.4554 O   0  0  0  0  0  0  0  0  0  0  0  0
   19.6054   -5.9251  -16.7359 C   0  0  0  0  0  0  0  0  0  0  0  0
   21.0173   -5.5419  -16.4626 C   0  0  2  0  0  0  0  0  0  0  0  0
   21.8721   -6.6876  -16.2202 N   0  0  0  0  0  0  0  0  0  0  0  0
   21.1778   -4.5677  -15.3628 C   0  0  0  0  0  0  0  0  0  0  0  0
   20.6362   -3.4360  -15.3264 O   0  0  0  0  0  0  0  0  0  0  0  0
   21.9927   -4.9336  -14.2834 O   0  0  0  0  0  0  0  0  0  0  0  0
  2  3  2  0
  2  1  1  0
  4  3  1  0
  5  4  2  0
  6  5  1  0
  7  6  1  0
  7  8  1  1
  9  7  1  0
  9 10  2  0
 11  5  1  0
 11 12  2  0
 12  2  1  0
 13 14  1  0
 14 24  2  0
 15 16  2  0
 15 14  1  0
 16 17  1  0
 17 23  2  0
 17 18  1  0
 19 20  1  0
 19 18  1  6
 20  9  1  0
 21 19  1  0
 22 21  2  0
 24 23  1  0
 25 26  1  0
 26 28  1  0
 27 26  2  0
 29 28  1  1
 29 30  1  0
 30 21  1  0
 31 29  1  0
 31 33  1  0
 32 31  2  0
M  END
$$$$
