YYN.pdb
     RDKit          3D

 33 34  0  0  1  0  0  0  0  0999 V2000
   23.0622  -30.8300  -17.7451 O   0  0  0  0  0  0  0  0  0  0  0  0
   23.3473  -29.5625  -17.2820 C   0  0  0  0  0  0  0  0  0  0  0  0
   23.0228  -28.4756  -18.0847 C   0  0  0  0  0  0  0  0  0  0  0  0
   23.3068  -27.1890  -17.6260 C   0  0  0  0  0  0  0  0  0  0  0  0
   23.8941  -27.0076  -16.4070 C   0  0  0  0  0  0  0  0  0  0  0  0
   24.1913  -25.6347  -15.9307 C   0  0  0  0  0  0  0  0  0  0  0  0
   25.4053  -25.0514  -16.6288 C   0  0  2  0  0  0  0  0  0  0  0  0
   26.6035  -25.7384  -16.2526 N   0  0  0  0  0  0  0  0  0  0  0  0
   25.4416  -23.6013  -16.3151 C   0  0  0  0  0  0  0  0  0  0  0  0
   25.9722  -23.2537  -15.2310 O   0  0  0  0  0  0  0  0  0  0  0  0
   24.2108  -28.1156  -15.6183 C   0  0  0  0  0  0  0  0  0  0  0  0
   23.9408  -29.3905  -16.0489 C   0  0  0  0  0  0  0  0  0  0  0  0
   26.2146  -15.0156  -16.3179 O   0  0  0  0  0  0  0  0  0  0  0  0
   26.0952  -16.3421  -16.7125 C   0  0  0  0  0  0  0  0  0  0  0  0
   24.9819  -16.7981  -17.3773 C   0  0  0  0  0  0  0  0  0  0  0  0
   24.8730  -18.1250  -17.7669 C   0  0  0  0  0  0  0  0  0  0  0  0
   25.8805  -19.0358  -17.5003 C   0  0  0  0  0  0  0  0  0  0  0  0
   25.7166  -20.4505  -17.9396 C   0  0  0  0  0  0  0  0  0  0  0  0
   25.0036  -21.2491  -16.8704 C   0  0  2  0  0  0  0  0  0  0  0  0
   24.9023  -22.6366  -17.1958 N   0  0  0  0  0  0  0  0  0  0  0  0
   23.6300  -20.6502  -16.7265 C   0  0  0  0  0  0  0  0  0  0  0  0
   22.7262  -20.8366  -17.5741 O   0  0  0  0  0  0  0  0  0  0  0  0
   26.9903  -18.5847  -16.8384 C   0  0  0  0  0  0  0  0  0  0  0  0
   27.1001  -17.2559  -16.4479 C   0  0  0  0  0  0  0  0  0  0  0  0
   19.5930  -19.2987  -13.0060 N   0  0  0  0  0  0  0  0  0  0  0  0
   20.5858  -18.4219  -13.5544 C   0  0  0  0  0  0  0  0  0  0  0  0
   20.2251  -17.2287  -13.7675 O   0  0  0  0  0  0  0  0  0  0  0  0
   21.9461  -18.9371  -13.8376 C   0  0  0  0  0  0  0  0  0  0  0  0
   22.0667  -19.3072  -15.2740 C   0  0  2  0  0  0  0  0  0  0  0  0
   23.3659  -19.8601  -15.6032 N   0  0  0  0  0  0  0  0  0  0  0  0
   21.7486  -18.2089  -16.2106 C   0  0  0  0  0  0  0  0  0  0  0  0
   22.5657  -17.3354  -16.5910 O   0  0  0  0  0  0  0  0  0  0  0  0
   20.4413  -18.1378  -16.7098 O   0  0  0  0  0  0  0  0  0  0  0  0
  2  3  2  0
  2  1  1  0
  4  3  1  0
  5  4  2  0
  6  5  1  0
  7  6  1  0
  7  8  1  1
  9  7  1  0
  9 10  2  0
 11  5  1  0
 11 12  2  0
 12  2  1  0
 13 14  1  0
 14 24  2  0
 15 16  2  0
 15 14  1  0
 16 17  1  0
 17 23  2  0
 17 18  1  0
 19 20  1  0
 19 18  1  6
 20  9  1  0
 21 19  1  0
 22 21  2  0
 24 23  1  0
 25 26  1  0
 26 28  1  0
 27 26  2  0
 29 28  1  1
 29 30  1  0
 30 21  1  0
 31 29  1  0
 31 33  1  0
 32 31  2  0
M  END
$$$$
