YYN.pdb
     RDKit          3D

 33 34  0  0  1  0  0  0  0  0999 V2000
    8.2314  -10.1074   -8.0431 O   0  0  0  0  0  0  0  0  0  0  0  0
    9.4781   -9.7050   -8.4748 C   0  0  0  0  0  0  0  0  0  0  0  0
    9.7411   -9.7138   -9.8392 C   0  0  0  0  0  0  0  0  0  0  0  0
   10.9989   -9.3088  -10.2868 C   0  0  0  0  0  0  0  0  0  0  0  0
   11.9516   -8.9114   -9.3934 C   0  0  0  0  0  0  0  0  0  0  0  0
   13.2851   -8.4834   -9.8818 C   0  0  0  0  0  0  0  0  0  0  0  0
   14.0572   -9.6411  -10.4857 C   0  0  2  0  0  0  0  0  0  0  0  0
   14.2952  -10.6700   -9.5193 N   0  0  0  0  0  0  0  0  0  0  0  0
   15.3054   -9.0858  -11.0655 C   0  0  0  0  0  0  0  0  0  0  0  0
   16.2659   -8.8745  -10.2844 O   0  0  0  0  0  0  0  0  0  0  0  0
   11.6635   -8.9112   -8.0270 C   0  0  0  0  0  0  0  0  0  0  0  0
   10.4333   -9.3055   -7.5636 C   0  0  0  0  0  0  0  0  0  0  0  0
   22.2519   -6.8894  -15.6458 O   0  0  0  0  0  0  0  0  0  0  0  0
   21.0481   -7.4457  -15.2324 C   0  0  0  0  0  0  0  0  0  0  0  0
   20.9589   -8.1986  -14.0858 C   0  0  0  0  0  0  0  0  0  0  0  0
   19.7515   -8.7495  -13.6821 C   0  0  0  0  0  0  0  0  0  0  0  0
   18.5950   -8.5607  -14.4187 C   0  0  0  0  0  0  0  0  0  0  0  0
   17.3220   -9.1729  -13.9431 C   0  0  0  0  0  0  0  0  0  0  0  0
   16.6404   -8.2547  -12.9524 C   0  0  2  0  0  0  0  0  0  0  0  0
   15.4216   -8.8008  -12.4448 N   0  0  0  0  0  0  0  0  0  0  0  0
   16.3666   -6.9635  -13.6763 C   0  0  0  0  0  0  0  0  0  0  0  0
   15.4762   -6.8628  -14.5520 O   0  0  0  0  0  0  0  0  0  0  0  0
   18.6806   -7.8115  -15.5609 C   0  0  0  0  0  0  0  0  0  0  0  0
   19.8896   -7.2595  -15.9660 C   0  0  0  0  0  0  0  0  0  0  0  0
   16.8399   -2.1288  -15.2027 N   0  0  0  0  0  0  0  0  0  0  0  0
   16.4922   -2.1892  -13.8133 C   0  0  0  0  0  0  0  0  0  0  0  0
   16.0881   -1.1119  -13.2884 O   0  0  0  0  0  0  0  0  0  0  0  0
   16.6181   -3.4700  -13.0787 C   0  0  0  0  0  0  0  0  0  0  0  0
   17.0370   -4.5555  -14.0065 C   0  0  2  0  0  0  0  0  0  0  0  0
   17.1398   -5.8446  -13.3509 N   0  0  0  0  0  0  0  0  0  0  0  0
   18.2899   -4.2755  -14.7389 C   0  0  0  0  0  0  0  0  0  0  0  0
   19.4087   -4.0978  -14.1984 O   0  0  0  0  0  0  0  0  0  0  0  0
   18.2242   -4.2033  -16.1366 O   0  0  0  0  0  0  0  0  0  0  0  0
  2  3  2  0
  2  1  1  0
  4  3  1  0
  5  4  2  0
  6  5  1  0
  7  6  1  0
  7  8  1  1
  9  7  1  0
  9 10  2  0
 11  5  1  0
 11 12  2  0
 12  2  1  0
 13 14  1  0
 14 24  2  0
 15 16  2  0
 15 14  1  0
 16 17  1  0
 17 23  2  0
 17 18  1  0
 19 20  1  0
 19 18  1  6
 20  9  1  0
 21 19  1  0
 22 21  2  0
 24 23  1  0
 25 26  1  0
 26 28  1  0
 27 26  2  0
 29 28  1  1
 29 30  1  0
 30 21  1  0
 31 29  1  0
 31 33  1  0
 32 31  2  0
M  END
$$$$
