YYN.pdb
     RDKit          3D

 33 34  0  0  1  0  0  0  0  0999 V2000
   31.3060  -30.8284  -19.1663 O   0  0  0  0  0  0  0  0  0  0  0  0
   30.3264  -29.9606  -18.7308 C   0  0  0  0  0  0  0  0  0  0  0  0
   30.2243  -29.7072  -17.3684 C   0  0  0  0  0  0  0  0  0  0  0  0
   29.2369  -28.8310  -16.9169 C   0  0  0  0  0  0  0  0  0  0  0  0
   28.3879  -28.2355  -17.8047 C   0  0  0  0  0  0  0  0  0  0  0  0
   27.3420  -27.3061  -17.3122 C   0  0  0  0  0  0  0  0  0  0  0  0
   27.7150  -25.8583  -17.5690 C   0  0  2  0  0  0  0  0  0  0  0  0
   28.7504  -25.4212  -16.6824 N   0  0  0  0  0  0  0  0  0  0  0  0
   26.4724  -25.0547  -17.4556 C   0  0  0  0  0  0  0  0  0  0  0  0
   26.2558  -24.4691  -16.3658 O   0  0  0  0  0  0  0  0  0  0  0  0
   28.5102  -28.5059  -19.1692 C   0  0  0  0  0  0  0  0  0  0  0  0
   29.4739  -29.3643  -19.6363 C   0  0  0  0  0  0  0  0  0  0  0  0
   19.6791  -19.8748  -18.9987 O   0  0  0  0  0  0  0  0  0  0  0  0
   20.6876  -20.8131  -19.1783 C   0  0  0  0  0  0  0  0  0  0  0  0
   22.0047  -20.4398  -19.3020 C   0  0  0  0  0  0  0  0  0  0  0  0
   23.0039  -21.3852  -19.4810 C   0  0  0  0  0  0  0  0  0  0  0  0
   22.7104  -22.7365  -19.5411 C   0  0  0  0  0  0  0  0  0  0  0  0
   23.8193  -23.7135  -19.7343 C   0  0  0  0  0  0  0  0  0  0  0  0
   24.4177  -24.0937  -18.3976 C   0  0  2  0  0  0  0  0  0  0  0  0
   25.5581  -24.9444  -18.5275 N   0  0  0  0  0  0  0  0  0  0  0  0
   23.3347  -24.7956  -17.6225 C   0  0  0  0  0  0  0  0  0  0  0  0
   23.1637  -26.0353  -17.6837 O   0  0  0  0  0  0  0  0  0  0  0  0
   21.3998  -23.1113  -19.4182 C   0  0  0  0  0  0  0  0  0  0  0  0
   20.3984  -22.1650  -19.2390 C   0  0  0  0  0  0  0  0  0  0  0  0
   19.7186  -25.5881  -14.1295 N   0  0  0  0  0  0  0  0  0  0  0  0
   21.0775  -26.0192  -13.9796 C   0  0  0  0  0  0  0  0  0  0  0  0
   21.2972  -26.8813  -13.0809 O   0  0  0  0  0  0  0  0  0  0  0  0
   22.1295  -25.4531  -14.8565 C   0  0  0  0  0  0  0  0  0  0  0  0
   21.5190  -24.5704  -15.8875 C   0  0  2  0  0  0  0  0  0  0  0  0
   22.4969  -24.0258  -16.8092 N   0  0  0  0  0  0  0  0  0  0  0  0
   20.6995  -23.4716  -15.3349 C   0  0  0  0  0  0  0  0  0  0  0  0
   20.9306  -22.2504  -15.5101 O   0  0  0  0  0  0  0  0  0  0  0  0
   19.5846  -23.8178  -14.5602 O   0  0  0  0  0  0  0  0  0  0  0  0
  2  3  2  0
  2  1  1  0
  4  3  1  0
  5  4  2  0
  6  5  1  0
  7  6  1  0
  7  8  1  1
  9  7  1  0
  9 10  2  0
 11  5  1  0
 11 12  2  0
 12  2  1  0
 13 14  1  0
 14 24  2  0
 15 16  2  0
 15 14  1  0
 16 17  1  0
 17 23  2  0
 17 18  1  0
 19 20  1  0
 19 18  1  6
 20  9  1  0
 21 19  1  0
 22 21  2  0
 24 23  1  0
 25 26  1  0
 26 28  1  0
 27 26  2  0
 29 28  1  1
 29 30  1  0
 30 21  1  0
 31 29  1  0
 31 33  1  0
 32 31  2  0
M  END
$$$$
