YYN.pdb
     RDKit          3D

 33 34  0  0  1  0  0  0  0  0999 V2000
   22.6895  -12.4473  -25.0657 O   0  0  0  0  0  0  0  0  0  0  0  0
   22.4796  -11.8921  -23.8207 C   0  0  0  0  0  0  0  0  0  0  0  0
   21.3165  -12.2223  -23.1359 C   0  0  0  0  0  0  0  0  0  0  0  0
   21.0940  -11.6663  -21.8758 C   0  0  0  0  0  0  0  0  0  0  0  0
   22.0085  -10.8122  -21.3299 C   0  0  0  0  0  0  0  0  0  0  0  0
   21.7603  -10.2274  -19.9896 C   0  0  0  0  0  0  0  0  0  0  0  0
   22.8634  -10.5841  -19.0112 C   0  0  2  0  0  0  0  0  0  0  0  0
   22.9152  -11.9950  -18.7751 N   0  0  0  0  0  0  0  0  0  0  0  0
   22.6315   -9.7944  -17.7762 C   0  0  0  0  0  0  0  0  0  0  0  0
   21.9009  -10.3020  -16.8896 O   0  0  0  0  0  0  0  0  0  0  0  0
   23.1700  -10.4955  -22.0374 C   0  0  0  0  0  0  0  0  0  0  0  0
   23.4101  -11.0303  -23.2784 C   0  0  0  0  0  0  0  0  0  0  0  0
   28.0364  -11.6760  -15.7440 O   0  0  0  0  0  0  0  0  0  0  0  0
   27.1223  -10.6301  -15.7339 C   0  0  0  0  0  0  0  0  0  0  0  0
   27.0643   -9.7146  -16.7575 C   0  0  0  0  0  0  0  0  0  0  0  0
   26.1474   -8.6738  -16.7374 C   0  0  0  0  0  0  0  0  0  0  0  0
   25.2593   -8.5206  -15.6869 C   0  0  0  0  0  0  0  0  0  0  0  0
   24.2929   -7.3863  -15.7116 C   0  0  0  0  0  0  0  0  0  0  0  0
   22.9976   -7.8191  -16.3629 C   0  0  2  0  0  0  0  0  0  0  0  0
   23.2063   -8.5164  -17.5923 N   0  0  0  0  0  0  0  0  0  0  0  0
   22.1969   -6.5680  -16.6075 C   0  0  0  0  0  0  0  0  0  0  0  0
   22.4777   -5.7621  -17.5249 O   0  0  0  0  0  0  0  0  0  0  0  0
   25.3146   -9.4306  -14.6662 C   0  0  0  0  0  0  0  0  0  0  0  0
   26.2327  -10.4733  -14.6856 C   0  0  0  0  0  0  0  0  0  0  0  0
   18.0900   -3.5736  -16.6508 N   0  0  0  0  0  0  0  0  0  0  0  0
   18.4168   -4.5252  -17.6721 C   0  0  0  0  0  0  0  0  0  0  0  0
   17.7808   -4.4215  -18.7602 O   0  0  0  0  0  0  0  0  0  0  0  0
   19.4518   -5.5540  -17.4145 C   0  0  0  0  0  0  0  0  0  0  0  0
   20.0557   -5.3500  -16.0698 C   0  0  2  0  0  0  0  0  0  0  0  0
   21.1038   -6.3075  -15.7750 N   0  0  0  0  0  0  0  0  0  0  0  0
   19.0768   -5.3367  -14.9625 C   0  0  0  0  0  0  0  0  0  0  0  0
   18.4605   -6.3460  -14.5419 O   0  0  0  0  0  0  0  0  0  0  0  0
   18.8182   -4.1096  -14.3376 O   0  0  0  0  0  0  0  0  0  0  0  0
  2  3  2  0
  2  1  1  0
  4  3  1  0
  5  4  2  0
  6  5  1  0
  7  6  1  0
  7  8  1  1
  9  7  1  0
  9 10  2  0
 11  5  1  0
 11 12  2  0
 12  2  1  0
 13 14  1  0
 14 24  2  0
 15 16  2  0
 15 14  1  0
 16 17  1  0
 17 23  2  0
 17 18  1  0
 19 20  1  0
 19 18  1  6
 20  9  1  0
 21 19  1  0
 22 21  2  0
 24 23  1  0
 25 26  1  0
 26 28  1  0
 27 26  2  0
 29 28  1  6
 29 30  1  0
 30 21  1  0
 31 29  1  0
 31 33  1  0
 32 31  2  0
M  END
$$$$
