YYN.pdb
     RDKit          3D

 33 34  0  0  1  0  0  0  0  0999 V2000
   28.6240  -27.9218  -26.6195 O   0  0  0  0  0  0  0  0  0  0  0  0
   28.4230  -28.6569  -25.4699 C   0  0  0  0  0  0  0  0  0  0  0  0
   28.3410  -30.0401  -25.5743 C   0  0  0  0  0  0  0  0  0  0  0  0
   28.1377  -30.7935  -24.4178 C   0  0  0  0  0  0  0  0  0  0  0  0
   28.0221  -30.1755  -23.2060 C   0  0  0  0  0  0  0  0  0  0  0  0
   27.8058  -30.9875  -21.9837 C   0  0  0  0  0  0  0  0  0  0  0  0
   29.0482  -31.0310  -21.1145 C   0  0  2  0  0  0  0  0  0  0  0  0
   30.0969  -31.7777  -21.7404 N   0  0  0  0  0  0  0  0  0  0  0  0
   28.6467  -31.5820  -19.7963 C   0  0  0  0  0  0  0  0  0  0  0  0
   28.7992  -32.8147  -19.6102 O   0  0  0  0  0  0  0  0  0  0  0  0
   28.1079  -28.7840  -23.1265 C   0  0  0  0  0  0  0  0  0  0  0  0
   28.3075  -28.0224  -24.2507 C   0  0  0  0  0  0  0  0  0  0  0  0
   34.0923  -32.2633  -16.9344 O   0  0  0  0  0  0  0  0  0  0  0  0
   32.7623  -31.8855  -16.7997 C   0  0  0  0  0  0  0  0  0  0  0  0
   32.2297  -30.8517  -17.5325 C   0  0  0  0  0  0  0  0  0  0  0  0
   30.9001  -30.4827  -17.3902 C   0  0  0  0  0  0  0  0  0  0  0  0
   30.0635  -31.1418  -16.5061 C   0  0  0  0  0  0  0  0  0  0  0  0
   28.6424  -30.7082  -16.3895 C   0  0  0  0  0  0  0  0  0  0  0  0
   27.8172  -31.3225  -17.4990 C   0  0  2  0  0  0  0  0  0  0  0  0
   28.1111  -30.7601  -18.7790 N   0  0  0  0  0  0  0  0  0  0  0  0
   26.3731  -31.0828  -17.1481 C   0  0  0  0  0  0  0  0  0  0  0  0
   25.7251  -30.1128  -17.6053 O   0  0  0  0  0  0  0  0  0  0  0  0
   30.5910  -32.1715  -15.7750 C   0  0  0  0  0  0  0  0  0  0  0  0
   31.9226  -32.5417  -15.9170 C   0  0  0  0  0  0  0  0  0  0  0  0
   22.2138  -30.3122  -15.4114 N   0  0  0  0  0  0  0  0  0  0  0  0
   22.2846  -30.9057  -16.7144 C   0  0  0  0  0  0  0  0  0  0  0  0
   21.3283  -30.6489  -17.5010 O   0  0  0  0  0  0  0  0  0  0  0  0
   23.4383  -31.7655  -17.0691 C   0  0  0  0  0  0  0  0  0  0  0  0
   24.3466  -31.9148  -15.8997 C   0  0  2  0  0  0  0  0  0  0  0  0
   25.7440  -31.9813  -16.2804 N   0  0  0  0  0  0  0  0  0  0  0  0
   24.0212  -33.0594  -15.0231 C   0  0  0  0  0  0  0  0  0  0  0  0
   22.9240  -33.2192  -14.4348 O   0  0  0  0  0  0  0  0  0  0  0  0
   25.0080  -34.0361  -14.8353 O   0  0  0  0  0  0  0  0  0  0  0  0
  2  3  2  0
  2  1  1  0
  4  3  1  0
  5  4  2  0
  6  5  1  0
  7  6  1  0
  7  8  1  6
  9  7  1  0
  9 10  2  0
 11  5  1  0
 11 12  2  0
 12  2  1  0
 13 14  1  0
 14 24  2  0
 15 16  2  0
 15 14  1  0
 16 17  1  0
 17 23  2  0
 17 18  1  0
 19 20  1  0
 19 18  1  1
 20  9  1  0
 21 19  1  0
 22 21  2  0
 24 23  1  0
 25 26  1  0
 26 28  1  0
 27 26  2  0
 29 28  1  6
 29 30  1  0
 30 21  1  0
 31 29  1  0
 31 33  1  0
 32 31  2  0
M  END
$$$$
