YYN.pdb
     RDKit          3D

 33 34  0  0  1  0  0  0  0  0999 V2000
   43.5589  -20.2586  -11.2941 O   0  0  0  0  0  0  0  0  0  0  0  0
   43.6688  -18.9155  -11.0002 C   0  0  0  0  0  0  0  0  0  0  0  0
   42.8691  -18.3906   -9.9923 C   0  0  0  0  0  0  0  0  0  0  0  0
   42.9721  -17.0332   -9.6868 C   0  0  0  0  0  0  0  0  0  0  0  0
   43.8465  -16.2388  -10.3710 C   0  0  0  0  0  0  0  0  0  0  0  0
   43.9465  -14.7971  -10.0371 C   0  0  0  0  0  0  0  0  0  0  0  0
   42.7387  -14.0238  -10.5315 C   0  0  2  0  0  0  0  0  0  0  0  0
   42.6301  -14.0821  -11.9577 N   0  0  0  0  0  0  0  0  0  0  0  0
   42.8573  -12.6387  -10.0119 C   0  0  0  0  0  0  0  0  0  0  0  0
   43.4288  -11.7908  -10.7410 O   0  0  0  0  0  0  0  0  0  0  0  0
   44.6396  -16.7894  -11.3799 C   0  0  0  0  0  0  0  0  0  0  0  0
   44.5554  -18.1219  -11.6977 C   0  0  0  0  0  0  0  0  0  0  0  0
   38.2587   -8.5827  -12.5254 O   0  0  0  0  0  0  0  0  0  0  0  0
   38.9486   -9.0152  -11.3999 C   0  0  0  0  0  0  0  0  0  0  0  0
   39.8798   -8.2194  -10.7763 C   0  0  0  0  0  0  0  0  0  0  0  0
   40.5631   -8.6612   -9.6528 C   0  0  0  0  0  0  0  0  0  0  0  0
   40.3315   -9.9178   -9.1205 C   0  0  0  0  0  0  0  0  0  0  0  0
   41.0908  -10.3465   -7.9118 C   0  0  0  0  0  0  0  0  0  0  0  0
   42.4341  -10.9147   -8.3144 C   0  0  2  0  0  0  0  0  0  0  0  0
   42.3496  -12.2745   -8.7442 N   0  0  0  0  0  0  0  0  0  0  0  0
   43.3282  -10.8082   -7.1080 C   0  0  0  0  0  0  0  0  0  0  0  0
   43.1312  -11.4778   -6.0675 O   0  0  0  0  0  0  0  0  0  0  0  0
   39.4048  -10.7124   -9.7393 C   0  0  0  0  0  0  0  0  0  0  0  0
   38.7201  -10.2706  -10.8646 C   0  0  0  0  0  0  0  0  0  0  0  0
   48.5078  -12.0062   -5.5886 N   0  0  0  0  0  0  0  0  0  0  0  0
   47.3238  -11.2774   -5.2390 C   0  0  0  0  0  0  0  0  0  0  0  0
   47.3645  -10.6270   -4.1552 O   0  0  0  0  0  0  0  0  0  0  0  0
   46.1440  -11.3179   -6.1348 C   0  0  0  0  0  0  0  0  0  0  0  0
   45.5457   -9.9608   -6.2581 C   0  0  2  0  0  0  0  0  0  0  0  0
   44.4134   -9.9277   -7.1632 N   0  0  0  0  0  0  0  0  0  0  0  0
   46.5095   -8.9068   -6.6383 C   0  0  0  0  0  0  0  0  0  0  0  0
   46.8285   -8.6228   -7.8186 O   0  0  0  0  0  0  0  0  0  0  0  0
   47.1101   -8.1720   -5.6076 O   0  0  0  0  0  0  0  0  0  0  0  0
  2  3  2  0
  2  1  1  0
  4  3  1  0
  5  4  2  0
  6  5  1  0
  7  6  1  0
  7  8  1  6
  9  7  1  0
  9 10  2  0
 11  5  1  0
 11 12  2  0
 12  2  1  0
 13 14  1  0
 14 24  2  0
 15 16  2  0
 15 14  1  0
 16 17  1  0
 17 23  2  0
 17 18  1  0
 19 20  1  0
 19 18  1  1
 20  9  1  0
 21 19  1  0
 22 21  2  0
 24 23  1  0
 25 26  1  0
 26 28  1  0
 27 26  2  0
 29 28  1  6
 29 30  1  0
 30 21  1  0
 31 29  1  0
 31 33  1  0
 32 31  2  0
M  END
$$$$
