YYN.pdb
     RDKit          3D

 33 34  0  0  1  0  0  0  0  0999 V2000
   29.6419  -17.9112  -22.5873 O   0  0  0  0  0  0  0  0  0  0  0  0
   28.9790  -18.3916  -21.4773 C   0  0  0  0  0  0  0  0  0  0  0  0
   27.7909  -19.0873  -21.6652 C   0  0  0  0  0  0  0  0  0  0  0  0
   27.1121  -19.5777  -20.5493 C   0  0  0  0  0  0  0  0  0  0  0  0
   27.6125  -19.3738  -19.2956 C   0  0  0  0  0  0  0  0  0  0  0  0
   26.8812  -19.8999  -18.1171 C   0  0  0  0  0  0  0  0  0  0  0  0
   27.6771  -20.9732  -17.3989 C   0  0  2  0  0  0  0  0  0  0  0  0
   27.8347  -22.1392  -18.2142 N   0  0  0  0  0  0  0  0  0  0  0  0
   26.9881  -21.2491  -16.1137 C   0  0  0  0  0  0  0  0  0  0  0  0
   25.9631  -21.9742  -16.1471 O   0  0  0  0  0  0  0  0  0  0  0  0
   28.8084  -18.6716  -19.1322 C   0  0  0  0  0  0  0  0  0  0  0  0
   29.4934  -18.1801  -20.2151 C   0  0  0  0  0  0  0  0  0  0  0  0
   24.0201  -20.7460   -7.8953 O   0  0  0  0  0  0  0  0  0  0  0  0
   24.8437  -20.6606   -9.0107 C   0  0  0  0  0  0  0  0  0  0  0  0
   25.3735  -19.4617   -9.4245 C   0  0  0  0  0  0  0  0  0  0  0  0
   26.1949  -19.3877  -10.5399 C   0  0  0  0  0  0  0  0  0  0  0  0
   26.5098  -20.5175  -11.2749 C   0  0  0  0  0  0  0  0  0  0  0  0
   27.3970  -20.3864  -12.4653 C   0  0  0  0  0  0  0  0  0  0  0  0
   26.7013  -20.9262  -13.6957 C   0  0  2  0  0  0  0  0  0  0  0  0
   27.4582  -20.7212  -14.8900 N   0  0  0  0  0  0  0  0  0  0  0  0
   25.3788  -20.2137  -13.7930 C   0  0  0  0  0  0  0  0  0  0  0  0
   25.2886  -19.0151  -14.1465 O   0  0  0  0  0  0  0  0  0  0  0  0
   25.9838  -21.7128  -10.8653 C   0  0  0  0  0  0  0  0  0  0  0  0
   25.1609  -21.7877   -9.7483 C   0  0  0  0  0  0  0  0  0  0  0  0
   20.7830  -18.2240  -14.9184 N   0  0  0  0  0  0  0  0  0  0  0  0
   20.9567  -19.6406  -14.7834 C   0  0  0  0  0  0  0  0  0  0  0  0
   19.9048  -20.3216  -14.6137 O   0  0  0  0  0  0  0  0  0  0  0  0
   22.3175  -20.2239  -14.8468 C   0  0  0  0  0  0  0  0  0  0  0  0
   22.8818  -20.3621  -13.4767 C   0  0  2  0  0  0  0  0  0  0  0  0
   24.2177  -20.9255  -13.4750 N   0  0  0  0  0  0  0  0  0  0  0  0
   22.0258  -21.1246  -12.5439 C   0  0  0  0  0  0  0  0  0  0  0  0
   21.9579  -22.3772  -12.4985 O   0  0  0  0  0  0  0  0  0  0  0  0
   21.2335  -20.3975  -11.6458 O   0  0  0  0  0  0  0  0  0  0  0  0
  2  3  2  0
  2  1  1  0
  4  3  1  0
  5  4  2  0
  6  5  1  0
  7  6  1  0
  7  8  1  6
  9  7  1  0
  9 10  2  0
 11  5  1  0
 11 12  2  0
 12  2  1  0
 13 14  1  0
 14 24  2  0
 15 16  2  0
 15 14  1  0
 16 17  1  0
 17 23  2  0
 17 18  1  0
 19 20  1  0
 19 18  1  1
 20  9  1  0
 21 19  1  0
 22 21  2  0
 24 23  1  0
 25 26  1  0
 26 28  1  0
 27 26  2  0
 29 28  1  6
 29 30  1  0
 30 21  1  0
 31 29  1  0
 31 33  1  0
 32 31  2  0
M  END
$$$$
