YCD.pdb
     RDKit          3D

 27 27  0  0  1  0  0  0  0  0999 V2000
    5.0072  -10.5289   27.7079 O   0  0  0  0  0  0  0  0  0  0  0  0
    5.7531  -11.5286   27.1182 C   0  0  0  0  0  0  0  0  0  0  0  0
    6.0527  -11.4497   25.7645 C   0  0  0  0  0  0  0  0  0  0  0  0
    6.7947  -12.4473   25.1845 C   0  0  0  0  0  0  0  0  0  0  0  0
    7.2489  -13.5202   25.9038 C   0  0  0  0  0  0  0  0  0  0  0  0
    8.0429  -14.6097   25.3280 C   0  0  0  0  0  0  0  0  0  0  0  0
    7.1401  -15.6282   24.6655 C   0  0  2  0  0  0  0  0  0  0  0  0
    6.6959  -16.5495   25.6595 N   0  0  0  0  0  0  0  0  0  0  0  0
    7.9639  -16.2840   23.6035 C   0  0  0  0  0  0  0  0  0  0  0  0
    8.5662  -17.3326   23.8899 O   0  0  0  0  0  0  0  0  0  0  0  0
    6.9426  -13.5878   27.2579 C   0  0  0  0  0  0  0  0  0  0  0  0
    6.1921  -12.5927   27.8764 C   0  0  0  0  0  0  0  0  0  0  0  0
    8.0835  -15.7638   22.3015 N   0  0  0  0  0  0  0  0  0  0  0  0
    8.8513  -16.3401   21.2338 C   0  0  1  0  0  0  0  0  0  0  0  0
    8.4950  -15.8618   19.8776 C   0  0  0  0  0  0  0  0  0  0  0  0
    7.1959  -14.6542   19.7887 S   0  0  0  0  0  0  0  0  0  0  0  0
   10.3197  -16.3047   21.5260 C   0  0  0  0  0  0  0  0  0  0  0  0
   10.8749  -15.2770   21.9924 O   0  0  0  0  0  0  0  0  0  0  0  0
   11.1313  -17.4463   21.2797 N   0  0  0  0  0  0  0  0  0  0  0  0
   12.5458  -17.4466   21.7259 C   0  0  1  0  0  0  0  0  0  0  0  0
   12.7261  -18.5290   22.7666 C   0  0  0  0  0  0  0  0  0  0  0  0
   13.4036  -18.1072   23.9694 C   0  0  0  0  0  0  0  0  0  0  0  0
   13.9154  -16.9824   24.1355 O   0  0  0  0  0  0  0  0  0  0  0  0
   13.3157  -17.8264   20.5253 C   0  0  0  0  0  0  0  0  0  0  0  0
   12.7953  -18.5340   19.6393 O   0  0  0  0  0  0  0  0  0  0  0  0
   13.5120  -18.9955   25.0423 O   0  0  0  0  0  0  0  0  0  0  0  0
   14.6105  -17.4132   20.3550 O   0  0  0  0  0  0  0  0  0  0  0  0
  2 12  2  0
  2  1  1  0
  3  2  1  0
  4  5  1  0
  4  3  2  0
  5 11  2  0
  6  7  1  0
  6  5  1  0
  7  9  1  0
  7  8  1  1
  9 13  1  0
  9 10  2  0
 11 12  1  0
 13 14  1  0
 14 15  1  6
 14 17  1  0
 16 15  1  0
 17 18  2  0
 19 20  1  0
 19 17  1  0
 20 24  1  0
 21 22  1  0
 20 21  1  1
 22 26  1  0
 23 22  2  0
 24 27  1  0
 25 24  2  0
M  END
$$$$
