YCD.pdb
     RDKit          3D

 27 27  0  0  1  0  0  0  0  0999 V2000
    9.9231  -13.7028   30.1912 O   0  0  0  0  0  0  0  0  0  0  0  0
    9.6573  -14.3153   28.9839 C   0  0  0  0  0  0  0  0  0  0  0  0
   10.3066  -15.4996   28.6609 C   0  0  0  0  0  0  0  0  0  0  0  0
   10.0376  -16.1033   27.4587 C   0  0  0  0  0  0  0  0  0  0  0  0
    9.1457  -15.5704   26.5669 C   0  0  0  0  0  0  0  0  0  0  0  0
    8.8273  -16.1780   25.2714 C   0  0  0  0  0  0  0  0  0  0  0  0
    7.4524  -16.8100   25.3080 C   0  0  2  0  0  0  0  0  0  0  0  0
    7.4328  -17.7843   26.3493 N   0  0  0  0  0  0  0  0  0  0  0  0
    7.2364  -17.4118   23.9560 C   0  0  0  0  0  0  0  0  0  0  0  0
    7.8251  -18.4715   23.6830 O   0  0  0  0  0  0  0  0  0  0  0  0
    8.5021  -14.3847   26.9017 C   0  0  0  0  0  0  0  0  0  0  0  0
    8.7525  -13.7473   28.1130 C   0  0  0  0  0  0  0  0  0  0  0  0
    6.3987  -16.8288   22.9872 N   0  0  0  0  0  0  0  0  0  0  0  0
    6.6085  -16.8598   21.5670 C   0  0  1  0  0  0  0  0  0  0  0  0
    5.5110  -16.2782   20.7593 C   0  0  0  0  0  0  0  0  0  0  0  0
    3.8600  -16.6543   21.2946 S   0  0  0  0  0  0  0  0  0  0  0  0
    7.9697  -16.3566   21.1973 C   0  0  0  0  0  0  0  0  0  0  0  0
    8.6318  -15.6170   21.9695 O   0  0  0  0  0  0  0  0  0  0  0  0
    8.5529  -16.7071   19.9484 N   0  0  0  0  0  0  0  0  0  0  0  0
   10.0255  -16.8514   19.8450 C   0  0  1  0  0  0  0  0  0  0  0  0
   10.4603  -18.0178   20.7040 C   0  0  0  0  0  0  0  0  0  0  0  0
   11.5900  -17.7511   21.5621 C   0  0  0  0  0  0  0  0  0  0  0  0
   12.6985  -17.3406   21.1652 O   0  0  0  0  0  0  0  0  0  0  0  0
   10.2678  -17.2019   18.4320 C   0  0  0  0  0  0  0  0  0  0  0  0
    9.3701  -17.7384   17.7518 O   0  0  0  0  0  0  0  0  0  0  0  0
   11.4684  -17.9564   22.9387 O   0  0  0  0  0  0  0  0  0  0  0  0
   11.4750  -16.9475   17.8367 O   0  0  0  0  0  0  0  0  0  0  0  0
  2 12  2  0
  2  1  1  0
  3  2  1  0
  4  5  1  0
  4  3  2  0
  5 11  2  0
  6  7  1  0
  6  5  1  0
  7  9  1  0
  7  8  1  1
  9 13  1  0
  9 10  2  0
 11 12  1  0
 13 14  1  0
 14 15  1  6
 14 17  1  0
 16 15  1  0
 17 18  2  0
 19 20  1  0
 19 17  1  0
 20 24  1  0
 21 22  1  0
 20 21  1  1
 22 26  1  0
 23 22  2  0
 24 27  1  0
 25 24  2  0
M  END
$$$$
