YCD.pdb
     RDKit          3D

 27 27  0  0  1  0  0  0  0  0999 V2000
   10.6048  -14.3866   31.3848 O   0  0  0  0  0  0  0  0  0  0  0  0
   10.4048  -14.7167   30.0602 C   0  0  0  0  0  0  0  0  0  0  0  0
    9.7737  -13.8108   29.2179 C   0  0  0  0  0  0  0  0  0  0  0  0
    9.5780  -14.1455   27.9019 C   0  0  0  0  0  0  0  0  0  0  0  0
    9.9881  -15.3494   27.3947 C   0  0  0  0  0  0  0  0  0  0  0  0
    9.7999  -15.7515   25.9976 C   0  0  0  0  0  0  0  0  0  0  0  0
    8.4204  -16.3422   25.7992 C   0  0  2  0  0  0  0  0  0  0  0  0
    8.3401  -17.5568   26.5424 N   0  0  0  0  0  0  0  0  0  0  0  0
    8.2704  -16.5601   24.3273 C   0  0  0  0  0  0  0  0  0  0  0  0
    8.6590  -17.6396   23.8498 O   0  0  0  0  0  0  0  0  0  0  0  0
   10.6187  -16.2477   28.2477 C   0  0  0  0  0  0  0  0  0  0  0  0
   10.8323  -15.9388   29.5875 C   0  0  0  0  0  0  0  0  0  0  0  0
    7.7106  -15.5971   23.4673 N   0  0  0  0  0  0  0  0  0  0  0  0
    7.9624  -15.4814   22.0584 C   0  0  1  0  0  0  0  0  0  0  0  0
    7.2692  -14.3559   21.3891 C   0  0  0  0  0  0  0  0  0  0  0  0
    7.4699  -14.2480   19.6279 S   0  0  0  0  0  0  0  0  0  0  0  0
    9.4249  -15.5669   21.7484 C   0  0  0  0  0  0  0  0  0  0  0  0
   10.2971  -15.1882   22.5717 O   0  0  0  0  0  0  0  0  0  0  0  0
    9.8680  -16.0843   20.5000 N   0  0  0  0  0  0  0  0  0  0  0  0
   11.3184  -16.2904   20.2682 C   0  0  1  0  0  0  0  0  0  0  0  0
   11.8241  -17.3258   21.2477 C   0  0  0  0  0  0  0  0  0  0  0  0
   13.2055  -17.7050   21.0703 C   0  0  0  0  0  0  0  0  0  0  0  0
   13.9495  -17.2664   20.1709 O   0  0  0  0  0  0  0  0  0  0  0  0
   11.4020  -16.8596   18.9091 C   0  0  0  0  0  0  0  0  0  0  0  0
   10.8878  -17.9677   18.6560 O   0  0  0  0  0  0  0  0  0  0  0  0
   13.7819  -18.6254   21.9494 O   0  0  0  0  0  0  0  0  0  0  0  0
   12.0405  -16.1895   17.8993 O   0  0  0  0  0  0  0  0  0  0  0  0
  2 12  2  0
  2  1  1  0
  3  2  1  0
  4  5  1  0
  4  3  2  0
  5 11  2  0
  6  7  1  0
  6  5  1  0
  7  9  1  0
  7  8  1  1
  9 13  1  0
  9 10  2  0
 11 12  1  0
 13 14  1  0
 14 15  1  1
 14 17  1  0
 16 15  1  0
 17 18  2  0
 19 20  1  0
 19 17  1  0
 20 24  1  0
 21 22  1  0
 20 21  1  1
 22 26  1  0
 23 22  2  0
 24 27  1  0
 25 24  2  0
M  END
$$$$
