YCD.pdb
     RDKit          3D

 27 27  0  0  1  0  0  0  0  0999 V2000
    5.5939  -10.7300   27.7537 O   0  0  0  0  0  0  0  0  0  0  0  0
    6.1619  -11.8563   27.1950 C   0  0  0  0  0  0  0  0  0  0  0  0
    7.0831  -12.5926   27.9281 C   0  0  0  0  0  0  0  0  0  0  0  0
    7.6442  -13.7114   27.3664 C   0  0  0  0  0  0  0  0  0  0  0  0
    7.3209  -14.1233   26.1012 C   0  0  0  0  0  0  0  0  0  0  0  0
    7.8945  -15.3098   25.4592 C   0  0  0  0  0  0  0  0  0  0  0  0
    6.8242  -16.3549   25.2284 C   0  0  2  0  0  0  0  0  0  0  0  0
    6.8667  -17.2878   26.3063 N   0  0  0  0  0  0  0  0  0  0  0  0
    7.1395  -16.9874   23.9104 C   0  0  0  0  0  0  0  0  0  0  0  0
    6.2367  -17.6094   23.3254 O   0  0  0  0  0  0  0  0  0  0  0  0
    6.3974  -13.3781   25.3773 C   0  0  0  0  0  0  0  0  0  0  0  0
    5.8103  -12.2384   25.9182 C   0  0  0  0  0  0  0  0  0  0  0  0
    8.4100  -16.9068   23.3107 N   0  0  0  0  0  0  0  0  0  0  0  0
    8.7343  -16.1622   22.1265 C   0  0  1  0  0  0  0  0  0  0  0  0
    7.9799  -14.8986   21.9554 C   0  0  0  0  0  0  0  0  0  0  0  0
    8.1310  -14.1036   20.3747 S   0  0  0  0  0  0  0  0  0  0  0  0
   10.2145  -16.0165   21.9521 C   0  0  0  0  0  0  0  0  0  0  0  0
   10.8937  -15.2557   22.6881 O   0  0  0  0  0  0  0  0  0  0  0  0
   10.8956  -16.7435   20.9372 N   0  0  0  0  0  0  0  0  0  0  0  0
   12.3169  -17.1182   21.1362 C   0  0  1  0  0  0  0  0  0  0  0  0
   12.6305  -18.3132   20.2639 C   0  0  0  0  0  0  0  0  0  0  0  0
   12.0454  -19.5566   20.7054 C   0  0  0  0  0  0  0  0  0  0  0  0
   11.8642  -19.8687   21.8990 O   0  0  0  0  0  0  0  0  0  0  0  0
   13.0820  -15.9622   20.6297 C   0  0  0  0  0  0  0  0  0  0  0  0
   12.4973  -15.0185   20.0606 O   0  0  0  0  0  0  0  0  0  0  0  0
   11.6426  -20.4996   19.7564 O   0  0  0  0  0  0  0  0  0  0  0  0
   14.4429  -15.8970   20.7721 O   0  0  0  0  0  0  0  0  0  0  0  0
  2 12  2  0
  2  1  1  0
  3  2  1  0
  4  5  1  0
  4  3  2  0
  5 11  2  0
  6  7  1  0
  6  5  1  0
  7  9  1  0
  7  8  1  1
  9 13  1  0
  9 10  2  0
 11 12  1  0
 13 14  1  0
 14 15  1  1
 14 17  1  0
 16 15  1  0
 17 18  2  0
 19 20  1  0
 19 17  1  0
 20 24  1  0
 21 22  1  0
 20 21  1  6
 22 26  1  0
 23 22  2  0
 24 27  1  0
 25 24  2  0
M  END
$$$$
