YCD.pdb
     RDKit          3D

 27 27  0  0  1  0  0  0  0  0999 V2000
    7.6556  -14.0062   14.8863 O   0  0  0  0  0  0  0  0  0  0  0  0
    7.8057  -13.9492   16.2566 C   0  0  0  0  0  0  0  0  0  0  0  0
    7.7560  -12.7190   16.8989 C   0  0  0  0  0  0  0  0  0  0  0  0
    7.9061  -12.6695   18.2617 C   0  0  0  0  0  0  0  0  0  0  0  0
    8.1038  -13.8006   19.0076 C   0  0  0  0  0  0  0  0  0  0  0  0
    8.2706  -13.7973   20.4640 C   0  0  0  0  0  0  0  0  0  0  0  0
    8.4485  -15.2096   20.9786 C   0  0  2  0  0  0  0  0  0  0  0  0
    7.2135  -15.9051   20.8198 N   0  0  0  0  0  0  0  0  0  0  0  0
    8.8533  -15.0807   22.4125 C   0  0  0  0  0  0  0  0  0  0  0  0
    9.8536  -14.3944   22.6819 O   0  0  0  0  0  0  0  0  0  0  0  0
    8.1516  -15.0260   18.3532 C   0  0  0  0  0  0  0  0  0  0  0  0
    8.0030  -15.1105   16.9723 C   0  0  0  0  0  0  0  0  0  0  0  0
    8.1510  -15.7022   23.4617 N   0  0  0  0  0  0  0  0  0  0  0  0
    8.5247  -15.6862   24.8480 C   0  0  1  0  0  0  0  0  0  0  0  0
    7.4699  -15.2140   25.7751 C   0  0  0  0  0  0  0  0  0  0  0  0
    6.7314  -13.6459   25.3886 S   0  0  0  0  0  0  0  0  0  0  0  0
    9.1689  -16.9729   25.2627 C   0  0  0  0  0  0  0  0  0  0  0  0
    8.5365  -18.0600   25.2545 O   0  0  0  0  0  0  0  0  0  0  0  0
   10.5279  -16.9963   25.6813 N   0  0  0  0  0  0  0  0  0  0  0  0
   11.1757  -18.2952   25.9865 C   0  0  1  0  0  0  0  0  0  0  0  0
   12.6719  -18.1403   25.8289 C   0  0  0  0  0  0  0  0  0  0  0  0
   13.0986  -17.6513   24.5396 C   0  0  0  0  0  0  0  0  0  0  0  0
   12.6259  -18.0273   23.4487 O   0  0  0  0  0  0  0  0  0  0  0  0
   10.8829  -18.5321   27.4135 C   0  0  0  0  0  0  0  0  0  0  0  0
   10.3280  -17.6496   28.0990 O   0  0  0  0  0  0  0  0  0  0  0  0
   14.1096  -16.6894   24.4717 O   0  0  0  0  0  0  0  0  0  0  0  0
   11.2097  -19.7182   28.0156 O   0  0  0  0  0  0  0  0  0  0  0  0
  2 12  2  0
  2  1  1  0
  3  2  1  0
  4  5  1  0
  4  3  2  0
  5 11  2  0
  6  7  1  0
  6  5  1  0
  7  9  1  0
  7  8  1  1
  9 13  1  0
  9 10  2  0
 11 12  1  0
 13 14  1  0
 14 15  1  1
 14 17  1  0
 16 15  1  0
 17 18  2  0
 19 20  1  0
 19 17  1  0
 20 24  1  0
 21 22  1  0
 20 21  1  1
 22 26  1  0
 23 22  2  0
 24 27  1  0
 25 24  2  0
M  END
$$$$
