YCD.pdb
     RDKit          3D

 27 27  0  0  1  0  0  0  0  0999 V2000
    5.0355  -10.9601   27.9538 O   0  0  0  0  0  0  0  0  0  0  0  0
    5.8233  -11.8615   27.2679 C   0  0  0  0  0  0  0  0  0  0  0  0
    6.8361  -12.5334   27.9395 C   0  0  0  0  0  0  0  0  0  0  0  0
    7.6158  -13.4282   27.2513 C   0  0  0  0  0  0  0  0  0  0  0  0
    7.4232  -13.6779   25.9188 C   0  0  0  0  0  0  0  0  0  0  0  0
    8.2308  -14.6230   25.1420 C   0  0  0  0  0  0  0  0  0  0  0  0
    7.3735  -15.7682   24.6473 C   0  0  2  0  0  0  0  0  0  0  0  0
    7.0475  -16.5991   25.7597 N   0  0  0  0  0  0  0  0  0  0  0  0
    8.1899  -16.4829   23.6181 C   0  0  0  0  0  0  0  0  0  0  0  0
    8.8975  -17.4358   23.9863 O   0  0  0  0  0  0  0  0  0  0  0  0
    6.4061  -12.9992   25.2577 C   0  0  0  0  0  0  0  0  0  0  0  0
    5.5978  -12.0853   25.9267 C   0  0  0  0  0  0  0  0  0  0  0  0
    8.1888  -16.1209   22.2582 N   0  0  0  0  0  0  0  0  0  0  0  0
    8.8634  -16.8216   21.2018 C   0  0  1  0  0  0  0  0  0  0  0  0
    8.2671  -16.6499   19.8565 C   0  0  0  0  0  0  0  0  0  0  0  0
    6.4959  -16.7420   19.7667 S   0  0  0  0  0  0  0  0  0  0  0  0
   10.3433  -16.5971   21.2455 C   0  0  0  0  0  0  0  0  0  0  0  0
   10.8436  -15.4581   21.0601 O   0  0  0  0  0  0  0  0  0  0  0  0
   11.2293  -17.6800   21.5002 N   0  0  0  0  0  0  0  0  0  0  0  0
   12.6941  -17.4502   21.4597 C   0  0  1  0  0  0  0  0  0  0  0  0
   13.2558  -17.6532   22.8491 C   0  0  0  0  0  0  0  0  0  0  0  0
   13.7308  -16.4517   23.4928 C   0  0  0  0  0  0  0  0  0  0  0  0
   13.0013  -15.5077   23.8555 O   0  0  0  0  0  0  0  0  0  0  0  0
   13.2159  -18.5213   20.5887 C   0  0  0  0  0  0  0  0  0  0  0  0
   12.6478  -19.6311   20.5433 O   0  0  0  0  0  0  0  0  0  0  0  0
   15.0974  -16.3024   23.7423 O   0  0  0  0  0  0  0  0  0  0  0  0
   14.3279  -18.3242   19.8135 O   0  0  0  0  0  0  0  0  0  0  0  0
  2 12  2  0
  2  1  1  0
  3  2  1  0
  4  5  1  0
  4  3  2  0
  5 11  2  0
  6  7  1  0
  6  5  1  0
  7  9  1  0
  7  8  1  1
  9 13  1  0
  9 10  2  0
 11 12  1  0
 13 14  1  0
 14 15  1  6
 14 17  1  0
 16 15  1  0
 17 18  2  0
 19 20  1  0
 19 17  1  0
 20 24  1  0
 21 22  1  0
 20 21  1  1
 22 26  1  0
 23 22  2  0
 24 27  1  0
 25 24  2  0
M  END
$$$$
