YCD.pdb
     RDKit          3D

 27 27  0  0  1  0  0  0  0  0999 V2000
    5.0784  -10.9666   28.5155 O   0  0  0  0  0  0  0  0  0  0  0  0
    5.7572  -11.8738   27.7283 C   0  0  0  0  0  0  0  0  0  0  0  0
    6.9751  -12.3795   28.1634 C   0  0  0  0  0  0  0  0  0  0  0  0
    7.6447  -13.2812   27.3756 C   0  0  0  0  0  0  0  0  0  0  0  0
    7.1454  -13.6973   26.1704 C   0  0  0  0  0  0  0  0  0  0  0  0
    7.8246  -14.6567   25.2946 C   0  0  0  0  0  0  0  0  0  0  0  0
    6.8255  -15.6210   24.6919 C   0  0  2  0  0  0  0  0  0  0  0  0
    6.6735  -16.7255   25.5813 N   0  0  0  0  0  0  0  0  0  0  0  0
    7.3873  -16.0257   23.3664 C   0  0  0  0  0  0  0  0  0  0  0  0
    8.0549  -17.0720   23.3051 O   0  0  0  0  0  0  0  0  0  0  0  0
    5.9253  -13.1841   25.7459 C   0  0  0  0  0  0  0  0  0  0  0  0
    5.2211  -12.2681   26.5212 C   0  0  0  0  0  0  0  0  0  0  0  0
    7.1915  -15.2731   22.1936 N   0  0  0  0  0  0  0  0  0  0  0  0
    7.9416  -15.4042   20.9762 C   0  0  1  0  0  0  0  0  0  0  0  0
    7.6883  -14.3483   19.9682 C   0  0  0  0  0  0  0  0  0  0  0  0
    8.5144  -14.5402   18.4079 S   0  0  0  0  0  0  0  0  0  0  0  0
    9.3934  -15.6544   21.2447 C   0  0  0  0  0  0  0  0  0  0  0  0
   10.0179  -15.0236   22.1357 O   0  0  0  0  0  0  0  0  0  0  0  0
   10.1096  -16.6231   20.4887 N   0  0  0  0  0  0  0  0  0  0  0  0
   11.5220  -16.9188   20.8318 C   0  0  1  0  0  0  0  0  0  0  0  0
   11.5473  -17.8458   22.0265 C   0  0  0  0  0  0  0  0  0  0  0  0
   12.8657  -18.2527   22.4507 C   0  0  0  0  0  0  0  0  0  0  0  0
   13.9203  -17.9758   21.8457 O   0  0  0  0  0  0  0  0  0  0  0  0
   12.0435  -17.6550   19.6639 C   0  0  0  0  0  0  0  0  0  0  0  0
   12.9003  -17.1351   18.9209 O   0  0  0  0  0  0  0  0  0  0  0  0
   13.0072  -19.0107   23.6158 O   0  0  0  0  0  0  0  0  0  0  0  0
   11.6037  -18.9185   19.3697 O   0  0  0  0  0  0  0  0  0  0  0  0
  2 12  2  0
  2  1  1  0
  3  2  1  0
  4  5  1  0
  4  3  2  0
  5 11  2  0
  6  7  1  0
  6  5  1  0
  7  9  1  0
  7  8  1  1
  9 13  1  0
  9 10  2  0
 11 12  1  0
 13 14  1  0
 14 15  1  6
 14 17  1  0
 16 15  1  0
 17 18  2  0
 19 20  1  0
 19 17  1  0
 20 24  1  0
 21 22  1  0
 20 21  1  1
 22 26  1  0
 23 22  2  0
 24 27  1  0
 25 24  2  0
M  END
$$$$
