YCD.pdb
     RDKit          3D

 27 27  0  0  1  0  0  0  0  0999 V2000
    5.3695  -10.6635   28.3012 O   0  0  0  0  0  0  0  0  0  0  0  0
    6.0673  -11.6207   27.5940 C   0  0  0  0  0  0  0  0  0  0  0  0
    7.1332  -12.2747   28.1977 C   0  0  0  0  0  0  0  0  0  0  0  0
    7.8229  -13.2253   27.4887 C   0  0  0  0  0  0  0  0  0  0  0  0
    7.4895  -13.5480   26.2004 C   0  0  0  0  0  0  0  0  0  0  0  0
    8.1969  -14.5547   25.4035 C   0  0  0  0  0  0  0  0  0  0  0  0
    7.2103  -15.4223   24.6518 C   0  0  2  0  0  0  0  0  0  0  0  0
    6.5570  -16.2760   25.5891 N   0  0  0  0  0  0  0  0  0  0  0  0
    8.0113  -16.1838   23.6444 C   0  0  0  0  0  0  0  0  0  0  0  0
    8.2960  -17.3677   23.8924 O   0  0  0  0  0  0  0  0  0  0  0  0
    6.4205  -12.8866   25.6071 C   0  0  0  0  0  0  0  0  0  0  0  0
    5.7006  -11.9174   26.2989 C   0  0  0  0  0  0  0  0  0  0  0  0
    8.4528  -15.6161   22.4347 N   0  0  0  0  0  0  0  0  0  0  0  0
    8.9960  -16.3365   21.3177 C   0  0  1  0  0  0  0  0  0  0  0  0
    8.3888  -16.0088   20.0065 C   0  0  0  0  0  0  0  0  0  0  0  0
    6.6211  -15.8406   19.9817 S   0  0  0  0  0  0  0  0  0  0  0  0
   10.4933  -16.3125   21.3186 C   0  0  0  0  0  0  0  0  0  0  0  0
   11.1358  -15.2350   21.4080 O   0  0  0  0  0  0  0  0  0  0  0  0
   11.2336  -17.5226   21.2168 N   0  0  0  0  0  0  0  0  0  0  0  0
   12.7125  -17.4851   21.3231 C   0  0  1  0  0  0  0  0  0  0  0  0
   13.0878  -17.0954   22.7354 C   0  0  0  0  0  0  0  0  0  0  0  0
   14.0531  -16.0268   22.8336 C   0  0  0  0  0  0  0  0  0  0  0  0
   14.6113  -15.4859   21.8585 O   0  0  0  0  0  0  0  0  0  0  0  0
   13.1382  -18.8804   21.0996 C   0  0  0  0  0  0  0  0  0  0  0  0
   12.2961  -19.8005   21.0714 O   0  0  0  0  0  0  0  0  0  0  0  0
   14.4106  -15.5398   24.0934 O   0  0  0  0  0  0  0  0  0  0  0  0
   14.4585  -19.1971   20.9178 O   0  0  0  0  0  0  0  0  0  0  0  0
  2 12  2  0
  2  1  1  0
  3  2  1  0
  4  5  1  0
  4  3  2  0
  5 11  2  0
  6  7  1  0
  6  5  1  0
  7  9  1  0
  7  8  1  1
  9 13  1  0
  9 10  2  0
 11 12  1  0
 13 14  1  0
 14 15  1  6
 14 17  1  0
 16 15  1  0
 17 18  2  0
 19 20  1  0
 19 17  1  0
 20 24  1  0
 21 22  1  0
 20 21  1  1
 22 26  1  0
 23 22  2  0
 24 27  1  0
 25 24  2  0
M  END
$$$$
