YCD.pdb
     RDKit          3D

 27 27  0  0  1  0  0  0  0  0999 V2000
   -1.0242  -20.9422   19.9539 O   0  0  0  0  0  0  0  0  0  0  0  0
    0.1599  -20.3719   20.3736 C   0  0  0  0  0  0  0  0  0  0  0  0
    0.5267  -19.1234   19.8887 C   0  0  0  0  0  0  0  0  0  0  0  0
    1.7055  -18.5622   20.3101 C   0  0  0  0  0  0  0  0  0  0  0  0
    2.5318  -19.1992   21.1969 C   0  0  0  0  0  0  0  0  0  0  0  0
    3.8001  -18.6404   21.6744 C   0  0  0  0  0  0  0  0  0  0  0  0
    4.7594  -18.4453   20.5199 C   0  0  2  0  0  0  0  0  0  0  0  0
    4.9979  -19.7142   19.9141 N   0  0  0  0  0  0  0  0  0  0  0  0
    5.9987  -17.8484   21.1068 C   0  0  0  0  0  0  0  0  0  0  0  0
    6.9119  -18.6149   21.4570 O   0  0  0  0  0  0  0  0  0  0  0  0
    2.1536  -20.4483   21.6753 C   0  0  0  0  0  0  0  0  0  0  0  0
    0.9645  -21.0450   21.2676 C   0  0  0  0  0  0  0  0  0  0  0  0
    6.1701  -16.4621   21.2773 N   0  0  0  0  0  0  0  0  0  0  0  0
    7.3738  -15.8118   21.7133 C   0  0  1  0  0  0  0  0  0  0  0  0
    7.4091  -14.3472   21.4924 C   0  0  0  0  0  0  0  0  0  0  0  0
    6.9100  -13.7850   19.8835 S   0  0  0  0  0  0  0  0  0  0  0  0
    7.7571  -16.2283   23.0997 C   0  0  0  0  0  0  0  0  0  0  0  0
    6.8928  -16.4285   23.9911 O   0  0  0  0  0  0  0  0  0  0  0  0
    9.1247  -16.4090   23.4457 N   0  0  0  0  0  0  0  0  0  0  0  0
    9.4843  -17.3499   24.5345 C   0  0  1  0  0  0  0  0  0  0  0  0
    9.0546  -18.7433   24.1334 C   0  0  0  0  0  0  0  0  0  0  0  0
    9.4441  -19.7862   25.0522 C   0  0  0  0  0  0  0  0  0  0  0  0
   10.0607  -19.5951   26.1189 O   0  0  0  0  0  0  0  0  0  0  0  0
   10.9590  -17.3169   24.5843 C   0  0  0  0  0  0  0  0  0  0  0  0
   11.5593  -17.5300   25.6569 O   0  0  0  0  0  0  0  0  0  0  0  0
    9.1243  -21.1140   24.7573 O   0  0  0  0  0  0  0  0  0  0  0  0
   11.6993  -17.0546   23.4620 O   0  0  0  0  0  0  0  0  0  0  0  0
  2 12  2  0
  2  1  1  0
  3  2  1  0
  4  5  1  0
  4  3  2  0
  5 11  2  0
  6  7  1  0
  6  5  1  0
  7  9  1  0
  7  8  1  1
  9 13  1  0
  9 10  2  0
 11 12  1  0
 13 14  1  0
 14 15  1  1
 14 17  1  0
 16 15  1  0
 17 18  2  0
 19 20  1  0
 19 17  1  0
 20 24  1  0
 21 22  1  0
 20 21  1  6
 22 26  1  0
 23 22  2  0
 24 27  1  0
 25 24  2  0
M  END
$$$$
