YCD.pdb
     RDKit          3D

 27 27  0  0  1  0  0  0  0  0999 V2000
    9.1632  -22.4446   14.7151 O   0  0  0  0  0  0  0  0  0  0  0  0
    8.8719  -21.7126   15.8478 C   0  0  0  0  0  0  0  0  0  0  0  0
    9.9075  -21.1578   16.5881 C   0  0  0  0  0  0  0  0  0  0  0  0
    9.6108  -20.4312   17.7133 C   0  0  0  0  0  0  0  0  0  0  0  0
    8.3202  -20.2372   18.1276 C   0  0  0  0  0  0  0  0  0  0  0  0
    7.9547  -19.4704   19.3224 C   0  0  0  0  0  0  0  0  0  0  0  0
    7.7321  -18.0156   18.9687 C   0  0  2  0  0  0  0  0  0  0  0  0
    8.1426  -17.8132   17.6179 N   0  0  0  0  0  0  0  0  0  0  0  0
    8.5474  -17.2232   19.9402 C   0  0  0  0  0  0  0  0  0  0  0  0
    9.7308  -16.9767   19.6517 O   0  0  0  0  0  0  0  0  0  0  0  0
    7.2923  -20.7974   17.3782 C   0  0  0  0  0  0  0  0  0  0  0  0
    7.5595  -21.5397   16.2321 C   0  0  0  0  0  0  0  0  0  0  0  0
    8.0309  -16.7491   21.1604 N   0  0  0  0  0  0  0  0  0  0  0  0
    8.7421  -15.9534   22.1211 C   0  0  1  0  0  0  0  0  0  0  0  0
    7.8867  -15.2303   23.0909 C   0  0  0  0  0  0  0  0  0  0  0  0
    8.7353  -14.2767   24.3255 S   0  0  0  0  0  0  0  0  0  0  0  0
    9.8647  -16.7185   22.7512 C   0  0  0  0  0  0  0  0  0  0  0  0
    9.7715  -17.9497   22.9903 O   0  0  0  0  0  0  0  0  0  0  0  0
   11.0778  -16.0627   23.0989 N   0  0  0  0  0  0  0  0  0  0  0  0
   12.2272  -16.8635   23.5865 C   0  0  1  0  0  0  0  0  0  0  0  0
   13.5054  -16.2437   23.0678 C   0  0  0  0  0  0  0  0  0  0  0  0
   14.7145  -16.9245   23.4654 C   0  0  0  0  0  0  0  0  0  0  0  0
   15.1160  -17.0242   24.6416 O   0  0  0  0  0  0  0  0  0  0  0  0
   12.1976  -16.7039   25.0534 C   0  0  0  0  0  0  0  0  0  0  0  0
   12.9697  -17.3658   25.7761 O   0  0  0  0  0  0  0  0  0  0  0  0
   15.5151  -17.5251   22.4904 O   0  0  0  0  0  0  0  0  0  0  0  0
   11.3291  -15.8306   25.6529 O   0  0  0  0  0  0  0  0  0  0  0  0
  2 12  2  0
  2  1  1  0
  3  2  1  0
  4  5  1  0
  4  3  2  0
  5 11  2  0
  6  7  1  0
  6  5  1  0
  7  9  1  0
  7  8  1  6
  9 13  1  0
  9 10  2  0
 11 12  1  0
 13 14  1  0
 14 15  1  1
 14 17  1  0
 16 15  1  0
 17 18  2  0
 19 20  1  0
 19 17  1  0
 20 24  1  0
 21 22  1  0
 20 21  1  6
 22 26  1  0
 23 22  2  0
 24 27  1  0
 25 24  2  0
M  END
$$$$
