WCH.pdb
     RDKit          3D

 31 33  0  0  1  0  0  0  0  0999 V2000
    6.9483  -17.0782   20.2967 N   0  0  0  0  0  0  0  0  0  0  0  0
    7.6945  -16.3027   21.2300 C   0  0  1  0  0  0  0  0  0  0  0  0
    6.8972  -15.0982   21.6486 C   0  0  0  0  0  0  0  0  0  0  0  0
    7.6039  -14.1348   22.4861 C   0  0  0  0  0  0  0  0  0  0  0  0
    8.7799  -13.5205   22.1182 C   0  0  0  0  0  0  0  0  0  0  0  0
    9.1495  -12.7277   23.1297 N   0  0  0  0  0  0  0  0  0  0  0  0
    8.2585  -12.7916   24.1616 C   0  0  0  0  0  0  0  0  0  0  0  0
    8.2060  -12.1692   25.3859 C   0  0  0  0  0  0  0  0  0  0  0  0
    7.1701  -12.4183   26.2413 C   0  0  0  0  0  0  0  0  0  0  0  0
    6.1835  -13.3009   25.8556 C   0  0  0  0  0  0  0  0  0  0  0  0
    6.2466  -13.9163   24.6315 C   0  0  0  0  0  0  0  0  0  0  0  0
    7.2892  -13.6822   23.7418 C   0  0  0  0  0  0  0  0  0  0  0  0
    8.0881  -17.0665   22.4558 C   0  0  0  0  0  0  0  0  0  0  0  0
    7.2296  -17.7158   23.1144 O   0  0  0  0  0  0  0  0  0  0  0  0
    9.4193  -17.1145   22.9533 N   0  0  0  0  0  0  0  0  0  0  0  0
    9.7874  -17.9749   24.0589 C   0  0  1  0  0  0  0  0  0  0  0  0
   10.2188  -19.3075   23.4849 C   0  0  0  0  0  0  0  0  0  0  0  0
   11.3313  -18.9825   22.0907 S   0  0  0  0  0  0  0  0  0  0  0  0
   10.9323  -17.4401   24.8312 C   0  0  0  0  0  0  0  0  0  0  0  0
   11.7947  -16.6492   24.3853 O   0  0  0  0  0  0  0  0  0  0  0  0
   11.0584  -17.8592   26.1827 N   0  0  0  0  0  0  0  0  0  0  0  0
   12.2152  -17.4176   26.9856 C   0  0  1  0  0  0  0  0  0  0  0  0
   11.7273  -17.3334   28.4067 C   0  0  0  0  0  0  0  0  0  0  0  0
   10.7369  -16.3053   28.6833 C   0  0  0  0  0  0  0  0  0  0  0  0
   10.1405  -15.4001   27.8505 C   0  0  0  0  0  0  0  0  0  0  0  0
    9.2361  -14.6910   28.5736 N   0  0  0  0  0  0  0  0  0  0  0  0
    9.2585  -15.1332   29.8208 C   0  0  0  0  0  0  0  0  0  0  0  0
   10.1524  -16.1019   29.9067 N   0  0  0  0  0  0  0  0  0  0  0  0
   13.1655  -18.5862   26.9375 C   0  0  0  0  0  0  0  0  0  0  0  0
   14.4416  -18.5972   27.4438 O   0  0  0  0  0  0  0  0  0  0  0  0
   12.7303  -19.6495   26.3748 O   0  0  0  0  0  0  0  0  0  0  0  0
  2  1  1  6
  2  3  1  0
  3  4  1  0
  4  5  2  0
  6  5  1  0
  7  6  1  0
  8  7  2  0
  9  8  1  0
 10 11  1  0
 10  9  2  0
 11 12  2  0
 12  7  1  0
 12  4  1  0
 13  2  1  0
 13 15  1  0
 14 13  2  0
 16 15  1  0
 16 17  1  6
 17 18  1  0
 19 16  1  0
 20 19  2  0
 21 19  1  0
 22 21  1  0
 23 24  1  0
 22 23  1  1
 24 25  2  0
 26 25  1  0
 27 26  1  0
 28 27  2  0
 28 24  1  0
 29 22  1  0
 29 30  1  0
 31 29  2  0
M  END
$$$$
