WCH.pdb
     RDKit          3D

 31 33  0  0  1  0  0  0  0  0999 V2000
    8.8455  -17.1365   22.4823 N   0  0  0  0  0  0  0  0  0  0  0  0
    9.3037  -16.0319   23.2565 C   0  0  1  0  0  0  0  0  0  0  0  0
    8.3140  -15.7245   24.3462 C   0  0  0  0  0  0  0  0  0  0  0  0
    7.6266  -14.4427   24.2298 C   0  0  0  0  0  0  0  0  0  0  0  0
    7.0183  -14.0040   23.0751 C   0  0  0  0  0  0  0  0  0  0  0  0
    6.5164  -12.7900   23.3247 N   0  0  0  0  0  0  0  0  0  0  0  0
    6.7690  -12.4028   24.6089 C   0  0  0  0  0  0  0  0  0  0  0  0
    6.4562  -11.2674   25.3174 C   0  0  0  0  0  0  0  0  0  0  0  0
    6.8366  -11.1442   26.6239 C   0  0  0  0  0  0  0  0  0  0  0  0
    7.5362  -12.1747   27.2155 C   0  0  0  0  0  0  0  0  0  0  0  0
    7.8429  -13.3030   26.4985 C   0  0  0  0  0  0  0  0  0  0  0  0
    7.4692  -13.4547   25.1677 C   0  0  0  0  0  0  0  0  0  0  0  0
   10.6461  -16.2595   23.8786 C   0  0  0  0  0  0  0  0  0  0  0  0
   11.6372  -15.5502   23.5513 O   0  0  0  0  0  0  0  0  0  0  0  0
   10.8954  -17.2627   24.8551 N   0  0  0  0  0  0  0  0  0  0  0  0
   11.3103  -16.9268   26.2017 C   0  0  1  0  0  0  0  0  0  0  0  0
   10.5504  -15.6880   26.6249 C   0  0  0  0  0  0  0  0  0  0  0  0
   11.2032  -15.1518   28.2291 S   0  0  0  0  0  0  0  0  0  0  0  0
   10.9827  -17.9944   27.1742 C   0  0  0  0  0  0  0  0  0  0  0  0
    9.8495  -18.1956   27.6677 O   0  0  0  0  0  0  0  0  0  0  0  0
   12.0388  -18.8555   27.5758 N   0  0  0  0  0  0  0  0  0  0  0  0
   11.7424  -20.0624   28.3718 C   0  0  1  0  0  0  0  0  0  0  0  0
   13.0315  -20.8348   28.4517 C   0  0  0  0  0  0  0  0  0  0  0  0
   13.5427  -21.3582   27.1951 C   0  0  0  0  0  0  0  0  0  0  0  0
   12.9057  -21.6030   26.0106 C   0  0  0  0  0  0  0  0  0  0  0  0
   13.8297  -22.0339   25.1139 N   0  0  0  0  0  0  0  0  0  0  0  0
   15.0110  -22.0597   25.7100 C   0  0  0  0  0  0  0  0  0  0  0  0
   14.8597  -21.6575   26.9591 N   0  0  0  0  0  0  0  0  0  0  0  0
   11.4836  -19.5347   29.7595 C   0  0  0  0  0  0  0  0  0  0  0  0
   11.0676  -20.2837   30.8323 O   0  0  0  0  0  0  0  0  0  0  0  0
   11.6730  -18.2818   29.9353 O   0  0  0  0  0  0  0  0  0  0  0  0
  2  1  1  1
  2  3  1  0
  3  4  1  0
  4  5  2  0
  6  5  1  0
  7  6  1  0
  8  7  2  0
  9  8  1  0
 10 11  1  0
 10  9  2  0
 11 12  2  0
 12  7  1  0
 12  4  1  0
 13  2  1  0
 13 15  1  0
 14 13  2  0
 16 15  1  0
 16 17  1  1
 17 18  1  0
 19 16  1  0
 20 19  2  0
 21 19  1  0
 22 21  1  0
 23 24  1  0
 22 23  1  1
 24 25  2  0
 26 25  1  0
 27 26  1  0
 28 27  2  0
 28 24  1  0
 29 22  1  0
 29 30  1  0
 31 29  2  0
M  END
$$$$
