WCH.pdb
     RDKit          3D

 31 33  0  0  1  0  0  0  0  0999 V2000
    9.5962  -17.7210   20.8352 N   0  0  0  0  0  0  0  0  0  0  0  0
   10.4873  -16.6120   20.7602 C   0  0  1  0  0  0  0  0  0  0  0  0
   10.1110  -15.5820   21.7894 C   0  0  0  0  0  0  0  0  0  0  0  0
    8.8753  -14.8517   21.5273 C   0  0  0  0  0  0  0  0  0  0  0  0
    7.7204  -15.0169   22.2585 C   0  0  0  0  0  0  0  0  0  0  0  0
    6.7933  -14.2127   21.7275 N   0  0  0  0  0  0  0  0  0  0  0  0
    7.2910  -13.5148   20.6654 C   0  0  0  0  0  0  0  0  0  0  0  0
    6.7352  -12.5841   19.8204 C   0  0  0  0  0  0  0  0  0  0  0  0
    7.4831  -12.0274   18.8216 C   0  0  0  0  0  0  0  0  0  0  0  0
    8.7986  -12.4144   18.6777 C   0  0  0  0  0  0  0  0  0  0  0  0
    9.3424  -13.3443   19.5268 C   0  0  0  0  0  0  0  0  0  0  0  0
    8.6046  -13.9275   20.5509 C   0  0  0  0  0  0  0  0  0  0  0  0
   11.9220  -16.9888   20.9616 C   0  0  0  0  0  0  0  0  0  0  0  0
   12.2418  -17.8967   21.7776 O   0  0  0  0  0  0  0  0  0  0  0  0
   12.9978  -16.3690   20.2686 N   0  0  0  0  0  0  0  0  0  0  0  0
   14.3710  -16.7851   20.4678 C   0  0  1  0  0  0  0  0  0  0  0  0
   15.1589  -16.3851   19.2389 C   0  0  0  0  0  0  0  0  0  0  0  0
   14.8262  -14.6342   18.9061 S   0  0  0  0  0  0  0  0  0  0  0  0
   14.9997  -16.1135   21.6283 C   0  0  0  0  0  0  0  0  0  0  0  0
   14.7730  -14.9356   21.9879 O   0  0  0  0  0  0  0  0  0  0  0  0
   15.9318  -16.8675   22.3904 N   0  0  0  0  0  0  0  0  0  0  0  0
   16.5759  -16.2634   23.5728 C   0  0  1  0  0  0  0  0  0  0  0  0
   16.6939  -17.3655   24.5907 C   0  0  0  0  0  0  0  0  0  0  0  0
   15.4706  -17.7237   25.2905 C   0  0  0  0  0  0  0  0  0  0  0  0
   14.2124  -17.1960   25.2061 C   0  0  0  0  0  0  0  0  0  0  0  0
   13.3960  -17.9153   26.0184 N   0  0  0  0  0  0  0  0  0  0  0  0
   14.1126  -18.8662   26.5960 C   0  0  0  0  0  0  0  0  0  0  0  0
   15.3598  -18.7680   26.1720 N   0  0  0  0  0  0  0  0  0  0  0  0
   17.9801  -15.9637   23.1153 C   0  0  0  0  0  0  0  0  0  0  0  0
   18.9388  -15.3175   23.8557 O   0  0  0  0  0  0  0  0  0  0  0  0
   18.2882  -16.3516   21.9358 O   0  0  0  0  0  0  0  0  0  0  0  0
  2  1  1  1
  2  3  1  0
  3  4  1  0
  4  5  2  0
  6  5  1  0
  7  6  1  0
  8  7  2  0
  9  8  1  0
 10 11  1  0
 10  9  2  0
 11 12  2  0
 12  7  1  0
 12  4  1  0
 13  2  1  0
 13 15  1  0
 14 13  2  0
 16 15  1  0
 16 17  1  6
 17 18  1  0
 19 16  1  0
 20 19  2  0
 21 19  1  0
 22 21  1  0
 23 24  1  0
 22 23  1  1
 24 25  2  0
 26 25  1  0
 27 26  1  0
 28 27  2  0
 28 24  1  0
 29 22  1  0
 29 30  1  0
 31 29  2  0
M  END
$$$$
