WCH.pdb
     RDKit          3D

 31 33  0  0  1  0  0  0  0  0999 V2000
    7.3084  -17.3940   25.6480 N   0  0  0  0  0  0  0  0  0  0  0  0
    7.4262  -16.2732   24.7765 C   0  0  1  0  0  0  0  0  0  0  0  0
    8.5981  -15.4253   25.1881 C   0  0  0  0  0  0  0  0  0  0  0  0
    8.3712  -14.5501   26.3333 C   0  0  0  0  0  0  0  0  0  0  0  0
    9.0660  -14.6464   27.5181 C   0  0  0  0  0  0  0  0  0  0  0  0
    8.5824  -13.7104   28.3416 N   0  0  0  0  0  0  0  0  0  0  0  0
    7.5872  -12.9911   27.7458 C   0  0  0  0  0  0  0  0  0  0  0  0
    6.8072  -11.9454   28.1786 C   0  0  0  0  0  0  0  0  0  0  0  0
    5.8687  -11.3975   27.3505 C   0  0  0  0  0  0  0  0  0  0  0  0
    5.7193  -11.9102   26.0793 C   0  0  0  0  0  0  0  0  0  0  0  0
    6.5031  -12.9540   25.6584 C   0  0  0  0  0  0  0  0  0  0  0  0
    7.4650  -13.5313   26.4800 C   0  0  0  0  0  0  0  0  0  0  0  0
    7.5922  -16.6545   23.3385 C   0  0  0  0  0  0  0  0  0  0  0  0
    7.8232  -17.8512   23.0111 O   0  0  0  0  0  0  0  0  0  0  0  0
    7.5046  -15.7233   22.2675 N   0  0  0  0  0  0  0  0  0  0  0  0
    7.4926  -16.1537   20.8845 C   0  0  1  0  0  0  0  0  0  0  0  0
    6.8954  -15.0359   20.0568 C   0  0  0  0  0  0  0  0  0  0  0  0
    7.7656  -13.5019   20.4771 S   0  0  0  0  0  0  0  0  0  0  0  0
    8.8552  -16.4052   20.3616 C   0  0  0  0  0  0  0  0  0  0  0  0
    9.1264  -16.7164   19.1794 O   0  0  0  0  0  0  0  0  0  0  0  0
    9.9359  -16.2828   21.2755 N   0  0  0  0  0  0  0  0  0  0  0  0
   11.3242  -16.4341   20.7984 C   0  0  1  0  0  0  0  0  0  0  0  0
   11.8502  -15.0382   20.5998 C   0  0  0  0  0  0  0  0  0  0  0  0
   13.2176  -14.9325   20.1167 C   0  0  0  0  0  0  0  0  0  0  0  0
   14.1468  -15.9023   19.8620 C   0  0  0  0  0  0  0  0  0  0  0  0
   15.2598  -15.3029   19.3664 N   0  0  0  0  0  0  0  0  0  0  0  0
   15.0420  -13.9988   19.3083 C   0  0  0  0  0  0  0  0  0  0  0  0
   13.8223  -13.7567   19.7539 N   0  0  0  0  0  0  0  0  0  0  0  0
   12.0634  -16.9953   21.9858 C   0  0  0  0  0  0  0  0  0  0  0  0
   11.5044  -17.2967   23.2029 O   0  0  0  0  0  0  0  0  0  0  0  0
   13.3159  -17.2028   21.8289 O   0  0  0  0  0  0  0  0  0  0  0  0
  2  1  1  1
  2  3  1  0
  3  4  1  0
  4  5  2  0
  6  5  1  0
  7  6  1  0
  8  7  2  0
  9  8  1  0
 10 11  1  0
 10  9  2  0
 11 12  2  0
 12  7  1  0
 12  4  1  0
 13  2  1  0
 13 15  1  0
 14 13  2  0
 16 15  1  0
 16 17  1  6
 17 18  1  0
 19 16  1  0
 20 19  2  0
 21 19  1  0
 22 21  1  0
 23 24  1  0
 22 23  1  1
 24 25  2  0
 26 25  1  0
 27 26  1  0
 28 27  2  0
 28 24  1  0
 29 22  1  0
 29 30  1  0
 31 29  2  0
M  END
$$$$
