WCH.pdb
     RDKit          3D

 31 33  0  0  1  0  0  0  0  0999 V2000
    6.8473  -17.2206   20.8169 N   0  0  0  0  0  0  0  0  0  0  0  0
    7.5408  -16.4782   21.8155 C   0  0  1  0  0  0  0  0  0  0  0  0
    6.7420  -15.2625   22.1972 C   0  0  0  0  0  0  0  0  0  0  0  0
    7.4776  -14.2238   22.9106 C   0  0  0  0  0  0  0  0  0  0  0  0
    8.6265  -13.6351   22.4318 C   0  0  0  0  0  0  0  0  0  0  0  0
    9.0360  -12.7537   23.3502 N   0  0  0  0  0  0  0  0  0  0  0  0
    8.1981  -12.7336   24.4273 C   0  0  0  0  0  0  0  0  0  0  0  0
    8.1986  -12.0064   25.5937 C   0  0  0  0  0  0  0  0  0  0  0  0
    7.2094  -12.1874   26.5185 C   0  0  0  0  0  0  0  0  0  0  0  0
    6.2157  -13.1081   26.2616 C   0  0  0  0  0  0  0  0  0  0  0  0
    6.2255  -13.8282   25.0943 C   0  0  0  0  0  0  0  0  0  0  0  0
    7.2200  -13.6651   24.1363 C   0  0  0  0  0  0  0  0  0  0  0  0
    7.8274  -17.2711   23.0525 C   0  0  0  0  0  0  0  0  0  0  0  0
    6.8908  -17.8087   23.7052 O   0  0  0  0  0  0  0  0  0  0  0  0
    9.1378  -17.4702   23.5675 N   0  0  0  0  0  0  0  0  0  0  0  0
    9.3754  -18.2634   24.7560 C   0  0  1  0  0  0  0  0  0  0  0  0
    9.4259  -19.7178   24.3395 C   0  0  0  0  0  0  0  0  0  0  0  0
   10.4421  -19.8364   22.8427 S   0  0  0  0  0  0  0  0  0  0  0  0
   10.6735  -17.9459   25.3942 C   0  0  0  0  0  0  0  0  0  0  0  0
   11.6957  -17.5503   24.7885 O   0  0  0  0  0  0  0  0  0  0  0  0
   10.7618  -18.1033   26.8033 N   0  0  0  0  0  0  0  0  0  0  0  0
   12.0520  -17.8931   27.4881 C   0  0  1  0  0  0  0  0  0  0  0  0
   11.7221  -17.2524   28.8092 C   0  0  0  0  0  0  0  0  0  0  0  0
   10.8772  -16.0703   28.7537 C   0  0  0  0  0  0  0  0  0  0  0  0
   10.2947  -15.4446   27.6869 C   0  0  0  0  0  0  0  0  0  0  0  0
    9.5480  -14.4126   28.1570 N   0  0  0  0  0  0  0  0  0  0  0  0
    9.6533  -14.3868   29.4760 C   0  0  0  0  0  0  0  0  0  0  0  0
   10.4463  -15.3736   29.8531 N   0  0  0  0  0  0  0  0  0  0  0  0
   12.5321  -19.2857   27.8063 C   0  0  0  0  0  0  0  0  0  0  0  0
   13.7433  -19.6019   28.3701 O   0  0  0  0  0  0  0  0  0  0  0  0
   11.7311  -20.2416   27.5214 O   0  0  0  0  0  0  0  0  0  0  0  0
  2  1  1  6
  2  3  1  0
  3  4  1  0
  4  5  2  0
  6  5  1  0
  7  6  1  0
  8  7  2  0
  9  8  1  0
 10 11  1  0
 10  9  2  0
 11 12  2  0
 12  7  1  0
 12  4  1  0
 13  2  1  0
 13 15  1  0
 14 13  2  0
 16 15  1  0
 16 17  1  6
 17 18  1  0
 19 16  1  0
 20 19  2  0
 21 19  1  0
 22 21  1  0
 23 24  1  0
 22 23  1  1
 24 25  2  0
 26 25  1  0
 27 26  1  0
 28 27  2  0
 28 24  1  0
 29 22  1  0
 29 30  1  0
 31 29  2  0
M  END
$$$$
