WCH.pdb
     RDKit          3D

 31 33  0  0  1  0  0  0  0  0999 V2000
    8.1445  -17.7747   25.4349 N   0  0  0  0  0  0  0  0  0  0  0  0
    7.4198  -17.6570   24.2141 C   0  0  1  0  0  0  0  0  0  0  0  0
    6.5990  -16.3969   24.2251 C   0  0  0  0  0  0  0  0  0  0  0  0
    6.8126  -15.5158   25.3684 C   0  0  0  0  0  0  0  0  0  0  0  0
    6.8565  -15.9539   26.6729 C   0  0  0  0  0  0  0  0  0  0  0  0
    7.0422  -14.8804   27.4484 N   0  0  0  0  0  0  0  0  0  0  0  0
    7.1245  -13.7390   26.7047 C   0  0  0  0  0  0  0  0  0  0  0  0
    7.3128  -12.4199   27.0419 C   0  0  0  0  0  0  0  0  0  0  0  0
    7.3628  -11.4611   26.0698 C   0  0  0  0  0  0  0  0  0  0  0  0
    7.2219  -11.8391   24.7514 C   0  0  0  0  0  0  0  0  0  0  0  0
    7.0343  -13.1585   24.4269 C   0  0  0  0  0  0  0  0  0  0  0  0
    6.9784  -14.1547   25.3953 C   0  0  0  0  0  0  0  0  0  0  0  0
    8.2976  -17.6466   23.0016 C   0  0  0  0  0  0  0  0  0  0  0  0
    7.8188  -17.8767   21.8569 O   0  0  0  0  0  0  0  0  0  0  0  0
    9.6943  -17.3847   23.0498 N   0  0  0  0  0  0  0  0  0  0  0  0
   10.5251  -17.4690   21.8661 C   0  0  1  0  0  0  0  0  0  0  0  0
   10.2778  -16.2268   21.0374 C   0  0  0  0  0  0  0  0  0  0  0  0
   11.2855  -16.3466   19.5349 S   0  0  0  0  0  0  0  0  0  0  0  0
   11.9692  -17.4963   22.1931 C   0  0  0  0  0  0  0  0  0  0  0  0
   12.6164  -16.5387   22.6750 O   0  0  0  0  0  0  0  0  0  0  0  0
   12.6713  -18.7049   21.9390 N   0  0  0  0  0  0  0  0  0  0  0  0
   14.0704  -18.8513   22.3854 C   0  0  1  0  0  0  0  0  0  0  0  0
   14.3951  -20.3157   22.2624 C   0  0  0  0  0  0  0  0  0  0  0  0
   13.8718  -21.1772   23.3104 C   0  0  0  0  0  0  0  0  0  0  0  0
   13.1925  -20.8694   24.4561 C   0  0  0  0  0  0  0  0  0  0  0  0
   12.8652  -22.0305   25.0793 N   0  0  0  0  0  0  0  0  0  0  0  0
   13.3206  -23.0384   24.3524 C   0  0  0  0  0  0  0  0  0  0  0  0
   13.9273  -22.5469   23.2869 N   0  0  0  0  0  0  0  0  0  0  0  0
   14.8732  -18.1532   21.3181 C   0  0  0  0  0  0  0  0  0  0  0  0
   16.1908  -17.7828   21.4260 O   0  0  0  0  0  0  0  0  0  0  0  0
   14.2604  -17.8921   20.2259 O   0  0  0  0  0  0  0  0  0  0  0  0
  2  1  1  1
  2  3  1  0
  3  4  1  0
  4  5  2  0
  6  5  1  0
  7  6  1  0
  8  7  2  0
  9  8  1  0
 10 11  1  0
 10  9  2  0
 11 12  2  0
 12  7  1  0
 12  4  1  0
 13  2  1  0
 13 15  1  0
 14 13  2  0
 16 15  1  0
 16 17  1  6
 17 18  1  0
 19 16  1  0
 20 19  2  0
 21 19  1  0
 22 21  1  0
 23 24  1  0
 22 23  1  6
 24 25  2  0
 26 25  1  0
 27 26  1  0
 28 27  2  0
 28 24  1  0
 29 22  1  0
 29 30  1  0
 31 29  2  0
M  END
$$$$
