WCH.pdb
     RDKit          3D

 31 33  0  0  1  0  0  0  0  0999 V2000
    7.8771  -16.7116   20.5931 N   0  0  0  0  0  0  0  0  0  0  0  0
    8.3746  -16.1569   21.8072 C   0  0  1  0  0  0  0  0  0  0  0  0
    7.2314  -15.8362   22.7302 C   0  0  0  0  0  0  0  0  0  0  0  0
    7.1727  -14.4577   23.2051 C   0  0  0  0  0  0  0  0  0  0  0  0
    7.2749  -13.3603   22.3799 C   0  0  0  0  0  0  0  0  0  0  0  0
    7.2040  -12.2716   23.1531 N   0  0  0  0  0  0  0  0  0  0  0  0
    7.0572  -12.6054   24.4683 C   0  0  0  0  0  0  0  0  0  0  0  0
    6.9369  -11.8525   25.6119 C   0  0  0  0  0  0  0  0  0  0  0  0
    6.7913  -12.4625   26.8258 C   0  0  0  0  0  0  0  0  0  0  0  0
    6.7674  -13.8399   26.8821 C   0  0  0  0  0  0  0  0  0  0  0  0
    6.8886  -14.5809   25.7343 C   0  0  0  0  0  0  0  0  0  0  0  0
    7.0387  -13.9868   24.4861 C   0  0  0  0  0  0  0  0  0  0  0  0
    9.3305  -17.0589   22.5239 C   0  0  0  0  0  0  0  0  0  0  0  0
    9.1010  -18.2960   22.6200 O   0  0  0  0  0  0  0  0  0  0  0  0
   10.5318  -16.6008   23.1313 N   0  0  0  0  0  0  0  0  0  0  0  0
   11.3648  -17.4794   23.9266 C   0  0  1  0  0  0  0  0  0  0  0  0
   12.8018  -17.0355   23.7552 C   0  0  0  0  0  0  0  0  0  0  0  0
   12.8532  -15.2306   23.9187 S   0  0  0  0  0  0  0  0  0  0  0  0
   11.0509  -17.3968   25.3715 C   0  0  0  0  0  0  0  0  0  0  0  0
   10.3781  -16.4889   25.9112 O   0  0  0  0  0  0  0  0  0  0  0  0
   11.5537  -18.4299   26.2069 N   0  0  0  0  0  0  0  0  0  0  0  0
   10.9744  -18.6399   27.5479 C   0  0  1  0  0  0  0  0  0  0  0  0
    9.9424  -19.7238   27.3900 C   0  0  0  0  0  0  0  0  0  0  0  0
    8.6287  -19.2952   26.9374 C   0  0  0  0  0  0  0  0  0  0  0  0
    8.1596  -18.0496   26.6259 C   0  0  0  0  0  0  0  0  0  0  0  0
    6.8786  -18.1752   26.1935 N   0  0  0  0  0  0  0  0  0  0  0  0
    6.5488  -19.4565   26.2289 C   0  0  0  0  0  0  0  0  0  0  0  0
    7.5856  -20.1446   26.6722 N   0  0  0  0  0  0  0  0  0  0  0  0
   12.1002  -19.2464   28.3454 C   0  0  0  0  0  0  0  0  0  0  0  0
   13.3599  -19.5139   27.8698 O   0  0  0  0  0  0  0  0  0  0  0  0
   11.8433  -19.5289   29.5664 O   0  0  0  0  0  0  0  0  0  0  0  0
  2  1  1  6
  2  3  1  0
  3  4  1  0
  4  5  2  0
  6  5  1  0
  7  6  1  0
  8  7  2  0
  9  8  1  0
 10 11  1  0
 10  9  2  0
 11 12  2  0
 12  7  1  0
 12  4  1  0
 13  2  1  0
 13 15  1  0
 14 13  2  0
 16 15  1  0
 16 17  1  1
 17 18  1  0
 19 16  1  0
 20 19  2  0
 21 19  1  0
 22 21  1  0
 23 24  1  0
 22 23  1  6
 24 25  2  0
 26 25  1  0
 27 26  1  0
 28 27  2  0
 28 24  1  0
 29 22  1  0
 29 30  1  0
 31 29  2  0
M  END
$$$$
