WCH.pdb
     RDKit          3D

 31 33  0  0  1  0  0  0  0  0999 V2000
    6.6110  -17.8994   24.2791 N   0  0  0  0  0  0  0  0  0  0  0  0
    6.8118  -16.5696   23.8094 C   0  0  1  0  0  0  0  0  0  0  0  0
    7.7209  -15.8262   24.7489 C   0  0  0  0  0  0  0  0  0  0  0  0
    7.0570  -14.9356   25.6950 C   0  0  0  0  0  0  0  0  0  0  0  0
    6.0703  -15.3429   26.5645 C   0  0  0  0  0  0  0  0  0  0  0  0
    5.6794  -14.2676   27.2567 N   0  0  0  0  0  0  0  0  0  0  0  0
    6.3730  -13.1546   26.8785 C   0  0  0  0  0  0  0  0  0  0  0  0
    6.3316  -11.8457   27.2955 C   0  0  0  0  0  0  0  0  0  0  0  0
    7.1642  -10.9180   26.7361 C   0  0  0  0  0  0  0  0  0  0  0  0
    8.0422  -11.3171   25.7507 C   0  0  0  0  0  0  0  0  0  0  0  0
    8.0744  -12.6261   25.3424 C   0  0  0  0  0  0  0  0  0  0  0  0
    7.2382  -13.5908   25.8936 C   0  0  0  0  0  0  0  0  0  0  0  0
    7.3933  -16.5085   22.4313 C   0  0  0  0  0  0  0  0  0  0  0  0
    8.1816  -17.4055   22.0237 O   0  0  0  0  0  0  0  0  0  0  0  0
    7.1084  -15.4652   21.5080 N   0  0  0  0  0  0  0  0  0  0  0  0
    7.9816  -15.1818   20.3876 C   0  0  1  0  0  0  0  0  0  0  0  0
    7.6706  -13.7829   19.9004 C   0  0  0  0  0  0  0  0  0  0  0  0
    8.6574  -13.4768   18.4105 S   0  0  0  0  0  0  0  0  0  0  0  0
    9.4123  -15.2040   20.7695 C   0  0  0  0  0  0  0  0  0  0  0  0
    9.9294  -14.4971   21.6645 O   0  0  0  0  0  0  0  0  0  0  0  0
   10.2607  -16.0983   20.0635 N   0  0  0  0  0  0  0  0  0  0  0  0
   11.6966  -16.1689   20.3969 C   0  0  1  0  0  0  0  0  0  0  0  0
   11.9754  -17.6093   20.7321 C   0  0  0  0  0  0  0  0  0  0  0  0
   11.6418  -18.0277   22.0841 C   0  0  0  0  0  0  0  0  0  0  0  0
   11.5239  -17.2997   23.2352 C   0  0  0  0  0  0  0  0  0  0  0  0
   11.1331  -18.1386   24.2288 N   0  0  0  0  0  0  0  0  0  0  0  0
   11.0069  -19.3554   23.7236 C   0  0  0  0  0  0  0  0  0  0  0  0
   11.3074  -19.3093   22.4381 N   0  0  0  0  0  0  0  0  0  0  0  0
   12.3931  -15.9011   19.0876 C   0  0  0  0  0  0  0  0  0  0  0  0
   13.7521  -15.9032   18.8927 O   0  0  0  0  0  0  0  0  0  0  0  0
   11.6398  -15.6536   18.0837 O   0  0  0  0  0  0  0  0  0  0  0  0
  2  1  1  1
  2  3  1  0
  3  4  1  0
  4  5  2  0
  6  5  1  0
  7  6  1  0
  8  7  2  0
  9  8  1  0
 10 11  1  0
 10  9  2  0
 11 12  2  0
 12  7  1  0
 12  4  1  0
 13  2  1  0
 13 15  1  0
 14 13  2  0
 16 15  1  0
 16 17  1  1
 17 18  1  0
 19 16  1  0
 20 19  2  0
 21 19  1  0
 22 21  1  0
 23 24  1  0
 22 23  1  6
 24 25  2  0
 26 25  1  0
 27 26  1  0
 28 27  2  0
 28 24  1  0
 29 22  1  0
 29 30  1  0
 31 29  2  0
M  END
$$$$
