WCH.pdb
     RDKit          3D

 31 33  0  0  1  0  0  0  0  0999 V2000
   26.0304  -71.1653   -4.9525 N   0  0  0  0  0  0  0  0  0  0  0  0
   25.4516  -72.3514   -4.4162 C   0  0  1  0  0  0  0  0  0  0  0  0
   24.1221  -72.6128   -5.0687 C   0  0  0  0  0  0  0  0  0  0  0  0
   23.1816  -73.4076   -4.2860 C   0  0  0  0  0  0  0  0  0  0  0  0
   22.1347  -72.8687   -3.5724 C   0  0  0  0  0  0  0  0  0  0  0  0
   21.5043  -73.8790   -2.9642 N   0  0  0  0  0  0  0  0  0  0  0  0
   22.0953  -75.0760   -3.2483 C   0  0  0  0  0  0  0  0  0  0  0  0
   21.8125  -76.3668   -2.8702 C   0  0  0  0  0  0  0  0  0  0  0  0
   22.5841  -77.4008   -3.3198 C   0  0  0  0  0  0  0  0  0  0  0  0
   23.6461  -77.1270   -4.1555 C   0  0  0  0  0  0  0  0  0  0  0  0
   23.9189  -75.8348   -4.5260 C   0  0  0  0  0  0  0  0  0  0  0  0
   23.1512  -74.7635   -4.0829 C   0  0  0  0  0  0  0  0  0  0  0  0
   26.3152  -73.5623   -4.5860 C   0  0  0  0  0  0  0  0  0  0  0  0
   25.8461  -74.6248   -5.0794 O   0  0  0  0  0  0  0  0  0  0  0  0
   27.6871  -73.6026   -4.2142 N   0  0  0  0  0  0  0  0  0  0  0  0
   28.3744  -72.4295   -3.7145 C   0  0  1  0  0  0  0  0  0  0  0  0
   27.3713  -71.5985   -2.9436 C   0  0  0  0  0  0  0  0  0  0  0  0
   27.6481  -69.8564   -3.3626 S   0  0  0  0  0  0  0  0  0  0  0  0
   29.4683  -72.7747   -2.7779 C   0  0  0  0  0  0  0  0  0  0  0  0
   29.9295  -72.0126   -1.8977 O   0  0  0  0  0  0  0  0  0  0  0  0
   30.0359  -74.0721   -2.8898 N   0  0  0  0  0  0  0  0  0  0  0  0
   29.1787  -75.2238   -3.2317 C   0  0  1  0  0  0  0  0  0  0  0  0
   29.1417  -75.2828   -4.7351 C   0  0  0  0  0  0  0  0  0  0  0  0
   28.0621  -76.0631   -5.3182 C   0  0  0  0  0  0  0  0  0  0  0  0
   27.6641  -77.3482   -5.0757 C   0  0  0  0  0  0  0  0  0  0  0  0
   26.5645  -77.6007   -5.8312 N   0  0  0  0  0  0  0  0  0  0  0  0
   26.2759  -76.5126   -6.5269 C   0  0  0  0  0  0  0  0  0  0  0  0
   27.1628  -75.5788   -6.2328 N   0  0  0  0  0  0  0  0  0  0  0  0
   29.9754  -76.4224   -2.7850 C   0  0  0  0  0  0  0  0  0  0  0  0
   30.2451  -77.5302   -3.5497 O   0  0  0  0  0  0  0  0  0  0  0  0
   30.4320  -76.3879   -1.5904 O   0  0  0  0  0  0  0  0  0  0  0  0
  2  1  1  6
  2  3  1  0
  3  4  1  0
  4  5  2  0
  6  5  1  0
  7  6  1  0
  8  7  2  0
  9  8  1  0
 10 11  1  0
 10  9  2  0
 11 12  2  0
 12  7  1  0
 12  4  1  0
 13  2  1  0
 13 15  1  0
 14 13  2  0
 16 15  1  0
 16 17  1  1
 17 18  1  0
 19 16  1  0
 20 19  2  0
 21 19  1  0
 22 21  1  0
 23 24  1  0
 22 23  1  6
 24 25  2  0
 26 25  1  0
 27 26  1  0
 28 27  2  0
 28 24  1  0
 29 22  1  0
 29 30  1  0
 31 29  2  0
M  END
$$$$
