VRW.pdb
     RDKit          3D

 33 34  0  0  1  0  0  0  0  0999 V2000
    6.9490  -13.4219   21.0179 C   0  0  0  0  0  0  0  0  0  0  0  0
    8.1954  -13.2457   20.1519 C   0  0  2  0  0  0  0  0  0  0  0  0
    8.0259  -12.1550   19.1433 C   0  0  0  0  0  0  0  0  0  0  0  0
    8.5274  -14.5896   19.5830 C   0  0  2  0  0  0  0  0  0  0  0  0
    7.5151  -14.8971   18.5853 N   0  0  0  0  0  0  0  0  0  0  0  0
    8.6622  -15.6638   20.5890 C   0  0  0  0  0  0  0  0  0  0  0  0
    7.6490  -16.3358   20.9057 O   0  0  0  0  0  0  0  0  0  0  0  0
   10.6353  -19.9439   17.8198 N   0  0  0  0  0  0  0  0  0  0  0  0
   12.0151  -19.5690   17.7059 C   0  0  0  0  0  0  0  0  0  0  0  0
   12.5691  -19.4139   16.5548 N   0  0  0  0  0  0  0  0  0  0  0  0
   12.8305  -19.3494   18.8590 N   0  0  0  0  0  0  0  0  0  0  0  0
   12.3395  -19.4064   20.1982 C   0  0  0  0  0  0  0  0  0  0  0  0
   11.0809  -18.5713   20.4214 C   0  0  0  0  0  0  0  0  0  0  0  0
   11.1778  -18.0204   21.8126 C   0  0  0  0  0  0  0  0  0  0  0  0
   10.0494  -17.0793   22.1755 C   0  0  2  0  0  0  0  0  0  0  0  0
    9.8804  -15.9943   21.2346 N   0  0  0  0  0  0  0  0  0  0  0  0
   10.3461  -16.4965   23.4965 C   0  0  0  0  0  0  0  0  0  0  0  0
   11.2358  -15.6302   23.5997 O   0  0  0  0  0  0  0  0  0  0  0  0
   13.5385  -19.0330   16.5142 N   0  0  0  0  0  0  0  0  0  0  0  0
    9.6175  -16.9286   24.6286 C   0  0  1  0  0  0  0  0  0  0  0  0
    9.9528  -16.5141   26.0029 C   0  0  0  0  0  0  0  0  0  0  0  0
    8.7171  -16.4525   26.8401 C   0  0  0  0  0  0  0  0  0  0  0  0
    7.7481  -15.4777   26.3080 C   0  0  0  0  0  0  0  0  0  0  0  0
    6.5500  -15.8817   25.7173 N   0  0  0  0  0  0  0  0  0  0  0  0
    5.8447  -14.7923   25.3751 C   0  0  0  0  0  0  0  0  0  0  0  0
    6.5616  -13.7168   25.7310 C   0  0  0  0  0  0  0  0  0  0  0  0
    6.3392  -12.3658   25.6153 C   0  0  0  0  0  0  0  0  0  0  0  0
    7.2350  -11.4135   26.0456 C   0  0  0  0  0  0  0  0  0  0  0  0
    8.4155  -11.8381   26.6212 C   0  0  0  0  0  0  0  0  0  0  0  0
    8.6728  -13.1808   26.7540 C   0  0  0  0  0  0  0  0  0  0  0  0
    7.7615  -14.1188   26.3182 C   0  0  0  0  0  0  0  0  0  0  0  0
   10.9847  -17.3704   26.5503 O   0  0  0  0  0  0  0  0  0  0  0  0
   11.3594  -18.4573   25.9851 O   0  0  0  0  0  0  0  0  0  0  0  0
  2  1  1  6
  2  3  1  0
  4  2  1  0
  4  5  1  6
  6  7  2  0
  6  4  1  0
  9 10  2  0
  9  8  1  0
 11  9  1  0
 12 11  1  0
 13 12  1  0
 13 14  1  0
 15 14  1  6
 15 16  1  0
 16  6  1  0
 17 19  1  0
 17 15  1  0
 18 17  2  0
 20 19  1  0
 20 21  1  1
 21 22  1  0
 22 30  1  0
 23 22  2  0
 23 24  1  0
 24 25  1  0
 25 26  1  0
 26 27  2  0
 28 27  1  0
 29 28  2  0
 30 25  2  0
 30 29  1  0
 31 20  1  0
 32 31  2  0
 33 31  1  0
M  END
$$$$
