VRW.pdb
     RDKit          3D

 33 34  0  0  1  0  0  0  0  0999 V2000
    7.6446  -18.8117   18.8957 C   0  0  0  0  0  0  0  0  0  0  0  0
    8.7388  -19.7372   19.4257 C   0  0  2  0  0  0  0  0  0  0  0  0
    8.3107  -21.1699   19.4198 C   0  0  0  0  0  0  0  0  0  0  0  0
    9.1540  -19.2049   20.7614 C   0  0  2  0  0  0  0  0  0  0  0  0
    8.0923  -19.5254   21.7019 N   0  0  0  0  0  0  0  0  0  0  0  0
    9.4894  -17.7657   20.7694 C   0  0  0  0  0  0  0  0  0  0  0  0
   10.4294  -17.3526   20.0453 O   0  0  0  0  0  0  0  0  0  0  0  0
    8.4849  -14.2326   16.2363 N   0  0  0  0  0  0  0  0  0  0  0  0
    8.5210  -13.3492   17.3658 C   0  0  0  0  0  0  0  0  0  0  0  0
    8.5352  -12.0718   17.2106 N   0  0  0  0  0  0  0  0  0  0  0  0
    8.5399  -13.8454   18.7059 N   0  0  0  0  0  0  0  0  0  0  0  0
    7.8785  -15.0420   19.1164 C   0  0  0  0  0  0  0  0  0  0  0  0
    7.0973  -14.8897   20.4194 C   0  0  0  0  0  0  0  0  0  0  0  0
    8.0825  -14.4369   21.4550 C   0  0  0  0  0  0  0  0  0  0  0  0
    9.2109  -15.4172   21.6925 C   0  0  2  0  0  0  0  0  0  0  0  0
    8.8103  -16.7997   21.5542 N   0  0  0  0  0  0  0  0  0  0  0  0
    9.7068  -15.2204   23.0666 C   0  0  0  0  0  0  0  0  0  0  0  0
   10.2113  -14.1270   23.3868 O   0  0  0  0  0  0  0  0  0  0  0  0
    8.6688  -11.4681   18.0497 N   0  0  0  0  0  0  0  0  0  0  0  0
    9.6037  -16.2753   24.0026 C   0  0  1  0  0  0  0  0  0  0  0  0
   10.1191  -16.1768   25.3801 C   0  0  0  0  0  0  0  0  0  0  0  0
    9.0157  -16.4005   26.3620 C   0  0  0  0  0  0  0  0  0  0  0  0
    7.8643  -15.5198   26.0956 C   0  0  0  0  0  0  0  0  0  0  0  0
    6.6755  -16.0100   25.5533 N   0  0  0  0  0  0  0  0  0  0  0  0
    5.7890  -15.0058   25.4695 C   0  0  0  0  0  0  0  0  0  0  0  0
    6.3829  -13.9002   25.9408 C   0  0  0  0  0  0  0  0  0  0  0  0
    5.9603  -12.6003   26.0813 C   0  0  0  0  0  0  0  0  0  0  0  0
    6.7560  -11.5982   26.5882 C   0  0  0  0  0  0  0  0  0  0  0  0
    8.0427  -11.9160   26.9737 C   0  0  0  0  0  0  0  0  0  0  0  0
    8.5004  -13.2050   26.8484 C   0  0  0  0  0  0  0  0  0  0  0  0
    7.6868  -14.1948   26.3398 C   0  0  0  0  0  0  0  0  0  0  0  0
   11.2481  -17.0659   25.5609 O   0  0  0  0  0  0  0  0  0  0  0  0
   11.9490  -17.0916   26.6329 O   0  0  0  0  0  0  0  0  0  0  0  0
  2  1  1  1
  2  3  1  0
  4  2  1  0
  4  5  1  1
  6  7  2  0
  6  4  1  0
  9 10  2  0
  9  8  1  0
 11  9  1  0
 12 11  1  0
 13 12  1  0
 13 14  1  0
 15 14  1  1
 15 16  1  0
 16  6  1  0
 17 19  1  0
 17 15  1  0
 18 17  2  0
 20 19  1  0
 20 21  1  1
 21 22  1  0
 22 30  1  0
 23 22  2  0
 23 24  1  0
 24 25  1  0
 25 26  1  0
 26 27  2  0
 28 27  1  0
 29 28  2  0
 30 25  2  0
 30 29  1  0
 31 20  1  0
 32 31  2  0
 33 31  1  0
M  END
$$$$
