VRW.pdb
     RDKit          3D

 33 34  0  0  1  0  0  0  0  0999 V2000
    6.5322  -21.9384   21.4538 C   0  0  0  0  0  0  0  0  0  0  0  0
    6.6780  -22.2286   22.9469 C   0  0  2  0  0  0  0  0  0  0  0  0
    5.6483  -23.1986   23.4311 C   0  0  0  0  0  0  0  0  0  0  0  0
    6.6863  -20.9081   23.6513 C   0  0  2  0  0  0  0  0  0  0  0  0
    5.2998  -20.5159   23.8476 N   0  0  0  0  0  0  0  0  0  0  0  0
    7.4715  -19.8567   22.9716 C   0  0  0  0  0  0  0  0  0  0  0  0
    8.7081  -20.0189   22.8194 O   0  0  0  0  0  0  0  0  0  0  0  0
    6.9317  -12.7960   18.9212 N   0  0  0  0  0  0  0  0  0  0  0  0
    7.9210  -13.3493   18.0424 C   0  0  0  0  0  0  0  0  0  0  0  0
    8.4802  -12.6298   17.1337 N   0  0  0  0  0  0  0  0  0  0  0  0
    8.3295  -14.7156   18.1380 N   0  0  0  0  0  0  0  0  0  0  0  0
    7.5927  -15.7146   18.8429 C   0  0  0  0  0  0  0  0  0  0  0  0
    7.6660  -15.5676   20.3610 C   0  0  0  0  0  0  0  0  0  0  0  0
    6.8862  -16.7116   20.9367 C   0  0  0  0  0  0  0  0  0  0  0  0
    7.6771  -17.5605   21.9085 C   0  0  2  0  0  0  0  0  0  0  0  0
    6.9145  -18.6533   22.4701 N   0  0  0  0  0  0  0  0  0  0  0  0
    8.1200  -16.6954   23.0168 C   0  0  0  0  0  0  0  0  0  0  0  0
    7.2911  -15.9688   23.5977 O   0  0  0  0  0  0  0  0  0  0  0  0
    9.2390  -13.0531   16.5580 N   0  0  0  0  0  0  0  0  0  0  0  0
    9.4796  -16.7016   23.4054 C   0  0  1  0  0  0  0  0  0  0  0  0
   10.0238  -15.7922   24.4299 C   0  0  0  0  0  0  0  0  0  0  0  0
    9.2888  -15.9666   25.7187 C   0  0  0  0  0  0  0  0  0  0  0  0
    8.0573  -15.1576   25.7558 C   0  0  0  0  0  0  0  0  0  0  0  0
    6.7933  -15.7399   25.6531 N   0  0  0  0  0  0  0  0  0  0  0  0
    5.8617  -14.7810   25.7705 C   0  0  0  0  0  0  0  0  0  0  0  0
    6.4998  -13.6146   25.9427 C   0  0  0  0  0  0  0  0  0  0  0  0
    6.0586  -12.3233   26.1039 C   0  0  0  0  0  0  0  0  0  0  0  0
    6.9059  -11.2493   26.2551 C   0  0  0  0  0  0  0  0  0  0  0  0
    8.2664  -11.4821   26.2434 C   0  0  0  0  0  0  0  0  0  0  0  0
    8.7448  -12.7598   26.0848 C   0  0  0  0  0  0  0  0  0  0  0  0
    7.8793  -13.8224   25.9366 C   0  0  0  0  0  0  0  0  0  0  0  0
   11.4567  -15.9663   24.5489 O   0  0  0  0  0  0  0  0  0  0  0  0
   12.0438  -17.0812   24.3177 O   0  0  0  0  0  0  0  0  0  0  0  0
  2  1  1  6
  2  3  1  0
  4  2  1  0
  4  5  1  6
  6  7  2  0
  6  4  1  0
  9 10  2  0
  9  8  1  0
 11  9  1  0
 12 11  1  0
 13 12  1  0
 13 14  1  0
 15 14  1  6
 15 16  1  0
 16  6  1  0
 17 19  1  0
 17 15  1  0
 18 17  2  0
 20 19  1  0
 20 21  1  1
 21 22  1  0
 22 30  1  0
 23 22  2  0
 23 24  1  0
 24 25  1  0
 25 26  1  0
 26 27  2  0
 28 27  1  0
 29 28  2  0
 30 25  2  0
 30 29  1  0
 31 20  1  0
 32 31  2  0
 33 31  1  0
M  END
$$$$
