VRW.pdb
     RDKit          3D

 33 34  0  0  1  0  0  0  0  0999 V2000
    7.5219  -12.7347   21.3234 C   0  0  0  0  0  0  0  0  0  0  0  0
    8.4239  -12.9497   20.1090 C   0  0  2  0  0  0  0  0  0  0  0  0
    8.2461  -11.8763   19.0834 C   0  0  0  0  0  0  0  0  0  0  0  0
    8.1755  -14.3420   19.6195 C   0  0  2  0  0  0  0  0  0  0  0  0
    6.8237  -14.3758   19.0844 N   0  0  0  0  0  0  0  0  0  0  0  0
    8.4006  -15.3957   20.6308 C   0  0  0  0  0  0  0  0  0  0  0  0
    7.4265  -15.8153   21.3044 O   0  0  0  0  0  0  0  0  0  0  0  0
   14.1213  -22.2237   20.9176 N   0  0  0  0  0  0  0  0  0  0  0  0
   12.8053  -22.5045   21.4142 C   0  0  0  0  0  0  0  0  0  0  0  0
   12.3860  -23.7146   21.5391 N   0  0  0  0  0  0  0  0  0  0  0  0
   11.9075  -21.4589   21.7929 N   0  0  0  0  0  0  0  0  0  0  0  0
   12.2281  -20.0705   21.7071 C   0  0  0  0  0  0  0  0  0  0  0  0
   11.1795  -19.1628   22.3459 C   0  0  0  0  0  0  0  0  0  0  0  0
   10.9254  -18.0541   21.3691 C   0  0  0  0  0  0  0  0  0  0  0  0
    9.9001  -17.0469   21.8433 C   0  0  2  0  0  0  0  0  0  0  0  0
    9.6656  -15.9770   20.8992 N   0  0  0  0  0  0  0  0  0  0  0  0
   10.3914  -16.4496   23.0982 C   0  0  0  0  0  0  0  0  0  0  0  0
   11.4099  -15.7319   23.0792 O   0  0  0  0  0  0  0  0  0  0  0  0
   11.4188  -23.8741   21.8935 N   0  0  0  0  0  0  0  0  0  0  0  0
    9.7006  -16.6993   24.3064 C   0  0  2  0  0  0  0  0  0  0  0  0
   10.2980  -16.4656   25.6335 C   0  0  0  0  0  0  0  0  0  0  0  0
    9.9727  -15.0880   26.1114 C   0  0  0  0  0  0  0  0  0  0  0  0
    8.5342  -14.7940   25.9835 C   0  0  0  0  0  0  0  0  0  0  0  0
    7.5930  -15.8055   25.7876 N   0  0  0  0  0  0  0  0  0  0  0  0
    6.3670  -15.2598   25.7612 C   0  0  0  0  0  0  0  0  0  0  0  0
    6.5078  -13.9378   25.9333 C   0  0  0  0  0  0  0  0  0  0  0  0
    5.6075  -12.9008   25.9812 C   0  0  0  0  0  0  0  0  0  0  0  0
    5.9778  -11.5871   26.1579 C   0  0  0  0  0  0  0  0  0  0  0  0
    7.3206  -11.2980   26.2931 C   0  0  0  0  0  0  0  0  0  0  0  0
    8.2500  -12.3085   26.2507 C   0  0  0  0  0  0  0  0  0  0  0  0
    7.8585  -13.6183   26.0745 C   0  0  0  0  0  0  0  0  0  0  0  0
    9.9024  -17.5100   26.5556 O   0  0  0  0  0  0  0  0  0  0  0  0
   10.3525  -17.5888   27.7525 O   0  0  0  0  0  0  0  0  0  0  0  0
  2  1  1  1
  2  3  1  0
  4  2  1  0
  4  5  1  1
  6  7  2  0
  6  4  1  0
  9 10  2  0
  9  8  1  0
 11  9  1  0
 12 11  1  0
 13 12  1  0
 13 14  1  0
 15 14  1  6
 15 16  1  0
 16  6  1  0
 17 19  1  0
 17 15  1  0
 18 17  2  0
 20 19  1  0
 20 21  1  6
 21 22  1  0
 22 30  1  0
 23 22  2  0
 23 24  1  0
 24 25  1  0
 25 26  1  0
 26 27  2  0
 28 27  1  0
 29 28  2  0
 30 25  2  0
 30 29  1  0
 31 20  1  0
 32 31  2  0
 33 31  1  0
M  END
$$$$
