VRW.pdb
     RDKit          3D

 33 34  0  0  1  0  0  0  0  0999 V2000
    7.4233  -12.2584   18.8673 C   0  0  0  0  0  0  0  0  0  0  0  0
    7.5165  -13.2621   20.0156 C   0  0  2  0  0  0  0  0  0  0  0  0
    8.2099  -12.6848   21.2080 C   0  0  0  0  0  0  0  0  0  0  0  0
    8.1378  -14.5058   19.4613 C   0  0  2  0  0  0  0  0  0  0  0  0
    7.3494  -14.9030   18.3057 N   0  0  0  0  0  0  0  0  0  0  0  0
    8.2856  -15.6042   20.4388 C   0  0  0  0  0  0  0  0  0  0  0  0
    7.2642  -16.2356   20.8085 O   0  0  0  0  0  0  0  0  0  0  0  0
   11.8140  -21.6219   24.3771 N   0  0  0  0  0  0  0  0  0  0  0  0
   11.6813  -22.2293   23.0846 C   0  0  0  0  0  0  0  0  0  0  0  0
   11.4275  -23.4851   22.9629 N   0  0  0  0  0  0  0  0  0  0  0  0
   11.8212  -21.4709   21.8813 N   0  0  0  0  0  0  0  0  0  0  0  0
   12.1075  -20.0726   21.8557 C   0  0  0  0  0  0  0  0  0  0  0  0
   10.9914  -19.2117   22.4425 C   0  0  0  0  0  0  0  0  0  0  0  0
   10.7670  -18.0891   21.4742 C   0  0  0  0  0  0  0  0  0  0  0  0
    9.7018  -17.1082   21.9144 C   0  0  2  0  0  0  0  0  0  0  0  0
    9.5254  -16.0021   20.9998 N   0  0  0  0  0  0  0  0  0  0  0  0
   10.0977  -16.5595   23.2240 C   0  0  0  0  0  0  0  0  0  0  0  0
   11.1333  -15.8725   23.3144 O   0  0  0  0  0  0  0  0  0  0  0  0
   11.3465  -23.8878   22.0050 N   0  0  0  0  0  0  0  0  0  0  0  0
    9.2971  -16.8205   24.3600 C   0  0  2  0  0  0  0  0  0  0  0  0
    9.7252  -16.4969   25.7328 C   0  0  0  0  0  0  0  0  0  0  0  0
    8.5345  -16.3242   26.6183 C   0  0  0  0  0  0  0  0  0  0  0  0
    7.6778  -15.2132   26.1665 C   0  0  0  0  0  0  0  0  0  0  0  0
    6.4629  -15.4400   25.5183 N   0  0  0  0  0  0  0  0  0  0  0  0
    5.8745  -14.2593   25.2714 C   0  0  0  0  0  0  0  0  0  0  0  0
    6.6811  -13.2979   25.7428 C   0  0  0  0  0  0  0  0  0  0  0  0
    6.5921  -11.9267   25.7552 C   0  0  0  0  0  0  0  0  0  0  0  0
    7.5629  -11.1119   26.2918 C   0  0  0  0  0  0  0  0  0  0  0  0
    8.6814  -11.7027   26.8441 C   0  0  0  0  0  0  0  0  0  0  0  0
    8.8054  -13.0706   26.8502 C   0  0  0  0  0  0  0  0  0  0  0  0
    7.8208  -13.8693   26.3091 C   0  0  0  0  0  0  0  0  0  0  0  0
   10.6691  -17.4850   26.2129 O   0  0  0  0  0  0  0  0  0  0  0  0
   10.8269  -18.6264   25.6530 O   0  0  0  0  0  0  0  0  0  0  0  0
  2  1  1  6
  2  3  1  0
  4  2  1  0
  4  5  1  6
  6  7  2  0
  6  4  1  0
  9 10  2  0
  9  8  1  0
 11  9  1  0
 12 11  1  0
 13 12  1  0
 13 14  1  0
 15 14  1  6
 15 16  1  0
 16  6  1  0
 17 19  1  0
 17 15  1  0
 18 17  2  0
 20 19  1  0
 20 21  1  6
 21 22  1  0
 22 30  1  0
 23 22  2  0
 23 24  1  0
 24 25  1  0
 25 26  1  0
 26 27  2  0
 28 27  1  0
 29 28  2  0
 30 25  2  0
 30 29  1  0
 31 20  1  0
 32 31  2  0
 33 31  1  0
M  END
$$$$
