VRW.pdb
     RDKit          3D

 33 34  0  0  1  0  0  0  0  0999 V2000
    6.8817  -13.9282   20.6554 C   0  0  0  0  0  0  0  0  0  0  0  0
    8.1419  -13.3944   19.9759 C   0  0  2  0  0  0  0  0  0  0  0  0
    7.8434  -12.2439   19.0688 C   0  0  0  0  0  0  0  0  0  0  0  0
    8.8142  -14.5604   19.3213 C   0  0  2  0  0  0  0  0  0  0  0  0
    8.0111  -14.9278   18.1660 N   0  0  0  0  0  0  0  0  0  0  0  0
    9.0579  -15.7093   20.2183 C   0  0  0  0  0  0  0  0  0  0  0  0
    8.7539  -16.8645   19.8290 O   0  0  0  0  0  0  0  0  0  0  0  0
   15.2157  -15.3287   21.3999 N   0  0  0  0  0  0  0  0  0  0  0  0
   15.0560  -15.4890   19.9836 C   0  0  0  0  0  0  0  0  0  0  0  0
   15.6406  -14.6970   19.1547 N   0  0  0  0  0  0  0  0  0  0  0  0
   14.2477  -16.5312   19.4330 N   0  0  0  0  0  0  0  0  0  0  0  0
   13.3056  -17.2878   20.1932 C   0  0  0  0  0  0  0  0  0  0  0  0
   12.2455  -16.4285   20.8781 C   0  0  0  0  0  0  0  0  0  0  0  0
   11.3394  -17.3737   21.6086 C   0  0  0  0  0  0  0  0  0  0  0  0
   10.1643  -16.6957   22.2794 C   0  0  2  0  0  0  0  0  0  0  0  0
    9.6218  -15.5951   21.5141 N   0  0  0  0  0  0  0  0  0  0  0  0
   10.6202  -16.1682   23.5781 C   0  0  0  0  0  0  0  0  0  0  0  0
   11.8317  -15.9376   23.7561 O   0  0  0  0  0  0  0  0  0  0  0  0
   15.4452  -14.8065   18.1367 N   0  0  0  0  0  0  0  0  0  0  0  0
    9.6767  -15.9315   24.6044 C   0  0  1  0  0  0  0  0  0  0  0  0
    9.9213  -16.2854   26.0142 C   0  0  0  0  0  0  0  0  0  0  0  0
    8.6264  -16.5321   26.7173 C   0  0  0  0  0  0  0  0  0  0  0  0
    7.6209  -15.5089   26.3792 C   0  0  0  0  0  0  0  0  0  0  0  0
    6.2860  -15.8413   26.1447 N   0  0  0  0  0  0  0  0  0  0  0  0
    5.5916  -14.7161   25.9141 C   0  0  0  0  0  0  0  0  0  0  0  0
    6.4475  -13.6876   25.9953 C   0  0  0  0  0  0  0  0  0  0  0  0
    6.2949  -12.3307   25.8408 C   0  0  0  0  0  0  0  0  0  0  0  0
    7.3342  -11.4359   25.9572 C   0  0  0  0  0  0  0  0  0  0  0  0
    8.5921  -11.9272   26.2427 C   0  0  0  0  0  0  0  0  0  0  0  0
    8.7833  -13.2778   26.4043 C   0  0  0  0  0  0  0  0  0  0  0  0
    7.7287  -14.1575   26.2854 C   0  0  0  0  0  0  0  0  0  0  0  0
   10.8515  -17.3921   26.1024 O   0  0  0  0  0  0  0  0  0  0  0  0
   10.9631  -18.2818   25.1875 O   0  0  0  0  0  0  0  0  0  0  0  0
  2  1  1  6
  2  3  1  0
  4  2  1  0
  4  5  1  6
  6  7  2  0
  6  4  1  0
  9 10  2  0
  9  8  1  0
 11  9  1  0
 12 11  1  0
 13 12  1  0
 13 14  1  0
 15 14  1  6
 15 16  1  0
 16  6  1  0
 17 19  1  0
 17 15  1  0
 18 17  2  0
 20 19  1  0
 20 21  1  1
 21 22  1  0
 22 30  1  0
 23 22  2  0
 23 24  1  0
 24 25  1  0
 25 26  1  0
 26 27  2  0
 28 27  1  0
 29 28  2  0
 30 25  2  0
 30 29  1  0
 31 20  1  0
 32 31  2  0
 33 31  1  0
M  END
$$$$
