VRW.pdb
     RDKit          3D

 33 34  0  0  1  0  0  0  0  0999 V2000
    6.9035  -14.3242   19.1287 C   0  0  0  0  0  0  0  0  0  0  0  0
    7.7624  -13.1571   19.6130 C   0  0  2  0  0  0  0  0  0  0  0  0
    7.9912  -12.1462   18.5354 C   0  0  0  0  0  0  0  0  0  0  0  0
    9.0050  -13.7439   20.2062 C   0  0  2  0  0  0  0  0  0  0  0  0
    9.7964  -14.2764   19.1086 N   0  0  0  0  0  0  0  0  0  0  0  0
    8.7633  -14.7525   21.2590 C   0  0  0  0  0  0  0  0  0  0  0  0
    7.9985  -14.4682   22.2144 O   0  0  0  0  0  0  0  0  0  0  0  0
   10.6052  -18.8303   18.1895 N   0  0  0  0  0  0  0  0  0  0  0  0
    9.7182  -19.9385   17.9834 C   0  0  0  0  0  0  0  0  0  0  0  0
    9.3250  -20.2647   16.8023 N   0  0  0  0  0  0  0  0  0  0  0  0
    9.2366  -20.7269   19.0739 N   0  0  0  0  0  0  0  0  0  0  0  0
    9.4139  -20.3731   20.4455 C   0  0  0  0  0  0  0  0  0  0  0  0
    8.7298  -19.0632   20.8298 C   0  0  0  0  0  0  0  0  0  0  0  0
    9.5885  -18.4284   21.8823 C   0  0  0  0  0  0  0  0  0  0  0  0
    9.1317  -17.0438   22.2882 C   0  0  2  0  0  0  0  0  0  0  0  0
    9.3473  -16.0444   21.2656 N   0  0  0  0  0  0  0  0  0  0  0  0
    9.8919  -16.6435   23.4859 C   0  0  0  0  0  0  0  0  0  0  0  0
   11.0422  -16.1820   23.3573 O   0  0  0  0  0  0  0  0  0  0  0  0
    8.7070  -21.0970   16.6935 N   0  0  0  0  0  0  0  0  0  0  0  0
    9.3058  -16.7890   24.7645 C   0  0  1  0  0  0  0  0  0  0  0  0
   10.0559  -16.5859   26.0171 C   0  0  0  0  0  0  0  0  0  0  0  0
    9.7903  -15.2208   26.5629 C   0  0  0  0  0  0  0  0  0  0  0  0
    8.3693  -14.8512   26.4348 C   0  0  0  0  0  0  0  0  0  0  0  0
    7.3810  -15.8072   26.1960 N   0  0  0  0  0  0  0  0  0  0  0  0
    6.1839  -15.2007   26.1797 C   0  0  0  0  0  0  0  0  0  0  0  0
    6.3883  -13.8942   26.3997 C   0  0  0  0  0  0  0  0  0  0  0  0
    5.5400  -12.8160   26.4775 C   0  0  0  0  0  0  0  0  0  0  0  0
    5.9730  -11.5293   26.7036 C   0  0  0  0  0  0  0  0  0  0  0  0
    7.3272  -11.3122   26.8590 C   0  0  0  0  0  0  0  0  0  0  0  0
    8.2059  -12.3656   26.7878 C   0  0  0  0  0  0  0  0  0  0  0  0
    7.7517  -13.6474   26.5623 C   0  0  0  0  0  0  0  0  0  0  0  0
    9.7711  -17.6529   26.9541 O   0  0  0  0  0  0  0  0  0  0  0  0
    8.8610  -18.5316   26.7525 O   0  0  0  0  0  0  0  0  0  0  0  0
  2  1  1  6
  2  3  1  0
  4  2  1  0
  4  5  1  6
  6  7  2  0
  6  4  1  0
  9 10  2  0
  9  8  1  0
 11  9  1  0
 12 11  1  0
 13 12  1  0
 13 14  1  0
 15 14  1  6
 15 16  1  0
 16  6  1  0
 17 19  1  0
 17 15  1  0
 18 17  2  0
 20 19  1  0
 20 21  1  6
 21 22  1  0
 22 30  1  0
 23 22  2  0
 23 24  1  0
 24 25  1  0
 25 26  1  0
 26 27  2  0
 28 27  1  0
 29 28  2  0
 30 25  2  0
 30 29  1  0
 31 20  1  0
 32 31  2  0
 33 31  1  0
M  END
$$$$
