VRW.pdb
     RDKit          3D

 33 34  0  0  1  0  0  0  0  0999 V2000
    6.7135  -14.4735   19.3944 C   0  0  0  0  0  0  0  0  0  0  0  0
    7.4564  -13.2564   19.9434 C   0  0  2  0  0  0  0  0  0  0  0  0
    7.5804  -12.1701   18.9234 C   0  0  0  0  0  0  0  0  0  0  0  0
    8.7530  -13.7506   20.5044 C   0  0  2  0  0  0  0  0  0  0  0  0
    9.5787  -14.1640   19.3811 N   0  0  0  0  0  0  0  0  0  0  0  0
    8.6145  -14.8185   21.5165 C   0  0  0  0  0  0  0  0  0  0  0  0
    7.8958  -14.6145   22.5266 O   0  0  0  0  0  0  0  0  0  0  0  0
    9.7417  -18.2055   17.8208 N   0  0  0  0  0  0  0  0  0  0  0  0
   10.7722  -19.2029   17.8450 C   0  0  0  0  0  0  0  0  0  0  0  0
   11.6883  -19.2345   16.9418 N   0  0  0  0  0  0  0  0  0  0  0  0
   10.8288  -20.1984   18.8690 N   0  0  0  0  0  0  0  0  0  0  0  0
   10.5794  -19.9299   20.2487 C   0  0  0  0  0  0  0  0  0  0  0  0
    9.9971  -18.5416   20.5033 C   0  0  0  0  0  0  0  0  0  0  0  0
    9.8005  -18.4287   21.9854 C   0  0  0  0  0  0  0  0  0  0  0  0
    9.1557  -17.1294   22.4176 C   0  0  2  0  0  0  0  0  0  0  0  0
    9.2502  -16.0825   21.4246 N   0  0  0  0  0  0  0  0  0  0  0  0
    9.8375  -16.6638   23.6387 C   0  0  0  0  0  0  0  0  0  0  0  0
   10.9382  -16.0871   23.5456 O   0  0  0  0  0  0  0  0  0  0  0  0
   12.4381  -19.9547   17.0158 N   0  0  0  0  0  0  0  0  0  0  0  0
    9.2335  -16.8782   24.8991 C   0  0  1  0  0  0  0  0  0  0  0  0
    9.8894  -16.5270   26.1716 C   0  0  0  0  0  0  0  0  0  0  0  0
    8.8686  -16.1240   27.1852 C   0  0  0  0  0  0  0  0  0  0  0  0
    7.8104  -15.2893   26.5887 C   0  0  0  0  0  0  0  0  0  0  0  0
    6.6289  -15.8441   26.0951 N   0  0  0  0  0  0  0  0  0  0  0  0
    5.8307  -14.8549   25.6640 C   0  0  0  0  0  0  0  0  0  0  0  0
    6.4732  -13.6965   25.8699 C   0  0  0  0  0  0  0  0  0  0  0  0
    6.1433  -12.3872   25.6153 C   0  0  0  0  0  0  0  0  0  0  0  0
    6.9761  -11.3293   25.9014 C   0  0  0  0  0  0  0  0  0  0  0  0
    8.2037  -11.5985   26.4719 C   0  0  0  0  0  0  0  0  0  0  0  0
    8.5683  -12.8951   26.7412 C   0  0  0  0  0  0  0  0  0  0  0  0
    7.7189  -13.9406   26.4486 C   0  0  0  0  0  0  0  0  0  0  0  0
   10.7504  -17.6060   26.6099 O   0  0  0  0  0  0  0  0  0  0  0  0
   10.7831  -18.7488   26.0319 O   0  0  0  0  0  0  0  0  0  0  0  0
  2  1  1  6
  2  3  1  0
  4  2  1  0
  4  5  1  6
  6  7  2  0
  6  4  1  0
  9 10  2  0
  9  8  1  0
 11  9  1  0
 12 11  1  0
 13 12  1  0
 13 14  1  0
 15 14  1  6
 15 16  1  0
 16  6  1  0
 17 19  1  0
 17 15  1  0
 18 17  2  0
 20 19  1  0
 20 21  1  1
 21 22  1  0
 22 30  1  0
 23 22  2  0
 23 24  1  0
 24 25  1  0
 25 26  1  0
 26 27  2  0
 28 27  1  0
 29 28  2  0
 30 25  2  0
 30 29  1  0
 31 20  1  0
 32 31  2  0
 33 31  1  0
M  END
$$$$
