RHA.pdb
     RDKit          3D

 27 27  0  0  1  0  0  0  0  0999 V2000
   31.4425  -24.5083  -14.9423 N   0  0  0  0  0  0  0  0  0  0  0  0
   31.5745  -24.8470  -16.3388 C   0  0  0  0  0  0  0  0  0  0  0  0
   32.6358  -25.4504  -16.7296 N   0  0  0  0  0  0  0  0  0  0  0  0
   30.5652  -24.5284  -17.2654 N   0  0  0  0  0  0  0  0  0  0  0  0
   29.2212  -24.1352  -16.7986 C   0  0  0  0  0  0  0  0  0  0  0  0
   29.1667  -22.6768  -16.5291 C   0  0  0  0  0  0  0  0  0  0  0  0
   27.8243  -22.0273  -16.5607 C   0  0  0  0  0  0  0  0  0  0  0  0
   27.2202  -22.0123  -17.9145 C   0  0  2  0  0  0  0  0  0  0  0  0
   27.9561  -21.1743  -18.8155 N   0  0  0  0  0  0  0  0  0  0  0  0
   25.7701  -21.6605  -17.8920 C   0  0  0  0  0  0  0  0  0  0  0  0
   25.4399  -20.4730  -17.6665 O   0  0  0  0  0  0  0  0  0  0  0  0
   32.7815  -25.6671  -17.7266 N   0  0  0  0  0  0  0  0  0  0  0  0
   24.7424  -22.6098  -18.1144 C   0  0  2  0  0  0  0  0  0  0  0  0
   23.3604  -22.2689  -17.9901 C   0  0  0  0  0  0  0  0  0  0  0  0
   22.4564  -23.4825  -18.2580 C   0  0  0  0  0  0  0  0  0  0  0  0
   21.0439  -23.1162  -18.2588 C   0  0  0  0  0  0  0  0  0  0  0  0
   20.5504  -21.8452  -18.0690 N   0  0  0  0  0  0  0  0  0  0  0  0
   19.2045  -21.9355  -18.1437 C   0  0  0  0  0  0  0  0  0  0  0  0
   18.8815  -23.2104  -18.3704 N   0  0  0  0  0  0  0  0  0  0  0  0
   20.0119  -23.9575  -18.4447 C   0  0  0  0  0  0  0  0  0  0  0  0
   23.0322  -21.6857  -16.6601 O   0  0  0  0  0  0  0  0  0  0  0  0
   23.4213  -22.2488  -15.5924 C   0  0  0  0  0  0  0  0  0  0  0  0
   22.2254  -18.3984  -15.2383 C   0  0  2  0  0  0  0  0  0  0  0  0
   21.9860  -19.8924  -15.2290 N   0  0  0  0  0  0  0  0  0  0  0  0
   22.2837  -20.4969  -16.5050 C   0  0  0  0  0  0  0  0  0  0  0  0
   20.6040  -20.2067  -14.7759 O   0  0  0  0  0  0  0  0  0  0  0  0
   19.7822  -20.5941  -15.6521 O   0  0  0  0  0  0  0  0  0  0  0  0
  2  4  1  0
  2  1  1  0
  3  2  2  0
  5  4  1  0
  5  6  1  0
  7  6  1  0
  7  8  1  0
  8  9  1  6
 10  8  1  0
 10 12  1  0
 11 10  2  0
 13 12  1  0
 13 14  1  6
 15 14  1  0
 15 16  2  0
 17 16  1  0
 18 17  1  0
 19 18  2  0
 19 15  1  0
 20 13  1  0
 21 20  2  0
 23 22  1  1
 23 24  1  0
 23 25  1  0
 24 20  1  0
 25 27  1  0
 26 25  2  0
M  END
$$$$
