RHA.pdb
     RDKit          3D

 27 27  0  0  1  0  0  0  0  0999 V2000
   45.1331  -15.4248   -7.8041 N   0  0  0  0  0  0  0  0  0  0  0  0
   45.8917  -14.2782   -7.3659 C   0  0  0  0  0  0  0  0  0  0  0  0
   47.0713  -14.4607   -6.8988 N   0  0  0  0  0  0  0  0  0  0  0  0
   45.3600  -12.9782   -7.4448 N   0  0  0  0  0  0  0  0  0  0  0  0
   44.0720  -12.7391   -8.1250 C   0  0  0  0  0  0  0  0  0  0  0  0
   43.7016  -11.3036   -8.0548 C   0  0  0  0  0  0  0  0  0  0  0  0
   42.4080  -10.9019   -8.6793 C   0  0  0  0  0  0  0  0  0  0  0  0
   42.1582   -9.4424   -8.6057 C   0  0  2  0  0  0  0  0  0  0  0  0
   41.8577   -9.0216   -7.2684 N   0  0  0  0  0  0  0  0  0  0  0  0
   41.1181   -8.9886   -9.5749 C   0  0  0  0  0  0  0  0  0  0  0  0
   39.9105   -9.0873   -9.2555 O   0  0  0  0  0  0  0  0  0  0  0  0
   47.6393  -13.6634   -6.5767 N   0  0  0  0  0  0  0  0  0  0  0  0
   41.4317   -8.4485  -10.8464 C   0  0  2  0  0  0  0  0  0  0  0  0
   40.4158   -8.0735  -11.7784 C   0  0  0  0  0  0  0  0  0  0  0  0
   40.9872   -7.2119  -12.9156 C   0  0  0  0  0  0  0  0  0  0  0  0
   40.9273   -5.7886  -12.5995 C   0  0  0  0  0  0  0  0  0  0  0  0
   40.3736   -5.2480  -11.4611 N   0  0  0  0  0  0  0  0  0  0  0  0
   40.5221   -3.9084  -11.5549 C   0  0  0  0  0  0  0  0  0  0  0  0
   41.1421   -3.6345  -12.7045 N   0  0  0  0  0  0  0  0  0  0  0  0
   41.4011   -4.7908  -13.3658 C   0  0  0  0  0  0  0  0  0  0  0  0
   39.7032   -9.2483  -12.3518 O   0  0  0  0  0  0  0  0  0  0  0  0
   40.3334  -10.3108  -12.6391 C   0  0  0  0  0  0  0  0  0  0  0  0
   37.1918  -11.3529  -12.0123 C   0  0  2  0  0  0  0  0  0  0  0  0
   37.5926  -10.3978  -13.1152 N   0  0  0  0  0  0  0  0  0  0  0  0
   38.3131   -9.2553  -12.6074 C   0  0  0  0  0  0  0  0  0  0  0  0
   36.4108   -9.9929  -13.9236 O   0  0  0  0  0  0  0  0  0  0  0  0
   35.9912   -8.8109  -13.7826 O   0  0  0  0  0  0  0  0  0  0  0  0
  2  4  1  0
  2  1  1  0
  3  2  2  0
  5  4  1  0
  5  6  1  0
  7  6  1  0
  7  8  1  0
  8  9  1  1
 10  8  1  0
 10 12  1  0
 11 10  2  0
 13 12  1  0
 13 14  1  1
 15 14  1  0
 15 16  2  0
 17 16  1  0
 18 17  1  0
 19 18  2  0
 19 15  1  0
 20 13  1  0
 21 20  2  0
 23 22  1  6
 23 24  1  0
 23 25  1  0
 24 20  1  0
 25 27  1  0
 26 25  2  0
M  END
$$$$
