RHA.pdb
     RDKit          3D

 27 27  0  0  1  0  0  0  0  0999 V2000
   23.8945  -26.1736  -16.4439 N   0  0  0  0  0  0  0  0  0  0  0  0
   22.9702  -26.8624  -15.5758 C   0  0  0  0  0  0  0  0  0  0  0  0
   22.8976  -28.1404  -15.6418 N   0  0  0  0  0  0  0  0  0  0  0  0
   22.1585  -26.1578  -14.6682 N   0  0  0  0  0  0  0  0  0  0  0  0
   22.5040  -24.7779  -14.2744 C   0  0  0  0  0  0  0  0  0  0  0  0
   23.9198  -24.6974  -13.8366 C   0  0  0  0  0  0  0  0  0  0  0  0
   24.8228  -23.7977  -14.6110 C   0  0  0  0  0  0  0  0  0  0  0  0
   24.8813  -22.4225  -14.0601 C   0  0  2  0  0  0  0  0  0  0  0  0
   23.7398  -22.1280  -13.2442 N   0  0  0  0  0  0  0  0  0  0  0  0
   25.0869  -21.3892  -15.1170 C   0  0  0  0  0  0  0  0  0  0  0  0
   26.0670  -21.5015  -15.8894 O   0  0  0  0  0  0  0  0  0  0  0  0
   22.1679  -28.6537  -15.1258 N   0  0  0  0  0  0  0  0  0  0  0  0
   24.2223  -20.2804  -15.2903 C   0  0  1  0  0  0  0  0  0  0  0  0
   24.3801  -19.3625  -16.3738 C   0  0  0  0  0  0  0  0  0  0  0  0
   23.1527  -18.4492  -16.5194 C   0  0  0  0  0  0  0  0  0  0  0  0
   23.2576  -17.5832  -17.6892 C   0  0  0  0  0  0  0  0  0  0  0  0
   23.1278  -17.9921  -18.9972 N   0  0  0  0  0  0  0  0  0  0  0  0
   23.2909  -16.8932  -19.7661 C   0  0  0  0  0  0  0  0  0  0  0  0
   23.5121  -15.8494  -18.9645 N   0  0  0  0  0  0  0  0  0  0  0  0
   23.4948  -16.2601  -17.6713 C   0  0  0  0  0  0  0  0  0  0  0  0
   25.6087  -18.5313  -16.2453 O   0  0  0  0  0  0  0  0  0  0  0  0
   26.0840  -18.2505  -15.1034 C   0  0  0  0  0  0  0  0  0  0  0  0
   28.6153  -18.1623  -16.5462 C   0  0  2  0  0  0  0  0  0  0  0  0
   27.5768  -17.3337  -17.2704 N   0  0  0  0  0  0  0  0  0  0  0  0
   26.3071  -18.0133  -17.3596 C   0  0  0  0  0  0  0  0  0  0  0  0
   28.0732  -16.9092  -18.6075 O   0  0  0  0  0  0  0  0  0  0  0  0
   27.3783  -17.2306  -19.6111 O   0  0  0  0  0  0  0  0  0  0  0  0
  2  4  1  0
  2  1  1  0
  3  2  2  0
  5  4  1  0
  5  6  1  0
  7  6  1  0
  7  8  1  0
  8  9  1  6
 10  8  1  0
 10 12  1  0
 11 10  2  0
 13 12  1  0
 13 14  1  6
 15 14  1  0
 15 16  2  0
 17 16  1  0
 18 17  1  0
 19 18  2  0
 19 15  1  0
 20 13  1  0
 21 20  2  0
 23 22  1  1
 23 24  1  0
 23 25  1  0
 24 20  1  0
 25 27  1  0
 26 25  2  0
M  END
$$$$
