RHA.pdb
     RDKit          3D

 27 27  0  0  1  0  0  0  0  0999 V2000
   21.1938  -25.6823  -14.5958 N   0  0  0  0  0  0  0  0  0  0  0  0
   20.1828  -24.8934  -13.9341 C   0  0  0  0  0  0  0  0  0  0  0  0
   19.7742  -23.8166  -14.4968 N   0  0  0  0  0  0  0  0  0  0  0  0
   19.6457  -25.2867  -12.6948 N   0  0  0  0  0  0  0  0  0  0  0  0
   19.9983  -26.5956  -12.1107 C   0  0  0  0  0  0  0  0  0  0  0  0
   18.8630  -27.5442  -12.2286 C   0  0  0  0  0  0  0  0  0  0  0  0
   18.5126  -28.3419  -11.0180 C   0  0  0  0  0  0  0  0  0  0  0  0
   18.8585  -27.6538   -9.7512 C   0  0  2  0  0  0  0  0  0  0  0  0
   19.7516  -28.4366   -8.9479 N   0  0  0  0  0  0  0  0  0  0  0  0
   17.6528  -27.2276   -8.9819 C   0  0  0  0  0  0  0  0  0  0  0  0
   17.0977  -28.0546   -8.2216 O   0  0  0  0  0  0  0  0  0  0  0  0
   19.0371  -23.2423  -14.0621 N   0  0  0  0  0  0  0  0  0  0  0  0
   17.1018  -25.9255   -9.0702 C   0  0  2  0  0  0  0  0  0  0  0  0
   15.8777  -25.5784   -8.4202 C   0  0  0  0  0  0  0  0  0  0  0  0
   16.0870  -24.4566   -7.3907 C   0  0  0  0  0  0  0  0  0  0  0  0
   16.8469  -24.9181   -6.2336 C   0  0  0  0  0  0  0  0  0  0  0  0
   18.2133  -24.8313   -6.0917 N   0  0  0  0  0  0  0  0  0  0  0  0
   18.5140  -25.3657   -4.8878 C   0  0  0  0  0  0  0  0  0  0  0  0
   17.3788  -25.7657   -4.3112 N   0  0  0  0  0  0  0  0  0  0  0  0
   16.3337  -25.4954   -5.1333 C   0  0  0  0  0  0  0  0  0  0  0  0
   14.8119  -25.1816   -9.3812 O   0  0  0  0  0  0  0  0  0  0  0  0
   15.0581  -24.3658  -10.3205 C   0  0  0  0  0  0  0  0  0  0  0  0
   11.1558  -26.0591   -9.9569 C   0  0  2  0  0  0  0  0  0  0  0  0
   12.4457  -25.3213  -10.2416 N   0  0  0  0  0  0  0  0  0  0  0  0
   13.4895  -25.6754   -9.3103 C   0  0  0  0  0  0  0  0  0  0  0  0
   12.2188  -23.8514  -10.2867 O   0  0  0  0  0  0  0  0  0  0  0  0
   12.2307  -23.2304   -9.1878 O   0  0  0  0  0  0  0  0  0  0  0  0
  2  4  1  0
  2  1  1  0
  3  2  2  0
  5  4  1  0
  5  6  1  0
  7  6  1  0
  7  8  1  0
  8  9  1  1
 10  8  1  0
 10 12  1  0
 11 10  2  0
 13 12  1  0
 13 14  1  1
 15 14  1  0
 15 16  2  0
 17 16  1  0
 18 17  1  0
 19 18  2  0
 19 15  1  0
 20 13  1  0
 21 20  2  0
 23 22  1  6
 23 24  1  0
 23 25  1  0
 24 20  1  0
 25 27  1  0
 26 25  2  0
M  END
$$$$
