RHA.pdb
     RDKit          3D

 27 27  0  0  1  0  0  0  0  0999 V2000
   32.0141  -24.1098  -18.4485 N   0  0  0  0  0  0  0  0  0  0  0  0
   31.7506  -23.1507  -19.4940 C   0  0  0  0  0  0  0  0  0  0  0  0
   32.4621  -23.1886  -20.5595 N   0  0  0  0  0  0  0  0  0  0  0  0
   30.7344  -22.1871  -19.3609 N   0  0  0  0  0  0  0  0  0  0  0  0
   30.0479  -22.0008  -18.0675 C   0  0  0  0  0  0  0  0  0  0  0  0
   28.5755  -21.9892  -18.2535 C   0  0  0  0  0  0  0  0  0  0  0  0
   27.8189  -20.8630  -17.6338 C   0  0  0  0  0  0  0  0  0  0  0  0
   27.6058  -21.0408  -16.1774 C   0  0  2  0  0  0  0  0  0  0  0  0
   28.4275  -22.0877  -15.6441 N   0  0  0  0  0  0  0  0  0  0  0  0
   26.1680  -21.2339  -15.8272 C   0  0  0  0  0  0  0  0  0  0  0  0
   25.5874  -22.2759  -16.2106 O   0  0  0  0  0  0  0  0  0  0  0  0
   32.3512  -22.4726  -21.2925 N   0  0  0  0  0  0  0  0  0  0  0  0
   25.4232  -20.2903  -15.0777 C   0  0  1  0  0  0  0  0  0  0  0  0
   24.0493  -20.5034  -14.7484 C   0  0  0  0  0  0  0  0  0  0  0  0
   23.6823  -19.8382  -13.4124 C   0  0  0  0  0  0  0  0  0  0  0  0
   24.2559  -20.5520  -12.2762 C   0  0  0  0  0  0  0  0  0  0  0  0
   24.9274  -21.7516  -12.3457 N   0  0  0  0  0  0  0  0  0  0  0  0
   25.2935  -22.0659  -11.0837 C   0  0  0  0  0  0  0  0  0  0  0  0
   24.8650  -21.0992  -10.2696 N   0  0  0  0  0  0  0  0  0  0  0  0
   24.2185  -20.1510  -10.9936 C   0  0  0  0  0  0  0  0  0  0  0  0
   23.1248  -20.0271  -15.8139 O   0  0  0  0  0  0  0  0  0  0  0  0
   23.3542  -18.9447  -16.4337 C   0  0  0  0  0  0  0  0  0  0  0  0
   20.0743  -21.3721  -17.6237 C   0  0  2  0  0  0  0  0  0  0  0  0
   21.0441  -20.2851  -17.2148 N   0  0  0  0  0  0  0  0  0  0  0  0
   21.9603  -20.7323  -16.1936 C   0  0  0  0  0  0  0  0  0  0  0  0
   20.3190  -19.0514  -16.8068 O   0  0  0  0  0  0  0  0  0  0  0  0
   19.7623  -18.3794  -17.7188 O   0  0  0  0  0  0  0  0  0  0  0  0
  2  4  1  0
  2  1  1  0
  3  2  2  0
  5  4  1  0
  5  6  1  0
  7  6  1  0
  7  8  1  0
  8  9  1  6
 10  8  1  0
 10 12  1  0
 11 10  2  0
 13 12  1  0
 13 14  1  6
 15 14  1  0
 15 16  2  0
 17 16  1  0
 18 17  1  0
 19 18  2  0
 19 15  1  0
 20 13  1  0
 21 20  2  0
 23 22  1  6
 23 24  1  0
 23 25  1  0
 24 20  1  0
 25 27  1  0
 26 25  2  0
M  END
$$$$
