RHA.pdb
     RDKit          3D

 27 27  0  0  1  0  0  0  0  0999 V2000
   25.9207  -21.1171  -10.7668 N   0  0  0  0  0  0  0  0  0  0  0  0
   26.4945  -21.5261  -12.0260 C   0  0  0  0  0  0  0  0  0  0  0  0
   25.9105  -22.4468  -12.7000 N   0  0  0  0  0  0  0  0  0  0  0  0
   27.6718  -20.9337  -12.5180 N   0  0  0  0  0  0  0  0  0  0  0  0
   27.7226  -19.4822  -12.7814 C   0  0  0  0  0  0  0  0  0  0  0  0
   27.4790  -19.2022  -14.2184 C   0  0  0  0  0  0  0  0  0  0  0  0
   26.5564  -18.0773  -14.5470 C   0  0  0  0  0  0  0  0  0  0  0  0
   25.1260  -18.4566  -14.4574 C   0  0  2  0  0  0  0  0  0  0  0  0
   24.9521  -19.8798  -14.4671 N   0  0  0  0  0  0  0  0  0  0  0  0
   24.2893  -17.7905  -15.4982 C   0  0  0  0  0  0  0  0  0  0  0  0
   24.7103  -17.7511  -16.6777 O   0  0  0  0  0  0  0  0  0  0  0  0
   26.3744  -22.8796  -13.5123 N   0  0  0  0  0  0  0  0  0  0  0  0
   23.0345  -17.1967  -15.2156 C   0  0  1  0  0  0  0  0  0  0  0  0
   22.2276  -16.6138  -16.2406 C   0  0  0  0  0  0  0  0  0  0  0  0
   20.7935  -16.3596  -15.7498 C   0  0  0  0  0  0  0  0  0  0  0  0
   19.9284  -15.8875  -16.8259 C   0  0  0  0  0  0  0  0  0  0  0  0
   20.3103  -15.7137  -18.1369 N   0  0  0  0  0  0  0  0  0  0  0  0
   19.2226  -15.2679  -18.8029 C   0  0  0  0  0  0  0  0  0  0  0  0
   18.2114  -15.1710  -17.9375 N   0  0  0  0  0  0  0  0  0  0  0  0
   18.6322  -15.5518  -16.7049 C   0  0  0  0  0  0  0  0  0  0  0  0
   22.8046  -15.3487  -16.7732 O   0  0  0  0  0  0  0  0  0  0  0  0
   23.1662  -14.4209  -15.9877 C   0  0  0  0  0  0  0  0  0  0  0  0
   24.2965  -14.2514  -20.0391 C   0  0  2  0  0  0  0  0  0  0  0  0
   23.6800  -13.9613  -18.6882 N   0  0  0  0  0  0  0  0  0  0  0  0
   22.9815  -15.1055  -18.1542 C   0  0  0  0  0  0  0  0  0  0  0  0
   22.8066  -12.7581  -18.7495 O   0  0  0  0  0  0  0  0  0  0  0  0
   23.3253  -11.6505  -18.4372 O   0  0  0  0  0  0  0  0  0  0  0  0
  2  4  1  0
  2  1  1  0
  3  2  2  0
  5  4  1  0
  5  6  1  0
  7  6  1  0
  7  8  1  0
  8  9  1  6
 10  8  1  0
 10 12  1  0
 11 10  2  0
 13 12  1  0
 13 14  1  6
 15 14  1  0
 15 16  2  0
 17 16  1  0
 18 17  1  0
 19 18  2  0
 19 15  1  0
 20 13  1  0
 21 20  2  0
 23 22  1  1
 23 24  1  0
 23 25  1  0
 24 20  1  0
 25 27  1  0
 26 25  2  0
M  END
$$$$
