RHA.pdb
     RDKit          3D

 27 27  0  0  1  0  0  0  0  0999 V2000
   23.6646  -20.9569   -9.1864 N   0  0  0  0  0  0  0  0  0  0  0  0
   24.9157  -20.8597   -8.4739 C   0  0  0  0  0  0  0  0  0  0  0  0
   24.9145  -21.0142   -7.2014 N   0  0  0  0  0  0  0  0  0  0  0  0
   26.1222  -20.6019   -9.1498 N   0  0  0  0  0  0  0  0  0  0  0  0
   26.1102  -19.9576  -10.4778 C   0  0  0  0  0  0  0  0  0  0  0  0
   25.8498  -20.9581  -11.5426 C   0  0  0  0  0  0  0  0  0  0  0  0
   26.4835  -20.7200  -12.8716 C   0  0  0  0  0  0  0  0  0  0  0  0
   25.5801  -20.0393  -13.8301 C   0  0  2  0  0  0  0  0  0  0  0  0
   24.3753  -20.7858  -14.0466 N   0  0  0  0  0  0  0  0  0  0  0  0
   26.2581  -19.6991  -15.1153 C   0  0  0  0  0  0  0  0  0  0  0  0
   27.2618  -18.9496  -15.0890 O   0  0  0  0  0  0  0  0  0  0  0  0
   24.0375  -21.2059   -6.6951 N   0  0  0  0  0  0  0  0  0  0  0  0
   25.8192  -20.1855  -16.3713 C   0  0  1  0  0  0  0  0  0  0  0  0
   26.5018  -19.8652  -17.5849 C   0  0  0  0  0  0  0  0  0  0  0  0
   26.7099  -21.1127  -18.4582 C   0  0  0  0  0  0  0  0  0  0  0  0
   27.6504  -22.0485  -17.8506 C   0  0  0  0  0  0  0  0  0  0  0  0
   27.3130  -23.2411  -17.2517 N   0  0  0  0  0  0  0  0  0  0  0  0
   28.4654  -23.8003  -16.8222 C   0  0  0  0  0  0  0  0  0  0  0  0
   29.4723  -22.9853  -17.1433 N   0  0  0  0  0  0  0  0  0  0  0  0
   28.9840  -21.8925  -17.7825 C   0  0  0  0  0  0  0  0  0  0  0  0
   25.8029  -18.8141  -18.3745 O   0  0  0  0  0  0  0  0  0  0  0  0
   24.5766  -18.5607  -18.1727 C   0  0  0  0  0  0  0  0  0  0  0  0
   25.5791  -15.8183  -18.8441 C   0  0  2  0  0  0  0  0  0  0  0  0
   25.9094  -16.8266  -19.9228 N   0  0  0  0  0  0  0  0  0  0  0  0
   26.4444  -18.0500  -19.3757 C   0  0  0  0  0  0  0  0  0  0  0  0
   26.8144  -16.2346  -20.9450 O   0  0  0  0  0  0  0  0  0  0  0  0
   28.0523  -16.4410  -20.8104 O   0  0  0  0  0  0  0  0  0  0  0  0
  2  4  1  0
  2  1  1  0
  3  2  2  0
  5  4  1  0
  5  6  1  0
  7  6  1  0
  7  8  1  0
  8  9  1  6
 10  8  1  0
 10 12  1  0
 11 10  2  0
 13 12  1  0
 13 14  1  1
 15 14  1  0
 15 16  2  0
 17 16  1  0
 18 17  1  0
 19 18  2  0
 19 15  1  0
 20 13  1  0
 21 20  2  0
 23 22  1  1
 23 24  1  0
 23 25  1  0
 24 20  1  0
 25 27  1  0
 26 25  2  0
M  END
$$$$
