RHA.pdb
     RDKit          3D

 27 27  0  0  1  0  0  0  0  0999 V2000
   20.4338  -14.2944  -18.0786 N   0  0  0  0  0  0  0  0  0  0  0  0
   21.1896  -14.0527  -19.2839 C   0  0  0  0  0  0  0  0  0  0  0  0
   21.9767  -14.9691  -19.7126 N   0  0  0  0  0  0  0  0  0  0  0  0
   21.0742  -12.8395  -19.9865 N   0  0  0  0  0  0  0  0  0  0  0  0
   20.8382  -11.5764  -19.2601 C   0  0  0  0  0  0  0  0  0  0  0  0
   19.3846  -11.3471  -19.0676 C   0  0  0  0  0  0  0  0  0  0  0  0
   18.9784  -10.0897  -18.3758 C   0  0  0  0  0  0  0  0  0  0  0  0
   19.0844  -10.1809  -16.8998 C   0  0  2  0  0  0  0  0  0  0  0  0
   18.2581  -11.2266  -16.3713 N   0  0  0  0  0  0  0  0  0  0  0  0
   18.8242   -8.8759  -16.2241 C   0  0  0  0  0  0  0  0  0  0  0  0
   17.6438   -8.4644  -16.1389 O   0  0  0  0  0  0  0  0  0  0  0  0
   22.5466  -14.8204  -20.5584 N   0  0  0  0  0  0  0  0  0  0  0  0
   19.8535   -8.0749  -15.6711 C   0  0  2  0  0  0  0  0  0  0  0  0
   19.5718   -6.8608  -14.9724 C   0  0  0  0  0  0  0  0  0  0  0  0
   20.0964   -6.9091  -13.5286 C   0  0  0  0  0  0  0  0  0  0  0  0
   19.2977   -7.7982  -12.6914 C   0  0  0  0  0  0  0  0  0  0  0  0
   19.6918   -9.0393  -12.2450 N   0  0  0  0  0  0  0  0  0  0  0  0
   18.6722   -9.5284  -11.5057 C   0  0  0  0  0  0  0  0  0  0  0  0
   17.6896   -8.6253  -11.4968 N   0  0  0  0  0  0  0  0  0  0  0  0
   18.0614   -7.5446  -12.2284 C   0  0  0  0  0  0  0  0  0  0  0  0
   20.1212   -5.6620  -15.6635 O   0  0  0  0  0  0  0  0  0  0  0  0
   21.3557   -5.5855  -15.9442 C   0  0  0  0  0  0  0  0  0  0  0  0
   18.6953   -2.5682  -17.3283 C   0  0  2  0  0  0  0  0  0  0  0  0
   19.8177   -3.4198  -16.7766 N   0  0  0  0  0  0  0  0  0  0  0  0
   19.3229   -4.5585  -16.0413 C   0  0  0  0  0  0  0  0  0  0  0  0
   20.7565   -2.6004  -15.9632 O   0  0  0  0  0  0  0  0  0  0  0  0
   20.7374   -2.7699  -14.7126 O   0  0  0  0  0  0  0  0  0  0  0  0
  2  4  1  0
  2  1  1  0
  3  2  2  0
  5  4  1  0
  5  6  1  0
  7  6  1  0
  7  8  1  0
  8  9  1  1
 10  8  1  0
 10 12  1  0
 11 10  2  0
 13 12  1  0
 13 14  1  6
 15 14  1  0
 15 16  2  0
 17 16  1  0
 18 17  1  0
 19 18  2  0
 19 15  1  0
 20 13  1  0
 21 20  2  0
 23 22  1  6
 23 24  1  0
 23 25  1  0
 24 20  1  0
 25 27  1  0
 26 25  2  0
M  END
$$$$
