IVW.pdb
     RDKit          3D

 30 31  0  0  1  0  0  0  0  0999 V2000
   20.2166  -17.8443  -17.4143 C   0  0  0  0  0  0  0  0  0  0  0  0
   21.5938  -17.3259  -17.1489 C   0  0  0  0  0  0  0  0  0  0  0  0
   22.6226  -18.4443  -16.9412 C   0  0  2  0  0  0  0  0  0  0  0  0
   22.1738  -19.3435  -15.8173 C   0  0  0  0  0  0  0  0  0  0  0  0
   23.9813  -17.8438  -16.6261 C   0  0  2  0  0  0  0  0  0  0  0  0
   24.4212  -17.0902  -17.8266 N   0  0  0  0  0  0  0  0  0  0  0  0
   25.0237  -18.8795  -16.4206 C   0  0  0  0  0  0  0  0  0  0  0  0
   25.1900  -19.7857  -17.2748 O   0  0  0  0  0  0  0  0  0  0  0  0
   28.1343  -18.4861  -13.6021 C   0  0  0  0  0  0  0  0  0  0  0  0
   28.2209  -19.3016  -14.8891 C   0  0  2  0  0  0  0  0  0  0  0  0
   28.6918  -18.3908  -15.9676 C   0  0  0  0  0  0  0  0  0  0  0  0
   26.8712  -19.9672  -15.1668 C   0  0  2  0  0  0  0  0  0  0  0  0
   25.8687  -18.9109  -15.2912 N   0  0  0  0  0  0  0  0  0  0  0  0
   26.5306  -20.8844  -14.0696 C   0  0  0  0  0  0  0  0  0  0  0  0
   27.3106  -21.8869  -13.9065 O   0  0  0  0  0  0  0  0  0  0  0  0
   25.4562  -20.7923  -13.1751 N   0  0  0  0  0  0  0  0  0  0  0  0
   25.2031  -21.7852  -12.0993 C   0  0  1  0  0  0  0  0  0  0  0  0
   26.4166  -21.9513  -11.2671 C   0  0  0  0  0  0  0  0  0  0  0  0
   26.3933  -21.0754  -10.0856 C   0  0  0  0  0  0  0  0  0  0  0  0
   25.3489  -20.2475   -9.6552 C   0  0  0  0  0  0  0  0  0  0  0  0
   25.7174  -19.5783   -8.5566 N   0  0  0  0  0  0  0  0  0  0  0  0
   26.9709  -19.9228   -8.2275 C   0  0  0  0  0  0  0  0  0  0  0  0
   27.7441  -19.4870   -7.1527 C   0  0  0  0  0  0  0  0  0  0  0  0
   29.0048  -20.0151   -7.0258 C   0  0  0  0  0  0  0  0  0  0  0  0
   29.4659  -20.9395   -7.9388 C   0  0  0  0  0  0  0  0  0  0  0  0
   28.6848  -21.3540   -8.9921 C   0  0  0  0  0  0  0  0  0  0  0  0
   27.4063  -20.8408   -9.1515 C   0  0  0  0  0  0  0  0  0  0  0  0
   23.9262  -21.5744  -11.4331 C   0  0  0  0  0  0  0  0  0  0  0  0
   23.3683  -22.5397  -10.6395 O   0  0  0  0  0  0  0  0  0  0  0  0
   23.3007  -20.4960  -11.5704 O   0  0  0  0  0  0  0  0  0  0  0  0
  2  1  1  0
  3  5  1  0
  3  2  1  0
  3  4  1  1
  5  6  1  6
  5  7  1  0
  7  8  2  0
 10 12  1  0
 10  9  1  1
 11 10  1  0
 13  7  1  0
 12 13  1  1
 14 12  1  0
 14 15  2  0
 16 14  1  0
 17 16  1  0
 17 28  1  0
 17 18  1  1
 19 27  1  0
 19 18  1  0
 20 19  2  0
 21 20  1  0
 21 22  1  0
 22 23  1  0
 22 27  2  0
 23 24  2  0
 24 25  1  0
 26 25  2  0
 27 26  1  0
 28 30  2  0
 28 29  1  0
M  END
$$$$
