IVW.pdb
     RDKit          3D

 30 31  0  0  1  0  0  0  0  0999 V2000
   25.2573  -25.6015  -19.4603 C   0  0  0  0  0  0  0  0  0  0  0  0
   26.2466  -24.4821  -19.3980 C   0  0  0  0  0  0  0  0  0  0  0  0
   26.5829  -24.0623  -17.9616 C   0  0  2  0  0  0  0  0  0  0  0  0
   25.3305  -23.5965  -17.2633 C   0  0  0  0  0  0  0  0  0  0  0  0
   27.6213  -22.9543  -17.9774 C   0  0  2  0  0  0  0  0  0  0  0  0
   28.9348  -23.5830  -18.2643 N   0  0  0  0  0  0  0  0  0  0  0  0
   27.7852  -22.3136  -16.6492 C   0  0  0  0  0  0  0  0  0  0  0  0
   28.4455  -22.8888  -15.7481 O   0  0  0  0  0  0  0  0  0  0  0  0
   27.7300  -18.3321  -13.7724 C   0  0  0  0  0  0  0  0  0  0  0  0
   27.6068  -18.9778  -15.1497 C   0  0  2  0  0  0  0  0  0  0  0  0
   26.4814  -18.3116  -15.8595 C   0  0  0  0  0  0  0  0  0  0  0  0
   27.4499  -20.4921  -14.9944 C   0  0  2  0  0  0  0  0  0  0  0  0
   27.2305  -21.0577  -16.3241 N   0  0  0  0  0  0  0  0  0  0  0  0
   26.3166  -20.7892  -14.1065 C   0  0  0  0  0  0  0  0  0  0  0  0
   25.1504  -20.7038  -14.6285 O   0  0  0  0  0  0  0  0  0  0  0  0
   26.3576  -21.1602  -12.7560 N   0  0  0  0  0  0  0  0  0  0  0  0
   25.1403  -21.3792  -11.9331 C   0  0  1  0  0  0  0  0  0  0  0  0
   25.4989  -22.0617  -10.6688 C   0  0  0  0  0  0  0  0  0  0  0  0
   26.0935  -21.1326   -9.6958 C   0  0  0  0  0  0  0  0  0  0  0  0
   25.4631  -20.0761   -9.0265 C   0  0  0  0  0  0  0  0  0  0  0  0
   26.3431  -19.4374   -8.2466 N   0  0  0  0  0  0  0  0  0  0  0  0
   27.5442  -20.0223   -8.3625 C   0  0  0  0  0  0  0  0  0  0  0  0
   28.7396  -19.6993   -7.7226 C   0  0  0  0  0  0  0  0  0  0  0  0
   29.8360  -20.4768   -8.0016 C   0  0  0  0  0  0  0  0  0  0  0  0
   29.7336  -21.5311   -8.8841 C   0  0  0  0  0  0  0  0  0  0  0  0
   28.5431  -21.8304   -9.5042 C   0  0  0  0  0  0  0  0  0  0  0  0
   27.4153  -21.0655   -9.2464 C   0  0  0  0  0  0  0  0  0  0  0  0
   24.2885  -20.2005  -11.8700 C   0  0  0  0  0  0  0  0  0  0  0  0
   24.8105  -18.9385  -11.9557 O   0  0  0  0  0  0  0  0  0  0  0  0
   23.0466  -20.3123  -11.7344 O   0  0  0  0  0  0  0  0  0  0  0  0
  2  1  1  0
  3  5  1  0
  3  2  1  0
  3  4  1  6
  5  6  1  1
  5  7  1  0
  7  8  2  0
 10 12  1  0
 10  9  1  1
 11 10  1  0
 13  7  1  0
 12 13  1  6
 14 12  1  0
 14 15  2  0
 16 14  1  0
 17 16  1  0
 17 28  1  0
 17 18  1  1
 19 27  1  0
 19 18  1  0
 20 19  2  0
 21 20  1  0
 21 22  1  0
 22 23  1  0
 22 27  2  0
 23 24  2  0
 24 25  1  0
 26 25  2  0
 27 26  1  0
 28 30  2  0
 28 29  1  0
M  END
$$$$
