IVW.pdb
     RDKit          3D

 30 31  0  0  1  0  0  0  0  0999 V2000
   29.8893  -16.6276  -16.8649 C   0  0  0  0  0  0  0  0  0  0  0  0
   29.3443  -18.0196  -16.8330 C   0  0  0  0  0  0  0  0  0  0  0  0
   28.2546  -18.2095  -15.7705 C   0  0  2  0  0  0  0  0  0  0  0  0
   28.8685  -18.1329  -14.3956 C   0  0  0  0  0  0  0  0  0  0  0  0
   27.5690  -19.5500  -15.9682 C   0  0  2  0  0  0  0  0  0  0  0  0
   26.9371  -19.5300  -17.3110 N   0  0  0  0  0  0  0  0  0  0  0  0
   26.4468  -19.7568  -15.0198 C   0  0  0  0  0  0  0  0  0  0  0  0
   25.4428  -19.0021  -15.0558 O   0  0  0  0  0  0  0  0  0  0  0  0
   25.4193  -23.3565  -13.3402 C   0  0  0  0  0  0  0  0  0  0  0  0
   24.5188  -22.1292  -13.4487 C   0  0  2  0  0  0  0  0  0  0  0  0
   23.9230  -22.1278  -14.8123 C   0  0  0  0  0  0  0  0  0  0  0  0
   25.3214  -20.8719  -13.1071 C   0  0  2  0  0  0  0  0  0  0  0  0
   26.4343  -20.7816  -14.0502 N   0  0  0  0  0  0  0  0  0  0  0  0
   25.8135  -20.9529  -11.7242 C   0  0  0  0  0  0  0  0  0  0  0  0
   27.0746  -21.1227  -11.5807 O   0  0  0  0  0  0  0  0  0  0  0  0
   25.0691  -20.8619  -10.5407 N   0  0  0  0  0  0  0  0  0  0  0  0
   25.6715  -20.9756   -9.1874 C   0  0  1  0  0  0  0  0  0  0  0  0
   26.9215  -20.1845   -9.1208 C   0  0  0  0  0  0  0  0  0  0  0  0
   27.2536  -19.8024   -7.7398 C   0  0  0  0  0  0  0  0  0  0  0  0
   26.4227  -19.1762   -6.8023 C   0  0  0  0  0  0  0  0  0  0  0  0
   27.0949  -18.9613   -5.6654 N   0  0  0  0  0  0  0  0  0  0  0  0
   28.3483  -19.4189   -5.7983 C   0  0  0  0  0  0  0  0  0  0  0  0
   29.3834  -19.4177   -4.8647 C   0  0  0  0  0  0  0  0  0  0  0  0
   30.5797  -19.9721   -5.2467 C   0  0  0  0  0  0  0  0  0  0  0  0
   30.7271  -20.5035   -6.5103 C   0  0  0  0  0  0  0  0  0  0  0  0
   29.6913  -20.4928   -7.4150 C   0  0  0  0  0  0  0  0  0  0  0  0
   28.4690  -19.9400   -7.0632 C   0  0  0  0  0  0  0  0  0  0  0  0
   24.6906  -20.8173   -8.1237 C   0  0  0  0  0  0  0  0  0  0  0  0
   23.5195  -20.1397   -8.3290 O   0  0  0  0  0  0  0  0  0  0  0  0
   24.8951  -21.3008   -6.9845 O   0  0  0  0  0  0  0  0  0  0  0  0
  2  1  1  0
  3  5  1  0
  3  2  1  0
  3  4  1  1
  5  6  1  6
  5  7  1  0
  7  8  2  0
 10 12  1  0
 10  9  1  6
 11 10  1  0
 13  7  1  0
 12 13  1  6
 14 12  1  0
 14 15  2  0
 16 14  1  0
 17 16  1  0
 17 28  1  0
 17 18  1  1
 19 27  1  0
 19 18  1  0
 20 19  2  0
 21 20  1  0
 21 22  1  0
 22 23  1  0
 22 27  2  0
 23 24  2  0
 24 25  1  0
 26 25  2  0
 27 26  1  0
 28 30  2  0
 28 29  1  0
M  END
$$$$
