IVW.pdb
     RDKit          3D

 30 31  0  0  1  0  0  0  0  0999 V2000
   24.7274  -25.9894  -17.4349 C   0  0  0  0  0  0  0  0  0  0  0  0
   25.4415  -24.6908  -17.6336 C   0  0  0  0  0  0  0  0  0  0  0  0
   25.9821  -24.1009  -16.3250 C   0  0  2  0  0  0  0  0  0  0  0  0
   24.8407  -23.8490  -15.3728 C   0  0  0  0  0  0  0  0  0  0  0  0
   26.7264  -22.8083  -16.6102 C   0  0  2  0  0  0  0  0  0  0  0  0
   27.9935  -23.1689  -17.2936 N   0  0  0  0  0  0  0  0  0  0  0  0
   27.1453  -22.1111  -15.3693 C   0  0  0  0  0  0  0  0  0  0  0  0
   28.1292  -22.5315  -14.7106 O   0  0  0  0  0  0  0  0  0  0  0  0
   27.8260  -18.3538  -15.0025 C   0  0  0  0  0  0  0  0  0  0  0  0
   26.8815  -18.7923  -13.8869 C   0  0  2  0  0  0  0  0  0  0  0  0
   27.1937  -17.9722  -12.6851 C   0  0  0  0  0  0  0  0  0  0  0  0
   27.0061  -20.3024  -13.6729 C   0  0  2  0  0  0  0  0  0  0  0  0
   26.4888  -20.9677  -14.8670 N   0  0  0  0  0  0  0  0  0  0  0  0
   26.2456  -20.7031  -12.4805 C   0  0  0  0  0  0  0  0  0  0  0  0
   24.9876  -20.8788  -12.6434 O   0  0  0  0  0  0  0  0  0  0  0  0
   26.7318  -20.9216  -11.1846 N   0  0  0  0  0  0  0  0  0  0  0  0
   25.8743  -21.3665  -10.0560 C   0  0  1  0  0  0  0  0  0  0  0  0
   26.7143  -21.7120   -8.8866 C   0  0  0  0  0  0  0  0  0  0  0  0
   26.9474  -20.5481   -8.0179 C   0  0  0  0  0  0  0  0  0  0  0  0
   26.4249  -19.2565   -8.1601 C   0  0  0  0  0  0  0  0  0  0  0  0
   26.8943  -18.4629   -7.1904 N   0  0  0  0  0  0  0  0  0  0  0  0
   27.7136  -19.1689   -6.3976 C   0  0  0  0  0  0  0  0  0  0  0  0
   28.4063  -18.7513   -5.2624 C   0  0  0  0  0  0  0  0  0  0  0  0
   29.1709  -19.6857   -4.6093 C   0  0  0  0  0  0  0  0  0  0  0  0
   29.2352  -20.9809   -5.0774 C   0  0  0  0  0  0  0  0  0  0  0  0
   28.5432  -21.3696   -6.2005 C   0  0  0  0  0  0  0  0  0  0  0  0
   27.7613  -20.4516   -6.8857 C   0  0  0  0  0  0  0  0  0  0  0  0
   24.7226  -20.4996   -9.8534 C   0  0  0  0  0  0  0  0  0  0  0  0
   23.5387  -20.9881   -9.3713 O   0  0  0  0  0  0  0  0  0  0  0  0
   24.7864  -19.2751  -10.1174 O   0  0  0  0  0  0  0  0  0  0  0  0
  2  1  1  0
  3  5  1  0
  3  2  1  0
  3  4  1  1
  5  6  1  6
  5  7  1  0
  7  8  2  0
 10 12  1  0
 10  9  1  6
 11 10  1  0
 13  7  1  0
 12 13  1  6
 14 12  1  0
 14 15  2  0
 16 14  1  0
 17 16  1  0
 17 28  1  0
 17 18  1  1
 19 27  1  0
 19 18  1  0
 20 19  2  0
 21 20  1  0
 21 22  1  0
 22 23  1  0
 22 27  2  0
 23 24  2  0
 24 25  1  0
 26 25  2  0
 27 26  1  0
 28 30  2  0
 28 29  1  0
M  END
$$$$
