IVW.pdb
     RDKit          3D

 30 31  0  0  1  0  0  0  0  0999 V2000
   22.6543  -14.5657  -14.7563 C   0  0  0  0  0  0  0  0  0  0  0  0
   23.4696  -15.2931  -15.7770 C   0  0  0  0  0  0  0  0  0  0  0  0
   24.9081  -14.7699  -15.8749 C   0  0  2  0  0  0  0  0  0  0  0  0
   24.8911  -13.3006  -16.2126 C   0  0  0  0  0  0  0  0  0  0  0  0
   25.6687  -15.5463  -16.9354 C   0  0  2  0  0  0  0  0  0  0  0  0
   24.9454  -15.3669  -18.2190 N   0  0  0  0  0  0  0  0  0  0  0  0
   25.6514  -17.0090  -16.6871 C   0  0  0  0  0  0  0  0  0  0  0  0
   24.6913  -17.7076  -17.0980 O   0  0  0  0  0  0  0  0  0  0  0  0
   29.0367  -19.3930  -15.9564 C   0  0  0  0  0  0  0  0  0  0  0  0
   27.6866  -19.8216  -16.5243 C   0  0  2  0  0  0  0  0  0  0  0  0
   27.7028  -19.5381  -17.9850 C   0  0  0  0  0  0  0  0  0  0  0  0
   26.5619  -19.1240  -15.7563 C   0  0  2  0  0  0  0  0  0  0  0  0
   26.6790  -17.6873  -15.9984 N   0  0  0  0  0  0  0  0  0  0  0  0
   26.6754  -19.4231  -14.3215 C   0  0  0  0  0  0  0  0  0  0  0  0
   27.2736  -18.5460  -13.6055 O   0  0  0  0  0  0  0  0  0  0  0  0
   26.2032  -20.5522  -13.6393 N   0  0  0  0  0  0  0  0  0  0  0  0
   26.4427  -20.7905  -12.1926 C   0  0  1  0  0  0  0  0  0  0  0  0
   26.0773  -19.5857  -11.4130 C   0  0  0  0  0  0  0  0  0  0  0  0
   25.8911  -19.8932   -9.9867 C   0  0  0  0  0  0  0  0  0  0  0  0
   24.7466  -20.4082   -9.3651 C   0  0  0  0  0  0  0  0  0  0  0  0
   24.9516  -20.5198   -8.0476 N   0  0  0  0  0  0  0  0  0  0  0  0
   26.1913  -20.1007   -7.7548 C   0  0  0  0  0  0  0  0  0  0  0  0
   26.8302  -20.0574   -6.5167 C   0  0  0  0  0  0  0  0  0  0  0  0
   28.1242  -19.5999   -6.4890 C   0  0  0  0  0  0  0  0  0  0  0  0
   28.7463  -19.2045   -7.6541 C   0  0  0  0  0  0  0  0  0  0  0  0
   28.0952  -19.2555   -8.8644 C   0  0  0  0  0  0  0  0  0  0  0  0
   26.7870  -19.7116   -8.9294 C   0  0  0  0  0  0  0  0  0  0  0  0
   25.9438  -22.0839  -11.7489 C   0  0  0  0  0  0  0  0  0  0  0  0
   26.4960  -22.7316  -10.6774 O   0  0  0  0  0  0  0  0  0  0  0  0
   24.9890  -22.6414  -12.3413 O   0  0  0  0  0  0  0  0  0  0  0  0
  2  1  1  0
  3  5  1  0
  3  2  1  0
  3  4  1  6
  5  6  1  6
  5  7  1  0
  7  8  2  0
 10 12  1  0
 10  9  1  1
 11 10  1  0
 13  7  1  0
 12 13  1  1
 14 12  1  0
 14 15  2  0
 16 14  1  0
 17 16  1  0
 17 28  1  0
 17 18  1  1
 19 27  1  0
 19 18  1  0
 20 19  2  0
 21 20  1  0
 21 22  1  0
 22 23  1  0
 22 27  2  0
 23 24  2  0
 24 25  1  0
 26 25  2  0
 27 26  1  0
 28 30  2  0
 28 29  1  0
M  END
$$$$
