IVW.pdb
     RDKit          3D

 30 31  0  0  1  0  0  0  0  0999 V2000
   32.7016  -22.4201  -15.5846 C   0  0  0  0  0  0  0  0  0  0  0  0
   31.5952  -22.0877  -16.5338 C   0  0  0  0  0  0  0  0  0  0  0  0
   30.4017  -21.4129  -15.8461 C   0  0  2  0  0  0  0  0  0  0  0  0
   29.8356  -22.3335  -14.7949 C   0  0  0  0  0  0  0  0  0  0  0  0
   29.3389  -21.0706  -16.8754 C   0  0  2  0  0  0  0  0  0  0  0  0
   29.9011  -20.0189  -17.7589 N   0  0  0  0  0  0  0  0  0  0  0  0
   28.1362  -20.4540  -16.2631 C   0  0  0  0  0  0  0  0  0  0  0  0
   28.1246  -19.2273  -15.9919 O   0  0  0  0  0  0  0  0  0  0  0  0
   23.3805  -20.1439  -15.4808 C   0  0  0  0  0  0  0  0  0  0  0  0
   24.6200  -20.6533  -16.2110 C   0  0  2  0  0  0  0  0  0  0  0  0
   24.3415  -22.0474  -16.6508 C   0  0  0  0  0  0  0  0  0  0  0  0
   25.8451  -20.5077  -15.3057 C   0  0  2  0  0  0  0  0  0  0  0  0
   26.9662  -21.1812  -15.9583 N   0  0  0  0  0  0  0  0  0  0  0  0
   25.5697  -21.1055  -13.9913 C   0  0  0  0  0  0  0  0  0  0  0  0
   26.0163  -22.2908  -13.8032 O   0  0  0  0  0  0  0  0  0  0  0  0
   24.8803  -20.5326  -12.9144 N   0  0  0  0  0  0  0  0  0  0  0  0
   24.6924  -21.2172  -11.6093 C   0  0  1  0  0  0  0  0  0  0  0  0
   25.9979  -21.3803  -10.9298 C   0  0  0  0  0  0  0  0  0  0  0  0
   25.9600  -20.8824   -9.5462 C   0  0  0  0  0  0  0  0  0  0  0  0
   24.8439  -20.7720   -8.7073 C   0  0  0  0  0  0  0  0  0  0  0  0
   25.2044  -20.2429   -7.5323 N   0  0  0  0  0  0  0  0  0  0  0  0
   26.5217  -19.9921   -7.5445 C   0  0  0  0  0  0  0  0  0  0  0  0
   27.3201  -19.4600   -6.5334 C   0  0  0  0  0  0  0  0  0  0  0  0
   28.6607  -19.3216   -6.7937 C   0  0  0  0  0  0  0  0  0  0  0  0
   29.1740  -19.7014   -8.0156 C   0  0  0  0  0  0  0  0  0  0  0  0
   28.3663  -20.2235   -8.9986 C   0  0  0  0  0  0  0  0  0  0  0  0
   27.0069  -20.3768   -8.7703 C   0  0  0  0  0  0  0  0  0  0  0  0
   23.5755  -20.6751  -10.8494 C   0  0  0  0  0  0  0  0  0  0  0  0
   22.7983  -21.4745  -10.0560 O   0  0  0  0  0  0  0  0  0  0  0  0
   23.2952  -19.4536  -10.9027 O   0  0  0  0  0  0  0  0  0  0  0  0
  2  1  1  0
  3  5  1  0
  3  2  1  0
  3  4  1  1
  5  6  1  6
  5  7  1  0
  7  8  2  0
 10 12  1  0
 10  9  1  1
 11 10  1  0
 13  7  1  0
 12 13  1  6
 14 12  1  0
 14 15  2  0
 16 14  1  0
 17 16  1  0
 17 28  1  0
 17 18  1  1
 19 27  1  0
 19 18  1  0
 20 19  2  0
 21 20  1  0
 21 22  1  0
 22 23  1  0
 22 27  2  0
 23 24  2  0
 24 25  1  0
 26 25  2  0
 27 26  1  0
 28 30  2  0
 28 29  1  0
M  END
$$$$
