IVW.pdb
     RDKit          3D

 30 31  0  0  1  0  0  0  0  0999 V2000
   29.5498  -23.0580  -15.2156 C   0  0  0  0  0  0  0  0  0  0  0  0
   28.4681  -22.0616  -14.9456 C   0  0  0  0  0  0  0  0  0  0  0  0
   27.3495  -22.0965  -15.9944 C   0  0  2  0  0  0  0  0  0  0  0  0
   27.9207  -21.7881  -17.3552 C   0  0  0  0  0  0  0  0  0  0  0  0
   26.2722  -21.0888  -15.6337 C   0  0  2  0  0  0  0  0  0  0  0  0
   26.9532  -19.8930  -15.0777 N   0  0  0  0  0  0  0  0  0  0  0  0
   25.3904  -21.5699  -14.5417 C   0  0  0  0  0  0  0  0  0  0  0  0
   24.7041  -22.6108  -14.6969 O   0  0  0  0  0  0  0  0  0  0  0  0
   24.8549  -19.6525  -10.6130 C   0  0  0  0  0  0  0  0  0  0  0  0
   24.9667  -21.1449  -10.9116 C   0  0  2  0  0  0  0  0  0  0  0  0
   26.3991  -21.5244  -10.7761 C   0  0  0  0  0  0  0  0  0  0  0  0
   24.3605  -21.4402  -12.2853 C   0  0  2  0  0  0  0  0  0  0  0  0
   25.2714  -20.9123  -13.2991 N   0  0  0  0  0  0  0  0  0  0  0  0
   23.0365  -20.8109  -12.3937 C   0  0  0  0  0  0  0  0  0  0  0  0
   22.9999  -19.5393  -12.2469 O   0  0  0  0  0  0  0  0  0  0  0  0
   21.8068  -21.4342  -12.6436 N   0  0  0  0  0  0  0  0  0  0  0  0
   20.5234  -20.6934  -12.7495 C   0  0  1  0  0  0  0  0  0  0  0  0
   20.6052  -19.6903  -13.8357 C   0  0  0  0  0  0  0  0  0  0  0  0
   20.8158  -20.3212  -15.1476 C   0  0  0  0  0  0  0  0  0  0  0  0
   20.1738  -21.4532  -15.6653 C   0  0  0  0  0  0  0  0  0  0  0  0
   20.6599  -21.7413  -16.8782 N   0  0  0  0  0  0  0  0  0  0  0  0
   21.6055  -20.8468  -17.2007 C   0  0  0  0  0  0  0  0  0  0  0  0
   22.3605  -20.7549  -18.3688 C   0  0  0  0  0  0  0  0  0  0  0  0
   23.2587  -19.7210  -18.4610 C   0  0  0  0  0  0  0  0  0  0  0  0
   23.3908  -18.8210  -17.4250 C   0  0  0  0  0  0  0  0  0  0  0  0
   22.6351  -18.9324  -16.2814 C   0  0  0  0  0  0  0  0  0  0  0  0
   21.7183  -19.9651  -16.1538 C   0  0  0  0  0  0  0  0  0  0  0  0
   19.3646  -21.5728  -12.7005 C   0  0  0  0  0  0  0  0  0  0  0  0
   18.0989  -21.0763  -12.5449 O   0  0  0  0  0  0  0  0  0  0  0  0
   19.4974  -22.8161  -12.8001 O   0  0  0  0  0  0  0  0  0  0  0  0
  2  1  1  0
  3  5  1  0
  3  2  1  0
  3  4  1  6
  5  6  1  1
  5  7  1  0
  7  8  2  0
 10 12  1  0
 10  9  1  6
 11 10  1  0
 13  7  1  0
 12 13  1  6
 14 12  1  0
 14 15  2  0
 16 14  1  0
 17 16  1  0
 17 28  1  0
 17 18  1  6
 19 27  1  0
 19 18  1  0
 20 19  2  0
 21 20  1  0
 21 22  1  0
 22 23  1  0
 22 27  2  0
 23 24  2  0
 24 25  1  0
 26 25  2  0
 27 26  1  0
 28 30  2  0
 28 29  1  0
M  END
$$$$
