IVW.pdb
     RDKit          3D

 30 31  0  0  1  0  0  0  0  0999 V2000
   29.5395  -17.3725  -17.2928 C   0  0  0  0  0  0  0  0  0  0  0  0
   28.3048  -18.1886  -17.0800 C   0  0  0  0  0  0  0  0  0  0  0  0
   27.8038  -18.1456  -15.6309 C   0  0  2  0  0  0  0  0  0  0  0  0
   28.8520  -18.7245  -14.7148 C   0  0  0  0  0  0  0  0  0  0  0  0
   26.5074  -18.9271  -15.5097 C   0  0  2  0  0  0  0  0  0  0  0  0
   25.5037  -18.2558  -16.3727 N   0  0  0  0  0  0  0  0  0  0  0  0
   25.9369  -18.8679  -14.1413 C   0  0  0  0  0  0  0  0  0  0  0  0
   25.5602  -17.7695  -13.6615 O   0  0  0  0  0  0  0  0  0  0  0  0
   23.8000  -21.8766  -12.4323 C   0  0  0  0  0  0  0  0  0  0  0  0
   23.7733  -20.4031  -12.0360 C   0  0  2  0  0  0  0  0  0  0  0  0
   22.8790  -19.6963  -12.9926 C   0  0  0  0  0  0  0  0  0  0  0  0
   25.2028  -19.8592  -11.9856 C   0  0  2  0  0  0  0  0  0  0  0  0
   25.7838  -20.0041  -13.3189 N   0  0  0  0  0  0  0  0  0  0  0  0
   25.9867  -20.6044  -10.9901 C   0  0  0  0  0  0  0  0  0  0  0  0
   26.6341  -21.6205  -11.4239 O   0  0  0  0  0  0  0  0  0  0  0  0
   26.1160  -20.3345   -9.6213 N   0  0  0  0  0  0  0  0  0  0  0  0
   26.5545  -21.3484   -8.6278 C   0  0  1  0  0  0  0  0  0  0  0  0
   27.9207  -21.0336   -8.1513 C   0  0  0  0  0  0  0  0  0  0  0  0
   27.9186  -19.9364   -7.1716 C   0  0  0  0  0  0  0  0  0  0  0  0
   27.2814  -18.6940   -7.2803 C   0  0  0  0  0  0  0  0  0  0  0  0
   27.5400  -17.9500   -6.1986 N   0  0  0  0  0  0  0  0  0  0  0  0
   28.3272  -18.6424   -5.3624 C   0  0  0  0  0  0  0  0  0  0  0  0
   28.8264  -18.2646   -4.1170 C   0  0  0  0  0  0  0  0  0  0  0  0
   29.6015  -19.1759   -3.4439 C   0  0  0  0  0  0  0  0  0  0  0  0
   29.8619  -20.4108   -3.9989 C   0  0  0  0  0  0  0  0  0  0  0  0
   29.3588  -20.7610   -5.2300 C   0  0  0  0  0  0  0  0  0  0  0  0
   28.5725  -19.8648   -5.9384 C   0  0  0  0  0  0  0  0  0  0  0  0
   25.5256  -21.6470   -7.6425 C   0  0  0  0  0  0  0  0  0  0  0  0
   25.7081  -22.6145   -6.6921 O   0  0  0  0  0  0  0  0  0  0  0  0
   24.4385  -21.0212   -7.6394 O   0  0  0  0  0  0  0  0  0  0  0  0
  2  1  1  0
  3  5  1  0
  3  2  1  0
  3  4  1  1
  5  6  1  6
  5  7  1  0
  7  8  2  0
 10 12  1  0
 10  9  1  6
 11 10  1  0
 13  7  1  0
 12 13  1  6
 14 12  1  0
 14 15  2  0
 16 14  1  0
 17 16  1  0
 17 28  1  0
 17 18  1  1
 19 27  1  0
 19 18  1  0
 20 19  2  0
 21 20  1  0
 21 22  1  0
 22 23  1  0
 22 27  2  0
 23 24  2  0
 24 25  1  0
 26 25  2  0
 27 26  1  0
 28 30  2  0
 28 29  1  0
M  END
$$$$
