IVW.pdb
     RDKit          3D

 30 31  0  0  1  0  0  0  0  0999 V2000
   23.3681  -14.2182  -16.2085 C   0  0  0  0  0  0  0  0  0  0  0  0
   23.3927  -15.6707  -16.5622 C   0  0  0  0  0  0  0  0  0  0  0  0
   23.4111  -16.5845  -15.3305 C   0  0  2  0  0  0  0  0  0  0  0  0
   24.6490  -16.3106  -14.5146 C   0  0  0  0  0  0  0  0  0  0  0  0
   23.3775  -18.0389  -15.7662 C   0  0  2  0  0  0  0  0  0  0  0  0
   22.0590  -18.2794  -16.4037 N   0  0  0  0  0  0  0  0  0  0  0  0
   23.4236  -18.9752  -14.6161 C   0  0  0  0  0  0  0  0  0  0  0  0
   22.4250  -19.1004  -13.8638 O   0  0  0  0  0  0  0  0  0  0  0  0
   24.8817  -23.1292  -12.6483 C   0  0  0  0  0  0  0  0  0  0  0  0
   24.8857  -22.0957  -13.7712 C   0  0  2  0  0  0  0  0  0  0  0  0
   26.2304  -22.1286  -14.4076 C   0  0  0  0  0  0  0  0  0  0  0  0
   24.4827  -20.7293  -13.2126 C   0  0  2  0  0  0  0  0  0  0  0  0
   24.5534  -19.7609  -14.3050 N   0  0  0  0  0  0  0  0  0  0  0  0
   25.3878  -20.3496  -12.1182 C   0  0  0  0  0  0  0  0  0  0  0  0
   26.3978  -19.6319  -12.4415 O   0  0  0  0  0  0  0  0  0  0  0  0
   25.2767  -20.6743  -10.7597 N   0  0  0  0  0  0  0  0  0  0  0  0
   26.2972  -20.3024   -9.7461 C   0  0  1  0  0  0  0  0  0  0  0  0
   25.6360  -19.7757   -8.5304 C   0  0  0  0  0  0  0  0  0  0  0  0
   26.5953  -19.1259   -7.6243 C   0  0  0  0  0  0  0  0  0  0  0  0
   27.1101  -17.8264   -7.7129 C   0  0  0  0  0  0  0  0  0  0  0  0
   27.9837  -17.6110   -6.7225 N   0  0  0  0  0  0  0  0  0  0  0  0
   28.0785  -18.7150   -5.9672 C   0  0  0  0  0  0  0  0  0  0  0  0
   28.8520  -18.9314   -4.8280 C   0  0  0  0  0  0  0  0  0  0  0  0
   28.7518  -20.1579   -4.2198 C   0  0  0  0  0  0  0  0  0  0  0  0
   27.9115  -21.1221   -4.7346 C   0  0  0  0  0  0  0  0  0  0  0  0
   27.1582  -20.8857   -5.8607 C   0  0  0  0  0  0  0  0  0  0  0  0
   27.2352  -19.6581   -6.5013 C   0  0  0  0  0  0  0  0  0  0  0  0
   27.3286  -21.3180   -9.5925 C   0  0  0  0  0  0  0  0  0  0  0  0
   28.5531  -21.0159   -9.0616 O   0  0  0  0  0  0  0  0  0  0  0  0
   27.1199  -22.5035   -9.9451 O   0  0  0  0  0  0  0  0  0  0  0  0
  2  1  1  0
  3  5  1  0
  3  2  1  0
  3  4  1  6
  5  6  1  1
  5  7  1  0
  7  8  2  0
 10 12  1  0
 10  9  1  1
 11 10  1  0
 13  7  1  0
 12 13  1  6
 14 12  1  0
 14 15  2  0
 16 14  1  0
 17 16  1  0
 17 28  1  0
 17 18  1  1
 19 27  1  0
 19 18  1  0
 20 19  2  0
 21 20  1  0
 21 22  1  0
 22 23  1  0
 22 27  2  0
 23 24  2  0
 24 25  1  0
 26 25  2  0
 27 26  1  0
 28 30  2  0
 28 29  1  0
M  END
$$$$
