YGH.pdb
     RDKit          3D

 27 28  0  0  1  0  0  0  0  0999 V2000
   38.0208  -21.8946    7.2997 O   0  0  0  0  0  0  0  0  0  0  0  0
   38.4005  -22.8349    6.3553 C   0  0  0  0  0  0  0  0  0  0  0  0
   39.6931  -23.3210    6.2624 C   0  0  0  0  0  0  0  0  0  0  0  0
   40.0364  -24.2572    5.3096 C   0  0  0  0  0  0  0  0  0  0  0  0
   39.0951  -24.7218    4.4359 C   0  0  0  0  0  0  0  0  0  0  0  0
   39.3990  -25.7336    3.3818 C   0  0  0  0  0  0  0  0  0  0  0  0
   39.4773  -27.0750    4.0553 C   0  0  2  0  0  0  0  0  0  0  0  0
   39.7323  -28.0843    3.0525 N   0  0  0  0  0  0  0  0  0  0  0  0
   38.3016  -27.4218    4.8399 C   0  0  0  0  0  0  0  0  0  0  0  0
   37.2595  -27.7949    4.2461 O   0  0  0  0  0  0  0  0  0  0  0  0
   37.8023  -24.2212    4.5454 C   0  0  0  0  0  0  0  0  0  0  0  0
   37.4397  -23.2965    5.4781 C   0  0  0  0  0  0  0  0  0  0  0  0
   38.2525  -27.3661    6.2471 N   0  0  0  0  0  0  0  0  0  0  0  0
   37.0467  -27.6529    7.0062 C   0  0  0  0  0  0  0  0  0  0  0  0
   36.4573  -26.4079    7.5612 C   0  0  0  0  0  0  0  0  0  0  0  0
   37.1865  -25.4017    7.6858 O   0  0  0  0  0  0  0  0  0  0  0  0
   35.0963  -26.3368    7.9495 N   0  0  0  0  0  0  0  0  0  0  0  0
   34.3382  -25.0624    7.8379 C   0  0  1  0  0  0  0  0  0  0  0  0
   34.2461  -24.6523    6.4178 C   0  0  0  0  0  0  0  0  0  0  0  0
   33.5101  -23.4036    6.1549 C   0  0  0  0  0  0  0  0  0  0  0  0
   32.9678  -22.4456    6.9627 C   0  0  0  0  0  0  0  0  0  0  0  0
   32.4746  -21.4882    6.1404 N   0  0  0  0  0  0  0  0  0  0  0  0
   32.6919  -21.8161    4.8624 C   0  0  0  0  0  0  0  0  0  0  0  0
   33.3255  -22.9866    4.8590 N   0  0  0  0  0  0  0  0  0  0  0  0
   32.9752  -25.3518    8.4255 C   0  0  0  0  0  0  0  0  0  0  0  0
   32.2416  -24.3250    9.0360 O   0  0  0  0  0  0  0  0  0  0  0  0
   32.4833  -26.4585    8.3882 O   0  0  0  0  0  0  0  0  0  0  0  0
  2  3  2  0
  2  1  1  0
  4  3  1  0
  5  4  2  0
  6  7  1  0
  6  5  1  0
  7  8  1  6
  9  7  1  0
  9 13  1  0
 10  9  2  0
 11  5  1  0
 11 12  2  0
 12  2  1  0
 14 13  1  0
 15 14  1  0
 15 16  2  0
 17 18  1  0
 17 15  1  0
 18 19  1  6
 20 19  1  0
 20 21  2  0
 22 21  1  0
 23 22  1  0
 24 23  2  0
 24 20  1  0
 25 18  1  0
 26 25  1  0
 27 25  2  0
M  END
$$$$
