YGH.pdb
     RDKit          3D

 27 28  0  0  1  0  0  0  0  0999 V2000
   23.2093  -15.4730  -20.7065 O   0  0  0  0  0  0  0  0  0  0  0  0
   23.2173  -16.2112  -19.5338 C   0  0  0  0  0  0  0  0  0  0  0  0
   22.0642  -16.7246  -18.9660 C   0  0  0  0  0  0  0  0  0  0  0  0
   22.1088  -17.4554  -17.7971 C   0  0  0  0  0  0  0  0  0  0  0  0
   23.3046  -17.6844  -17.1782 C   0  0  0  0  0  0  0  0  0  0  0  0
   23.4239  -18.4661  -15.9126 C   0  0  0  0  0  0  0  0  0  0  0  0
   24.0014  -19.8081  -16.2656 C   0  0  2  0  0  0  0  0  0  0  0  0
   22.9380  -20.6588  -16.7503 N   0  0  0  0  0  0  0  0  0  0  0  0
   24.7178  -20.4576  -15.1779 C   0  0  0  0  0  0  0  0  0  0  0  0
   24.0821  -21.1898  -14.3793 O   0  0  0  0  0  0  0  0  0  0  0  0
   24.4517  -17.1604  -17.7643 C   0  0  0  0  0  0  0  0  0  0  0  0
   24.4322  -16.4357  -18.9180 C   0  0  0  0  0  0  0  0  0  0  0  0
   26.1023  -20.3179  -14.9561 N   0  0  0  0  0  0  0  0  0  0  0  0
   26.7814  -20.9063  -13.8137 C   0  0  0  0  0  0  0  0  0  0  0  0
   26.3097  -20.3003  -12.5426 C   0  0  0  0  0  0  0  0  0  0  0  0
   26.1893  -19.0589  -12.4774 O   0  0  0  0  0  0  0  0  0  0  0  0
   25.9954  -21.0930  -11.4109 N   0  0  0  0  0  0  0  0  0  0  0  0
   25.6166  -20.4604  -10.1195 C   0  0  1  0  0  0  0  0  0  0  0  0
   24.2790  -20.9357   -9.6975 C   0  0  0  0  0  0  0  0  0  0  0  0
   23.1382  -20.4194  -10.4734 C   0  0  0  0  0  0  0  0  0  0  0  0
   23.0340  -19.5696  -11.5372 C   0  0  0  0  0  0  0  0  0  0  0  0
   21.7196  -19.5275  -11.8639 N   0  0  0  0  0  0  0  0  0  0  0  0
   21.0122  -20.3157  -11.0476 C   0  0  0  0  0  0  0  0  0  0  0  0
   21.8702  -20.8672  -10.1924 N   0  0  0  0  0  0  0  0  0  0  0  0
   26.6912  -20.8726   -9.1386 C   0  0  0  0  0  0  0  0  0  0  0  0
   26.7328  -20.2981   -7.8605 O   0  0  0  0  0  0  0  0  0  0  0  0
   27.5339  -21.6963   -9.4203 O   0  0  0  0  0  0  0  0  0  0  0  0
  2  3  2  0
  2  1  1  0
  4  3  1  0
  5  4  2  0
  6  7  1  0
  6  5  1  0
  7  8  1  1
  9  7  1  0
  9 13  1  0
 10  9  2  0
 11  5  1  0
 11 12  2  0
 12  2  1  0
 14 13  1  0
 15 14  1  0
 15 16  2  0
 17 18  1  0
 17 15  1  0
 18 19  1  1
 20 19  1  0
 20 21  2  0
 22 21  1  0
 23 22  1  0
 24 23  2  0
 24 20  1  0
 25 18  1  0
 26 25  1  0
 27 25  2  0
M  END
$$$$
