YGH.pdb
     RDKit          3D

 27 28  0  0  1  0  0  0  0  0999 V2000
   29.8989  -18.1041  -19.1804 O   0  0  0  0  0  0  0  0  0  0  0  0
   29.1320  -18.2021  -18.0304 C   0  0  0  0  0  0  0  0  0  0  0  0
   27.7504  -18.1211  -18.0443 C   0  0  0  0  0  0  0  0  0  0  0  0
   27.0182  -18.2228  -16.8799 C   0  0  0  0  0  0  0  0  0  0  0  0
   27.6539  -18.4067  -15.6852 C   0  0  0  0  0  0  0  0  0  0  0  0
   26.9229  -18.5247  -14.3895 C   0  0  0  0  0  0  0  0  0  0  0  0
   27.2801  -19.8564  -13.7912 C   0  0  2  0  0  0  0  0  0  0  0  0
   27.0667  -20.8845  -14.7846 N   0  0  0  0  0  0  0  0  0  0  0  0
   26.5626  -20.1751  -12.5658 C   0  0  0  0  0  0  0  0  0  0  0  0
   26.3327  -19.2595  -11.7370 O   0  0  0  0  0  0  0  0  0  0  0  0
   29.0423  -18.4855  -15.6922 C   0  0  0  0  0  0  0  0  0  0  0  0
   29.7867  -18.3879  -16.8293 C   0  0  0  0  0  0  0  0  0  0  0  0
   26.0999  -21.4657  -12.2400 N   0  0  0  0  0  0  0  0  0  0  0  0
   25.3046  -21.7427  -11.0555 C   0  0  0  0  0  0  0  0  0  0  0  0
   23.9069  -21.2720  -11.2295 C   0  0  0  0  0  0  0  0  0  0  0  0
   23.0964  -21.4376  -10.2938 O   0  0  0  0  0  0  0  0  0  0  0  0
   23.4756  -20.6440  -12.4243 N   0  0  0  0  0  0  0  0  0  0  0  0
   22.0689  -20.1873  -12.5796 C   0  0  1  0  0  0  0  0  0  0  0  0
   22.0188  -18.9963  -13.4584 C   0  0  0  0  0  0  0  0  0  0  0  0
   20.6753  -18.4647  -13.7461 C   0  0  0  0  0  0  0  0  0  0  0  0
   19.4222  -18.7990  -13.3191 C   0  0  0  0  0  0  0  0  0  0  0  0
   18.5767  -17.8995  -13.8777 N   0  0  0  0  0  0  0  0  0  0  0  0
   19.2566  -17.0264  -14.6284 C   0  0  0  0  0  0  0  0  0  0  0  0
   20.5424  -17.3624  -14.5550 N   0  0  0  0  0  0  0  0  0  0  0  0
   21.3293  -21.3595  -13.1843 C   0  0  0  0  0  0  0  0  0  0  0  0
   21.9399  -22.1380  -14.1774 O   0  0  0  0  0  0  0  0  0  0  0  0
   20.2075  -21.6574  -12.8367 O   0  0  0  0  0  0  0  0  0  0  0  0
  2  3  2  0
  2  1  1  0
  4  3  1  0
  5  4  2  0
  6  7  1  0
  6  5  1  0
  7  8  1  6
  9  7  1  0
  9 13  1  0
 10  9  2  0
 11  5  1  0
 11 12  2  0
 12  2  1  0
 14 13  1  0
 15 14  1  0
 15 16  2  0
 17 18  1  0
 17 15  1  0
 18 19  1  6
 20 19  1  0
 20 21  2  0
 22 21  1  0
 23 22  1  0
 24 23  2  0
 24 20  1  0
 25 18  1  0
 26 25  1  0
 27 25  2  0
M  END
$$$$
