YGH.pdb
     RDKit          3D

 27 28  0  0  1  0  0  0  0  0999 V2000
   22.9824  -21.8917   -7.7432 O   0  0  0  0  0  0  0  0  0  0  0  0
   23.9135  -21.4446   -8.6670 C   0  0  0  0  0  0  0  0  0  0  0  0
   25.2576  -21.7650   -8.5885 C   0  0  0  0  0  0  0  0  0  0  0  0
   26.1572  -21.3023   -9.5260 C   0  0  0  0  0  0  0  0  0  0  0  0
   25.7286  -20.5133  -10.5551 C   0  0  0  0  0  0  0  0  0  0  0  0
   26.6480  -19.9793  -11.6024 C   0  0  0  0  0  0  0  0  0  0  0  0
   25.9220  -20.0500  -12.9165 C   0  0  2  0  0  0  0  0  0  0  0  0
   25.7075  -21.4388  -13.2550 N   0  0  0  0  0  0  0  0  0  0  0  0
   26.5893  -19.3566  -14.0083 C   0  0  0  0  0  0  0  0  0  0  0  0
   27.1946  -20.0293  -14.8796 O   0  0  0  0  0  0  0  0  0  0  0  0
   24.3745  -20.2026  -10.6165 C   0  0  0  0  0  0  0  0  0  0  0  0
   23.4675  -20.6479   -9.7024 C   0  0  0  0  0  0  0  0  0  0  0  0
   26.6025  -17.9554  -14.1569 N   0  0  0  0  0  0  0  0  0  0  0  0
   27.1810  -17.2901  -15.3124 C   0  0  0  0  0  0  0  0  0  0  0  0
   26.2578  -17.3410  -16.4745 C   0  0  0  0  0  0  0  0  0  0  0  0
   25.3875  -16.4527  -16.5897 O   0  0  0  0  0  0  0  0  0  0  0  0
   26.3418  -18.3671  -17.4483 N   0  0  0  0  0  0  0  0  0  0  0  0
   25.4222  -18.3852  -18.6168 C   0  0  1  0  0  0  0  0  0  0  0  0
   26.0683  -19.0746  -19.7572 C   0  0  0  0  0  0  0  0  0  0  0  0
   27.0840  -18.2969  -20.4877 C   0  0  0  0  0  0  0  0  0  0  0  0
   27.5843  -17.0348  -20.3418 C   0  0  0  0  0  0  0  0  0  0  0  0
   28.5580  -16.9007  -21.2744 N   0  0  0  0  0  0  0  0  0  0  0  0
   28.6785  -18.0264  -21.9860 C   0  0  0  0  0  0  0  0  0  0  0  0
   27.7812  -18.8884  -21.5130 N   0  0  0  0  0  0  0  0  0  0  0  0
   24.1873  -19.1204  -18.1462 C   0  0  0  0  0  0  0  0  0  0  0  0
   23.0191  -19.0978  -18.9207 O   0  0  0  0  0  0  0  0  0  0  0  0
   24.1685  -19.7401  -17.1052 O   0  0  0  0  0  0  0  0  0  0  0  0
  2  3  2  0
  2  1  1  0
  4  3  1  0
  5  4  2  0
  6  7  1  0
  6  5  1  0
  7  8  1  6
  9  7  1  0
  9 13  1  0
 10  9  2  0
 11  5  1  0
 11 12  2  0
 12  2  1  0
 14 13  1  0
 15 14  1  0
 15 16  2  0
 17 18  1  0
 17 15  1  0
 18 19  1  6
 20 19  1  0
 20 21  2  0
 22 21  1  0
 23 22  1  0
 24 23  2  0
 24 20  1  0
 25 18  1  0
 26 25  1  0
 27 25  2  0
M  END
$$$$
