YGH.pdb
     RDKit          3D

 27 28  0  0  1  0  0  0  0  0999 V2000
   29.6439  -10.9386  -16.6703 O   0  0  0  0  0  0  0  0  0  0  0  0
   28.3813  -10.3697  -16.6226 C   0  0  0  0  0  0  0  0  0  0  0  0
   27.7604   -9.8337  -17.7374 C   0  0  0  0  0  0  0  0  0  0  0  0
   26.5022   -9.2749  -17.6537 C   0  0  0  0  0  0  0  0  0  0  0  0
   25.8456   -9.2430  -16.4565 C   0  0  0  0  0  0  0  0  0  0  0  0
   24.4839   -8.6539  -16.2961 C   0  0  0  0  0  0  0  0  0  0  0  0
   23.5186   -9.7929  -16.1233 C   0  0  2  0  0  0  0  0  0  0  0  0
   23.7616  -10.7696  -17.1607 N   0  0  0  0  0  0  0  0  0  0  0  0
   22.1183   -9.3963  -16.1146 C   0  0  0  0  0  0  0  0  0  0  0  0
   21.3602   -9.8122  -17.0259 O   0  0  0  0  0  0  0  0  0  0  0  0
   26.4861   -9.7865  -15.3483 C   0  0  0  0  0  0  0  0  0  0  0  0
   27.7282  -10.3436  -15.4066 C   0  0  0  0  0  0  0  0  0  0  0  0
   21.5448   -8.5616  -15.1348 N   0  0  0  0  0  0  0  0  0  0  0  0
   20.1428   -8.1785  -15.1474 C   0  0  0  0  0  0  0  0  0  0  0  0
   19.9582   -6.8520  -15.7890 C   0  0  0  0  0  0  0  0  0  0  0  0
   20.9692   -6.2119  -16.1467 O   0  0  0  0  0  0  0  0  0  0  0  0
   18.6705   -6.3006  -16.0027 N   0  0  0  0  0  0  0  0  0  0  0  0
   18.5099   -4.9611  -16.6283 C   0  0  1  0  0  0  0  0  0  0  0  0
   17.3304   -4.9601  -17.5238 C   0  0  0  0  0  0  0  0  0  0  0  0
   17.0034   -3.6704  -18.1561 C   0  0  0  0  0  0  0  0  0  0  0  0
   16.4217   -2.5221  -17.7005 C   0  0  0  0  0  0  0  0  0  0  0  0
   16.4520   -1.6443  -18.7323 N   0  0  0  0  0  0  0  0  0  0  0  0
   17.0284   -2.2033  -19.8015 C   0  0  0  0  0  0  0  0  0  0  0  0
   17.3704   -3.4436  -19.4604 N   0  0  0  0  0  0  0  0  0  0  0  0
   18.3379   -3.9965  -15.4764 C   0  0  0  0  0  0  0  0  0  0  0  0
   18.8173   -2.6836  -15.5827 O   0  0  0  0  0  0  0  0  0  0  0  0
   17.7909   -4.3213  -14.4452 O   0  0  0  0  0  0  0  0  0  0  0  0
  2  3  2  0
  2  1  1  0
  4  3  1  0
  5  4  2  0
  6  7  1  0
  6  5  1  0
  7  8  1  6
  9  7  1  0
  9 13  1  0
 10  9  2  0
 11  5  1  0
 11 12  2  0
 12  2  1  0
 14 13  1  0
 15 14  1  0
 15 16  2  0
 17 18  1  0
 17 15  1  0
 18 19  1  6
 20 19  1  0
 20 21  2  0
 22 21  1  0
 23 22  1  0
 24 23  2  0
 24 20  1  0
 25 18  1  0
 26 25  1  0
 27 25  2  0
M  END
$$$$
