MAQ.pdb
     RDKit          3D

 23 22  0  0  1  0  0  0  0  0999 V2000
    7.4876  -11.5633   26.6710 C   0  0  0  0  0  0  0  0  0  0  0  0
    6.0335  -12.4704   27.2913 S   0  0  0  0  0  0  0  0  0  0  0  0
    5.5937  -13.8223   26.1347 C   0  0  0  0  0  0  0  0  0  0  0  0
    6.8313  -14.4488   25.5584 C   0  0  0  0  0  0  0  0  0  0  0  0
    6.5707  -15.5694   24.6049 C   0  0  2  0  0  0  0  0  0  0  0  0
    5.7972  -16.5675   25.3388 N   0  0  0  0  0  0  0  0  0  0  0  0
    7.7603  -16.1444   23.9712 C   0  0  0  0  0  0  0  0  0  0  0  0
    8.3754  -17.1266   24.4848 O   0  0  0  0  0  0  0  0  0  0  0  0
    9.7821  -15.3953   20.8943 C   0  0  0  0  0  0  0  0  0  0  0  0
    9.5311  -16.1973   22.1799 C   0  0  2  0  0  0  0  0  0  0  0  0
    8.3297  -15.6732   22.7501 N   0  0  0  0  0  0  0  0  0  0  0  0
   10.6983  -16.1335   23.0393 C   0  0  0  0  0  0  0  0  0  0  0  0
   10.9085  -15.1340   23.7550 O   0  0  0  0  0  0  0  0  0  0  0  0
    9.6738  -18.7041   27.3411 N   0  0  0  0  0  0  0  0  0  0  0  0
   11.0357  -18.8062   27.6728 C   0  0  0  0  0  0  0  0  0  0  0  0
   11.4275  -19.2071   28.7795 O   0  0  0  0  0  0  0  0  0  0  0  0
   12.0455  -18.4093   26.6322 C   0  0  0  0  0  0  0  0  0  0  0  0
   11.3269  -17.9761   25.3848 C   0  0  0  0  0  0  0  0  0  0  0  0
   12.2719  -17.6592   24.3032 C   0  0  2  0  0  0  0  0  0  0  0  0
   11.6223  -17.1986   23.0855 N   0  0  0  0  0  0  0  0  0  0  0  0
   13.2073  -18.7150   23.9571 C   0  0  0  0  0  0  0  0  0  0  0  0
   12.8391  -19.6847   23.1831 O   0  0  0  0  0  0  0  0  0  0  0  0
   14.5263  -18.8293   24.3691 O   0  0  0  0  0  0  0  0  0  0  0  0
  2  1  1  0
  3  2  1  0
  4  3  1  0
  5  4  1  0
  5  6  1  1
  7 11  1  0
  7  5  1  0
  8  7  2  0
 10  9  1  6
 10 11  1  0
 10 12  1  0
 12 20  1  0
 13 12  2  0
 14 15  1  0
 15 17  1  0
 16 15  2  0
 17 18  1  0
 19 21  1  0
 19 18  1  1
 20 19  1  0
 21 23  1  0
 22 21  2  0
M  END
$$$$
