MAQ.pdb
     RDKit          3D

 23 22  0  0  1  0  0  0  0  0999 V2000
    6.6957  -11.3696   25.3119 C   0  0  0  0  0  0  0  0  0  0  0  0
    5.6425  -12.0294   26.6450 S   0  0  0  0  0  0  0  0  0  0  0  0
    5.6220  -13.8609   26.5836 C   0  0  0  0  0  0  0  0  0  0  0  0
    6.0199  -14.3489   25.2199 C   0  0  0  0  0  0  0  0  0  0  0  0
    7.0210  -15.4582   25.2276 C   0  0  2  0  0  0  0  0  0  0  0  0
    8.0897  -15.0466   26.1340 N   0  0  0  0  0  0  0  0  0  0  0  0
    7.5303  -15.8539   23.9118 C   0  0  0  0  0  0  0  0  0  0  0  0
    6.9702  -16.7645   23.2308 O   0  0  0  0  0  0  0  0  0  0  0  0
   10.0289  -14.9749   21.3584 C   0  0  0  0  0  0  0  0  0  0  0  0
    9.5457  -15.9888   22.4060 C   0  0  2  0  0  0  0  0  0  0  0  0
    8.6721  -15.2730   23.2822 N   0  0  0  0  0  0  0  0  0  0  0  0
   10.6844  -16.6157   23.0506 C   0  0  0  0  0  0  0  0  0  0  0  0
   11.5401  -17.2259   22.3794 O   0  0  0  0  0  0  0  0  0  0  0  0
    9.3359  -15.1390   28.2050 N   0  0  0  0  0  0  0  0  0  0  0  0
   10.7183  -15.2424   27.9735 C   0  0  0  0  0  0  0  0  0  0  0  0
   11.5072  -14.3128   28.2022 O   0  0  0  0  0  0  0  0  0  0  0  0
   11.2454  -16.5395   27.4263 C   0  0  0  0  0  0  0  0  0  0  0  0
   12.3006  -16.2497   26.3954 C   0  0  0  0  0  0  0  0  0  0  0  0
   12.0498  -16.9875   25.1480 C   0  0  2  0  0  0  0  0  0  0  0  0
   10.8501  -16.5506   24.4501 N   0  0  0  0  0  0  0  0  0  0  0  0
   12.0121  -18.4342   25.2707 C   0  0  0  0  0  0  0  0  0  0  0  0
   13.0517  -19.0804   25.6910 O   0  0  0  0  0  0  0  0  0  0  0  0
   10.9430  -19.2686   24.9818 O   0  0  0  0  0  0  0  0  0  0  0  0
  2  1  1  0
  3  2  1  0
  4  3  1  0
  5  4  1  0
  5  6  1  1
  7 11  1  0
  7  5  1  0
  8  7  2  0
 10  9  1  6
 10 11  1  0
 10 12  1  0
 12 20  1  0
 13 12  2  0
 14 15  1  0
 15 17  1  0
 16 15  2  0
 17 18  1  0
 19 21  1  0
 19 18  1  1
 20 19  1  0
 21 23  1  0
 22 21  2  0
M  END
$$$$
