MAQ.pdb
     RDKit          3D

 23 22  0  0  1  0  0  0  0  0999 V2000
    8.7829  -11.4308   19.7079 C   0  0  0  0  0  0  0  0  0  0  0  0
    7.3624  -12.4391   19.1720 S   0  0  0  0  0  0  0  0  0  0  0  0
    7.6272  -14.1939   19.6294 C   0  0  0  0  0  0  0  0  0  0  0  0
    8.6023  -14.3027   20.7667 C   0  0  0  0  0  0  0  0  0  0  0  0
    8.7984  -15.6913   21.2828 C   0  0  2  0  0  0  0  0  0  0  0  0
    7.6164  -16.4522   20.8865 N   0  0  0  0  0  0  0  0  0  0  0  0
    9.0701  -15.7951   22.7190 C   0  0  0  0  0  0  0  0  0  0  0  0
   10.1703  -15.4077   23.2150 O   0  0  0  0  0  0  0  0  0  0  0  0
    7.1244  -16.0516   25.7964 C   0  0  0  0  0  0  0  0  0  0  0  0
    8.4303  -16.4169   25.0752 C   0  0  2  0  0  0  0  0  0  0  0  0
    8.1533  -16.3255   23.6758 N   0  0  0  0  0  0  0  0  0  0  0  0
    8.8988  -17.7140   25.5257 C   0  0  0  0  0  0  0  0  0  0  0  0
    8.2772  -18.7538   25.2297 O   0  0  0  0  0  0  0  0  0  0  0  0
   14.2759  -19.8262   24.9555 N   0  0  0  0  0  0  0  0  0  0  0  0
   13.2318  -19.5290   24.0629 C   0  0  0  0  0  0  0  0  0  0  0  0
   13.3981  -19.4640   22.8353 O   0  0  0  0  0  0  0  0  0  0  0  0
   11.8641  -19.2828   24.6361 C   0  0  0  0  0  0  0  0  0  0  0  0
   11.9242  -19.4101   26.1328 C   0  0  0  0  0  0  0  0  0  0  0  0
   10.6267  -19.0977   26.7510 C   0  0  2  0  0  0  0  0  0  0  0  0
   10.0667  -17.8297   26.3086 N   0  0  0  0  0  0  0  0  0  0  0  0
   10.5975  -19.1345   28.2026 C   0  0  0  0  0  0  0  0  0  0  0  0
   10.9379  -20.2113   28.8348 O   0  0  0  0  0  0  0  0  0  0  0  0
   10.2329  -18.1045   29.0563 O   0  0  0  0  0  0  0  0  0  0  0  0
  2  1  1  0
  3  2  1  0
  4  3  1  0
  5  4  1  0
  5  6  1  1
  7 11  1  0
  7  5  1  0
  8  7  2  0
 10  9  1  1
 10 11  1  0
 10 12  1  0
 12 20  1  0
 13 12  2  0
 14 15  1  0
 15 17  1  0
 16 15  2  0
 17 18  1  0
 19 21  1  0
 19 18  1  1
 20 19  1  0
 21 23  1  0
 22 21  2  0
M  END
$$$$
