MAQ.pdb
     RDKit          3D

 23 22  0  0  1  0  0  0  0  0999 V2000
    4.7312  -11.5781   25.9429 C   0  0  0  0  0  0  0  0  0  0  0  0
    6.4718  -11.0870   26.1689 S   0  0  0  0  0  0  0  0  0  0  0  0
    7.5806  -12.4820   25.7411 C   0  0  0  0  0  0  0  0  0  0  0  0
    6.8930  -13.4373   24.8079 C   0  0  0  0  0  0  0  0  0  0  0  0
    7.1918  -14.8783   25.0670 C   0  0  2  0  0  0  0  0  0  0  0  0
    8.0366  -14.9194   26.2577 N   0  0  0  0  0  0  0  0  0  0  0  0
    7.7809  -15.6098   23.9423 C   0  0  0  0  0  0  0  0  0  0  0  0
    7.0588  -16.1423   23.0470 O   0  0  0  0  0  0  0  0  0  0  0  0
   10.7718  -16.0010   21.9957 C   0  0  0  0  0  0  0  0  0  0  0  0
    9.7408  -16.7547   22.8488 C   0  0  2  0  0  0  0  0  0  0  0  0
    9.1830  -15.7915   23.7457 N   0  0  0  0  0  0  0  0  0  0  0  0
   10.3662  -17.8982   23.4862 C   0  0  0  0  0  0  0  0  0  0  0  0
   10.9047  -18.7924   22.8037 O   0  0  0  0  0  0  0  0  0  0  0  0
   12.8434  -18.1384   29.1452 N   0  0  0  0  0  0  0  0  0  0  0  0
   12.8669  -19.5099   28.8391 C   0  0  0  0  0  0  0  0  0  0  0  0
   13.4235  -20.3486   29.5641 O   0  0  0  0  0  0  0  0  0  0  0  0
   12.1847  -19.9617   27.5781 C   0  0  0  0  0  0  0  0  0  0  0  0
   11.6191  -18.7652   26.8651 C   0  0  0  0  0  0  0  0  0  0  0  0
   10.9750  -19.1489   25.5997 C   0  0  2  0  0  0  0  0  0  0  0  0
   10.3797  -18.0261   24.8911 N   0  0  0  0  0  0  0  0  0  0  0  0
    9.9890  -20.2112   25.6937 C   0  0  0  0  0  0  0  0  0  0  0  0
    8.7285  -19.9267   25.7654 O   0  0  0  0  0  0  0  0  0  0  0  0
   10.2325  -21.5761   25.7159 O   0  0  0  0  0  0  0  0  0  0  0  0
  2  1  1  0
  3  2  1  0
  4  3  1  0
  5  4  1  0
  5  6  1  1
  7 11  1  0
  7  5  1  0
  8  7  2  0
 10  9  1  1
 10 11  1  0
 10 12  1  0
 12 20  1  0
 13 12  2  0
 14 15  1  0
 15 17  1  0
 16 15  2  0
 17 18  1  0
 19 21  1  0
 19 18  1  1
 20 19  1  0
 21 23  1  0
 22 21  2  0
M  END
$$$$
