MAQ.pdb
     RDKit          3D

 23 22  0  0  1  0  0  0  0  0999 V2000
    4.4771  -18.9271   22.0393 C   0  0  0  0  0  0  0  0  0  0  0  0
    4.1217  -18.2570   20.3821 S   0  0  0  0  0  0  0  0  0  0  0  0
    4.7998  -16.5613   20.2294 C   0  0  0  0  0  0  0  0  0  0  0  0
    5.8512  -16.3162   21.2738 C   0  0  0  0  0  0  0  0  0  0  0  0
    6.3387  -14.9053   21.3416 C   0  0  2  0  0  0  0  0  0  0  0  0
    6.8693  -14.5854   20.0189 N   0  0  0  0  0  0  0  0  0  0  0  0
    7.3021  -14.6241   22.4094 C   0  0  0  0  0  0  0  0  0  0  0  0
    8.5468  -14.7936   22.2404 O   0  0  0  0  0  0  0  0  0  0  0  0
    7.0879  -13.4711   25.9778 C   0  0  0  0  0  0  0  0  0  0  0  0
    7.8382  -14.1568   24.8263 C   0  0  2  0  0  0  0  0  0  0  0  0
    6.9491  -14.1458   23.7071 N   0  0  0  0  0  0  0  0  0  0  0  0
    8.2873  -15.4724   25.2417 C   0  0  0  0  0  0  0  0  0  0  0  0
    7.4866  -16.4258   25.3127 O   0  0  0  0  0  0  0  0  0  0  0  0
   10.7056  -19.1604   22.3045 N   0  0  0  0  0  0  0  0  0  0  0  0
   11.5786  -18.6743   23.2929 C   0  0  0  0  0  0  0  0  0  0  0  0
   12.5453  -19.3283   23.7133 O   0  0  0  0  0  0  0  0  0  0  0  0
   11.3157  -17.3040   23.8523 C   0  0  0  0  0  0  0  0  0  0  0  0
   11.4325  -17.3500   25.3504 C   0  0  0  0  0  0  0  0  0  0  0  0
   10.1616  -16.9937   25.9994 C   0  0  2  0  0  0  0  0  0  0  0  0
    9.6384  -15.7040   25.5752 N   0  0  0  0  0  0  0  0  0  0  0  0
   10.1640  -17.0367   27.4512 C   0  0  0  0  0  0  0  0  0  0  0  0
    9.9988  -15.9511   28.1361 O   0  0  0  0  0  0  0  0  0  0  0  0
   10.3276  -18.1563   28.2526 O   0  0  0  0  0  0  0  0  0  0  0  0
  2  1  1  0
  3  2  1  0
  4  3  1  0
  5  4  1  0
  5  6  1  6
  7 11  1  0
  7  5  1  0
  8  7  2  0
 10  9  1  1
 10 11  1  0
 10 12  1  0
 12 20  1  0
 13 12  2  0
 14 15  1  0
 15 17  1  0
 16 15  2  0
 17 18  1  0
 19 21  1  0
 19 18  1  1
 20 19  1  0
 21 23  1  0
 22 21  2  0
M  END
$$$$
