QAT.pdb
     RDKit          3D

 22 21  0  0  1  0  0  0  0  0999 V2000
    6.4299  -19.2378   12.8796 N   0  0  0  0  0  0  0  0  0  0  0  0
    7.3439  -18.3579   13.5129 C   0  0  0  0  0  0  0  0  0  0  0  0
    8.4992  -18.1359   13.0490 O   0  0  0  0  0  0  0  0  0  0  0  0
    6.8996  -17.6883   14.7636 C   0  0  0  0  0  0  0  0  0  0  0  0
    8.0874  -17.0398   15.4409 C   0  0  0  0  0  0  0  0  0  0  0  0
    8.1199  -15.5581   15.2585 C   0  0  2  0  0  0  0  0  0  0  0  0
    8.3806  -15.2298   13.8759 N   0  0  0  0  0  0  0  0  0  0  0  0
    9.0102  -14.8616   16.1923 C   0  0  0  0  0  0  0  0  0  0  0  0
   10.2251  -14.7502   15.9182 O   0  0  0  0  0  0  0  0  0  0  0  0
    8.3915  -12.9988   19.4239 C   0  0  0  0  0  0  0  0  0  0  0  0
    9.2914  -13.5771   18.3331 C   0  0  2  0  0  0  0  0  0  0  0  0
    8.4992  -14.3159   17.4014 N   0  0  0  0  0  0  0  0  0  0  0  0
   10.3455  -14.4561   18.9442 C   0  0  0  0  0  0  0  0  0  0  0  0
   10.1609  -15.6902   19.1189 O   0  0  0  0  0  0  0  0  0  0  0  0
   14.9984  -14.9465   20.6117 C   0  0  0  0  0  0  0  0  0  0  0  0
   13.9467  -14.0364   20.0180 C   0  0  1  0  0  0  0  0  0  0  0  0
   14.3179  -13.8491   18.6662 O   0  0  0  0  0  0  0  0  0  0  0  0
   12.6070  -14.7399   19.9824 C   0  0  2  0  0  0  0  0  0  0  0  0
   11.5899  -13.9248   19.3472 N   0  0  0  0  0  0  0  0  0  0  0  0
   12.2191  -14.9969   21.4008 C   0  0  0  0  0  0  0  0  0  0  0  0
   11.5013  -14.2021   22.0533 O   0  0  0  0  0  0  0  0  0  0  0  0
   12.6509  -16.1347   22.0324 O   0  0  0  0  0  0  0  0  0  0  0  0
  2  4  1  0
  2  1  1  0
  3  2  2  0
  5  4  1  0
  6  5  1  0
  6  7  1  6
  8  9  2  0
  8  6  1  0
 11 10  1  1
 11 12  1  0
 12  8  1  0
 13 11  1  0
 13 19  1  0
 14 13  2  0
 16 18  1  0
 16 15  1  1
 17 16  1  0
 18 19  1  1
 18 20  1  0
 20 22  1  0
 21 20  2  0
M  END
$$$$
