QAT.pdb
     RDKit          3D

 22 21  0  0  1  0  0  0  0  0999 V2000
   13.5590  -14.6265   20.0645 N   0  0  0  0  0  0  0  0  0  0  0  0
   12.9978  -13.9022   18.9822 C   0  0  0  0  0  0  0  0  0  0  0  0
   13.7124  -13.3376   18.1049 O   0  0  0  0  0  0  0  0  0  0  0  0
   11.5155  -13.8218   18.9036 C   0  0  0  0  0  0  0  0  0  0  0  0
   10.9042  -14.5977   20.0501 C   0  0  0  0  0  0  0  0  0  0  0  0
    9.4115  -14.6043   20.0137 C   0  0  2  0  0  0  0  0  0  0  0  0
    8.9226  -13.4313   19.3263 N   0  0  0  0  0  0  0  0  0  0  0  0
    8.7839  -14.8062   21.3233 C   0  0  0  0  0  0  0  0  0  0  0  0
    8.4100  -13.8146   21.9868 O   0  0  0  0  0  0  0  0  0  0  0  0
    7.6614  -17.8818   23.1967 C   0  0  0  0  0  0  0  0  0  0  0  0
    8.0011  -16.3951   23.1051 C   0  0  2  0  0  0  0  0  0  0  0  0
    8.6004  -16.1187   21.8380 N   0  0  0  0  0  0  0  0  0  0  0  0
    8.9258  -16.0060   24.2234 C   0  0  0  0  0  0  0  0  0  0  0  0
   10.1543  -15.8042   24.0287 O   0  0  0  0  0  0  0  0  0  0  0  0
    9.6460  -13.6522   28.3685 C   0  0  0  0  0  0  0  0  0  0  0  0
    8.7214  -14.1371   27.2746 C   0  0  1  0  0  0  0  0  0  0  0  0
    8.7424  -13.1329   26.2790 O   0  0  0  0  0  0  0  0  0  0  0  0
    9.2919  -15.3767   26.6198 C   0  0  2  0  0  0  0  0  0  0  0  0
    8.4461  -15.8517   25.5421 N   0  0  0  0  0  0  0  0  0  0  0  0
    9.3743  -16.4236   27.6808 C   0  0  0  0  0  0  0  0  0  0  0  0
    8.6191  -17.4246   27.6938 O   0  0  0  0  0  0  0  0  0  0  0  0
   10.3000  -16.3076   28.6855 O   0  0  0  0  0  0  0  0  0  0  0  0
  2  4  1  0
  2  1  1  0
  3  2  2  0
  5  4  1  0
  6  5  1  0
  6  7  1  1
  8  9  2  0
  8  6  1  0
 11 10  1  6
 11 12  1  0
 12  8  1  0
 13 11  1  0
 13 19  1  0
 14 13  2  0
 16 18  1  0
 16 15  1  1
 17 16  1  0
 18 19  1  6
 18 20  1  0
 20 22  1  0
 21 20  2  0
M  END
$$$$
