QAT.pdb
     RDKit          3D

 22 21  0  0  1  0  0  0  0  0999 V2000
   11.2896  -13.7687   16.9812 N   0  0  0  0  0  0  0  0  0  0  0  0
   10.1665  -14.0962   16.1798 C   0  0  0  0  0  0  0  0  0  0  0  0
   10.2833  -14.6347   15.0416 O   0  0  0  0  0  0  0  0  0  0  0  0
    8.8189  -13.7834   16.7237 C   0  0  0  0  0  0  0  0  0  0  0  0
    8.9489  -13.2938   18.1498 C   0  0  0  0  0  0  0  0  0  0  0  0
    9.1394  -14.4055   19.1283 C   0  0  2  0  0  0  0  0  0  0  0  0
    8.2020  -15.4722   18.8624 N   0  0  0  0  0  0  0  0  0  0  0  0
    9.1362  -13.9736   20.5295 C   0  0  0  0  0  0  0  0  0  0  0  0
    9.9619  -13.1161   20.9118 O   0  0  0  0  0  0  0  0  0  0  0  0
    6.7688  -14.3413   23.3853 C   0  0  0  0  0  0  0  0  0  0  0  0
    8.1925  -14.2186   22.8450 C   0  0  2  0  0  0  0  0  0  0  0  0
    8.2023  -14.5240   21.4493 N   0  0  0  0  0  0  0  0  0  0  0  0
    9.1115  -15.1411   23.5944 C   0  0  0  0  0  0  0  0  0  0  0  0
    9.2189  -15.0956   24.8490 O   0  0  0  0  0  0  0  0  0  0  0  0
    9.5074  -19.0478   22.7869 C   0  0  0  0  0  0  0  0  0  0  0  0
   10.8507  -18.3566   22.8553 C   0  0  1  0  0  0  0  0  0  0  0  0
   11.1674  -17.9973   21.5246 O   0  0  0  0  0  0  0  0  0  0  0  0
   10.7292  -17.0530   23.6148 C   0  0  2  0  0  0  0  0  0  0  0  0
    9.8931  -16.0989   22.9127 N   0  0  0  0  0  0  0  0  0  0  0  0
   12.1099  -16.4997   23.7419 C   0  0  0  0  0  0  0  0  0  0  0  0
   12.4742  -15.4632   23.1374 O   0  0  0  0  0  0  0  0  0  0  0  0
   13.0282  -17.1300   24.5416 O   0  0  0  0  0  0  0  0  0  0  0  0
  2  4  1  0
  2  1  1  0
  3  2  2  0
  5  4  1  0
  6  5  1  0
  6  7  1  1
  8  9  2  0
  8  6  1  0
 11 10  1  1
 11 12  1  0
 12  8  1  0
 13 11  1  0
 13 19  1  0
 14 13  2  0
 16 18  1  0
 16 15  1  6
 17 16  1  0
 18 19  1  6
 18 20  1  0
 20 22  1  0
 21 20  2  0
M  END
$$$$
