QAT.pdb
     RDKit          3D

 22 21  0  0  1  0  0  0  0  0999 V2000
    8.2498  -12.7506   15.9146 N   0  0  0  0  0  0  0  0  0  0  0  0
    7.9241  -14.1050   15.6491 C   0  0  0  0  0  0  0  0  0  0  0  0
    7.3347  -14.4624   14.5890 O   0  0  0  0  0  0  0  0  0  0  0  0
    8.3017  -15.1161   16.6713 C   0  0  0  0  0  0  0  0  0  0  0  0
    8.9253  -14.4232   17.8635 C   0  0  0  0  0  0  0  0  0  0  0  0
    9.2281  -15.3614   18.9851 C   0  0  2  0  0  0  0  0  0  0  0  0
    8.3204  -16.4851   18.9563 N   0  0  0  0  0  0  0  0  0  0  0  0
    9.3017  -14.7156   20.2994 C   0  0  0  0  0  0  0  0  0  0  0  0
   10.1721  -13.8428   20.5091 O   0  0  0  0  0  0  0  0  0  0  0  0
    7.0418  -14.4309   23.2267 C   0  0  0  0  0  0  0  0  0  0  0  0
    8.4548  -14.5573   22.6594 C   0  0  2  0  0  0  0  0  0  0  0  0
    8.3915  -15.0769   21.3300 N   0  0  0  0  0  0  0  0  0  0  0  0
    9.2865  -15.4494   23.5366 C   0  0  0  0  0  0  0  0  0  0  0  0
    9.3591  -15.2743   24.7822 O   0  0  0  0  0  0  0  0  0  0  0  0
   11.5704  -19.7155   24.2831 C   0  0  0  0  0  0  0  0  0  0  0  0
   10.7882  -18.8273   23.3417 C   0  0  1  0  0  0  0  0  0  0  0  0
    9.4361  -19.2202   23.4757 O   0  0  0  0  0  0  0  0  0  0  0  0
   10.8465  -17.3894   23.8107 C   0  0  2  0  0  0  0  0  0  0  0  0
   10.0216  -16.5238   22.9906 N   0  0  0  0  0  0  0  0  0  0  0  0
   12.2722  -16.9601   23.7029 C   0  0  0  0  0  0  0  0  0  0  0  0
   13.1092  -17.1839   24.6094 O   0  0  0  0  0  0  0  0  0  0  0  0
   12.7038  -16.2967   22.5833 O   0  0  0  0  0  0  0  0  0  0  0  0
  2  4  1  0
  2  1  1  0
  3  2  2  0
  5  4  1  0
  6  5  1  0
  6  7  1  1
  8  9  2  0
  8  6  1  0
 11 10  1  1
 11 12  1  0
 12  8  1  0
 13 11  1  0
 13 19  1  0
 14 13  2  0
 16 18  1  0
 16 15  1  1
 17 16  1  0
 18 19  1  6
 18 20  1  0
 20 22  1  0
 21 20  2  0
M  END
$$$$
