QAT.pdb
     RDKit          3D

 22 21  0  0  1  0  0  0  0  0999 V2000
    8.8488  -20.1218   21.6960 N   0  0  0  0  0  0  0  0  0  0  0  0
   10.1615  -19.6095   21.5372 C   0  0  0  0  0  0  0  0  0  0  0  0
   11.1489  -20.0724   22.1772 O   0  0  0  0  0  0  0  0  0  0  0  0
   10.3512  -18.4897   20.5780 C   0  0  0  0  0  0  0  0  0  0  0  0
    9.0484  -18.2106   19.8605 C   0  0  0  0  0  0  0  0  0  0  0  0
    9.1545  -17.0849   18.8850 C   0  0  2  0  0  0  0  0  0  0  0  0
   10.2272  -17.3331   17.9495 N   0  0  0  0  0  0  0  0  0  0  0  0
    9.2310  -15.7603   19.5090 C   0  0  0  0  0  0  0  0  0  0  0  0
   10.3473  -15.2851   19.8109 O   0  0  0  0  0  0  0  0  0  0  0  0
    6.6570  -13.0905   20.2026 C   0  0  0  0  0  0  0  0  0  0  0  0
    8.0410  -13.7181   20.3606 C   0  0  2  0  0  0  0  0  0  0  0  0
    8.0463  -15.0191   19.7701 N   0  0  0  0  0  0  0  0  0  0  0  0
    8.4107  -13.7960   21.8147 C   0  0  0  0  0  0  0  0  0  0  0  0
    8.5241  -12.7628   22.5268 O   0  0  0  0  0  0  0  0  0  0  0  0
    6.5314  -15.2452   24.5848 C   0  0  0  0  0  0  0  0  0  0  0  0
    7.8486  -15.9875   24.5562 C   0  0  1  0  0  0  0  0  0  0  0  0
    7.6391  -17.1123   23.7249 O   0  0  0  0  0  0  0  0  0  0  0  0
    8.9032  -15.1536   23.8609 C   0  0  2  0  0  0  0  0  0  0  0  0
    8.6458  -15.0405   22.4385 N   0  0  0  0  0  0  0  0  0  0  0  0
   10.2079  -15.8473   24.0730 C   0  0  0  0  0  0  0  0  0  0  0  0
   10.8604  -16.3499   23.1273 O   0  0  0  0  0  0  0  0  0  0  0  0
   10.7302  -15.9504   25.3365 O   0  0  0  0  0  0  0  0  0  0  0  0
  2  4  1  0
  2  1  1  0
  3  2  2  0
  5  4  1  0
  6  5  1  0
  6  7  1  1
  8  9  2  0
  8  6  1  0
 11 10  1  1
 11 12  1  0
 12  8  1  0
 13 11  1  0
 13 19  1  0
 14 13  2  0
 16 18  1  0
 16 15  1  6
 17 16  1  0
 18 19  1  6
 18 20  1  0
 20 22  1  0
 21 20  2  0
M  END
$$$$
