QAT.pdb
     RDKit          3D

 22 21  0  0  1  0  0  0  0  0999 V2000
    8.5247  -12.1309   18.3896 N   0  0  0  0  0  0  0  0  0  0  0  0
    8.3296  -13.3936   17.7745 C   0  0  0  0  0  0  0  0  0  0  0  0
    9.1716  -13.8916   16.9732 O   0  0  0  0  0  0  0  0  0  0  0  0
    7.0827  -14.1332   18.1030 C   0  0  0  0  0  0  0  0  0  0  0  0
    6.8775  -14.1404   19.6024 C   0  0  0  0  0  0  0  0  0  0  0  0
    8.0907  -14.5858   20.3504 C   0  0  2  0  0  0  0  0  0  0  0  0
    8.7266  -15.6859   19.6627 N   0  0  0  0  0  0  0  0  0  0  0  0
    7.8489  -14.8585   21.7706 C   0  0  0  0  0  0  0  0  0  0  0  0
    7.0292  -14.1565   22.4019 O   0  0  0  0  0  0  0  0  0  0  0  0
    9.0972  -17.5496   24.1152 C   0  0  0  0  0  0  0  0  0  0  0  0
    8.3104  -16.2812   23.7892 C   0  0  2  0  0  0  0  0  0  0  0  0
    8.5399  -15.9127   22.4280 N   0  0  0  0  0  0  0  0  0  0  0  0
    8.7164  -15.1687   24.7137 C   0  0  0  0  0  0  0  0  0  0  0  0
    9.8069  -14.5534   24.5725 O   0  0  0  0  0  0  0  0  0  0  0  0
    6.8620  -11.9266   25.6654 C   0  0  0  0  0  0  0  0  0  0  0  0
    7.1108  -12.7384   26.9167 C   0  0  1  0  0  0  0  0  0  0  0  0
    5.9582  -13.5390   27.0921 O   0  0  0  0  0  0  0  0  0  0  0  0
    8.2529  -13.7061   26.6932 C   0  0  2  0  0  0  0  0  0  0  0  0
    7.8830  -14.7711   25.7815 N   0  0  0  0  0  0  0  0  0  0  0  0
    8.5875  -14.2906   28.0254 C   0  0  0  0  0  0  0  0  0  0  0  0
    8.4471  -15.5115   28.2754 O   0  0  0  0  0  0  0  0  0  0  0  0
    9.0665  -13.4839   29.0253 O   0  0  0  0  0  0  0  0  0  0  0  0
  2  4  1  0
  2  1  1  0
  3  2  2  0
  5  4  1  0
  6  5  1  0
  6  7  1  6
  8  9  2  0
  8  6  1  0
 11 10  1  1
 11 12  1  0
 12  8  1  0
 13 11  1  0
 13 19  1  0
 14 13  2  0
 16 18  1  0
 16 15  1  6
 17 16  1  0
 18 19  1  6
 18 20  1  0
 20 22  1  0
 21 20  2  0
M  END
$$$$
