QAT.pdb
     RDKit          3D

 22 21  0  0  1  0  0  0  0  0999 V2000
   10.8158  -20.0394   16.2465 N   0  0  0  0  0  0  0  0  0  0  0  0
    9.6878  -19.1953   16.4076 C   0  0  0  0  0  0  0  0  0  0  0  0
    8.5408  -19.5121   15.9798 O   0  0  0  0  0  0  0  0  0  0  0  0
    9.8927  -17.9000   17.1077 C   0  0  0  0  0  0  0  0  0  0  0  0
    8.9508  -16.8614   16.5383 C   0  0  0  0  0  0  0  0  0  0  0  0
    9.6001  -15.5291   16.3558 C   0  0  2  0  0  0  0  0  0  0  0  0
   10.8685  -15.6791   15.6804 N   0  0  0  0  0  0  0  0  0  0  0  0
    9.6945  -14.7381   17.5867 C   0  0  0  0  0  0  0  0  0  0  0  0
   10.7669  -14.7241   18.2295 O   0  0  0  0  0  0  0  0  0  0  0  0
    7.2895  -12.4034   19.3368 C   0  0  0  0  0  0  0  0  0  0  0  0
    8.5936  -13.1926   19.2334 C   0  0  2  0  0  0  0  0  0  0  0  0
    8.5765  -13.9914   18.0489 N   0  0  0  0  0  0  0  0  0  0  0  0
    8.7739  -14.0553   20.4501 C   0  0  0  0  0  0  0  0  0  0  0  0
    8.9071  -13.5599   21.6010 O   0  0  0  0  0  0  0  0  0  0  0  0
    6.9438  -17.6503   20.9509 C   0  0  0  0  0  0  0  0  0  0  0  0
    8.4248  -17.7113   21.2507 C   0  0  1  0  0  0  0  0  0  0  0  0
    9.0418  -18.1515   20.0567 O   0  0  0  0  0  0  0  0  0  0  0  0
    8.9644  -16.3198   21.5029 C   0  0  2  0  0  0  0  0  0  0  0  0
    8.8006  -15.4629   20.3448 N   0  0  0  0  0  0  0  0  0  0  0  0
   10.4188  -16.4711   21.8034 C   0  0  0  0  0  0  0  0  0  0  0  0
   11.3083  -15.9614   21.0812 O   0  0  0  0  0  0  0  0  0  0  0  0
   10.8193  -17.1878   22.9015 O   0  0  0  0  0  0  0  0  0  0  0  0
  2  4  1  0
  2  1  1  0
  3  2  2  0
  5  4  1  0
  6  5  1  0
  6  7  1  1
  8  9  2  0
  8  6  1  0
 11 10  1  1
 11 12  1  0
 12  8  1  0
 13 11  1  0
 13 19  1  0
 14 13  2  0
 16 18  1  0
 16 15  1  6
 17 16  1  0
 18 19  1  6
 18 20  1  0
 20 22  1  0
 21 20  2  0
M  END
$$$$
