QAT.pdb
     RDKit          3D

 22 21  0  0  1  0  0  0  0  0999 V2000
   12.7539  -15.0624   13.7782 N   0  0  0  0  0  0  0  0  0  0  0  0
   11.5913  -15.8578   13.6150 C   0  0  0  0  0  0  0  0  0  0  0  0
   11.2131  -16.2764   12.4833 O   0  0  0  0  0  0  0  0  0  0  0  0
   10.8116  -16.1943   14.8351 C   0  0  0  0  0  0  0  0  0  0  0  0
   11.5036  -15.6216   16.0530 C   0  0  0  0  0  0  0  0  0  0  0  0
   10.7703  -15.9056   17.3224 C   0  0  2  0  0  0  0  0  0  0  0  0
    9.5321  -16.5950   17.0414 N   0  0  0  0  0  0  0  0  0  0  0  0
   10.5921  -14.7323   18.1834 C   0  0  0  0  0  0  0  0  0  0  0  0
   11.5947  -14.0892   18.5637 O   0  0  0  0  0  0  0  0  0  0  0  0
    7.6613  -12.6307   19.1406 C   0  0  0  0  0  0  0  0  0  0  0  0
    9.0388  -13.2156   19.4480 C   0  0  2  0  0  0  0  0  0  0  0  0
    9.2902  -14.3261   18.5849 N   0  0  0  0  0  0  0  0  0  0  0  0
    9.1117  -13.6383   20.8879 C   0  0  0  0  0  0  0  0  0  0  0  0
    8.8356  -12.8449   21.8271 O   0  0  0  0  0  0  0  0  0  0  0  0
    7.2879  -16.3139   22.7049 C   0  0  0  0  0  0  0  0  0  0  0  0
    8.7582  -16.6228   22.8769 C   0  0  1  0  0  0  0  0  0  0  0  0
    9.0870  -17.5232   21.8370 O   0  0  0  0  0  0  0  0  0  0  0  0
    9.5860  -15.3815   22.6225 C   0  0  2  0  0  0  0  0  0  0  0  0
    9.4954  -14.9501   21.2412 N   0  0  0  0  0  0  0  0  0  0  0  0
   11.0014  -15.7373   22.9368 C   0  0  0  0  0  0  0  0  0  0  0  0
   11.8892  -15.7955   22.0531 O   0  0  0  0  0  0  0  0  0  0  0  0
   11.3661  -16.0138   24.2292 O   0  0  0  0  0  0  0  0  0  0  0  0
  2  4  1  0
  2  1  1  0
  3  2  2  0
  5  4  1  0
  6  5  1  0
  6  7  1  6
  8  9  2  0
  8  6  1  0
 11 10  1  6
 11 12  1  0
 12  8  1  0
 13 11  1  0
 13 19  1  0
 14 13  2  0
 16 18  1  0
 16 15  1  6
 17 16  1  0
 18 19  1  6
 18 20  1  0
 20 22  1  0
 21 20  2  0
M  END
$$$$
