ACW.pdb
     RDKit          3D

 26 27  0  0  1  0  0  0  0  0999 V2000
   26.8867  -14.7637  -15.6995 C   0  0  0  0  0  0  0  0  0  0  0  0
   26.5826  -15.7490  -16.8025 C   0  0  2  0  0  0  0  0  0  0  0  0
   25.8732  -15.1403  -17.9106 N   0  0  0  0  0  0  0  0  0  0  0  0
   25.7538  -16.8641  -16.2781 C   0  0  0  0  0  0  0  0  0  0  0  0
   24.7381  -16.5975  -15.5701 O   0  0  0  0  0  0  0  0  0  0  0  0
   26.0558  -18.2151  -16.5393 N   0  0  0  0  0  0  0  0  0  0  0  0
   25.2781  -19.2754  -15.9384 C   0  0  1  0  0  0  0  0  0  0  0  0
   24.8742  -20.3324  -16.9461 C   0  0  0  0  0  0  0  0  0  0  0  0
   24.2103  -21.8096  -16.1684 S   0  0  0  0  0  0  0  0  0  0  0  0
   25.9901  -19.8780  -14.7763 C   0  0  0  0  0  0  0  0  0  0  0  0
   27.0616  -20.4883  -15.0029 O   0  0  0  0  0  0  0  0  0  0  0  0
   25.5163  -19.7904  -13.4565 N   0  0  0  0  0  0  0  0  0  0  0  0
   26.1414  -20.4178  -12.2965 C   0  0  1  0  0  0  0  0  0  0  0  0
   26.4682  -19.4220  -11.2513 C   0  0  0  0  0  0  0  0  0  0  0  0
   27.1091  -20.0294  -10.0776 C   0  0  0  0  0  0  0  0  0  0  0  0
   26.5680  -20.1508   -8.7916 C   0  0  0  0  0  0  0  0  0  0  0  0
   27.4560  -20.7220   -7.9793 N   0  0  0  0  0  0  0  0  0  0  0  0
   28.5558  -20.9752   -8.6984 C   0  0  0  0  0  0  0  0  0  0  0  0
   29.7516  -21.5748   -8.3130 C   0  0  0  0  0  0  0  0  0  0  0  0
   30.7365  -21.7398   -9.2603 C   0  0  0  0  0  0  0  0  0  0  0  0
   30.5866  -21.3361  -10.5712 C   0  0  0  0  0  0  0  0  0  0  0  0
   29.4022  -20.7439  -10.9430 C   0  0  0  0  0  0  0  0  0  0  0  0
   28.4004  -20.5690  -10.0043 C   0  0  0  0  0  0  0  0  0  0  0  0
   25.5308  -21.6610  -11.8677 C   0  0  0  0  0  0  0  0  0  0  0  0
   24.2816  -21.7874  -11.7837 O   0  0  0  0  0  0  0  0  0  0  0  0
   26.2948  -22.7885  -11.5316 O   0  0  0  0  0  0  0  0  0  0  0  0
  2  4  1  0
  2  1  1  1
  3  2  1  0
  4  5  2  0
  6  7  1  0
  6  4  1  0
  8  9  1  0
  7  8  1  6
 10 12  1  0
 10  7  1  0
 11 10  2  0
 13 12  1  0
 13 14  1  1
 14 15  1  0
 15 16  2  0
 16 17  1  0
 18 19  2  0
 18 17  1  0
 20 19  1  0
 21 20  2  0
 22 21  1  0
 22 23  2  0
 23 15  1  0
 23 18  1  0
 24 13  1  0
 25 24  2  0
 26 24  1  0
M  END
$$$$
