ACW.pdb
     RDKit          3D

 26 27  0  0  1  0  0  0  0  0999 V2000
   29.8142  -21.6407  -15.9947 C   0  0  0  0  0  0  0  0  0  0  0  0
   28.4202  -22.2205  -16.0175 C   0  0  2  0  0  0  0  0  0  0  0  0
   27.9263  -22.4257  -17.3649 N   0  0  0  0  0  0  0  0  0  0  0  0
   27.4782  -21.3154  -15.3114 C   0  0  0  0  0  0  0  0  0  0  0  0
   27.5493  -20.0680  -15.5184 O   0  0  0  0  0  0  0  0  0  0  0  0
   26.5027  -21.7938  -14.4145 N   0  0  0  0  0  0  0  0  0  0  0  0
   25.5244  -20.8976  -13.8401 C   0  0  1  0  0  0  0  0  0  0  0  0
   24.2902  -20.7628  -14.7085 C   0  0  0  0  0  0  0  0  0  0  0  0
   23.0383  -19.7072  -13.9695 S   0  0  0  0  0  0  0  0  0  0  0  0
   25.1686  -21.3024  -12.4509 C   0  0  0  0  0  0  0  0  0  0  0  0
   24.7639  -22.4755  -12.2721 O   0  0  0  0  0  0  0  0  0  0  0  0
   25.2672  -20.4354  -11.3497 N   0  0  0  0  0  0  0  0  0  0  0  0
   24.8044  -20.7374   -9.9990 C   0  0  1  0  0  0  0  0  0  0  0  0
   25.4982  -19.9068   -8.9892 C   0  0  0  0  0  0  0  0  0  0  0  0
   26.8652  -20.3727   -8.7219 C   0  0  0  0  0  0  0  0  0  0  0  0
   27.6011  -21.2980   -9.4727 C   0  0  0  0  0  0  0  0  0  0  0  0
   28.7882  -21.5005   -8.9034 N   0  0  0  0  0  0  0  0  0  0  0  0
   28.8455  -20.7353   -7.8071 C   0  0  0  0  0  0  0  0  0  0  0  0
   29.8760  -20.5798   -6.8841 C   0  0  0  0  0  0  0  0  0  0  0  0
   29.6917  -19.7041   -5.8383 C   0  0  0  0  0  0  0  0  0  0  0  0
   28.5311  -18.9774   -5.6688 C   0  0  0  0  0  0  0  0  0  0  0  0
   27.5179  -19.1378   -6.5849 C   0  0  0  0  0  0  0  0  0  0  0  0
   27.6846  -20.0143   -7.6429 C   0  0  0  0  0  0  0  0  0  0  0  0
   23.3696  -20.8954   -9.8628 C   0  0  0  0  0  0  0  0  0  0  0  0
   22.8464  -21.2599   -8.7780 O   0  0  0  0  0  0  0  0  0  0  0  0
   22.4889  -20.6445  -10.9256 O   0  0  0  0  0  0  0  0  0  0  0  0
  2  4  1  0
  2  1  1  6
  3  2  1  0
  4  5  2  0
  6  7  1  0
  6  4  1  0
  8  9  1  0
  7  8  1  6
 10 12  1  0
 10  7  1  0
 11 10  2  0
 13 12  1  0
 13 14  1  1
 14 15  1  0
 15 16  2  0
 16 17  1  0
 18 19  2  0
 18 17  1  0
 20 19  1  0
 21 20  2  0
 22 21  1  0
 22 23  2  0
 23 15  1  0
 23 18  1  0
 24 13  1  0
 25 24  2  0
 26 24  1  0
M  END
$$$$
