ACW.pdb
     RDKit          3D

 26 27  0  0  1  0  0  0  0  0999 V2000
   20.4620   -6.6216  -23.4333 C   0  0  0  0  0  0  0  0  0  0  0  0
   20.0632   -5.1828  -23.2077 C   0  0  2  0  0  0  0  0  0  0  0  0
   20.5408   -4.3034  -24.2565 N   0  0  0  0  0  0  0  0  0  0  0  0
   20.6065   -4.6983  -21.9133 C   0  0  0  0  0  0  0  0  0  0  0  0
   21.8191   -4.3387  -21.8494 O   0  0  0  0  0  0  0  0  0  0  0  0
   19.8202   -4.6230  -20.7468 N   0  0  0  0  0  0  0  0  0  0  0  0
   20.3333   -3.9963  -19.5492 C   0  0  1  0  0  0  0  0  0  0  0  0
   19.5633   -2.7442  -19.1821 C   0  0  0  0  0  0  0  0  0  0  0  0
   20.6388   -1.3927  -18.6873 S   0  0  0  0  0  0  0  0  0  0  0  0
   20.3796   -4.9577  -18.4118 C   0  0  0  0  0  0  0  0  0  0  0  0
   19.4228   -5.7584  -18.2871 O   0  0  0  0  0  0  0  0  0  0  0  0
   21.4367   -5.0029  -17.4875 N   0  0  0  0  0  0  0  0  0  0  0  0
   21.5258   -5.9223  -16.3576 C   0  0  1  0  0  0  0  0  0  0  0  0
   22.8778   -6.5142  -16.2448 C   0  0  0  0  0  0  0  0  0  0  0  0
   22.8941   -7.7224  -15.4098 C   0  0  0  0  0  0  0  0  0  0  0  0
   23.3487   -8.9946  -15.7789 C   0  0  0  0  0  0  0  0  0  0  0  0
   23.1717   -9.8481  -14.7716 N   0  0  0  0  0  0  0  0  0  0  0  0
   22.6169   -9.1691  -13.7606 C   0  0  0  0  0  0  0  0  0  0  0  0
   22.2533   -9.6060  -12.4898 C   0  0  0  0  0  0  0  0  0  0  0  0
   21.7109   -8.6933  -11.6139 C   0  0  0  0  0  0  0  0  0  0  0  0
   21.5138   -7.3680  -11.9438 C   0  0  0  0  0  0  0  0  0  0  0  0
   21.8753   -6.9452  -13.2017 C   0  0  0  0  0  0  0  0  0  0  0  0
   22.4217   -7.8487  -14.0965 C   0  0  0  0  0  0  0  0  0  0  0  0
   20.8955   -5.4579  -15.1372 C   0  0  0  0  0  0  0  0  0  0  0  0
   21.2593   -4.3950  -14.5706 O   0  0  0  0  0  0  0  0  0  0  0  0
   19.8453   -6.1606  -14.5278 O   0  0  0  0  0  0  0  0  0  0  0  0
  2  4  1  0
  2  1  1  6
  3  2  1  0
  4  5  2  0
  6  7  1  0
  6  4  1  0
  8  9  1  0
  7  8  1  1
 10 12  1  0
 10  7  1  0
 11 10  2  0
 13 12  1  0
 13 14  1  1
 14 15  1  0
 15 16  2  0
 16 17  1  0
 18 19  2  0
 18 17  1  0
 20 19  1  0
 21 20  2  0
 22 21  1  0
 22 23  2  0
 23 15  1  0
 23 18  1  0
 24 13  1  0
 25 24  2  0
 26 24  1  0
M  END
$$$$
