ACW.pdb
     RDKit          3D

 26 27  0  0  1  0  0  0  0  0999 V2000
   28.0254  -22.4618  -15.7951 C   0  0  0  0  0  0  0  0  0  0  0  0
   27.3829  -23.8281  -15.8169 C   0  0  2  0  0  0  0  0  0  0  0  0
   27.7967  -24.6179  -16.9599 N   0  0  0  0  0  0  0  0  0  0  0  0
   25.9041  -23.6972  -15.8549 C   0  0  0  0  0  0  0  0  0  0  0  0
   25.3526  -23.2325  -16.8959 O   0  0  0  0  0  0  0  0  0  0  0  0
   25.0863  -24.0723  -14.7708 N   0  0  0  0  0  0  0  0  0  0  0  0
   23.6559  -23.8674  -14.8190 C   0  0  1  0  0  0  0  0  0  0  0  0
   22.8849  -25.1573  -14.6254 C   0  0  0  0  0  0  0  0  0  0  0  0
   23.6288  -26.5430  -15.4939 S   0  0  0  0  0  0  0  0  0  0  0  0
   23.2245  -22.8262  -13.8443 C   0  0  0  0  0  0  0  0  0  0  0  0
   23.1923  -23.1420  -12.6313 O   0  0  0  0  0  0  0  0  0  0  0  0
   22.8584  -21.5240  -14.2240 N   0  0  0  0  0  0  0  0  0  0  0  0
   22.4909  -20.4528  -13.3036 C   0  0  1  0  0  0  0  0  0  0  0  0
   23.6209  -19.5252  -13.0714 C   0  0  0  0  0  0  0  0  0  0  0  0
   24.7004  -20.1401  -12.2879 C   0  0  0  0  0  0  0  0  0  0  0  0
   24.5827  -20.7717  -11.0434 C   0  0  0  0  0  0  0  0  0  0  0  0
   25.7818  -21.1730  -10.6247 N   0  0  0  0  0  0  0  0  0  0  0  0
   26.6735  -20.8219  -11.5587 C   0  0  0  0  0  0  0  0  0  0  0  0
   28.0495  -21.0293  -11.5970 C   0  0  0  0  0  0  0  0  0  0  0  0
   28.7489  -20.5820  -12.6948 C   0  0  0  0  0  0  0  0  0  0  0  0
   28.1430  -19.9387  -13.7546 C   0  0  0  0  0  0  0  0  0  0  0  0
   26.7833  -19.7374  -13.7081 C   0  0  0  0  0  0  0  0  0  0  0  0
   26.0632  -20.1796  -12.6121 C   0  0  0  0  0  0  0  0  0  0  0  0
   21.1833  -19.8693  -13.5315 C   0  0  0  0  0  0  0  0  0  0  0  0
   20.7138  -18.9854  -12.7689 O   0  0  0  0  0  0  0  0  0  0  0  0
   20.3765  -20.2506  -14.6139 O   0  0  0  0  0  0  0  0  0  0  0  0
  2  4  1  0
  2  1  1  6
  3  2  1  0
  4  5  2  0
  6  7  1  0
  6  4  1  0
  8  9  1  0
  7  8  1  1
 10 12  1  0
 10  7  1  0
 11 10  2  0
 13 12  1  0
 13 14  1  6
 14 15  1  0
 15 16  2  0
 16 17  1  0
 18 19  2  0
 18 17  1  0
 20 19  1  0
 21 20  2  0
 22 21  1  0
 22 23  2  0
 23 15  1  0
 23 18  1  0
 24 13  1  0
 25 24  2  0
 26 24  1  0
M  END
$$$$
