ACW.pdb
     RDKit          3D

 26 27  0  0  1  0  0  0  0  0999 V2000
   29.3710  -21.6234  -17.5310 C   0  0  0  0  0  0  0  0  0  0  0  0
   29.0666  -22.1141  -16.1359 C   0  0  2  0  0  0  0  0  0  0  0  0
   28.6362  -23.4982  -16.1157 N   0  0  0  0  0  0  0  0  0  0  0  0
   27.9953  -21.2866  -15.5251 C   0  0  0  0  0  0  0  0  0  0  0  0
   28.1493  -20.0315  -15.4559 O   0  0  0  0  0  0  0  0  0  0  0  0
   26.8073  -21.8475  -15.0165 N   0  0  0  0  0  0  0  0  0  0  0  0
   25.7463  -21.0022  -14.5164 C   0  0  1  0  0  0  0  0  0  0  0  0
   24.5569  -20.9593  -15.4540 C   0  0  0  0  0  0  0  0  0  0  0  0
   24.3281  -22.4999  -16.3495 S   0  0  0  0  0  0  0  0  0  0  0  0
   25.3379  -21.4021  -13.1403 C   0  0  0  0  0  0  0  0  0  0  0  0
   25.1061  -22.6165  -12.9317 O   0  0  0  0  0  0  0  0  0  0  0  0
   25.2048  -20.4868  -12.0827 N   0  0  0  0  0  0  0  0  0  0  0  0
   24.6839  -20.8051  -10.7571 C   0  0  1  0  0  0  0  0  0  0  0  0
   25.3030  -19.9580   -9.7130 C   0  0  0  0  0  0  0  0  0  0  0  0
   26.6672  -20.3868   -9.3778 C   0  0  0  0  0  0  0  0  0  0  0  0
   27.4899  -21.2379  -10.1262 C   0  0  0  0  0  0  0  0  0  0  0  0
   28.6435  -21.4283   -9.4880 N   0  0  0  0  0  0  0  0  0  0  0  0
   28.5949  -20.7270   -8.3493 C   0  0  0  0  0  0  0  0  0  0  0  0
   29.5537  -20.5869   -7.3497 C   0  0  0  0  0  0  0  0  0  0  0  0
   29.2632  -19.7817   -6.2719 C   0  0  0  0  0  0  0  0  0  0  0  0
   28.0644  -19.1106   -6.1431 C   0  0  0  0  0  0  0  0  0  0  0  0
   27.1226  -19.2553   -7.1350 C   0  0  0  0  0  0  0  0  0  0  0  0
   27.3965  -20.0614   -8.2261 C   0  0  0  0  0  0  0  0  0  0  0  0
   23.2491  -21.0035  -10.6929 C   0  0  0  0  0  0  0  0  0  0  0  0
   22.6765  -21.3336   -9.6221 O   0  0  0  0  0  0  0  0  0  0  0  0
   22.4230  -20.8320  -11.8136 O   0  0  0  0  0  0  0  0  0  0  0  0
  2  4  1  0
  2  1  1  6
  3  2  1  0
  4  5  2  0
  6  7  1  0
  6  4  1  0
  8  9  1  0
  7  8  1  6
 10 12  1  0
 10  7  1  0
 11 10  2  0
 13 12  1  0
 13 14  1  1
 14 15  1  0
 15 16  2  0
 16 17  1  0
 18 19  2  0
 18 17  1  0
 20 19  1  0
 21 20  2  0
 22 21  1  0
 22 23  2  0
 23 15  1  0
 23 18  1  0
 24 13  1  0
 25 24  2  0
 26 24  1  0
M  END
$$$$
