ACW.pdb
     RDKit          3D

 26 27  0  0  1  0  0  0  0  0999 V2000
   20.7688  -19.7881  -14.7377 C   0  0  0  0  0  0  0  0  0  0  0  0
   22.1801  -19.3097  -14.4944 C   0  0  2  0  0  0  0  0  0  0  0  0
   22.9716  -19.2748  -15.7083 N   0  0  0  0  0  0  0  0  0  0  0  0
   22.8619  -20.2014  -13.5220 C   0  0  0  0  0  0  0  0  0  0  0  0
   22.2941  -20.4612  -12.4202 O   0  0  0  0  0  0  0  0  0  0  0  0
   24.1236  -20.7728  -13.7795 N   0  0  0  0  0  0  0  0  0  0  0  0
   24.7415  -21.6616  -12.8212 C   0  0  1  0  0  0  0  0  0  0  0  0
   25.4713  -22.8085  -13.4902 C   0  0  0  0  0  0  0  0  0  0  0  0
   24.3855  -24.1876  -13.8735 S   0  0  0  0  0  0  0  0  0  0  0  0
   25.6371  -20.9177  -11.8912 C   0  0  0  0  0  0  0  0  0  0  0  0
   26.3354  -19.9933  -12.3705 O   0  0  0  0  0  0  0  0  0  0  0  0
   25.7287  -21.2058  -10.5191 N   0  0  0  0  0  0  0  0  0  0  0  0
   26.7155  -20.6384   -9.6058 C   0  0  1  0  0  0  0  0  0  0  0  0
   26.2784  -20.7513   -8.1962 C   0  0  0  0  0  0  0  0  0  0  0  0
   27.0596  -19.8936   -7.2954 C   0  0  0  0  0  0  0  0  0  0  0  0
   27.1778  -18.4993   -7.3531 C   0  0  0  0  0  0  0  0  0  0  0  0
   28.0007  -18.0752   -6.3952 N   0  0  0  0  0  0  0  0  0  0  0  0
   28.4194  -19.1507   -5.7179 C   0  0  0  0  0  0  0  0  0  0  0  0
   29.2738  -19.2342   -4.6220 C   0  0  0  0  0  0  0  0  0  0  0  0
   29.5355  -20.4759   -4.0888 C   0  0  0  0  0  0  0  0  0  0  0  0
   28.9873  -21.6364   -4.5953 C   0  0  0  0  0  0  0  0  0  0  0  0
   28.1449  -21.5447   -5.6787 C   0  0  0  0  0  0  0  0  0  0  0  0
   27.8703  -20.3048   -6.2288 C   0  0  0  0  0  0  0  0  0  0  0  0
   28.0939  -20.9723   -9.9070 C   0  0  0  0  0  0  0  0  0  0  0  0
   28.9036  -20.1083  -10.3326 O   0  0  0  0  0  0  0  0  0  0  0  0
   28.6006  -22.2689   -9.7342 O   0  0  0  0  0  0  0  0  0  0  0  0
  2  4  1  0
  2  1  1  6
  3  2  1  0
  4  5  2  0
  6  7  1  0
  6  4  1  0
  8  9  1  0
  7  8  1  6
 10 12  1  0
 10  7  1  0
 11 10  2  0
 13 12  1  0
 13 14  1  1
 14 15  1  0
 15 16  2  0
 16 17  1  0
 18 19  2  0
 18 17  1  0
 20 19  1  0
 21 20  2  0
 22 21  1  0
 22 23  2  0
 23 15  1  0
 23 18  1  0
 24 13  1  0
 25 24  2  0
 26 24  1  0
M  END
$$$$
