ACW.pdb
     RDKit          3D

 26 27  0  0  1  0  0  0  0  0999 V2000
   19.6873  -17.1273  -17.0366 C   0  0  0  0  0  0  0  0  0  0  0  0
   18.6261  -16.3154  -17.7399 C   0  0  2  0  0  0  0  0  0  0  0  0
   18.2036  -16.9173  -18.9891 N   0  0  0  0  0  0  0  0  0  0  0  0
   19.1353  -14.9512  -18.0316 C   0  0  0  0  0  0  0  0  0  0  0  0
   20.3348  -14.8090  -18.4121 O   0  0  0  0  0  0  0  0  0  0  0  0
   18.3307  -13.8023  -17.9003 N   0  0  0  0  0  0  0  0  0  0  0  0
   18.8435  -12.4971  -18.2519 C   0  0  1  0  0  0  0  0  0  0  0  0
   18.1223  -11.8991  -19.4425 C   0  0  0  0  0  0  0  0  0  0  0  0
   16.3406  -11.8487  -19.2162 S   0  0  0  0  0  0  0  0  0  0  0  0
   18.8201  -11.5729  -17.0833 C   0  0  0  0  0  0  0  0  0  0  0  0
   17.8493  -11.6568  -16.2942 O   0  0  0  0  0  0  0  0  0  0  0  0
   19.8273  -10.6258  -16.8334 N   0  0  0  0  0  0  0  0  0  0  0  0
   19.8118   -9.6495  -15.7487 C   0  0  1  0  0  0  0  0  0  0  0  0
   21.1338   -9.5482  -15.0908 C   0  0  0  0  0  0  0  0  0  0  0  0
   21.1881   -8.4622  -14.1034 C   0  0  0  0  0  0  0  0  0  0  0  0
   20.8188   -8.5319  -12.7543 C   0  0  0  0  0  0  0  0  0  0  0  0
   20.9696   -7.3386  -12.1818 N   0  0  0  0  0  0  0  0  0  0  0  0
   21.4255   -6.4972  -13.1173 C   0  0  0  0  0  0  0  0  0  0  0  0
   21.7545   -5.1484  -13.0158 C   0  0  0  0  0  0  0  0  0  0  0  0
   22.2266   -4.5034  -14.1364 C   0  0  0  0  0  0  0  0  0  0  0  0
   22.3859   -5.1378  -15.3513 C   0  0  0  0  0  0  0  0  0  0  0  0
   22.0577   -6.4703  -15.4428 C   0  0  0  0  0  0  0  0  0  0  0  0
   21.5807   -7.1356  -14.3268 C   0  0  0  0  0  0  0  0  0  0  0  0
   19.1167   -8.4124  -16.0464 C   0  0  0  0  0  0  0  0  0  0  0  0
   19.2554   -7.8278  -17.1520 O   0  0  0  0  0  0  0  0  0  0  0  0
   18.2496   -7.8056  -15.1256 O   0  0  0  0  0  0  0  0  0  0  0  0
  2  4  1  0
  2  1  1  6
  3  2  1  0
  4  5  2  0
  6  7  1  0
  6  4  1  0
  8  9  1  0
  7  8  1  6
 10 12  1  0
 10  7  1  0
 11 10  2  0
 13 12  1  0
 13 14  1  6
 14 15  1  0
 15 16  2  0
 16 17  1  0
 18 19  2  0
 18 17  1  0
 20 19  1  0
 21 20  2  0
 22 21  1  0
 22 23  2  0
 23 15  1  0
 23 18  1  0
 24 13  1  0
 25 24  2  0
 26 24  1  0
M  END
$$$$
