ACW.pdb
     RDKit          3D

 26 27  0  0  1  0  0  0  0  0999 V2000
   24.1497  -17.0086  -24.2584 C   0  0  0  0  0  0  0  0  0  0  0  0
   23.6575  -16.5321  -22.9128 C   0  0  2  0  0  0  0  0  0  0  0  0
   22.2427  -16.7817  -22.7190 N   0  0  0  0  0  0  0  0  0  0  0  0
   23.8949  -15.0733  -22.7687 C   0  0  0  0  0  0  0  0  0  0  0  0
   25.0849  -14.6400  -22.7604 O   0  0  0  0  0  0  0  0  0  0  0  0
   22.8410  -14.1473  -22.6399 N   0  0  0  0  0  0  0  0  0  0  0  0
   23.1128  -12.7364  -22.4793 C   0  0  1  0  0  0  0  0  0  0  0  0
   22.0502  -11.8705  -23.1249 C   0  0  0  0  0  0  0  0  0  0  0  0
   22.1819  -10.1440  -22.6458 S   0  0  0  0  0  0  0  0  0  0  0  0
   23.3040  -12.3813  -21.0449 C   0  0  0  0  0  0  0  0  0  0  0  0
   22.4154  -12.7349  -20.2342 O   0  0  0  0  0  0  0  0  0  0  0  0
   24.4237  -11.6770  -20.5712 N   0  0  0  0  0  0  0  0  0  0  0  0
   24.6588  -11.3124  -19.1778 C   0  0  1  0  0  0  0  0  0  0  0  0
   25.7423  -12.1245  -18.5797 C   0  0  0  0  0  0  0  0  0  0  0  0
   26.0391  -11.7328  -17.1956 C   0  0  0  0  0  0  0  0  0  0  0  0
   25.3469  -12.1249  -16.0430 C   0  0  0  0  0  0  0  0  0  0  0  0
   25.8821  -11.5394  -14.9728 N   0  0  0  0  0  0  0  0  0  0  0  0
   26.9000  -10.7803  -15.3952 C   0  0  0  0  0  0  0  0  0  0  0  0
   27.7797   -9.9861  -14.6650 C   0  0  0  0  0  0  0  0  0  0  0  0
   28.7677   -9.3091  -15.3432 C   0  0  0  0  0  0  0  0  0  0  0  0
   28.9203   -9.3857  -16.7125 C   0  0  0  0  0  0  0  0  0  0  0  0
   28.0463  -10.1722  -17.4261 C   0  0  0  0  0  0  0  0  0  0  0  0
   27.0459  -10.8600  -16.7616 C   0  0  0  0  0  0  0  0  0  0  0  0
   24.6650   -9.8877  -18.9088 C   0  0  0  0  0  0  0  0  0  0  0  0
   25.0340   -9.0546  -19.7766 O   0  0  0  0  0  0  0  0  0  0  0  0
   24.2548   -9.3614  -17.6749 O   0  0  0  0  0  0  0  0  0  0  0  0
  2  4  1  0
  2  1  1  6
  3  2  1  0
  4  5  2  0
  6  7  1  0
  6  4  1  0
  8  9  1  0
  7  8  1  1
 10 12  1  0
 10  7  1  0
 11 10  2  0
 13 12  1  0
 13 14  1  6
 14 15  1  0
 15 16  2  0
 16 17  1  0
 18 19  2  0
 18 17  1  0
 20 19  1  0
 21 20  2  0
 22 21  1  0
 22 23  2  0
 23 15  1  0
 23 18  1  0
 24 13  1  0
 25 24  2  0
 26 24  1  0
M  END
$$$$
