ACW.pdb
     RDKit          3D

 26 27  0  0  1  0  0  0  0  0999 V2000
   42.4237  -23.3899    6.8079 C   0  0  0  0  0  0  0  0  0  0  0  0
   42.6160  -24.1754    5.5328 C   0  0  2  0  0  0  0  0  0  0  0  0
   43.5206  -23.5205    4.6085 N   0  0  0  0  0  0  0  0  0  0  0  0
   41.3121  -24.3664    4.8482 C   0  0  0  0  0  0  0  0  0  0  0  0
   41.0145  -23.6207    3.8688 O   0  0  0  0  0  0  0  0  0  0  0  0
   40.3877  -25.3512    5.2488 N   0  0  0  0  0  0  0  0  0  0  0  0
   39.1220  -25.4979    4.5656 C   0  0  1  0  0  0  0  0  0  0  0  0
   38.9354  -26.8897    3.9966 C   0  0  0  0  0  0  0  0  0  0  0  0
   37.2843  -27.1502    3.3376 S   0  0  0  0  0  0  0  0  0  0  0  0
   37.9830  -25.1149    5.4467 C   0  0  0  0  0  0  0  0  0  0  0  0
   37.9320  -25.6297    6.5888 O   0  0  0  0  0  0  0  0  0  0  0  0
   36.9793  -24.2132    5.0552 N   0  0  0  0  0  0  0  0  0  0  0  0
   35.8308  -23.8294    5.8698 C   0  0  1  0  0  0  0  0  0  0  0  0
   35.0930  -22.6961    5.2679 C   0  0  0  0  0  0  0  0  0  0  0  0
   34.1325  -22.0923    6.2007 C   0  0  0  0  0  0  0  0  0  0  0  0
   34.2951  -21.9184    7.5809 C   0  0  0  0  0  0  0  0  0  0  0  0
   33.1977  -21.3699    8.1000 N   0  0  0  0  0  0  0  0  0  0  0  0
   32.3288  -21.1823    7.0997 C   0  0  0  0  0  0  0  0  0  0  0  0
   31.0517  -20.6286    7.1233 C   0  0  0  0  0  0  0  0  0  0  0  0
   30.3591  -20.5290    5.9380 C   0  0  0  0  0  0  0  0  0  0  0  0
   30.8779  -20.9544    4.7322 C   0  0  0  0  0  0  0  0  0  0  0  0
   32.1400  -21.5008    4.7182 C   0  0  0  0  0  0  0  0  0  0  0  0
   32.8515  -21.6098    5.9003 C   0  0  0  0  0  0  0  0  0  0  0  0
   35.0497  -24.9350    6.3891 C   0  0  0  0  0  0  0  0  0  0  0  0
   34.5750  -25.8202    5.6312 O   0  0  0  0  0  0  0  0  0  0  0  0
   34.7877  -25.0825    7.7593 O   0  0  0  0  0  0  0  0  0  0  0  0
  2  4  1  0
  2  1  1  1
  3  2  1  0
  4  5  2  0
  6  7  1  0
  6  4  1  0
  8  9  1  0
  7  8  1  1
 10 12  1  0
 10  7  1  0
 11 10  2  0
 13 12  1  0
 13 14  1  6
 14 15  1  0
 15 16  2  0
 16 17  1  0
 18 19  2  0
 18 17  1  0
 20 19  1  0
 21 20  2  0
 22 21  1  0
 22 23  2  0
 23 15  1  0
 23 18  1  0
 24 13  1  0
 25 24  2  0
 26 24  1  0
M  END
$$$$
