ACW.pdb
     RDKit          3D

 26 27  0  0  1  0  0  0  0  0999 V2000
   29.7385  -19.9389  -18.4820 C   0  0  0  0  0  0  0  0  0  0  0  0
   28.7377  -20.9078  -17.8993 C   0  0  2  0  0  0  0  0  0  0  0  0
   27.6531  -21.2032  -18.8146 N   0  0  0  0  0  0  0  0  0  0  0  0
   28.1534  -20.3516  -16.6524 C   0  0  0  0  0  0  0  0  0  0  0  0
   28.8842  -20.2434  -15.6238 O   0  0  0  0  0  0  0  0  0  0  0  0
   26.8095  -19.9373  -16.5694 N   0  0  0  0  0  0  0  0  0  0  0  0
   26.2651  -19.4406  -15.3255 C   0  0  1  0  0  0  0  0  0  0  0  0
   25.2020  -18.3838  -15.5461 C   0  0  0  0  0  0  0  0  0  0  0  0
   23.9660  -18.3655  -14.2423 S   0  0  0  0  0  0  0  0  0  0  0  0
   25.7561  -20.5526  -14.4743 C   0  0  0  0  0  0  0  0  0  0  0  0
   25.0543  -21.4333  -15.0256 O   0  0  0  0  0  0  0  0  0  0  0  0
   26.0274  -20.6528  -13.0994 N   0  0  0  0  0  0  0  0  0  0  0  0
   25.5915  -21.7447  -12.2348 C   0  0  1  0  0  0  0  0  0  0  0  0
   26.5977  -22.0460  -11.1918 C   0  0  0  0  0  0  0  0  0  0  0  0
   26.4525  -21.1899  -10.0072 C   0  0  0  0  0  0  0  0  0  0  0  0
   25.3423  -20.4078   -9.6649 C   0  0  0  0  0  0  0  0  0  0  0  0
   25.5903  -19.7381   -8.5404 N   0  0  0  0  0  0  0  0  0  0  0  0
   26.8263  -20.0617   -8.1425 C   0  0  0  0  0  0  0  0  0  0  0  0
   27.5384  -19.6418   -7.0224 C   0  0  0  0  0  0  0  0  0  0  0  0
   28.8050  -20.1434   -6.8257 C   0  0  0  0  0  0  0  0  0  0  0  0
   29.3948  -21.0420   -7.6910 C   0  0  0  0  0  0  0  0  0  0  0  0
   28.6843  -21.4509   -8.7954 C   0  0  0  0  0  0  0  0  0  0  0  0
   27.4095  -20.9569   -9.0103 C   0  0  0  0  0  0  0  0  0  0  0  0
   24.2017  -21.6862  -11.8256 C   0  0  0  0  0  0  0  0  0  0  0  0
   23.4928  -22.7229  -11.7490 O   0  0  0  0  0  0  0  0  0  0  0  0
   23.5758  -20.4773  -11.4868 O   0  0  0  0  0  0  0  0  0  0  0  0
  2  4  1  0
  2  1  1  6
  3  2  1  0
  4  5  2  0
  6  7  1  0
  6  4  1  0
  8  9  1  0
  7  8  1  6
 10 12  1  0
 10  7  1  0
 11 10  2  0
 13 12  1  0
 13 14  1  1
 14 15  1  0
 15 16  2  0
 16 17  1  0
 18 19  2  0
 18 17  1  0
 20 19  1  0
 21 20  2  0
 22 21  1  0
 22 23  2  0
 23 15  1  0
 23 18  1  0
 24 13  1  0
 25 24  2  0
 26 24  1  0
M  END
$$$$
