HPY.pdb
     RDKit          3D

 30 32  0  0  1  0  0  0  0  0999 V2000
   25.2540  -18.5888  -17.9174 N   0  0  0  0  0  0  0  0  0  0  0  0
   26.1327  -18.4117  -16.8075 C   0  0  1  0  0  0  0  0  0  0  0  0
   26.0445  -16.9570  -16.3608 C   0  0  0  0  0  0  0  0  0  0  0  0
   26.6354  -16.1079  -17.4594 C   0  0  0  0  0  0  0  0  0  0  0  0
   27.8765  -16.2426  -18.0346 C   0  0  0  0  0  0  0  0  0  0  0  0
   28.0139  -15.2908  -18.9764 N   0  0  0  0  0  0  0  0  0  0  0  0
   26.9023  -14.5565  -19.0190 C   0  0  0  0  0  0  0  0  0  0  0  0
   26.0604  -15.0561  -18.0926 N   0  0  0  0  0  0  0  0  0  0  0  0
   25.9883  -19.3677  -15.7085 C   0  0  0  0  0  0  0  0  0  0  0  0
   24.9214  -19.3342  -15.0535 O   0  0  0  0  0  0  0  0  0  0  0  0
   26.9784  -20.3423  -15.3209 N   0  0  0  0  0  0  0  0  0  0  0  0
   27.9787  -20.7588  -16.2740 C   0  0  0  0  0  0  0  0  0  0  0  0
   28.7793  -21.8304  -15.5660 C   0  0  0  0  0  0  0  0  0  0  0  0
   28.6524  -21.4249  -14.1040 C   0  0  0  0  0  0  0  0  0  0  0  0
   27.1687  -21.0305  -14.1030 C   0  0  1  0  0  0  0  0  0  0  0  0
   26.8672  -20.2875  -12.8574 C   0  0  0  0  0  0  0  0  0  0  0  0
   27.2059  -19.1027  -12.7207 O   0  0  0  0  0  0  0  0  0  0  0  0
   20.0718  -20.8686  -12.8362 O   0  0  0  0  0  0  0  0  0  0  0  0
   21.2796  -20.4420  -12.2943 C   0  0  0  0  0  0  0  0  0  0  0  0
   21.5087  -20.3561  -10.9411 C   0  0  0  0  0  0  0  0  0  0  0  0
   22.7224  -19.9287  -10.4025 C   0  0  0  0  0  0  0  0  0  0  0  0
   23.7490  -19.5725  -11.2501 C   0  0  0  0  0  0  0  0  0  0  0  0
   25.0441  -19.1200  -10.6962 C   0  0  0  0  0  0  0  0  0  0  0  0
   25.9969  -20.3014  -10.4862 C   0  0  2  0  0  0  0  0  0  0  0  0
   26.1742  -20.9073  -11.7649 N   0  0  0  0  0  0  0  0  0  0  0  0
   25.3867  -21.1864   -9.4804 C   0  0  0  0  0  0  0  0  0  0  0  0
   25.1617  -20.7857   -8.3052 O   0  0  0  0  0  0  0  0  0  0  0  0
   23.5176  -19.6595  -12.6084 C   0  0  0  0  0  0  0  0  0  0  0  0
   22.3163  -20.0820  -13.1302 C   0  0  0  0  0  0  0  0  0  0  0  0
   25.0320  -22.4892   -9.7702 O   0  0  0  0  0  0  0  0  0  0  0  0
  2  1  1  6
  3  2  1  0
  3  4  1  0
  4  5  2  0
  4  8  1  0
  5  6  1  0
  6  7  1  0
  8  7  2  0
  9  2  1  0
 10  9  2  0
 11  9  1  0
 12 11  1  0
 13 12  1  0
 14 13  1  0
 15 14  1  0
 15 11  1  0
 15 16  1  1
 17 16  2  0
 19 20  2  0
 19 18  1  0
 21 20  1  0
 22 21  2  0
 23 22  1  0
 24 23  1  6
 24 25  1  0
 25 16  1  0
 26 24  1  0
 26 30  1  0
 27 26  2  0
 28 22  1  0
 28 29  2  0
 29 19  1  0
M  END
$$$$
