HPY.pdb
     RDKit          3D

 30 32  0  0  1  0  0  0  0  0999 V2000
   35.4442  -36.3899  -10.8638 N   0  0  0  0  0  0  0  0  0  0  0  0
   34.9569  -35.4557   -9.9017 C   0  0  1  0  0  0  0  0  0  0  0  0
   34.3829  -34.2592  -10.6516 C   0  0  0  0  0  0  0  0  0  0  0  0
   35.4920  -33.6753  -11.4919 C   0  0  0  0  0  0  0  0  0  0  0  0
   36.6404  -33.0678  -11.0429 C   0  0  0  0  0  0  0  0  0  0  0  0
   37.3669  -32.6903  -12.1113 N   0  0  0  0  0  0  0  0  0  0  0  0
   36.7192  -33.0376  -13.2233 C   0  0  0  0  0  0  0  0  0  0  0  0
   35.5743  -33.6396  -12.8446 N   0  0  0  0  0  0  0  0  0  0  0  0
   34.0547  -35.9897   -8.8801 C   0  0  0  0  0  0  0  0  0  0  0  0
   32.8830  -36.2582   -9.2312 O   0  0  0  0  0  0  0  0  0  0  0  0
   34.4093  -36.2283   -7.5026 N   0  0  0  0  0  0  0  0  0  0  0  0
   35.7666  -36.5875   -7.1687 C   0  0  0  0  0  0  0  0  0  0  0  0
   35.7542  -36.8408   -5.6767 C   0  0  0  0  0  0  0  0  0  0  0  0
   34.6326  -35.9298   -5.1968 C   0  0  0  0  0  0  0  0  0  0  0  0
   33.6272  -36.1881   -6.3280 C   0  0  1  0  0  0  0  0  0  0  0  0
   32.5583  -35.1643   -6.2673 C   0  0  0  0  0  0  0  0  0  0  0  0
   32.6617  -34.0935   -6.8837 O   0  0  0  0  0  0  0  0  0  0  0  0
   26.7301  -39.0948   -7.9073 O   0  0  0  0  0  0  0  0  0  0  0  0
   27.4362  -37.9332   -7.6127 C   0  0  0  0  0  0  0  0  0  0  0  0
   27.3725  -37.3031   -6.3921 C   0  0  0  0  0  0  0  0  0  0  0  0
   28.0836  -36.1388   -6.1010 C   0  0  0  0  0  0  0  0  0  0  0  0
   28.8910  -35.5812   -7.0687 C   0  0  0  0  0  0  0  0  0  0  0  0
   29.6548  -34.3483   -6.7763 C   0  0  0  0  0  0  0  0  0  0  0  0
   30.3086  -34.4200   -5.3925 C   0  0  2  0  0  0  0  0  0  0  0  0
   31.3664  -35.3708   -5.4962 N   0  0  0  0  0  0  0  0  0  0  0  0
   29.2597  -34.7897   -4.4280 C   0  0  0  0  0  0  0  0  0  0  0  0
   28.3532  -33.9748   -4.1014 O   0  0  0  0  0  0  0  0  0  0  0  0
   28.9541  -36.2151   -8.2936 C   0  0  0  0  0  0  0  0  0  0  0  0
   28.2483  -37.3634   -8.5712 C   0  0  0  0  0  0  0  0  0  0  0  0
   29.2149  -36.0371   -3.8371 O   0  0  0  0  0  0  0  0  0  0  0  0
  2  1  1  6
  3  2  1  0
  3  4  1  0
  4  5  2  0
  4  8  1  0
  5  6  1  0
  6  7  1  0
  8  7  2  0
  9  2  1  0
 10  9  2  0
 11  9  1  0
 12 11  1  0
 13 12  1  0
 14 13  1  0
 15 14  1  0
 15 11  1  0
 15 16  1  6
 17 16  2  0
 19 20  2  0
 19 18  1  0
 21 20  1  0
 22 21  2  0
 23 22  1  0
 24 23  1  6
 24 25  1  0
 25 16  1  0
 26 24  1  0
 26 30  1  0
 27 26  2  0
 28 22  1  0
 28 29  2  0
 29 19  1  0
M  END
$$$$
