HPY.pdb
     RDKit          3D

 30 32  0  0  1  0  0  0  0  0999 V2000
   30.7415  -30.9515  -22.0280 N   0  0  0  0  0  0  0  0  0  0  0  0
   30.8004  -30.5607  -20.6571 C   0  0  1  0  0  0  0  0  0  0  0  0
   29.6451  -29.6037  -20.3872 C   0  0  0  0  0  0  0  0  0  0  0  0
   29.8364  -28.3990  -21.2755 C   0  0  0  0  0  0  0  0  0  0  0  0
   30.7979  -27.4241  -21.1547 C   0  0  0  0  0  0  0  0  0  0  0  0
   30.6245  -26.5311  -22.1469 N   0  0  0  0  0  0  0  0  0  0  0  0
   29.5861  -26.9059  -22.8937 C   0  0  0  0  0  0  0  0  0  0  0  0
   29.1052  -28.0470  -22.3614 N   0  0  0  0  0  0  0  0  0  0  0  0
   30.8988  -31.6449  -19.6785 C   0  0  0  0  0  0  0  0  0  0  0  0
   29.9222  -32.4228  -19.5819 O   0  0  0  0  0  0  0  0  0  0  0  0
   32.0304  -31.8851  -18.8170 N   0  0  0  0  0  0  0  0  0  0  0  0
   33.3321  -31.3917  -19.1973 C   0  0  0  0  0  0  0  0  0  0  0  0
   34.2749  -31.8916  -18.1241 C   0  0  0  0  0  0  0  0  0  0  0  0
   33.3678  -31.9824  -16.9046 C   0  0  0  0  0  0  0  0  0  0  0  0
   32.1245  -32.5708  -17.5866 C   0  0  1  0  0  0  0  0  0  0  0  0
   30.9698  -32.4590  -16.6653 C   0  0  0  0  0  0  0  0  0  0  0  0
   30.4380  -31.3629  -16.4353 O   0  0  0  0  0  0  0  0  0  0  0  0
   23.1043  -33.1533  -13.4330 O   0  0  0  0  0  0  0  0  0  0  0  0
   24.3388  -33.1343  -14.0736 C   0  0  0  0  0  0  0  0  0  0  0  0
   25.5328  -33.0099  -13.4028 C   0  0  0  0  0  0  0  0  0  0  0  0
   26.7685  -32.9924  -14.0498 C   0  0  0  0  0  0  0  0  0  0  0  0
   26.8133  -33.1036  -15.4227 C   0  0  0  0  0  0  0  0  0  0  0  0
   28.1153  -33.0901  -16.1252 C   0  0  0  0  0  0  0  0  0  0  0  0
   29.2400  -33.5874  -15.2111 C   0  0  2  0  0  0  0  0  0  0  0  0
   30.4238  -33.6101  -16.0059 N   0  0  0  0  0  0  0  0  0  0  0  0
   28.8373  -34.9055  -14.6937 C   0  0  0  0  0  0  0  0  0  0  0  0
   28.8529  -35.9308  -15.4291 O   0  0  0  0  0  0  0  0  0  0  0  0
   25.6138  -33.2285  -16.0948 C   0  0  0  0  0  0  0  0  0  0  0  0
   24.3995  -33.2443  -15.4474 C   0  0  0  0  0  0  0  0  0  0  0  0
   28.4258  -35.0850  -13.3878 O   0  0  0  0  0  0  0  0  0  0  0  0
  2  1  1  6
  3  2  1  0
  3  4  1  0
  4  5  2  0
  4  8  1  0
  5  6  1  0
  6  7  1  0
  8  7  2  0
  9  2  1  0
 10  9  2  0
 11  9  1  0
 12 11  1  0
 13 12  1  0
 14 13  1  0
 15 14  1  0
 15 11  1  0
 15 16  1  1
 17 16  2  0
 19 20  2  0
 19 18  1  0
 21 20  1  0
 22 21  2  0
 23 22  1  0
 24 23  1  6
 24 25  1  0
 25 16  1  0
 26 24  1  0
 26 30  1  0
 27 26  2  0
 28 22  1  0
 28 29  2  0
 29 19  1  0
M  END
$$$$
