HPY.pdb
     RDKit          3D

 30 32  0  0  1  0  0  0  0  0999 V2000
   21.8525  -12.8979  -18.6916 N   0  0  0  0  0  0  0  0  0  0  0  0
   22.5591  -11.7475  -18.2302 C   0  0  1  0  0  0  0  0  0  0  0  0
   23.2703  -11.1184  -19.4227 C   0  0  0  0  0  0  0  0  0  0  0  0
   24.1606  -12.1749  -20.0295 C   0  0  0  0  0  0  0  0  0  0  0  0
   25.2306  -12.7993  -19.4340 C   0  0  0  0  0  0  0  0  0  0  0  0
   25.7523  -13.6770  -20.3111 N   0  0  0  0  0  0  0  0  0  0  0  0
   25.0500  -13.6314  -21.4430 C   0  0  0  0  0  0  0  0  0  0  0  0
   24.0777  -12.7141  -21.2706 N   0  0  0  0  0  0  0  0  0  0  0  0
   21.7869  -10.7872  -17.4402 C   0  0  0  0  0  0  0  0  0  0  0  0
   20.8494  -10.1899  -18.0170 O   0  0  0  0  0  0  0  0  0  0  0  0
   22.0228  -10.4746  -16.0520 N   0  0  0  0  0  0  0  0  0  0  0  0
   22.8202  -11.3678  -15.2466 C   0  0  0  0  0  0  0  0  0  0  0  0
   22.7857  -10.7816  -13.8517 C   0  0  0  0  0  0  0  0  0  0  0  0
   22.6081   -9.2941  -14.1235 C   0  0  0  0  0  0  0  0  0  0  0  0
   21.5835   -9.3896  -15.2628 C   0  0  1  0  0  0  0  0  0  0  0  0
   21.4797   -8.0715  -15.9309 C   0  0  0  0  0  0  0  0  0  0  0  0
   22.1965   -7.7877  -16.9019 O   0  0  0  0  0  0  0  0  0  0  0  0
   14.4543   -8.0795  -16.9684 O   0  0  0  0  0  0  0  0  0  0  0  0
   15.7437   -7.5730  -17.0934 C   0  0  0  0  0  0  0  0  0  0  0  0
   16.0366   -6.2320  -17.0108 C   0  0  0  0  0  0  0  0  0  0  0  0
   17.3317   -5.7290  -17.1357 C   0  0  0  0  0  0  0  0  0  0  0  0
   18.3767   -6.6011  -17.3520 C   0  0  0  0  0  0  0  0  0  0  0  0
   19.7571   -6.0854  -17.4837 C   0  0  0  0  0  0  0  0  0  0  0  0
   20.3750   -5.8071  -16.1096 C   0  0  2  0  0  0  0  0  0  0  0  0
   20.5493   -7.0759  -15.4824 N   0  0  0  0  0  0  0  0  0  0  0  0
   19.4633   -4.9012  -15.3916 C   0  0  0  0  0  0  0  0  0  0  0  0
   18.8203   -5.2877  -14.3769 O   0  0  0  0  0  0  0  0  0  0  0  0
   18.0810   -7.9472  -17.4345 C   0  0  0  0  0  0  0  0  0  0  0  0
   16.7997   -8.4337  -17.3103 C   0  0  0  0  0  0  0  0  0  0  0  0
   19.2677   -3.5932  -15.7888 O   0  0  0  0  0  0  0  0  0  0  0  0
  2  1  1  6
  3  2  1  0
  3  4  1  0
  4  5  2  0
  4  8  1  0
  5  6  1  0
  6  7  1  0
  8  7  2  0
  9  2  1  0
 10  9  2  0
 11  9  1  0
 12 11  1  0
 13 12  1  0
 14 13  1  0
 15 14  1  0
 15 11  1  0
 15 16  1  6
 17 16  2  0
 19 20  2  0
 19 18  1  0
 21 20  1  0
 22 21  2  0
 23 22  1  0
 24 23  1  6
 24 25  1  0
 25 16  1  0
 26 24  1  0
 26 30  1  0
 27 26  2  0
 28 22  1  0
 28 29  2  0
 29 19  1  0
M  END
$$$$
