HPY.pdb
     RDKit          3D

 30 32  0  0  1  0  0  0  0  0999 V2000
   23.7441  -18.8115  -17.7952 N   0  0  0  0  0  0  0  0  0  0  0  0
   24.5607  -18.2755  -16.7552 C   0  0  1  0  0  0  0  0  0  0  0  0
   23.8719  -17.0319  -16.2052 C   0  0  0  0  0  0  0  0  0  0  0  0
   23.8721  -15.9918  -17.2984 C   0  0  0  0  0  0  0  0  0  0  0  0
   24.9354  -15.2264  -17.7144 C   0  0  0  0  0  0  0  0  0  0  0  0
   24.5180  -14.4262  -18.7130 N   0  0  0  0  0  0  0  0  0  0  0  0
   23.2261  -14.6575  -18.9455 C   0  0  0  0  0  0  0  0  0  0  0  0
   22.8320  -15.6141  -18.0816 N   0  0  0  0  0  0  0  0  0  0  0  0
   24.9836  -19.2147  -15.7151 C   0  0  0  0  0  0  0  0  0  0  0  0
   24.0852  -19.8253  -15.0919 O   0  0  0  0  0  0  0  0  0  0  0  0
   26.3520  -19.4895  -15.3517 N   0  0  0  0  0  0  0  0  0  0  0  0
   27.4025  -19.2722  -16.3170 C   0  0  0  0  0  0  0  0  0  0  0  0
   28.6707  -19.7372  -15.6345 C   0  0  0  0  0  0  0  0  0  0  0  0
   28.3631  -19.4909  -14.1638 C   0  0  0  0  0  0  0  0  0  0  0  0
   26.9073  -19.9780  -14.1491 C   0  0  1  0  0  0  0  0  0  0  0  0
   26.2651  -19.5428  -12.8871 C   0  0  0  0  0  0  0  0  0  0  0  0
   25.9426  -18.3590  -12.7079 O   0  0  0  0  0  0  0  0  0  0  0  0
   20.0765  -22.3270  -12.5241 O   0  0  0  0  0  0  0  0  0  0  0  0
   21.1509  -21.5806  -12.0518 C   0  0  0  0  0  0  0  0  0  0  0  0
   22.2748  -21.3222  -12.8008 C   0  0  0  0  0  0  0  0  0  0  0  0
   23.3495  -20.5720  -12.3228 C   0  0  0  0  0  0  0  0  0  0  0  0
   23.2993  -20.0592  -11.0447 C   0  0  0  0  0  0  0  0  0  0  0  0
   24.4286  -19.2587  -10.5226 C   0  0  0  0  0  0  0  0  0  0  0  0
   25.7180  -20.0854  -10.4817 C   0  0  2  0  0  0  0  0  0  0  0  0
   25.9920  -20.4701  -11.8272 N   0  0  0  0  0  0  0  0  0  0  0  0
   25.4876  -21.2163   -9.5677 C   0  0  0  0  0  0  0  0  0  0  0  0
   25.5968  -22.4101   -9.9617 O   0  0  0  0  0  0  0  0  0  0  0  0
   22.1702  -20.3194  -10.2939 C   0  0  0  0  0  0  0  0  0  0  0  0
   21.1152  -21.0610  -10.7743 C   0  0  0  0  0  0  0  0  0  0  0  0
   25.1438  -21.0291   -8.2433 O   0  0  0  0  0  0  0  0  0  0  0  0
  2  1  1  6
  3  2  1  0
  3  4  1  0
  4  5  2  0
  4  8  1  0
  5  6  1  0
  6  7  1  0
  8  7  2  0
  9  2  1  0
 10  9  2  0
 11  9  1  0
 12 11  1  0
 13 12  1  0
 14 13  1  0
 15 14  1  0
 15 11  1  0
 15 16  1  1
 17 16  2  0
 19 20  2  0
 19 18  1  0
 21 20  1  0
 22 21  2  0
 23 22  1  0
 24 23  1  6
 24 25  1  0
 25 16  1  0
 26 24  1  0
 26 30  1  0
 27 26  2  0
 28 22  1  0
 28 29  2  0
 29 19  1  0
M  END
$$$$
