HPY.pdb
     RDKit          3D

 30 32  0  0  1  0  0  0  0  0999 V2000
   23.1703  -19.3935  -17.5895 N   0  0  0  0  0  0  0  0  0  0  0  0
   24.2937  -18.9399  -16.8359 C   0  0  1  0  0  0  0  0  0  0  0  0
   24.0158  -17.5105  -16.3851 C   0  0  0  0  0  0  0  0  0  0  0  0
   23.8056  -16.6762  -17.6247 C   0  0  0  0  0  0  0  0  0  0  0  0
   24.7345  -16.3842  -18.5950 C   0  0  0  0  0  0  0  0  0  0  0  0
   24.1449  -15.6164  -19.5302 N   0  0  0  0  0  0  0  0  0  0  0  0
   22.8735  -15.4111  -19.1872 C   0  0  0  0  0  0  0  0  0  0  0  0
   22.6664  -16.0589  -18.0235 N   0  0  0  0  0  0  0  0  0  0  0  0
   24.7422  -19.8153  -15.7519 C   0  0  0  0  0  0  0  0  0  0  0  0
   23.8858  -20.1762  -14.9125 O   0  0  0  0  0  0  0  0  0  0  0  0
   26.0919  -20.2920  -15.5747 N   0  0  0  0  0  0  0  0  0  0  0  0
   26.9777  -20.3608  -16.7118 C   0  0  0  0  0  0  0  0  0  0  0  0
   28.2558  -20.9746  -16.1824 C   0  0  0  0  0  0  0  0  0  0  0  0
   28.2539  -20.5344  -14.7249 C   0  0  0  0  0  0  0  0  0  0  0  0
   26.7646  -20.7510  -14.4215 C   0  0  1  0  0  0  0  0  0  0  0  0
   26.4311  -20.0867  -13.1402 C   0  0  0  0  0  0  0  0  0  0  0  0
   26.4073  -18.8506  -13.0470 O   0  0  0  0  0  0  0  0  0  0  0  0
   19.9920  -21.8669  -11.6996 O   0  0  0  0  0  0  0  0  0  0  0  0
   21.1977  -21.2351  -11.4137 C   0  0  0  0  0  0  0  0  0  0  0  0
   21.5430  -20.8080  -10.1530 C   0  0  0  0  0  0  0  0  0  0  0  0
   22.7541  -20.1758   -9.8712 C   0  0  0  0  0  0  0  0  0  0  0  0
   23.6570  -19.9615  -10.8901 C   0  0  0  0  0  0  0  0  0  0  0  0
   24.9476  -19.2953  -10.6086 C   0  0  0  0  0  0  0  0  0  0  0  0
   26.1051  -20.2985  -10.6444 C   0  0  2  0  0  0  0  0  0  0  0  0
   26.1236  -20.8446  -11.9616 N   0  0  0  0  0  0  0  0  0  0  0  0
   25.8610  -21.2911   -9.5849 C   0  0  0  0  0  0  0  0  0  0  0  0
   25.7371  -22.5181   -9.8525 O   0  0  0  0  0  0  0  0  0  0  0  0
   23.3089  -20.3910  -12.1552 C   0  0  0  0  0  0  0  0  0  0  0  0
   22.1112  -21.0135  -12.4233 C   0  0  0  0  0  0  0  0  0  0  0  0
   25.7566  -20.9325   -8.2554 O   0  0  0  0  0  0  0  0  0  0  0  0
  2  1  1  1
  3  2  1  0
  3  4  1  0
  4  5  2  0
  4  8  1  0
  5  6  1  0
  6  7  1  0
  8  7  2  0
  9  2  1  0
 10  9  2  0
 11  9  1  0
 12 11  1  0
 13 12  1  0
 14 13  1  0
 15 14  1  0
 15 11  1  0
 15 16  1  1
 17 16  2  0
 19 20  2  0
 19 18  1  0
 21 20  1  0
 22 21  2  0
 23 22  1  0
 24 23  1  6
 24 25  1  0
 25 16  1  0
 26 24  1  0
 26 30  1  0
 27 26  2  0
 28 22  1  0
 28 29  2  0
 29 19  1  0
M  END
$$$$
