EDY.pdb
     RDKit          3D

 30 30  0  0  1  0  0  0  0  0999 V2000
    9.5833  -14.2721   20.1471 N   0  0  0  0  0  0  0  0  0  0  0  0
    8.3502  -13.9657   20.8588 C   0  0  1  0  0  0  0  0  0  0  0  0
    7.3176  -13.5916   19.8181 C   0  0  0  0  0  0  0  0  0  0  0  0
    7.8457  -12.6513   18.7891 C   0  0  0  0  0  0  0  0  0  0  0  0
    8.4515  -13.4236   17.6832 C   0  0  0  0  0  0  0  0  0  0  0  0
    9.6843  -13.6463   17.7044 O   0  0  0  0  0  0  0  0  0  0  0  0
    7.9134  -15.0663   21.7210 C   0  0  0  0  0  0  0  0  0  0  0  0
    6.8083  -14.9891   22.3125 O   0  0  0  0  0  0  0  0  0  0  0  0
    7.7378  -13.9265   16.6069 O   0  0  0  0  0  0  0  0  0  0  0  0
    8.6921  -16.2120   21.9107 N   0  0  0  0  0  0  0  0  0  0  0  0
    8.3524  -17.3501   22.7096 C   0  0  1  0  0  0  0  0  0  0  0  0
    8.9799  -18.6236   22.1861 C   0  0  0  0  0  0  0  0  0  0  0  0
    8.6125  -18.9437   20.8064 C   0  0  0  0  0  0  0  0  0  0  0  0
    9.4512  -18.7909   19.8890 O   0  0  0  0  0  0  0  0  0  0  0  0
    8.7519  -17.1995   24.1263 C   0  0  0  0  0  0  0  0  0  0  0  0
    8.5478  -18.1702   24.8971 O   0  0  0  0  0  0  0  0  0  0  0  0
    7.3534  -19.4140   20.4880 O   0  0  0  0  0  0  0  0  0  0  0  0
    5.8437  -10.6113   26.0844 O   0  0  0  0  0  0  0  0  0  0  0  0
    6.4286  -11.8758   26.2711 C   0  0  0  0  0  0  0  0  0  0  0  0
    7.8110  -12.0031   26.2581 C   0  0  0  0  0  0  0  0  0  0  0  0
    8.3658  -13.2675   26.4459 C   0  0  0  0  0  0  0  0  0  0  0  0
    7.5900  -14.3866   26.6425 C   0  0  0  0  0  0  0  0  0  0  0  0
    8.2434  -15.7016   26.8381 C   0  0  0  0  0  0  0  0  0  0  0  0
    9.5506  -15.8343   26.0903 C   0  0  2  0  0  0  0  0  0  0  0  0
    9.3485  -16.0375   24.6752 N   0  0  0  0  0  0  0  0  0  0  0  0
   10.2971  -16.9782   26.6381 C   0  0  0  0  0  0  0  0  0  0  0  0
   10.7256  -17.0473   27.9601 O   0  0  0  0  0  0  0  0  0  0  0  0
    6.2229  -14.2358   26.6515 C   0  0  0  0  0  0  0  0  0  0  0  0
    5.6444  -12.9954   26.4681 C   0  0  0  0  0  0  0  0  0  0  0  0
   10.5758  -17.9520   25.9036 O   0  0  0  0  0  0  0  0  0  0  0  0
  2  1  1  6
  3  2  1  0
  4  3  1  0
  5  4  1  0
  5  6  2  0
  7  2  1  0
  7  8  2  0
  9  5  1  0
 10  7  1  0
 11 10  1  0
 11 12  1  6
 12 13  1  0
 13 14  2  0
 15 11  1  0
 16 15  2  0
 17 13  1  0
 18 19  1  0
 19 20  2  0
 19 29  1  0
 20 21  1  0
 21 22  2  0
 22 23  1  0
 24 23  1  1
 24 25  1  0
 25 15  1  0
 26 27  1  0
 26 24  1  0
 28 22  1  0
 29 28  2  0
 30 26  2  0
M  END
$$$$
