EDY.pdb
     RDKit          3D

 30 30  0  0  1  0  0  0  0  0999 V2000
    9.3821  -15.2849   20.5314 N   0  0  0  0  0  0  0  0  0  0  0  0
    8.0937  -15.6358   21.1125 C   0  0  1  0  0  0  0  0  0  0  0  0
    7.2302  -16.1684   19.9900 C   0  0  0  0  0  0  0  0  0  0  0  0
    6.7219  -15.0945   19.0897 C   0  0  0  0  0  0  0  0  0  0  0  0
    7.2696  -15.2932   17.7307 C   0  0  0  0  0  0  0  0  0  0  0  0
    7.8283  -14.3301   17.1562 O   0  0  0  0  0  0  0  0  0  0  0  0
    8.2203  -16.5783   22.2266 C   0  0  0  0  0  0  0  0  0  0  0  0
    7.7313  -17.7303   22.1224 O   0  0  0  0  0  0  0  0  0  0  0  0
    7.2066  -16.4914   17.0370 O   0  0  0  0  0  0  0  0  0  0  0  0
    8.8734  -16.2365   23.4147 N   0  0  0  0  0  0  0  0  0  0  0  0
    9.9427  -16.9568   24.0365 C   0  0  1  0  0  0  0  0  0  0  0  0
   11.1188  -17.1511   23.1045 C   0  0  0  0  0  0  0  0  0  0  0  0
   12.1925  -17.9718   23.6655 C   0  0  0  0  0  0  0  0  0  0  0  0
   11.9155  -19.0525   24.2344 O   0  0  0  0  0  0  0  0  0  0  0  0
   10.4433  -16.2991   25.2638 C   0  0  0  0  0  0  0  0  0  0  0  0
   11.2955  -15.3857   25.1307 O   0  0  0  0  0  0  0  0  0  0  0  0
   13.5147  -17.5810   23.5826 O   0  0  0  0  0  0  0  0  0  0  0  0
    6.7210  -11.5481   24.6932 O   0  0  0  0  0  0  0  0  0  0  0  0
    7.3307  -12.4422   25.5904 C   0  0  0  0  0  0  0  0  0  0  0  0
    8.2745  -11.9734   26.4942 C   0  0  0  0  0  0  0  0  0  0  0  0
    8.8638  -12.8800   27.3731 C   0  0  0  0  0  0  0  0  0  0  0  0
    8.5408  -14.2174   27.3723 C   0  0  0  0  0  0  0  0  0  0  0  0
    9.2032  -15.1281   28.3348 C   0  0  0  0  0  0  0  0  0  0  0  0
   10.3897  -15.8566   27.7457 C   0  0  2  0  0  0  0  0  0  0  0  0
   10.0294  -16.6265   26.5786 N   0  0  0  0  0  0  0  0  0  0  0  0
   10.9455  -16.7611   28.7651 C   0  0  0  0  0  0  0  0  0  0  0  0
   11.4299  -16.3211   29.9930 O   0  0  0  0  0  0  0  0  0  0  0  0
    7.6031  -14.6586   26.4679 C   0  0  0  0  0  0  0  0  0  0  0  0
    7.0022  -13.7836   25.5848 C   0  0  0  0  0  0  0  0  0  0  0  0
   10.9991  -17.9917   28.5460 O   0  0  0  0  0  0  0  0  0  0  0  0
  2  1  1  6
  3  2  1  0
  4  3  1  0
  5  4  1  0
  5  6  2  0
  7  2  1  0
  7  8  2  0
  9  5  1  0
 10  7  1  0
 11 10  1  0
 11 12  1  6
 12 13  1  0
 13 14  2  0
 15 11  1  0
 16 15  2  0
 17 13  1  0
 18 19  1  0
 19 20  2  0
 19 29  1  0
 20 21  1  0
 21 22  2  0
 22 23  1  0
 24 23  1  1
 24 25  1  0
 25 15  1  0
 26 27  1  0
 26 24  1  0
 28 22  1  0
 29 28  2  0
 30 26  2  0
M  END
$$$$
