EDY.pdb
     RDKit          3D

 30 30  0  0  1  0  0  0  0  0999 V2000
    8.3984  -15.4752   21.2232 N   0  0  0  0  0  0  0  0  0  0  0  0
    7.7315  -16.3100   22.2128 C   0  0  1  0  0  0  0  0  0  0  0  0
    7.0312  -17.4193   21.4589 C   0  0  0  0  0  0  0  0  0  0  0  0
    6.7485  -17.0666   20.0385 C   0  0  0  0  0  0  0  0  0  0  0  0
    5.9692  -18.1538   19.4084 C   0  0  0  0  0  0  0  0  0  0  0  0
    6.2374  -18.4873   18.2309 O   0  0  0  0  0  0  0  0  0  0  0  0
    8.6537  -16.8126   23.2338 C   0  0  0  0  0  0  0  0  0  0  0  0
    8.2313  -17.5994   24.1169 O   0  0  0  0  0  0  0  0  0  0  0  0
    4.9454  -18.8410   20.0413 O   0  0  0  0  0  0  0  0  0  0  0  0
   10.0018  -16.4431   23.2602 N   0  0  0  0  0  0  0  0  0  0  0  0
   10.9878  -16.8845   24.1993 C   0  0  1  0  0  0  0  0  0  0  0  0
   12.3934  -16.7611   23.6526 C   0  0  0  0  0  0  0  0  0  0  0  0
   13.4049  -17.4529   24.4521 C   0  0  0  0  0  0  0  0  0  0  0  0
   13.0494  -18.2801   25.3226 O   0  0  0  0  0  0  0  0  0  0  0  0
   10.9353  -16.1453   25.4800 C   0  0  0  0  0  0  0  0  0  0  0  0
   11.5069  -15.0279   25.5333 O   0  0  0  0  0  0  0  0  0  0  0  0
   14.7530  -17.2143   24.2692 O   0  0  0  0  0  0  0  0  0  0  0  0
    6.9410  -11.5292   24.7944 O   0  0  0  0  0  0  0  0  0  0  0  0
    7.4743  -12.4748   25.6876 C   0  0  0  0  0  0  0  0  0  0  0  0
    6.9202  -13.7459   25.7554 C   0  0  0  0  0  0  0  0  0  0  0  0
    7.4674  -14.6649   26.6487 C   0  0  0  0  0  0  0  0  0  0  0  0
    8.5335  -14.3525   27.4605 C   0  0  0  0  0  0  0  0  0  0  0  0
    9.0690  -15.3768   28.3870 C   0  0  0  0  0  0  0  0  0  0  0  0
   10.3900  -15.9567   27.9347 C   0  0  2  0  0  0  0  0  0  0  0  0
   10.2857  -16.6087   26.6507 N   0  0  0  0  0  0  0  0  0  0  0  0
   10.8463  -16.9352   28.9348 C   0  0  0  0  0  0  0  0  0  0  0  0
   11.0687  -18.2774   28.6430 O   0  0  0  0  0  0  0  0  0  0  0  0
    9.0656  -13.0871   27.3755 C   0  0  0  0  0  0  0  0  0  0  0  0
    8.5445  -12.1553   26.4998 C   0  0  0  0  0  0  0  0  0  0  0  0
   11.0530  -16.5730   30.1144 O   0  0  0  0  0  0  0  0  0  0  0  0
  2  1  1  6
  3  2  1  0
  4  3  1  0
  5  4  1  0
  5  6  2  0
  7  2  1  0
  7  8  2  0
  9  5  1  0
 10  7  1  0
 11 10  1  0
 11 12  1  6
 12 13  1  0
 13 14  2  0
 15 11  1  0
 16 15  2  0
 17 13  1  0
 18 19  1  0
 19 20  2  0
 19 29  1  0
 20 21  1  0
 21 22  2  0
 22 23  1  0
 24 23  1  1
 24 25  1  0
 25 15  1  0
 26 27  1  0
 26 24  1  0
 28 22  1  0
 29 28  2  0
 30 26  2  0
M  END
$$$$
