EDY.pdb
     RDKit          3D

 30 30  0  0  1  0  0  0  0  0999 V2000
    7.9259  -19.2841   21.6331 N   0  0  0  0  0  0  0  0  0  0  0  0
    9.2102  -19.9265   21.8753 C   0  0  1  0  0  0  0  0  0  0  0  0
    9.6529  -20.5424   20.5661 C   0  0  0  0  0  0  0  0  0  0  0  0
    8.5284  -21.1572   19.8048 C   0  0  0  0  0  0  0  0  0  0  0  0
    9.0621  -21.8399   18.6067 C   0  0  0  0  0  0  0  0  0  0  0  0
    9.9416  -22.7202   18.7526 O   0  0  0  0  0  0  0  0  0  0  0  0
   10.2017  -19.0031   22.4317 C   0  0  0  0  0  0  0  0  0  0  0  0
   11.2751  -19.4556   22.9011 O   0  0  0  0  0  0  0  0  0  0  0  0
    8.6496  -21.5686   17.3117 O   0  0  0  0  0  0  0  0  0  0  0  0
    9.9928  -17.6210   22.4590 N   0  0  0  0  0  0  0  0  0  0  0  0
   10.8609  -16.6395   23.0354 C   0  0  1  0  0  0  0  0  0  0  0  0
   10.7843  -15.3131   22.3113 C   0  0  0  0  0  0  0  0  0  0  0  0
   11.1881  -15.3788   20.9064 C   0  0  0  0  0  0  0  0  0  0  0  0
   10.3881  -15.0183   20.0128 O   0  0  0  0  0  0  0  0  0  0  0  0
   10.5781  -16.3895   24.4661 C   0  0  0  0  0  0  0  0  0  0  0  0
   11.2758  -15.5283   25.0575 O   0  0  0  0  0  0  0  0  0  0  0  0
   12.4398  -15.8321   20.5383 O   0  0  0  0  0  0  0  0  0  0  0  0
    6.2986  -11.3140   25.3286 O   0  0  0  0  0  0  0  0  0  0  0  0
    6.6844  -12.6099   25.7130 C   0  0  0  0  0  0  0  0  0  0  0  0
    7.6526  -12.7770   26.6939 C   0  0  0  0  0  0  0  0  0  0  0  0
    8.0170  -14.0720   27.0571 C   0  0  0  0  0  0  0  0  0  0  0  0
    7.4500  -15.1832   26.4767 C   0  0  0  0  0  0  0  0  0  0  0  0
    7.8812  -16.5324   26.9103 C   0  0  0  0  0  0  0  0  0  0  0  0
    9.3380  -16.8140   26.6204 C   0  0  2  0  0  0  0  0  0  0  0  0
    9.5760  -17.0529   25.2164 N   0  0  0  0  0  0  0  0  0  0  0  0
    9.7542  -17.9995   27.3868 C   0  0  0  0  0  0  0  0  0  0  0  0
   10.1355  -19.1979   26.7914 O   0  0  0  0  0  0  0  0  0  0  0  0
    6.4930  -14.9927   25.5073 C   0  0  0  0  0  0  0  0  0  0  0  0
    6.1115  -13.7213   25.1267 C   0  0  0  0  0  0  0  0  0  0  0  0
    9.7763  -17.9591   28.6371 O   0  0  0  0  0  0  0  0  0  0  0  0
  2  1  1  6
  3  2  1  0
  4  3  1  0
  5  4  1  0
  5  6  2  0
  7  2  1  0
  7  8  2  0
  9  5  1  0
 10  7  1  0
 11 10  1  0
 11 12  1  6
 12 13  1  0
 13 14  2  0
 15 11  1  0
 16 15  2  0
 17 13  1  0
 18 19  1  0
 19 20  2  0
 19 29  1  0
 20 21  1  0
 21 22  2  0
 22 23  1  0
 24 23  1  6
 24 25  1  0
 25 15  1  0
 26 27  1  0
 26 24  1  0
 28 22  1  0
 29 28  2  0
 30 26  2  0
M  END
$$$$
