EDY.pdb
     RDKit          3D

 30 30  0  0  1  0  0  0  0  0999 V2000
    7.6548  -20.1166   24.0606 N   0  0  0  0  0  0  0  0  0  0  0  0
    8.7259  -20.7471   23.3017 C   0  0  1  0  0  0  0  0  0  0  0  0
    8.1232  -21.9363   22.5862 C   0  0  0  0  0  0  0  0  0  0  0  0
    7.0261  -21.5559   21.6517 C   0  0  0  0  0  0  0  0  0  0  0  0
    6.5054  -22.7692   20.9860 C   0  0  0  0  0  0  0  0  0  0  0  0
    5.5781  -22.6516   20.1517 O   0  0  0  0  0  0  0  0  0  0  0  0
    9.3901  -19.8133   22.3894 C   0  0  0  0  0  0  0  0  0  0  0  0
   10.5578  -20.0560   21.9961 O   0  0  0  0  0  0  0  0  0  0  0  0
    6.9806  -24.0490   21.2251 O   0  0  0  0  0  0  0  0  0  0  0  0
    8.7630  -18.6486   21.9364 N   0  0  0  0  0  0  0  0  0  0  0  0
    9.3704  -17.5899   21.1886 C   0  0  1  0  0  0  0  0  0  0  0  0
    8.3956  -16.9293   20.2383 C   0  0  0  0  0  0  0  0  0  0  0  0
    9.0109  -15.9507   19.3412 C   0  0  0  0  0  0  0  0  0  0  0  0
   10.2574  -15.8325   19.3120 O   0  0  0  0  0  0  0  0  0  0  0  0
    9.9471  -16.5337   22.0497 C   0  0  0  0  0  0  0  0  0  0  0  0
   10.4157  -15.5128   21.4872 O   0  0  0  0  0  0  0  0  0  0  0  0
    8.2450  -15.1474   18.5191 O   0  0  0  0  0  0  0  0  0  0  0  0
    6.5685  -10.6430   27.2152 O   0  0  0  0  0  0  0  0  0  0  0  0
    6.9695  -11.7285   26.4170 C   0  0  0  0  0  0  0  0  0  0  0  0
    7.1380  -12.9804   26.9927 C   0  0  0  0  0  0  0  0  0  0  0  0
    7.5357  -14.0400   26.1797 C   0  0  0  0  0  0  0  0  0  0  0  0
    7.7650  -13.8840   24.8321 C   0  0  0  0  0  0  0  0  0  0  0  0
    8.1840  -15.0524   24.0237 C   0  0  0  0  0  0  0  0  0  0  0  0
    9.5913  -15.5135   24.3281 C   0  0  2  0  0  0  0  0  0  0  0  0
   10.0082  -16.5924   23.4639 N   0  0  0  0  0  0  0  0  0  0  0  0
    9.6499  -15.9680   25.7267 C   0  0  0  0  0  0  0  0  0  0  0  0
    9.9300  -15.1199   26.7936 O   0  0  0  0  0  0  0  0  0  0  0  0
    7.5915  -12.6343   24.2842 C   0  0  0  0  0  0  0  0  0  0  0  0
    7.1980  -11.5655   25.0648 C   0  0  0  0  0  0  0  0  0  0  0  0
    9.4426  -17.1708   26.0019 O   0  0  0  0  0  0  0  0  0  0  0  0
  2  1  1  6
  3  2  1  0
  4  3  1  0
  5  4  1  0
  5  6  2  0
  7  2  1  0
  7  8  2  0
  9  5  1  0
 10  7  1  0
 11 10  1  0
 11 12  1  6
 12 13  1  0
 13 14  2  0
 15 11  1  0
 16 15  2  0
 17 13  1  0
 18 19  1  0
 19 20  2  0
 19 29  1  0
 20 21  1  0
 21 22  2  0
 22 23  1  0
 24 23  1  6
 24 25  1  0
 25 15  1  0
 26 27  1  0
 26 24  1  0
 28 22  1  0
 29 28  2  0
 30 26  2  0
M  END
$$$$
