SFF.pdb
     RDKit          3D

 29 30  0  0  1  0  0  0  0  0999 V2000
    7.5748  -18.9693   23.2632 O   0  0  0  0  0  0  0  0  0  0  0  0
    6.9915  -19.3933   22.0738 C   0  0  0  0  0  0  0  0  0  0  0  0
    7.3792  -18.4704   20.9358 C   0  0  2  0  0  0  0  0  0  0  0  0
    7.8345  -19.2674   19.8227 N   0  0  0  0  0  0  0  0  0  0  0  0
    8.4270  -17.5405   21.4430 C   0  0  0  0  0  0  0  0  0  0  0  0
    9.6084  -17.8498   21.2568 O   0  0  0  0  0  0  0  0  0  0  0  0
    8.0911  -16.3374   22.1190 N   0  0  0  0  0  0  0  0  0  0  0  0
    9.0327  -15.3944   22.5989 C   0  0  1  0  0  0  0  0  0  0  0  0
    8.5932  -13.9294   22.4884 C   0  0  0  0  0  0  0  0  0  0  0  0
    8.0071  -13.6328   21.1584 C   0  0  0  0  0  0  0  0  0  0  0  0
    6.6987  -13.8472   20.8136 C   0  0  0  0  0  0  0  0  0  0  0  0
    6.2125  -13.5553   19.5297 C   0  0  0  0  0  0  0  0  0  0  0  0
    7.0381  -13.0375   18.5592 C   0  0  0  0  0  0  0  0  0  0  0  0
    8.3562  -12.8154   18.8897 C   0  0  0  0  0  0  0  0  0  0  0  0
    8.8286  -13.1024   20.1468 C   0  0  0  0  0  0  0  0  0  0  0  0
    9.5332  -15.6262   23.9701 C   0  0  0  0  0  0  0  0  0  0  0  0
   10.5927  -15.0950   24.3929 O   0  0  0  0  0  0  0  0  0  0  0  0
    8.8531  -16.4646   24.9053 N   0  0  0  0  0  0  0  0  0  0  0  0
    9.2507  -16.5816   26.2998 C   0  0  1  0  0  0  0  0  0  0  0  0
    8.0485  -16.1556   27.1071 C   0  0  0  0  0  0  0  0  0  0  0  0
    7.6340  -14.7658   26.9050 C   0  0  0  0  0  0  0  0  0  0  0  0
    6.3858  -14.4450   26.3644 C   0  0  0  0  0  0  0  0  0  0  0  0
    6.0558  -13.1093   26.2075 C   0  0  0  0  0  0  0  0  0  0  0  0
    6.9104  -12.0893   26.5635 C   0  0  0  0  0  0  0  0  0  0  0  0
    8.1404  -12.4146   27.0961 C   0  0  0  0  0  0  0  0  0  0  0  0
    8.4944  -13.7399   27.2633 C   0  0  0  0  0  0  0  0  0  0  0  0
    9.5867  -17.9767   26.6574 C   0  0  0  0  0  0  0  0  0  0  0  0
    9.4280  -18.9509   25.6510 O   0  0  0  0  0  0  0  0  0  0  0  0
    9.9944  -18.3253   27.7806 O   0  0  0  0  0  0  0  0  0  0  0  0
  2  3  1  0
  2  1  1  0
  3  4  1  6
  5  6  2  0
  5  3  1  0
  7  5  1  0
  8  7  1  0
  8  9  1  1
 10 15  1  0
 10  9  1  0
 11 10  2  0
 12 13  2  0
 12 11  1  0
 13 14  1  0
 14 15  2  0
 16  8  1  0
 17 16  2  0
 18 16  1  0
 19 20  1  1
 19 18  1  0
 21 22  2  0
 21 20  1  0
 23 22  1  0
 24 23  2  0
 25 24  1  0
 25 26  2  0
 26 21  1  0
 27 19  1  0
 28 27  1  0
 29 27  2  0
M  END
$$$$
