SFF.pdb
     RDKit          3D

 29 30  0  0  1  0  0  0  0  0999 V2000
   12.8034  -19.1587   21.1719 O   0  0  0  0  0  0  0  0  0  0  0  0
   11.6112  -19.2062   20.4569 C   0  0  0  0  0  0  0  0  0  0  0  0
   11.2737  -17.8378   19.8994 C   0  0  2  0  0  0  0  0  0  0  0  0
   12.3716  -17.3834   19.0810 N   0  0  0  0  0  0  0  0  0  0  0  0
   11.0032  -16.9328   21.0516 C   0  0  0  0  0  0  0  0  0  0  0  0
   11.9129  -16.1815   21.4178 O   0  0  0  0  0  0  0  0  0  0  0  0
    9.7468  -16.9255   21.7139 N   0  0  0  0  0  0  0  0  0  0  0  0
    9.4061  -16.0616   22.7834 C   0  0  1  0  0  0  0  0  0  0  0  0
    7.9276  -15.6592   22.8425 C   0  0  0  0  0  0  0  0  0  0  0  0
    7.5932  -14.6507   21.8074 C   0  0  0  0  0  0  0  0  0  0  0  0
    6.9413  -14.9202   20.6330 C   0  0  0  0  0  0  0  0  0  0  0  0
    6.6678  -13.9178   19.6894 C   0  0  0  0  0  0  0  0  0  0  0  0
    7.0467  -12.6140   19.9093 C   0  0  0  0  0  0  0  0  0  0  0  0
    7.7026  -12.3261   21.0852 C   0  0  0  0  0  0  0  0  0  0  0  0
    7.9688  -13.3094   22.0061 C   0  0  0  0  0  0  0  0  0  0  0  0
    9.8185  -16.5114   24.1296 C   0  0  0  0  0  0  0  0  0  0  0  0
    9.9515  -17.7297   24.4149 O   0  0  0  0  0  0  0  0  0  0  0  0
   10.0931  -15.5996   25.1941 N   0  0  0  0  0  0  0  0  0  0  0  0
   10.5564  -16.0282   26.5049 C   0  0  1  0  0  0  0  0  0  0  0  0
   10.7610  -14.7630   27.3025 C   0  0  0  0  0  0  0  0  0  0  0  0
    9.5819  -13.9002   27.3988 C   0  0  0  0  0  0  0  0  0  0  0  0
    9.2706  -13.2142   28.5760 C   0  0  0  0  0  0  0  0  0  0  0  0
    8.1439  -12.4092   28.5949 C   0  0  0  0  0  0  0  0  0  0  0  0
    7.3219  -12.2611   27.4995 C   0  0  0  0  0  0  0  0  0  0  0  0
    7.6362  -12.9419   26.3418 C   0  0  0  0  0  0  0  0  0  0  0  0
    8.7551  -13.7516   26.2963 C   0  0  0  0  0  0  0  0  0  0  0  0
    9.5486  -16.8615   27.1956 C   0  0  0  0  0  0  0  0  0  0  0  0
    9.9556  -17.5060   28.3813 O   0  0  0  0  0  0  0  0  0  0  0  0
    8.3827  -17.0182   26.7891 O   0  0  0  0  0  0  0  0  0  0  0  0
  2  3  1  0
  2  1  1  0
  3  4  1  1
  5  6  2  0
  5  3  1  0
  7  5  1  0
  8  7  1  0
  8  9  1  1
 10 15  1  0
 10  9  1  0
 11 10  2  0
 12 13  2  0
 12 11  1  0
 13 14  1  0
 14 15  2  0
 16  8  1  0
 17 16  2  0
 18 16  1  0
 19 20  1  1
 19 18  1  0
 21 22  2  0
 21 20  1  0
 23 22  1  0
 24 23  2  0
 25 24  1  0
 25 26  2  0
 26 21  1  0
 27 19  1  0
 28 27  1  0
 29 27  2  0
M  END
$$$$
