SFF.pdb
     RDKit          3D

 29 30  0  0  1  0  0  0  0  0999 V2000
   11.7158  -18.8480   21.0760 O   0  0  0  0  0  0  0  0  0  0  0  0
   11.2721  -17.9689   20.0937 C   0  0  0  0  0  0  0  0  0  0  0  0
   11.6908  -16.5504   20.4248 C   0  0  2  0  0  0  0  0  0  0  0  0
   13.1319  -16.4819   20.4456 N   0  0  0  0  0  0  0  0  0  0  0  0
   11.0797  -16.1914   21.7353 C   0  0  0  0  0  0  0  0  0  0  0  0
   11.8318  -16.0833   22.7094 O   0  0  0  0  0  0  0  0  0  0  0  0
    9.6822  -15.9786   21.8721 N   0  0  0  0  0  0  0  0  0  0  0  0
    9.0339  -15.6471   23.0869 C   0  0  1  0  0  0  0  0  0  0  0  0
    7.6367  -15.0357   22.9274 C   0  0  0  0  0  0  0  0  0  0  0  0
    7.2198  -14.2982   24.1451 C   0  0  0  0  0  0  0  0  0  0  0  0
    7.5950  -13.0167   24.4515 C   0  0  0  0  0  0  0  0  0  0  0  0
    7.1734  -12.3822   25.6304 C   0  0  0  0  0  0  0  0  0  0  0  0
    6.3595  -13.0280   26.5316 C   0  0  0  0  0  0  0  0  0  0  0  0
    5.9729  -14.3165   26.2384 C   0  0  0  0  0  0  0  0  0  0  0  0
    6.3874  -14.9344   25.0842 C   0  0  0  0  0  0  0  0  0  0  0  0
    8.9544  -16.7301   24.0897 C   0  0  0  0  0  0  0  0  0  0  0  0
    8.7925  -17.9339   23.7609 O   0  0  0  0  0  0  0  0  0  0  0  0
    9.0553  -16.4869   25.4935 N   0  0  0  0  0  0  0  0  0  0  0  0
    9.1607  -17.5537   26.4770 C   0  0  1  0  0  0  0  0  0  0  0  0
    9.0399  -16.8840   27.8244 C   0  0  0  0  0  0  0  0  0  0  0  0
    9.7890  -15.6330   27.9579 C   0  0  0  0  0  0  0  0  0  0  0  0
    9.1463  -14.3920   27.9680 C   0  0  0  0  0  0  0  0  0  0  0  0
    9.9159  -13.2490   28.1050 C   0  0  0  0  0  0  0  0  0  0  0  0
   11.2871  -13.2909   28.2310 C   0  0  0  0  0  0  0  0  0  0  0  0
   11.9134  -14.5197   28.2198 C   0  0  0  0  0  0  0  0  0  0  0  0
   11.1686  -15.6758   28.0845 C   0  0  0  0  0  0  0  0  0  0  0  0
    8.0628  -18.5348   26.3394 C   0  0  0  0  0  0  0  0  0  0  0  0
    7.0711  -18.2543   25.3776 O   0  0  0  0  0  0  0  0  0  0  0  0
    7.9735  -19.5747   27.0176 O   0  0  0  0  0  0  0  0  0  0  0  0
  2  3  1  0
  2  1  1  0
  3  4  1  1
  5  6  2  0
  5  3  1  0
  7  5  1  0
  8  7  1  0
  8  9  1  6
 10 15  1  0
 10  9  1  0
 11 10  2  0
 12 13  2  0
 12 11  1  0
 13 14  1  0
 14 15  2  0
 16  8  1  0
 17 16  2  0
 18 16  1  0
 19 20  1  1
 19 18  1  0
 21 22  2  0
 21 20  1  0
 23 22  1  0
 24 23  2  0
 25 24  1  0
 25 26  2  0
 26 21  1  0
 27 19  1  0
 28 27  1  0
 29 27  2  0
M  END
$$$$
