SFF.pdb
     RDKit          3D

 29 30  0  0  1  0  0  0  0  0999 V2000
    7.8969  -19.4061   24.2686 O   0  0  0  0  0  0  0  0  0  0  0  0
    6.7612  -19.2948   23.4733 C   0  0  0  0  0  0  0  0  0  0  0  0
    7.1102  -18.6716   22.1366 C   0  0  2  0  0  0  0  0  0  0  0  0
    7.5378  -19.7126   21.2337 N   0  0  0  0  0  0  0  0  0  0  0  0
    8.1668  -17.6486   22.3753 C   0  0  0  0  0  0  0  0  0  0  0  0
    9.3096  -17.8997   21.9789 O   0  0  0  0  0  0  0  0  0  0  0  0
    7.8818  -16.4235   23.0348 N   0  0  0  0  0  0  0  0  0  0  0  0
    8.8302  -15.3992   23.2747 C   0  0  1  0  0  0  0  0  0  0  0  0
    8.2891  -13.9716   23.1315 C   0  0  0  0  0  0  0  0  0  0  0  0
    7.8654  -13.6841   21.7392 C   0  0  0  0  0  0  0  0  0  0  0  0
    6.6090  -13.9075   21.2410 C   0  0  0  0  0  0  0  0  0  0  0  0
    6.2790  -13.6240   19.9065 C   0  0  0  0  0  0  0  0  0  0  0  0
    7.2126  -13.1058   19.0395 C   0  0  0  0  0  0  0  0  0  0  0  0
    8.4803  -12.8749   19.5247 C   0  0  0  0  0  0  0  0  0  0  0  0
    8.7998  -13.1537   20.8308 C   0  0  0  0  0  0  0  0  0  0  0  0
    9.5654  -15.4904   24.5537 C   0  0  0  0  0  0  0  0  0  0  0  0
   10.2518  -14.5343   24.9989 O   0  0  0  0  0  0  0  0  0  0  0  0
    9.5480  -16.6633   25.3685 N   0  0  0  0  0  0  0  0  0  0  0  0
   10.1627  -16.7222   26.6858 C   0  0  1  0  0  0  0  0  0  0  0  0
    9.0852  -16.3136   27.6608 C   0  0  0  0  0  0  0  0  0  0  0  0
    8.5745  -14.9536   27.4774 C   0  0  0  0  0  0  0  0  0  0  0  0
    9.2437  -13.8433   27.9998 C   0  0  0  0  0  0  0  0  0  0  0  0
    8.7082  -12.5849   27.7824 C   0  0  0  0  0  0  0  0  0  0  0  0
    7.5439  -12.3888   27.0727 C   0  0  0  0  0  0  0  0  0  0  0  0
    6.8897  -13.4899   26.5609 C   0  0  0  0  0  0  0  0  0  0  0  0
    7.4029  -14.7568   26.7634 C   0  0  0  0  0  0  0  0  0  0  0  0
   10.6055  -18.0927   27.0217 C   0  0  0  0  0  0  0  0  0  0  0  0
   11.2351  -18.2734   28.2700 O   0  0  0  0  0  0  0  0  0  0  0  0
   10.4526  -19.0739   26.2714 O   0  0  0  0  0  0  0  0  0  0  0  0
  2  3  1  0
  2  1  1  0
  3  4  1  6
  5  6  2  0
  5  3  1  0
  7  5  1  0
  8  7  1  0
  8  9  1  1
 10 15  1  0
 10  9  1  0
 11 10  2  0
 12 13  2  0
 12 11  1  0
 13 14  1  0
 14 15  2  0
 16  8  1  0
 17 16  2  0
 18 16  1  0
 19 20  1  1
 19 18  1  0
 21 22  2  0
 21 20  1  0
 23 22  1  0
 24 23  2  0
 25 24  1  0
 25 26  2  0
 26 21  1  0
 27 19  1  0
 28 27  1  0
 29 27  2  0
M  END
$$$$
