SFF.pdb
     RDKit          3D

 29 30  0  0  1  0  0  0  0  0999 V2000
    9.7815  -18.9324   20.4568 O   0  0  0  0  0  0  0  0  0  0  0  0
    9.0385  -17.9974   19.7439 C   0  0  0  0  0  0  0  0  0  0  0  0
    9.7668  -16.6692   19.6944 C   0  0  2  0  0  0  0  0  0  0  0  0
   11.0980  -16.8855   19.1817 N   0  0  0  0  0  0  0  0  0  0  0  0
    9.7671  -16.1006   21.0716 C   0  0  0  0  0  0  0  0  0  0  0  0
   10.7464  -16.3320   21.7883 O   0  0  0  0  0  0  0  0  0  0  0  0
    8.6845  -15.3185   21.5546 N   0  0  0  0  0  0  0  0  0  0  0  0
    8.4572  -15.0150   22.9193 C   0  0  1  0  0  0  0  0  0  0  0  0
    7.1220  -14.3203   23.2126 C   0  0  0  0  0  0  0  0  0  0  0  0
    7.1013  -13.7259   24.5716 C   0  0  0  0  0  0  0  0  0  0  0  0
    8.1053  -13.8490   25.4956 C   0  0  0  0  0  0  0  0  0  0  0  0
    8.0144  -13.2704   26.7711 C   0  0  0  0  0  0  0  0  0  0  0  0
    6.9041  -12.5504   27.1462 C   0  0  0  0  0  0  0  0  0  0  0  0
    5.8861  -12.4168   26.2288 C   0  0  0  0  0  0  0  0  0  0  0  0
    5.9782  -12.9845   24.9818 C   0  0  0  0  0  0  0  0  0  0  0  0
    8.6106  -16.1422   23.8629 C   0  0  0  0  0  0  0  0  0  0  0  0
    7.9449  -17.2039   23.7486 O   0  0  0  0  0  0  0  0  0  0  0  0
    9.5198  -16.1050   24.9637 N   0  0  0  0  0  0  0  0  0  0  0  0
    9.8980  -17.2892   25.7195 C   0  0  1  0  0  0  0  0  0  0  0  0
   11.1321  -16.9031   26.4981 C   0  0  0  0  0  0  0  0  0  0  0  0
   10.9179  -15.8754   27.5189 C   0  0  0  0  0  0  0  0  0  0  0  0
   10.9816  -14.5134   27.2117 C   0  0  0  0  0  0  0  0  0  0  0  0
   10.7614  -13.5953   28.2246 C   0  0  0  0  0  0  0  0  0  0  0  0
   10.4832  -13.9745   29.5194 C   0  0  0  0  0  0  0  0  0  0  0  0
   10.4225  -15.3206   29.8141 C   0  0  0  0  0  0  0  0  0  0  0  0
   10.6381  -16.2575   28.8216 C   0  0  0  0  0  0  0  0  0  0  0  0
    8.8433  -17.6868   26.6769 C   0  0  0  0  0  0  0  0  0  0  0  0
    9.0795  -18.8459   27.4437 O   0  0  0  0  0  0  0  0  0  0  0  0
    7.7793  -17.0608   26.8353 O   0  0  0  0  0  0  0  0  0  0  0  0
  2  3  1  0
  2  1  1  0
  3  4  1  1
  5  6  2  0
  5  3  1  0
  7  5  1  0
  8  7  1  0
  8  9  1  6
 10 15  1  0
 10  9  1  0
 11 10  2  0
 12 13  2  0
 12 11  1  0
 13 14  1  0
 14 15  2  0
 16  8  1  0
 17 16  2  0
 18 16  1  0
 19 20  1  1
 19 18  1  0
 21 22  2  0
 21 20  1  0
 23 22  1  0
 24 23  2  0
 25 24  1  0
 25 26  2  0
 26 21  1  0
 27 19  1  0
 28 27  1  0
 29 27  2  0
M  END
$$$$
