SFF.pdb
     RDKit          3D

 29 30  0  0  1  0  0  0  0  0999 V2000
    6.8909  -19.8731   21.7375 O   0  0  0  0  0  0  0  0  0  0  0  0
    5.7768  -19.9874   22.5622 C   0  0  0  0  0  0  0  0  0  0  0  0
    4.8542  -18.7999   22.3730 C   0  0  2  0  0  0  0  0  0  0  0  0
    4.4603  -18.7310   20.9867 N   0  0  0  0  0  0  0  0  0  0  0  0
    5.5846  -17.5819   22.8238 C   0  0  0  0  0  0  0  0  0  0  0  0
    5.9970  -16.8054   21.9560 O   0  0  0  0  0  0  0  0  0  0  0  0
    5.8052  -17.3128   24.2007 N   0  0  0  0  0  0  0  0  0  0  0  0
    6.6423  -16.2827   24.6951 C   0  0  1  0  0  0  0  0  0  0  0  0
    6.5091  -16.0078   26.1978 C   0  0  0  0  0  0  0  0  0  0  0  0
    6.8048  -14.5910   26.5231 C   0  0  0  0  0  0  0  0  0  0  0  0
    6.3614  -13.9352   27.6412 C   0  0  0  0  0  0  0  0  0  0  0  0
    6.6684  -12.5867   27.8808 C   0  0  0  0  0  0  0  0  0  0  0  0
    7.4337  -11.8650   26.9948 C   0  0  0  0  0  0  0  0  0  0  0  0
    7.8878  -12.5096   25.8660 C   0  0  0  0  0  0  0  0  0  0  0  0
    7.5853  -13.8289   25.6345 C   0  0  0  0  0  0  0  0  0  0  0  0
    8.0790  -16.4115   24.3727 C   0  0  0  0  0  0  0  0  0  0  0  0
    8.7200  -17.4720   24.5916 O   0  0  0  0  0  0  0  0  0  0  0  0
    8.8353  -15.3472   23.7937 N   0  0  0  0  0  0  0  0  0  0  0  0
   10.1373  -15.5453   23.1756 C   0  0  1  0  0  0  0  0  0  0  0  0
   10.2713  -14.4543   22.1410 C   0  0  0  0  0  0  0  0  0  0  0  0
    9.1635  -14.3730   21.1870 C   0  0  0  0  0  0  0  0  0  0  0  0
    8.2316  -13.3325   21.2338 C   0  0  0  0  0  0  0  0  0  0  0  0
    7.2129  -13.3134   20.2959 C   0  0  0  0  0  0  0  0  0  0  0  0
    7.0854  -14.2796   19.3224 C   0  0  0  0  0  0  0  0  0  0  0  0
    8.0091  -15.3031   19.2835 C   0  0  0  0  0  0  0  0  0  0  0  0
    9.0355  -15.3455   20.2077 C   0  0  0  0  0  0  0  0  0  0  0  0
   11.2355  -15.4014   24.1555 C   0  0  0  0  0  0  0  0  0  0  0  0
   10.8696  -15.1656   25.4962 O   0  0  0  0  0  0  0  0  0  0  0  0
   12.4423  -15.4769   23.8600 O   0  0  0  0  0  0  0  0  0  0  0  0
  2  3  1  0
  2  1  1  0
  3  4  1  6
  5  6  2  0
  5  3  1  0
  7  5  1  0
  8  7  1  0
  8  9  1  1
 10 15  1  0
 10  9  1  0
 11 10  2  0
 12 13  2  0
 12 11  1  0
 13 14  1  0
 14 15  2  0
 16  8  1  0
 17 16  2  0
 18 16  1  0
 19 20  1  6
 19 18  1  0
 21 22  2  0
 21 20  1  0
 23 22  1  0
 24 23  2  0
 25 24  1  0
 25 26  2  0
 26 21  1  0
 27 19  1  0
 28 27  1  0
 29 27  2  0
M  END
$$$$
