SFF.pdb
     RDKit          3D

 29 30  0  0  1  0  0  0  0  0999 V2000
    7.9462  -19.8363   25.1500 O   0  0  0  0  0  0  0  0  0  0  0  0
    8.4153  -20.7643   24.2263 C   0  0  0  0  0  0  0  0  0  0  0  0
    7.9248  -20.4197   22.8342 C   0  0  2  0  0  0  0  0  0  0  0  0
    8.4390  -21.3949   21.9034 N   0  0  0  0  0  0  0  0  0  0  0  0
    8.3779  -19.0347   22.5237 C   0  0  0  0  0  0  0  0  0  0  0  0
    9.5571  -18.8771   22.1909 O   0  0  0  0  0  0  0  0  0  0  0  0
    7.4936  -17.9262   22.6044 N   0  0  0  0  0  0  0  0  0  0  0  0
    7.8747  -16.5768   22.4047 C   0  0  1  0  0  0  0  0  0  0  0  0
    6.7094  -15.5965   22.2245 C   0  0  0  0  0  0  0  0  0  0  0  0
    7.1369  -14.3611   21.5235 C   0  0  0  0  0  0  0  0  0  0  0  0
    7.4444  -13.1771   22.1404 C   0  0  0  0  0  0  0  0  0  0  0  0
    7.8303  -12.0403   21.4133 C   0  0  0  0  0  0  0  0  0  0  0  0
    7.9160  -12.0711   20.0410 C   0  0  0  0  0  0  0  0  0  0  0  0
    7.6107  -13.2538   19.4054 C   0  0  0  0  0  0  0  0  0  0  0  0
    7.2333  -14.3641   20.1199 C   0  0  0  0  0  0  0  0  0  0  0  0
    8.8021  -16.0151   23.4092 C   0  0  0  0  0  0  0  0  0  0  0  0
    9.7800  -15.2927   23.0849 O   0  0  0  0  0  0  0  0  0  0  0  0
    8.6536  -16.2520   24.8098 N   0  0  0  0  0  0  0  0  0  0  0  0
    9.6502  -15.8518   25.7912 C   0  0  1  0  0  0  0  0  0  0  0  0
    8.8737  -15.3595   26.9884 C   0  0  0  0  0  0  0  0  0  0  0  0
    8.0964  -14.1402   26.7573 C   0  0  0  0  0  0  0  0  0  0  0  0
    8.6784  -12.8727   26.8471 C   0  0  0  0  0  0  0  0  0  0  0  0
    7.8862  -11.7622   26.6090 C   0  0  0  0  0  0  0  0  0  0  0  0
    6.5501  -11.8614   26.2883 C   0  0  0  0  0  0  0  0  0  0  0  0
    5.9837  -13.1160   26.2020 C   0  0  0  0  0  0  0  0  0  0  0  0
    6.7522  -14.2407   26.4348 C   0  0  0  0  0  0  0  0  0  0  0  0
   10.4912  -16.9928   26.2131 C   0  0  0  0  0  0  0  0  0  0  0  0
   10.2276  -18.2392   25.6098 O   0  0  0  0  0  0  0  0  0  0  0  0
   11.4016  -16.9077   27.0576 O   0  0  0  0  0  0  0  0  0  0  0  0
  2  3  1  0
  2  1  1  0
  3  4  1  6
  5  6  2  0
  5  3  1  0
  7  5  1  0
  8  7  1  0
  8  9  1  1
 10 15  1  0
 10  9  1  0
 11 10  2  0
 12 13  2  0
 12 11  1  0
 13 14  1  0
 14 15  2  0
 16  8  1  0
 17 16  2  0
 18 16  1  0
 19 20  1  1
 19 18  1  0
 21 22  2  0
 21 20  1  0
 23 22  1  0
 24 23  2  0
 25 24  1  0
 25 26  2  0
 26 21  1  0
 27 19  1  0
 28 27  1  0
 29 27  2  0
M  END
$$$$
