SFF.pdb
     RDKit          3D

 29 30  0  0  1  0  0  0  0  0999 V2000
    9.4618  -19.6231   20.5133 O   0  0  0  0  0  0  0  0  0  0  0  0
   10.2546  -18.9420   19.5955 C   0  0  0  0  0  0  0  0  0  0  0  0
    9.7226  -17.5402   19.3743 C   0  0  2  0  0  0  0  0  0  0  0  0
   10.5534  -16.8738   18.4010 N   0  0  0  0  0  0  0  0  0  0  0  0
    9.7126  -16.8458   20.6925 C   0  0  0  0  0  0  0  0  0  0  0  0
   10.7810  -16.3842   21.1068 O   0  0  0  0  0  0  0  0  0  0  0  0
    8.5220  -16.7133   21.4554 N   0  0  0  0  0  0  0  0  0  0  0  0
    8.4469  -16.0990   22.7294 C   0  0  1  0  0  0  0  0  0  0  0  0
    7.0352  -15.6908   23.1674 C   0  0  0  0  0  0  0  0  0  0  0  0
    7.0697  -14.6799   24.2524 C   0  0  0  0  0  0  0  0  0  0  0  0
    7.7204  -13.4764   24.1812 C   0  0  0  0  0  0  0  0  0  0  0  0
    7.7232  -12.5702   25.2530 C   0  0  0  0  0  0  0  0  0  0  0  0
    7.0665  -12.8574   26.4268 C   0  0  0  0  0  0  0  0  0  0  0  0
    6.4070  -14.0630   26.5145 C   0  0  0  0  0  0  0  0  0  0  0  0
    6.4065  -14.9474   25.4641 C   0  0  0  0  0  0  0  0  0  0  0  0
    9.0804  -16.8413   23.8395 C   0  0  0  0  0  0  0  0  0  0  0  0
    8.8196  -18.0508   24.0685 O   0  0  0  0  0  0  0  0  0  0  0  0
   10.0270  -16.2407   24.7244 N   0  0  0  0  0  0  0  0  0  0  0  0
   10.7800  -16.9984   25.7121 C   0  0  1  0  0  0  0  0  0  0  0  0
   11.6077  -15.9847   26.4642 C   0  0  0  0  0  0  0  0  0  0  0  0
   10.8630  -15.1855   27.4393 C   0  0  0  0  0  0  0  0  0  0  0  0
   10.8161  -15.5369   28.7912 C   0  0  0  0  0  0  0  0  0  0  0  0
   10.0987  -14.7317   29.6600 C   0  0  0  0  0  0  0  0  0  0  0  0
    9.4320  -13.6013   29.2412 C   0  0  0  0  0  0  0  0  0  0  0  0
    9.4833  -13.2619   27.9054 C   0  0  0  0  0  0  0  0  0  0  0  0
   10.1922  -14.0483   27.0174 C   0  0  0  0  0  0  0  0  0  0  0  0
    9.8879  -17.6828   26.6727 C   0  0  0  0  0  0  0  0  0  0  0  0
   10.4856  -18.6055   27.5550 O   0  0  0  0  0  0  0  0  0  0  0  0
    8.6604  -17.4878   26.7385 O   0  0  0  0  0  0  0  0  0  0  0  0
  2  3  1  0
  2  1  1  0
  3  4  1  6
  5  6  2  0
  5  3  1  0
  7  5  1  0
  8  7  1  0
  8  9  1  1
 10 15  1  0
 10  9  1  0
 11 10  2  0
 12 13  2  0
 12 11  1  0
 13 14  1  0
 14 15  2  0
 16  8  1  0
 17 16  2  0
 18 16  1  0
 19 20  1  1
 19 18  1  0
 21 22  2  0
 21 20  1  0
 23 22  1  0
 24 23  2  0
 25 24  1  0
 25 26  2  0
 26 21  1  0
 27 19  1  0
 28 27  1  0
 29 27  2  0
M  END
$$$$
