SFF.pdb
     RDKit          3D

 29 30  0  0  1  0  0  0  0  0999 V2000
    7.0246  -20.5001   25.2225 O   0  0  0  0  0  0  0  0  0  0  0  0
    6.7011  -19.1570   25.0609 C   0  0  0  0  0  0  0  0  0  0  0  0
    6.4163  -18.8530   23.6036 C   0  0  2  0  0  0  0  0  0  0  0  0
    6.4436  -20.0864   22.8554 N   0  0  0  0  0  0  0  0  0  0  0  0
    7.4385  -17.8749   23.1363 C   0  0  0  0  0  0  0  0  0  0  0  0
    8.3792  -18.3056   22.4612 O   0  0  0  0  0  0  0  0  0  0  0  0
    7.3451  -16.4929   23.4501 N   0  0  0  0  0  0  0  0  0  0  0  0
    8.2423  -15.5001   22.9859 C   0  0  1  0  0  0  0  0  0  0  0  0
    7.6421  -14.0945   22.8620 C   0  0  0  0  0  0  0  0  0  0  0  0
    7.4210  -13.4747   24.1915 C   0  0  0  0  0  0  0  0  0  0  0  0
    6.6410  -14.0072   25.1839 C   0  0  0  0  0  0  0  0  0  0  0  0
    6.4643  -13.3595   26.4165 C   0  0  0  0  0  0  0  0  0  0  0  0
    7.0732  -12.1544   26.6785 C   0  0  0  0  0  0  0  0  0  0  0  0
    7.8611  -11.6057   25.6915 C   0  0  0  0  0  0  0  0  0  0  0  0
    8.0317  -12.2420   24.4866 C   0  0  0  0  0  0  0  0  0  0  0  0
    9.5210  -15.3953   23.7196 C   0  0  0  0  0  0  0  0  0  0  0  0
   10.2925  -14.4111   23.5795 O   0  0  0  0  0  0  0  0  0  0  0  0
    9.9675  -16.3981   24.6334 N   0  0  0  0  0  0  0  0  0  0  0  0
   11.3667  -16.5815   24.9872 C   0  0  1  0  0  0  0  0  0  0  0  0
   11.7084  -15.4422   25.9166 C   0  0  0  0  0  0  0  0  0  0  0  0
   10.7829  -15.2652   27.0375 C   0  0  0  0  0  0  0  0  0  0  0  0
   11.1280  -14.5066   28.1594 C   0  0  0  0  0  0  0  0  0  0  0  0
   10.2013  -14.3747   29.1800 C   0  0  0  0  0  0  0  0  0  0  0  0
    8.9564  -14.9624   29.1295 C   0  0  0  0  0  0  0  0  0  0  0  0
    8.6241  -15.7096   28.0188 C   0  0  0  0  0  0  0  0  0  0  0  0
    9.5305  -15.8568   26.9862 C   0  0  0  0  0  0  0  0  0  0  0  0
   11.5869  -17.8558   25.7046 C   0  0  0  0  0  0  0  0  0  0  0  0
   10.4466  -18.6329   25.9926 O   0  0  0  0  0  0  0  0  0  0  0  0
   12.7069  -18.2669   26.0592 O   0  0  0  0  0  0  0  0  0  0  0  0
  2  3  1  0
  2  1  1  0
  3  4  1  6
  5  6  2  0
  5  3  1  0
  7  5  1  0
  8  7  1  0
  8  9  1  1
 10 15  1  0
 10  9  1  0
 11 10  2  0
 12 13  2  0
 12 11  1  0
 13 14  1  0
 14 15  2  0
 16  8  1  0
 17 16  2  0
 18 16  1  0
 19 20  1  1
 19 18  1  0
 21 22  2  0
 21 20  1  0
 23 22  1  0
 24 23  2  0
 25 24  1  0
 25 26  2  0
 26 21  1  0
 27 19  1  0
 28 27  1  0
 29 27  2  0
M  END
$$$$
