SFF.pdb
     RDKit          3D

 29 30  0  0  1  0  0  0  0  0999 V2000
    6.7411  -19.6428   21.3908 O   0  0  0  0  0  0  0  0  0  0  0  0
    5.7696  -20.0611   22.2941 C   0  0  0  0  0  0  0  0  0  0  0  0
    4.7420  -18.9682   22.5099 C   0  0  2  0  0  0  0  0  0  0  0  0
    4.0045  -18.7725   21.2853 N   0  0  0  0  0  0  0  0  0  0  0  0
    5.4684  -17.7422   22.9449 C   0  0  0  0  0  0  0  0  0  0  0  0
    5.6908  -16.8741   22.0946 O   0  0  0  0  0  0  0  0  0  0  0  0
    5.8956  -17.5668   24.2881 N   0  0  0  0  0  0  0  0  0  0  0  0
    6.6925  -16.4886   24.7446 C   0  0  1  0  0  0  0  0  0  0  0  0
    6.6695  -16.2656   26.2616 C   0  0  0  0  0  0  0  0  0  0  0  0
    7.1304  -14.9023   26.6213 C   0  0  0  0  0  0  0  0  0  0  0  0
    8.4039  -14.5841   27.0132 C   0  0  0  0  0  0  0  0  0  0  0  0
    8.7694  -13.2722   27.3529 C   0  0  0  0  0  0  0  0  0  0  0  0
    7.8552  -12.2458   27.3045 C   0  0  0  0  0  0  0  0  0  0  0  0
    6.5706  -12.5488   26.9120 C   0  0  0  0  0  0  0  0  0  0  0  0
    6.2164  -13.8334   26.5806 C   0  0  0  0  0  0  0  0  0  0  0  0
    8.1015  -16.4965   24.2984 C   0  0  0  0  0  0  0  0  0  0  0  0
    8.7970  -17.5452   24.3013 O   0  0  0  0  0  0  0  0  0  0  0  0
    8.7679  -15.3211   23.8355 N   0  0  0  0  0  0  0  0  0  0  0  0
   10.1206  -15.3359   23.3001 C   0  0  1  0  0  0  0  0  0  0  0  0
   10.2397  -14.0945   22.4497 C   0  0  0  0  0  0  0  0  0  0  0  0
    9.1942  -13.9418   21.4359 C   0  0  0  0  0  0  0  0  0  0  0  0
    8.0229  -13.2244   21.6941 C   0  0  0  0  0  0  0  0  0  0  0  0
    7.0789  -13.1135   20.6871 C   0  0  0  0  0  0  0  0  0  0  0  0
    7.2519  -13.6830   19.4447 C   0  0  0  0  0  0  0  0  0  0  0  0
    8.4106  -14.3895   19.1984 C   0  0  0  0  0  0  0  0  0  0  0  0
    9.3688  -14.5151   20.1861 C   0  0  0  0  0  0  0  0  0  0  0  0
   11.1347  -15.2689   24.3745 C   0  0  0  0  0  0  0  0  0  0  0  0
   12.4840  -15.4050   23.9898 O   0  0  0  0  0  0  0  0  0  0  0  0
   10.8603  -15.1016   25.5770 O   0  0  0  0  0  0  0  0  0  0  0  0
  2  3  1  0
  2  1  1  0
  3  4  1  6
  5  6  2  0
  5  3  1  0
  7  5  1  0
  8  7  1  0
  8  9  1  1
 10 15  1  0
 10  9  1  0
 11 10  2  0
 12 13  2  0
 12 11  1  0
 13 14  1  0
 14 15  2  0
 16  8  1  0
 17 16  2  0
 18 16  1  0
 19 20  1  6
 19 18  1  0
 21 22  2  0
 21 20  1  0
 23 22  1  0
 24 23  2  0
 25 24  1  0
 25 26  2  0
 26 21  1  0
 27 19  1  0
 28 27  1  0
 29 27  2  0
M  END
$$$$
