IFH.pdb
     RDKit          3D

 30 31  0  0  1  0  0  0  0  0999 V2000
   27.0582  -19.6479  -21.1666 C   0  0  0  0  0  0  0  0  0  0  0  0
   28.1006  -19.8426  -20.0864 C   0  0  0  0  0  0  0  0  0  0  0  0
   27.4733  -20.3364  -18.8051 C   0  0  2  0  0  0  0  0  0  0  0  0
   26.3299  -19.4506  -18.3616 C   0  0  0  0  0  0  0  0  0  0  0  0
   28.4609  -20.5625  -17.7133 C   0  0  2  0  0  0  0  0  0  0  0  0
   29.5285  -21.4474  -18.0562 N   0  0  0  0  0  0  0  0  0  0  0  0
   27.7073  -21.0441  -16.5010 C   0  0  0  0  0  0  0  0  0  0  0  0
   27.3123  -22.2375  -16.4627 O   0  0  0  0  0  0  0  0  0  0  0  0
   27.4287  -20.2075  -15.4089 N   0  0  0  0  0  0  0  0  0  0  0  0
   26.6751  -20.6993  -14.2215 C   0  0  1  0  0  0  0  0  0  0  0  0
   27.3219  -20.2030  -12.9864 C   0  0  0  0  0  0  0  0  0  0  0  0
   26.5935  -20.3995  -11.7260 C   0  0  0  0  0  0  0  0  0  0  0  0
   25.6989  -19.4412  -11.2327 C   0  0  0  0  0  0  0  0  0  0  0  0
   24.9905  -19.6375  -10.0689 C   0  0  0  0  0  0  0  0  0  0  0  0
   25.1394  -20.7952   -9.3428 C   0  0  0  0  0  0  0  0  0  0  0  0
   26.0047  -21.7474   -9.7994 C   0  0  0  0  0  0  0  0  0  0  0  0
   26.7078  -21.5378  -10.9664 C   0  0  0  0  0  0  0  0  0  0  0  0
   25.2824  -20.4209  -14.4705 C   0  0  0  0  0  0  0  0  0  0  0  0
   24.9317  -19.2231  -14.7778 O   0  0  0  0  0  0  0  0  0  0  0  0
   24.1897  -21.3235  -14.4288 N   0  0  0  0  0  0  0  0  0  0  0  0
   22.8097  -20.8927  -14.5896 C   0  0  1  0  0  0  0  0  0  0  0  0
   22.0158  -21.8598  -15.3923 C   0  0  0  0  0  0  0  0  0  0  0  0
   20.6517  -21.3574  -15.6266 C   0  0  0  0  0  0  0  0  0  0  0  0
   20.1858  -20.3346  -16.4298 C   0  0  0  0  0  0  0  0  0  0  0  0
   18.8666  -20.1856  -16.3267 N   0  0  0  0  0  0  0  0  0  0  0  0
   18.4501  -21.1120  -15.4514 C   0  0  0  0  0  0  0  0  0  0  0  0
   19.5143  -21.8237  -15.0226 N   0  0  0  0  0  0  0  0  0  0  0  0
   22.2137  -20.6946  -13.2705 C   0  0  0  0  0  0  0  0  0  0  0  0
   22.3881  -21.5334  -12.3577 O   0  0  0  0  0  0  0  0  0  0  0  0
   21.4422  -19.5914  -12.9609 O   0  0  0  0  0  0  0  0  0  0  0  0
  2  3  1  0
  2  1  1  0
  3  5  1  0
  3  4  1  1
  5  6  1  6
  7  8  2  0
  7  5  1  0
  9  7  1  0
 10  9  1  0
 10 11  1  1
 11 12  1  0
 12 13  2  0
 12 17  1  0
 13 14  1  0
 14 15  2  0
 16 15  1  0
 17 16  2  0
 18 10  1  0
 19 18  2  0
 20 18  1  0
 21 28  1  0
 21 20  1  0
 22 23  1  0
 21 22  1  1
 23 27  1  0
 24 23  2  0
 24 25  1  0
 25 26  1  0
 27 26  2  0
 28 30  1  0
 29 28  2  0
M  END
$$$$
