IFH.pdb
     RDKit          3D

 30 31  0  0  1  0  0  0  0  0999 V2000
   29.8448  -20.3711  -15.4105 C   0  0  0  0  0  0  0  0  0  0  0  0
   30.2273  -20.3907  -13.9459 C   0  0  0  0  0  0  0  0  0  0  0  0
   29.0167  -20.5994  -13.0684 C   0  0  2  0  0  0  0  0  0  0  0  0
   27.9083  -19.6243  -13.3991 C   0  0  0  0  0  0  0  0  0  0  0  0
   29.3370  -20.6089  -11.6138 C   0  0  2  0  0  0  0  0  0  0  0  0
   30.3488  -21.5444  -11.2376 N   0  0  0  0  0  0  0  0  0  0  0  0
   28.0542  -20.8444  -10.8598 C   0  0  0  0  0  0  0  0  0  0  0  0
   27.6039  -22.0155  -10.7730 O   0  0  0  0  0  0  0  0  0  0  0  0
   27.3403  -19.8018  -10.2486 N   0  0  0  0  0  0  0  0  0  0  0  0
   26.1198  -20.0637   -9.4354 C   0  0  1  0  0  0  0  0  0  0  0  0
   26.0624  -19.1056   -8.3089 C   0  0  0  0  0  0  0  0  0  0  0  0
   26.8412  -19.4387   -7.1088 C   0  0  0  0  0  0  0  0  0  0  0  0
   26.6664  -20.6498   -6.4272 C   0  0  0  0  0  0  0  0  0  0  0  0
   27.4180  -20.9782   -5.3218 C   0  0  0  0  0  0  0  0  0  0  0  0
   28.3774  -20.1175   -4.8439 C   0  0  0  0  0  0  0  0  0  0  0  0
   28.5701  -18.9293   -5.4880 C   0  0  0  0  0  0  0  0  0  0  0  0
   27.8103  -18.6132   -6.5940 C   0  0  0  0  0  0  0  0  0  0  0  0
   25.0180  -20.1586  -10.3608 C   0  0  0  0  0  0  0  0  0  0  0  0
   24.9445  -19.3178  -11.3303 O   0  0  0  0  0  0  0  0  0  0  0  0
   23.9537  -21.0955  -10.3595 N   0  0  0  0  0  0  0  0  0  0  0  0
   22.8823  -21.0671  -11.3429 C   0  0  1  0  0  0  0  0  0  0  0  0
   22.4753  -22.4345  -11.7606 C   0  0  0  0  0  0  0  0  0  0  0  0
   21.3540  -22.3838  -12.7135 C   0  0  0  0  0  0  0  0  0  0  0  0
   20.6235  -21.3174  -13.2009 C   0  0  0  0  0  0  0  0  0  0  0  0
   19.6615  -21.7146  -14.0316 N   0  0  0  0  0  0  0  0  0  0  0  0
   19.7497  -23.0507  -14.0991 C   0  0  0  0  0  0  0  0  0  0  0  0
   20.7639  -23.4661  -13.3106 N   0  0  0  0  0  0  0  0  0  0  0  0
   21.7477  -20.3290  -10.7928 C   0  0  0  0  0  0  0  0  0  0  0  0
   21.1576  -19.4617  -11.4759 O   0  0  0  0  0  0  0  0  0  0  0  0
   21.2694  -20.5442   -9.5150 O   0  0  0  0  0  0  0  0  0  0  0  0
  2  3  1  0
  2  1  1  0
  3  5  1  0
  3  4  1  1
  5  6  1  6
  7  8  2  0
  7  5  1  0
  9  7  1  0
 10  9  1  0
 10 11  1  1
 11 12  1  0
 12 13  2  0
 12 17  1  0
 13 14  1  0
 14 15  2  0
 16 15  1  0
 17 16  2  0
 18 10  1  0
 19 18  2  0
 20 18  1  0
 21 28  1  0
 21 20  1  0
 22 23  1  0
 21 22  1  1
 23 27  1  0
 24 23  2  0
 24 25  1  0
 25 26  1  0
 27 26  2  0
 28 30  1  0
 29 28  2  0
M  END
$$$$
