IFH.pdb
     RDKit          3D

 30 31  0  0  1  0  0  0  0  0999 V2000
   23.2585  -16.1184  -18.3614 C   0  0  0  0  0  0  0  0  0  0  0  0
   24.3043  -17.0175  -17.7372 C   0  0  0  0  0  0  0  0  0  0  0  0
   23.6651  -18.1816  -17.0192 C   0  0  2  0  0  0  0  0  0  0  0  0
   22.6170  -17.7237  -16.0289 C   0  0  0  0  0  0  0  0  0  0  0  0
   24.6536  -19.1070  -16.3988 C   0  0  2  0  0  0  0  0  0  0  0  0
   25.7083  -19.5160  -17.2709 N   0  0  0  0  0  0  0  0  0  0  0  0
   23.8981  -20.2883  -15.8479 C   0  0  0  0  0  0  0  0  0  0  0  0
   23.3266  -21.0733  -16.6472 O   0  0  0  0  0  0  0  0  0  0  0  0
   23.8081  -20.5461  -14.4712 N   0  0  0  0  0  0  0  0  0  0  0  0
   23.0421  -21.7100  -13.9437 C   0  0  1  0  0  0  0  0  0  0  0  0
   23.8388  -22.3931  -12.9002 C   0  0  0  0  0  0  0  0  0  0  0  0
   24.1140  -21.6392  -11.6699 C   0  0  0  0  0  0  0  0  0  0  0  0
   23.1161  -21.3848  -10.7205 C   0  0  0  0  0  0  0  0  0  0  0  0
   23.3791  -20.7072   -9.5516 C   0  0  0  0  0  0  0  0  0  0  0  0
   24.6460  -20.2518   -9.2735 C   0  0  0  0  0  0  0  0  0  0  0  0
   25.6392  -20.4853  -10.1806 C   0  0  0  0  0  0  0  0  0  0  0  0
   25.3618  -21.1652  -11.3473 C   0  0  0  0  0  0  0  0  0  0  0  0
   21.7157  -21.2311  -13.6430 C   0  0  0  0  0  0  0  0  0  0  0  0
   21.5457  -19.9810  -13.3967 O   0  0  0  0  0  0  0  0  0  0  0  0
   20.5105  -21.9755  -13.5823 N   0  0  0  0  0  0  0  0  0  0  0  0
   19.2028  -21.3452  -13.4903 C   0  0  1  0  0  0  0  0  0  0  0  0
   18.9400  -20.4408  -14.6405 C   0  0  0  0  0  0  0  0  0  0  0  0
   17.5915  -19.8557  -14.5549 C   0  0  0  0  0  0  0  0  0  0  0  0
   17.1214  -18.7535  -13.8676 C   0  0  0  0  0  0  0  0  0  0  0  0
   15.8112  -18.5863  -14.0365 N   0  0  0  0  0  0  0  0  0  0  0  0
   15.4048  -19.5804  -14.8392 C   0  0  0  0  0  0  0  0  0  0  0  0
   16.4662  -20.3514  -15.1583 N   0  0  0  0  0  0  0  0  0  0  0  0
   18.1777  -22.3820  -13.3956 C   0  0  0  0  0  0  0  0  0  0  0  0
   18.4021  -23.5424  -13.8082 O   0  0  0  0  0  0  0  0  0  0  0  0
   16.9293  -22.1462  -12.8535 O   0  0  0  0  0  0  0  0  0  0  0  0
  2  3  1  0
  2  1  1  0
  3  5  1  0
  3  4  1  1
  5  6  1  6
  7  8  2  0
  7  5  1  0
  9  7  1  0
 10  9  1  0
 10 11  1  1
 11 12  1  0
 12 13  2  0
 12 17  1  0
 13 14  1  0
 14 15  2  0
 16 15  1  0
 17 16  2  0
 18 10  1  0
 19 18  2  0
 20 18  1  0
 21 28  1  0
 21 20  1  0
 22 23  1  0
 21 22  1  6
 23 27  1  0
 24 23  2  0
 24 25  1  0
 25 26  1  0
 27 26  2  0
 28 30  1  0
 29 28  2  0
M  END
$$$$
