IFH.pdb
     RDKit          3D

 30 31  0  0  1  0  0  0  0  0999 V2000
   26.7643  -21.2133  -20.7959 C   0  0  0  0  0  0  0  0  0  0  0  0
   27.7938  -21.2197  -19.6861 C   0  0  0  0  0  0  0  0  0  0  0  0
   27.1576  -21.5324  -18.3532 C   0  0  2  0  0  0  0  0  0  0  0  0
   26.0064  -20.5997  -18.0476 C   0  0  0  0  0  0  0  0  0  0  0  0
   28.1368  -21.5973  -17.2327 C   0  0  2  0  0  0  0  0  0  0  0  0
   29.1927  -22.5400  -17.4246 N   0  0  0  0  0  0  0  0  0  0  0  0
   27.3706  -21.8713  -15.9649 C   0  0  0  0  0  0  0  0  0  0  0  0
   26.9704  -23.0412  -15.7348 O   0  0  0  0  0  0  0  0  0  0  0  0
   27.0857  -20.8659  -15.0277 N   0  0  0  0  0  0  0  0  0  0  0  0
   26.3783  -21.1667  -13.7515 C   0  0  1  0  0  0  0  0  0  0  0  0
   27.0704  -20.4895  -12.6323 C   0  0  0  0  0  0  0  0  0  0  0  0
   26.4281  -20.5546  -11.3128 C   0  0  0  0  0  0  0  0  0  0  0  0
   26.8714  -21.4354  -10.3180 C   0  0  0  0  0  0  0  0  0  0  0  0
   26.2923  -21.4750   -9.0699 C   0  0  0  0  0  0  0  0  0  0  0  0
   25.2463  -20.6407   -8.7542 C   0  0  0  0  0  0  0  0  0  0  0  0
   24.7928  -19.7713   -9.7041 C   0  0  0  0  0  0  0  0  0  0  0  0
   25.3821  -19.7422  -10.9500 C   0  0  0  0  0  0  0  0  0  0  0  0
   24.9767  -20.9241  -13.9877 C   0  0  0  0  0  0  0  0  0  0  0  0
   24.6098  -19.7763  -14.4352 O   0  0  0  0  0  0  0  0  0  0  0  0
   23.8907  -21.8148  -13.7935 N   0  0  0  0  0  0  0  0  0  0  0  0
   22.5045  -21.4130  -13.9747 C   0  0  1  0  0  0  0  0  0  0  0  0
   21.5880  -22.5827  -14.0169 C   0  0  0  0  0  0  0  0  0  0  0  0
   20.1930  -22.1540  -14.2117 C   0  0  0  0  0  0  0  0  0  0  0  0
   19.5554  -21.6071  -15.3084 C   0  0  0  0  0  0  0  0  0  0  0  0
   18.2784  -21.3302  -15.0517 N   0  0  0  0  0  0  0  0  0  0  0  0
   18.0626  -21.6931  -13.7792 C   0  0  0  0  0  0  0  0  0  0  0  0
   19.2065  -22.1902  -13.2622 N   0  0  0  0  0  0  0  0  0  0  0  0
   22.1292  -20.4931  -12.9035 C   0  0  0  0  0  0  0  0  0  0  0  0
   22.6097  -20.6197  -11.7545 O   0  0  0  0  0  0  0  0  0  0  0  0
   21.2432  -19.4507  -13.0946 O   0  0  0  0  0  0  0  0  0  0  0  0
  2  3  1  0
  2  1  1  0
  3  5  1  0
  3  4  1  1
  5  6  1  6
  7  8  2  0
  7  5  1  0
  9  7  1  0
 10  9  1  0
 10 11  1  1
 11 12  1  0
 12 13  2  0
 12 17  1  0
 13 14  1  0
 14 15  2  0
 16 15  1  0
 17 16  2  0
 18 10  1  0
 19 18  2  0
 20 18  1  0
 21 28  1  0
 21 20  1  0
 22 23  1  0
 21 22  1  1
 23 27  1  0
 24 23  2  0
 24 25  1  0
 25 26  1  0
 27 26  2  0
 28 30  1  0
 29 28  2  0
M  END
$$$$
