IFH.pdb
     RDKit          3D

 30 31  0  0  1  0  0  0  0  0999 V2000
   25.7554  -20.1298  -17.0391 C   0  0  0  0  0  0  0  0  0  0  0  0
   26.7379  -20.1374  -15.8874 C   0  0  0  0  0  0  0  0  0  0  0  0
   26.0571  -20.5065  -14.5915 C   0  0  2  0  0  0  0  0  0  0  0  0
   24.8184  -19.6721  -14.3502 C   0  0  0  0  0  0  0  0  0  0  0  0
   26.9752  -20.4960  -13.4187 C   0  0  2  0  0  0  0  0  0  0  0  0
   28.1692  -21.2595  -13.5962 N   0  0  0  0  0  0  0  0  0  0  0  0
   26.1938  -20.9574  -12.2162 C   0  0  0  0  0  0  0  0  0  0  0  0
   26.1094  -22.1898  -11.9799 O   0  0  0  0  0  0  0  0  0  0  0  0
   25.5544  -20.0600  -11.3468 N   0  0  0  0  0  0  0  0  0  0  0  0
   24.9157  -20.5201  -10.0819 C   0  0  1  0  0  0  0  0  0  0  0  0
   25.2317  -19.5671   -8.9946 C   0  0  0  0  0  0  0  0  0  0  0  0
   26.4739  -19.7971   -8.2451 C   0  0  0  0  0  0  0  0  0  0  0  0
   27.1061  -21.0469   -8.2286 C   0  0  0  0  0  0  0  0  0  0  0  0
   28.2877  -21.2562   -7.5540 C   0  0  0  0  0  0  0  0  0  0  0  0
   28.8942  -20.2326   -6.8655 C   0  0  0  0  0  0  0  0  0  0  0  0
   28.3008  -19.0030   -6.8640 C   0  0  0  0  0  0  0  0  0  0  0  0
   27.1176  -18.8074   -7.5437 C   0  0  0  0  0  0  0  0  0  0  0  0
   23.5427  -20.8265  -10.3986 C   0  0  0  0  0  0  0  0  0  0  0  0
   22.8675  -19.9963  -11.1107 O   0  0  0  0  0  0  0  0  0  0  0  0
   22.7939  -21.9708  -10.0243 N   0  0  0  0  0  0  0  0  0  0  0  0
   21.4138  -22.1743  -10.4362 C   0  0  1  0  0  0  0  0  0  0  0  0
   20.8869  -23.4885   -9.9831 C   0  0  0  0  0  0  0  0  0  0  0  0
   19.5329  -23.7251  -10.5109 C   0  0  0  0  0  0  0  0  0  0  0  0
   18.6946  -22.9187  -11.2562 C   0  0  0  0  0  0  0  0  0  0  0  0
   17.5273  -23.5107  -11.5018 N   0  0  0  0  0  0  0  0  0  0  0  0
   17.5862  -24.7165  -10.9183 C   0  0  0  0  0  0  0  0  0  0  0  0
   18.7875  -24.8581  -10.3186 N   0  0  0  0  0  0  0  0  0  0  0  0
   20.5951  -21.0780   -9.9239 C   0  0  0  0  0  0  0  0  0  0  0  0
   20.8516  -20.5516   -8.8175 O   0  0  0  0  0  0  0  0  0  0  0  0
   19.5154  -20.5684  -10.6186 O   0  0  0  0  0  0  0  0  0  0  0  0
  2  3  1  0
  2  1  1  0
  3  5  1  0
  3  4  1  1
  5  6  1  6
  7  8  2  0
  7  5  1  0
  9  7  1  0
 10  9  1  0
 10 11  1  1
 11 12  1  0
 12 13  2  0
 12 17  1  0
 13 14  1  0
 14 15  2  0
 16 15  1  0
 17 16  2  0
 18 10  1  0
 19 18  2  0
 20 18  1  0
 21 28  1  0
 21 20  1  0
 22 23  1  0
 21 22  1  1
 23 27  1  0
 24 23  2  0
 24 25  1  0
 25 26  1  0
 27 26  2  0
 28 30  1  0
 29 28  2  0
M  END
$$$$
