IFH.pdb
     RDKit          3D

 30 31  0  0  1  0  0  0  0  0999 V2000
   23.9215  -20.0087  -15.3536 C   0  0  0  0  0  0  0  0  0  0  0  0
   25.0743  -20.0287  -14.3726 C   0  0  0  0  0  0  0  0  0  0  0  0
   24.6087  -20.4210  -12.9912 C   0  0  2  0  0  0  0  0  0  0  0  0
   23.3958  -19.6262  -12.5603 C   0  0  0  0  0  0  0  0  0  0  0  0
   25.6928  -20.3837  -11.9704 C   0  0  2  0  0  0  0  0  0  0  0  0
   26.9028  -21.0291  -12.3696 N   0  0  0  0  0  0  0  0  0  0  0  0
   25.1459  -20.9682  -10.6941 C   0  0  0  0  0  0  0  0  0  0  0  0
   25.0157  -22.2156  -10.6013 O   0  0  0  0  0  0  0  0  0  0  0  0
   24.7750  -20.1695   -9.6011 N   0  0  0  0  0  0  0  0  0  0  0  0
   24.3296  -20.7692   -8.3120 C   0  0  1  0  0  0  0  0  0  0  0  0
   24.9031  -19.9995   -7.1856 C   0  0  0  0  0  0  0  0  0  0  0  0
   26.3666  -19.9909   -7.0593 C   0  0  0  0  0  0  0  0  0  0  0  0
   27.0743  -18.8232   -6.7469 C   0  0  0  0  0  0  0  0  0  0  0  0
   28.4424  -18.8196   -6.5957 C   0  0  0  0  0  0  0  0  0  0  0  0
   29.1690  -19.9766   -6.7481 C   0  0  0  0  0  0  0  0  0  0  0  0
   28.5060  -21.1305   -7.0528 C   0  0  0  0  0  0  0  0  0  0  0  0
   27.1355  -21.1198   -7.2014 C   0  0  0  0  0  0  0  0  0  0  0  0
   22.9026  -20.9514   -8.4111 C   0  0  0  0  0  0  0  0  0  0  0  0
   22.2906  -20.5205   -9.4561 O   0  0  0  0  0  0  0  0  0  0  0  0
   22.0341  -21.5732   -7.4786 N   0  0  0  0  0  0  0  0  0  0  0  0
   20.7151  -22.0662   -7.8430 C   0  0  1  0  0  0  0  0  0  0  0  0
   20.7699  -22.9946   -9.0028 C   0  0  0  0  0  0  0  0  0  0  0  0
   20.2088  -22.3654  -10.2100 C   0  0  0  0  0  0  0  0  0  0  0  0
   19.5614  -21.1580  -10.3879 C   0  0  0  0  0  0  0  0  0  0  0  0
   19.1808  -20.9817  -11.6517 N   0  0  0  0  0  0  0  0  0  0  0  0
   19.5752  -22.0751  -12.3201 C   0  0  0  0  0  0  0  0  0  0  0  0
   20.1949  -22.9155  -11.4643 N   0  0  0  0  0  0  0  0  0  0  0  0
   20.1094  -22.7148   -6.6824 C   0  0  0  0  0  0  0  0  0  0  0  0
   20.8185  -23.3132   -5.8420 O   0  0  0  0  0  0  0  0  0  0  0  0
   18.7479  -22.7021   -6.4495 O   0  0  0  0  0  0  0  0  0  0  0  0
  2  3  1  0
  2  1  1  0
  3  5  1  0
  3  4  1  1
  5  6  1  6
  7  8  2  0
  7  5  1  0
  9  7  1  0
 10  9  1  0
 10 11  1  1
 11 12  1  0
 12 13  2  0
 12 17  1  0
 13 14  1  0
 14 15  2  0
 16 15  1  0
 17 16  2  0
 18 10  1  0
 19 18  2  0
 20 18  1  0
 21 28  1  0
 21 20  1  0
 22 23  1  0
 21 22  1  6
 23 27  1  0
 24 23  2  0
 24 25  1  0
 25 26  1  0
 27 26  2  0
 28 30  1  0
 29 28  2  0
M  END
$$$$
