IFH.pdb
     RDKit          3D

 30 31  0  0  1  0  0  0  0  0999 V2000
   24.5173  -21.1586  -21.2732 C   0  0  0  0  0  0  0  0  0  0  0  0
   25.6568  -21.2605  -20.2818 C   0  0  0  0  0  0  0  0  0  0  0  0
   25.1413  -21.4389  -18.8741 C   0  0  2  0  0  0  0  0  0  0  0  0
   24.0605  -20.4344  -18.5401 C   0  0  0  0  0  0  0  0  0  0  0  0
   26.2211  -21.4598  -17.8485 C   0  0  2  0  0  0  0  0  0  0  0  0
   27.2911  -22.3615  -18.1352 N   0  0  0  0  0  0  0  0  0  0  0  0
   25.5861  -21.7567  -16.5150 C   0  0  0  0  0  0  0  0  0  0  0  0
   25.1326  -22.9096  -16.2987 O   0  0  0  0  0  0  0  0  0  0  0  0
   25.4813  -20.7911  -15.5017 N   0  0  0  0  0  0  0  0  0  0  0  0
   24.8548  -21.1047  -14.1869 C   0  0  1  0  0  0  0  0  0  0  0  0
   25.6579  -20.5000  -13.1008 C   0  0  0  0  0  0  0  0  0  0  0  0
   25.1137  -20.5884  -11.7393 C   0  0  0  0  0  0  0  0  0  0  0  0
   24.0143  -19.8220  -11.3319 C   0  0  0  0  0  0  0  0  0  0  0  0
   23.4821  -19.9273  -10.0668 C   0  0  0  0  0  0  0  0  0  0  0  0
   24.0188  -20.7991   -9.1494 C   0  0  0  0  0  0  0  0  0  0  0  0
   25.0911  -21.5593   -9.5184 C   0  0  0  0  0  0  0  0  0  0  0  0
   25.6140  -21.4437  -10.7886 C   0  0  0  0  0  0  0  0  0  0  0  0
   23.4529  -20.7903  -14.3106 C   0  0  0  0  0  0  0  0  0  0  0  0
   23.1100  -19.6684  -14.8359 O   0  0  0  0  0  0  0  0  0  0  0  0
   22.3422  -21.5816  -13.9224 N   0  0  0  0  0  0  0  0  0  0  0  0
   20.9789  -21.0746  -13.9242 C   0  0  1  0  0  0  0  0  0  0  0  0
   20.0472  -21.9886  -14.6358 C   0  0  0  0  0  0  0  0  0  0  0  0
   20.1274  -21.7946  -16.0932 C   0  0  0  0  0  0  0  0  0  0  0  0
   20.0968  -20.6458  -16.8598 C   0  0  0  0  0  0  0  0  0  0  0  0
   20.1662  -20.9172  -18.1616 N   0  0  0  0  0  0  0  0  0  0  0  0
   20.2432  -22.2518  -18.2648 C   0  0  0  0  0  0  0  0  0  0  0  0
   20.2208  -22.7918  -17.0276 N   0  0  0  0  0  0  0  0  0  0  0  0
   20.5473  -20.8580  -12.5452 C   0  0  0  0  0  0  0  0  0  0  0  0
   21.2642  -21.2233  -11.5862 O   0  0  0  0  0  0  0  0  0  0  0  0
   19.3497  -20.2474  -12.2279 O   0  0  0  0  0  0  0  0  0  0  0  0
  2  3  1  0
  2  1  1  0
  3  5  1  0
  3  4  1  1
  5  6  1  6
  7  8  2  0
  7  5  1  0
  9  7  1  0
 10  9  1  0
 10 11  1  1
 11 12  1  0
 12 13  2  0
 12 17  1  0
 13 14  1  0
 14 15  2  0
 16 15  1  0
 17 16  2  0
 18 10  1  0
 19 18  2  0
 20 18  1  0
 21 28  1  0
 21 20  1  0
 22 23  1  0
 21 22  1  1
 23 27  1  0
 24 23  2  0
 24 25  1  0
 25 26  1  0
 27 26  2  0
 28 30  1  0
 29 28  2  0
M  END
$$$$
