IFH.pdb
     RDKit          3D

 30 31  0  0  1  0  0  0  0  0999 V2000
   25.2024  -22.1511  -19.2561 C   0  0  0  0  0  0  0  0  0  0  0  0
   25.8003  -22.0584  -17.8685 C   0  0  0  0  0  0  0  0  0  0  0  0
   24.7242  -21.9212  -16.8185 C   0  0  2  0  0  0  0  0  0  0  0  0
   23.7537  -20.8094  -17.1507 C   0  0  0  0  0  0  0  0  0  0  0  0
   25.2620  -21.7987  -15.4349 C   0  0  2  0  0  0  0  0  0  0  0  0
   26.1989  -22.8144  -15.0730 N   0  0  0  0  0  0  0  0  0  0  0  0
   24.0922  -21.7580  -14.4865 C   0  0  0  0  0  0  0  0  0  0  0  0
   23.6376  -22.8390  -14.0321 O   0  0  0  0  0  0  0  0  0  0  0  0
   23.4889  -20.5544  -14.0898 N   0  0  0  0  0  0  0  0  0  0  0  0
   22.4714  -20.5129  -13.0023 C   0  0  1  0  0  0  0  0  0  0  0  0
   22.9482  -19.6307  -11.9139 C   0  0  0  0  0  0  0  0  0  0  0  0
   23.9665  -20.1786  -11.0080 C   0  0  0  0  0  0  0  0  0  0  0  0
   23.6641  -20.5407   -9.6891 C   0  0  0  0  0  0  0  0  0  0  0  0
   24.6087  -21.0849   -8.8487 C   0  0  0  0  0  0  0  0  0  0  0  0
   25.8967  -21.2938   -9.2813 C   0  0  0  0  0  0  0  0  0  0  0  0
   26.2206  -20.9505  -10.5623 C   0  0  0  0  0  0  0  0  0  0  0  0
   25.2647  -20.4064  -11.3932 C   0  0  0  0  0  0  0  0  0  0  0  0
   21.2001  -20.2597  -13.6339 C   0  0  0  0  0  0  0  0  0  0  0  0
   21.1797  -19.6965  -14.7892 O   0  0  0  0  0  0  0  0  0  0  0  0
   19.9047  -20.5622  -13.1431 N   0  0  0  0  0  0  0  0  0  0  0  0
   18.8815  -21.1901  -13.9644 C   0  0  1  0  0  0  0  0  0  0  0  0
   19.3618  -22.4557  -14.5789 C   0  0  0  0  0  0  0  0  0  0  0  0
   19.6546  -22.2701  -16.0100 C   0  0  0  0  0  0  0  0  0  0  0  0
   19.4454  -21.1917  -16.8477 C   0  0  0  0  0  0  0  0  0  0  0  0
   19.8301  -21.4522  -18.0956 N   0  0  0  0  0  0  0  0  0  0  0  0
   20.2974  -22.7089  -18.0914 C   0  0  0  0  0  0  0  0  0  0  0  0
   20.1974  -23.2124  -16.8427 N   0  0  0  0  0  0  0  0  0  0  0  0
   17.6910  -21.4231  -13.1502 C   0  0  0  0  0  0  0  0  0  0  0  0
   16.5556  -21.1088  -13.5733 O   0  0  0  0  0  0  0  0  0  0  0  0
   17.7492  -21.9949  -11.8941 O   0  0  0  0  0  0  0  0  0  0  0  0
  2  3  1  0
  2  1  1  0
  3  5  1  0
  3  4  1  6
  5  6  1  1
  7  8  2  0
  7  5  1  0
  9  7  1  0
 10  9  1  0
 10 11  1  1
 11 12  1  0
 12 13  2  0
 12 17  1  0
 13 14  1  0
 14 15  2  0
 16 15  1  0
 17 16  2  0
 18 10  1  0
 19 18  2  0
 20 18  1  0
 21 28  1  0
 21 20  1  0
 22 23  1  0
 21 22  1  1
 23 27  1  0
 24 23  2  0
 24 25  1  0
 25 26  1  0
 27 26  2  0
 28 30  1  0
 29 28  2  0
M  END
$$$$
