IFH.pdb
     RDKit          3D

 30 31  0  0  1  0  0  0  0  0999 V2000
   27.0538  -19.1931  -16.8481 C   0  0  0  0  0  0  0  0  0  0  0  0
   28.0448  -19.9990  -16.0357 C   0  0  0  0  0  0  0  0  0  0  0  0
   27.5488  -20.2132  -14.6260 C   0  0  2  0  0  0  0  0  0  0  0  0
   27.2298  -18.9043  -13.9378 C   0  0  0  0  0  0  0  0  0  0  0  0
   28.4508  -21.0699  -13.8068 C   0  0  2  0  0  0  0  0  0  0  0  0
   28.7425  -22.3430  -14.3851 N   0  0  0  0  0  0  0  0  0  0  0  0
   27.8384  -21.2085  -12.4374 C   0  0  0  0  0  0  0  0  0  0  0  0
   26.8484  -21.9692  -12.2861 O   0  0  0  0  0  0  0  0  0  0  0  0
   28.3334  -20.5177  -11.3203 N   0  0  0  0  0  0  0  0  0  0  0  0
   27.7843  -20.7474   -9.9545 C   0  0  1  0  0  0  0  0  0  0  0  0
   28.7982  -20.3694   -8.9450 C   0  0  0  0  0  0  0  0  0  0  0  0
   28.3349  -20.2114   -7.5600 C   0  0  0  0  0  0  0  0  0  0  0  0
   28.6713  -21.1316   -6.5589 C   0  0  0  0  0  0  0  0  0  0  0  0
   28.2658  -20.9680   -5.2537 C   0  0  0  0  0  0  0  0  0  0  0  0
   27.5076  -19.8825   -4.8846 C   0  0  0  0  0  0  0  0  0  0  0  0
   27.1644  -18.9687   -5.8392 C   0  0  0  0  0  0  0  0  0  0  0  0
   27.5773  -19.1449   -7.1425 C   0  0  0  0  0  0  0  0  0  0  0  0
   26.4758  -20.1422   -9.9270 C   0  0  0  0  0  0  0  0  0  0  0  0
   26.3197  -18.9723  -10.4362 O   0  0  0  0  0  0  0  0  0  0  0  0
   25.2751  -20.6798   -9.3981 N   0  0  0  0  0  0  0  0  0  0  0  0
   23.9608  -20.2978   -9.8905 C   0  0  1  0  0  0  0  0  0  0  0  0
   23.6270  -20.9791  -11.1689 C   0  0  0  0  0  0  0  0  0  0  0  0
   22.3038  -20.5604  -11.6607 C   0  0  0  0  0  0  0  0  0  0  0  0
   21.3512  -19.7265  -11.1077 C   0  0  0  0  0  0  0  0  0  0  0  0
   20.2657  -19.6381  -11.8740 N   0  0  0  0  0  0  0  0  0  0  0  0
   20.4940  -20.4156  -12.9421 C   0  0  0  0  0  0  0  0  0  0  0  0
   21.7167  -20.9764  -12.8262 N   0  0  0  0  0  0  0  0  0  0  0  0
   22.9620  -20.5914   -8.8653 C   0  0  0  0  0  0  0  0  0  0  0  0
   21.9631  -19.8519   -8.7157 O   0  0  0  0  0  0  0  0  0  0  0  0
   23.0596  -21.6812   -8.0222 O   0  0  0  0  0  0  0  0  0  0  0  0
  2  3  1  0
  2  1  1  0
  3  5  1  0
  3  4  1  1
  5  6  1  6
  7  8  2  0
  7  5  1  0
  9  7  1  0
 10  9  1  0
 10 11  1  1
 11 12  1  0
 12 13  2  0
 12 17  1  0
 13 14  1  0
 14 15  2  0
 16 15  1  0
 17 16  2  0
 18 10  1  0
 19 18  2  0
 20 18  1  0
 21 28  1  0
 21 20  1  0
 22 23  1  0
 21 22  1  6
 23 27  1  0
 24 23  2  0
 24 25  1  0
 25 26  1  0
 27 26  2  0
 28 30  1  0
 29 28  2  0
M  END
$$$$
