IFH.pdb
     RDKit          3D

 30 31  0  0  1  0  0  0  0  0999 V2000
   26.6796  -24.5192  -18.4228 C   0  0  0  0  0  0  0  0  0  0  0  0
   27.2090  -24.3583  -17.0137 C   0  0  0  0  0  0  0  0  0  0  0  0
   26.2479  -23.5709  -16.1561 C   0  0  2  0  0  0  0  0  0  0  0  0
   24.8703  -24.1958  -16.1375 C   0  0  0  0  0  0  0  0  0  0  0  0
   26.2000  -22.1227  -16.5007 C   0  0  2  0  0  0  0  0  0  0  0  0
   27.4808  -21.5051  -16.6373 N   0  0  0  0  0  0  0  0  0  0  0  0
   25.3560  -21.4287  -15.4635 C   0  0  0  0  0  0  0  0  0  0  0  0
   25.7684  -21.3772  -14.2765 O   0  0  0  0  0  0  0  0  0  0  0  0
   24.1224  -20.8355  -15.7739 N   0  0  0  0  0  0  0  0  0  0  0  0
   23.2911  -20.1723  -14.7305 C   0  0  1  0  0  0  0  0  0  0  0  0
   23.5049  -18.7089  -14.7856 C   0  0  0  0  0  0  0  0  0  0  0  0
   23.2578  -18.0460  -16.0730 C   0  0  0  0  0  0  0  0  0  0  0  0
   21.9725  -17.6520  -16.4663 C   0  0  0  0  0  0  0  0  0  0  0  0
   21.7430  -17.0013  -17.6574 C   0  0  0  0  0  0  0  0  0  0  0  0
   22.7809  -16.7128  -18.5114 C   0  0  0  0  0  0  0  0  0  0  0  0
   24.0450  -17.0849  -18.1543 C   0  0  0  0  0  0  0  0  0  0  0  0
   24.2605  -17.7360  -16.9585 C   0  0  0  0  0  0  0  0  0  0  0  0
   21.9605  -20.7138  -14.8550 C   0  0  0  0  0  0  0  0  0  0  0  0
   21.6365  -21.3278  -15.9368 O   0  0  0  0  0  0  0  0  0  0  0  0
   20.9067  -20.6698  -13.9073 N   0  0  0  0  0  0  0  0  0  0  0  0
   19.5550  -21.1095  -14.2161 C   0  0  1  0  0  0  0  0  0  0  0  0
   19.2935  -22.4880  -13.7250 C   0  0  0  0  0  0  0  0  0  0  0  0
   17.9285  -22.9207  -14.0679 C   0  0  0  0  0  0  0  0  0  0  0  0
   16.8891  -22.2478  -14.6804 C   0  0  0  0  0  0  0  0  0  0  0  0
   15.7968  -23.0037  -14.7743 N   0  0  0  0  0  0  0  0  0  0  0  0
   16.1077  -24.1853  -14.2223 C   0  0  0  0  0  0  0  0  0  0  0  0
   17.3874  -24.1486  -13.7932 N   0  0  0  0  0  0  0  0  0  0  0  0
   18.6014  -20.1613  -13.6450 C   0  0  0  0  0  0  0  0  0  0  0  0
   17.4810  -19.9842  -14.1745 O   0  0  0  0  0  0  0  0  0  0  0  0
   18.8752  -19.4237  -12.5096 O   0  0  0  0  0  0  0  0  0  0  0  0
  2  3  1  0
  2  1  1  0
  3  5  1  0
  3  4  1  6
  5  6  1  1
  7  8  2  0
  7  5  1  0
  9  7  1  0
 10  9  1  0
 10 11  1  6
 11 12  1  0
 12 13  2  0
 12 17  1  0
 13 14  1  0
 14 15  2  0
 16 15  1  0
 17 16  2  0
 18 10  1  0
 19 18  2  0
 20 18  1  0
 21 28  1  0
 21 20  1  0
 22 23  1  0
 21 22  1  1
 23 27  1  0
 24 23  2  0
 24 25  1  0
 25 26  1  0
 27 26  2  0
 28 30  1  0
 29 28  2  0
M  END
$$$$
