RCK.pdb
     RDKit          3D

 27 26  0  0  1  0  0  0  0  0999 V2000
   20.5598  -21.0612  -15.5210 N   0  0  0  0  0  0  0  0  0  0  0  0
   20.5042  -20.2860  -16.7157 C   0  0  0  0  0  0  0  0  0  0  0  0
   19.3819  -20.0858  -17.3425 N   0  0  0  0  0  0  0  0  0  0  0  0
   21.6723  -19.7013  -17.2697 N   0  0  0  0  0  0  0  0  0  0  0  0
   22.9063  -19.6418  -16.5610 C   0  0  0  0  0  0  0  0  0  0  0  0
   23.0515  -18.4998  -15.6163 C   0  0  0  0  0  0  0  0  0  0  0  0
   23.0683  -18.8722  -14.1795 C   0  0  0  0  0  0  0  0  0  0  0  0
   24.3980  -19.3120  -13.6380 C   0  0  2  0  0  0  0  0  0  0  0  0
   25.1131  -19.9031  -14.7832 N   0  0  0  0  0  0  0  0  0  0  0  0
   24.3191  -20.3436  -12.5957 C   0  0  0  0  0  0  0  0  0  0  0  0
   24.2531  -21.5805  -12.8921 O   0  0  0  0  0  0  0  0  0  0  0  0
   19.4169  -19.5435  -18.2268 N   0  0  0  0  0  0  0  0  0  0  0  0
   24.3125  -20.0196  -11.2155 C   0  0  2  0  0  0  0  0  0  0  0  0
   24.2786  -21.0687  -10.2300 C   0  0  0  0  0  0  0  0  0  0  0  0
   25.5051  -20.9083   -9.3295 S   0  0  0  0  0  0  0  0  0  0  0  0
   25.4617  -19.3027   -8.5014 C   0  0  0  0  0  0  0  0  0  0  0  0
   23.0296  -20.9967   -9.4130 O   0  0  0  0  0  0  0  0  0  0  0  0
   22.5124  -19.8865   -9.1306 N   0  0  0  0  0  0  0  0  0  0  0  0
   22.3808  -22.1650   -8.9268 C   0  0  1  0  0  0  0  0  0  0  0  0
   21.2534  -22.0330   -7.9963 C   0  0  0  0  0  0  0  0  0  0  0  0
   20.1690  -22.9185   -8.5276 C   0  0  0  0  0  0  0  0  0  0  0  0
   18.9286  -22.9650   -7.6904 C   0  0  0  0  0  0  0  0  0  0  0  0
   17.8606  -23.8601   -8.2579 C   0  0  0  0  0  0  0  0  0  0  0  0
   16.6159  -23.7236   -7.4075 N   0  0  0  0  0  0  0  0  0  0  0  0
   15.5370  -24.4976   -8.0077 C   0  0  0  0  0  0  0  0  0  0  0  0
   21.6876  -22.4169   -6.6292 O   0  0  0  0  0  0  0  0  0  0  0  0
   21.1488  -21.8462   -5.5025 O   0  0  0  0  0  0  0  0  0  0  0  0
  1  2  1  0
  2  3  2  0
  4  2  1  0
  4  5  1  0
  6  5  1  0
  7  6  1  0
  8 10  1  0
  8  7  1  0
  8  9  1  6
 10 11  2  0
 12 10  1  0
 13 12  1  0
 13 16  1  0
 14 15  1  0
 13 14  1  6
 16 17  2  0
 16 18  1  0
 18 19  1  0
 19 25  1  0
 19 20  1  1
 21 20  1  0
 22 21  1  0
 23 22  1  0
 24 23  1  0
 25 27  2  0
 25 26  1  0
M  END
$$$$
