RCK.pdb
     RDKit          3D

 27 26  0  0  1  0  0  0  0  0999 V2000
   23.7213  -21.0400   -8.5301 N   0  0  0  0  0  0  0  0  0  0  0  0
   25.1441  -21.0387   -8.4472 C   0  0  0  0  0  0  0  0  0  0  0  0
   25.7581  -20.7715   -7.3318 N   0  0  0  0  0  0  0  0  0  0  0  0
   25.9483  -21.3293   -9.5795 N   0  0  0  0  0  0  0  0  0  0  0  0
   25.4258  -21.3420  -10.9044 C   0  0  0  0  0  0  0  0  0  0  0  0
   24.9532  -20.0282  -11.4225 C   0  0  0  0  0  0  0  0  0  0  0  0
   24.5102  -20.0350  -12.8392 C   0  0  0  0  0  0  0  0  0  0  0  0
   25.4618  -20.6660  -13.8143 C   0  0  2  0  0  0  0  0  0  0  0  0
   26.8097  -20.3609  -13.3021 N   0  0  0  0  0  0  0  0  0  0  0  0
   25.3826  -20.1260  -15.1777 C   0  0  0  0  0  0  0  0  0  0  0  0
   24.2656  -19.8051  -15.6987 O   0  0  0  0  0  0  0  0  0  0  0  0
   26.7945  -20.7191   -7.3559 N   0  0  0  0  0  0  0  0  0  0  0  0
   26.5361  -19.9350  -15.9795 C   0  0  2  0  0  0  0  0  0  0  0  0
   26.8721  -18.6182  -16.4550 C   0  0  0  0  0  0  0  0  0  0  0  0
   26.9800  -17.6927  -15.2414 S   0  0  0  0  0  0  0  0  0  0  0  0
   27.4944  -16.0411  -15.7639 C   0  0  0  0  0  0  0  0  0  0  0  0
   28.1642  -18.6327  -17.2054 O   0  0  0  0  0  0  0  0  0  0  0  0
   29.2518  -18.8209  -16.6039 N   0  0  0  0  0  0  0  0  0  0  0  0
   28.2186  -18.4374  -18.6129 C   0  0  1  0  0  0  0  0  0  0  0  0
   29.0515  -19.3232  -19.4351 C   0  0  0  0  0  0  0  0  0  0  0  0
   28.4198  -20.6787  -19.3578 C   0  0  0  0  0  0  0  0  0  0  0  0
   28.6941  -21.4289  -18.0914 C   0  0  0  0  0  0  0  0  0  0  0  0
   28.0120  -22.7688  -18.0335 C   0  0  0  0  0  0  0  0  0  0  0  0
   28.4095  -23.4562  -16.7450 N   0  0  0  0  0  0  0  0  0  0  0  0
   27.8207  -24.7887  -16.7102 C   0  0  0  0  0  0  0  0  0  0  0  0
   29.1162  -18.8001  -20.8233 O   0  0  0  0  0  0  0  0  0  0  0  0
   30.3044  -18.4659  -21.4251 O   0  0  0  0  0  0  0  0  0  0  0  0
  1  2  1  0
  2  3  2  0
  4  2  1  0
  4  5  1  0
  6  5  1  0
  7  6  1  0
  8 10  1  0
  8  7  1  0
  8  9  1  1
 10 11  2  0
 12 10  1  0
 13 12  1  0
 13 16  1  0
 14 15  1  0
 13 14  1  1
 16 17  2  0
 16 18  1  0
 18 19  1  0
 19 25  1  0
 19 20  1  6
 21 20  1  0
 22 21  1  0
 23 22  1  0
 24 23  1  0
 25 27  2  0
 25 26  1  0
M  END
$$$$
