RCK.pdb
     RDKit          3D

 27 26  0  0  1  0  0  0  0  0999 V2000
   13.5329  -13.0149  -11.4376 N   0  0  0  0  0  0  0  0  0  0  0  0
   12.9891  -13.7011  -12.5621 C   0  0  0  0  0  0  0  0  0  0  0  0
   12.3112  -14.8025  -12.4217 N   0  0  0  0  0  0  0  0  0  0  0  0
   13.1659  -13.2094  -13.8813 N   0  0  0  0  0  0  0  0  0  0  0  0
   13.5834  -11.8743  -14.1493 C   0  0  0  0  0  0  0  0  0  0  0  0
   15.0538  -11.6408  -14.1160 C   0  0  0  0  0  0  0  0  0  0  0  0
   15.4785  -10.2627  -14.4678 C   0  0  0  0  0  0  0  0  0  0  0  0
   16.9615  -10.0322  -14.5151 C   0  0  2  0  0  0  0  0  0  0  0  0
   17.5685  -11.3752  -14.5178 N   0  0  0  0  0  0  0  0  0  0  0  0
   17.5026   -9.3132  -13.3544 C   0  0  0  0  0  0  0  0  0  0  0  0
   17.4266   -9.7999  -12.1799 O   0  0  0  0  0  0  0  0  0  0  0  0
   11.9240  -15.2398  -13.2797 N   0  0  0  0  0  0  0  0  0  0  0  0
   18.1331   -8.0496  -13.4792 C   0  0  1  0  0  0  0  0  0  0  0  0
   18.4995   -7.3085  -12.3004 C   0  0  0  0  0  0  0  0  0  0  0  0
   19.5830   -6.3026  -12.6947 S   0  0  0  0  0  0  0  0  0  0  0  0
   21.1666   -7.1469  -12.9059 C   0  0  0  0  0  0  0  0  0  0  0  0
   17.3191   -6.5928  -11.7284 O   0  0  0  0  0  0  0  0  0  0  0  0
   16.1591   -6.8341  -12.1481 N   0  0  0  0  0  0  0  0  0  0  0  0
   17.4550   -5.6217  -10.6985 C   0  0  1  0  0  0  0  0  0  0  0  0
   16.2801   -4.8556  -10.2661 C   0  0  0  0  0  0  0  0  0  0  0  0
   15.3336   -5.8485   -9.6656 C   0  0  0  0  0  0  0  0  0  0  0  0
   14.1359   -5.2498   -8.9956 C   0  0  0  0  0  0  0  0  0  0  0  0
   13.2002   -6.2775   -8.4193 C   0  0  0  0  0  0  0  0  0  0  0  0
   11.9994   -5.5631   -7.8376 N   0  0  0  0  0  0  0  0  0  0  0  0
   11.0284   -6.5492   -7.3815 C   0  0  0  0  0  0  0  0  0  0  0  0
   16.6964   -3.8060   -9.3019 O   0  0  0  0  0  0  0  0  0  0  0  0
   17.9746   -3.7332   -8.8055 O   0  0  0  0  0  0  0  0  0  0  0  0
  1  2  1  0
  2  3  2  0
  4  2  1  0
  4  5  1  0
  6  5  1  0
  7  6  1  0
  8 10  1  0
  8  7  1  0
  8  9  1  1
 10 11  2  0
 12 10  1  0
 13 12  1  0
 13 16  1  0
 14 15  1  0
 13 14  1  1
 16 17  2  0
 16 18  1  0
 18 19  1  0
 19 25  1  0
 19 20  1  6
 21 20  1  0
 22 21  1  0
 23 22  1  0
 24 23  1  0
 25 27  2  0
 25 26  1  0
M  END
$$$$
