RCK.pdb
     RDKit          3D

 27 26  0  0  1  0  0  0  0  0999 V2000
   27.8205  -14.9611  -18.7063 N   0  0  0  0  0  0  0  0  0  0  0  0
   28.8475  -15.9017  -19.0091 C   0  0  0  0  0  0  0  0  0  0  0  0
   29.9029  -15.5583  -19.6879 N   0  0  0  0  0  0  0  0  0  0  0  0
   28.7593  -17.2519  -18.5818 N   0  0  0  0  0  0  0  0  0  0  0  0
   27.7346  -17.7102  -17.7053 C   0  0  0  0  0  0  0  0  0  0  0  0
   27.9546  -17.4350  -16.2583 C   0  0  0  0  0  0  0  0  0  0  0  0
   28.0258  -18.6398  -15.3942 C   0  0  0  0  0  0  0  0  0  0  0  0
   27.0745  -19.7475  -15.7445 C   0  0  2  0  0  0  0  0  0  0  0  0
   25.8745  -19.0807  -16.2808 N   0  0  0  0  0  0  0  0  0  0  0  0
   26.6440  -20.5636  -14.6019 C   0  0  0  0  0  0  0  0  0  0  0  0
   27.4878  -21.1771  -13.8713 O   0  0  0  0  0  0  0  0  0  0  0  0
   30.5965  -16.2999  -19.9034 N   0  0  0  0  0  0  0  0  0  0  0  0
   25.2773  -20.7105  -14.2548 C   0  0  1  0  0  0  0  0  0  0  0  0
   24.9019  -21.5535  -13.1496 C   0  0  0  0  0  0  0  0  0  0  0  0
   25.5579  -20.9929  -11.8860 S   0  0  0  0  0  0  0  0  0  0  0  0
   24.3190  -20.1803  -10.8516 C   0  0  0  0  0  0  0  0  0  0  0  0
   23.4174  -21.5904  -12.9834 O   0  0  0  0  0  0  0  0  0  0  0  0
   22.7486  -20.5263  -12.9642 N   0  0  0  0  0  0  0  0  0  0  0  0
   22.7068  -22.8141  -12.8425 C   0  0  2  0  0  0  0  0  0  0  0  0
   21.2464  -22.8244  -12.9896 C   0  0  0  0  0  0  0  0  0  0  0  0
   20.6927  -22.3566  -11.6793 C   0  0  0  0  0  0  0  0  0  0  0  0
   19.1989  -22.2718  -11.6223 C   0  0  0  0  0  0  0  0  0  0  0  0
   18.5913  -23.1659  -10.5758 C   0  0  0  0  0  0  0  0  0  0  0  0
   17.0841  -23.0727  -10.6789 N   0  0  0  0  0  0  0  0  0  0  0  0
   16.4800  -23.8864   -9.6319 C   0  0  0  0  0  0  0  0  0  0  0  0
   20.8532  -21.9488  -14.1226 O   0  0  0  0  0  0  0  0  0  0  0  0
   19.9208  -22.3322  -15.0548 O   0  0  0  0  0  0  0  0  0  0  0  0
  1  2  1  0
  2  3  2  0
  4  2  1  0
  4  5  1  0
  6  5  1  0
  7  6  1  0
  8 10  1  0
  8  7  1  0
  8  9  1  1
 10 11  2  0
 12 10  1  0
 13 12  1  0
 13 16  1  0
 14 15  1  0
 13 14  1  1
 16 17  2  0
 16 18  1  0
 18 19  1  0
 19 25  1  0
 19 20  1  1
 21 20  1  0
 22 21  1  0
 23 22  1  0
 24 23  1  0
 25 27  2  0
 25 26  1  0
M  END
$$$$
