RCK.pdb
     RDKit          3D

 27 26  0  0  1  0  0  0  0  0999 V2000
   21.0806  -12.2759  -17.0605 N   0  0  0  0  0  0  0  0  0  0  0  0
   19.7724  -12.3599  -16.5012 C   0  0  0  0  0  0  0  0  0  0  0  0
   19.3832  -11.5483  -15.5618 N   0  0  0  0  0  0  0  0  0  0  0  0
   18.8415  -13.3333  -16.9473 N   0  0  0  0  0  0  0  0  0  0  0  0
   18.9111  -14.6977  -16.5447 C   0  0  0  0  0  0  0  0  0  0  0  0
   19.9227  -15.5278  -17.2558 C   0  0  0  0  0  0  0  0  0  0  0  0
   19.9258  -16.9656  -16.8872 C   0  0  0  0  0  0  0  0  0  0  0  0
   20.2576  -17.2681  -15.4543 C   0  0  2  0  0  0  0  0  0  0  0  0
   21.6563  -16.8392  -15.2755 N   0  0  0  0  0  0  0  0  0  0  0  0
   20.1915  -18.6923  -15.1022 C   0  0  0  0  0  0  0  0  0  0  0  0
   19.2960  -19.4544  -15.5917 O   0  0  0  0  0  0  0  0  0  0  0  0
   18.4011  -11.6285  -15.2356 N   0  0  0  0  0  0  0  0  0  0  0  0
   21.1136  -19.2894  -14.2061 C   0  0  2  0  0  0  0  0  0  0  0  0
   20.9349  -20.6576  -13.7949 C   0  0  0  0  0  0  0  0  0  0  0  0
   22.1310  -21.0476  -12.9242 S   0  0  0  0  0  0  0  0  0  0  0  0
   22.1002  -20.1182  -11.3748 C   0  0  0  0  0  0  0  0  0  0  0  0
   19.6646  -20.8248  -13.0260 O   0  0  0  0  0  0  0  0  0  0  0  0
   19.1116  -19.8365  -12.4805 N   0  0  0  0  0  0  0  0  0  0  0  0
   19.0349  -22.0915  -12.8804 C   0  0  1  0  0  0  0  0  0  0  0  0
   17.7565  -22.1866  -12.1656 C   0  0  0  0  0  0  0  0  0  0  0  0
   16.7677  -21.4060  -12.9751 C   0  0  0  0  0  0  0  0  0  0  0  0
   15.3448  -21.5392  -12.5286 C   0  0  0  0  0  0  0  0  0  0  0  0
   14.3662  -20.8613  -13.4487 C   0  0  0  0  0  0  0  0  0  0  0  0
   12.9680  -21.0849  -12.9138 N   0  0  0  0  0  0  0  0  0  0  0  0
   11.9993  -20.5622  -13.8686 C   0  0  0  0  0  0  0  0  0  0  0  0
   17.3741  -23.6136  -12.0155 O   0  0  0  0  0  0  0  0  0  0  0  0
   16.4798  -24.0356  -11.0628 O   0  0  0  0  0  0  0  0  0  0  0  0
  1  2  1  0
  2  3  2  0
  4  2  1  0
  4  5  1  0
  6  5  1  0
  7  6  1  0
  8 10  1  0
  8  7  1  0
  8  9  1  6
 10 11  2  0
 12 10  1  0
 13 12  1  0
 13 16  1  0
 14 15  1  0
 13 14  1  6
 16 17  2  0
 16 18  1  0
 18 19  1  0
 19 25  1  0
 19 20  1  1
 21 20  1  0
 22 21  1  0
 23 22  1  0
 24 23  1  0
 25 27  2  0
 25 26  1  0
M  END
$$$$
