RCK.pdb
     RDKit          3D

 27 26  0  0  1  0  0  0  0  0999 V2000
   23.8831  -25.7398  -15.9118 N   0  0  0  0  0  0  0  0  0  0  0  0
   24.7782  -24.6322  -15.8555 C   0  0  0  0  0  0  0  0  0  0  0  0
   26.0378  -24.7920  -15.5720 N   0  0  0  0  0  0  0  0  0  0  0  0
   24.3302  -23.3095  -16.1065 N   0  0  0  0  0  0  0  0  0  0  0  0
   23.0096  -23.0227  -16.5562 C   0  0  0  0  0  0  0  0  0  0  0  0
   22.1827  -22.1928  -15.6369 C   0  0  0  0  0  0  0  0  0  0  0  0
   22.4933  -22.3550  -14.1945 C   0  0  0  0  0  0  0  0  0  0  0  0
   21.7246  -21.4655  -13.2604 C   0  0  2  0  0  0  0  0  0  0  0  0
   22.3618  -20.1407  -13.3653 N   0  0  0  0  0  0  0  0  0  0  0  0
   21.7867  -21.8670  -11.8491 C   0  0  0  0  0  0  0  0  0  0  0  0
   22.6985  -22.6470  -11.4223 O   0  0  0  0  0  0  0  0  0  0  0  0
   26.6085  -23.9373  -15.4265 N   0  0  0  0  0  0  0  0  0  0  0  0
   20.8425  -21.4110  -10.8950 C   0  0  1  0  0  0  0  0  0  0  0  0
   20.9244  -21.8604   -9.5296 C   0  0  0  0  0  0  0  0  0  0  0  0
   21.3030  -20.6594   -8.6606 S   0  0  0  0  0  0  0  0  0  0  0  0
   20.7238  -19.1298   -9.4291 C   0  0  0  0  0  0  0  0  0  0  0  0
   19.6212  -22.4323   -9.0742 O   0  0  0  0  0  0  0  0  0  0  0  0
   18.6135  -22.4067   -9.8252 N   0  0  0  0  0  0  0  0  0  0  0  0
   19.4669  -23.0226   -7.7897 C   0  0  1  0  0  0  0  0  0  0  0  0
   18.2890  -23.8530   -7.5113 C   0  0  0  0  0  0  0  0  0  0  0  0
   18.3445  -24.9927   -8.4810 C   0  0  0  0  0  0  0  0  0  0  0  0
   17.1215  -25.1567   -9.3291 C   0  0  0  0  0  0  0  0  0  0  0  0
   17.2659  -26.2212  -10.3825 C   0  0  0  0  0  0  0  0  0  0  0  0
   15.9467  -26.3594  -11.1115 N   0  0  0  0  0  0  0  0  0  0  0  0
   16.0684  -27.3912  -12.1332 C   0  0  0  0  0  0  0  0  0  0  0  0
   18.3194  -24.3030   -6.0966 O   0  0  0  0  0  0  0  0  0  0  0  0
   19.4874  -24.3853   -5.3793 O   0  0  0  0  0  0  0  0  0  0  0  0
  1  2  1  0
  2  3  2  0
  4  2  1  0
  4  5  1  0
  6  5  1  0
  7  6  1  0
  8 10  1  0
  8  7  1  0
  8  9  1  1
 10 11  2  0
 12 10  1  0
 13 12  1  0
 13 16  1  0
 14 15  1  0
 13 14  1  1
 16 17  2  0
 16 18  1  0
 18 19  1  0
 19 25  1  0
 19 20  1  1
 21 20  1  0
 22 21  1  0
 23 22  1  0
 24 23  1  0
 25 27  2  0
 25 26  1  0
M  END
$$$$
