RCK.pdb
     RDKit          3D

 27 26  0  0  1  0  0  0  0  0999 V2000
   13.9304  -13.5983  -19.6707 N   0  0  0  0  0  0  0  0  0  0  0  0
   13.8836  -12.9525  -18.4011 C   0  0  0  0  0  0  0  0  0  0  0  0
   13.6426  -13.6186  -17.3099 N   0  0  0  0  0  0  0  0  0  0  0  0
   14.0984  -11.5555  -18.2767 N   0  0  0  0  0  0  0  0  0  0  0  0
   14.5799  -10.9606  -17.0756 C   0  0  0  0  0  0  0  0  0  0  0  0
   15.7780  -11.6075  -16.4724 C   0  0  0  0  0  0  0  0  0  0  0  0
   16.2466  -10.9996  -15.2018 C   0  0  0  0  0  0  0  0  0  0  0  0
   17.7211  -10.7291  -15.1162 C   0  0  2  0  0  0  0  0  0  0  0  0
   18.3725  -12.0386  -15.2979 N   0  0  0  0  0  0  0  0  0  0  0  0
   18.1677  -10.1975  -13.8221 C   0  0  0  0  0  0  0  0  0  0  0  0
   18.0423  -10.8734  -12.7499 O   0  0  0  0  0  0  0  0  0  0  0  0
   13.6255  -13.0878  -16.4181 N   0  0  0  0  0  0  0  0  0  0  0  0
   18.7575   -8.9142  -13.6990 C   0  0  2  0  0  0  0  0  0  0  0  0
   19.0264   -8.3677  -12.3944 C   0  0  0  0  0  0  0  0  0  0  0  0
   20.2990   -7.5236  -12.4909 S   0  0  0  0  0  0  0  0  0  0  0  0
   20.6320   -6.7193  -10.9073 C   0  0  0  0  0  0  0  0  0  0  0  0
   17.8869   -7.5252  -11.9206 O   0  0  0  0  0  0  0  0  0  0  0  0
   17.4478   -6.5848  -12.6298 N   0  0  0  0  0  0  0  0  0  0  0  0
   17.2583   -7.7481  -10.6647 C   0  0  1  0  0  0  0  0  0  0  0  0
   16.0733   -6.9631  -10.2987 C   0  0  0  0  0  0  0  0  0  0  0  0
   15.1106   -7.9274   -9.6779 C   0  0  0  0  0  0  0  0  0  0  0  0
   13.8282   -7.3177   -9.2030 C   0  0  0  0  0  0  0  0  0  0  0  0
   12.9259   -8.2980   -8.5039 C   0  0  0  0  0  0  0  0  0  0  0  0
   11.6944   -7.5609   -8.0233 N   0  0  0  0  0  0  0  0  0  0  0  0
   10.8044   -8.4993   -7.3520 C   0  0  0  0  0  0  0  0  0  0  0  0
   16.4656   -5.8701   -9.3733 O   0  0  0  0  0  0  0  0  0  0  0  0
   15.7740   -4.6859   -9.3039 O   0  0  0  0  0  0  0  0  0  0  0  0
  1  2  1  0
  2  3  2  0
  4  2  1  0
  4  5  1  0
  6  5  1  0
  7  6  1  0
  8 10  1  0
  8  7  1  0
  8  9  1  1
 10 11  2  0
 12 10  1  0
 13 12  1  0
 13 16  1  0
 14 15  1  0
 13 14  1  6
 16 17  2  0
 16 18  1  0
 18 19  1  0
 19 25  1  0
 19 20  1  1
 21 20  1  0
 22 21  1  0
 23 22  1  0
 24 23  1  0
 25 27  2  0
 25 26  1  0
M  END
$$$$
