CPF.pdb
     RDKit          3D

 25 26  0  0  1  0  0  0  0  0999 V2000
   24.5682  -18.9355  -15.3391 N   0  0  0  0  0  0  0  0  0  0  0  0
   25.7970  -18.6285  -14.6229 C   0  0  1  0  0  0  0  0  0  0  0  0
   25.6571  -17.1704  -14.2046 C   0  0  0  0  0  0  0  0  0  0  0  0
   27.2281  -16.7075  -13.4128 S   0  0  0  0  0  0  0  0  0  0  0  0
   25.8991  -19.5479  -13.4636 C   0  0  0  0  0  0  0  0  0  0  0  0
   24.9284  -19.6428  -12.6833 O   0  0  0  0  0  0  0  0  0  0  0  0
   27.0573  -20.3541  -13.1709 N   0  0  0  0  0  0  0  0  0  0  0  0
   28.1661  -20.4609  -14.1113 C   0  0  0  0  0  0  0  0  0  0  0  0
   28.7949  -21.8261  -13.7359 C   0  0  0  0  0  0  0  0  0  0  0  0
   28.7444  -21.6755  -12.2013 C   0  0  0  0  0  0  0  0  0  0  0  0
   27.3365  -21.1565  -12.0379 C   0  0  1  0  0  0  0  0  0  0  0  0
   27.1344  -20.5143  -10.7277 C   0  0  0  0  0  0  0  0  0  0  0  0
   27.9734  -19.7105  -10.2825 O   0  0  0  0  0  0  0  0  0  0  0  0
   25.9815  -20.8167   -9.9794 N   0  0  0  0  0  0  0  0  0  0  0  0
   25.9338  -20.8354   -8.5302 C   0  0  1  0  0  0  0  0  0  0  0  0
   26.4862  -19.5496   -8.0340 C   0  0  0  0  0  0  0  0  0  0  0  0
   27.2915  -19.6193   -6.8107 C   0  0  0  0  0  0  0  0  0  0  0  0
   27.0876  -20.6030   -5.8687 C   0  0  0  0  0  0  0  0  0  0  0  0
   27.8279  -20.6914   -4.7095 C   0  0  0  0  0  0  0  0  0  0  0  0
   28.8270  -19.7542   -4.4680 C   0  0  0  0  0  0  0  0  0  0  0  0
   29.0507  -18.7689   -5.3869 C   0  0  0  0  0  0  0  0  0  0  0  0
   28.2944  -18.7059   -6.5368 C   0  0  0  0  0  0  0  0  0  0  0  0
   24.6041  -21.1895   -8.0098 C   0  0  0  0  0  0  0  0  0  0  0  0
   23.6194  -21.1400   -8.7805 O   0  0  0  0  0  0  0  0  0  0  0  0
   24.4353  -21.5686   -6.7031 O   0  0  0  0  0  0  0  0  0  0  0  0
  2  1  1  1
  2  5  1  0
  3  2  1  0
  4  3  1  0
  5  6  2  0
  7  5  1  0
  7 11  1  0
  8  9  1  0
  8  7  1  0
  9 10  1  0
 10 11  1  0
 11 12  1  1
 12 13  2  0
 14 12  1  0
 14 15  1  0
 15 23  1  0
 15 16  1  1
 17 22  1  0
 17 16  1  0
 18 17  2  0
 19 20  2  0
 19 18  1  0
 20 21  1  0
 21 22  2  0
 23 25  1  0
 24 23  2  0
M  END
$$$$
