CPF.pdb
     RDKit          3D

 25 26  0  0  1  0  0  0  0  0999 V2000
   21.8512  -18.5832  -18.5522 N   0  0  0  0  0  0  0  0  0  0  0  0
   22.5526  -17.6118  -17.7266 C   0  0  1  0  0  0  0  0  0  0  0  0
   21.5977  -17.3044  -16.5801 C   0  0  0  0  0  0  0  0  0  0  0  0
   22.4147  -16.0463  -15.5511 S   0  0  0  0  0  0  0  0  0  0  0  0
   23.8206  -18.2267  -17.2645 C   0  0  0  0  0  0  0  0  0  0  0  0
   23.7829  -19.3562  -16.7325 O   0  0  0  0  0  0  0  0  0  0  0  0
   25.1141  -17.6038  -17.3903 N   0  0  0  0  0  0  0  0  0  0  0  0
   25.3054  -16.4069  -18.2004 C   0  0  0  0  0  0  0  0  0  0  0  0
   26.8075  -16.4883  -18.5708 C   0  0  0  0  0  0  0  0  0  0  0  0
   27.3512  -16.9056  -17.1885 C   0  0  0  0  0  0  0  0  0  0  0  0
   26.3594  -17.9873  -16.8356 C   0  0  1  0  0  0  0  0  0  0  0  0
   26.3581  -18.2845  -15.3929 C   0  0  0  0  0  0  0  0  0  0  0  0
   25.7513  -17.5456  -14.5965 O   0  0  0  0  0  0  0  0  0  0  0  0
   27.0504  -19.4143  -14.9185 N   0  0  0  0  0  0  0  0  0  0  0  0
   27.0970  -19.8145  -13.5255 C   0  0  1  0  0  0  0  0  0  0  0  0
   25.7057  -20.0633  -13.0705 C   0  0  0  0  0  0  0  0  0  0  0  0
   25.5328  -20.3537  -11.6438 C   0  0  0  0  0  0  0  0  0  0  0  0
   26.4599  -21.0904  -10.9406 C   0  0  0  0  0  0  0  0  0  0  0  0
   26.3220  -21.3800   -9.6002 C   0  0  0  0  0  0  0  0  0  0  0  0
   25.2041  -20.9144   -8.9158 C   0  0  0  0  0  0  0  0  0  0  0  0
   24.2700  -20.1803   -9.5893 C   0  0  0  0  0  0  0  0  0  0  0  0
   24.4349  -19.9066  -10.9295 C   0  0  0  0  0  0  0  0  0  0  0  0
   28.0432  -20.9143  -13.2815 C   0  0  0  0  0  0  0  0  0  0  0  0
   27.8947  -21.9900  -13.9035 O   0  0  0  0  0  0  0  0  0  0  0  0
   29.0741  -20.7737  -12.3887 O   0  0  0  0  0  0  0  0  0  0  0  0
  2  1  1  6
  2  5  1  0
  3  2  1  0
  4  3  1  0
  5  6  2  0
  7  5  1  0
  7 11  1  0
  8  9  1  0
  8  7  1  0
  9 10  1  0
 10 11  1  0
 11 12  1  1
 12 13  2  0
 14 12  1  0
 14 15  1  0
 15 23  1  0
 15 16  1  6
 17 22  1  0
 17 16  1  0
 18 17  2  0
 19 20  2  0
 19 18  1  0
 20 21  1  0
 21 22  2  0
 23 25  1  0
 24 23  2  0
M  END
$$$$
