CPF.pdb
     RDKit          3D

 25 26  0  0  1  0  0  0  0  0999 V2000
   28.8196  -23.0025  -17.5302 N   0  0  0  0  0  0  0  0  0  0  0  0
   27.7594  -22.0262  -17.3295 C   0  0  1  0  0  0  0  0  0  0  0  0
   26.4852  -22.7274  -17.7825 C   0  0  0  0  0  0  0  0  0  0  0  0
   25.1141  -21.5848  -17.4306 S   0  0  0  0  0  0  0  0  0  0  0  0
   27.7310  -21.6627  -15.8919 C   0  0  0  0  0  0  0  0  0  0  0  0
   27.7841  -22.5741  -15.0394 O   0  0  0  0  0  0  0  0  0  0  0  0
   27.6476  -20.3100  -15.4016 N   0  0  0  0  0  0  0  0  0  0  0  0
   27.7310  -19.1683  -16.3042 C   0  0  0  0  0  0  0  0  0  0  0  0
   28.2432  -18.0407  -15.3734 C   0  0  0  0  0  0  0  0  0  0  0  0
   27.3454  -18.3387  -14.1545 C   0  0  0  0  0  0  0  0  0  0  0  0
   27.5064  -19.8373  -14.0741 C   0  0  1  0  0  0  0  0  0  0  0  0
   26.4384  -20.4645  -13.2769 C   0  0  0  0  0  0  0  0  0  0  0  0
   25.3537  -20.7706  -13.8042 O   0  0  0  0  0  0  0  0  0  0  0  0
   26.6532  -20.7165  -11.9090 N   0  0  0  0  0  0  0  0  0  0  0  0
   25.6910  -21.3668  -11.0405 C   0  0  1  0  0  0  0  0  0  0  0  0
   26.4296  -21.9633   -9.8990 C   0  0  0  0  0  0  0  0  0  0  0  0
   27.0806  -21.0200   -8.9845 C   0  0  0  0  0  0  0  0  0  0  0  0
   26.3498  -20.2130   -8.1410 C   0  0  0  0  0  0  0  0  0  0  0  0
   26.9349  -19.3164   -7.2730 C   0  0  0  0  0  0  0  0  0  0  0  0
   28.3215  -19.2120   -7.2364 C   0  0  0  0  0  0  0  0  0  0  0  0
   29.0699  -20.0019   -8.0617 C   0  0  0  0  0  0  0  0  0  0  0  0
   28.4568  -20.8891   -8.9191 C   0  0  0  0  0  0  0  0  0  0  0  0
   24.5716  -20.4860  -10.6722 C   0  0  0  0  0  0  0  0  0  0  0  0
   23.5158  -20.9982  -10.2376 O   0  0  0  0  0  0  0  0  0  0  0  0
   24.6730  -19.1247  -10.7994 O   0  0  0  0  0  0  0  0  0  0  0  0
  2  1  1  1
  2  5  1  0
  3  2  1  0
  4  3  1  0
  5  6  2  0
  7  5  1  0
  7 11  1  0
  8  9  1  0
  8  7  1  0
  9 10  1  0
 10 11  1  0
 11 12  1  6
 12 13  2  0
 14 12  1  0
 14 15  1  0
 15 23  1  0
 15 16  1  1
 17 22  1  0
 17 16  1  0
 18 17  2  0
 19 20  2  0
 19 18  1  0
 20 21  1  0
 21 22  2  0
 23 25  1  0
 24 23  2  0
M  END
$$$$
