CPF.pdb
     RDKit          3D

 25 26  0  0  1  0  0  0  0  0999 V2000
   26.5738  -21.4537  -16.2527 N   0  0  0  0  0  0  0  0  0  0  0  0
   25.7541  -22.1916  -15.3035 C   0  0  1  0  0  0  0  0  0  0  0  0
   26.3955  -23.5705  -15.2154 C   0  0  0  0  0  0  0  0  0  0  0  0
   25.4091  -24.5233  -14.0202 S   0  0  0  0  0  0  0  0  0  0  0  0
   25.7782  -21.4668  -14.0098 C   0  0  0  0  0  0  0  0  0  0  0  0
   26.8771  -21.0882  -13.5523 O   0  0  0  0  0  0  0  0  0  0  0  0
   24.6038  -21.1616  -13.2322 N   0  0  0  0  0  0  0  0  0  0  0  0
   23.2667  -21.4793  -13.7188 C   0  0  0  0  0  0  0  0  0  0  0  0
   22.3821  -20.4564  -12.9628 C   0  0  0  0  0  0  0  0  0  0  0  0
   23.0399  -20.5838  -11.5730 C   0  0  0  0  0  0  0  0  0  0  0  0
   24.4954  -20.5305  -11.9691 C   0  0  1  0  0  0  0  0  0  0  0  0
   25.3746  -21.0541  -10.9095 C   0  0  0  0  0  0  0  0  0  0  0  0
   25.6020  -22.2744  -10.8235 O   0  0  0  0  0  0  0  0  0  0  0  0
   25.9583  -20.1618   -9.9910 N   0  0  0  0  0  0  0  0  0  0  0  0
   26.4377  -20.5445   -8.6771 C   0  0  1  0  0  0  0  0  0  0  0  0
   27.4998  -19.5872   -8.2769 C   0  0  0  0  0  0  0  0  0  0  0  0
   28.0065  -19.7169   -6.9071 C   0  0  0  0  0  0  0  0  0  0  0  0
   27.5104  -18.9463   -5.8791 C   0  0  0  0  0  0  0  0  0  0  0  0
   27.9691  -19.0457   -4.5832 C   0  0  0  0  0  0  0  0  0  0  0  0
   28.9752  -19.9594   -4.2866 C   0  0  0  0  0  0  0  0  0  0  0  0
   29.4837  -20.7369   -5.2876 C   0  0  0  0  0  0  0  0  0  0  0  0
   29.0052  -20.6151   -6.5738 C   0  0  0  0  0  0  0  0  0  0  0  0
   25.3490  -20.7172   -7.7028 C   0  0  0  0  0  0  0  0  0  0  0  0
   24.3633  -19.9477   -7.7536 O   0  0  0  0  0  0  0  0  0  0  0  0
   25.4035  -21.7016   -6.7502 O   0  0  0  0  0  0  0  0  0  0  0  0
  2  1  1  6
  2  5  1  0
  3  2  1  0
  4  3  1  0
  5  6  2  0
  7  5  1  0
  7 11  1  0
  8  9  1  0
  8  7  1  0
  9 10  1  0
 10 11  1  0
 11 12  1  1
 12 13  2  0
 14 12  1  0
 14 15  1  0
 15 23  1  0
 15 16  1  1
 17 22  1  0
 17 16  1  0
 18 17  2  0
 19 20  2  0
 19 18  1  0
 20 21  1  0
 21 22  2  0
 23 25  1  0
 24 23  2  0
M  END
$$$$
