CPF.pdb
     RDKit          3D

 25 26  0  0  1  0  0  0  0  0999 V2000
   24.1329  -22.6419  -16.0393 N   0  0  0  0  0  0  0  0  0  0  0  0
   23.9172  -21.5702  -15.0790 C   0  0  1  0  0  0  0  0  0  0  0  0
   22.6206  -21.9328  -14.3665 C   0  0  0  0  0  0  0  0  0  0  0  0
   22.2623  -20.5669  -13.2196 S   0  0  0  0  0  0  0  0  0  0  0  0
   25.0814  -21.5299  -14.1610 C   0  0  0  0  0  0  0  0  0  0  0  0
   25.4500  -22.5884  -13.6097 O   0  0  0  0  0  0  0  0  0  0  0  0
   25.8306  -20.3368  -13.8575 N   0  0  0  0  0  0  0  0  0  0  0  0
   25.6668  -19.1173  -14.6393 C   0  0  0  0  0  0  0  0  0  0  0  0
   27.0220  -18.3973  -14.4270 C   0  0  0  0  0  0  0  0  0  0  0  0
   27.1681  -18.6488  -12.9118 C   0  0  0  0  0  0  0  0  0  0  0  0
   26.8065  -20.1133  -12.8559 C   0  0  1  0  0  0  0  0  0  0  0  0
   26.4417  -20.5394  -11.4940 C   0  0  0  0  0  0  0  0  0  0  0  0
   25.2492  -20.5691  -11.1399 O   0  0  0  0  0  0  0  0  0  0  0  0
   27.4545  -20.9143  -10.5916 N   0  0  0  0  0  0  0  0  0  0  0  0
   27.2914  -20.9419   -9.1509 C   0  0  1  0  0  0  0  0  0  0  0  0
   28.5501  -20.4509   -8.5350 C   0  0  0  0  0  0  0  0  0  0  0  0
   28.5106  -20.2019   -7.0906 C   0  0  0  0  0  0  0  0  0  0  0  0
   29.1479  -21.0348   -6.1980 C   0  0  0  0  0  0  0  0  0  0  0  0
   29.1257  -20.8261   -4.8358 C   0  0  0  0  0  0  0  0  0  0  0  0
   28.4345  -19.7314   -4.3271 C   0  0  0  0  0  0  0  0  0  0  0  0
   27.7948  -18.8889   -5.1909 C   0  0  0  0  0  0  0  0  0  0  0  0
   27.8345  -19.1231   -6.5480 C   0  0  0  0  0  0  0  0  0  0  0  0
   26.0667  -20.2600   -8.7044 C   0  0  0  0  0  0  0  0  0  0  0  0
   25.2435  -20.8908   -8.0040 O   0  0  0  0  0  0  0  0  0  0  0  0
   25.8212  -18.9548   -9.0448 O   0  0  0  0  0  0  0  0  0  0  0  0
  2  1  1  6
  2  5  1  0
  3  2  1  0
  4  3  1  0
  5  6  2  0
  7  5  1  0
  7 11  1  0
  8  9  1  0
  8  7  1  0
  9 10  1  0
 10 11  1  0
 11 12  1  1
 12 13  2  0
 14 12  1  0
 14 15  1  0
 15 23  1  0
 15 16  1  1
 17 22  1  0
 17 16  1  0
 18 17  2  0
 19 20  2  0
 19 18  1  0
 20 21  1  0
 21 22  2  0
 23 25  1  0
 24 23  2  0
M  END
$$$$
