CPF.pdb
     RDKit          3D

 25 26  0  0  1  0  0  0  0  0999 V2000
   18.7329  -13.2563  -15.9187 N   0  0  0  0  0  0  0  0  0  0  0  0
   19.7235  -12.3712  -16.5125 C   0  0  1  0  0  0  0  0  0  0  0  0
   19.0048  -11.6956  -17.6734 C   0  0  0  0  0  0  0  0  0  0  0  0
   19.4092  -12.6596  -19.1622 S   0  0  0  0  0  0  0  0  0  0  0  0
   20.1643  -11.4073  -15.4751 C   0  0  0  0  0  0  0  0  0  0  0  0
   19.3030  -10.8729  -14.7452 O   0  0  0  0  0  0  0  0  0  0  0  0
   21.5387  -11.0401  -15.2446 N   0  0  0  0  0  0  0  0  0  0  0  0
   22.6358  -11.7821  -15.8537 C   0  0  0  0  0  0  0  0  0  0  0  0
   23.8095  -11.5056  -14.8810 C   0  0  0  0  0  0  0  0  0  0  0  0
   23.5667   -9.9968  -14.6688 C   0  0  0  0  0  0  0  0  0  0  0  0
   22.0745  -10.0037  -14.4418 C   0  0  1  0  0  0  0  0  0  0  0  0
   21.4817   -8.6688  -14.6326 C   0  0  0  0  0  0  0  0  0  0  0  0
   20.8562   -8.3987  -15.6738 O   0  0  0  0  0  0  0  0  0  0  0  0
   21.6279   -7.6965  -13.6257 N   0  0  0  0  0  0  0  0  0  0  0  0
   21.0853   -6.3541  -13.7059 C   0  0  1  0  0  0  0  0  0  0  0  0
   19.6044   -6.4566  -13.7391 C   0  0  0  0  0  0  0  0  0  0  0  0
   18.9534   -6.8436  -12.4836 C   0  0  0  0  0  0  0  0  0  0  0  0
   18.7705   -5.9420  -11.4587 C   0  0  0  0  0  0  0  0  0  0  0  0
   18.1639   -6.2786  -10.2677 C   0  0  0  0  0  0  0  0  0  0  0  0
   17.7120   -7.5806  -10.0794 C   0  0  0  0  0  0  0  0  0  0  0  0
   17.8799   -8.4942  -11.0805 C   0  0  0  0  0  0  0  0  0  0  0  0
   18.4901   -8.1285  -12.2604 C   0  0  0  0  0  0  0  0  0  0  0  0
   21.6293   -5.4585  -12.6733 C   0  0  0  0  0  0  0  0  0  0  0  0
   21.3780   -4.2344  -12.7400 O   0  0  0  0  0  0  0  0  0  0  0  0
   22.4008   -5.9467  -11.6505 O   0  0  0  0  0  0  0  0  0  0  0  0
  2  1  1  1
  2  5  1  0
  3  2  1  0
  4  3  1  0
  5  6  2  0
  7  5  1  0
  7 11  1  0
  8  9  1  0
  8  7  1  0
  9 10  1  0
 10 11  1  0
 11 12  1  6
 12 13  2  0
 14 12  1  0
 14 15  1  0
 15 23  1  0
 15 16  1  1
 17 22  1  0
 17 16  1  0
 18 17  2  0
 19 20  2  0
 19 18  1  0
 20 21  1  0
 21 22  2  0
 23 25  1  0
 24 23  2  0
M  END
$$$$
