CPF.pdb
     RDKit          3D

 25 26  0  0  1  0  0  0  0  0999 V2000
   23.3679  -22.0393  -15.3007 N   0  0  0  0  0  0  0  0  0  0  0  0
   23.8880  -20.8739  -14.6017 C   0  0  1  0  0  0  0  0  0  0  0  0
   22.6750  -20.2402  -13.9326 C   0  0  0  0  0  0  0  0  0  0  0  0
   22.2502  -18.7715  -14.9185 S   0  0  0  0  0  0  0  0  0  0  0  0
   24.9034  -21.3354  -13.6241 C   0  0  0  0  0  0  0  0  0  0  0  0
   24.6626  -22.3533  -12.9415 O   0  0  0  0  0  0  0  0  0  0  0  0
   26.1695  -20.6828  -13.4048 N   0  0  0  0  0  0  0  0  0  0  0  0
   26.7140  -19.7366  -14.3710 C   0  0  0  0  0  0  0  0  0  0  0  0
   28.2365  -19.8124  -14.0944 C   0  0  0  0  0  0  0  0  0  0  0  0
   28.1791  -19.8065  -12.5526 C   0  0  0  0  0  0  0  0  0  0  0  0
   27.0816  -20.8186  -12.3301 C   0  0  1  0  0  0  0  0  0  0  0  0
   26.5047  -20.7179  -10.9785 C   0  0  0  0  0  0  0  0  0  0  0  0
   25.4587  -20.0723  -10.7850 O   0  0  0  0  0  0  0  0  0  0  0  0
   27.1465  -21.3591   -9.9026 N   0  0  0  0  0  0  0  0  0  0  0  0
   26.9820  -20.9783   -8.5131 C   0  0  1  0  0  0  0  0  0  0  0  0
   28.3190  -21.0002   -7.8676 C   0  0  0  0  0  0  0  0  0  0  0  0
   28.3734  -20.5463   -6.4745 C   0  0  0  0  0  0  0  0  0  0  0  0
   28.4126  -21.4391   -5.4266 C   0  0  0  0  0  0  0  0  0  0  0  0
   28.4621  -21.0407   -4.1080 C   0  0  0  0  0  0  0  0  0  0  0  0
   28.4741  -19.6824   -3.8085 C   0  0  0  0  0  0  0  0  0  0  0  0
   28.4373  -18.7759   -4.8292 C   0  0  0  0  0  0  0  0  0  0  0  0
   28.3881  -19.2040   -6.1378 C   0  0  0  0  0  0  0  0  0  0  0  0
   26.2282  -19.7251   -8.3527 C   0  0  0  0  0  0  0  0  0  0  0  0
   26.6234  -18.6999   -8.9517 O   0  0  0  0  0  0  0  0  0  0  0  0
   25.1098  -19.6703   -7.5616 O   0  0  0  0  0  0  0  0  0  0  0  0
  2  1  1  1
  2  5  1  0
  3  2  1  0
  4  3  1  0
  5  6  2  0
  7  5  1  0
  7 11  1  0
  8  9  1  0
  8  7  1  0
  9 10  1  0
 10 11  1  0
 11 12  1  1
 12 13  2  0
 14 12  1  0
 14 15  1  0
 15 23  1  0
 15 16  1  6
 17 22  1  0
 17 16  1  0
 18 17  2  0
 19 20  2  0
 19 18  1  0
 20 21  1  0
 21 22  2  0
 23 25  1  0
 24 23  2  0
M  END
$$$$
