FQQ.pdb
     RDKit          3D

 30 30  0  0  1  0  0  0  0  0999 V2000
    5.9906  -17.9578   25.5233 N   0  0  0  0  0  0  0  0  0  0  0  0
    6.0465  -16.5477   25.2076 C   0  0  1  0  0  0  0  0  0  0  0  0
    6.4515  -15.8548   26.5165 C   0  0  0  0  0  0  0  0  0  0  0  0
    6.5051  -14.3805   26.3362 C   0  0  0  0  0  0  0  0  0  0  0  0
    7.6759  -13.6606   26.2104 C   0  0  0  0  0  0  0  0  0  0  0  0
    7.6845  -12.2840   26.0442 C   0  0  0  0  0  0  0  0  0  0  0  0
    6.4712  -11.6171   26.0041 C   0  0  0  0  0  0  0  0  0  0  0  0
    5.2964  -12.3135   26.1273 C   0  0  0  0  0  0  0  0  0  0  0  0
    5.3103  -13.6651   26.2899 C   0  0  0  0  0  0  0  0  0  0  0  0
    7.1699  -16.3168   24.2668 C   0  0  0  0  0  0  0  0  0  0  0  0
    8.2050  -17.0415   24.4236 O   0  0  0  0  0  0  0  0  0  0  0  0
    6.9987  -12.8815   18.6687 N   0  0  0  0  0  0  0  0  0  0  0  0
    8.2000  -13.6817   18.7360 C   0  0  0  0  0  0  0  0  0  0  0  0
    8.8770  -13.7182   17.6973 O   0  0  0  0  0  0  0  0  0  0  0  0
    8.5740  -14.3935   19.9455 C   0  0  0  0  0  0  0  0  0  0  0  0
    7.6834  -14.4169   21.1105 C   0  0  0  0  0  0  0  0  0  0  0  0
    8.1542  -15.2797   22.2578 C   0  0  2  0  0  0  0  0  0  0  0  0
    7.1219  -15.3462   23.2364 N   0  0  0  0  0  0  0  0  0  0  0  0
    9.4898  -14.9343   22.7210 C   0  0  0  0  0  0  0  0  0  0  0  0
    9.7483  -13.8590   23.3711 O   0  0  0  0  0  0  0  0  0  0  0  0
   10.0543  -17.8248   26.9484 N   0  0  0  0  0  0  0  0  0  0  0  0
   11.4443  -17.6006   26.9906 C   0  0  0  0  0  0  0  0  0  0  0  0
   12.0859  -17.9248   28.0089 O   0  0  0  0  0  0  0  0  0  0  0  0
   12.0752  -16.9680   25.7698 C   0  0  0  0  0  0  0  0  0  0  0  0
   11.0167  -16.6357   24.7557 C   0  0  0  0  0  0  0  0  0  0  0  0
   11.6112  -16.0527   23.5368 C   0  0  2  0  0  0  0  0  0  0  0  0
   10.6364  -15.7603   22.5051 N   0  0  0  0  0  0  0  0  0  0  0  0
   12.7060  -16.8370   22.9463 C   0  0  0  0  0  0  0  0  0  0  0  0
   12.7073  -17.4441   21.7077 O   0  0  0  0  0  0  0  0  0  0  0  0
   13.8070  -17.0185   23.6004 O   0  0  0  0  0  0  0  0  0  0  0  0
  2  3  1  0
  2  1  1  1
  3  4  1  0
  4  5  2  0
  5  6  1  0
  7  6  2  0
  8  7  1  0
  9  4  1  0
  9  8  2  0
 10 18  1  0
 10  2  1  0
 11 10  2  0
 13 12  1  0
 14 13  2  0
 15 13  1  0
 16 15  1  0
 17 16  1  6
 17 18  1  0
 19 20  2  0
 19 17  1  0
 21 22  1  0
 22 23  2  0
 24 22  1  0
 24 25  1  0
 26 25  1  1
 26 28  1  0
 26 27  1  0
 27 19  1  0
 28 29  1  0
 30 28  2  0
M  END
$$$$
