FQQ.pdb
     RDKit          3D

 30 30  0  0  1  0  0  0  0  0999 V2000
    5.5128  -15.7567   24.8881 N   0  0  0  0  0  0  0  0  0  0  0  0
    6.8826  -15.7651   25.3515 C   0  0  1  0  0  0  0  0  0  0  0  0
    6.9095  -14.8117   26.5548 C   0  0  0  0  0  0  0  0  0  0  0  0
    6.6250  -13.4171   26.1271 C   0  0  0  0  0  0  0  0  0  0  0  0
    5.6289  -12.6314   26.6706 C   0  0  0  0  0  0  0  0  0  0  0  0
    5.3937  -11.3333   26.2435 C   0  0  0  0  0  0  0  0  0  0  0  0
    6.1913  -10.8159   25.2363 C   0  0  0  0  0  0  0  0  0  0  0  0
    7.1864  -11.5798   24.6827 C   0  0  0  0  0  0  0  0  0  0  0  0
    7.4005  -12.8523   25.1167 C   0  0  0  0  0  0  0  0  0  0  0  0
    7.1901  -17.1096   25.8977 C   0  0  0  0  0  0  0  0  0  0  0  0
    6.3712  -17.5807   26.7513 O   0  0  0  0  0  0  0  0  0  0  0  0
    5.9762  -21.3759   27.6717 N   0  0  0  0  0  0  0  0  0  0  0  0
    6.9349  -21.9033   26.7279 C   0  0  0  0  0  0  0  0  0  0  0  0
    7.6318  -22.8422   27.1418 O   0  0  0  0  0  0  0  0  0  0  0  0
    7.0649  -21.3566   25.3886 C   0  0  0  0  0  0  0  0  0  0  0  0
    7.1604  -19.9090   25.1729 C   0  0  0  0  0  0  0  0  0  0  0  0
    8.3941  -19.2565   25.7513 C   0  0  2  0  0  0  0  0  0  0  0  0
    8.3295  -17.8551   25.5078 N   0  0  0  0  0  0  0  0  0  0  0  0
    9.6257  -19.9400   25.3860 C   0  0  0  0  0  0  0  0  0  0  0  0
    9.6454  -21.0897   24.8174 O   0  0  0  0  0  0  0  0  0  0  0  0
   13.5651  -16.1330   22.7758 N   0  0  0  0  0  0  0  0  0  0  0  0
   12.6083  -15.9845   23.7988 C   0  0  0  0  0  0  0  0  0  0  0  0
   12.4365  -14.8645   24.3182 O   0  0  0  0  0  0  0  0  0  0  0  0
   11.8392  -17.2223   24.2047 C   0  0  0  0  0  0  0  0  0  0  0  0
   12.7825  -18.3774   24.3924 C   0  0  0  0  0  0  0  0  0  0  0  0
   12.0499  -19.6145   24.7268 C   0  0  2  0  0  0  0  0  0  0  0  0
   10.9271  -19.3949   25.6163 N   0  0  0  0  0  0  0  0  0  0  0  0
   12.8815  -20.6981   25.2714 C   0  0  0  0  0  0  0  0  0  0  0  0
   12.6736  -21.3800   26.4522 O   0  0  0  0  0  0  0  0  0  0  0  0
   13.9312  -21.1011   24.6320 O   0  0  0  0  0  0  0  0  0  0  0  0
  2  3  1  0
  2  1  1  1
  3  4  1  0
  4  5  2  0
  5  6  1  0
  7  6  2  0
  8  7  1  0
  9  4  1  0
  9  8  2  0
 10 18  1  0
 10  2  1  0
 11 10  2  0
 13 12  1  0
 14 13  2  0
 15 13  1  0
 16 15  1  0
 17 16  1  6
 17 18  1  0
 19 20  2  0
 19 17  1  0
 21 22  1  0
 22 23  2  0
 24 22  1  0
 24 25  1  0
 26 25  1  1
 26 28  1  0
 26 27  1  0
 27 19  1  0
 28 29  1  0
 30 28  2  0
M  END
$$$$
