FQQ.pdb
     RDKit          3D

 30 30  0  0  1  0  0  0  0  0999 V2000
    6.1467  -16.5130   25.0604 N   0  0  0  0  0  0  0  0  0  0  0  0
    7.3532  -15.8962   24.5553 C   0  0  1  0  0  0  0  0  0  0  0  0
    7.8125  -14.9370   25.6628 C   0  0  0  0  0  0  0  0  0  0  0  0
    7.0268  -13.6760   25.6253 C   0  0  0  0  0  0  0  0  0  0  0  0
    5.9633  -13.4043   26.4620 C   0  0  0  0  0  0  0  0  0  0  0  0
    5.2538  -12.2149   26.3956 C   0  0  0  0  0  0  0  0  0  0  0  0
    5.6331  -11.2726   25.4540 C   0  0  0  0  0  0  0  0  0  0  0  0
    6.6870  -11.5227   24.6130 C   0  0  0  0  0  0  0  0  0  0  0  0
    7.3701  -12.6974   24.6948 C   0  0  0  0  0  0  0  0  0  0  0  0
    8.4103  -16.9324   24.4579 C   0  0  0  0  0  0  0  0  0  0  0  0
    8.3570  -17.8844   25.3016 O   0  0  0  0  0  0  0  0  0  0  0  0
   11.7071  -18.7541   19.2328 N   0  0  0  0  0  0  0  0  0  0  0  0
   10.8349  -17.7063   19.7117 C   0  0  0  0  0  0  0  0  0  0  0  0
   10.5670  -16.8165   18.8901 O   0  0  0  0  0  0  0  0  0  0  0  0
   10.3180  -17.7069   21.0690 C   0  0  0  0  0  0  0  0  0  0  0  0
   11.2191  -17.8509   22.2171 C   0  0  0  0  0  0  0  0  0  0  0  0
   10.5484  -17.7801   23.5690 C   0  0  2  0  0  0  0  0  0  0  0  0
    9.4394  -16.8909   23.4856 N   0  0  0  0  0  0  0  0  0  0  0  0
   11.4870  -17.5736   24.6616 C   0  0  0  0  0  0  0  0  0  0  0  0
   12.0723  -16.4529   24.8785 O   0  0  0  0  0  0  0  0  0  0  0  0
   12.2255  -15.7901   30.5404 N   0  0  0  0  0  0  0  0  0  0  0  0
   11.4206  -16.0171   29.4070 C   0  0  0  0  0  0  0  0  0  0  0  0
   11.0516  -15.0485   28.7144 O   0  0  0  0  0  0  0  0  0  0  0  0
   11.0519  -17.4523   29.1027 C   0  0  0  0  0  0  0  0  0  0  0  0
   10.8581  -17.6326   27.6232 C   0  0  0  0  0  0  0  0  0  0  0  0
   12.0012  -18.3450   27.0191 C   0  0  2  0  0  0  0  0  0  0  0  0
   11.8394  -18.5925   25.6004 N   0  0  0  0  0  0  0  0  0  0  0  0
   12.3645  -19.6062   27.6822 C   0  0  0  0  0  0  0  0  0  0  0  0
   13.0959  -19.7434   28.8436 O   0  0  0  0  0  0  0  0  0  0  0  0
   11.9964  -20.7394   27.1787 O   0  0  0  0  0  0  0  0  0  0  0  0
  2  3  1  0
  2  1  1  1
  3  4  1  0
  4  5  2  0
  5  6  1  0
  7  6  2  0
  8  7  1  0
  9  4  1  0
  9  8  2  0
 10 18  1  0
 10  2  1  0
 11 10  2  0
 13 12  1  0
 14 13  2  0
 15 13  1  0
 16 15  1  0
 17 16  1  6
 17 18  1  0
 19 20  2  0
 19 17  1  0
 21 22  1  0
 22 23  2  0
 24 22  1  0
 24 25  1  0
 26 25  1  1
 26 28  1  0
 26 27  1  0
 27 19  1  0
 28 29  1  0
 30 28  2  0
M  END
$$$$
