FQQ.pdb
     RDKit          3D

 30 30  0  0  1  0  0  0  0  0999 V2000
    6.1356  -16.6940   24.8406 N   0  0  0  0  0  0  0  0  0  0  0  0
    7.1961  -15.8086   24.4133 C   0  0  1  0  0  0  0  0  0  0  0  0
    7.7007  -15.1316   25.6957 C   0  0  0  0  0  0  0  0  0  0  0  0
    7.1764  -13.7447   25.7993 C   0  0  0  0  0  0  0  0  0  0  0  0
    7.5380  -12.7177   24.9511 C   0  0  0  0  0  0  0  0  0  0  0  0
    7.0269  -11.4354   25.0808 C   0  0  0  0  0  0  0  0  0  0  0  0
    6.1224  -11.1860   26.0998 C   0  0  0  0  0  0  0  0  0  0  0  0
    5.7499  -12.1924   26.9536 C   0  0  0  0  0  0  0  0  0  0  0  0
    6.2641  -13.4446   26.8087 C   0  0  0  0  0  0  0  0  0  0  0  0
    8.3291  -16.6294   23.9202 C   0  0  0  0  0  0  0  0  0  0  0  0
    8.3883  -17.8310   24.3369 O   0  0  0  0  0  0  0  0  0  0  0  0
   10.5767  -18.9790   19.9943 N   0  0  0  0  0  0  0  0  0  0  0  0
    9.9096  -17.7801   19.5408 C   0  0  0  0  0  0  0  0  0  0  0  0
    9.1434  -17.9268   18.5765 O   0  0  0  0  0  0  0  0  0  0  0  0
   10.1351  -16.4953   20.1794 C   0  0  0  0  0  0  0  0  0  0  0  0
   10.9973  -16.3832   21.3606 C   0  0  0  0  0  0  0  0  0  0  0  0
   10.4106  -16.9420   22.6357 C   0  0  2  0  0  0  0  0  0  0  0  0
    9.3106  -16.1285   23.0303 N   0  0  0  0  0  0  0  0  0  0  0  0
   11.4163  -17.2376   23.6450 C   0  0  0  0  0  0  0  0  0  0  0  0
   12.0699  -16.3270   24.2688 O   0  0  0  0  0  0  0  0  0  0  0  0
   11.4604  -20.2183   28.4092 N   0  0  0  0  0  0  0  0  0  0  0  0
   12.7985  -19.8642   28.1482 C   0  0  0  0  0  0  0  0  0  0  0  0
   13.4059  -19.1316   28.9533 O   0  0  0  0  0  0  0  0  0  0  0  0
   13.4186  -20.4098   26.8808 C   0  0  0  0  0  0  0  0  0  0  0  0
   12.4917  -20.1921   25.7178 C   0  0  0  0  0  0  0  0  0  0  0  0
   12.6867  -18.8545   25.1244 C   0  0  2  0  0  0  0  0  0  0  0  0
   11.7653  -18.5652   24.0439 N   0  0  0  0  0  0  0  0  0  0  0  0
   14.0560  -18.5738   24.6680 C   0  0  0  0  0  0  0  0  0  0  0  0
   14.5512  -18.7550   23.3934 O   0  0  0  0  0  0  0  0  0  0  0  0
   14.9383  -18.1112   25.4930 O   0  0  0  0  0  0  0  0  0  0  0  0
  2  3  1  0
  2  1  1  1
  3  4  1  0
  4  5  2  0
  5  6  1  0
  7  6  2  0
  8  7  1  0
  9  4  1  0
  9  8  2  0
 10 18  1  0
 10  2  1  0
 11 10  2  0
 13 12  1  0
 14 13  2  0
 15 13  1  0
 16 15  1  0
 17 16  1  6
 17 18  1  0
 19 20  2  0
 19 17  1  0
 21 22  1  0
 22 23  2  0
 24 22  1  0
 24 25  1  0
 26 25  1  6
 26 28  1  0
 26 27  1  0
 27 19  1  0
 28 29  1  0
 30 28  2  0
M  END
$$$$
