FQQ.pdb
     RDKit          3D

 30 30  0  0  1  0  0  0  0  0999 V2000
    6.0561  -18.1063   24.8528 N   0  0  0  0  0  0  0  0  0  0  0  0
    6.6044  -16.7809   24.6692 C   0  0  1  0  0  0  0  0  0  0  0  0
    6.7677  -16.2098   26.0850 C   0  0  0  0  0  0  0  0  0  0  0  0
    7.0287  -14.7475   26.0353 C   0  0  0  0  0  0  0  0  0  0  0  0
    8.2851  -14.1843   26.1301 C   0  0  0  0  0  0  0  0  0  0  0  0
    8.4879  -12.8135   26.0802 C   0  0  0  0  0  0  0  0  0  0  0  0
    7.3852  -11.9890   25.9295 C   0  0  0  0  0  0  0  0  0  0  0  0
    6.1281  -12.5283   25.8335 C   0  0  0  0  0  0  0  0  0  0  0  0
    5.9511  -13.8771   25.8851 C   0  0  0  0  0  0  0  0  0  0  0  0
    7.9791  -16.9076   24.1263 C   0  0  0  0  0  0  0  0  0  0  0  0
    8.6161  -17.9687   24.4253 O   0  0  0  0  0  0  0  0  0  0  0  0
    9.9918  -14.2554   18.6805 N   0  0  0  0  0  0  0  0  0  0  0  0
   10.3034  -13.5392   19.8962 C   0  0  0  0  0  0  0  0  0  0  0  0
   10.6398  -12.3546   19.7475 O   0  0  0  0  0  0  0  0  0  0  0  0
   10.2273  -14.1790   21.1978 C   0  0  0  0  0  0  0  0  0  0  0  0
    9.8527  -15.5917   21.3209 C   0  0  0  0  0  0  0  0  0  0  0  0
    9.8593  -16.1342   22.7309 C   0  0  2  0  0  0  0  0  0  0  0  0
    8.5788  -15.9146   23.3137 N   0  0  0  0  0  0  0  0  0  0  0  0
   11.0216  -15.7136   23.4988 C   0  0  0  0  0  0  0  0  0  0  0  0
   12.2123  -15.7130   23.0215 O   0  0  0  0  0  0  0  0  0  0  0  0
    9.9788  -17.1842   29.2875 N   0  0  0  0  0  0  0  0  0  0  0  0
   11.3859  -17.1801   29.3519 C   0  0  0  0  0  0  0  0  0  0  0  0
   11.9527  -17.5964   30.3811 O   0  0  0  0  0  0  0  0  0  0  0  0
   12.1273  -16.6590   28.1405 C   0  0  0  0  0  0  0  0  0  0  0  0
   11.1495  -16.1916   27.0989 C   0  0  0  0  0  0  0  0  0  0  0  0
   11.8481  -15.7041   25.8933 C   0  0  2  0  0  0  0  0  0  0  0  0
   10.9483  -15.2538   24.8504 N   0  0  0  0  0  0  0  0  0  0  0  0
   12.8123  -16.6500   25.3121 C   0  0  0  0  0  0  0  0  0  0  0  0
   14.1874  -16.5751   25.3915 O   0  0  0  0  0  0  0  0  0  0  0  0
   12.3989  -17.6771   24.6434 O   0  0  0  0  0  0  0  0  0  0  0  0
  2  3  1  0
  2  1  1  1
  3  4  1  0
  4  5  2  0
  5  6  1  0
  7  6  2  0
  8  7  1  0
  9  4  1  0
  9  8  2  0
 10 18  1  0
 10  2  1  0
 11 10  2  0
 13 12  1  0
 14 13  2  0
 15 13  1  0
 16 15  1  0
 17 16  1  6
 17 18  1  0
 19 20  2  0
 19 17  1  0
 21 22  1  0
 22 23  2  0
 24 22  1  0
 24 25  1  0
 26 25  1  1
 26 28  1  0
 26 27  1  0
 27 19  1  0
 28 29  1  0
 30 28  2  0
M  END
$$$$
