FQQ.pdb
     RDKit          3D

 30 30  0  0  1  0  0  0  0  0999 V2000
    8.3871  -14.9578   15.7837 N   0  0  0  0  0  0  0  0  0  0  0  0
    8.6948  -14.2292   16.9944 C   0  0  1  0  0  0  0  0  0  0  0  0
    7.3343  -13.8464   17.5941 C   0  0  0  0  0  0  0  0  0  0  0  0
    7.4996  -13.3003   18.9665 C   0  0  0  0  0  0  0  0  0  0  0  0
    8.0045  -12.0457   19.2422 C   0  0  0  0  0  0  0  0  0  0  0  0
    8.1443  -11.5720   20.5378 C   0  0  0  0  0  0  0  0  0  0  0  0
    7.7608  -12.3933   21.5851 C   0  0  0  0  0  0  0  0  0  0  0  0
    7.2568  -13.6435   21.3330 C   0  0  0  0  0  0  0  0  0  0  0  0
    7.1281  -14.0893   20.0531 C   0  0  0  0  0  0  0  0  0  0  0  0
    9.3131  -15.1641   17.9660 C   0  0  0  0  0  0  0  0  0  0  0  0
    8.7990  -16.3260   18.0479 O   0  0  0  0  0  0  0  0  0  0  0  0
   15.3965  -15.5750   18.3102 N   0  0  0  0  0  0  0  0  0  0  0  0
   14.6939  -14.4796   18.9381 C   0  0  0  0  0  0  0  0  0  0  0  0
   15.3649  -13.4542   19.1304 O   0  0  0  0  0  0  0  0  0  0  0  0
   13.2961  -14.5889   19.3169 C   0  0  0  0  0  0  0  0  0  0  0  0
   12.5524  -15.8338   19.0979 C   0  0  0  0  0  0  0  0  0  0  0  0
   11.1065  -15.7999   19.5345 C   0  0  2  0  0  0  0  0  0  0  0  0
   10.4204  -14.8099   18.7752 N   0  0  0  0  0  0  0  0  0  0  0  0
   10.9477  -15.7590   20.9804 C   0  0  0  0  0  0  0  0  0  0  0  0
   10.8773  -14.6643   21.6455 O   0  0  0  0  0  0  0  0  0  0  0  0
    7.2893  -17.5165   26.6233 N   0  0  0  0  0  0  0  0  0  0  0  0
    7.8198  -18.0476   25.4315 C   0  0  0  0  0  0  0  0  0  0  0  0
    7.0945  -18.7460   24.6966 O   0  0  0  0  0  0  0  0  0  0  0  0
    9.2648  -17.7261   25.1197 C   0  0  0  0  0  0  0  0  0  0  0  0
    9.5040  -17.8107   23.6382 C   0  0  0  0  0  0  0  0  0  0  0  0
   10.5756  -16.8864   23.2181 C   0  0  2  0  0  0  0  0  0  0  0  0
   10.8463  -16.9293   21.7951 N   0  0  0  0  0  0  0  0  0  0  0  0
   11.8437  -17.0373   23.9470 C   0  0  0  0  0  0  0  0  0  0  0  0
   12.1299  -16.5555   25.2074 O   0  0  0  0  0  0  0  0  0  0  0  0
   12.8348  -17.6721   23.4104 O   0  0  0  0  0  0  0  0  0  0  0  0
  2  3  1  0
  2  1  1  6
  3  4  1  0
  4  5  2  0
  5  6  1  0
  7  6  2  0
  8  7  1  0
  9  4  1  0
  9  8  2  0
 10 18  1  0
 10  2  1  0
 11 10  2  0
 13 12  1  0
 14 13  2  0
 15 13  1  0
 16 15  1  0
 17 16  1  1
 17 18  1  0
 19 20  2  0
 19 17  1  0
 21 22  1  0
 22 23  2  0
 24 22  1  0
 24 25  1  0
 26 25  1  1
 26 28  1  0
 26 27  1  0
 27 19  1  0
 28 29  1  0
 30 28  2  0
M  END
$$$$
