FQQ.pdb
     RDKit          3D

 30 30  0  0  1  0  0  0  0  0999 V2000
    5.7307  -17.8322   25.4642 N   0  0  0  0  0  0  0  0  0  0  0  0
    6.0797  -16.4541   25.1994 C   0  0  1  0  0  0  0  0  0  0  0  0
    6.8275  -15.9771   26.4526 C   0  0  0  0  0  0  0  0  0  0  0  0
    6.9342  -14.4948   26.4688 C   0  0  0  0  0  0  0  0  0  0  0  0
    8.0868  -13.8007   26.1610 C   0  0  0  0  0  0  0  0  0  0  0  0
    8.1468  -12.4156   26.1883 C   0  0  0  0  0  0  0  0  0  0  0  0
    7.0054  -11.7130   26.5376 C   0  0  0  0  0  0  0  0  0  0  0  0
    5.8499  -12.3834   26.8472 C   0  0  0  0  0  0  0  0  0  0  0  0
    5.8126  -13.7438   26.8143 C   0  0  0  0  0  0  0  0  0  0  0  0
    7.0755  -16.4202   24.1004 C   0  0  0  0  0  0  0  0  0  0  0  0
    7.9289  -17.3646   24.0729 O   0  0  0  0  0  0  0  0  0  0  0  0
    7.1675  -12.5211   18.7980 N   0  0  0  0  0  0  0  0  0  0  0  0
    8.1953  -13.5321   18.7016 C   0  0  0  0  0  0  0  0  0  0  0  0
    8.7886  -13.5894   17.6138 O   0  0  0  0  0  0  0  0  0  0  0  0
    8.4987  -14.4177   19.8120 C   0  0  0  0  0  0  0  0  0  0  0  0
    7.6948  -14.3894   21.0384 C   0  0  0  0  0  0  0  0  0  0  0  0
    8.0620  -15.4325   22.0677 C   0  0  2  0  0  0  0  0  0  0  0  0
    7.0999  -15.4011   23.1170 N   0  0  0  0  0  0  0  0  0  0  0  0
    9.4655  -15.3884   22.4493 C   0  0  0  0  0  0  0  0  0  0  0  0
    9.9396  -14.5270   23.2732 O   0  0  0  0  0  0  0  0  0  0  0  0
   13.6673  -18.5928   26.4228 N   0  0  0  0  0  0  0  0  0  0  0  0
   12.7731  -18.8326   25.3613 C   0  0  0  0  0  0  0  0  0  0  0  0
   11.8449  -19.6502   25.5159 O   0  0  0  0  0  0  0  0  0  0  0  0
   13.0070  -18.0643   24.0794 C   0  0  0  0  0  0  0  0  0  0  0  0
   11.7050  -17.8567   23.3575 C   0  0  0  0  0  0  0  0  0  0  0  0
   11.6979  -16.5719   22.6306 C   0  0  2  0  0  0  0  0  0  0  0  0
   10.4460  -16.3023   21.9522 N   0  0  0  0  0  0  0  0  0  0  0  0
   12.8023  -16.3952   21.6760 C   0  0  0  0  0  0  0  0  0  0  0  0
   12.9966  -17.0968   20.5044 O   0  0  0  0  0  0  0  0  0  0  0  0
   13.7215  -15.5121   21.8957 O   0  0  0  0  0  0  0  0  0  0  0  0
  2  3  1  0
  2  1  1  1
  3  4  1  0
  4  5  2  0
  5  6  1  0
  7  6  2  0
  8  7  1  0
  9  4  1  0
  9  8  2  0
 10 18  1  0
 10  2  1  0
 11 10  2  0
 13 12  1  0
 14 13  2  0
 15 13  1  0
 16 15  1  0
 17 16  1  6
 17 18  1  0
 19 20  2  0
 19 17  1  0
 21 22  1  0
 22 23  2  0
 24 22  1  0
 24 25  1  0
 26 25  1  6
 26 28  1  0
 26 27  1  0
 27 19  1  0
 28 29  1  0
 30 28  2  0
M  END
$$$$
