FQQ.pdb
     RDKit          3D

 30 30  0  0  1  0  0  0  0  0999 V2000
    8.5780  -15.2341   25.1574 N   0  0  0  0  0  0  0  0  0  0  0  0
    7.4208  -15.7846   24.4872 C   0  0  1  0  0  0  0  0  0  0  0  0
    6.2679  -14.8249   24.8145 C   0  0  0  0  0  0  0  0  0  0  0  0
    6.7195  -13.7590   25.7466 C   0  0  0  0  0  0  0  0  0  0  0  0
    7.2264  -12.5417   25.3392 C   0  0  0  0  0  0  0  0  0  0  0  0
    7.6384  -11.5720   26.2407 C   0  0  0  0  0  0  0  0  0  0  0  0
    7.5335  -11.8435   27.5948 C   0  0  0  0  0  0  0  0  0  0  0  0
    7.0326  -13.0469   28.0207 C   0  0  0  0  0  0  0  0  0  0  0  0
    6.6339  -13.9854   27.1187 C   0  0  0  0  0  0  0  0  0  0  0  0
    7.6271  -15.6794   23.0220 C   0  0  0  0  0  0  0  0  0  0  0  0
    6.7914  -16.2912   22.2816 O   0  0  0  0  0  0  0  0  0  0  0  0
    7.2064  -12.2836   18.0334 N   0  0  0  0  0  0  0  0  0  0  0  0
    8.0315  -13.4623   18.1675 C   0  0  0  0  0  0  0  0  0  0  0  0
    7.6866  -14.4371   17.4825 O   0  0  0  0  0  0  0  0  0  0  0  0
    9.1823  -13.4894   19.0531 C   0  0  0  0  0  0  0  0  0  0  0  0
    9.0113  -13.5898   20.5063 C   0  0  0  0  0  0  0  0  0  0  0  0
    8.9347  -14.9991   21.0451 C   0  0  2  0  0  0  0  0  0  0  0  0
    8.6913  -14.9424   22.4469 N   0  0  0  0  0  0  0  0  0  0  0  0
   10.0304  -15.8432   20.5930 C   0  0  0  0  0  0  0  0  0  0  0  0
   10.2323  -16.1254   19.3580 O   0  0  0  0  0  0  0  0  0  0  0  0
   14.7177  -14.0761   18.5781 N   0  0  0  0  0  0  0  0  0  0  0  0
   14.8586  -14.2415   19.9698 C   0  0  0  0  0  0  0  0  0  0  0  0
   15.9834  -14.1111   20.4909 O   0  0  0  0  0  0  0  0  0  0  0  0
   13.6070  -14.5733   20.7522 C   0  0  0  0  0  0  0  0  0  0  0  0
   12.8785  -15.7148   20.1000 C   0  0  0  0  0  0  0  0  0  0  0  0
   12.3701  -16.6670   21.1070 C   0  0  2  0  0  0  0  0  0  0  0  0
   10.9890  -16.4299   21.4764 N   0  0  0  0  0  0  0  0  0  0  0  0
   13.1788  -16.7632   22.3313 C   0  0  0  0  0  0  0  0  0  0  0  0
   13.4391  -15.7466   23.2266 O   0  0  0  0  0  0  0  0  0  0  0  0
   13.7344  -17.8835   22.6617 O   0  0  0  0  0  0  0  0  0  0  0  0
  2  3  1  0
  2  1  1  1
  3  4  1  0
  4  5  2  0
  5  6  1  0
  7  6  2  0
  8  7  1  0
  9  4  1  0
  9  8  2  0
 10 18  1  0
 10  2  1  0
 11 10  2  0
 13 12  1  0
 14 13  2  0
 15 13  1  0
 16 15  1  0
 17 16  1  1
 17 18  1  0
 19 20  2  0
 19 17  1  0
 21 22  1  0
 22 23  2  0
 24 22  1  0
 24 25  1  0
 26 25  1  6
 26 28  1  0
 26 27  1  0
 27 19  1  0
 28 29  1  0
 30 28  2  0
M  END
$$$$
