IRI.pdb
     RDKit          3D

 28 27  0  0  1  0  0  0  0  0999 V2000
   28.6874  -18.0540  -15.9140 C   0  0  0  0  0  0  0  0  0  0  0  0
   28.1401  -19.1397  -15.0575 C   0  0  0  0  0  0  0  0  0  0  0  0
   26.6576  -19.3802  -15.2510 C   0  0  2  0  0  0  0  0  0  0  0  0
   25.8398  -18.1742  -14.8784 C   0  0  0  0  0  0  0  0  0  0  0  0
   26.1960  -20.5398  -14.3838 C   0  0  2  0  0  0  0  0  0  0  0  0
   26.9644  -21.7398  -14.6692 N   0  0  0  0  0  0  0  0  0  0  0  0
   24.7493  -20.7896  -14.6638 C   0  0  0  0  0  0  0  0  0  0  0  0
   24.3687  -21.5199  -15.6115 O   0  0  0  0  0  0  0  0  0  0  0  0
   23.0742  -21.5093   -8.4966 N   0  0  0  0  0  0  0  0  0  0  0  0
   21.8984  -20.7060   -8.3063 C   0  0  0  0  0  0  0  0  0  0  0  0
   21.7458  -20.0264   -7.2169 N   0  0  0  0  0  0  0  0  0  0  0  0
   20.8959  -20.6557   -9.3186 N   0  0  0  0  0  0  0  0  0  0  0  0
   21.1643  -21.4074  -10.5398 C   0  0  0  0  0  0  0  0  0  0  0  0
   21.6177  -20.5040  -11.6525 C   0  0  0  0  0  0  0  0  0  0  0  0
   21.8669  -21.3200  -12.8849 C   0  0  0  0  0  0  0  0  0  0  0  0
   22.3250  -20.4785  -14.0193 C   0  0  2  0  0  0  0  0  0  0  0  0
   23.7732  -20.1823  -13.8323 N   0  0  0  0  0  0  0  0  0  0  0  0
   21.6228  -19.2123  -14.2247 C   0  0  0  0  0  0  0  0  0  0  0  0
   21.7319  -18.2881  -13.3921 O   0  0  0  0  0  0  0  0  0  0  0  0
   20.9455  -19.4022   -7.0681 C   0  0  0  0  0  0  0  0  0  0  0  0
   20.8082  -15.2260  -18.4505 C   0  0  0  0  0  0  0  0  0  0  0  0
   20.1112  -15.8187  -17.2735 C   0  0  2  0  0  0  0  0  0  0  0  0
   20.7128  -17.0997  -16.8041 C   0  0  0  0  0  0  0  0  0  0  0  0
   20.7154  -18.1209  -17.9638 C   0  0  2  0  0  0  0  0  0  0  0  0
   20.1161  -17.7167  -15.5839 N   0  0  0  0  0  0  0  0  0  0  0  0
   20.7994  -18.9840  -15.3634 C   0  0  0  0  0  0  0  0  0  0  0  0
   18.6677  -17.9275  -15.5833 O   0  0  0  0  0  0  0  0  0  0  0  0
   18.1080  -19.1977  -15.4841 O   0  0  0  0  0  0  0  0  0  0  0  0
  1  2  1  0
  3  2  1  0
  3  4  1  1
  5  3  1  0
  5  6  1  6
  7  5  1  0
  8  7  2  0
  9 10  1  0
 10 11  2  0
 12 13  1  0
 12 10  1  0
 13 14  1  0
 14 15  1  0
 16 15  1  1
 16 17  1  0
 17  7  1  0
 18 16  1  0
 18 19  2  0
 21 20  1  0
 21 22  1  0
 22 23  1  1
 24 22  1  0
 24 25  1  6
 25 18  1  0
 26 24  1  0
 27 26  1  0
 28 26  2  0
M  END
$$$$
