IRI.pdb
     RDKit          3D

 28 27  0  0  1  0  0  0  0  0999 V2000
   29.0282  -19.1355   -5.8779 C   0  0  0  0  0  0  0  0  0  0  0  0
   27.9407  -20.0217   -6.3717 C   0  0  0  0  0  0  0  0  0  0  0  0
   27.3612  -19.5918   -7.7030 C   0  0  2  0  0  0  0  0  0  0  0  0
   26.6374  -18.2773   -7.6022 C   0  0  0  0  0  0  0  0  0  0  0  0
   26.3706  -20.6297   -8.2044 C   0  0  2  0  0  0  0  0  0  0  0  0
   26.9927  -21.9399   -8.2954 N   0  0  0  0  0  0  0  0  0  0  0  0
   25.8885  -20.2061   -9.5541 C   0  0  0  0  0  0  0  0  0  0  0  0
   25.1781  -19.1842   -9.7192 O   0  0  0  0  0  0  0  0  0  0  0  0
   28.9737  -22.4254  -17.4392 N   0  0  0  0  0  0  0  0  0  0  0  0
   27.9647  -21.4590  -17.7736 C   0  0  0  0  0  0  0  0  0  0  0  0
   27.8868  -20.9914  -18.9765 N   0  0  0  0  0  0  0  0  0  0  0  0
   27.0457  -21.0123  -16.7793 N   0  0  0  0  0  0  0  0  0  0  0  0
   27.3898  -21.3094  -15.3930 C   0  0  0  0  0  0  0  0  0  0  0  0
   26.3778  -20.7358  -14.4408 C   0  0  0  0  0  0  0  0  0  0  0  0
   26.8149  -21.0013  -13.0318 C   0  0  0  0  0  0  0  0  0  0  0  0
   25.7770  -20.6001  -12.0485 C   0  0  2  0  0  0  0  0  0  0  0  0
   26.2445  -20.9832  -10.6866 N   0  0  0  0  0  0  0  0  0  0  0  0
   24.4373  -21.1528  -12.2435 C   0  0  0  0  0  0  0  0  0  0  0  0
   24.1826  -22.3261  -11.9000 O   0  0  0  0  0  0  0  0  0  0  0  0
   27.1481  -20.3407  -19.2647 C   0  0  0  0  0  0  0  0  0  0  0  0
   18.9322  -19.7922  -10.9611 C   0  0  0  0  0  0  0  0  0  0  0  0
   19.7216  -20.5356  -11.9842 C   0  0  2  0  0  0  0  0  0  0  0  0
   21.1727  -20.1931  -11.9858 C   0  0  0  0  0  0  0  0  0  0  0  0
   21.3397  -18.6669  -12.1609 C   0  0  2  0  0  0  0  0  0  0  0  0
   22.0341  -20.9152  -12.9667 N   0  0  0  0  0  0  0  0  0  0  0  0
   23.3849  -20.3893  -12.8234 C   0  0  0  0  0  0  0  0  0  0  0  0
   21.6294  -20.8664  -14.3724 O   0  0  0  0  0  0  0  0  0  0  0  0
   20.6492  -21.7098  -14.8866 O   0  0  0  0  0  0  0  0  0  0  0  0
  1  2  1  0
  3  2  1  0
  3  4  1  1
  5  3  1  0
  5  6  1  6
  7  5  1  0
  8  7  2  0
  9 10  1  0
 10 11  2  0
 12 13  1  0
 12 10  1  0
 13 14  1  0
 14 15  1  0
 16 15  1  6
 16 17  1  0
 17  7  1  0
 18 16  1  0
 18 19  2  0
 21 20  1  0
 21 22  1  0
 22 23  1  1
 24 22  1  0
 24 25  1  6
 25 18  1  0
 26 24  1  0
 27 26  1  0
 28 26  2  0
M  END
$$$$
