IRI.pdb
     RDKit          3D

 28 27  0  0  1  0  0  0  0  0999 V2000
   25.3228  -18.7243  -21.7125 C   0  0  0  0  0  0  0  0  0  0  0  0
   25.2831  -18.1802  -20.3289 C   0  0  0  0  0  0  0  0  0  0  0  0
   24.7252  -19.1498  -19.3083 C   0  0  2  0  0  0  0  0  0  0  0  0
   23.3310  -19.5926  -19.6579 C   0  0  0  0  0  0  0  0  0  0  0  0
   24.6745  -18.4972  -17.9366 C   0  0  2  0  0  0  0  0  0  0  0  0
   25.9982  -18.0701  -17.5156 N   0  0  0  0  0  0  0  0  0  0  0  0
   24.1326  -19.4924  -16.9622 C   0  0  0  0  0  0  0  0  0  0  0  0
   23.0405  -20.0830  -17.1482 O   0  0  0  0  0  0  0  0  0  0  0  0
   26.0596  -19.8151   -9.3307 N   0  0  0  0  0  0  0  0  0  0  0  0
   25.0690  -20.8385   -9.1422 C   0  0  0  0  0  0  0  0  0  0  0  0
   24.2722  -20.7912   -8.1251 N   0  0  0  0  0  0  0  0  0  0  0  0
   24.9617  -21.9098  -10.0768 N   0  0  0  0  0  0  0  0  0  0  0  0
   25.5778  -21.7001  -11.3825 C   0  0  0  0  0  0  0  0  0  0  0  0
   24.6665  -20.9381  -12.3039 C   0  0  0  0  0  0  0  0  0  0  0  0
   25.3187  -20.8013  -13.6465 C   0  0  0  0  0  0  0  0  0  0  0  0
   24.3167  -20.6736  -14.7350 C   0  0  2  0  0  0  0  0  0  0  0  0
   24.8756  -19.7799  -15.7881 N   0  0  0  0  0  0  0  0  0  0  0  0
   22.9977  -20.1667  -14.3588 C   0  0  0  0  0  0  0  0  0  0  0  0
   22.8769  -19.0244  -13.8689 O   0  0  0  0  0  0  0  0  0  0  0  0
   23.5703  -21.5172   -7.9447 C   0  0  0  0  0  0  0  0  0  0  0  0
   17.6186  -19.2855  -16.3413 C   0  0  0  0  0  0  0  0  0  0  0  0
   18.3265  -19.6538  -15.0822 C   0  0  2  0  0  0  0  0  0  0  0  0
   19.7454  -20.0621  -15.2905 C   0  0  0  0  0  0  0  0  0  0  0  0
   19.8074  -21.1752  -16.3604 C   0  0  2  0  0  0  0  0  0  0  0  0
   20.5116  -20.4767  -14.0795 N   0  0  0  0  0  0  0  0  0  0  0  0
   21.8158  -20.9411  -14.5325 C   0  0  0  0  0  0  0  0  0  0  0  0
   19.8983  -21.4865  -13.2155 O   0  0  0  0  0  0  0  0  0  0  0  0
   20.4580  -22.7492  -13.0458 O   0  0  0  0  0  0  0  0  0  0  0  0
  1  2  1  0
  3  2  1  0
  3  4  1  6
  5  3  1  0
  5  6  1  1
  7  5  1  0
  8  7  2  0
  9 10  1  0
 10 11  2  0
 12 13  1  0
 12 10  1  0
 13 14  1  0
 14 15  1  0
 16 15  1  1
 16 17  1  0
 17  7  1  0
 18 16  1  0
 18 19  2  0
 21 20  1  0
 21 22  1  0
 22 23  1  6
 24 22  1  0
 24 25  1  1
 25 18  1  0
 26 24  1  0
 27 26  1  0
 28 26  2  0
M  END
$$$$
