IRI.pdb
     RDKit          3D

 28 27  0  0  1  0  0  0  0  0999 V2000
   18.4469  -21.0954  -12.5210 C   0  0  0  0  0  0  0  0  0  0  0  0
   19.0031  -22.4638  -12.3485 C   0  0  0  0  0  0  0  0  0  0  0  0
   18.3376  -23.2576  -11.2439 C   0  0  2  0  0  0  0  0  0  0  0  0
   18.5623  -22.6368   -9.8925 C   0  0  0  0  0  0  0  0  0  0  0  0
   18.8948  -24.6710  -11.2037 C   0  0  2  0  0  0  0  0  0  0  0  0
   18.7427  -25.3260  -12.4920 N   0  0  0  0  0  0  0  0  0  0  0  0
   18.1538  -25.4391  -10.1574 C   0  0  0  0  0  0  0  0  0  0  0  0
   16.8997  -25.4917  -10.1301 O   0  0  0  0  0  0  0  0  0  0  0  0
   19.7938  -33.1484   -7.9003 N   0  0  0  0  0  0  0  0  0  0  0  0
   19.2328  -32.3883   -8.9828 C   0  0  0  0  0  0  0  0  0  0  0  0
   19.1834  -32.8921  -10.1725 N   0  0  0  0  0  0  0  0  0  0  0  0
   18.7288  -31.0756   -8.7480 N   0  0  0  0  0  0  0  0  0  0  0  0
   18.6667  -30.6402   -7.3570 C   0  0  0  0  0  0  0  0  0  0  0  0
   18.0729  -29.2643   -7.2380 C   0  0  0  0  0  0  0  0  0  0  0  0
   18.7200  -28.3554   -8.2391 C   0  0  0  0  0  0  0  0  0  0  0  0
   18.1934  -26.9702   -8.1465 C   0  0  2  0  0  0  0  0  0  0  0  0
   18.8903  -26.1317   -9.1620 N   0  0  0  0  0  0  0  0  0  0  0  0
   18.3108  -26.3070   -6.8485 C   0  0  0  0  0  0  0  0  0  0  0  0
   19.3665  -25.7191   -6.5336 O   0  0  0  0  0  0  0  0  0  0  0  0
   19.5922  -33.8054  -10.3982 C   0  0  0  0  0  0  0  0  0  0  0  0
   14.5657  -23.5516   -2.9223 C   0  0  0  0  0  0  0  0  0  0  0  0
   15.8511  -24.2954   -3.0516 C   0  0  2  0  0  0  0  0  0  0  0  0
   16.0433  -24.9310   -4.3866 C   0  0  0  0  0  0  0  0  0  0  0  0
   14.8749  -25.9031   -4.6653 C   0  0  2  0  0  0  0  0  0  0  0  0
   17.3456  -25.6191   -4.6238 N   0  0  0  0  0  0  0  0  0  0  0  0
   17.2444  -26.3038   -5.9054 C   0  0  0  0  0  0  0  0  0  0  0  0
   17.8020  -26.5558   -3.5958 O   0  0  0  0  0  0  0  0  0  0  0  0
   17.9610  -27.9138   -3.8546 O   0  0  0  0  0  0  0  0  0  0  0  0
  1  2  1  0
  3  2  1  0
  3  4  1  1
  5  3  1  0
  5  6  1  6
  7  5  1  0
  8  7  2  0
  9 10  1  0
 10 11  2  0
 12 13  1  0
 12 10  1  0
 13 14  1  0
 14 15  1  0
 16 15  1  1
 16 17  1  0
 17  7  1  0
 18 16  1  0
 18 19  2  0
 21 20  1  0
 21 22  1  0
 22 23  1  6
 24 22  1  0
 24 25  1  1
 25 18  1  0
 26 24  1  0
 27 26  1  0
 28 26  2  0
M  END
$$$$
