IRI.pdb
     RDKit          3D

 28 27  0  0  1  0  0  0  0  0999 V2000
   28.8182  -18.6848  -18.1966 C   0  0  0  0  0  0  0  0  0  0  0  0
   28.8618  -19.7593  -17.1693 C   0  0  0  0  0  0  0  0  0  0  0  0
   27.5575  -19.9415  -16.4219 C   0  0  2  0  0  0  0  0  0  0  0  0
   27.1339  -18.6825  -15.7164 C   0  0  0  0  0  0  0  0  0  0  0  0
   27.6999  -21.0344  -15.3754 C   0  0  2  0  0  0  0  0  0  0  0  0
   28.1012  -22.2900  -15.9870 N   0  0  0  0  0  0  0  0  0  0  0  0
   26.3819  -21.2055  -14.6919 C   0  0  0  0  0  0  0  0  0  0  0  0
   25.4185  -21.7975  -15.2373 O   0  0  0  0  0  0  0  0  0  0  0  0
   22.6586  -22.5120   -8.6151 N   0  0  0  0  0  0  0  0  0  0  0  0
   22.1622  -21.2714   -8.0872 C   0  0  0  0  0  0  0  0  0  0  0  0
   21.0237  -21.2356   -7.4752 N   0  0  0  0  0  0  0  0  0  0  0  0
   22.9238  -20.0756   -8.2366 N   0  0  0  0  0  0  0  0  0  0  0  0
   24.1529  -20.1785   -9.0157 C   0  0  0  0  0  0  0  0  0  0  0  0
   23.8682  -20.5478  -10.4448 C   0  0  0  0  0  0  0  0  0  0  0  0
   25.1515  -20.5637  -11.2192 C   0  0  0  0  0  0  0  0  0  0  0  0
   24.9234  -20.8557  -12.6571 C   0  0  2  0  0  0  0  0  0  0  0  0
   26.2126  -20.6825  -13.3839 N   0  0  0  0  0  0  0  0  0  0  0  0
   23.9050  -20.0565  -13.3373 C   0  0  0  0  0  0  0  0  0  0  0  0
   24.0394  -18.8194  -13.4414 O   0  0  0  0  0  0  0  0  0  0  0  0
   20.6445  -20.3712   -7.0738 C   0  0  0  0  0  0  0  0  0  0  0  0
   22.6599  -20.5383  -18.1860 C   0  0  0  0  0  0  0  0  0  0  0  0
   22.8184  -20.0744  -16.7781 C   0  0  2  0  0  0  0  0  0  0  0  0
   21.5960  -20.2609  -15.9451 C   0  0  0  0  0  0  0  0  0  0  0  0
   20.3999  -19.5563  -16.6238 C   0  0  2  0  0  0  0  0  0  0  0  0
   21.6860  -19.8466  -14.5147 N   0  0  0  0  0  0  0  0  0  0  0  0
   22.7374  -20.6455  -13.8998 C   0  0  0  0  0  0  0  0  0  0  0  0
   20.4629  -19.9371  -13.7159 O   0  0  0  0  0  0  0  0  0  0  0  0
   20.1439  -21.0764  -12.9833 O   0  0  0  0  0  0  0  0  0  0  0  0
  1  2  1  0
  3  2  1  0
  3  4  1  1
  5  3  1  0
  5  6  1  6
  7  5  1  0
  8  7  2  0
  9 10  1  0
 10 11  2  0
 12 13  1  0
 12 10  1  0
 13 14  1  0
 14 15  1  0
 16 15  1  1
 16 17  1  0
 17  7  1  0
 18 16  1  0
 18 19  2  0
 21 20  1  0
 21 22  1  0
 22 23  1  1
 24 22  1  0
 24 25  1  1
 25 18  1  0
 26 24  1  0
 27 26  1  0
 28 26  2  0
M  END
$$$$
