IRI.pdb
     RDKit          3D

 28 27  0  0  1  0  0  0  0  0999 V2000
   26.7399  -13.3363  -16.1743 C   0  0  0  0  0  0  0  0  0  0  0  0
   26.8129  -14.6665  -16.8355 C   0  0  0  0  0  0  0  0  0  0  0  0
   26.2232  -15.7908  -16.0100 C   0  0  2  0  0  0  0  0  0  0  0  0
   27.2890  -16.6711  -15.4174 C   0  0  0  0  0  0  0  0  0  0  0  0
   25.3281  -16.6634  -16.8744 C   0  0  2  0  0  0  0  0  0  0  0  0
   24.2368  -15.8883  -17.4400 N   0  0  0  0  0  0  0  0  0  0  0  0
   24.7777  -17.7613  -16.0227 C   0  0  0  0  0  0  0  0  0  0  0  0
   23.8416  -17.5697  -15.2084 O   0  0  0  0  0  0  0  0  0  0  0  0
   25.0440  -25.3512  -14.8254 N   0  0  0  0  0  0  0  0  0  0  0  0
   23.6471  -25.5395  -15.1038 C   0  0  0  0  0  0  0  0  0  0  0  0
   22.9725  -26.4366  -14.4622 N   0  0  0  0  0  0  0  0  0  0  0  0
   23.0004  -24.7370  -16.0889 N   0  0  0  0  0  0  0  0  0  0  0  0
   23.7815  -23.6412  -16.6525 C   0  0  0  0  0  0  0  0  0  0  0  0
   24.0120  -22.5538  -15.6405 C   0  0  0  0  0  0  0  0  0  0  0  0
   24.4969  -21.3194  -16.3391 C   0  0  0  0  0  0  0  0  0  0  0  0
   24.7415  -20.2073  -15.3860 C   0  0  2  0  0  0  0  0  0  0  0  0
   25.3302  -19.0631  -16.1373 N   0  0  0  0  0  0  0  0  0  0  0  0
   25.6078  -20.4979  -14.2443 C   0  0  0  0  0  0  0  0  0  0  0  0
   26.8320  -20.6797  -14.4113 O   0  0  0  0  0  0  0  0  0  0  0  0
   21.9604  -26.5520  -14.5836 C   0  0  0  0  0  0  0  0  0  0  0  0
   26.5979  -19.4730   -8.4256 C   0  0  0  0  0  0  0  0  0  0  0  0
   26.5871  -20.5435   -9.4630 C   0  0  2  0  0  0  0  0  0  0  0  0
   25.9065  -20.1444  -10.7282 C   0  0  0  0  0  0  0  0  0  0  0  0
   24.4702  -19.6708  -10.4110 C   0  0  2  0  0  0  0  0  0  0  0  0
   25.8787  -21.1545  -11.8257 N   0  0  0  0  0  0  0  0  0  0  0  0
   25.1005  -20.5843  -12.9170 C   0  0  0  0  0  0  0  0  0  0  0  0
   25.3673  -22.4854  -11.4945 O   0  0  0  0  0  0  0  0  0  0  0  0
   24.0842  -22.8908  -11.8489 O   0  0  0  0  0  0  0  0  0  0  0  0
  1  2  1  0
  3  2  1  0
  3  4  1  6
  5  3  1  0
  5  6  1  1
  7  5  1  0
  8  7  2  0
  9 10  1  0
 10 11  2  0
 12 13  1  0
 12 10  1  0
 13 14  1  0
 14 15  1  0
 16 15  1  6
 16 17  1  0
 17  7  1  0
 18 16  1  0
 18 19  2  0
 21 20  1  0
 21 22  1  0
 22 23  1  6
 24 22  1  0
 24 25  1  1
 25 18  1  0
 26 24  1  0
 27 26  1  0
 28 26  2  0
M  END
$$$$
