IRI.pdb
     RDKit          3D

 28 27  0  0  1  0  0  0  0  0999 V2000
   29.8257  -22.5541  -16.5087 C   0  0  0  0  0  0  0  0  0  0  0  0
   28.9631  -21.6066  -17.2637 C   0  0  0  0  0  0  0  0  0  0  0  0
   27.8738  -20.9726  -16.4244 C   0  0  2  0  0  0  0  0  0  0  0  0
   26.9080  -21.9954  -15.8921 C   0  0  0  0  0  0  0  0  0  0  0  0
   27.0829  -19.9761  -17.2559 C   0  0  2  0  0  0  0  0  0  0  0  0
   27.9448  -18.9200  -17.7593 N   0  0  0  0  0  0  0  0  0  0  0  0
   26.0149  -19.3863  -16.3926 C   0  0  0  0  0  0  0  0  0  0  0  0
   26.2647  -18.5192  -15.5197 O   0  0  0  0  0  0  0  0  0  0  0  0
   18.9401  -16.4281  -19.1858 N   0  0  0  0  0  0  0  0  0  0  0  0
   19.9465  -15.4613  -18.8443 C   0  0  0  0  0  0  0  0  0  0  0  0
   19.8373  -14.2391  -19.2515 N   0  0  0  0  0  0  0  0  0  0  0  0
   21.0693  -15.8472  -18.0549 N   0  0  0  0  0  0  0  0  0  0  0  0
   21.1125  -17.2388  -17.6192 C   0  0  0  0  0  0  0  0  0  0  0  0
   22.3458  -17.5223  -16.8077 C   0  0  0  0  0  0  0  0  0  0  0  0
   22.4101  -18.9872  -16.4966 C   0  0  0  0  0  0  0  0  0  0  0  0
   23.5946  -19.3224  -15.6662 C   0  0  2  0  0  0  0  0  0  0  0  0
   24.6748  -19.8193  -16.5642 N   0  0  0  0  0  0  0  0  0  0  0  0
   23.3958  -20.3067  -14.6032 C   0  0  0  0  0  0  0  0  0  0  0  0
   23.4480  -21.5283  -14.8567 O   0  0  0  0  0  0  0  0  0  0  0  0
   20.5389  -13.5237  -19.0319 C   0  0  0  0  0  0  0  0  0  0  0  0
   26.2901  -20.9228  -10.3805 C   0  0  0  0  0  0  0  0  0  0  0  0
   25.2955  -21.2080  -11.4536 C   0  0  2  0  0  0  0  0  0  0  0  0
   23.9290  -20.6909  -11.1563 C   0  0  0  0  0  0  0  0  0  0  0  0
   23.4420  -21.2721   -9.8099 C   0  0  2  0  0  0  0  0  0  0  0  0
   22.8883  -20.8956  -12.2053 N   0  0  0  0  0  0  0  0  0  0  0  0
   23.1387  -19.9200  -13.2575 C   0  0  0  0  0  0  0  0  0  0  0  0
   21.4895  -20.8194  -11.7810 O   0  0  0  0  0  0  0  0  0  0  0  0
   20.7537  -21.9563  -11.4608 O   0  0  0  0  0  0  0  0  0  0  0  0
  1  2  1  0
  3  2  1  0
  3  4  1  6
  5  3  1  0
  5  6  1  1
  7  5  1  0
  8  7  2  0
  9 10  1  0
 10 11  2  0
 12 13  1  0
 12 10  1  0
 13 14  1  0
 14 15  1  0
 16 15  1  6
 16 17  1  0
 17  7  1  0
 18 16  1  0
 18 19  2  0
 21 20  1  0
 21 22  1  0
 22 23  1  6
 24 22  1  0
 24 25  1  6
 25 18  1  0
 26 24  1  0
 27 26  1  0
 28 26  2  0
M  END
$$$$
