VNH.pdb
     RDKit          3D

 26 26  0  0  1  0  0  0  0  0999 V2000
    8.7146  -12.5485   20.8131 C   0  0  0  0  0  0  0  0  0  0  0  0
    8.0055  -13.2382   19.6641 C   0  0  1  0  0  0  0  0  0  0  0  0
    7.5677  -12.1881   18.6679 C   0  0  0  0  0  0  0  0  0  0  0  0
    8.8698  -14.2245   18.9598 C   0  0  2  0  0  0  0  0  0  0  0  0
    8.2018  -14.6915   17.7795 N   0  0  0  0  0  0  0  0  0  0  0  0
    9.3792  -15.3040   19.8247 C   0  0  0  0  0  0  0  0  0  0  0  0
    8.7365  -16.3835   19.8500 O   0  0  0  0  0  0  0  0  0  0  0  0
   13.2032  -14.5268   19.7484 N   0  0  0  0  0  0  0  0  0  0  0  0
   13.3438  -15.3235   20.9186 C   0  0  0  0  0  0  0  0  0  0  0  0
   14.1425  -14.9727   21.7925 O   0  0  0  0  0  0  0  0  0  0  0  0
   12.5340  -16.5385   21.0500 C   0  0  0  0  0  0  0  0  0  0  0  0
   11.0981  -16.2723   21.4327 C   0  0  2  0  0  0  0  0  0  0  0  0
   10.5333  -15.2151   20.6248 N   0  0  0  0  0  0  0  0  0  0  0  0
   10.9909  -15.9880   22.8790 C   0  0  0  0  0  0  0  0  0  0  0  0
   11.7701  -15.1656   23.4088 O   0  0  0  0  0  0  0  0  0  0  0  0
   10.0273  -16.6181   23.7032 N   0  0  0  0  0  0  0  0  0  0  0  0
   10.0041  -16.4178   25.1661 C   0  0  1  0  0  0  0  0  0  0  0  0
    8.5875  -16.4241   25.6423 C   0  0  0  0  0  0  0  0  0  0  0  0
    7.9275  -15.1592   25.2943 C   0  0  0  0  0  0  0  0  0  0  0  0
    8.5748  -14.0288   24.8352 C   0  0  0  0  0  0  0  0  0  0  0  0
    7.6933  -13.0469   24.6097 N   0  0  0  0  0  0  0  0  0  0  0  0
    6.4901  -13.5676   24.9300 C   0  0  0  0  0  0  0  0  0  0  0  0
    6.6310  -14.8346   25.3406 N   0  0  0  0  0  0  0  0  0  0  0  0
   10.7262  -17.5800   25.7411 C   0  0  0  0  0  0  0  0  0  0  0  0
   10.9504  -17.7247   27.1172 O   0  0  0  0  0  0  0  0  0  0  0  0
   11.1659  -18.4888   24.9752 O   0  0  0  0  0  0  0  0  0  0  0  0
  2  1  1  1
  3  2  1  0
  4  2  1  0
  4  6  1  0
  4  5  1  6
  6 13  1  0
  6  7  2  0
  9 10  2  0
  9  8  1  0
 11  9  1  0
 12 11  1  6
 13 12  1  0
 14 12  1  0
 14 15  2  0
 16 14  1  0
 17 16  1  0
 17 18  1  1
 19 18  1  0
 19 23  1  0
 20 21  1  0
 20 19  2  0
 21 22  1  0
 22 23  2  0
 24 17  1  0
 25 24  1  0
 26 24  2  0
M  END
$$$$
