VNH.pdb
     RDKit          3D

 26 26  0  0  1  0  0  0  0  0999 V2000
    8.7702  -12.0493   18.7714 C   0  0  0  0  0  0  0  0  0  0  0  0
    8.7490  -13.1832   19.7777 C   0  0  1  0  0  0  0  0  0  0  0  0
    7.3944  -13.2064   20.4495 C   0  0  0  0  0  0  0  0  0  0  0  0
    8.9888  -14.5138   19.1546 C   0  0  2  0  0  0  0  0  0  0  0  0
    8.1293  -14.6730   18.0174 N   0  0  0  0  0  0  0  0  0  0  0  0
    8.9390  -15.6405   20.1037 C   0  0  0  0  0  0  0  0  0  0  0  0
    7.9912  -16.4578   19.9896 O   0  0  0  0  0  0  0  0  0  0  0  0
   12.3178  -19.5540   23.0060 N   0  0  0  0  0  0  0  0  0  0  0  0
   11.0411  -19.1553   22.5211 C   0  0  0  0  0  0  0  0  0  0  0  0
   10.0414  -19.7937   22.8642 O   0  0  0  0  0  0  0  0  0  0  0  0
   10.9528  -17.9963   21.6276 C   0  0  0  0  0  0  0  0  0  0  0  0
    9.8965  -16.9968   22.0327 C   0  0  2  0  0  0  0  0  0  0  0  0
    9.8753  -15.8691   21.1289 N   0  0  0  0  0  0  0  0  0  0  0  0
   10.0865  -16.5825   23.4386 C   0  0  0  0  0  0  0  0  0  0  0  0
   11.1523  -16.0257   23.7824 O   0  0  0  0  0  0  0  0  0  0  0  0
    9.0962  -16.7930   24.4285 N   0  0  0  0  0  0  0  0  0  0  0  0
    9.2939  -16.3700   25.8295 C   0  0  1  0  0  0  0  0  0  0  0  0
    7.9655  -16.0765   26.4482 C   0  0  0  0  0  0  0  0  0  0  0  0
    7.5142  -14.7308   26.0714 C   0  0  0  0  0  0  0  0  0  0  0  0
    8.2807  -13.7976   25.4011 C   0  0  0  0  0  0  0  0  0  0  0  0
    7.5814  -12.6724   25.2087 N   0  0  0  0  0  0  0  0  0  0  0  0
    6.3726  -12.9051   25.7620 C   0  0  0  0  0  0  0  0  0  0  0  0
    6.3327  -14.1398   26.2794 N   0  0  0  0  0  0  0  0  0  0  0  0
    9.9152  -17.5308   26.5146 C   0  0  0  0  0  0  0  0  0  0  0  0
   10.4393  -17.4504   27.8121 O   0  0  0  0  0  0  0  0  0  0  0  0
    9.9846  -18.6481   25.9208 O   0  0  0  0  0  0  0  0  0  0  0  0
  2  1  1  6
  3  2  1  0
  4  2  1  0
  4  6  1  0
  4  5  1  6
  6 13  1  0
  6  7  2  0
  9 10  2  0
  9  8  1  0
 11  9  1  0
 12 11  1  6
 13 12  1  0
 14 12  1  0
 14 15  2  0
 16 14  1  0
 17 16  1  0
 17 18  1  1
 19 18  1  0
 19 23  1  0
 20 21  1  0
 20 19  2  0
 21 22  1  0
 22 23  2  0
 24 17  1  0
 25 24  1  0
 26 24  2  0
M  END
$$$$
