VNH.pdb
     RDKit          3D

 26 26  0  0  1  0  0  0  0  0999 V2000
    9.0797  -12.9593   21.2069 C   0  0  0  0  0  0  0  0  0  0  0  0
    7.8973  -13.6319   20.5372 C   0  0  1  0  0  0  0  0  0  0  0  0
    7.1973  -12.6167   19.6619 C   0  0  0  0  0  0  0  0  0  0  0  0
    8.2945  -14.7901   19.6904 C   0  0  2  0  0  0  0  0  0  0  0  0
    7.1654  -15.2350   18.9258 N   0  0  0  0  0  0  0  0  0  0  0  0
    8.9792  -15.8676   20.4272 C   0  0  0  0  0  0  0  0  0  0  0  0
    8.2742  -16.8046   20.8790 O   0  0  0  0  0  0  0  0  0  0  0  0
   14.5294  -18.1557   21.6862 N   0  0  0  0  0  0  0  0  0  0  0  0
   13.1722  -18.3333   21.2984 C   0  0  0  0  0  0  0  0  0  0  0  0
   12.6435  -19.4390   21.4492 O   0  0  0  0  0  0  0  0  0  0  0  0
   12.4428  -17.1954   20.7306 C   0  0  0  0  0  0  0  0  0  0  0  0
   11.0760  -16.9873   21.3369 C   0  0  2  0  0  0  0  0  0  0  0  0
   10.3654  -15.9246   20.6622 N   0  0  0  0  0  0  0  0  0  0  0  0
   11.1844  -16.7510   22.7917 C   0  0  0  0  0  0  0  0  0  0  0  0
   11.8577  -17.5327   23.4985 O   0  0  0  0  0  0  0  0  0  0  0  0
   10.5473  -15.6588   23.4291 N   0  0  0  0  0  0  0  0  0  0  0  0
   10.6539  -15.4374   24.8852 C   0  0  1  0  0  0  0  0  0  0  0  0
    9.3396  -14.9550   25.4082 C   0  0  0  0  0  0  0  0  0  0  0  0
    9.4439  -14.6450   26.8399 C   0  0  0  0  0  0  0  0  0  0  0  0
   10.6041  -14.7263   27.5849 C   0  0  0  0  0  0  0  0  0  0  0  0
   10.3665  -14.3792   28.8558 N   0  0  0  0  0  0  0  0  0  0  0  0
    9.0514  -14.0799   28.9036 C   0  0  0  0  0  0  0  0  0  0  0  0
    8.4984  -14.2395   27.6943 N   0  0  0  0  0  0  0  0  0  0  0  0
   10.9640  -16.7654   25.4707 C   0  0  0  0  0  0  0  0  0  0  0  0
   11.9160  -16.9404   26.4846 O   0  0  0  0  0  0  0  0  0  0  0  0
   10.3554  -17.7950   25.0519 O   0  0  0  0  0  0  0  0  0  0  0  0
  2  1  1  6
  3  2  1  0
  4  2  1  0
  4  6  1  0
  4  5  1  1
  6 13  1  0
  6  7  2  0
  9 10  2  0
  9  8  1  0
 11  9  1  0
 12 11  1  6
 13 12  1  0
 14 12  1  0
 14 15  2  0
 16 14  1  0
 17 16  1  0
 17 18  1  1
 19 18  1  0
 19 23  1  0
 20 21  1  0
 20 19  2  0
 21 22  1  0
 22 23  2  0
 24 17  1  0
 25 24  1  0
 26 24  2  0
M  END
$$$$
