VNH.pdb
     RDKit          3D

 26 26  0  0  1  0  0  0  0  0999 V2000
    8.9174  -12.8335   20.0942 C   0  0  0  0  0  0  0  0  0  0  0  0
    8.1561  -13.3715   18.8985 C   0  0  1  0  0  0  0  0  0  0  0  0
    7.2031  -12.3025   18.4129 C   0  0  0  0  0  0  0  0  0  0  0  0
    9.0480  -13.7554   17.7702 C   0  0  2  0  0  0  0  0  0  0  0  0
    8.2541  -14.0926   16.6241 N   0  0  0  0  0  0  0  0  0  0  0  0
   10.0560  -14.7728   18.1191 C   0  0  0  0  0  0  0  0  0  0  0  0
   10.4186  -15.5682   17.2163 O   0  0  0  0  0  0  0  0  0  0  0  0
   15.1620  -15.2481   17.8075 N   0  0  0  0  0  0  0  0  0  0  0  0
   14.3579  -15.2145   18.9806 C   0  0  0  0  0  0  0  0  0  0  0  0
   14.8119  -15.6717   20.0340 O   0  0  0  0  0  0  0  0  0  0  0  0
   13.0128  -14.6368   18.9014 C   0  0  0  0  0  0  0  0  0  0  0  0
   11.9713  -15.4171   19.6663 C   0  0  2  0  0  0  0  0  0  0  0  0
   10.6428  -14.9193   19.3895 N   0  0  0  0  0  0  0  0  0  0  0  0
   12.2789  -15.4142   21.1119 C   0  0  0  0  0  0  0  0  0  0  0  0
   12.5590  -14.3380   21.6841 O   0  0  0  0  0  0  0  0  0  0  0  0
   12.2697  -16.5981   21.8885 N   0  0  0  0  0  0  0  0  0  0  0  0
   11.6163  -16.6560   23.2115 C   0  0  1  0  0  0  0  0  0  0  0  0
   10.4260  -17.5565   23.1347 C   0  0  0  0  0  0  0  0  0  0  0  0
    9.2431  -16.8014   22.7018 C   0  0  0  0  0  0  0  0  0  0  0  0
    9.2095  -15.4373   22.4877 C   0  0  0  0  0  0  0  0  0  0  0  0
    7.9858  -15.0569   22.1005 N   0  0  0  0  0  0  0  0  0  0  0  0
    7.2525  -16.1896   22.0732 C   0  0  0  0  0  0  0  0  0  0  0  0
    8.0070  -17.2357   22.4339 N   0  0  0  0  0  0  0  0  0  0  0  0
   12.6236  -17.2420   24.1305 C   0  0  0  0  0  0  0  0  0  0  0  0
   12.4262  -17.3220   25.5160 O   0  0  0  0  0  0  0  0  0  0  0  0
   13.7122  -17.6937   23.6650 O   0  0  0  0  0  0  0  0  0  0  0  0
  2  1  1  1
  3  2  1  0
  4  2  1  0
  4  6  1  0
  4  5  1  6
  6 13  1  0
  6  7  2  0
  9 10  2  0
  9  8  1  0
 11  9  1  0
 12 11  1  6
 13 12  1  0
 14 12  1  0
 14 15  2  0
 16 14  1  0
 17 16  1  0
 17 18  1  6
 19 18  1  0
 19 23  1  0
 20 21  1  0
 20 19  2  0
 21 22  1  0
 22 23  2  0
 24 17  1  0
 25 24  1  0
 26 24  2  0
M  END
$$$$
