VNH.pdb
     RDKit          3D

 26 26  0  0  1  0  0  0  0  0999 V2000
    8.2151  -12.3526   18.8495 C   0  0  0  0  0  0  0  0  0  0  0  0
    8.4583  -13.3408   19.9734 C   0  0  1  0  0  0  0  0  0  0  0  0
    7.2272  -13.3861   20.8504 C   0  0  0  0  0  0  0  0  0  0  0  0
    8.7377  -14.7179   19.4820 C   0  0  2  0  0  0  0  0  0  0  0  0
    7.7357  -15.1001   18.5296 N   0  0  0  0  0  0  0  0  0  0  0  0
    8.9521  -15.7073   20.5534 C   0  0  0  0  0  0  0  0  0  0  0  0
    7.9712  -16.4111   20.9022 O   0  0  0  0  0  0  0  0  0  0  0  0
   11.5582  -19.6601   21.3484 N   0  0  0  0  0  0  0  0  0  0  0  0
   12.0002  -18.3146   21.2133 C   0  0  0  0  0  0  0  0  0  0  0  0
   12.5564  -17.9667   20.1672 O   0  0  0  0  0  0  0  0  0  0  0  0
   11.7806  -17.3819   22.3228 C   0  0  0  0  0  0  0  0  0  0  0  0
   10.3927  -16.7889   22.3514 C   0  0  2  0  0  0  0  0  0  0  0  0
   10.1751  -15.9223   21.2151 N   0  0  0  0  0  0  0  0  0  0  0  0
   10.1500  -16.0982   23.6352 C   0  0  0  0  0  0  0  0  0  0  0  0
   10.4498  -14.8901   23.7558 O   0  0  0  0  0  0  0  0  0  0  0  0
    9.5830  -16.7579   24.7524 N   0  0  0  0  0  0  0  0  0  0  0  0
    9.0813  -16.0125   25.9244 C   0  0  1  0  0  0  0  0  0  0  0  0
    7.6563  -15.6273   25.6909 C   0  0  0  0  0  0  0  0  0  0  0  0
    7.4047  -14.2730   26.2002 C   0  0  0  0  0  0  0  0  0  0  0  0
    8.3462  -13.4709   26.8147 C   0  0  0  0  0  0  0  0  0  0  0  0
    7.8026  -12.2981   27.1629 N   0  0  0  0  0  0  0  0  0  0  0  0
    6.5155  -12.3694   26.7635 C   0  0  0  0  0  0  0  0  0  0  0  0
    6.2772  -13.5541   26.1862 N   0  0  0  0  0  0  0  0  0  0  0  0
    9.1592  -16.9592   27.0647 C   0  0  0  0  0  0  0  0  0  0  0  0
    9.4218  -16.5417   28.3768 O   0  0  0  0  0  0  0  0  0  0  0  0
    8.9846  -18.1985   26.8662 O   0  0  0  0  0  0  0  0  0  0  0  0
  2  1  1  6
  3  2  1  0
  4  2  1  0
  4  6  1  0
  4  5  1  1
  6 13  1  0
  6  7  2  0
  9 10  2  0
  9  8  1  0
 11  9  1  0
 12 11  1  1
 13 12  1  0
 14 12  1  0
 14 15  2  0
 16 14  1  0
 17 16  1  0
 17 18  1  6
 19 18  1  0
 19 23  1  0
 20 21  1  0
 20 19  2  0
 21 22  1  0
 22 23  2  0
 24 17  1  0
 25 24  1  0
 26 24  2  0
M  END
$$$$
