FKS.pdb
     RDKit          3D

 27 27  0  0  1  0  0  0  0  0999 V2000
   25.3930  -17.0992  -17.9150 N   0  0  0  0  0  0  0  0  0  0  0  0
   25.0770  -17.2794  -16.5193 C   0  0  1  0  0  0  0  0  0  0  0  0
   24.5534  -15.9861  -15.9282 C   0  0  0  0  0  0  0  0  0  0  0  0
   25.6641  -14.9968  -15.9274 C   0  0  0  0  0  0  0  0  0  0  0  0
   26.7052  -15.0891  -15.0260 C   0  0  0  0  0  0  0  0  0  0  0  0
   27.7258  -14.1623  -15.0411 C   0  0  0  0  0  0  0  0  0  0  0  0
   27.7372  -13.1269  -15.9468 C   0  0  0  0  0  0  0  0  0  0  0  0
   26.6927  -13.0354  -16.8501 C   0  0  0  0  0  0  0  0  0  0  0  0
   25.6620  -13.9611  -16.8440 C   0  0  0  0  0  0  0  0  0  0  0  0
   23.9843  -18.2759  -16.4156 C   0  0  0  0  0  0  0  0  0  0  0  0
   23.0439  -18.2889  -17.2476 O   0  0  0  0  0  0  0  0  0  0  0  0
   23.9924  -19.2284  -15.3693 N   0  0  0  0  0  0  0  0  0  0  0  0
   22.9428  -20.2186  -15.3167 C   0  0  1  0  0  0  0  0  0  0  0  0
   23.4960  -21.5965  -15.0369 C   0  0  0  0  0  0  0  0  0  0  0  0
   24.4905  -22.0617  -16.0297 C   0  0  0  0  0  0  0  0  0  0  0  0
   25.1561  -23.3242  -15.5597 C   0  0  0  0  0  0  0  0  0  0  0  0
   26.1572  -23.7717  -16.5973 C   0  0  0  0  0  0  0  0  0  0  0  0
   26.8433  -24.9886  -16.1762 N   0  0  0  0  0  0  0  0  0  0  0  0
   21.8731  -19.8116  -14.4099 C   0  0  0  0  0  0  0  0  0  0  0  0
   22.0069  -19.0233  -13.4424 O   0  0  0  0  0  0  0  0  0  0  0  0
   18.1541  -17.6270  -14.7398 O   0  0  0  0  0  0  0  0  0  0  0  0
   19.3632  -18.2422  -15.0602 C   0  0  0  0  0  0  0  0  0  0  0  0
   19.3830  -19.5910  -14.3526 C   0  0  2  0  0  0  0  0  0  0  0  0
   20.5721  -20.3412  -14.6267 N   0  0  0  0  0  0  0  0  0  0  0  0
   18.1890  -20.3866  -14.6554 C   0  0  0  0  0  0  0  0  0  0  0  0
   18.2319  -21.4601  -15.5435 O   0  0  0  0  0  0  0  0  0  0  0  0
   17.0939  -20.1021  -14.1058 O   0  0  0  0  0  0  0  0  0  0  0  0
  2  3  1  0
  2  1  1  6
  4  3  1  0
  5  4  2  0
  6  5  1  0
  7  8  1  0
  7  6  2  0
  8  9  2  0
  9  4  1  0
 10  2  1  0
 11 10  2  0
 12 10  1  0
 13 19  1  0
 13 12  1  0
 13 14  1  1
 15 14  1  0
 16 15  1  0
 17 16  1  0
 18 17  1  0
 19 24  1  0
 20 19  2  0
 22 21  1  0
 23 22  1  6
 23 25  1  0
 24 23  1  0
 25 27  2  0
 25 26  1  0
M  END
$$$$
