FKS.pdb
     RDKit          3D

 27 27  0  0  1  0  0  0  0  0999 V2000
   24.3172  -28.6743  -18.5036 N   0  0  0  0  0  0  0  0  0  0  0  0
   24.7788  -29.9803  -18.1013 C   0  0  1  0  0  0  0  0  0  0  0  0
   26.2914  -29.9981  -18.0117 C   0  0  0  0  0  0  0  0  0  0  0  0
   26.8348  -30.0170  -19.3962 C   0  0  0  0  0  0  0  0  0  0  0  0
   27.4713  -28.9153  -19.9312 C   0  0  0  0  0  0  0  0  0  0  0  0
   27.9685  -28.9522  -21.2166 C   0  0  0  0  0  0  0  0  0  0  0  0
   27.8463  -30.0780  -21.9977 C   0  0  0  0  0  0  0  0  0  0  0  0
   27.2079  -31.1820  -21.4601 C   0  0  0  0  0  0  0  0  0  0  0  0
   26.7045  -31.1561  -20.1698 C   0  0  0  0  0  0  0  0  0  0  0  0
   24.2616  -30.2564  -16.7396 C   0  0  0  0  0  0  0  0  0  0  0  0
   24.0391  -29.3197  -15.9334 O   0  0  0  0  0  0  0  0  0  0  0  0
   24.0126  -31.5888  -16.3340 N   0  0  0  0  0  0  0  0  0  0  0  0
   23.4351  -31.8275  -15.0323 C   0  0  1  0  0  0  0  0  0  0  0  0
   22.0413  -32.4002  -15.1423 C   0  0  0  0  0  0  0  0  0  0  0  0
   21.0317  -31.4415  -15.6451 C   0  0  0  0  0  0  0  0  0  0  0  0
   19.6860  -32.1006  -15.7564 C   0  0  0  0  0  0  0  0  0  0  0  0
   18.7019  -31.1199  -16.3470 C   0  0  0  0  0  0  0  0  0  0  0  0
   17.3529  -31.6756  -16.3675 N   0  0  0  0  0  0  0  0  0  0  0  0
   24.3340  -32.6082  -14.1870 C   0  0  0  0  0  0  0  0  0  0  0  0
   25.0798  -33.5349  -14.5879 O   0  0  0  0  0  0  0  0  0  0  0  0
   23.9135  -32.1611  -10.1243 O   0  0  0  0  0  0  0  0  0  0  0  0
   25.2338  -32.4132  -10.4934 C   0  0  0  0  0  0  0  0  0  0  0  0
   25.2010  -33.0395  -11.8816 C   0  0  2  0  0  0  0  0  0  0  0  0
   24.3796  -32.3073  -12.7987 N   0  0  0  0  0  0  0  0  0  0  0  0
   24.7971  -34.4485  -11.8380 C   0  0  0  0  0  0  0  0  0  0  0  0
   25.6349  -35.4332  -11.3171 O   0  0  0  0  0  0  0  0  0  0  0  0
   23.6689  -34.7880  -12.2788 O   0  0  0  0  0  0  0  0  0  0  0  0
  2  3  1  0
  2  1  1  1
  4  3  1  0
  5  4  2  0
  6  5  1  0
  7  8  1  0
  7  6  2  0
  8  9  2  0
  9  4  1  0
 10  2  1  0
 11 10  2  0
 12 10  1  0
 13 19  1  0
 13 12  1  0
 13 14  1  6
 15 14  1  0
 16 15  1  0
 17 16  1  0
 18 17  1  0
 19 24  1  0
 20 19  2  0
 22 21  1  0
 23 22  1  1
 23 25  1  0
 24 23  1  0
 25 27  2  0
 25 26  1  0
M  END
$$$$
