FKS.pdb
     RDKit          3D

 27 27  0  0  1  0  0  0  0  0999 V2000
   26.1120  -21.6065  -14.8222 N   0  0  0  0  0  0  0  0  0  0  0  0
   25.3861  -20.4538  -14.3481 C   0  0  1  0  0  0  0  0  0  0  0  0
   24.8917  -19.6269  -15.5178 C   0  0  0  0  0  0  0  0  0  0  0  0
   26.0628  -18.9375  -16.1224 C   0  0  0  0  0  0  0  0  0  0  0  0
   26.6316  -17.8320  -15.5228 C   0  0  0  0  0  0  0  0  0  0  0  0
   27.7169  -17.2065  -16.0987 C   0  0  0  0  0  0  0  0  0  0  0  0
   28.2608  -17.6612  -17.2777 C   0  0  0  0  0  0  0  0  0  0  0  0
   27.6896  -18.7697  -17.8779 C   0  0  0  0  0  0  0  0  0  0  0  0
   26.5989  -19.4060  -17.3081 C   0  0  0  0  0  0  0  0  0  0  0  0
   24.1872  -20.9286  -13.6167 C   0  0  0  0  0  0  0  0  0  0  0  0
   23.6679  -22.0400  -13.8848 O   0  0  0  0  0  0  0  0  0  0  0  0
   23.6137  -20.1265  -12.6020 N   0  0  0  0  0  0  0  0  0  0  0  0
   22.4128  -20.5840  -11.9436 C   0  0  1  0  0  0  0  0  0  0  0  0
   22.2671  -19.9707  -10.5705 C   0  0  0  0  0  0  0  0  0  0  0  0
   21.0317  -20.3686   -9.8588 C   0  0  0  0  0  0  0  0  0  0  0  0
   21.2818  -21.5762   -9.0002 C   0  0  0  0  0  0  0  0  0  0  0  0
   20.0147  -21.9269   -8.2582 C   0  0  0  0  0  0  0  0  0  0  0  0
   20.2047  -23.1060   -7.4200 N   0  0  0  0  0  0  0  0  0  0  0  0
   21.2408  -20.4151  -12.7981 C   0  0  0  0  0  0  0  0  0  0  0  0
   20.8054  -19.3153  -13.2181 O   0  0  0  0  0  0  0  0  0  0  0  0
   19.1567  -23.8552  -13.9472 O   0  0  0  0  0  0  0  0  0  0  0  0
   19.1357  -22.7781  -14.8317 C   0  0  0  0  0  0  0  0  0  0  0  0
   19.3486  -21.5149  -14.0074 C   0  0  2  0  0  0  0  0  0  0  0  0
   20.5261  -21.5780  -13.1941 N   0  0  0  0  0  0  0  0  0  0  0  0
   18.1745  -21.1879  -13.1920 C   0  0  0  0  0  0  0  0  0  0  0  0
   18.1623  -21.3920  -11.8132 O   0  0  0  0  0  0  0  0  0  0  0  0
   17.1477  -20.7109  -13.7401 O   0  0  0  0  0  0  0  0  0  0  0  0
  2  3  1  0
  2  1  1  6
  4  3  1  0
  5  4  2  0
  6  5  1  0
  7  8  1  0
  7  6  2  0
  8  9  2  0
  9  4  1  0
 10  2  1  0
 11 10  2  0
 12 10  1  0
 13 19  1  0
 13 12  1  0
 13 14  1  1
 15 14  1  0
 16 15  1  0
 17 16  1  0
 18 17  1  0
 19 24  1  0
 20 19  2  0
 22 21  1  0
 23 22  1  1
 23 25  1  0
 24 23  1  0
 25 27  2  0
 25 26  1  0
M  END
$$$$
