FKS.pdb
     RDKit          3D

 27 27  0  0  1  0  0  0  0  0999 V2000
   26.0887  -22.2827  -13.3263 N   0  0  0  0  0  0  0  0  0  0  0  0
   25.6135  -21.5367  -12.1869 C   0  0  1  0  0  0  0  0  0  0  0  0
   26.2222  -20.1490  -12.1769 C   0  0  0  0  0  0  0  0  0  0  0  0
   27.6864  -20.2896  -11.9563 C   0  0  0  0  0  0  0  0  0  0  0  0
   28.5974  -19.8696  -12.9043 C   0  0  0  0  0  0  0  0  0  0  0  0
   29.9509  -20.0083  -12.6813 C   0  0  0  0  0  0  0  0  0  0  0  0
   30.4299  -20.5644  -11.5179 C   0  0  0  0  0  0  0  0  0  0  0  0
   29.5154  -20.9852  -10.5681 C   0  0  0  0  0  0  0  0  0  0  0  0
   28.1533  -20.8507  -10.7815 C   0  0  0  0  0  0  0  0  0  0  0  0
   24.1473  -21.3649  -12.3231 C   0  0  0  0  0  0  0  0  0  0  0  0
   23.6020  -21.3611  -13.4541 O   0  0  0  0  0  0  0  0  0  0  0  0
   23.3439  -21.2025  -11.1698 N   0  0  0  0  0  0  0  0  0  0  0  0
   21.9666  -21.6340  -11.2103 C   0  0  1  0  0  0  0  0  0  0  0  0
   21.4410  -21.9367   -9.8265 C   0  0  0  0  0  0  0  0  0  0  0  0
   20.1012  -22.5659   -9.8130 C   0  0  0  0  0  0  0  0  0  0  0  0
   19.7465  -23.0246   -8.4268 C   0  0  0  0  0  0  0  0  0  0  0  0
   18.3694  -23.6430   -8.4473 C   0  0  0  0  0  0  0  0  0  0  0  0
   17.9582  -24.0568   -7.1099 N   0  0  0  0  0  0  0  0  0  0  0  0
   21.1393  -20.7008  -11.9699 C   0  0  0  0  0  0  0  0  0  0  0  0
   21.1202  -19.4561  -11.8089 O   0  0  0  0  0  0  0  0  0  0  0  0
   19.5036  -21.3651  -16.0354 O   0  0  0  0  0  0  0  0  0  0  0  0
   20.1946  -20.4089  -15.2930 C   0  0  0  0  0  0  0  0  0  0  0  0
   19.5796  -20.3905  -13.8995 C   0  0  2  0  0  0  0  0  0  0  0  0
   20.2828  -21.2278  -12.9742 N   0  0  0  0  0  0  0  0  0  0  0  0
   18.1538  -20.7324  -13.9250 C   0  0  0  0  0  0  0  0  0  0  0  0
   17.2217  -19.9312  -14.5822 O   0  0  0  0  0  0  0  0  0  0  0  0
   17.7511  -21.7721  -13.3426 O   0  0  0  0  0  0  0  0  0  0  0  0
  2  3  1  0
  2  1  1  6
  4  3  1  0
  5  4  2  0
  6  5  1  0
  7  8  1  0
  7  6  2  0
  8  9  2  0
  9  4  1  0
 10  2  1  0
 11 10  2  0
 12 10  1  0
 13 19  1  0
 13 12  1  0
 13 14  1  1
 15 14  1  0
 16 15  1  0
 17 16  1  0
 18 17  1  0
 19 24  1  0
 20 19  2  0
 22 21  1  0
 23 22  1  6
 23 25  1  0
 24 23  1  0
 25 27  2  0
 25 26  1  0
M  END
$$$$
