EDQ.pdb
     RDKit          3D

 27 26  0  0  1  0  0  0  0  0999 V2000
   11.2006  -17.9109   19.7992 N   0  0  0  0  0  0  0  0  0  0  0  0
   12.1053  -17.8210   20.9497 C   0  0  1  0  0  0  0  0  0  0  0  0
   13.0818  -16.7024   20.7227 C   0  0  0  0  0  0  0  0  0  0  0  0
   12.5173  -15.5624   19.9577 C   0  0  0  0  0  0  0  0  0  0  0  0
   13.4546  -14.4578   19.6764 C   0  0  0  0  0  0  0  0  0  0  0  0
   13.1248  -13.3460   19.2172 O   0  0  0  0  0  0  0  0  0  0  0  0
   11.3374  -17.7296   22.2013 C   0  0  0  0  0  0  0  0  0  0  0  0
   10.8834  -16.6443   22.6395 O   0  0  0  0  0  0  0  0  0  0  0  0
   14.7976  -14.6790   19.9444 O   0  0  0  0  0  0  0  0  0  0  0  0
   11.0600  -18.8944   23.0050 N   0  0  0  0  0  0  0  0  0  0  0  0
   10.1793  -18.8194   24.1451 C   0  0  1  0  0  0  0  0  0  0  0  0
    9.6710  -20.1803   24.5739 C   0  0  0  0  0  0  0  0  0  0  0  0
    8.7590  -20.7871   23.5879 C   0  0  0  0  0  0  0  0  0  0  0  0
    7.7700  -20.1257   23.1855 O   0  0  0  0  0  0  0  0  0  0  0  0
   10.9703  -18.3100   25.3093 C   0  0  0  0  0  0  0  0  0  0  0  0
   12.2234  -18.2492   25.1657 O   0  0  0  0  0  0  0  0  0  0  0  0
    8.9831  -22.0531   23.1145 O   0  0  0  0  0  0  0  0  0  0  0  0
   10.4138  -13.2767   28.9217 N   0  0  0  0  0  0  0  0  0  0  0  0
    9.4045  -14.1472   28.4705 C   0  0  0  0  0  0  0  0  0  0  0  0
    8.2504  -13.6696   28.2744 O   0  0  0  0  0  0  0  0  0  0  0  0
    9.5979  -15.5924   28.2066 C   0  0  0  0  0  0  0  0  0  0  0  0
   10.9981  -15.9046   27.7671 C   0  0  0  0  0  0  0  0  0  0  0  0
   11.1669  -17.4038   27.5910 C   0  0  2  0  0  0  0  0  0  0  0  0
   10.3612  -17.9127   26.5156 N   0  0  0  0  0  0  0  0  0  0  0  0
   10.8829  -18.1407   28.8305 C   0  0  0  0  0  0  0  0  0  0  0  0
    9.8634  -19.0796   28.9482 O   0  0  0  0  0  0  0  0  0  0  0  0
   11.5819  -17.9319   29.8540 O   0  0  0  0  0  0  0  0  0  0  0  0
  2  1  1  6
  2  7  1  0
  2  3  1  0
  4  3  1  0
  4  5  1  0
  5  6  2  0
  7  8  2  0
  9  5  1  0
 10 11  1  0
 10  7  1  0
 11 12  1  1
 13 12  1  0
 14 13  2  0
 15 16  2  0
 15 11  1  0
 17 13  1  0
 19 18  1  0
 20 19  2  0
 21 19  1  0
 22 21  1  0
 23 22  1  1
 23 24  1  0
 24 15  1  0
 25 23  1  0
 26 25  1  0
 27 25  2  0
M  END
$$$$
