EDQ.pdb
     RDKit          3D

 27 26  0  0  1  0  0  0  0  0999 V2000
   11.4707  -13.6250   17.8237 N   0  0  0  0  0  0  0  0  0  0  0  0
   11.6311  -14.9891   18.3373 C   0  0  1  0  0  0  0  0  0  0  0  0
   11.2010  -15.9671   17.2815 C   0  0  0  0  0  0  0  0  0  0  0  0
    9.8710  -15.6665   16.6948 C   0  0  0  0  0  0  0  0  0  0  0  0
    9.3492  -16.6735   15.7506 C   0  0  0  0  0  0  0  0  0  0  0  0
    9.2190  -17.8872   16.0069 O   0  0  0  0  0  0  0  0  0  0  0  0
   12.9963  -15.1884   18.8483 C   0  0  0  0  0  0  0  0  0  0  0  0
   13.3753  -16.2684   19.3641 O   0  0  0  0  0  0  0  0  0  0  0  0
    8.9788  -16.2312   14.4889 O   0  0  0  0  0  0  0  0  0  0  0  0
   13.9874  -14.1428   18.7854 N   0  0  0  0  0  0  0  0  0  0  0  0
   15.3224  -14.3513   19.2911 C   0  0  1  0  0  0  0  0  0  0  0  0
   16.2471  -13.1935   18.9771 C   0  0  0  0  0  0  0  0  0  0  0  0
   17.2535  -13.5265   17.9531 C   0  0  0  0  0  0  0  0  0  0  0  0
   17.4197  -14.7290   17.6310 O   0  0  0  0  0  0  0  0  0  0  0  0
   15.2496  -14.4028   20.7852 C   0  0  0  0  0  0  0  0  0  0  0  0
   14.7787  -13.3871   21.3695 O   0  0  0  0  0  0  0  0  0  0  0  0
   17.9984  -12.5422   17.3588 O   0  0  0  0  0  0  0  0  0  0  0  0
   11.2707  -16.7856   23.8870 N   0  0  0  0  0  0  0  0  0  0  0  0
   12.2294  -16.5181   24.8817 C   0  0  0  0  0  0  0  0  0  0  0  0
   11.8656  -16.5798   26.0910 O   0  0  0  0  0  0  0  0  0  0  0  0
   13.6437  -16.1675   24.6125 C   0  0  0  0  0  0  0  0  0  0  0  0
   13.9450  -16.1208   23.1434 C   0  0  0  0  0  0  0  0  0  0  0  0
   15.3644  -15.6291   22.9181 C   0  0  2  0  0  0  0  0  0  0  0  0
   15.6812  -15.5239   21.5205 N   0  0  0  0  0  0  0  0  0  0  0  0
   16.3558  -16.4721   23.6012 C   0  0  0  0  0  0  0  0  0  0  0  0
   16.6376  -16.3768   24.9599 O   0  0  0  0  0  0  0  0  0  0  0  0
   16.9980  -17.3328   22.9482 O   0  0  0  0  0  0  0  0  0  0  0  0
  2  1  1  6
  2  7  1  0
  2  3  1  0
  4  3  1  0
  4  5  1  0
  5  6  2  0
  7  8  2  0
  9  5  1  0
 10 11  1  0
 10  7  1  0
 11 12  1  1
 13 12  1  0
 14 13  2  0
 15 16  2  0
 15 11  1  0
 17 13  1  0
 19 18  1  0
 20 19  2  0
 21 19  1  0
 22 21  1  0
 23 22  1  6
 23 24  1  0
 24 15  1  0
 25 23  1  0
 26 25  1  0
 27 25  2  0
M  END
$$$$
