EDQ.pdb
     RDKit          3D

 27 26  0  0  1  0  0  0  0  0999 V2000
   10.4254  -17.2139   21.1266 N   0  0  0  0  0  0  0  0  0  0  0  0
   11.2664  -18.0240   22.0136 C   0  0  1  0  0  0  0  0  0  0  0  0
   12.6874  -17.5468   21.9169 C   0  0  0  0  0  0  0  0  0  0  0  0
   12.8642  -16.1187   22.2814 C   0  0  0  0  0  0  0  0  0  0  0  0
   14.2531  -15.6209   22.2505 C   0  0  0  0  0  0  0  0  0  0  0  0
   15.0731  -15.7454   23.1821 O   0  0  0  0  0  0  0  0  0  0  0  0
   10.7093  -18.0417   23.3751 C   0  0  0  0  0  0  0  0  0  0  0  0
    9.9411  -17.1463   23.8042 O   0  0  0  0  0  0  0  0  0  0  0  0
   14.6699  -14.9686   21.0992 O   0  0  0  0  0  0  0  0  0  0  0  0
   11.0178  -19.1003   24.3046 N   0  0  0  0  0  0  0  0  0  0  0  0
   10.3909  -19.1571   25.6028 C   0  0  1  0  0  0  0  0  0  0  0  0
   10.5385  -20.5150   26.2574 C   0  0  0  0  0  0  0  0  0  0  0  0
    9.5650  -21.5010   25.7553 C   0  0  0  0  0  0  0  0  0  0  0  0
    9.9871  -22.5423   25.1942 O   0  0  0  0  0  0  0  0  0  0  0  0
   11.1091  -18.2043   26.5066 C   0  0  0  0  0  0  0  0  0  0  0  0
   12.0870  -17.5759   26.0131 O   0  0  0  0  0  0  0  0  0  0  0  0
    8.2188  -21.2890   25.8968 O   0  0  0  0  0  0  0  0  0  0  0  0
   10.4435  -13.0544   26.9181 N   0  0  0  0  0  0  0  0  0  0  0  0
    9.4483  -13.8783   27.4758 C   0  0  0  0  0  0  0  0  0  0  0  0
    8.2594  -13.4485   27.4912 O   0  0  0  0  0  0  0  0  0  0  0  0
    9.6948  -15.2221   28.0497 C   0  0  0  0  0  0  0  0  0  0  0  0
   11.1469  -15.5973   28.0078 C   0  0  0  0  0  0  0  0  0  0  0  0
   11.3481  -16.9705   28.6248 C   0  0  2  0  0  0  0  0  0  0  0  0
   10.7251  -18.0057   27.8471 N   0  0  0  0  0  0  0  0  0  0  0  0
   10.8750  -17.0259   30.0152 C   0  0  0  0  0  0  0  0  0  0  0  0
   11.4149  -16.2562   31.0403 O   0  0  0  0  0  0  0  0  0  0  0  0
    9.9345  -17.8007   30.3233 O   0  0  0  0  0  0  0  0  0  0  0  0
  2  1  1  6
  2  7  1  0
  2  3  1  0
  4  3  1  0
  4  5  1  0
  5  6  2  0
  7  8  2  0
  9  5  1  0
 10 11  1  0
 10  7  1  0
 11 12  1  1
 13 12  1  0
 14 13  2  0
 15 16  2  0
 15 11  1  0
 17 13  1  0
 19 18  1  0
 20 19  2  0
 21 19  1  0
 22 21  1  0
 23 22  1  6
 23 24  1  0
 24 15  1  0
 25 23  1  0
 26 25  1  0
 27 25  2  0
M  END
$$$$
