EDQ.pdb
     RDKit          3D

 27 26  0  0  1  0  0  0  0  0999 V2000
   15.8010  -17.0312   14.6829 N   0  0  0  0  0  0  0  0  0  0  0  0
   16.0418  -18.1690   15.5761 C   0  0  1  0  0  0  0  0  0  0  0  0
   17.5058  -18.5052   15.5622 C   0  0  0  0  0  0  0  0  0  0  0  0
   18.3695  -17.4371   16.1250 C   0  0  0  0  0  0  0  0  0  0  0  0
   19.8207  -17.7010   16.0781 C   0  0  0  0  0  0  0  0  0  0  0  0
   20.3335  -18.8026   15.7966 O   0  0  0  0  0  0  0  0  0  0  0  0
   15.4788  -17.9040   16.9092 C   0  0  0  0  0  0  0  0  0  0  0  0
   15.4616  -16.7580   17.4214 O   0  0  0  0  0  0  0  0  0  0  0  0
   20.6696  -16.6431   16.3693 O   0  0  0  0  0  0  0  0  0  0  0  0
   14.9087  -18.9574   17.7123 N   0  0  0  0  0  0  0  0  0  0  0  0
   14.3346  -18.6791   19.0063 C   0  0  1  0  0  0  0  0  0  0  0  0
   13.2601  -19.6758   19.3887 C   0  0  0  0  0  0  0  0  0  0  0  0
   11.9992  -19.4676   18.6547 C   0  0  0  0  0  0  0  0  0  0  0  0
   11.9122  -18.5029   17.8551 O   0  0  0  0  0  0  0  0  0  0  0  0
   15.4089  -18.8443   20.0354 C   0  0  0  0  0  0  0  0  0  0  0  0
   16.5209  -19.2884   19.6342 O   0  0  0  0  0  0  0  0  0  0  0  0
   10.9356  -20.3113   18.8385 O   0  0  0  0  0  0  0  0  0  0  0  0
   20.2022  -15.6460   22.0485 N   0  0  0  0  0  0  0  0  0  0  0  0
   19.2512  -15.9806   21.0668 C   0  0  0  0  0  0  0  0  0  0  0  0
   19.1341  -15.2163   20.0665 O   0  0  0  0  0  0  0  0  0  0  0  0
   18.3717  -17.1720   21.1209 C   0  0  0  0  0  0  0  0  0  0  0  0
   16.9621  -16.8179   21.4931 C   0  0  0  0  0  0  0  0  0  0  0  0
   16.2908  -17.9982   22.1738 C   0  0  2  0  0  0  0  0  0  0  0  0
   15.2059  -18.5238   21.3919 N   0  0  0  0  0  0  0  0  0  0  0  0
   15.8255  -17.6638   23.5272 C   0  0  0  0  0  0  0  0  0  0  0  0
   14.4836  -17.6383   23.8924 O   0  0  0  0  0  0  0  0  0  0  0  0
   16.6618  -17.3814   24.4220 O   0  0  0  0  0  0  0  0  0  0  0  0
  2  1  1  6
  2  7  1  0
  2  3  1  0
  4  3  1  0
  4  5  1  0
  5  6  2  0
  7  8  2  0
  9  5  1  0
 10 11  1  0
 10  7  1  0
 11 12  1  1
 13 12  1  0
 14 13  2  0
 15 16  2  0
 15 11  1  0
 17 13  1  0
 19 18  1  0
 20 19  2  0
 21 19  1  0
 22 21  1  0
 23 22  1  6
 23 24  1  0
 24 15  1  0
 25 23  1  0
 26 25  1  0
 27 25  2  0
M  END
$$$$
