EDQ.pdb
     RDKit          3D

 27 26  0  0  1  0  0  0  0  0999 V2000
   11.5586  -17.0848   19.9229 N   0  0  0  0  0  0  0  0  0  0  0  0
   10.5684  -16.0161   20.0887 C   0  0  1  0  0  0  0  0  0  0  0  0
    9.7114  -15.9428   18.8573 C   0  0  0  0  0  0  0  0  0  0  0  0
    9.6101  -17.2286   18.1224 C   0  0  0  0  0  0  0  0  0  0  0  0
    8.6541  -17.2460   16.9984 C   0  0  0  0  0  0  0  0  0  0  0  0
    8.7962  -16.6094   15.9352 O   0  0  0  0  0  0  0  0  0  0  0  0
    9.8298  -16.1909   21.3490 C   0  0  0  0  0  0  0  0  0  0  0  0
    9.0881  -15.2988   21.8286 O   0  0  0  0  0  0  0  0  0  0  0  0
    7.5178  -18.0290   17.1413 O   0  0  0  0  0  0  0  0  0  0  0  0
    9.9172  -17.4104   22.1138 N   0  0  0  0  0  0  0  0  0  0  0  0
    9.2690  -17.5324   23.3968 C   0  0  1  0  0  0  0  0  0  0  0  0
    9.2501  -18.9603   23.9018 C   0  0  0  0  0  0  0  0  0  0  0  0
    8.4418  -19.8559   23.0552 C   0  0  0  0  0  0  0  0  0  0  0  0
    9.0257  -20.6918   22.3219 O   0  0  0  0  0  0  0  0  0  0  0  0
   10.0785  -16.7711   24.3995 C   0  0  0  0  0  0  0  0  0  0  0  0
   10.9680  -15.9975   23.9467 O   0  0  0  0  0  0  0  0  0  0  0  0
    7.0738  -19.7813   23.0652 O   0  0  0  0  0  0  0  0  0  0  0  0
    6.6396  -12.9115   25.1925 N   0  0  0  0  0  0  0  0  0  0  0  0
    7.4620  -12.6392   26.3014 C   0  0  0  0  0  0  0  0  0  0  0  0
    7.3148  -11.5321   26.8940 O   0  0  0  0  0  0  0  0  0  0  0  0
    8.4945  -13.5623   26.8282 C   0  0  0  0  0  0  0  0  0  0  0  0
    8.5888  -14.8245   26.0225 C   0  0  0  0  0  0  0  0  0  0  0  0
    9.6696  -15.7267   26.5923 C   0  0  2  0  0  0  0  0  0  0  0  0
    9.8707  -16.8994   25.7867 N   0  0  0  0  0  0  0  0  0  0  0  0
    9.3930  -16.1087   27.9844 C   0  0  0  0  0  0  0  0  0  0  0  0
    9.9790  -15.4860   29.0814 O   0  0  0  0  0  0  0  0  0  0  0  0
    8.5889  -17.0439   28.2262 O   0  0  0  0  0  0  0  0  0  0  0  0
  2  1  1  6
  2  7  1  0
  2  3  1  0
  4  3  1  0
  4  5  1  0
  5  6  2  0
  7  8  2  0
  9  5  1  0
 10 11  1  0
 10  7  1  0
 11 12  1  1
 13 12  1  0
 14 13  2  0
 15 16  2  0
 15 11  1  0
 17 13  1  0
 19 18  1  0
 20 19  2  0
 21 19  1  0
 22 21  1  0
 23 22  1  6
 23 24  1  0
 24 15  1  0
 25 23  1  0
 26 25  1  0
 27 25  2  0
M  END
$$$$
