EDQ.pdb
     RDKit          3D

 27 26  0  0  1  0  0  0  0  0999 V2000
    8.7823  -15.0071   17.9974 N   0  0  0  0  0  0  0  0  0  0  0  0
    9.2825  -16.3756   18.1629 C   0  0  1  0  0  0  0  0  0  0  0  0
    8.9486  -17.1743   16.9353 C   0  0  0  0  0  0  0  0  0  0  0  0
    9.4356  -16.5624   15.6736 C   0  0  0  0  0  0  0  0  0  0  0  0
    9.2664  -17.3850   14.4602 C   0  0  0  0  0  0  0  0  0  0  0  0
    9.0219  -18.6081   14.4597 O   0  0  0  0  0  0  0  0  0  0  0  0
   10.7085  -16.3613   18.5247 C   0  0  0  0  0  0  0  0  0  0  0  0
   11.3170  -17.3855   18.9204 O   0  0  0  0  0  0  0  0  0  0  0  0
    9.3892  -16.7453   13.2353 O   0  0  0  0  0  0  0  0  0  0  0  0
   11.4967  -15.1562   18.4449 N   0  0  0  0  0  0  0  0  0  0  0  0
   12.9058  -15.1668   18.7543 C   0  0  1  0  0  0  0  0  0  0  0  0
   13.6712  -14.0988   18.0009 C   0  0  0  0  0  0  0  0  0  0  0  0
   15.1318  -14.2315   18.1466 C   0  0  0  0  0  0  0  0  0  0  0  0
   15.5929  -15.1964   18.8052 O   0  0  0  0  0  0  0  0  0  0  0  0
   13.0655  -14.8187   20.2012 C   0  0  0  0  0  0  0  0  0  0  0  0
   12.3129  -13.9129   20.6573 O   0  0  0  0  0  0  0  0  0  0  0  0
   15.9775  -13.3185   17.5735 O   0  0  0  0  0  0  0  0  0  0  0  0
   10.0275  -17.2455   23.7946 N   0  0  0  0  0  0  0  0  0  0  0  0
   10.9704  -16.7142   24.6939 C   0  0  0  0  0  0  0  0  0  0  0  0
   10.7224  -16.7919   25.9312 O   0  0  0  0  0  0  0  0  0  0  0  0
   12.2414  -16.0665   24.2929 C   0  0  0  0  0  0  0  0  0  0  0  0
   12.4159  -16.0376   22.8030 C   0  0  0  0  0  0  0  0  0  0  0  0
   13.7953  -15.5084   22.4502 C   0  0  2  0  0  0  0  0  0  0  0  0
   14.0058  -15.4617   21.0296 N   0  0  0  0  0  0  0  0  0  0  0  0
   14.8652  -16.2814   23.0967 C   0  0  0  0  0  0  0  0  0  0  0  0
   15.3259  -17.5031   22.6172 O   0  0  0  0  0  0  0  0  0  0  0  0
   15.4107  -15.8397   24.1393 O   0  0  0  0  0  0  0  0  0  0  0  0
  2  1  1  6
  2  7  1  0
  2  3  1  0
  4  3  1  0
  4  5  1  0
  5  6  2  0
  7  8  2  0
  9  5  1  0
 10 11  1  0
 10  7  1  0
 11 12  1  6
 13 12  1  0
 14 13  2  0
 15 16  2  0
 15 11  1  0
 17 13  1  0
 19 18  1  0
 20 19  2  0
 21 19  1  0
 22 21  1  0
 23 22  1  6
 23 24  1  0
 24 15  1  0
 25 23  1  0
 26 25  1  0
 27 25  2  0
M  END
$$$$
