EDQ.pdb
     RDKit          3D

 27 26  0  0  1  0  0  0  0  0999 V2000
    9.0853  -12.8907   19.5901 N   0  0  0  0  0  0  0  0  0  0  0  0
    7.9000  -13.7067   19.8717 C   0  0  1  0  0  0  0  0  0  0  0  0
    7.2394  -14.0801   18.5754 C   0  0  0  0  0  0  0  0  0  0  0  0
    8.0586  -13.7715   17.3765 C   0  0  0  0  0  0  0  0  0  0  0  0
    7.7923  -14.6084   16.1906 C   0  0  0  0  0  0  0  0  0  0  0  0
    7.0468  -15.6083   16.1799 O   0  0  0  0  0  0  0  0  0  0  0  0
    8.2520  -14.8424   20.7382 C   0  0  0  0  0  0  0  0  0  0  0  0
    7.4129  -15.7023   21.1018 O   0  0  0  0  0  0  0  0  0  0  0  0
    8.4196  -14.2514   15.0059 O   0  0  0  0  0  0  0  0  0  0  0  0
    9.5960  -15.0341   21.2247 N   0  0  0  0  0  0  0  0  0  0  0  0
    9.9245  -16.1437   22.0862 C   0  0  1  0  0  0  0  0  0  0  0  0
   11.3473  -16.6253   21.8919 C   0  0  0  0  0  0  0  0  0  0  0  0
   11.6536  -17.8356   22.6752 C   0  0  0  0  0  0  0  0  0  0  0  0
   10.7146  -18.6022   23.0037 O   0  0  0  0  0  0  0  0  0  0  0  0
    9.8610  -15.6653   23.5031 C   0  0  0  0  0  0  0  0  0  0  0  0
   10.6982  -14.7846   23.8467 O   0  0  0  0  0  0  0  0  0  0  0  0
   12.9420  -18.1241   23.0412 O   0  0  0  0  0  0  0  0  0  0  0  0
    5.2500  -13.2212   26.4604 N   0  0  0  0  0  0  0  0  0  0  0  0
    6.4700  -12.6395   26.0686 C   0  0  0  0  0  0  0  0  0  0  0  0
    6.5160  -11.3826   25.9400 O   0  0  0  0  0  0  0  0  0  0  0  0
    7.7127  -13.3987   25.7943 C   0  0  0  0  0  0  0  0  0  0  0  0
    7.5240  -14.8762   25.9741 C   0  0  0  0  0  0  0  0  0  0  0  0
    8.8386  -15.6012   25.7429 C   0  0  2  0  0  0  0  0  0  0  0  0
    8.9176  -16.1632   24.4229 N   0  0  0  0  0  0  0  0  0  0  0  0
    9.0806  -16.6413   26.7527 C   0  0  0  0  0  0  0  0  0  0  0  0
    9.3337  -16.3656   28.0924 O   0  0  0  0  0  0  0  0  0  0  0  0
    9.0643  -17.8523   26.4166 O   0  0  0  0  0  0  0  0  0  0  0  0
  2  1  1  6
  2  7  1  0
  2  3  1  0
  4  3  1  0
  4  5  1  0
  5  6  2  0
  7  8  2  0
  9  5  1  0
 10 11  1  0
 10  7  1  0
 11 12  1  6
 13 12  1  0
 14 13  2  0
 15 16  2  0
 15 11  1  0
 17 13  1  0
 19 18  1  0
 20 19  2  0
 21 19  1  0
 22 21  1  0
 23 22  1  1
 23 24  1  0
 24 15  1  0
 25 23  1  0
 26 25  1  0
 27 25  2  0
M  END
$$$$
