EDQ.pdb
     RDKit          3D

 27 26  0  0  1  0  0  0  0  0999 V2000
   13.7944  -18.0671   19.4942 N   0  0  0  0  0  0  0  0  0  0  0  0
   14.3785  -18.2617   20.8251 C   0  0  1  0  0  0  0  0  0  0  0  0
   15.8737  -18.1560   20.7274 C   0  0  0  0  0  0  0  0  0  0  0  0
   16.3403  -17.2950   19.6118 C   0  0  0  0  0  0  0  0  0  0  0  0
   17.8042  -17.1871   19.4600 C   0  0  0  0  0  0  0  0  0  0  0  0
   18.4982  -17.9199   18.7271 O   0  0  0  0  0  0  0  0  0  0  0  0
   13.7546  -17.3515   21.7981 C   0  0  0  0  0  0  0  0  0  0  0  0
   13.6544  -16.1156   21.6017 O   0  0  0  0  0  0  0  0  0  0  0  0
   18.4483  -16.1972   20.1879 O   0  0  0  0  0  0  0  0  0  0  0  0
   13.2171  -17.8327   23.0468 N   0  0  0  0  0  0  0  0  0  0  0  0
   12.0746  -17.1990   23.6588 C   0  0  1  0  0  0  0  0  0  0  0  0
   10.7640  -17.6710   23.0641 C   0  0  0  0  0  0  0  0  0  0  0  0
    9.5887  -17.0774   23.7262 C   0  0  0  0  0  0  0  0  0  0  0  0
    9.7641  -16.3054   24.7012 O   0  0  0  0  0  0  0  0  0  0  0  0
   12.0276  -17.6158   25.0956 C   0  0  0  0  0  0  0  0  0  0  0  0
   11.2577  -18.5732   25.3878 O   0  0  0  0  0  0  0  0  0  0  0  0
    8.3219  -17.3605   23.2876 O   0  0  0  0  0  0  0  0  0  0  0  0
   10.1794  -12.9472   28.2575 N   0  0  0  0  0  0  0  0  0  0  0  0
    9.4784  -14.1658   28.1958 C   0  0  0  0  0  0  0  0  0  0  0  0
    8.2701  -14.1769   28.5678 O   0  0  0  0  0  0  0  0  0  0  0  0
   10.0578  -15.4450   27.7228 C   0  0  0  0  0  0  0  0  0  0  0  0
   11.4802  -15.2890   27.2715 C   0  0  0  0  0  0  0  0  0  0  0  0
   12.1992  -16.6250   27.3440 C   0  0  2  0  0  0  0  0  0  0  0  0
   12.7996  -16.9810   26.0880 N   0  0  0  0  0  0  0  0  0  0  0  0
   11.3150  -17.7035   27.8076 C   0  0  0  0  0  0  0  0  0  0  0  0
   11.3217  -18.1948   29.1089 O   0  0  0  0  0  0  0  0  0  0  0  0
   10.4998  -18.2285   27.0079 O   0  0  0  0  0  0  0  0  0  0  0  0
  2  1  1  6
  2  7  1  0
  2  3  1  0
  4  3  1  0
  4  5  1  0
  5  6  2  0
  7  8  2  0
  9  5  1  0
 10 11  1  0
 10  7  1  0
 11 12  1  6
 13 12  1  0
 14 13  2  0
 15 16  2  0
 15 11  1  0
 17 13  1  0
 19 18  1  0
 20 19  2  0
 21 19  1  0
 22 21  1  0
 23 22  1  6
 23 24  1  0
 24 15  1  0
 25 23  1  0
 26 25  1  0
 27 25  2  0
M  END
$$$$
