GDM.pdb
     RDKit          3D

 21 20  0  0  1  0  0  0  0  0999 V2000
    6.1212  -14.1664   20.2174 N   0  0  0  0  0  0  0  0  0  0  0  0
    7.5475  -14.4153   20.2967 C   0  0  0  0  0  0  0  0  0  0  0  0
    7.8568  -15.2198   21.5052 C   0  0  0  0  0  0  0  0  0  0  0  0
    6.9949  -15.4738   22.3616 O   0  0  0  0  0  0  0  0  0  0  0  0
    9.1809  -15.7192   21.6948 N   0  0  0  0  0  0  0  0  0  0  0  0
    9.5534  -16.6373   22.7337 C   0  0  1  0  0  0  0  0  0  0  0  0
   10.6359  -17.5963   22.3238 C   0  0  0  0  0  0  0  0  0  0  0  0
   10.1567  -18.6795   21.4602 C   0  0  0  0  0  0  0  0  0  0  0  0
   10.3962  -18.6162   20.2151 O   0  0  0  0  0  0  0  0  0  0  0  0
    9.9482  -15.9052   23.9790 C   0  0  0  0  0  0  0  0  0  0  0  0
   10.9721  -15.1781   23.9415 O   0  0  0  0  0  0  0  0  0  0  0  0
    9.4485  -19.7955   21.8829 O   0  0  0  0  0  0  0  0  0  0  0  0
    6.3923  -11.0712   25.5154 C   0  0  0  0  0  0  0  0  0  0  0  0
    6.6440  -12.7359   26.0986 S   0  0  0  0  0  0  0  0  0  0  0  0
    8.3207  -13.2448   26.4002 C   0  0  0  0  0  0  0  0  0  0  0  0
    8.5019  -14.6050   26.9778 C   0  0  0  0  0  0  0  0  0  0  0  0
    9.6779  -15.3761   26.4463 C   0  0  2  0  0  0  0  0  0  0  0  0
    9.2376  -15.9897   25.1785 N   0  0  0  0  0  0  0  0  0  0  0  0
   10.0427  -16.4528   27.3970 C   0  0  0  0  0  0  0  0  0  0  0  0
   10.6700  -16.1956   28.5811 O   0  0  0  0  0  0  0  0  0  0  0  0
    9.7620  -17.6351   27.0987 O   0  0  0  0  0  0  0  0  0  0  0  0
  2  1  1  0
  3  2  1  0
  4  3  2  0
  5  3  1  0
  6 10  1  0
  6  5  1  0
  7  8  1  0
  6  7  1  6
  8 12  1  0
  9  8  2  0
 10 11  2  0
 13 14  1  0
 14 15  1  0
 16 15  1  0
 17 16  1  1
 18 17  1  0
 18 10  1  0
 19 20  1  0
 19 17  1  0
 21 19  2  0
M  END
$$$$
