GDM.pdb
     RDKit          3D

 21 20  0  0  1  0  0  0  0  0999 V2000
   14.1993  -17.1336   19.8431 N   0  0  0  0  0  0  0  0  0  0  0  0
   13.5761  -18.1593   20.6568 C   0  0  0  0  0  0  0  0  0  0  0  0
   12.5565  -17.5516   21.5481 C   0  0  0  0  0  0  0  0  0  0  0  0
   12.4991  -16.3263   21.7383 O   0  0  0  0  0  0  0  0  0  0  0  0
   11.6116  -18.3937   22.2088 N   0  0  0  0  0  0  0  0  0  0  0  0
   10.5852  -17.9144   23.0906 C   0  0  1  0  0  0  0  0  0  0  0  0
    9.4072  -18.8420   23.1965 C   0  0  0  0  0  0  0  0  0  0  0  0
    9.4124  -19.9060   22.1883 C   0  0  0  0  0  0  0  0  0  0  0  0
   10.3445  -19.9232   21.3265 O   0  0  0  0  0  0  0  0  0  0  0  0
   11.1414  -17.6192   24.4493 C   0  0  0  0  0  0  0  0  0  0  0  0
   12.2101  -18.1854   24.7896 O   0  0  0  0  0  0  0  0  0  0  0  0
    8.4731  -20.9219   22.0819 O   0  0  0  0  0  0  0  0  0  0  0  0
    8.3930  -12.8103   28.2289 C   0  0  0  0  0  0  0  0  0  0  0  0
    9.5864  -13.5759   29.3078 S   0  0  0  0  0  0  0  0  0  0  0  0
   10.5892  -14.8721   28.6181 C   0  0  0  0  0  0  0  0  0  0  0  0
   10.2408  -15.3103   27.2386 C   0  0  0  0  0  0  0  0  0  0  0  0
   11.0731  -16.4378   26.6943 C   0  0  2  0  0  0  0  0  0  0  0  0
   10.5335  -16.7483   25.3563 N   0  0  0  0  0  0  0  0  0  0  0  0
   10.9252  -17.6327   27.5583 C   0  0  0  0  0  0  0  0  0  0  0  0
   11.7829  -17.8977   28.5859 O   0  0  0  0  0  0  0  0  0  0  0  0
    9.9792  -18.4203   27.3337 O   0  0  0  0  0  0  0  0  0  0  0  0
  2  1  1  0
  3  2  1  0
  4  3  2  0
  5  3  1  0
  6 10  1  0
  6  5  1  0
  7  8  1  0
  6  7  1  1
  8 12  1  0
  9  8  2  0
 10 11  2  0
 13 14  1  0
 14 15  1  0
 16 15  1  0
 17 16  1  1
 18 17  1  0
 18 10  1  0
 19 20  1  0
 19 17  1  0
 21 19  2  0
M  END
$$$$
