GDM.pdb
     RDKit          3D

 21 20  0  0  1  0  0  0  0  0999 V2000
    6.8732  -13.7402   18.8796 N   0  0  0  0  0  0  0  0  0  0  0  0
    8.2006  -13.7663   19.4625 C   0  0  0  0  0  0  0  0  0  0  0  0
    8.2925  -14.8531   20.4694 C   0  0  0  0  0  0  0  0  0  0  0  0
    7.2959  -15.2592   21.0880 O   0  0  0  0  0  0  0  0  0  0  0  0
    9.5596  -15.4532   20.7394 N   0  0  0  0  0  0  0  0  0  0  0  0
    9.7775  -16.4550   21.7442 C   0  0  1  0  0  0  0  0  0  0  0  0
   11.0396  -17.2447   21.5369 C   0  0  0  0  0  0  0  0  0  0  0  0
   11.0099  -18.0837   20.3354 C   0  0  0  0  0  0  0  0  0  0  0  0
   10.1375  -19.0027   20.2564 O   0  0  0  0  0  0  0  0  0  0  0  0
    9.7578  -15.8520   23.1148 C   0  0  0  0  0  0  0  0  0  0  0  0
   10.7772  -15.2298   23.5049 O   0  0  0  0  0  0  0  0  0  0  0  0
   11.8649  -17.9679   19.2486 O   0  0  0  0  0  0  0  0  0  0  0  0
    6.9094  -11.0320   27.3781 C   0  0  0  0  0  0  0  0  0  0  0  0
    6.9478  -12.3030   26.1301 S   0  0  0  0  0  0  0  0  0  0  0  0
    7.0305  -13.9882   26.6911 C   0  0  0  0  0  0  0  0  0  0  0  0
    7.2171  -15.0240   25.6380 C   0  0  0  0  0  0  0  0  0  0  0  0
    8.6451  -15.3953   25.3495 C   0  0  2  0  0  0  0  0  0  0  0  0
    8.6658  -15.9462   23.9806 N   0  0  0  0  0  0  0  0  0  0  0  0
    9.0906  -16.4464   26.2944 C   0  0  0  0  0  0  0  0  0  0  0  0
    9.6366  -16.1484   27.5089 O   0  0  0  0  0  0  0  0  0  0  0  0
    8.9577  -17.6453   25.9621 O   0  0  0  0  0  0  0  0  0  0  0  0
  2  1  1  0
  3  2  1  0
  4  3  2  0
  5  3  1  0
  6 10  1  0
  6  5  1  0
  7  8  1  0
  6  7  1  6
  8 12  1  0
  9  8  2  0
 10 11  2  0
 13 14  1  0
 14 15  1  0
 16 15  1  0
 17 16  1  1
 18 17  1  0
 18 10  1  0
 19 20  1  0
 19 17  1  0
 21 19  2  0
M  END
$$$$
