GDM.pdb
     RDKit          3D

 21 20  0  0  1  0  0  0  0  0999 V2000
    6.5225  -20.5746   23.9447 N   0  0  0  0  0  0  0  0  0  0  0  0
    6.4138  -19.3024   23.2574 C   0  0  0  0  0  0  0  0  0  0  0  0
    7.7605  -18.7040   23.0792 C   0  0  0  0  0  0  0  0  0  0  0  0
    8.7724  -19.2012   23.5985 O   0  0  0  0  0  0  0  0  0  0  0  0
    7.9040  -17.5233   22.2895 N   0  0  0  0  0  0  0  0  0  0  0  0
    9.1439  -16.8232   22.1069 C   0  0  1  0  0  0  0  0  0  0  0  0
    9.1999  -16.0297   20.8314 C   0  0  0  0  0  0  0  0  0  0  0  0
    9.4085  -16.8578   19.6401 C   0  0  0  0  0  0  0  0  0  0  0  0
    8.4561  -17.5937   19.2362 O   0  0  0  0  0  0  0  0  0  0  0  0
    9.4406  -15.9442   23.2824 C   0  0  0  0  0  0  0  0  0  0  0  0
   10.5265  -15.3121   23.2925 O   0  0  0  0  0  0  0  0  0  0  0  0
   10.5760  -16.9169   18.8924 O   0  0  0  0  0  0  0  0  0  0  0  0
    6.2219  -11.0268   25.6212 C   0  0  0  0  0  0  0  0  0  0  0  0
    6.5722  -11.9243   27.1200 S   0  0  0  0  0  0  0  0  0  0  0  0
    7.7553  -13.2474   27.0153 C   0  0  0  0  0  0  0  0  0  0  0  0
    7.6893  -14.0941   25.7924 C   0  0  0  0  0  0  0  0  0  0  0  0
    8.8791  -14.9842   25.5635 C   0  0  2  0  0  0  0  0  0  0  0  0
    8.5736  -15.7916   24.3667 N   0  0  0  0  0  0  0  0  0  0  0  0
    9.0557  -15.8928   26.7208 C   0  0  0  0  0  0  0  0  0  0  0  0
    8.8309  -17.2357   26.6318 O   0  0  0  0  0  0  0  0  0  0  0  0
    9.4248  -15.4063   27.8129 O   0  0  0  0  0  0  0  0  0  0  0  0
  2  1  1  0
  3  2  1  0
  4  3  2  0
  5  3  1  0
  6 10  1  0
  6  5  1  0
  7  8  1  0
  6  7  1  6
  8 12  1  0
  9  8  2  0
 10 11  2  0
 13 14  1  0
 14 15  1  0
 16 15  1  0
 17 16  1  1
 18 17  1  0
 18 10  1  0
 19 20  1  0
 19 17  1  0
 21 19  2  0
M  END
$$$$
