GDM.pdb
     RDKit          3D

 21 20  0  0  1  0  0  0  0  0999 V2000
    5.9903  -20.1085   23.5894 N   0  0  0  0  0  0  0  0  0  0  0  0
    5.6282  -18.7376   23.2855 C   0  0  0  0  0  0  0  0  0  0  0  0
    6.7823  -18.0299   22.6768 C   0  0  0  0  0  0  0  0  0  0  0  0
    7.9230  -18.5193   22.6726 O   0  0  0  0  0  0  0  0  0  0  0  0
    6.5825  -16.7497   22.0770 N   0  0  0  0  0  0  0  0  0  0  0  0
    7.6167  -15.9955   21.4271 C   0  0  1  0  0  0  0  0  0  0  0  0
    7.0930  -14.9944   20.4356 C   0  0  0  0  0  0  0  0  0  0  0  0
    8.1412  -14.3978   19.6027 C   0  0  0  0  0  0  0  0  0  0  0  0
    9.1196  -15.1229   19.2437 O   0  0  0  0  0  0  0  0  0  0  0  0
    8.5006  -15.3227   22.4314 C   0  0  0  0  0  0  0  0  0  0  0  0
    9.0947  -14.2699   22.0891 O   0  0  0  0  0  0  0  0  0  0  0  0
    8.1684  -13.0837   19.1576 O   0  0  0  0  0  0  0  0  0  0  0  0
    6.7410  -11.2211   27.6951 C   0  0  0  0  0  0  0  0  0  0  0  0
    7.2793  -12.1858   26.2972 S   0  0  0  0  0  0  0  0  0  0  0  0
    6.5830  -13.8120   26.1176 C   0  0  0  0  0  0  0  0  0  0  0  0
    7.0329  -14.5934   24.9329 C   0  0  0  0  0  0  0  0  0  0  0  0
    8.4777  -15.0088   24.9496 C   0  0  2  0  0  0  0  0  0  0  0  0
    8.6983  -15.8053   23.7271 N   0  0  0  0  0  0  0  0  0  0  0  0
    8.7400  -15.8640   26.1310 C   0  0  0  0  0  0  0  0  0  0  0  0
    9.5903  -15.4852   27.1287 O   0  0  0  0  0  0  0  0  0  0  0  0
    8.1580  -16.9687   26.2113 O   0  0  0  0  0  0  0  0  0  0  0  0
  2  1  1  0
  3  2  1  0
  4  3  2  0
  5  3  1  0
  6 10  1  0
  6  5  1  0
  7  8  1  0
  6  7  1  6
  8 12  1  0
  9  8  2  0
 10 11  2  0
 13 14  1  0
 14 15  1  0
 16 15  1  0
 17 16  1  1
 18 17  1  0
 18 10  1  0
 19 20  1  0
 19 17  1  0
 21 19  2  0
M  END
$$$$
