GDM.pdb
     RDKit          3D

 21 20  0  0  1  0  0  0  0  0999 V2000
    5.0677  -20.1894   22.5974 N   0  0  0  0  0  0  0  0  0  0  0  0
    5.2841  -18.7784   22.8521 C   0  0  0  0  0  0  0  0  0  0  0  0
    6.7377  -18.4775   22.8451 C   0  0  0  0  0  0  0  0  0  0  0  0
    7.5190  -19.0005   23.6556 O   0  0  0  0  0  0  0  0  0  0  0  0
    7.2594  -17.5618   21.8818 N   0  0  0  0  0  0  0  0  0  0  0  0
    8.6415  -17.1831   21.7978 C   0  0  1  0  0  0  0  0  0  0  0  0
    9.0297  -16.6328   20.4539 C   0  0  0  0  0  0  0  0  0  0  0  0
    8.9219  -17.6142   19.3705 C   0  0  0  0  0  0  0  0  0  0  0  0
    8.5298  -17.2199   18.2292 O   0  0  0  0  0  0  0  0  0  0  0  0
    8.9980  -16.2137   22.8821 C   0  0  0  0  0  0  0  0  0  0  0  0
    9.3053  -15.0407   22.5529 O   0  0  0  0  0  0  0  0  0  0  0  0
    9.2143  -18.9667   19.4744 O   0  0  0  0  0  0  0  0  0  0  0  0
    6.9303  -11.1128   27.0242 C   0  0  0  0  0  0  0  0  0  0  0  0
    7.3849  -12.3111   25.7864 S   0  0  0  0  0  0  0  0  0  0  0  0
    6.9446  -14.0054   26.0975 C   0  0  0  0  0  0  0  0  0  0  0  0
    7.3991  -14.9997   25.0870 C   0  0  0  0  0  0  0  0  0  0  0  0
    8.7640  -15.5820   25.3288 C   0  0  2  0  0  0  0  0  0  0  0  0
    9.0067  -16.5464   24.2385 N   0  0  0  0  0  0  0  0  0  0  0  0
    8.7778  -16.3078   26.6207 C   0  0  0  0  0  0  0  0  0  0  0  0
    8.4740  -17.6349   26.7125 O   0  0  0  0  0  0  0  0  0  0  0  0
    9.0804  -15.6773   27.6583 O   0  0  0  0  0  0  0  0  0  0  0  0
  2  1  1  0
  3  2  1  0
  4  3  2  0
  5  3  1  0
  6 10  1  0
  6  5  1  0
  7  8  1  0
  6  7  1  6
  8 12  1  0
  9  8  2  0
 10 11  2  0
 13 14  1  0
 14 15  1  0
 16 15  1  0
 17 16  1  6
 18 17  1  0
 18 10  1  0
 19 20  1  0
 19 17  1  0
 21 19  2  0
M  END
$$$$
