GDM.pdb
     RDKit          3D

 21 20  0  0  1  0  0  0  0  0999 V2000
   12.0331  -19.6336   21.2878 N   0  0  0  0  0  0  0  0  0  0  0  0
   10.6318  -19.3851   21.5658 C   0  0  0  0  0  0  0  0  0  0  0  0
   10.3792  -17.9242   21.6395 C   0  0  0  0  0  0  0  0  0  0  0  0
   11.2701  -17.1205   21.9574 O   0  0  0  0  0  0  0  0  0  0  0  0
    9.0773  -17.4218   21.3375 N   0  0  0  0  0  0  0  0  0  0  0  0
    8.7065  -16.0384   21.4341 C   0  0  1  0  0  0  0  0  0  0  0  0
    7.5919  -15.6520   20.5025 C   0  0  0  0  0  0  0  0  0  0  0  0
    7.8346  -16.0444   19.1112 C   0  0  0  0  0  0  0  0  0  0  0  0
    8.7556  -15.4563   18.4649 O   0  0  0  0  0  0  0  0  0  0  0  0
    8.3583  -15.6746   22.8445 C   0  0  0  0  0  0  0  0  0  0  0  0
    7.5155  -16.3829   23.4499 O   0  0  0  0  0  0  0  0  0  0  0  0
    7.1372  -17.0211   18.4146 O   0  0  0  0  0  0  0  0  0  0  0  0
    7.1367  -11.0661   27.9166 C   0  0  0  0  0  0  0  0  0  0  0  0
    6.1701  -11.9648   26.7197 S   0  0  0  0  0  0  0  0  0  0  0  0
    6.6609  -13.6382   26.3726 C   0  0  0  0  0  0  0  0  0  0  0  0
    7.1831  -13.9002   25.0032 C   0  0  0  0  0  0  0  0  0  0  0  0
    8.6417  -14.2572   24.9304 C   0  0  2  0  0  0  0  0  0  0  0  0
    8.9212  -14.5895   23.5200 N   0  0  0  0  0  0  0  0  0  0  0  0
    8.9076  -15.4527   25.7648 C   0  0  0  0  0  0  0  0  0  0  0  0
    9.2736  -16.6505   25.2234 O   0  0  0  0  0  0  0  0  0  0  0  0
    8.7923  -15.3534   27.0067 O   0  0  0  0  0  0  0  0  0  0  0  0
  2  1  1  0
  3  2  1  0
  4  3  2  0
  5  3  1  0
  6 10  1  0
  6  5  1  0
  7  8  1  0
  6  7  1  6
  8 12  1  0
  9  8  2  0
 10 11  2  0
 13 14  1  0
 14 15  1  0
 16 15  1  0
 17 16  1  6
 18 17  1  0
 18 10  1  0
 19 20  1  0
 19 17  1  0
 21 19  2  0
M  END
$$$$
