GDM.pdb
     RDKit          3D

 21 20  0  0  1  0  0  0  0  0999 V2000
    7.5464  -13.0309   18.0183 N   0  0  0  0  0  0  0  0  0  0  0  0
    8.7721  -13.2580   18.7589 C   0  0  0  0  0  0  0  0  0  0  0  0
    8.5387  -14.2527   19.8357 C   0  0  0  0  0  0  0  0  0  0  0  0
    7.5217  -14.2221   20.5467 O   0  0  0  0  0  0  0  0  0  0  0  0
    9.5068  -15.2766   20.0661 N   0  0  0  0  0  0  0  0  0  0  0  0
    9.3931  -16.2754   21.0910 C   0  0  1  0  0  0  0  0  0  0  0  0
   10.2788  -17.4684   20.8635 C   0  0  0  0  0  0  0  0  0  0  0  0
    9.9057  -18.2530   19.6829 C   0  0  0  0  0  0  0  0  0  0  0  0
    8.6837  -18.5522   19.5125 O   0  0  0  0  0  0  0  0  0  0  0  0
    9.6479  -15.6859   22.4438 C   0  0  0  0  0  0  0  0  0  0  0  0
   10.7466  -15.1103   22.6437 O   0  0  0  0  0  0  0  0  0  0  0  0
   10.7812  -18.7121   18.7091 O   0  0  0  0  0  0  0  0  0  0  0  0
    6.3725  -10.8191   26.9456 C   0  0  0  0  0  0  0  0  0  0  0  0
    6.1396  -12.5521   26.6034 S   0  0  0  0  0  0  0  0  0  0  0  0
    7.5996  -13.5253   26.3162 C   0  0  0  0  0  0  0  0  0  0  0  0
    7.6181  -14.3304   25.0639 C   0  0  0  0  0  0  0  0  0  0  0  0
    8.9049  -15.0571   24.7875 C   0  0  2  0  0  0  0  0  0  0  0  0
    8.7281  -15.7437   23.4933 N   0  0  0  0  0  0  0  0  0  0  0  0
    9.1426  -16.0736   25.8392 C   0  0  0  0  0  0  0  0  0  0  0  0
    9.0703  -17.4125   25.5861 O   0  0  0  0  0  0  0  0  0  0  0  0
    9.4199  -15.6848   26.9957 O   0  0  0  0  0  0  0  0  0  0  0  0
  2  1  1  0
  3  2  1  0
  4  3  2  0
  5  3  1  0
  6 10  1  0
  6  5  1  0
  7  8  1  0
  6  7  1  6
  8 12  1  0
  9  8  2  0
 10 11  2  0
 13 14  1  0
 14 15  1  0
 16 15  1  0
 17 16  1  1
 18 17  1  0
 18 10  1  0
 19 20  1  0
 19 17  1  0
 21 19  2  0
M  END
$$$$
