GDM.pdb
     RDKit          3D

 21 20  0  0  1  0  0  0  0  0999 V2000
    7.4315  -12.5414   18.9361 N   0  0  0  0  0  0  0  0  0  0  0  0
    8.4526  -13.5708   18.9464 C   0  0  0  0  0  0  0  0  0  0  0  0
    8.2699  -14.4565   20.1235 C   0  0  0  0  0  0  0  0  0  0  0  0
    7.3343  -14.2982   20.9237 O   0  0  0  0  0  0  0  0  0  0  0  0
    9.1924  -15.5229   20.3484 N   0  0  0  0  0  0  0  0  0  0  0  0
    9.0957  -16.4543   21.4364 C   0  0  1  0  0  0  0  0  0  0  0  0
    9.9340  -17.6871   21.2440 C   0  0  0  0  0  0  0  0  0  0  0  0
    9.7994  -18.6578   22.3340 C   0  0  0  0  0  0  0  0  0  0  0  0
   10.8020  -19.3753   22.6370 O   0  0  0  0  0  0  0  0  0  0  0  0
    9.4296  -15.7935   22.7382 C   0  0  0  0  0  0  0  0  0  0  0  0
   10.6110  -15.4080   22.9230 O   0  0  0  0  0  0  0  0  0  0  0  0
    8.6531  -18.8739   23.0855 O   0  0  0  0  0  0  0  0  0  0  0  0
    6.1978  -10.7830   27.8957 C   0  0  0  0  0  0  0  0  0  0  0  0
    6.1383  -11.9603   26.5597 S   0  0  0  0  0  0  0  0  0  0  0  0
    7.5879  -12.9536   26.2888 C   0  0  0  0  0  0  0  0  0  0  0  0
    7.5603  -13.8474   25.0984 C   0  0  0  0  0  0  0  0  0  0  0  0
    8.7475  -14.7581   24.9525 C   0  0  2  0  0  0  0  0  0  0  0  0
    8.4962  -15.5847   23.7560 N   0  0  0  0  0  0  0  0  0  0  0  0
    8.8465  -15.6462   26.1346 C   0  0  0  0  0  0  0  0  0  0  0  0
    9.4837  -15.2649   27.2794 O   0  0  0  0  0  0  0  0  0  0  0  0
    8.3250  -16.7821   26.0753 O   0  0  0  0  0  0  0  0  0  0  0  0
  2  1  1  0
  3  2  1  0
  4  3  2  0
  5  3  1  0
  6 10  1  0
  6  5  1  0
  7  8  1  0
  6  7  1  6
  8 12  1  0
  9  8  2  0
 10 11  2  0
 13 14  1  0
 14 15  1  0
 16 15  1  0
 17 16  1  1
 18 17  1  0
 18 10  1  0
 19 20  1  0
 19 17  1  0
 21 19  2  0
M  END
$$$$
