GDM.pdb
     RDKit          3D

 21 20  0  0  1  0  0  0  0  0999 V2000
    6.9009  -13.4491   19.5080 N   0  0  0  0  0  0  0  0  0  0  0  0
    8.2966  -13.8346   19.5852 C   0  0  0  0  0  0  0  0  0  0  0  0
    8.4802  -14.8732   20.6297 C   0  0  0  0  0  0  0  0  0  0  0  0
    7.5369  -15.2699   21.3323 O   0  0  0  0  0  0  0  0  0  0  0  0
    9.7754  -15.4367   20.8379 N   0  0  0  0  0  0  0  0  0  0  0  0
   10.0715  -16.4264   21.8347 C   0  0  1  0  0  0  0  0  0  0  0  0
   11.3116  -17.2219   21.5371 C   0  0  0  0  0  0  0  0  0  0  0  0
   11.4493  -18.4186   22.3723 C   0  0  0  0  0  0  0  0  0  0  0  0
   10.4960  -18.7302   23.1508 O   0  0  0  0  0  0  0  0  0  0  0  0
   10.1627  -15.8061   23.1947 C   0  0  0  0  0  0  0  0  0  0  0  0
   11.0907  -14.9878   23.4134 O   0  0  0  0  0  0  0  0  0  0  0  0
   12.5487  -19.2650   22.3951 O   0  0  0  0  0  0  0  0  0  0  0  0
    6.5971  -11.0674   26.2746 C   0  0  0  0  0  0  0  0  0  0  0  0
    6.3134  -12.7441   26.8063 S   0  0  0  0  0  0  0  0  0  0  0  0
    7.7134  -13.8402   26.8142 C   0  0  0  0  0  0  0  0  0  0  0  0
    7.9635  -14.5974   25.5569 C   0  0  0  0  0  0  0  0  0  0  0  0
    9.2481  -15.3777   25.5228 C   0  0  2  0  0  0  0  0  0  0  0  0
    9.2705  -16.0906   24.2309 N   0  0  0  0  0  0  0  0  0  0  0  0
    9.2584  -16.3748   26.6191 C   0  0  0  0  0  0  0  0  0  0  0  0
    9.6226  -16.0507   27.8935 O   0  0  0  0  0  0  0  0  0  0  0  0
    8.9192  -17.5513   26.3613 O   0  0  0  0  0  0  0  0  0  0  0  0
  2  1  1  0
  3  2  1  0
  4  3  2  0
  5  3  1  0
  6 10  1  0
  6  5  1  0
  7  8  1  0
  6  7  1  6
  8 12  1  0
  9  8  2  0
 10 11  2  0
 13 14  1  0
 14 15  1  0
 16 15  1  0
 17 16  1  6
 18 17  1  0
 18 10  1  0
 19 20  1  0
 19 17  1  0
 21 19  2  0
M  END
$$$$
