THH.pdb
     RDKit          3D

 28 29  0  0  1  0  0  0  0  0999 V2000
   18.8172  -10.0055  -15.5307 C   0  0  0  0  0  0  0  0  0  0  0  0
   18.0196   -9.8843  -14.2409 C   0  0  1  0  0  0  0  0  0  0  0  0
   17.8766  -11.1015  -13.6059 O   0  0  0  0  0  0  0  0  0  0  0  0
   18.7788   -8.8848  -13.3614 C   0  0  2  0  0  0  0  0  0  0  0  0
   18.0906   -8.7258  -12.0956 N   0  0  0  0  0  0  0  0  0  0  0  0
   18.8583   -7.5539  -14.0078 C   0  0  0  0  0  0  0  0  0  0  0  0
   18.1206   -6.5990  -13.6082 O   0  0  0  0  0  0  0  0  0  0  0  0
   19.7220   -7.2506  -15.0737 N   0  0  0  0  0  0  0  0  0  0  0  0
   19.7525   -5.8863  -15.6935 C   0  0  1  0  0  0  0  0  0  0  0  0
   20.0866   -5.0109  -14.5395 C   0  0  0  0  0  0  0  0  0  0  0  0
   20.2333   -3.5815  -14.7638 C   0  0  0  0  0  0  0  0  0  0  0  0
   20.0649   -3.0330  -16.0555 C   0  0  0  0  0  0  0  0  0  0  0  0
   20.2444   -1.7110  -16.0251 N   0  0  0  0  0  0  0  0  0  0  0  0
   20.5252   -1.3983  -14.7376 C   0  0  0  0  0  0  0  0  0  0  0  0
   20.5124   -2.5263  -14.0098 N   0  0  0  0  0  0  0  0  0  0  0  0
   20.7706   -5.9807  -16.7547 C   0  0  0  0  0  0  0  0  0  0  0  0
   21.8569   -6.6013  -16.4333 O   0  0  0  0  0  0  0  0  0  0  0  0
   20.7036   -5.4875  -18.0603 N   0  0  0  0  0  0  0  0  0  0  0  0
   21.8515   -5.6956  -19.0086 C   0  0  1  0  0  0  0  0  0  0  0  0
   21.2708   -6.1692  -20.2840 C   0  0  0  0  0  0  0  0  0  0  0  0
   20.9748   -7.5883  -20.3667 C   0  0  0  0  0  0  0  0  0  0  0  0
   21.5612   -8.7053  -19.8261 C   0  0  0  0  0  0  0  0  0  0  0  0
   20.8509   -9.8238  -20.1584 N   0  0  0  0  0  0  0  0  0  0  0  0
   19.8268   -9.4104  -20.9002 C   0  0  0  0  0  0  0  0  0  0  0  0
   19.8828   -8.0903  -21.0343 N   0  0  0  0  0  0  0  0  0  0  0  0
   22.5486   -4.3810  -19.1036 C   0  0  0  0  0  0  0  0  0  0  0  0
   23.8410   -4.1665  -19.4849 O   0  0  0  0  0  0  0  0  0  0  0  0
   21.8995   -3.3123  -18.8052 O   0  0  0  0  0  0  0  0  0  0  0  0
  2  4  1  0
  2  1  1  6
  3  2  1  0
  4  6  1  0
  4  5  1  1
  6  7  2  0
  8  6  1  0
  8  9  1  0
  9 16  1  0
  9 10  1  1
 10 11  1  0
 11 12  2  0
 12 13  1  0
 14 13  1  0
 15 11  1  0
 15 14  2  0
 16 17  2  0
 18 19  1  0
 18 16  1  0
 19 26  1  0
 19 20  1  6
 21 20  1  0
 22 21  2  0
 23 22  1  0
 24 23  1  0
 24 25  2  0
 25 21  1  0
 26 28  2  0
 26 27  1  0
M  END
$$$$
