THH.pdb
     RDKit          3D

 28 29  0  0  1  0  0  0  0  0999 V2000
   19.9385  -26.5001  -11.0465 C   0  0  0  0  0  0  0  0  0  0  0  0
   20.0056  -27.1150  -12.4363 C   0  0  1  0  0  0  0  0  0  0  0  0
   20.2227  -26.1633  -13.4122 O   0  0  0  0  0  0  0  0  0  0  0  0
   21.1452  -28.1390  -12.3960 C   0  0  2  0  0  0  0  0  0  0  0  0
   21.2567  -28.7978  -13.6823 N   0  0  0  0  0  0  0  0  0  0  0  0
   20.8956  -29.1792  -11.3708 C   0  0  0  0  0  0  0  0  0  0  0  0
   20.1297  -30.1616  -11.6235 O   0  0  0  0  0  0  0  0  0  0  0  0
   21.4631  -29.1651  -10.0855 N   0  0  0  0  0  0  0  0  0  0  0  0
   21.2140  -30.2726   -9.1069 C   0  0  1  0  0  0  0  0  0  0  0  0
   22.5511  -30.4678   -8.4875 C   0  0  0  0  0  0  0  0  0  0  0  0
   23.4175  -31.5144   -9.0063 C   0  0  0  0  0  0  0  0  0  0  0  0
   22.9558  -32.4059  -10.0011 C   0  0  0  0  0  0  0  0  0  0  0  0
   23.9138  -33.2769  -10.3242 N   0  0  0  0  0  0  0  0  0  0  0  0
   24.9838  -32.9625   -9.5557 C   0  0  0  0  0  0  0  0  0  0  0  0
   24.6628  -31.9130   -8.7826 N   0  0  0  0  0  0  0  0  0  0  0  0
   20.1555  -29.7571   -8.2207 C   0  0  0  0  0  0  0  0  0  0  0  0
   20.3334  -28.5571   -7.7769 O   0  0  0  0  0  0  0  0  0  0  0  0
   18.9870  -30.4021   -7.8072 N   0  0  0  0  0  0  0  0  0  0  0  0
   17.9353  -29.6478   -7.0422 C   0  0  1  0  0  0  0  0  0  0  0  0
   17.6482  -28.4174   -7.8115 C   0  0  0  0  0  0  0  0  0  0  0  0
   17.9555  -27.1613   -7.1513 C   0  0  0  0  0  0  0  0  0  0  0  0
   18.4710  -26.8471   -5.9187 C   0  0  0  0  0  0  0  0  0  0  0  0
   18.6324  -25.4958   -5.8007 N   0  0  0  0  0  0  0  0  0  0  0  0
   18.2225  -24.9679   -6.9510 C   0  0  0  0  0  0  0  0  0  0  0  0
   17.8185  -25.9379   -7.7633 N   0  0  0  0  0  0  0  0  0  0  0  0
   16.7753  -30.5760   -6.9158 C   0  0  0  0  0  0  0  0  0  0  0  0
   15.9339  -30.6924   -5.8479 O   0  0  0  0  0  0  0  0  0  0  0  0
   16.5037  -31.3654   -7.8933 O   0  0  0  0  0  0  0  0  0  0  0  0
  2  4  1  0
  2  1  1  1
  3  2  1  0
  4  6  1  0
  4  5  1  6
  6  7  2  0
  8  6  1  0
  8  9  1  0
  9 16  1  0
  9 10  1  1
 10 11  1  0
 11 12  2  0
 12 13  1  0
 14 13  1  0
 15 11  1  0
 15 14  2  0
 16 17  2  0
 18 19  1  0
 18 16  1  0
 19 26  1  0
 19 20  1  6
 21 20  1  0
 22 21  2  0
 23 22  1  0
 24 23  1  0
 24 25  2  0
 25 21  1  0
 26 28  2  0
 26 27  1  0
M  END
$$$$
