THH.pdb
     RDKit          3D

 28 29  0  0  1  0  0  0  0  0999 V2000
   26.8075  -25.6852  -18.5620 C   0  0  0  0  0  0  0  0  0  0  0  0
   27.3426  -25.5897  -19.9828 C   0  0  1  0  0  0  0  0  0  0  0  0
   27.2001  -24.3197  -20.5041 O   0  0  0  0  0  0  0  0  0  0  0  0
   28.8179  -25.9987  -19.9121 C   0  0  2  0  0  0  0  0  0  0  0  0
   29.4244  -25.8710  -21.2225 N   0  0  0  0  0  0  0  0  0  0  0  0
   28.9638  -27.4076  -19.4773 C   0  0  0  0  0  0  0  0  0  0  0  0
   28.7528  -28.3586  -20.2939 O   0  0  0  0  0  0  0  0  0  0  0  0
   29.3329  -27.7924  -18.1773 N   0  0  0  0  0  0  0  0  0  0  0  0
   29.4912  -29.2350  -17.8025 C   0  0  1  0  0  0  0  0  0  0  0  0
   30.9177  -29.3108  -17.3916 C   0  0  0  0  0  0  0  0  0  0  0  0
   31.4488  -30.5859  -16.9364 C   0  0  0  0  0  0  0  0  0  0  0  0
   30.6051  -31.7117  -16.8010 C   0  0  0  0  0  0  0  0  0  0  0  0
   31.3030  -32.7654  -16.3727 N   0  0  0  0  0  0  0  0  0  0  0  0
   32.5804  -32.3387  -16.2298 C   0  0  0  0  0  0  0  0  0  0  0  0
   32.6398  -31.0416  -16.5708 N   0  0  0  0  0  0  0  0  0  0  0  0
   28.4952  -29.4561  -16.7392 C   0  0  0  0  0  0  0  0  0  0  0  0
   28.3905  -28.5101  -15.8659 O   0  0  0  0  0  0  0  0  0  0  0  0
   27.6517  -30.5560  -16.5630 N   0  0  0  0  0  0  0  0  0  0  0  0
   26.2492  -30.3620  -16.0570 C   0  0  1  0  0  0  0  0  0  0  0  0
   25.7295  -29.1355  -16.7003 C   0  0  0  0  0  0  0  0  0  0  0  0
   24.3076  -28.8840  -16.5477 C   0  0  0  0  0  0  0  0  0  0  0  0
   23.3101  -29.5140  -15.8463 C   0  0  0  0  0  0  0  0  0  0  0  0
   22.1324  -28.8350  -15.9802 N   0  0  0  0  0  0  0  0  0  0  0  0
   22.3906  -27.7871  -16.7581 C   0  0  0  0  0  0  0  0  0  0  0  0
   23.6728  -27.7987  -17.1039 N   0  0  0  0  0  0  0  0  0  0  0  0
   25.5076  -31.6042  -16.4174 C   0  0  0  0  0  0  0  0  0  0  0  0
   25.9867  -32.6650  -17.1294 O   0  0  0  0  0  0  0  0  0  0  0  0
   24.2867  -31.7300  -16.0354 O   0  0  0  0  0  0  0  0  0  0  0  0
  2  4  1  0
  2  1  1  1
  3  2  1  0
  4  6  1  0
  4  5  1  6
  6  7  2  0
  8  6  1  0
  8  9  1  0
  9 16  1  0
  9 10  1  1
 10 11  1  0
 11 12  2  0
 12 13  1  0
 14 13  1  0
 15 11  1  0
 15 14  2  0
 16 17  2  0
 18 19  1  0
 18 16  1  0
 19 26  1  0
 19 20  1  6
 21 20  1  0
 22 21  2  0
 23 22  1  0
 24 23  1  0
 24 25  2  0
 25 21  1  0
 26 28  2  0
 26 27  1  0
M  END
$$$$
