THH.pdb
     RDKit          3D

 28 29  0  0  1  0  0  0  0  0999 V2000
   20.4405  -11.9274    4.9888 C   0  0  0  0  0  0  0  0  0  0  0  0
   19.6227  -12.9110    5.8122 C   0  0  1  0  0  0  0  0  0  0  0  0
   19.1983  -12.3592    7.0041 O   0  0  0  0  0  0  0  0  0  0  0  0
   18.4342  -13.3182    4.9344 C   0  0  2  0  0  0  0  0  0  0  0  0
   17.4807  -12.2286    4.8656 N   0  0  0  0  0  0  0  0  0  0  0  0
   17.7362  -14.5006    5.4915 C   0  0  0  0  0  0  0  0  0  0  0  0
   16.7607  -14.3539    6.2931 O   0  0  0  0  0  0  0  0  0  0  0  0
   18.0823  -15.8288    5.1909 N   0  0  0  0  0  0  0  0  0  0  0  0
   17.3512  -16.9862    5.8011 C   0  0  1  0  0  0  0  0  0  0  0  0
   16.9959  -17.8095    4.6155 C   0  0  0  0  0  0  0  0  0  0  0  0
   15.6907  -17.6258    4.0007 C   0  0  0  0  0  0  0  0  0  0  0  0
   14.7595  -16.7120    4.5442 C   0  0  0  0  0  0  0  0  0  0  0  0
   13.6375  -16.7082    3.8217 N   0  0  0  0  0  0  0  0  0  0  0  0
   13.8293  -17.6028    2.8230 C   0  0  0  0  0  0  0  0  0  0  0  0
   15.0558  -18.1332    2.9523 N   0  0  0  0  0  0  0  0  0  0  0  0
   18.3154  -17.5829    6.7422 C   0  0  0  0  0  0  0  0  0  0  0  0
   19.5111  -17.7533    6.2842 O   0  0  0  0  0  0  0  0  0  0  0  0
   18.0972  -17.9810    8.0636 N   0  0  0  0  0  0  0  0  0  0  0  0
   19.2257  -18.5453    8.8812 C   0  0  1  0  0  0  0  0  0  0  0  0
   19.5964  -17.5088    9.8694 C   0  0  0  0  0  0  0  0  0  0  0  0
   20.8067  -16.7576    9.5883 C   0  0  0  0  0  0  0  0  0  0  0  0
   22.0168  -17.0947    9.0351 C   0  0  0  0  0  0  0  0  0  0  0  0
   22.8143  -15.9910    8.9266 N   0  0  0  0  0  0  0  0  0  0  0  0
   22.1088  -14.9704    9.4067 C   0  0  0  0  0  0  0  0  0  0  0  0
   20.9177  -15.4042    9.8029 N   0  0  0  0  0  0  0  0  0  0  0  0
   18.7059  -19.8068    9.4823 C   0  0  0  0  0  0  0  0  0  0  0  0
   19.3987  -20.6878   10.2606 O   0  0  0  0  0  0  0  0  0  0  0  0
   17.4813  -20.1355    9.2708 O   0  0  0  0  0  0  0  0  0  0  0  0
  2  4  1  0
  2  1  1  6
  3  2  1  0
  4  6  1  0
  4  5  1  1
  6  7  2  0
  8  6  1  0
  8  9  1  0
  9 16  1  0
  9 10  1  6
 10 11  1  0
 11 12  2  0
 12 13  1  0
 14 13  1  0
 15 11  1  0
 15 14  2  0
 16 17  2  0
 18 19  1  0
 18 16  1  0
 19 26  1  0
 19 20  1  1
 21 20  1  0
 22 21  2  0
 23 22  1  0
 24 23  1  0
 24 25  2  0
 25 21  1  0
 26 28  2  0
 26 27  1  0
M  END
$$$$
