THH.pdb
     RDKit          3D

 28 29  0  0  1  0  0  0  0  0999 V2000
   27.4140  -11.4860  -15.6875 C   0  0  0  0  0  0  0  0  0  0  0  0
   26.2219  -10.6139  -16.0516 C   0  0  1  0  0  0  0  0  0  0  0  0
   26.3850  -10.0019  -17.2779 O   0  0  0  0  0  0  0  0  0  0  0  0
   24.9998  -11.5388  -16.0507 C   0  0  2  0  0  0  0  0  0  0  0  0
   25.0952  -12.4767  -17.1518 N   0  0  0  0  0  0  0  0  0  0  0  0
   23.7444  -10.7689  -16.2146 C   0  0  0  0  0  0  0  0  0  0  0  0
   23.2179  -10.6329  -17.3635 O   0  0  0  0  0  0  0  0  0  0  0  0
   23.0601  -10.1505  -15.1547 N   0  0  0  0  0  0  0  0  0  0  0  0
   21.7740   -9.4134  -15.3765 C   0  0  1  0  0  0  0  0  0  0  0  0
   20.8604  -10.0470  -14.3899 C   0  0  0  0  0  0  0  0  0  0  0  0
   20.0790  -11.2029  -14.8003 C   0  0  0  0  0  0  0  0  0  0  0  0
   20.1403  -11.6801  -16.1292 C   0  0  0  0  0  0  0  0  0  0  0  0
   19.3468  -12.7428  -16.2775 N   0  0  0  0  0  0  0  0  0  0  0  0
   18.7758  -12.9584  -15.0685 C   0  0  0  0  0  0  0  0  0  0  0  0
   19.2272  -12.0307  -14.2096 N   0  0  0  0  0  0  0  0  0  0  0  0
   22.1087   -7.9982  -15.1380 C   0  0  0  0  0  0  0  0  0  0  0  0
   22.9581   -7.7768  -14.1904 O   0  0  0  0  0  0  0  0  0  0  0  0
   21.6255   -6.8728  -15.8104 N   0  0  0  0  0  0  0  0  0  0  0  0
   22.1314   -5.5024  -15.4547 C   0  0  1  0  0  0  0  0  0  0  0  0
   21.6991   -4.5934  -16.5386 C   0  0  0  0  0  0  0  0  0  0  0  0
   22.0150   -3.1873  -16.3613 C   0  0  0  0  0  0  0  0  0  0  0  0
   23.1737   -2.5124  -16.0682 C   0  0  0  0  0  0  0  0  0  0  0  0
   22.9541   -1.1642  -16.0763 N   0  0  0  0  0  0  0  0  0  0  0  0
   21.6683   -0.9959  -16.3734 C   0  0  0  0  0  0  0  0  0  0  0  0
   21.0958   -2.1818  -16.5460 N   0  0  0  0  0  0  0  0  0  0  0  0
   21.5492   -5.1840  -14.1195 C   0  0  0  0  0  0  0  0  0  0  0  0
   22.1355   -4.4584  -13.1238 O   0  0  0  0  0  0  0  0  0  0  0  0
   20.3728   -5.6185  -13.8367 O   0  0  0  0  0  0  0  0  0  0  0  0
  2  4  1  0
  2  1  1  6
  3  2  1  0
  4  6  1  0
  4  5  1  6
  6  7  2  0
  8  6  1  0
  8  9  1  0
  9 16  1  0
  9 10  1  1
 10 11  1  0
 11 12  2  0
 12 13  1  0
 14 13  1  0
 15 11  1  0
 15 14  2  0
 16 17  2  0
 18 19  1  0
 18 16  1  0
 19 26  1  0
 19 20  1  6
 21 20  1  0
 22 21  2  0
 23 22  1  0
 24 23  1  0
 24 25  2  0
 25 21  1  0
 26 28  2  0
 26 27  1  0
M  END
$$$$
