THH.pdb
     RDKit          3D

 28 29  0  0  1  0  0  0  0  0999 V2000
   27.3920  -11.3122  -15.1930 C   0  0  0  0  0  0  0  0  0  0  0  0
   26.0705  -10.6069  -15.4583 C   0  0  1  0  0  0  0  0  0  0  0  0
   26.2088   -9.5744  -16.3639 O   0  0  0  0  0  0  0  0  0  0  0  0
   25.1108  -11.6806  -15.9826 C   0  0  2  0  0  0  0  0  0  0  0  0
   25.5777  -12.1704  -17.2645 N   0  0  0  0  0  0  0  0  0  0  0  0
   23.7467  -11.1343  -16.1724 C   0  0  0  0  0  0  0  0  0  0  0  0
   23.3620  -10.7472  -17.3204 O   0  0  0  0  0  0  0  0  0  0  0  0
   22.8036  -11.0045  -15.1390 N   0  0  0  0  0  0  0  0  0  0  0  0
   21.3995  -10.5561  -15.4114 C   0  0  1  0  0  0  0  0  0  0  0  0
   20.5903  -11.5148  -14.6142 C   0  0  0  0  0  0  0  0  0  0  0  0
   20.2598  -12.8061  -15.1961 C   0  0  0  0  0  0  0  0  0  0  0  0
   20.7140  -13.1521  -16.4890 C   0  0  0  0  0  0  0  0  0  0  0  0
   20.2941  -14.3758  -16.8161 N   0  0  0  0  0  0  0  0  0  0  0  0
   19.5780  -14.8240  -15.7575 C   0  0  0  0  0  0  0  0  0  0  0  0
   19.5731  -13.8733  -14.8097 N   0  0  0  0  0  0  0  0  0  0  0  0
   21.3640   -9.1505  -14.9703 C   0  0  0  0  0  0  0  0  0  0  0  0
   22.3709   -8.7618  -14.2606 O   0  0  0  0  0  0  0  0  0  0  0  0
   20.3819   -8.1905  -15.2276 N   0  0  0  0  0  0  0  0  0  0  0  0
   20.6407   -6.7412  -14.9229 C   0  0  1  0  0  0  0  0  0  0  0  0
   21.8051   -6.3348  -15.7397 C   0  0  0  0  0  0  0  0  0  0  0  0
   22.1353   -4.9209  -15.7279 C   0  0  0  0  0  0  0  0  0  0  0  0
   21.6517   -3.8471  -15.0230 C   0  0  0  0  0  0  0  0  0  0  0  0
   22.3547   -2.7180  -15.3342 N   0  0  0  0  0  0  0  0  0  0  0  0
   23.2723   -3.0820  -16.2260 C   0  0  0  0  0  0  0  0  0  0  0  0
   23.1585   -4.3823  -16.4715 N   0  0  0  0  0  0  0  0  0  0  0  0
   19.3783   -6.0205  -15.2544 C   0  0  0  0  0  0  0  0  0  0  0  0
   18.8088   -5.0015  -14.5480 O   0  0  0  0  0  0  0  0  0  0  0  0
   18.7277   -6.3631  -16.3089 O   0  0  0  0  0  0  0  0  0  0  0  0
  2  4  1  0
  2  1  1  6
  3  2  1  0
  4  6  1  0
  4  5  1  6
  6  7  2  0
  8  6  1  0
  8  9  1  0
  9 16  1  0
  9 10  1  1
 10 11  1  0
 11 12  2  0
 12 13  1  0
 14 13  1  0
 15 11  1  0
 15 14  2  0
 16 17  2  0
 18 19  1  0
 18 16  1  0
 19 26  1  0
 19 20  1  6
 21 20  1  0
 22 21  2  0
 23 22  1  0
 24 23  1  0
 24 25  2  0
 25 21  1  0
 26 28  2  0
 26 27  1  0
M  END
$$$$
