EQR.pdb
     RDKit          3D

 30 29  0  0  1  0  0  0  0  0999 V2000
   12.9495  -19.6111   17.1180 N   0  0  0  0  0  0  0  0  0  0  0  0
   13.5511  -19.6014   18.4249 C   0  0  1  0  0  0  0  0  0  0  0  0
   14.5628  -18.4608   18.4302 C   0  0  0  0  0  0  0  0  0  0  0  0
   15.2366  -18.4541   19.7925 C   0  0  0  0  0  0  0  0  0  0  0  0
   16.2037  -17.3306   19.8702 C   0  0  0  0  0  0  0  0  0  0  0  0
   17.4305  -17.5555   19.7092 O   0  0  0  0  0  0  0  0  0  0  0  0
   12.5208  -19.4141   19.4695 C   0  0  0  0  0  0  0  0  0  0  0  0
   11.6184  -18.5431   19.4008 O   0  0  0  0  0  0  0  0  0  0  0  0
   15.7373  -16.0540   20.1190 O   0  0  0  0  0  0  0  0  0  0  0  0
   10.8683  -23.8598   23.6245 N   0  0  0  0  0  0  0  0  0  0  0  0
    9.9311  -22.8158   23.7736 C   0  0  0  0  0  0  0  0  0  0  0  0
    8.9922  -22.9211   24.5915 O   0  0  0  0  0  0  0  0  0  0  0  0
   10.0522  -21.5951   22.9670 C   0  0  0  0  0  0  0  0  0  0  0  0
   11.2342  -21.6428   22.0207 C   0  0  0  0  0  0  0  0  0  0  0  0
   11.5069  -20.1896   21.6047 C   0  0  2  0  0  0  0  0  0  0  0  0
   12.5347  -20.2482   20.6123 N   0  0  0  0  0  0  0  0  0  0  0  0
   11.8648  -19.3673   22.7752 C   0  0  0  0  0  0  0  0  0  0  0  0
   13.0494  -19.3242   23.1765 O   0  0  0  0  0  0  0  0  0  0  0  0
   10.8139  -14.6946   30.2463 N   0  0  0  0  0  0  0  0  0  0  0  0
   10.1407  -14.3070   29.0560 C   0  0  0  0  0  0  0  0  0  0  0  0
   10.0932  -13.0523   28.7654 N   0  0  0  0  0  0  0  0  0  0  0  0
    9.5252  -15.2339   28.1818 N   0  0  0  0  0  0  0  0  0  0  0  0
    9.7059  -15.0918   26.7534 C   0  0  0  0  0  0  0  0  0  0  0  0
   10.7341  -16.0944   26.2769 C   0  0  0  0  0  0  0  0  0  0  0  0
   10.2696  -16.9285   25.1251 C   0  0  0  0  0  0  0  0  0  0  0  0
   11.3316  -17.8452   24.6468 C   0  0  2  0  0  0  0  0  0  0  0  0
   10.9067  -18.6107   23.4774 N   0  0  0  0  0  0  0  0  0  0  0  0
   11.8192  -18.7717   25.6865 C   0  0  0  0  0  0  0  0  0  0  0  0
   11.0801  -19.9535   25.8992 O   0  0  0  0  0  0  0  0  0  0  0  0
   12.8198  -18.5973   26.3847 O   0  0  0  0  0  0  0  0  0  0  0  0
  2  1  1  6
  2  3  1  0
  3  4  1  0
  5  6  2  0
  5  4  1  0
  7  8  2  0
  7  2  1  0
  9  5  1  0
 10 11  1  0
 11 13  1  0
 12 11  2  0
 13 14  1  0
 15 14  1  1
 15 16  1  0
 16  7  1  0
 17 18  2  0
 17 15  1  0
 20 21  2  0
 20 19  1  0
 22 20  1  0
 23 22  1  0
 24 23  1  0
 24 25  1  0
 26 25  1  1
 26 27  1  0
 27 17  1  0
 28 26  1  0
 29 28  1  0
 30 28  2  0
M  END
$$$$
