EQR.pdb
     RDKit          3D

 30 29  0  0  1  0  0  0  0  0999 V2000
   10.6840  -15.1123   16.4051 N   0  0  0  0  0  0  0  0  0  0  0  0
   11.0043  -16.4934   16.6501 C   0  0  1  0  0  0  0  0  0  0  0  0
   11.3886  -17.0969   15.3037 C   0  0  0  0  0  0  0  0  0  0  0  0
   11.3924  -15.9712   14.2828 C   0  0  0  0  0  0  0  0  0  0  0  0
   11.6854  -16.5163   12.9335 C   0  0  0  0  0  0  0  0  0  0  0  0
   11.0508  -16.0832   11.9379 O   0  0  0  0  0  0  0  0  0  0  0  0
   12.1094  -16.6048   17.6269 C   0  0  0  0  0  0  0  0  0  0  0  0
   12.5143  -17.7003   18.0892 O   0  0  0  0  0  0  0  0  0  0  0  0
   12.6531  -17.4928   12.7951 O   0  0  0  0  0  0  0  0  0  0  0  0
   17.1602  -12.5134   18.4579 N   0  0  0  0  0  0  0  0  0  0  0  0
   16.3553  -12.9977   17.4053 C   0  0  0  0  0  0  0  0  0  0  0  0
   16.3196  -12.3982   16.3094 O   0  0  0  0  0  0  0  0  0  0  0  0
   15.5519  -14.2126   17.5900 C   0  0  0  0  0  0  0  0  0  0  0  0
   14.5971  -14.1014   18.7607 C   0  0  0  0  0  0  0  0  0  0  0  0
   13.9267  -15.4766   18.8969 C   0  0  2  0  0  0  0  0  0  0  0  0
   12.7568  -15.4296   18.0760 N   0  0  0  0  0  0  0  0  0  0  0  0
   13.6419  -15.7836   20.3108 C   0  0  0  0  0  0  0  0  0  0  0  0
   12.6338  -15.2974   20.8705 O   0  0  0  0  0  0  0  0  0  0  0  0
   10.9493  -21.0327   25.1848 N   0  0  0  0  0  0  0  0  0  0  0  0
   11.5651  -21.3663   23.9480 C   0  0  0  0  0  0  0  0  0  0  0  0
   10.9998  -22.2574   23.2083 N   0  0  0  0  0  0  0  0  0  0  0  0
   12.7640  -20.7651   23.4969 N   0  0  0  0  0  0  0  0  0  0  0  0
   13.6569  -20.1529   24.4565 C   0  0  0  0  0  0  0  0  0  0  0  0
   13.7776  -18.6749   24.1558 C   0  0  0  0  0  0  0  0  0  0  0  0
   14.0619  -18.3766   22.7176 C   0  0  0  0  0  0  0  0  0  0  0  0
   14.1031  -16.9182   22.4565 C   0  0  2  0  0  0  0  0  0  0  0  0
   14.4769  -16.6206   21.0760 N   0  0  0  0  0  0  0  0  0  0  0  0
   14.9949  -16.1828   23.3734 C   0  0  0  0  0  0  0  0  0  0  0  0
   14.6647  -16.1918   24.7442 O   0  0  0  0  0  0  0  0  0  0  0  0
   16.0053  -15.5609   23.0394 O   0  0  0  0  0  0  0  0  0  0  0  0
  2  1  1  6
  2  3  1  0
  3  4  1  0
  5  6  2  0
  5  4  1  0
  7  8  2  0
  7  2  1  0
  9  5  1  0
 10 11  1  0
 11 13  1  0
 12 11  2  0
 13 14  1  0
 15 14  1  1
 15 16  1  0
 16  7  1  0
 17 18  2  0
 17 15  1  0
 20 21  2  0
 20 19  1  0
 22 20  1  0
 23 22  1  0
 24 23  1  0
 24 25  1  0
 26 25  1  1
 26 27  1  0
 27 17  1  0
 28 26  1  0
 29 28  1  0
 30 28  2  0
M  END
$$$$
