EQR.pdb
     RDKit          3D

 30 29  0  0  1  0  0  0  0  0999 V2000
    7.6608  -19.7215   19.2930 N   0  0  0  0  0  0  0  0  0  0  0  0
    6.8874  -18.5630   19.6531 C   0  0  1  0  0  0  0  0  0  0  0  0
    5.6079  -19.0781   20.3028 C   0  0  0  0  0  0  0  0  0  0  0  0
    6.0120  -19.9419   21.4861 C   0  0  0  0  0  0  0  0  0  0  0  0
    4.8022  -20.5152   22.1273 C   0  0  0  0  0  0  0  0  0  0  0  0
    4.9089  -21.1199   23.2248 O   0  0  0  0  0  0  0  0  0  0  0  0
    7.6506  -17.6957   20.5769 C   0  0  0  0  0  0  0  0  0  0  0  0
    8.5825  -18.1157   21.3067 O   0  0  0  0  0  0  0  0  0  0  0  0
    3.5767  -20.3737   21.5050 O   0  0  0  0  0  0  0  0  0  0  0  0
    6.8872  -11.6243   19.9817 N   0  0  0  0  0  0  0  0  0  0  0  0
    7.7696  -12.4586   19.2636 C   0  0  0  0  0  0  0  0  0  0  0  0
    8.1860  -12.1167   18.1361 O   0  0  0  0  0  0  0  0  0  0  0  0
    8.2061  -13.7378   19.8371 C   0  0  0  0  0  0  0  0  0  0  0  0
    7.5622  -14.0191   21.1790 C   0  0  0  0  0  0  0  0  0  0  0  0
    7.9930  -15.4406   21.5696 C   0  0  2  0  0  0  0  0  0  0  0  0
    7.3302  -16.3199   20.6574 N   0  0  0  0  0  0  0  0  0  0  0  0
    7.6788  -15.7138   22.9842 C   0  0  0  0  0  0  0  0  0  0  0  0
    6.5099  -16.0015   23.3259 O   0  0  0  0  0  0  0  0  0  0  0  0
    7.2578  -22.7982   27.1775 N   0  0  0  0  0  0  0  0  0  0  0  0
    6.4328  -21.7271   27.6161 C   0  0  0  0  0  0  0  0  0  0  0  0
    5.2924  -22.0145   28.1430 N   0  0  0  0  0  0  0  0  0  0  0  0
    6.8081  -20.3677   27.5004 N   0  0  0  0  0  0  0  0  0  0  0  0
    7.1788  -19.8405   26.2052 C   0  0  0  0  0  0  0  0  0  0  0  0
    7.6136  -18.3992   26.3573 C   0  0  0  0  0  0  0  0  0  0  0  0
    8.0045  -17.7512   25.0667 C   0  0  0  0  0  0  0  0  0  0  0  0
    8.4071  -16.3380   25.2610 C   0  0  2  0  0  0  0  0  0  0  0  0
    8.6624  -15.6631   23.9909 N   0  0  0  0  0  0  0  0  0  0  0  0
    9.5785  -16.1776   26.1437 C   0  0  0  0  0  0  0  0  0  0  0  0
    9.3825  -16.3849   27.5245 O   0  0  0  0  0  0  0  0  0  0  0  0
   10.7149  -15.8770   25.7729 O   0  0  0  0  0  0  0  0  0  0  0  0
  2  1  1  1
  2  3  1  0
  3  4  1  0
  5  6  2  0
  5  4  1  0
  7  8  2  0
  7  2  1  0
  9  5  1  0
 10 11  1  0
 11 13  1  0
 12 11  2  0
 13 14  1  0
 15 14  1  6
 15 16  1  0
 16  7  1  0
 17 18  2  0
 17 15  1  0
 20 21  2  0
 20 19  1  0
 22 20  1  0
 23 22  1  0
 24 23  1  0
 24 25  1  0
 26 25  1  6
 26 27  1  0
 27 17  1  0
 28 26  1  0
 29 28  1  0
 30 28  2  0
M  END
$$$$
