EQR.pdb
     RDKit          3D

 30 29  0  0  1  0  0  0  0  0999 V2000
   13.2036  -25.5749   24.4992 N   0  0  0  0  0  0  0  0  0  0  0  0
   13.7374  -25.7510   25.8235 C   0  0  1  0  0  0  0  0  0  0  0  0
   15.2315  -25.4612   25.7331 C   0  0  0  0  0  0  0  0  0  0  0  0
   15.7212  -25.9986   24.3985 C   0  0  0  0  0  0  0  0  0  0  0  0
   17.1742  -25.7326   24.2513 C   0  0  0  0  0  0  0  0  0  0  0  0
   17.9990  -26.6583   24.4617 O   0  0  0  0  0  0  0  0  0  0  0  0
   13.0679  -24.8412   26.7785 C   0  0  0  0  0  0  0  0  0  0  0  0
   12.7883  -23.6458   26.5129 O   0  0  0  0  0  0  0  0  0  0  0  0
   17.5957  -24.4689   23.8846 O   0  0  0  0  0  0  0  0  0  0  0  0
    9.5413  -26.7788   31.6513 N   0  0  0  0  0  0  0  0  0  0  0  0
    9.5012  -25.3689   31.6853 C   0  0  0  0  0  0  0  0  0  0  0  0
    8.7630  -24.7770   32.5016 O   0  0  0  0  0  0  0  0  0  0  0  0
   10.3285  -24.5849   30.7598 C   0  0  0  0  0  0  0  0  0  0  0  0
   11.1512  -25.4603   29.8372 C   0  0  0  0  0  0  0  0  0  0  0  0
   12.0294  -24.5062   29.0141 C   0  0  2  0  0  0  0  0  0  0  0  0
   12.7160  -25.3224   28.0617 N   0  0  0  0  0  0  0  0  0  0  0  0
   12.9326  -23.7373   29.8902 C   0  0  0  0  0  0  0  0  0  0  0  0
   13.6770  -24.3296   30.7032 O   0  0  0  0  0  0  0  0  0  0  0  0
   12.0603  -16.3722   27.8332 N   0  0  0  0  0  0  0  0  0  0  0  0
   11.2819  -16.5885   29.0026 C   0  0  0  0  0  0  0  0  0  0  0  0
   10.0980  -16.0815   29.0474 N   0  0  0  0  0  0  0  0  0  0  0  0
   11.7482  -17.3327   30.1122 N   0  0  0  0  0  0  0  0  0  0  0  0
   13.0379  -17.9841   30.0397 C   0  0  0  0  0  0  0  0  0  0  0  0
   12.8886  -19.4358   30.4392 C   0  0  0  0  0  0  0  0  0  0  0  0
   14.1488  -20.2296   30.2978 C   0  0  0  0  0  0  0  0  0  0  0  0
   13.9574  -21.6420   30.7046 C   0  0  2  0  0  0  0  0  0  0  0  0
   12.9937  -22.3308   29.8497 N   0  0  0  0  0  0  0  0  0  0  0  0
   13.5566  -21.7969   32.1161 C   0  0  0  0  0  0  0  0  0  0  0  0
   14.5108  -21.4672   33.1004 O   0  0  0  0  0  0  0  0  0  0  0  0
   12.4557  -22.1913   32.5056 O   0  0  0  0  0  0  0  0  0  0  0  0
  2  1  1  6
  2  3  1  0
  3  4  1  0
  5  6  2  0
  5  4  1  0
  7  8  2  0
  7  2  1  0
  9  5  1  0
 10 11  1  0
 11 13  1  0
 12 11  2  0
 13 14  1  0
 15 14  1  1
 15 16  1  0
 16  7  1  0
 17 18  2  0
 17 15  1  0
 20 21  2  0
 20 19  1  0
 22 20  1  0
 23 22  1  0
 24 23  1  0
 24 25  1  0
 26 25  1  6
 26 27  1  0
 27 17  1  0
 28 26  1  0
 29 28  1  0
 30 28  2  0
M  END
$$$$
