EQR.pdb
     RDKit          3D

 30 29  0  0  1  0  0  0  0  0999 V2000
   10.4379  -16.9118   16.8326 N   0  0  0  0  0  0  0  0  0  0  0  0
    9.5808  -16.0966   17.6515 C   0  0  1  0  0  0  0  0  0  0  0  0
    8.2976  -15.8791   16.8574 C   0  0  0  0  0  0  0  0  0  0  0  0
    8.4897  -16.5222   15.4938 C   0  0  0  0  0  0  0  0  0  0  0  0
    7.2798  -16.3072   14.6610 C   0  0  0  0  0  0  0  0  0  0  0  0
    6.2001  -16.8685   14.9785 O   0  0  0  0  0  0  0  0  0  0  0  0
    9.3096  -16.7633   18.9437 C   0  0  0  0  0  0  0  0  0  0  0  0
    8.5368  -16.2924   19.8147 O   0  0  0  0  0  0  0  0  0  0  0  0
    7.3617  -15.4919   13.5485 O   0  0  0  0  0  0  0  0  0  0  0  0
    9.5136  -22.9181   19.8882 N   0  0  0  0  0  0  0  0  0  0  0  0
    9.3486  -22.3758   21.1801 C   0  0  0  0  0  0  0  0  0  0  0  0
    9.0510  -23.1150   22.1427 O   0  0  0  0  0  0  0  0  0  0  0  0
    9.5258  -20.9356   21.4038 C   0  0  0  0  0  0  0  0  0  0  0  0
    9.8536  -20.1888   20.1273 C   0  0  0  0  0  0  0  0  0  0  0  0
    9.7119  -18.6956   20.4580 C   0  0  2  0  0  0  0  0  0  0  0  0
    9.9427  -17.9952   19.2329 N   0  0  0  0  0  0  0  0  0  0  0  0
   10.6352  -18.3082   21.5406 C   0  0  0  0  0  0  0  0  0  0  0  0
   11.3468  -17.2852   21.4260 O   0  0  0  0  0  0  0  0  0  0  0  0
    8.0172  -13.3602   27.2109 N   0  0  0  0  0  0  0  0  0  0  0  0
    9.2578  -13.8107   27.7382 C   0  0  0  0  0  0  0  0  0  0  0  0
    9.7701  -13.1614   28.7265 N   0  0  0  0  0  0  0  0  0  0  0  0
    9.9495  -14.9349   27.2282 N   0  0  0  0  0  0  0  0  0  0  0  0
    9.5384  -15.5097   25.9658 C   0  0  0  0  0  0  0  0  0  0  0  0
   10.4898  -16.6246   25.5900 C   0  0  0  0  0  0  0  0  0  0  0  0
   10.1642  -17.2760   24.2832 C   0  0  0  0  0  0  0  0  0  0  0  0
   11.1105  -18.3713   23.9642 C   0  0  2  0  0  0  0  0  0  0  0  0
   10.7528  -19.0592   22.7262 N   0  0  0  0  0  0  0  0  0  0  0  0
   11.2506  -19.3606   25.0499 C   0  0  0  0  0  0  0  0  0  0  0  0
   12.2312  -19.1106   26.0317 O   0  0  0  0  0  0  0  0  0  0  0  0
   10.5804  -20.3883   25.1690 O   0  0  0  0  0  0  0  0  0  0  0  0
  2  1  1  6
  2  3  1  0
  3  4  1  0
  5  6  2  0
  5  4  1  0
  7  8  2  0
  7  2  1  0
  9  5  1  0
 10 11  1  0
 11 13  1  0
 12 11  2  0
 13 14  1  0
 15 14  1  6
 15 16  1  0
 16  7  1  0
 17 18  2  0
 17 15  1  0
 20 21  2  0
 20 19  1  0
 22 20  1  0
 23 22  1  0
 24 23  1  0
 24 25  1  0
 26 25  1  1
 26 27  1  0
 27 17  1  0
 28 26  1  0
 29 28  1  0
 30 28  2  0
M  END
$$$$
