EQR.pdb
     RDKit          3D

 30 29  0  0  1  0  0  0  0  0999 V2000
   10.1357  -13.2450   18.2227 N   0  0  0  0  0  0  0  0  0  0  0  0
    8.9216  -13.6266   18.8937 C   0  0  1  0  0  0  0  0  0  0  0  0
    7.8603  -13.7943   17.8120 C   0  0  0  0  0  0  0  0  0  0  0  0
    8.4933  -14.5670   16.6667 C   0  0  0  0  0  0  0  0  0  0  0  0
    7.4861  -14.8044   15.6023 C   0  0  0  0  0  0  0  0  0  0  0  0
    7.1201  -13.8496   14.8702 O   0  0  0  0  0  0  0  0  0  0  0  0
    9.1203  -14.8798   19.6540 C   0  0  0  0  0  0  0  0  0  0  0  0
    8.2035  -15.4509   20.2951 O   0  0  0  0  0  0  0  0  0  0  0  0
    6.9673  -16.0739   15.4344 O   0  0  0  0  0  0  0  0  0  0  0  0
   14.3147  -18.6152   19.4143 N   0  0  0  0  0  0  0  0  0  0  0  0
   13.6555  -18.9399   20.6187 C   0  0  0  0  0  0  0  0  0  0  0  0
   14.1621  -19.7581   21.4159 O   0  0  0  0  0  0  0  0  0  0  0  0
   12.3665  -18.3175   20.9450 C   0  0  0  0  0  0  0  0  0  0  0  0
   12.0914  -17.0854   20.1077 C   0  0  0  0  0  0  0  0  0  0  0  0
   10.7116  -16.5716   20.5449 C   0  0  2  0  0  0  0  0  0  0  0  0
   10.4004  -15.4820   19.6727 N   0  0  0  0  0  0  0  0  0  0  0  0
   10.7182  -16.2001   21.9719 C   0  0  0  0  0  0  0  0  0  0  0  0
   11.5234  -15.3410   22.3957 O   0  0  0  0  0  0  0  0  0  0  0  0
    4.8946  -12.6876   27.1795 N   0  0  0  0  0  0  0  0  0  0  0  0
    6.0864  -11.9987   26.8255 C   0  0  0  0  0  0  0  0  0  0  0  0
    6.1152  -10.7187   26.9719 N   0  0  0  0  0  0  0  0  0  0  0  0
    7.2353  -12.6543   26.3231 N   0  0  0  0  0  0  0  0  0  0  0  0
    7.1025  -13.9678   25.7314 C   0  0  0  0  0  0  0  0  0  0  0  0
    8.4690  -14.4737   25.3238 C   0  0  0  0  0  0  0  0  0  0  0  0
    8.4369  -15.8046   24.6413 C   0  0  0  0  0  0  0  0  0  0  0  0
    9.7953  -16.2611   24.2628 C   0  0  2  0  0  0  0  0  0  0  0  0
    9.8355  -16.7856   22.9001 N   0  0  0  0  0  0  0  0  0  0  0  0
   10.3568  -17.2633   25.1888 C   0  0  0  0  0  0  0  0  0  0  0  0
   10.7008  -16.8270   26.4847 O   0  0  0  0  0  0  0  0  0  0  0  0
   10.5499  -18.4512   24.9223 O   0  0  0  0  0  0  0  0  0  0  0  0
  2  1  1  6
  2  3  1  0
  3  4  1  0
  5  6  2  0
  5  4  1  0
  7  8  2  0
  7  2  1  0
  9  5  1  0
 10 11  1  0
 11 13  1  0
 12 11  2  0
 13 14  1  0
 15 14  1  6
 15 16  1  0
 16  7  1  0
 17 18  2  0
 17 15  1  0
 20 21  2  0
 20 19  1  0
 22 20  1  0
 23 22  1  0
 24 23  1  0
 24 25  1  0
 26 25  1  1
 26 27  1  0
 27 17  1  0
 28 26  1  0
 29 28  1  0
 30 28  2  0
M  END
$$$$
