EQR.pdb
     RDKit          3D

 30 29  0  0  1  0  0  0  0  0999 V2000
   13.5316  -20.6045   18.4317 N   0  0  0  0  0  0  0  0  0  0  0  0
   14.1103  -20.5140   19.7458 C   0  0  1  0  0  0  0  0  0  0  0  0
   15.2741  -19.5345   19.6429 C   0  0  0  0  0  0  0  0  0  0  0  0
   14.7163  -18.2136   19.1390 C   0  0  0  0  0  0  0  0  0  0  0  0
   15.8146  -17.2253   18.9957 C   0  0  0  0  0  0  0  0  0  0  0  0
   15.6366  -16.1969   18.2941 O   0  0  0  0  0  0  0  0  0  0  0  0
   13.1028  -20.0543   20.7264 C   0  0  0  0  0  0  0  0  0  0  0  0
   11.9804  -19.5951   20.3993 O   0  0  0  0  0  0  0  0  0  0  0  0
   17.0167  -17.4537   19.6377 O   0  0  0  0  0  0  0  0  0  0  0  0
   13.7298  -21.0414   27.0209 N   0  0  0  0  0  0  0  0  0  0  0  0
   12.3736  -20.7214   26.8003 C   0  0  0  0  0  0  0  0  0  0  0  0
   11.5623  -20.7174   27.7508 O   0  0  0  0  0  0  0  0  0  0  0  0
   11.9042  -20.3899   25.4492 C   0  0  0  0  0  0  0  0  0  0  0  0
   13.0331  -20.3457   24.4401 C   0  0  0  0  0  0  0  0  0  0  0  0
   12.3987  -19.9177   23.1084 C   0  0  2  0  0  0  0  0  0  0  0  0
   13.3988  -20.1272   22.1081 N   0  0  0  0  0  0  0  0  0  0  0  0
   11.9196  -18.5248   23.1794 C   0  0  0  0  0  0  0  0  0  0  0  0
   12.7277  -17.5747   23.0792 O   0  0  0  0  0  0  0  0  0  0  0  0
    7.6954  -13.4067   18.4851 N   0  0  0  0  0  0  0  0  0  0  0  0
    7.6558  -12.7247   19.7316 C   0  0  0  0  0  0  0  0  0  0  0  0
    7.3443  -11.4742   19.7307 N   0  0  0  0  0  0  0  0  0  0  0  0
    7.9411  -13.3563   20.9653 N   0  0  0  0  0  0  0  0  0  0  0  0
    8.3321  -14.7491   20.9770 C   0  0  0  0  0  0  0  0  0  0  0  0
    8.4805  -15.2153   22.4088 C   0  0  0  0  0  0  0  0  0  0  0  0
    8.8732  -16.6535   22.5337 C   0  0  0  0  0  0  0  0  0  0  0  0
   10.1405  -16.8139   23.2854 C   0  0  2  0  0  0  0  0  0  0  0  0
   10.5584  -18.2116   23.3599 N   0  0  0  0  0  0  0  0  0  0  0  0
   10.0917  -16.2455   24.6462 C   0  0  0  0  0  0  0  0  0  0  0  0
   10.3635  -17.1156   25.7219 O   0  0  0  0  0  0  0  0  0  0  0  0
    9.8325  -15.0719   24.9199 O   0  0  0  0  0  0  0  0  0  0  0  0
  2  1  1  6
  2  3  1  0
  3  4  1  0
  5  6  2  0
  5  4  1  0
  7  8  2  0
  7  2  1  0
  9  5  1  0
 10 11  1  0
 11 13  1  0
 12 11  2  0
 13 14  1  0
 15 14  1  1
 15 16  1  0
 16  7  1  0
 17 18  2  0
 17 15  1  0
 20 21  2  0
 20 19  1  0
 22 20  1  0
 23 22  1  0
 24 23  1  0
 24 25  1  0
 26 25  1  1
 26 27  1  0
 27 17  1  0
 28 26  1  0
 29 28  1  0
 30 28  2  0
M  END
$$$$
