EQR.pdb
     RDKit          3D

 30 29  0  0  1  0  0  0  0  0999 V2000
   11.3714  -18.1234   20.5835 N   0  0  0  0  0  0  0  0  0  0  0  0
   10.2304  -18.0109   21.4525 C   0  0  1  0  0  0  0  0  0  0  0  0
   10.4851  -18.9462   22.6294 C   0  0  0  0  0  0  0  0  0  0  0  0
    9.5578  -20.1401   22.4732 C   0  0  0  0  0  0  0  0  0  0  0  0
    9.7429  -21.0737   23.6123 C   0  0  0  0  0  0  0  0  0  0  0  0
   10.9032  -21.3223   24.0287 O   0  0  0  0  0  0  0  0  0  0  0  0
   10.0558  -16.6126   21.9021 C   0  0  0  0  0  0  0  0  0  0  0  0
   10.9972  -15.9057   22.3400 O   0  0  0  0  0  0  0  0  0  0  0  0
    8.6338  -21.6546   24.1965 O   0  0  0  0  0  0  0  0  0  0  0  0
    6.6360  -12.7401   19.0736 N   0  0  0  0  0  0  0  0  0  0  0  0
    7.6276  -13.7156   18.8379 C   0  0  0  0  0  0  0  0  0  0  0  0
    7.9695  -14.0002   17.6701 O   0  0  0  0  0  0  0  0  0  0  0  0
    8.2667  -14.4052   19.9655 C   0  0  0  0  0  0  0  0  0  0  0  0
    7.6921  -13.9826   21.3019 C   0  0  0  0  0  0  0  0  0  0  0  0
    8.5126  -14.7188   22.3714 C   0  0  2  0  0  0  0  0  0  0  0  0
    8.7712  -16.0225   21.8441 N   0  0  0  0  0  0  0  0  0  0  0  0
    7.7977  -14.7364   23.6610 C   0  0  0  0  0  0  0  0  0  0  0  0
    7.2718  -15.7935   24.0756 O   0  0  0  0  0  0  0  0  0  0  0  0
   11.7571  -17.6946   27.3780 N   0  0  0  0  0  0  0  0  0  0  0  0
   11.0629  -17.2456   28.5341 C   0  0  0  0  0  0  0  0  0  0  0  0
   10.5067  -18.1284   29.2905 N   0  0  0  0  0  0  0  0  0  0  0  0
   10.9577  -15.8796   28.8882 N   0  0  0  0  0  0  0  0  0  0  0  0
   11.0566  -14.8687   27.8580 C   0  0  0  0  0  0  0  0  0  0  0  0
    9.6807  -14.3065   27.5748 C   0  0  0  0  0  0  0  0  0  0  0  0
    9.3382  -14.2637   26.1191 C   0  0  0  0  0  0  0  0  0  0  0  0
    7.9937  -13.6841   25.8877 C   0  0  2  0  0  0  0  0  0  0  0  0
    7.6787  -13.5860   24.4646 N   0  0  0  0  0  0  0  0  0  0  0  0
    7.8063  -12.3650   26.5216 C   0  0  0  0  0  0  0  0  0  0  0  0
    7.4392  -12.3468   27.8829 O   0  0  0  0  0  0  0  0  0  0  0  0
    7.9443  -11.2772   25.9587 O   0  0  0  0  0  0  0  0  0  0  0  0
  2  1  1  6
  2  3  1  0
  3  4  1  0
  5  6  2  0
  5  4  1  0
  7  8  2  0
  7  2  1  0
  9  5  1  0
 10 11  1  0
 11 13  1  0
 12 11  2  0
 13 14  1  0
 15 14  1  6
 15 16  1  0
 16  7  1  0
 17 18  2  0
 17 15  1  0
 20 21  2  0
 20 19  1  0
 22 20  1  0
 23 22  1  0
 24 23  1  0
 24 25  1  0
 26 25  1  6
 26 27  1  0
 27 17  1  0
 28 26  1  0
 29 28  1  0
 30 28  2  0
M  END
$$$$
