EQR.pdb
     RDKit          3D

 30 29  0  0  1  0  0  0  0  0999 V2000
    9.7291  -17.4767   14.7684 N   0  0  0  0  0  0  0  0  0  0  0  0
   11.1267  -17.2235   14.9972 C   0  0  1  0  0  0  0  0  0  0  0  0
   11.7225  -16.8211   13.6527 C   0  0  0  0  0  0  0  0  0  0  0  0
   10.9144  -15.6455   13.1285 C   0  0  0  0  0  0  0  0  0  0  0  0
   11.4691  -15.1936   11.8278 C   0  0  0  0  0  0  0  0  0  0  0  0
   12.6456  -14.7527   11.7744 O   0  0  0  0  0  0  0  0  0  0  0  0
   11.3028  -16.1568   16.0067 C   0  0  0  0  0  0  0  0  0  0  0  0
   12.4204  -15.6691   16.3079 O   0  0  0  0  0  0  0  0  0  0  0  0
   10.6804  -15.2657   10.6956 O   0  0  0  0  0  0  0  0  0  0  0  0
    6.4692  -13.2671   19.0722 N   0  0  0  0  0  0  0  0  0  0  0  0
    7.6504  -12.8102   19.6938 C   0  0  0  0  0  0  0  0  0  0  0  0
    7.5946  -11.9683   20.6157 O   0  0  0  0  0  0  0  0  0  0  0  0
    8.9569  -13.3216   19.2613 C   0  0  0  0  0  0  0  0  0  0  0  0
    8.8405  -14.3171   18.1255 C   0  0  0  0  0  0  0  0  0  0  0  0
   10.2787  -14.6760   17.7234 C   0  0  2  0  0  0  0  0  0  0  0  0
   10.1672  -15.6459   16.6786 N   0  0  0  0  0  0  0  0  0  0  0  0
   11.0460  -15.1520   18.8892 C   0  0  0  0  0  0  0  0  0  0  0  0
   10.8899  -16.3192   19.3124 O   0  0  0  0  0  0  0  0  0  0  0  0
   18.7701  -14.3221   23.5846 N   0  0  0  0  0  0  0  0  0  0  0  0
   17.9420  -15.2073   22.8423 C   0  0  0  0  0  0  0  0  0  0  0  0
   17.3410  -16.1539   23.4775 N   0  0  0  0  0  0  0  0  0  0  0  0
   17.7500  -15.0938   21.4450 N   0  0  0  0  0  0  0  0  0  0  0  0
   16.7180  -14.2156   20.9384 C   0  0  0  0  0  0  0  0  0  0  0  0
   15.3735  -14.8980   21.0650 C   0  0  0  0  0  0  0  0  0  0  0  0
   14.2639  -14.1703   20.3740 C   0  0  0  0  0  0  0  0  0  0  0  0
   13.0051  -14.9528   20.3812 C   0  0  2  0  0  0  0  0  0  0  0  0
   11.9689  -14.3283   19.5625 N   0  0  0  0  0  0  0  0  0  0  0  0
   12.4750  -15.1991   21.7359 C   0  0  0  0  0  0  0  0  0  0  0  0
   11.2182  -14.6428   22.0509 O   0  0  0  0  0  0  0  0  0  0  0  0
   13.0408  -15.8515   22.6154 O   0  0  0  0  0  0  0  0  0  0  0  0
  2  1  1  6
  2  3  1  0
  3  4  1  0
  5  6  2  0
  5  4  1  0
  7  8  2  0
  7  2  1  0
  9  5  1  0
 10 11  1  0
 11 13  1  0
 12 11  2  0
 13 14  1  0
 15 14  1  1
 15 16  1  0
 16  7  1  0
 17 18  2  0
 17 15  1  0
 20 21  2  0
 20 19  1  0
 22 20  1  0
 23 22  1  0
 24 23  1  0
 24 25  1  0
 26 25  1  1
 26 27  1  0
 27 17  1  0
 28 26  1  0
 29 28  1  0
 30 28  2  0
M  END
$$$$
