EQR.pdb
     RDKit          3D

 30 29  0  0  1  0  0  0  0  0999 V2000
   14.1710  -17.9885   17.7011 N   0  0  0  0  0  0  0  0  0  0  0  0
   12.7907  -17.6449   17.4854 C   0  0  1  0  0  0  0  0  0  0  0  0
   12.3032  -18.5070   16.3261 C   0  0  0  0  0  0  0  0  0  0  0  0
   10.8383  -18.1751   16.0945 C   0  0  0  0  0  0  0  0  0  0  0  0
   10.5124  -18.3149   14.6530 C   0  0  0  0  0  0  0  0  0  0  0  0
   11.4101  -18.6649   13.8448 O   0  0  0  0  0  0  0  0  0  0  0  0
   11.9974  -17.8881   18.7099 C   0  0  0  0  0  0  0  0  0  0  0  0
   10.7713  -17.6309   18.8006 O   0  0  0  0  0  0  0  0  0  0  0  0
    9.2246  -18.0571   14.2237 O   0  0  0  0  0  0  0  0  0  0  0  0
   14.1069  -22.0844   22.6005 N   0  0  0  0  0  0  0  0  0  0  0  0
   12.7742  -22.2690   22.1760 C   0  0  0  0  0  0  0  0  0  0  0  0
   12.2557  -23.4058   22.1973 O   0  0  0  0  0  0  0  0  0  0  0  0
   11.9848  -21.1242   21.7049 C   0  0  0  0  0  0  0  0  0  0  0  0
   12.7591  -19.8237   21.7674 C   0  0  0  0  0  0  0  0  0  0  0  0
   11.9046  -18.7824   21.0294 C   0  0  2  0  0  0  0  0  0  0  0  0
   12.6330  -18.4381   19.8480 N   0  0  0  0  0  0  0  0  0  0  0  0
   11.6161  -17.6281   21.9005 C   0  0  0  0  0  0  0  0  0  0  0  0
   12.5118  -16.7927   22.1570 O   0  0  0  0  0  0  0  0  0  0  0  0
    8.3285  -12.2624   17.6812 N   0  0  0  0  0  0  0  0  0  0  0  0
    8.1799  -12.6366   19.0443 C   0  0  0  0  0  0  0  0  0  0  0  0
    8.0988  -11.7005   19.9263 N   0  0  0  0  0  0  0  0  0  0  0  0
    8.1168  -13.9842   19.4713 N   0  0  0  0  0  0  0  0  0  0  0  0
    7.9116  -14.2766   20.8732 C   0  0  0  0  0  0  0  0  0  0  0  0
    9.0879  -15.0720   21.3959 C   0  0  0  0  0  0  0  0  0  0  0  0
    8.9670  -15.4429   22.8403 C   0  0  0  0  0  0  0  0  0  0  0  0
   10.1277  -16.2407   23.3019 C   0  0  2  0  0  0  0  0  0  0  0  0
   10.3445  -17.4216   22.4698 N   0  0  0  0  0  0  0  0  0  0  0  0
   10.0329  -16.6504   24.7162 C   0  0  0  0  0  0  0  0  0  0  0  0
   10.0795  -15.6319   25.6902 O   0  0  0  0  0  0  0  0  0  0  0  0
    9.9165  -17.8104   25.1164 O   0  0  0  0  0  0  0  0  0  0  0  0
  2  1  1  1
  2  3  1  0
  3  4  1  0
  5  6  2  0
  5  4  1  0
  7  8  2  0
  7  2  1  0
  9  5  1  0
 10 11  1  0
 11 13  1  0
 12 11  2  0
 13 14  1  0
 15 14  1  1
 15 16  1  0
 16  7  1  0
 17 18  2  0
 17 15  1  0
 20 21  2  0
 20 19  1  0
 22 20  1  0
 23 22  1  0
 24 23  1  0
 24 25  1  0
 26 25  1  6
 26 27  1  0
 27 17  1  0
 28 26  1  0
 29 28  1  0
 30 28  2  0
M  END
$$$$
