EQR.pdb
     RDKit          3D

 30 29  0  0  1  0  0  0  0  0999 V2000
    9.1552  -20.3200   17.9023 N   0  0  0  0  0  0  0  0  0  0  0  0
   10.5067  -20.3116   18.3956 C   0  0  1  0  0  0  0  0  0  0  0  0
   11.4144  -20.4812   17.1824 C   0  0  0  0  0  0  0  0  0  0  0  0
   11.0407  -19.4037   16.1780 C   0  0  0  0  0  0  0  0  0  0  0  0
   11.9879  -19.4304   15.0353 C   0  0  0  0  0  0  0  0  0  0  0  0
   12.8416  -20.3506   14.9582 O   0  0  0  0  0  0  0  0  0  0  0  0
   10.7909  -19.0479   19.1100 C   0  0  0  0  0  0  0  0  0  0  0  0
   10.0917  -18.0120   18.9851 O   0  0  0  0  0  0  0  0  0  0  0  0
   11.9144  -18.4408   14.0739 O   0  0  0  0  0  0  0  0  0  0  0  0
   12.2985  -18.7683   24.9723 N   0  0  0  0  0  0  0  0  0  0  0  0
   12.2223  -17.4240   24.5510 C   0  0  0  0  0  0  0  0  0  0  0  0
   12.1546  -16.5011   25.3908 O   0  0  0  0  0  0  0  0  0  0  0  0
   12.2220  -17.0986   23.1193 C   0  0  0  0  0  0  0  0  0  0  0  0
   12.1921  -18.3358   22.2457 C   0  0  0  0  0  0  0  0  0  0  0  0
   12.1599  -17.8331   20.7947 C   0  0  2  0  0  0  0  0  0  0  0  0
   11.9021  -18.9819   19.9833 N   0  0  0  0  0  0  0  0  0  0  0  0
   13.4155  -17.1398   20.4518 C   0  0  0  0  0  0  0  0  0  0  0  0
   14.4601  -17.3702   21.1012 O   0  0  0  0  0  0  0  0  0  0  0  0
    7.1574  -13.0559   20.6021 N   0  0  0  0  0  0  0  0  0  0  0  0
    7.6811  -12.8925   19.2909 C   0  0  0  0  0  0  0  0  0  0  0  0
    6.8906  -12.4591   18.3701 N   0  0  0  0  0  0  0  0  0  0  0  0
    9.0249  -13.1829   18.9559 N   0  0  0  0  0  0  0  0  0  0  0  0
    9.9480  -13.5765   19.9980 C   0  0  0  0  0  0  0  0  0  0  0  0
   11.2960  -13.8833   19.3828 C   0  0  0  0  0  0  0  0  0  0  0  0
   12.3303  -14.2985   20.3809 C   0  0  0  0  0  0  0  0  0  0  0  0
   13.5660  -14.7843   19.7221 C   0  0  2  0  0  0  0  0  0  0  0  0
   13.4900  -16.2069   19.3994 N   0  0  0  0  0  0  0  0  0  0  0  0
   14.7892  -14.5257   20.5056 C   0  0  0  0  0  0  0  0  0  0  0  0
   15.8388  -13.8399   19.8606 O   0  0  0  0  0  0  0  0  0  0  0  0
   14.9690  -14.8603   21.6782 O   0  0  0  0  0  0  0  0  0  0  0  0
  2  1  1  6
  2  3  1  0
  3  4  1  0
  5  6  2  0
  5  4  1  0
  7  8  2  0
  7  2  1  0
  9  5  1  0
 10 11  1  0
 11 13  1  0
 12 11  2  0
 13 14  1  0
 15 14  1  1
 15 16  1  0
 16  7  1  0
 17 18  2  0
 17 15  1  0
 20 21  2  0
 20 19  1  0
 22 20  1  0
 23 22  1  0
 24 23  1  0
 24 25  1  0
 26 25  1  1
 26 27  1  0
 27 17  1  0
 28 26  1  0
 29 28  1  0
 30 28  2  0
M  END
$$$$
