EQR.pdb
     RDKit          3D

 30 29  0  0  1  0  0  0  0  0999 V2000
    7.4137  -18.0177   16.0359 N   0  0  0  0  0  0  0  0  0  0  0  0
    8.8296  -17.9491   16.2812 C   0  0  1  0  0  0  0  0  0  0  0  0
    9.4820  -17.5552   14.9606 C   0  0  0  0  0  0  0  0  0  0  0  0
    8.5498  -16.5775   14.2643 C   0  0  0  0  0  0  0  0  0  0  0  0
    9.1260  -16.1776   12.9560 C   0  0  0  0  0  0  0  0  0  0  0  0
    8.3601  -15.9390   11.9875 O   0  0  0  0  0  0  0  0  0  0  0  0
    9.1254  -16.9642   17.3444 C   0  0  0  0  0  0  0  0  0  0  0  0
   10.2916  -16.6434   17.6832 O   0  0  0  0  0  0  0  0  0  0  0  0
   10.4976  -16.0744   12.8252 O   0  0  0  0  0  0  0  0  0  0  0  0
    8.3864  -12.5550   18.7650 N   0  0  0  0  0  0  0  0  0  0  0  0
    8.0216  -12.6931   20.1208 C   0  0  0  0  0  0  0  0  0  0  0  0
    8.4212  -11.8681   20.9702 O   0  0  0  0  0  0  0  0  0  0  0  0
    7.1679  -13.8098   20.5449 C   0  0  0  0  0  0  0  0  0  0  0  0
    6.9183  -14.8026   19.4284 C   0  0  0  0  0  0  0  0  0  0  0  0
    8.2710  -15.4711   19.1414 C   0  0  2  0  0  0  0  0  0  0  0  0
    8.0544  -16.3402   18.0267 N   0  0  0  0  0  0  0  0  0  0  0  0
    8.7778  -16.1654   20.3396 C   0  0  0  0  0  0  0  0  0  0  0  0
    8.2196  -17.2088   20.7465 O   0  0  0  0  0  0  0  0  0  0  0  0
   15.6022  -21.0183   22.3694 N   0  0  0  0  0  0  0  0  0  0  0  0
   15.0584  -19.7639   22.7578 C   0  0  0  0  0  0  0  0  0  0  0  0
   15.0542  -19.4650   24.0114 N   0  0  0  0  0  0  0  0  0  0  0  0
   14.5257  -18.8350   21.8328 N   0  0  0  0  0  0  0  0  0  0  0  0
   13.9561  -17.5965   22.3173 C   0  0  0  0  0  0  0  0  0  0  0  0
   12.4536  -17.6345   22.1423 C   0  0  0  0  0  0  0  0  0  0  0  0
   11.7793  -16.3382   22.4635 C   0  0  0  0  0  0  0  0  0  0  0  0
   10.3134  -16.4156   22.2587 C   0  0  2  0  0  0  0  0  0  0  0  0
    9.8899  -15.6920   21.0625 N   0  0  0  0  0  0  0  0  0  0  0  0
    9.5331  -15.9421   23.4180 C   0  0  0  0  0  0  0  0  0  0  0  0
    9.6438  -16.6761   24.6168 O   0  0  0  0  0  0  0  0  0  0  0  0
    8.7920  -14.9572   23.4245 O   0  0  0  0  0  0  0  0  0  0  0  0
  2  1  1  6
  2  3  1  0
  3  4  1  0
  5  6  2  0
  5  4  1  0
  7  8  2  0
  7  2  1  0
  9  5  1  0
 10 11  1  0
 11 13  1  0
 12 11  2  0
 13 14  1  0
 15 14  1  1
 15 16  1  0
 16  7  1  0
 17 18  2  0
 17 15  1  0
 20 21  2  0
 20 19  1  0
 22 20  1  0
 23 22  1  0
 24 23  1  0
 24 25  1  0
 26 25  1  1
 26 27  1  0
 27 17  1  0
 28 26  1  0
 29 28  1  0
 30 28  2  0
M  END
$$$$
