EQR.pdb
     RDKit          3D

 30 29  0  0  1  0  0  0  0  0999 V2000
    9.6482  -18.9292   16.3214 N   0  0  0  0  0  0  0  0  0  0  0  0
    8.6616  -18.5291   17.2890 C   0  0  1  0  0  0  0  0  0  0  0  0
    8.1155  -19.8102   17.9096 C   0  0  0  0  0  0  0  0  0  0  0  0
    7.1954  -20.4569   16.8873 C   0  0  0  0  0  0  0  0  0  0  0  0
    5.8497  -20.6613   17.4794 C   0  0  0  0  0  0  0  0  0  0  0  0
    5.6367  -20.3171   18.6701 O   0  0  0  0  0  0  0  0  0  0  0  0
    9.2653  -17.6482   18.3125 C   0  0  0  0  0  0  0  0  0  0  0  0
   10.3617  -17.8931   18.8743 O   0  0  0  0  0  0  0  0  0  0  0  0
    4.8520  -21.2279   16.7095 O   0  0  0  0  0  0  0  0  0  0  0  0
    6.5847  -12.1965   20.3738 N   0  0  0  0  0  0  0  0  0  0  0  0
    7.7597  -12.3651   21.1364 C   0  0  0  0  0  0  0  0  0  0  0  0
    8.0669  -11.5329   22.0165 O   0  0  0  0  0  0  0  0  0  0  0  0
    8.6321  -13.5222   20.9009 C   0  0  0  0  0  0  0  0  0  0  0  0
    8.1061  -14.4294   19.8077 C   0  0  0  0  0  0  0  0  0  0  0  0
    9.0600  -15.6321   19.7553 C   0  0  2  0  0  0  0  0  0  0  0  0
    8.5894  -16.4646   18.6922 N   0  0  0  0  0  0  0  0  0  0  0  0
    9.1126  -16.3170   21.0602 C   0  0  0  0  0  0  0  0  0  0  0  0
    8.0721  -16.7984   21.5616 O   0  0  0  0  0  0  0  0  0  0  0  0
   13.3925  -22.6670   21.4815 N   0  0  0  0  0  0  0  0  0  0  0  0
   13.7628  -21.2985   21.5832 C   0  0  0  0  0  0  0  0  0  0  0  0
   15.0088  -20.9948   21.4572 N   0  0  0  0  0  0  0  0  0  0  0  0
   12.8276  -20.2621   21.8147 N   0  0  0  0  0  0  0  0  0  0  0  0
   11.4184  -20.5804   21.8909 C   0  0  0  0  0  0  0  0  0  0  0  0
   10.6192  -19.2980   21.9708 C   0  0  0  0  0  0  0  0  0  0  0  0
   11.0556  -18.3870   23.0744 C   0  0  0  0  0  0  0  0  0  0  0  0
   10.2817  -17.1229   23.0820 C   0  0  2  0  0  0  0  0  0  0  0  0
   10.3134  -16.4551   21.7832 N   0  0  0  0  0  0  0  0  0  0  0  0
   10.7137  -16.1767   24.1285 C   0  0  0  0  0  0  0  0  0  0  0  0
   11.4129  -15.0252   23.7121 O   0  0  0  0  0  0  0  0  0  0  0  0
   10.5136  -16.3103   25.3374 O   0  0  0  0  0  0  0  0  0  0  0  0
  2  1  1  6
  2  3  1  0
  3  4  1  0
  5  6  2  0
  5  4  1  0
  7  8  2  0
  7  2  1  0
  9  5  1  0
 10 11  1  0
 11 13  1  0
 12 11  2  0
 13 14  1  0
 15 14  1  1
 15 16  1  0
 16  7  1  0
 17 18  2  0
 17 15  1  0
 20 21  2  0
 20 19  1  0
 22 20  1  0
 23 22  1  0
 24 23  1  0
 24 25  1  0
 26 25  1  6
 26 27  1  0
 27 17  1  0
 28 26  1  0
 29 28  1  0
 30 28  2  0
M  END
$$$$
