GTM.pdb
     RDKit          3D

 20 19  0  0  1  0  0  0  0  0999 V2000
    8.2499  -12.9500   17.1667 N   0  0  0  0  0  0  0  0  0  0  0  0
    9.1100  -13.6016   18.1235 C   0  0  0  0  0  0  0  0  0  0  0  0
    8.2806  -14.3882   19.0702 C   0  0  0  0  0  0  0  0  0  0  0  0
    7.2133  -14.9445   18.6785 O   0  0  0  0  0  0  0  0  0  0  0  0
    8.0642  -16.8705   19.2518 C   0  0  0  0  0  0  0  0  0  0  0  0
    8.5351  -16.8838   20.7082 C   0  0  1  0  0  0  0  0  0  0  0  0
    9.9319  -17.0349   20.6445 O   0  0  0  0  0  0  0  0  0  0  0  0
    8.1597  -15.5487   21.2887 C   0  0  2  0  0  0  0  0  0  0  0  0
    8.6772  -14.5192   20.4094 N   0  0  0  0  0  0  0  0  0  0  0  0
    8.6955  -15.3525   22.6628 C   0  0  0  0  0  0  0  0  0  0  0  0
    9.8700  -14.9372   22.8086 O   0  0  0  0  0  0  0  0  0  0  0  0
    6.4470  -10.6404   26.3043 C   0  0  0  0  0  0  0  0  0  0  0  0
    6.0755  -12.1769   27.1828 S   0  0  0  0  0  0  0  0  0  0  0  0
    7.3318  -13.4530   26.8288 C   0  0  0  0  0  0  0  0  0  0  0  0
    7.0342  -14.1757   25.5595 C   0  0  0  0  0  0  0  0  0  0  0  0
    8.2373  -14.8901   25.0475 C   0  0  2  0  0  0  0  0  0  0  0  0
    7.9243  -15.6189   23.8097 N   0  0  0  0  0  0  0  0  0  0  0  0
    8.7969  -15.8734   25.9716 C   0  0  0  0  0  0  0  0  0  0  0  0
    8.7206  -17.0955   25.7338 O   0  0  0  0  0  0  0  0  0  0  0  0
    9.4376  -15.5154   27.1520 O   0  0  0  0  0  0  0  0  0  0  0  0
  2  1  1  0
  3  2  1  0
  4  3  2  0
  6  5  1  6
  6  7  1  0
  6  8  1  0
  8  9  1  6
  9  3  1  0
 10  8  1  0
 10 17  1  0
 11 10  2  0
 13 12  1  0
 14 15  1  0
 14 13  1  0
 16 18  1  0
 16 17  1  0
 16 15  1  1
 18 20  1  0
 19 18  2  0
M  END
$$$$
