GTM.pdb
     RDKit          3D

 20 19  0  0  1  0  0  0  0  0999 V2000
    2.9980  -19.5217   21.4920 N   0  0  0  0  0  0  0  0  0  0  0  0
    3.8575  -18.3952   21.2237 C   0  0  0  0  0  0  0  0  0  0  0  0
    5.1443  -18.5807   21.9396 C   0  0  0  0  0  0  0  0  0  0  0  0
    5.2966  -19.5444   22.7458 O   0  0  0  0  0  0  0  0  0  0  0  0
    7.8951  -19.3755   20.4634 C   0  0  0  0  0  0  0  0  0  0  0  0
    8.4823  -18.1798   21.2174 C   0  0  1  0  0  0  0  0  0  0  0  0
    8.5435  -17.1398   20.2726 O   0  0  0  0  0  0  0  0  0  0  0  0
    7.5132  -17.8549   22.3200 C   0  0  2  0  0  0  0  0  0  0  0  0
    6.2024  -17.6849   21.7252 N   0  0  0  0  0  0  0  0  0  0  0  0
    7.8898  -16.6245   23.0670 C   0  0  0  0  0  0  0  0  0  0  0  0
    7.4826  -15.5109   22.6581 O   0  0  0  0  0  0  0  0  0  0  0  0
    5.8032  -12.5406   26.8075 C   0  0  0  0  0  0  0  0  0  0  0  0
    7.4710  -12.1683   26.2155 S   0  0  0  0  0  0  0  0  0  0  0  0
    8.5700  -13.6133   26.4050 C   0  0  0  0  0  0  0  0  0  0  0  0
    8.0649  -14.7884   25.6393 C   0  0  0  0  0  0  0  0  0  0  0  0
    9.1422  -15.3994   24.8110 C   0  0  2  0  0  0  0  0  0  0  0  0
    8.6918  -16.6692   24.2229 N   0  0  0  0  0  0  0  0  0  0  0  0
   10.3715  -15.6992   25.5411 C   0  0  0  0  0  0  0  0  0  0  0  0
   10.6029  -16.8489   25.9659 O   0  0  0  0  0  0  0  0  0  0  0  0
   11.3424  -14.7397   25.8033 O   0  0  0  0  0  0  0  0  0  0  0  0
  2  1  1  0
  3  2  1  0
  4  3  2  0
  6  5  1  6
  6  7  1  0
  6  8  1  0
  8  9  1  6
  9  3  1  0
 10  8  1  0
 10 17  1  0
 11 10  2  0
 13 12  1  0
 14 15  1  0
 14 13  1  0
 16 18  1  0
 16 17  1  0
 16 15  1  1
 18 20  1  0
 19 18  2  0
M  END
$$$$
