GTM.pdb
     RDKit          3D

 20 19  0  0  1  0  0  0  0  0999 V2000
    3.0762  -19.7225   21.7783 N   0  0  0  0  0  0  0  0  0  0  0  0
    4.1573  -18.7946   21.5545 C   0  0  0  0  0  0  0  0  0  0  0  0
    5.0417  -18.7779   22.7463 C   0  0  0  0  0  0  0  0  0  0  0  0
    4.6200  -19.1963   23.8640 O   0  0  0  0  0  0  0  0  0  0  0  0
    7.8623  -20.5364   22.9239 C   0  0  0  0  0  0  0  0  0  0  0  0
    8.4557  -19.1883   23.3408 C   0  0  1  0  0  0  0  0  0  0  0  0
    9.0892  -18.6902   22.1882 O   0  0  0  0  0  0  0  0  0  0  0  0
    7.2962  -18.3190   23.7412 C   0  0  2  0  0  0  0  0  0  0  0  0
    6.3550  -18.2963   22.6392 N   0  0  0  0  0  0  0  0  0  0  0  0
    7.7125  -16.9303   24.0757 C   0  0  0  0  0  0  0  0  0  0  0  0
    7.8323  -16.0881   23.1540 O   0  0  0  0  0  0  0  0  0  0  0  0
    5.4899  -11.6052   25.9244 C   0  0  0  0  0  0  0  0  0  0  0  0
    6.7860  -11.8090   27.1691 S   0  0  0  0  0  0  0  0  0  0  0  0
    8.0725  -12.9672   26.5900 C   0  0  0  0  0  0  0  0  0  0  0  0
    7.4840  -14.2676   26.1603 C   0  0  0  0  0  0  0  0  0  0  0  0
    8.5287  -15.1845   25.6238 C   0  0  2  0  0  0  0  0  0  0  0  0
    7.9777  -16.5287   25.3983 N   0  0  0  0  0  0  0  0  0  0  0  0
    9.6882  -15.3579   26.4953 C   0  0  0  0  0  0  0  0  0  0  0  0
   10.4184  -14.3917   26.7938 O   0  0  0  0  0  0  0  0  0  0  0  0
   10.0438  -16.5877   27.0368 O   0  0  0  0  0  0  0  0  0  0  0  0
  2  1  1  0
  3  2  1  0
  4  3  2  0
  6  5  1  6
  6  7  1  0
  6  8  1  0
  8  9  1  6
  9  3  1  0
 10  8  1  0
 10 17  1  0
 11 10  2  0
 13 12  1  0
 14 15  1  0
 14 13  1  0
 16 18  1  0
 16 17  1  0
 16 15  1  1
 18 20  1  0
 19 18  2  0
M  END
$$$$
