GTM.pdb
     RDKit          3D

 20 19  0  0  1  0  0  0  0  0999 V2000
    5.5603  -20.0346   22.2404 N   0  0  0  0  0  0  0  0  0  0  0  0
    5.4509  -18.6227   22.5129 C   0  0  0  0  0  0  0  0  0  0  0  0
    6.7205  -17.9524   22.1365 C   0  0  0  0  0  0  0  0  0  0  0  0
    7.7967  -18.6141   22.0589 O   0  0  0  0  0  0  0  0  0  0  0  0
    6.6748  -13.7772   21.4378 C   0  0  0  0  0  0  0  0  0  0  0  0
    7.5822  -14.7131   20.6354 C   0  0  1  0  0  0  0  0  0  0  0  0
    8.7118  -13.9423   20.3069 O   0  0  0  0  0  0  0  0  0  0  0  0
    7.9465  -15.8445   21.5561 C   0  0  2  0  0  0  0  0  0  0  0  0
    6.7339  -16.5763   21.8640 N   0  0  0  0  0  0  0  0  0  0  0  0
    8.5831  -15.3734   22.8156 C   0  0  0  0  0  0  0  0  0  0  0  0
    9.4446  -14.4632   22.7632 O   0  0  0  0  0  0  0  0  0  0  0  0
    7.5116  -11.4586   27.1922 C   0  0  0  0  0  0  0  0  0  0  0  0
    6.2085  -12.5037   26.4992 S   0  0  0  0  0  0  0  0  0  0  0  0
    6.8768  -14.1178   25.9701 C   0  0  0  0  0  0  0  0  0  0  0  0
    8.3151  -14.0166   25.5922 C   0  0  0  0  0  0  0  0  0  0  0  0
    8.8861  -15.3543   25.2689 C   0  0  2  0  0  0  0  0  0  0  0  0
    8.2490  -15.9178   24.0698 N   0  0  0  0  0  0  0  0  0  0  0  0
    8.7276  -16.3518   26.3242 C   0  0  0  0  0  0  0  0  0  0  0  0
    9.2711  -16.2025   27.4370 O   0  0  0  0  0  0  0  0  0  0  0  0
    7.9752  -17.5086   26.1576 O   0  0  0  0  0  0  0  0  0  0  0  0
  2  1  1  0
  3  2  1  0
  4  3  2  0
  6  5  1  1
  6  7  1  0
  6  8  1  0
  8  9  1  1
  9  3  1  0
 10  8  1  0
 10 17  1  0
 11 10  2  0
 13 12  1  0
 14 15  1  0
 14 13  1  0
 16 18  1  0
 16 17  1  0
 16 15  1  1
 18 20  1  0
 19 18  2  0
M  END
$$$$
