GTM.pdb
     RDKit          3D

 20 19  0  0  1  0  0  0  0  0999 V2000
   13.5730  -14.6652   18.9836 N   0  0  0  0  0  0  0  0  0  0  0  0
   12.4165  -15.4172   19.4040 C   0  0  0  0  0  0  0  0  0  0  0  0
   11.4550  -14.5037   20.0704 C   0  0  0  0  0  0  0  0  0  0  0  0
   11.8403  -13.3861   20.5227 O   0  0  0  0  0  0  0  0  0  0  0  0
    8.3006  -13.2618   18.8200 C   0  0  0  0  0  0  0  0  0  0  0  0
    7.8966  -13.9834   20.1082 C   0  0  1  0  0  0  0  0  0  0  0  0
    7.4497  -15.2521   19.6976 O   0  0  0  0  0  0  0  0  0  0  0  0
    9.1420  -14.0910   20.9436 C   0  0  2  0  0  0  0  0  0  0  0  0
   10.1091  -14.8762   20.2026 N   0  0  0  0  0  0  0  0  0  0  0  0
    8.8891  -14.7227   22.2668 C   0  0  0  0  0  0  0  0  0  0  0  0
    9.6005  -15.6899   22.6296 O   0  0  0  0  0  0  0  0  0  0  0  0
    6.0877  -11.1158   26.7819 C   0  0  0  0  0  0  0  0  0  0  0  0
    6.7136  -12.4455   27.8358 S   0  0  0  0  0  0  0  0  0  0  0  0
    7.4448  -13.7849   26.8341 C   0  0  0  0  0  0  0  0  0  0  0  0
    7.4238  -13.4543   25.3807 C   0  0  0  0  0  0  0  0  0  0  0  0
    7.9901  -14.5644   24.5640 C   0  0  2  0  0  0  0  0  0  0  0  0
    7.8733  -14.2686   23.1287 N   0  0  0  0  0  0  0  0  0  0  0  0
    7.3442  -15.8583   24.7697 C   0  0  0  0  0  0  0  0  0  0  0  0
    6.4768  -16.2773   23.9771 O   0  0  0  0  0  0  0  0  0  0  0  0
    7.6499  -16.6886   25.8417 O   0  0  0  0  0  0  0  0  0  0  0  0
  2  1  1  0
  3  2  1  0
  4  3  2  0
  6  5  1  6
  6  7  1  0
  6  8  1  0
  8  9  1  6
  9  3  1  0
 10  8  1  0
 10 17  1  0
 11 10  2  0
 13 12  1  0
 14 15  1  0
 14 13  1  0
 16 18  1  0
 16 17  1  0
 16 15  1  1
 18 20  1  0
 19 18  2  0
M  END
$$$$
