GTM.pdb
     RDKit          3D

 20 19  0  0  1  0  0  0  0  0999 V2000
    7.5135  -20.5985   21.2113 N   0  0  0  0  0  0  0  0  0  0  0  0
    7.0339  -19.4568   21.9506 C   0  0  0  0  0  0  0  0  0  0  0  0
    7.8606  -18.2720   21.6107 C   0  0  0  0  0  0  0  0  0  0  0  0
    9.0326  -18.4169   21.1552 O   0  0  0  0  0  0  0  0  0  0  0  0
    6.4647  -15.1291   19.7959 C   0  0  0  0  0  0  0  0  0  0  0  0
    7.1082  -14.7025   21.1177 C   0  0  1  0  0  0  0  0  0  0  0  0
    6.0515  -14.6503   22.0443 O   0  0  0  0  0  0  0  0  0  0  0  0
    8.0931  -15.7797   21.4782 C   0  0  2  0  0  0  0  0  0  0  0  0
    7.3448  -16.9803   21.7935 N   0  0  0  0  0  0  0  0  0  0  0  0
    8.9520  -15.4045   22.6337 C   0  0  0  0  0  0  0  0  0  0  0  0
    9.7553  -14.4486   22.5149 O   0  0  0  0  0  0  0  0  0  0  0  0
    6.6706  -10.9886   27.2367 C   0  0  0  0  0  0  0  0  0  0  0  0
    6.2658  -12.6802   26.7413 S   0  0  0  0  0  0  0  0  0  0  0  0
    7.7788  -13.6782   26.5252 C   0  0  0  0  0  0  0  0  0  0  0  0
    7.7574  -14.4320   25.2394 C   0  0  0  0  0  0  0  0  0  0  0  0
    8.9561  -15.3066   25.1037 C   0  0  2  0  0  0  0  0  0  0  0  0
    8.8926  -16.0902   23.8615 N   0  0  0  0  0  0  0  0  0  0  0  0
    9.1286  -16.2705   26.1878 C   0  0  0  0  0  0  0  0  0  0  0  0
    8.6309  -17.4121   26.1184 O   0  0  0  0  0  0  0  0  0  0  0  0
    9.8449  -15.9811   27.3433 O   0  0  0  0  0  0  0  0  0  0  0  0
  2  1  1  0
  3  2  1  0
  4  3  2  0
  6  5  1  6
  6  7  1  0
  6  8  1  0
  8  9  1  1
  9  3  1  0
 10  8  1  0
 10 17  1  0
 11 10  2  0
 13 12  1  0
 14 15  1  0
 14 13  1  0
 16 18  1  0
 16 17  1  0
 16 15  1  1
 18 20  1  0
 19 18  2  0
M  END
$$$$
