GTM.pdb
     RDKit          3D

 20 19  0  0  1  0  0  0  0  0999 V2000
   12.7344  -16.8232   18.2484 N   0  0  0  0  0  0  0  0  0  0  0  0
   12.7758  -16.9479   19.6846 C   0  0  0  0  0  0  0  0  0  0  0  0
   11.5000  -16.4489   20.2556 C   0  0  0  0  0  0  0  0  0  0  0  0
   11.0690  -15.2977   19.9538 O   0  0  0  0  0  0  0  0  0  0  0  0
    8.4128  -18.4381   20.2213 C   0  0  0  0  0  0  0  0  0  0  0  0
    8.5753  -18.0358   21.6893 C   0  0  1  0  0  0  0  0  0  0  0  0
    9.1724  -19.1455   22.3137 O   0  0  0  0  0  0  0  0  0  0  0  0
    9.4935  -16.8453   21.7047 C   0  0  2  0  0  0  0  0  0  0  0  0
   10.7626  -17.2542   21.1363 N   0  0  0  0  0  0  0  0  0  0  0  0
    9.7066  -16.3064   23.0750 C   0  0  0  0  0  0  0  0  0  0  0  0
   10.8432  -16.3947   23.5980 O   0  0  0  0  0  0  0  0  0  0  0  0
    5.6439  -12.1325   26.1836 C   0  0  0  0  0  0  0  0  0  0  0  0
    7.2128  -11.9492   27.0643 S   0  0  0  0  0  0  0  0  0  0  0  0
    8.3194  -13.3619   26.7301 C   0  0  0  0  0  0  0  0  0  0  0  0
    8.1291  -13.8906   25.3494 C   0  0  0  0  0  0  0  0  0  0  0  0
    8.9979  -15.0746   25.0977 C   0  0  2  0  0  0  0  0  0  0  0  0
    8.6699  -15.6979   23.8073 N   0  0  0  0  0  0  0  0  0  0  0  0
    8.8894  -16.1300   26.1019 C   0  0  0  0  0  0  0  0  0  0  0  0
    8.1132  -17.0932   25.9411 O   0  0  0  0  0  0  0  0  0  0  0  0
    9.6306  -16.1272   27.2778 O   0  0  0  0  0  0  0  0  0  0  0  0
  2  1  1  0
  3  2  1  0
  4  3  2  0
  6  5  1  6
  6  7  1  0
  6  8  1  0
  8  9  1  1
  9  3  1  0
 10  8  1  0
 10 17  1  0
 11 10  2  0
 13 12  1  0
 14 15  1  0
 14 13  1  0
 16 18  1  0
 16 17  1  0
 16 15  1  1
 18 20  1  0
 19 18  2  0
M  END
$$$$
