GTM.pdb
     RDKit          3D

 20 19  0  0  1  0  0  0  0  0999 V2000
   12.6619  -14.3717   17.8332 N   0  0  0  0  0  0  0  0  0  0  0  0
   11.7972  -15.2459   18.5867 C   0  0  0  0  0  0  0  0  0  0  0  0
   11.0426  -14.4464   19.5839 C   0  0  0  0  0  0  0  0  0  0  0  0
   11.4446  -13.2938   19.9186 O   0  0  0  0  0  0  0  0  0  0  0  0
    7.5355  -13.4601   19.6151 C   0  0  0  0  0  0  0  0  0  0  0  0
    7.6916  -14.3150   20.8752 C   0  0  1  0  0  0  0  0  0  0  0  0
    7.2776  -15.6059   20.5008 O   0  0  0  0  0  0  0  0  0  0  0  0
    9.1538  -14.2942   21.2247 C   0  0  2  0  0  0  0  0  0  0  0  0
    9.8753  -14.9665   20.1625 N   0  0  0  0  0  0  0  0  0  0  0  0
    9.4395  -14.9580   22.5252 C   0  0  0  0  0  0  0  0  0  0  0  0
   10.0797  -16.0366   22.5347 O   0  0  0  0  0  0  0  0  0  0  0  0
   10.0552  -14.5519   30.3827 C   0  0  0  0  0  0  0  0  0  0  0  0
    9.5268  -13.7301   28.8607 S   0  0  0  0  0  0  0  0  0  0  0  0
    9.6277  -14.8658   27.4353 C   0  0  0  0  0  0  0  0  0  0  0  0
    9.2460  -14.1846   26.1655 C   0  0  0  0  0  0  0  0  0  0  0  0
    9.4128  -15.0894   24.9935 C   0  0  2  0  0  0  0  0  0  0  0  0
    9.0131  -14.4132   23.7509 N   0  0  0  0  0  0  0  0  0  0  0  0
    8.6278  -16.3196   25.0613 C   0  0  0  0  0  0  0  0  0  0  0  0
    7.5111  -16.4008   24.5115 O   0  0  0  0  0  0  0  0  0  0  0  0
    9.0680  -17.4556   25.7304 O   0  0  0  0  0  0  0  0  0  0  0  0
  2  1  1  0
  3  2  1  0
  4  3  2  0
  6  5  1  6
  6  7  1  0
  6  8  1  0
  8  9  1  6
  9  3  1  0
 10  8  1  0
 10 17  1  0
 11 10  2  0
 13 12  1  0
 14 15  1  0
 14 13  1  0
 16 18  1  0
 16 17  1  0
 16 15  1  1
 18 20  1  0
 19 18  2  0
M  END
$$$$
