GTM.pdb
     RDKit          3D

 20 19  0  0  1  0  0  0  0  0999 V2000
    7.9478  -12.8195   17.7653 N   0  0  0  0  0  0  0  0  0  0  0  0
    8.8646  -13.3268   18.7562 C   0  0  0  0  0  0  0  0  0  0  0  0
    8.1009  -14.0468   19.8056 C   0  0  0  0  0  0  0  0  0  0  0  0
    6.8535  -13.8697   19.9264 O   0  0  0  0  0  0  0  0  0  0  0  0
    7.4695  -17.2862   20.2072 C   0  0  0  0  0  0  0  0  0  0  0  0
    8.1274  -17.0509   21.5691 C   0  0  1  0  0  0  0  0  0  0  0  0
    9.4440  -17.5258   21.4316 O   0  0  0  0  0  0  0  0  0  0  0  0
    8.1077  -15.5654   21.7998 C   0  0  2  0  0  0  0  0  0  0  0  0
    8.7609  -14.9308   20.6722 N   0  0  0  0  0  0  0  0  0  0  0  0
    8.7914  -15.1745   23.0622 C   0  0  0  0  0  0  0  0  0  0  0  0
   10.0017  -14.8470   23.0272 O   0  0  0  0  0  0  0  0  0  0  0  0
    6.6393  -10.7975   26.3521 C   0  0  0  0  0  0  0  0  0  0  0  0
    6.2006  -12.3095   27.2421 S   0  0  0  0  0  0  0  0  0  0  0  0
    6.8788  -13.7822   26.4036 C   0  0  0  0  0  0  0  0  0  0  0  0
    8.3538  -13.6743   26.2172 C   0  0  0  0  0  0  0  0  0  0  0  0
    8.9000  -14.8682   25.5127 C   0  0  2  0  0  0  0  0  0  0  0  0
    8.1218  -15.1601   24.3001 N   0  0  0  0  0  0  0  0  0  0  0  0
    8.8966  -16.0944   26.3068 C   0  0  0  0  0  0  0  0  0  0  0  0
    9.5063  -16.1585   27.3931 O   0  0  0  0  0  0  0  0  0  0  0  0
    8.2262  -17.2451   25.9089 O   0  0  0  0  0  0  0  0  0  0  0  0
  2  1  1  0
  3  2  1  0
  4  3  2  0
  6  5  1  6
  6  7  1  0
  6  8  1  0
  8  9  1  6
  9  3  1  0
 10  8  1  0
 10 17  1  0
 11 10  2  0
 13 12  1  0
 14 15  1  0
 14 13  1  0
 16 18  1  0
 16 17  1  0
 16 15  1  1
 18 20  1  0
 19 18  2  0
M  END
$$$$
