WHP.pdb
     RDKit          3D

 32 35  0  0  1  0  0  0  0  0999 V2000
    7.6434  -18.6812   21.0611 N   0  0  0  0  0  0  0  0  0  0  0  0
    7.5589  -17.3197   21.5188 C   0  0  1  0  0  0  0  0  0  0  0  0
    6.5423  -16.5913   20.6945 C   0  0  0  0  0  0  0  0  0  0  0  0
    7.1541  -15.5496   19.8307 C   0  0  0  0  0  0  0  0  0  0  0  0
    7.4728  -15.6121   18.5023 C   0  0  0  0  0  0  0  0  0  0  0  0
    8.0043  -14.4487   18.1263 N   0  0  0  0  0  0  0  0  0  0  0  0
    8.0298  -13.6414   19.1988 C   0  0  0  0  0  0  0  0  0  0  0  0
    8.4699  -12.3345   19.3875 C   0  0  0  0  0  0  0  0  0  0  0  0
    8.3799  -11.7336   20.6104 C   0  0  0  0  0  0  0  0  0  0  0  0
    7.8534  -12.4107   21.6726 C   0  0  0  0  0  0  0  0  0  0  0  0
    7.4078  -13.7115   21.5141 C   0  0  0  0  0  0  0  0  0  0  0  0
    7.5067  -14.2998   20.2751 C   0  0  0  0  0  0  0  0  0  0  0  0
    7.1975  -17.2262   22.9567 C   0  0  0  0  0  0  0  0  0  0  0  0
    5.9724  -17.2367   23.2490 O   0  0  0  0  0  0  0  0  0  0  0  0
    8.1363  -17.1280   23.9920 N   0  0  0  0  0  0  0  0  0  0  0  0
    7.7122  -16.9164   25.3651 C   0  0  1  0  0  0  0  0  0  0  0  0
    7.7980  -18.2366   26.1197 C   0  0  0  0  0  0  0  0  0  0  0  0
    6.8628  -19.2459   25.5737 C   0  0  0  0  0  0  0  0  0  0  0  0
    6.0997  -19.1020   24.4376 C   0  0  0  0  0  0  0  0  0  0  0  0
    5.3835  -20.2020   24.2542 N   0  0  0  0  0  0  0  0  0  0  0  0
    5.6675  -21.0560   25.2492 C   0  0  0  0  0  0  0  0  0  0  0  0
    6.5687  -20.4618   26.0448 N   0  0  0  0  0  0  0  0  0  0  0  0
    8.6268  -15.9341   26.0664 C   0  0  0  0  0  0  0  0  0  0  0  0
    9.6943  -16.4581   26.4715 O   0  0  0  0  0  0  0  0  0  0  0  0
    8.2775  -14.5921   26.2232 N   0  0  0  0  0  0  0  0  0  0  0  0
    7.3578  -13.8827   25.3003 C   0  0  0  0  0  0  0  0  0  0  0  0
    6.4499  -13.1959   26.2827 C   0  0  0  0  0  0  0  0  0  0  0  0
    7.2357  -13.0760   27.5701 C   0  0  0  0  0  0  0  0  0  0  0  0
    8.6413  -13.5471   27.1152 C   0  0  1  0  0  0  0  0  0  0  0  0
    9.4882  -13.8237   28.2448 C   0  0  0  0  0  0  0  0  0  0  0  0
   10.3379  -12.7925   28.6960 O   0  0  0  0  0  0  0  0  0  0  0  0
    9.5508  -14.8835   28.8699 O   0  0  0  0  0  0  0  0  0  0  0  0
  2 13  1  0
  2  1  1  6
  3  2  1  0
  4  3  1  0
  4  5  2  0
  6  5  1  0
  7 12  2  0
  7  6  1  0
  8  7  1  0
  9 10  1  0
  9  8  2  0
 10 11  2  0
 11 12  1  0
 12  4  1  0
 13 14  2  0
 15 16  1  0
 15 13  1  0
 16 17  1  1
 18 17  1  0
 19 18  2  0
 20 21  1  0
 20 19  1  0
 21 22  2  0
 22 18  1  0
 23 16  1  0
 24 23  2  0
 25 23  1  0
 25 29  1  0
 26 25  1  0
 27 26  1  0
 27 28  1  0
 28 29  1  0
 29 30  1  1
 30 31  1  0
 32 30  2  0
M  END
$$$$
