WHP.pdb
     RDKit          3D

 32 35  0  0  1  0  0  0  0  0999 V2000
    7.0790  -16.9438   25.6561 N   0  0  0  0  0  0  0  0  0  0  0  0
    6.2460  -16.3888   24.6226 C   0  0  1  0  0  0  0  0  0  0  0  0
    6.4466  -14.9051   24.5800 C   0  0  0  0  0  0  0  0  0  0  0  0
    7.2917  -14.4151   25.6987 C   0  0  0  0  0  0  0  0  0  0  0  0
    8.3389  -15.0362   26.3213 C   0  0  0  0  0  0  0  0  0  0  0  0
    8.8145  -14.2367   27.2763 N   0  0  0  0  0  0  0  0  0  0  0  0
    8.0837  -13.1104   27.2726 C   0  0  0  0  0  0  0  0  0  0  0  0
    8.1318  -11.9504   28.0403 C   0  0  0  0  0  0  0  0  0  0  0  0
    7.2500  -10.9300   27.8257 C   0  0  0  0  0  0  0  0  0  0  0  0
    6.3023  -11.0338   26.8485 C   0  0  0  0  0  0  0  0  0  0  0  0
    6.2312  -12.1759   26.0697 C   0  0  0  0  0  0  0  0  0  0  0  0
    7.1277  -13.1926   26.3007 C   0  0  0  0  0  0  0  0  0  0  0  0
    6.5351  -16.9716   23.2871 C   0  0  0  0  0  0  0  0  0  0  0  0
    5.5581  -17.3971   22.6157 O   0  0  0  0  0  0  0  0  0  0  0  0
    7.8219  -17.0716   22.7418 N   0  0  0  0  0  0  0  0  0  0  0  0
    8.1145  -16.5437   21.4205 C   0  0  1  0  0  0  0  0  0  0  0  0
    7.5835  -15.1193   21.3269 C   0  0  0  0  0  0  0  0  0  0  0  0
    7.7741  -14.5471   19.9750 C   0  0  0  0  0  0  0  0  0  0  0  0
    8.3293  -13.3198   19.6935 C   0  0  0  0  0  0  0  0  0  0  0  0
    8.3391  -13.1393   18.3806 N   0  0  0  0  0  0  0  0  0  0  0  0
    7.8012  -14.2256   17.8056 C   0  0  0  0  0  0  0  0  0  0  0  0
    7.4617  -15.0741   18.7870 N   0  0  0  0  0  0  0  0  0  0  0  0
    9.6088  -16.4861   21.1820 C   0  0  0  0  0  0  0  0  0  0  0  0
   10.1712  -15.5508   21.8044 O   0  0  0  0  0  0  0  0  0  0  0  0
   10.2528  -17.4005   20.3474 N   0  0  0  0  0  0  0  0  0  0  0  0
    9.5676  -18.5742   19.7524 C   0  0  0  0  0  0  0  0  0  0  0  0
   10.0251  -18.4712   18.3238 C   0  0  0  0  0  0  0  0  0  0  0  0
   11.3163  -17.6829   18.3506 C   0  0  0  0  0  0  0  0  0  0  0  0
   11.5811  -17.5817   19.8751 C   0  0  1  0  0  0  0  0  0  0  0  0
   12.5908  -16.5984   20.1638 C   0  0  0  0  0  0  0  0  0  0  0  0
   13.6439  -16.9723   21.0241 O   0  0  0  0  0  0  0  0  0  0  0  0
   12.6334  -15.4453   19.7320 O   0  0  0  0  0  0  0  0  0  0  0  0
  2 13  1  0
  2  1  1  1
  3  2  1  0
  4  3  1  0
  4  5  2  0
  6  5  1  0
  7 12  2  0
  7  6  1  0
  8  7  1  0
  9 10  1  0
  9  8  2  0
 10 11  2  0
 11 12  1  0
 12  4  1  0
 13 14  2  0
 15 16  1  0
 15 13  1  0
 16 17  1  1
 18 17  1  0
 19 18  2  0
 20 21  1  0
 20 19  1  0
 21 22  2  0
 22 18  1  0
 23 16  1  0
 24 23  2  0
 25 23  1  0
 25 29  1  0
 26 25  1  0
 27 26  1  0
 27 28  1  0
 28 29  1  0
 29 30  1  6
 30 31  1  0
 32 30  2  0
M  END
$$$$
