WHP.pdb
     RDKit          3D

 32 35  0  0  1  0  0  0  0  0999 V2000
    9.0079  -16.5581   24.5848 N   0  0  0  0  0  0  0  0  0  0  0  0
    8.2780  -16.2408   23.3861 C   0  0  1  0  0  0  0  0  0  0  0  0
    7.6538  -14.8879   23.5401 C   0  0  0  0  0  0  0  0  0  0  0  0
    7.1286  -14.6587   24.9102 C   0  0  0  0  0  0  0  0  0  0  0  0
    6.5265  -15.5450   25.7599 C   0  0  0  0  0  0  0  0  0  0  0  0
    6.2104  -14.9170   26.8926 N   0  0  0  0  0  0  0  0  0  0  0  0
    6.6032  -13.6382   26.7783 C   0  0  0  0  0  0  0  0  0  0  0  0
    6.5283  -12.5463   27.6382 C   0  0  0  0  0  0  0  0  0  0  0  0
    7.0153  -11.3259   27.2664 C   0  0  0  0  0  0  0  0  0  0  0  0
    7.5865  -11.1583   26.0378 C   0  0  0  0  0  0  0  0  0  0  0  0
    7.6745  -12.2266   25.1622 C   0  0  0  0  0  0  0  0  0  0  0  0
    7.1785  -13.4477   25.5543 C   0  0  0  0  0  0  0  0  0  0  0  0
    9.1393  -16.2599   22.1759 C   0  0  0  0  0  0  0  0  0  0  0  0
   10.1785  -15.5486   22.1919 O   0  0  0  0  0  0  0  0  0  0  0  0
    8.8595  -17.0183   21.0315 N   0  0  0  0  0  0  0  0  0  0  0  0
    9.5540  -16.7646   19.7811 C   0  0  1  0  0  0  0  0  0  0  0  0
   10.3561  -18.0018   19.3996 C   0  0  0  0  0  0  0  0  0  0  0  0
   11.4358  -18.2813   20.3731 C   0  0  0  0  0  0  0  0  0  0  0  0
   12.6493  -17.6352   20.4337 C   0  0  0  0  0  0  0  0  0  0  0  0
   13.3631  -18.1457   21.4269 N   0  0  0  0  0  0  0  0  0  0  0  0
   12.6360  -19.1100   22.0112 C   0  0  0  0  0  0  0  0  0  0  0  0
   11.4657  -19.1820   21.3602 N   0  0  0  0  0  0  0  0  0  0  0  0
    8.5691  -16.5008   18.6615 C   0  0  0  0  0  0  0  0  0  0  0  0
    8.0869  -17.5525   18.1718 O   0  0  0  0  0  0  0  0  0  0  0  0
    8.2592  -15.2040   18.2494 N   0  0  0  0  0  0  0  0  0  0  0  0
    8.0526  -14.0818   19.1976 C   0  0  0  0  0  0  0  0  0  0  0  0
    8.8903  -13.0125   18.5528 C   0  0  0  0  0  0  0  0  0  0  0  0
    8.9951  -13.3842   17.0898 C   0  0  0  0  0  0  0  0  0  0  0  0
    8.0001  -14.5704   17.0038 C   0  0  1  0  0  0  0  0  0  0  0  0
    8.1646  -15.2995   15.7745 C   0  0  0  0  0  0  0  0  0  0  0  0
    7.2120  -15.0913   14.7557 O   0  0  0  0  0  0  0  0  0  0  0  0
    9.0643  -16.0997   15.5135 O   0  0  0  0  0  0  0  0  0  0  0  0
  2 13  1  0
  2  1  1  1
  3  2  1  0
  4  3  1  0
  4  5  2  0
  6  5  1  0
  7 12  2  0
  7  6  1  0
  8  7  1  0
  9 10  1  0
  9  8  2  0
 10 11  2  0
 11 12  1  0
 12  4  1  0
 13 14  2  0
 15 16  1  0
 15 13  1  0
 16 17  1  6
 18 17  1  0
 19 18  2  0
 20 21  1  0
 20 19  1  0
 21 22  2  0
 22 18  1  0
 23 16  1  0
 24 23  2  0
 25 23  1  0
 25 29  1  0
 26 25  1  0
 27 26  1  0
 27 28  1  0
 28 29  1  0
 29 30  1  6
 30 31  1  0
 32 30  2  0
M  END
$$$$
