WHP.pdb
     RDKit          3D

 32 35  0  0  1  0  0  0  0  0999 V2000
    7.3542  -16.8715   21.2010 N   0  0  0  0  0  0  0  0  0  0  0  0
    7.6302  -15.8366   22.1617 C   0  0  1  0  0  0  0  0  0  0  0  0
    6.6771  -14.7021   21.9424 C   0  0  0  0  0  0  0  0  0  0  0  0
    7.1496  -13.4374   22.5611 C   0  0  0  0  0  0  0  0  0  0  0  0
    7.9760  -12.4809   22.0392 C   0  0  0  0  0  0  0  0  0  0  0  0
    8.1390  -11.5087   22.9368 N   0  0  0  0  0  0  0  0  0  0  0  0
    7.4264  -11.8314   24.0279 C   0  0  0  0  0  0  0  0  0  0  0  0
    7.2314  -11.1964   25.2510 C   0  0  0  0  0  0  0  0  0  0  0  0
    6.4383  -11.7542   26.2126 C   0  0  0  0  0  0  0  0  0  0  0  0
    5.8212  -12.9508   25.9864 C   0  0  0  0  0  0  0  0  0  0  0  0
    5.9971  -13.6048   24.7793 C   0  0  0  0  0  0  0  0  0  0  0  0
    6.7994  -13.0274   23.8233 C   0  0  0  0  0  0  0  0  0  0  0  0
    7.5201  -16.3192   23.5624 C   0  0  0  0  0  0  0  0  0  0  0  0
    6.3642  -16.5400   24.0110 O   0  0  0  0  0  0  0  0  0  0  0  0
    8.6213  -16.5387   24.4004 N   0  0  0  0  0  0  0  0  0  0  0  0
    8.4505  -17.1312   25.7157 C   0  0  1  0  0  0  0  0  0  0  0  0
    7.9089  -18.5457   25.5558 C   0  0  0  0  0  0  0  0  0  0  0  0
    7.7061  -19.2099   26.8631 C   0  0  0  0  0  0  0  0  0  0  0  0
    8.5734  -20.0996   27.4548 C   0  0  0  0  0  0  0  0  0  0  0  0
    8.0680  -20.4906   28.6159 N   0  0  0  0  0  0  0  0  0  0  0  0
    6.8902  -19.8717   28.7884 C   0  0  0  0  0  0  0  0  0  0  0  0
    6.6822  -19.0956   27.7147 N   0  0  0  0  0  0  0  0  0  0  0  0
    9.7780  -17.2338   26.4370 C   0  0  0  0  0  0  0  0  0  0  0  0
   10.4123  -18.2809   26.1547 O   0  0  0  0  0  0  0  0  0  0  0  0
   10.2118  -16.2413   27.3170 N   0  0  0  0  0  0  0  0  0  0  0  0
    9.8042  -14.8199   27.1972 C   0  0  0  0  0  0  0  0  0  0  0  0
    9.4291  -14.5151   28.6210 C   0  0  0  0  0  0  0  0  0  0  0  0
   10.1786  -15.5125   29.4770 C   0  0  0  0  0  0  0  0  0  0  0  0
   11.0986  -16.1865   28.4263 C   0  0  1  0  0  0  0  0  0  0  0  0
   11.6825  -17.3948   28.9447 C   0  0  0  0  0  0  0  0  0  0  0  0
   10.8366  -18.5097   29.1198 O   0  0  0  0  0  0  0  0  0  0  0  0
   12.8625  -17.5615   29.2572 O   0  0  0  0  0  0  0  0  0  0  0  0
  2 13  1  0
  2  1  1  6
  3  2  1  0
  4  3  1  0
  4  5  2  0
  6  5  1  0
  7 12  2  0
  7  6  1  0
  8  7  1  0
  9 10  1  0
  9  8  2  0
 10 11  2  0
 11 12  1  0
 12  4  1  0
 13 14  2  0
 15 16  1  0
 15 13  1  0
 16 17  1  6
 18 17  1  0
 19 18  2  0
 20 21  1  0
 20 19  1  0
 21 22  2  0
 22 18  1  0
 23 16  1  0
 24 23  2  0
 25 23  1  0
 25 29  1  0
 26 25  1  0
 27 26  1  0
 27 28  1  0
 28 29  1  0
 29 30  1  1
 30 31  1  0
 32 30  2  0
M  END
$$$$
