WHP.pdb
     RDKit          3D

 32 35  0  0  1  0  0  0  0  0999 V2000
    7.7393  -16.9378   25.4344 N   0  0  0  0  0  0  0  0  0  0  0  0
    6.7982  -16.5944   24.4017 C   0  0  1  0  0  0  0  0  0  0  0  0
    6.3911  -15.1628   24.5705 C   0  0  0  0  0  0  0  0  0  0  0  0
    7.0950  -14.5029   25.6996 C   0  0  0  0  0  0  0  0  0  0  0  0
    8.1184  -14.9794   26.4713 C   0  0  0  0  0  0  0  0  0  0  0  0
    8.4501  -14.0561   27.3740 N   0  0  0  0  0  0  0  0  0  0  0  0
    7.6506  -12.9934   27.1894 C   0  0  0  0  0  0  0  0  0  0  0  0
    7.5512  -11.7628   27.8321 C   0  0  0  0  0  0  0  0  0  0  0  0
    6.6281  -10.8374   27.4368 C   0  0  0  0  0  0  0  0  0  0  0  0
    5.7840  -11.1078   26.3985 C   0  0  0  0  0  0  0  0  0  0  0  0
    5.8603  -12.3233   25.7409 C   0  0  0  0  0  0  0  0  0  0  0  0
    6.7962  -13.2425   26.1534 C   0  0  0  0  0  0  0  0  0  0  0  0
    7.3519  -16.7999   23.0386 C   0  0  0  0  0  0  0  0  0  0  0  0
    6.5548  -16.7049   22.0681 O   0  0  0  0  0  0  0  0  0  0  0  0
    8.6977  -17.0905   22.7791 N   0  0  0  0  0  0  0  0  0  0  0  0
    9.3711  -16.5305   21.6202 C   0  0  1  0  0  0  0  0  0  0  0  0
    9.3328  -15.0107   21.7109 C   0  0  0  0  0  0  0  0  0  0  0  0
    8.5862  -14.4093   20.5829 C   0  0  0  0  0  0  0  0  0  0  0  0
    9.0961  -13.5179   19.6669 C   0  0  0  0  0  0  0  0  0  0  0  0
    8.1454  -13.1929   18.8026 N   0  0  0  0  0  0  0  0  0  0  0  0
    7.0293  -13.8562   19.1405 C   0  0  0  0  0  0  0  0  0  0  0  0
    7.3113  -14.5925   20.2252 N   0  0  0  0  0  0  0  0  0  0  0  0
   10.8271  -16.9455   21.5902 C   0  0  0  0  0  0  0  0  0  0  0  0
   11.5100  -16.4124   22.5001 O   0  0  0  0  0  0  0  0  0  0  0  0
   11.3159  -17.8330   20.6305 N   0  0  0  0  0  0  0  0  0  0  0  0
   10.4341  -18.6481   19.7593 C   0  0  0  0  0  0  0  0  0  0  0  0
   11.0729  -18.4154   18.4181 C   0  0  0  0  0  0  0  0  0  0  0  0
   12.5081  -18.0259   18.6968 C   0  0  0  0  0  0  0  0  0  0  0  0
   12.6026  -18.2792   20.2237 C   0  0  1  0  0  0  0  0  0  0  0  0
   13.7850  -17.6765   20.7790 C   0  0  0  0  0  0  0  0  0  0  0  0
   13.7729  -16.2824   20.9915 O   0  0  0  0  0  0  0  0  0  0  0  0
   14.8241  -18.2590   21.0936 O   0  0  0  0  0  0  0  0  0  0  0  0
  2 13  1  0
  2  1  1  1
  3  2  1  0
  4  3  1  0
  4  5  2  0
  6  5  1  0
  7 12  2  0
  7  6  1  0
  8  7  1  0
  9 10  1  0
  9  8  2  0
 10 11  2  0
 11 12  1  0
 12  4  1  0
 13 14  2  0
 15 16  1  0
 15 13  1  0
 16 17  1  1
 18 17  1  0
 19 18  2  0
 20 21  1  0
 20 19  1  0
 21 22  2  0
 22 18  1  0
 23 16  1  0
 24 23  2  0
 25 23  1  0
 25 29  1  0
 26 25  1  0
 27 26  1  0
 27 28  1  0
 28 29  1  0
 29 30  1  1
 30 31  1  0
 32 30  2  0
M  END
$$$$
