MAP.pdb
     RDKit          3D

 21 21  0  0  1  0  0  0  0  0999 V2000
    7.5696  -12.0053   27.2645 C   0  0  0  0  0  0  0  0  0  0  0  0
    6.9647  -13.3072   26.2159 S   0  0  0  0  0  0  0  0  0  0  0  0
    6.5369  -14.8373   26.9781 C   0  0  0  0  0  0  0  0  0  0  0  0
    5.9598  -15.9386   26.1619 C   0  0  0  0  0  0  0  0  0  0  0  0
    6.8967  -16.6384   25.2595 C   0  0  2  0  0  0  0  0  0  0  0  0
    8.0668  -17.0651   25.9856 N   0  0  0  0  0  0  0  0  0  0  0  0
    7.3690  -15.7578   24.1400 C   0  0  0  0  0  0  0  0  0  0  0  0
    6.5520  -14.9874   23.5923 O   0  0  0  0  0  0  0  0  0  0  0  0
   10.6962  -15.1168   22.5279 C   0  0  0  0  0  0  0  0  0  0  0  0
    9.1832  -14.9157   22.6064 C   0  0  2  0  0  0  0  0  0  0  0  0
    8.6997  -15.7562   23.6714 N   0  0  0  0  0  0  0  0  0  0  0  0
    8.6302  -15.3160   21.2890 C   0  0  0  0  0  0  0  0  0  0  0  0
    8.3836  -16.5310   21.1095 O   0  0  0  0  0  0  0  0  0  0  0  0
    8.3968  -14.3481   20.2858 N   0  0  0  0  0  0  0  0  0  0  0  0
    8.3987  -12.9062   20.4806 C   0  0  0  0  0  0  0  0  0  0  0  0
    7.7463  -12.3310   19.2336 C   0  0  0  0  0  0  0  0  0  0  0  0
    8.2330  -13.2991   18.1852 C   0  0  0  0  0  0  0  0  0  0  0  0
    8.1171  -14.6275   18.9028 C   0  0  1  0  0  0  0  0  0  0  0  0
    9.1049  -15.5414   18.2903 C   0  0  0  0  0  0  0  0  0  0  0  0
   10.2315  -15.6388   18.8300 O   0  0  0  0  0  0  0  0  0  0  0  0
    8.8558  -16.2934   17.1573 O   0  0  0  0  0  0  0  0  0  0  0  0
  2  1  1  0
  3  2  1  0
  4  5  1  0
  4  3  1  0
  5  6  1  1
  7  5  1  0
  8  7  2  0
 10  9  1  6
 10 12  1  0
 10 11  1  0
 11  7  1  0
 12 14  1  0
 13 12  2  0
 14 18  1  0
 14 15  1  0
 15 16  1  0
 17 16  1  0
 18 17  1  0
 19 21  1  0
 18 19  1  6
 20 19  2  0
M  END
$$$$
