MAP.pdb
     RDKit          3D

 21 21  0  0  1  0  0  0  0  0999 V2000
    5.8254  -12.0048   27.5946 C   0  0  0  0  0  0  0  0  0  0  0  0
    7.3991  -12.7077   27.1592 S   0  0  0  0  0  0  0  0  0  0  0  0
    7.5005  -14.4618   27.0237 C   0  0  0  0  0  0  0  0  0  0  0  0
    6.4132  -15.2192   26.3483 C   0  0  0  0  0  0  0  0  0  0  0  0
    6.8267  -16.0927   25.2312 C   0  0  2  0  0  0  0  0  0  0  0  0
    7.8495  -17.0111   25.6657 N   0  0  0  0  0  0  0  0  0  0  0  0
    7.3942  -15.3120   24.0821 C   0  0  0  0  0  0  0  0  0  0  0  0
    6.6903  -14.4304   23.5453 O   0  0  0  0  0  0  0  0  0  0  0  0
   10.7442  -15.1673   22.4048 C   0  0  0  0  0  0  0  0  0  0  0  0
    9.2653  -14.7885   22.4767 C   0  0  2  0  0  0  0  0  0  0  0  0
    8.6928  -15.5254   23.5738 N   0  0  0  0  0  0  0  0  0  0  0  0
    8.6625  -15.1718   21.1761 C   0  0  0  0  0  0  0  0  0  0  0  0
    8.3411  -16.3721   21.0183 O   0  0  0  0  0  0  0  0  0  0  0  0
    8.4659  -14.2044   20.1646 N   0  0  0  0  0  0  0  0  0  0  0  0
    8.5590  -12.7628   20.3391 C   0  0  0  0  0  0  0  0  0  0  0  0
    7.9151  -12.1651   19.0982 C   0  0  0  0  0  0  0  0  0  0  0  0
    8.3194  -13.1741   18.0534 C   0  0  0  0  0  0  0  0  0  0  0  0
    8.1395  -14.4838   18.7919 C   0  0  1  0  0  0  0  0  0  0  0  0
    9.0566  -15.4636   18.1715 C   0  0  0  0  0  0  0  0  0  0  0  0
   10.1612  -15.6699   18.7258 O   0  0  0  0  0  0  0  0  0  0  0  0
    8.7645  -16.1640   17.0159 O   0  0  0  0  0  0  0  0  0  0  0  0
  2  1  1  0
  3  2  1  0
  4  5  1  0
  4  3  1  0
  5  6  1  1
  7  5  1  0
  8  7  2  0
 10  9  1  6
 10 12  1  0
 10 11  1  0
 11  7  1  0
 12 14  1  0
 13 12  2  0
 14 18  1  0
 14 15  1  0
 15 16  1  0
 17 16  1  0
 18 17  1  0
 19 21  1  0
 18 19  1  6
 20 19  2  0
M  END
$$$$
