MAP.pdb
     RDKit          3D

 21 21  0  0  1  0  0  0  0  0999 V2000
    9.0394  -11.8845   19.0365 C   0  0  0  0  0  0  0  0  0  0  0  0
    8.1824  -13.1004   18.0630 S   0  0  0  0  0  0  0  0  0  0  0  0
    7.6632  -14.5768   18.8728 C   0  0  0  0  0  0  0  0  0  0  0  0
    8.1848  -14.9048   20.2265 C   0  0  0  0  0  0  0  0  0  0  0  0
    7.7085  -16.1722   20.8169 C   0  0  2  0  0  0  0  0  0  0  0  0
    6.6662  -16.7441   20.0014 N   0  0  0  0  0  0  0  0  0  0  0  0
    7.1368  -15.9774   22.1907 C   0  0  0  0  0  0  0  0  0  0  0  0
    5.9989  -15.4743   22.3051 O   0  0  0  0  0  0  0  0  0  0  0  0
    6.9851  -17.4381   25.3137 C   0  0  0  0  0  0  0  0  0  0  0  0
    7.3396  -16.0837   24.7007 C   0  0  2  0  0  0  0  0  0  0  0  0
    7.8252  -16.3366   23.3685 N   0  0  0  0  0  0  0  0  0  0  0  0
    8.3834  -15.4826   25.5671 C   0  0  0  0  0  0  0  0  0  0  0  0
    9.5390  -15.9610   25.4983 O   0  0  0  0  0  0  0  0  0  0  0  0
    8.0668  -14.4104   26.4319 N   0  0  0  0  0  0  0  0  0  0  0  0
    6.7623  -13.7785   26.5581 C   0  0  0  0  0  0  0  0  0  0  0  0
    7.0154  -12.4796   27.3068 C   0  0  0  0  0  0  0  0  0  0  0  0
    8.1285  -12.8975   28.2339 C   0  0  0  0  0  0  0  0  0  0  0  0
    8.9831  -13.7633   27.3321 C   0  0  1  0  0  0  0  0  0  0  0  0
    9.7052  -14.7174   28.2007 C   0  0  0  0  0  0  0  0  0  0  0  0
    9.2612  -15.8857   28.2895 O   0  0  0  0  0  0  0  0  0  0  0  0
   10.8410  -14.3936   28.9193 O   0  0  0  0  0  0  0  0  0  0  0  0
  2  1  1  0
  3  2  1  0
  4  5  1  0
  4  3  1  0
  5  6  1  6
  7  5  1  0
  8  7  2  0
 10  9  1  1
 10 12  1  0
 10 11  1  0
 11  7  1  0
 12 14  1  0
 13 12  2  0
 14 18  1  0
 14 15  1  0
 15 16  1  0
 17 16  1  0
 18 17  1  0
 19 21  1  0
 18 19  1  1
 20 19  2  0
M  END
$$$$
