MAP.pdb
     RDKit          3D

 21 21  0  0  1  0  0  0  0  0999 V2000
    7.1287  -10.9383   26.2517 C   0  0  0  0  0  0  0  0  0  0  0  0
    6.6349  -12.5214   26.8924 S   0  0  0  0  0  0  0  0  0  0  0  0
    7.8376  -13.8093   26.9027 C   0  0  0  0  0  0  0  0  0  0  0  0
    7.6968  -14.9652   25.9773 C   0  0  0  0  0  0  0  0  0  0  0  0
    6.4953  -14.9672   25.1181 C   0  0  2  0  0  0  0  0  0  0  0  0
    5.5274  -15.9142   25.6129 N   0  0  0  0  0  0  0  0  0  0  0  0
    6.8111  -15.3575   23.7039 C   0  0  0  0  0  0  0  0  0  0  0  0
    6.7405  -16.5621   23.3802 O   0  0  0  0  0  0  0  0  0  0  0  0
    7.8771  -13.4742   20.6352 C   0  0  0  0  0  0  0  0  0  0  0  0
    7.5331  -14.7747   21.3605 C   0  0  2  0  0  0  0  0  0  0  0  0
    7.1867  -14.4250   22.7141 N   0  0  0  0  0  0  0  0  0  0  0  0
    8.7439  -15.6302   21.3009 C   0  0  0  0  0  0  0  0  0  0  0  0
    9.6441  -15.4192   22.1460 O   0  0  0  0  0  0  0  0  0  0  0  0
    8.8595  -16.6411   20.3199 N   0  0  0  0  0  0  0  0  0  0  0  0
    7.8328  -17.0113   19.3575 C   0  0  0  0  0  0  0  0  0  0  0  0
    8.2753  -18.3520   18.7931 C   0  0  0  0  0  0  0  0  0  0  0  0
    9.7731  -18.1796   18.7907 C   0  0  0  0  0  0  0  0  0  0  0  0
   10.0127  -17.4745   20.1093 C   0  0  1  0  0  0  0  0  0  0  0  0
   11.2636  -16.6991   19.9679 C   0  0  0  0  0  0  0  0  0  0  0  0
   12.3516  -17.3135   20.0620 O   0  0  0  0  0  0  0  0  0  0  0  0
   11.3005  -15.3364   19.7381 O   0  0  0  0  0  0  0  0  0  0  0  0
  2  1  1  0
  3  2  1  0
  4  5  1  0
  4  3  1  0
  5  6  1  1
  7  5  1  0
  8  7  2  0
 10  9  1  6
 10 12  1  0
 10 11  1  0
 11  7  1  0
 12 14  1  0
 13 12  2  0
 14 18  1  0
 14 15  1  0
 15 16  1  0
 17 16  1  0
 18 17  1  0
 19 21  1  0
 18 19  1  6
 20 19  2  0
M  END
$$$$
