MAP.pdb
     RDKit          3D

 21 21  0  0  1  0  0  0  0  0999 V2000
    8.7071  -11.3835   20.7129 C   0  0  0  0  0  0  0  0  0  0  0  0
    8.1469  -12.0106   19.1467 S   0  0  0  0  0  0  0  0  0  0  0  0
    8.5476  -13.6789   18.7445 C   0  0  0  0  0  0  0  0  0  0  0  0
    8.2900  -14.7633   19.7293 C   0  0  0  0  0  0  0  0  0  0  0  0
    8.7205  -16.1188   19.3307 C   0  0  2  0  0  0  0  0  0  0  0  0
    7.9132  -16.5993   18.2372 N   0  0  0  0  0  0  0  0  0  0  0  0
    8.5815  -17.1091   20.4498 C   0  0  0  0  0  0  0  0  0  0  0  0
    7.4749  -17.6584   20.6356 O   0  0  0  0  0  0  0  0  0  0  0  0
   10.7098  -19.3326   22.3287 C   0  0  0  0  0  0  0  0  0  0  0  0
    9.5305  -18.3646   22.4184 C   0  0  2  0  0  0  0  0  0  0  0  0
    9.6461  -17.4533   21.3091 N   0  0  0  0  0  0  0  0  0  0  0  0
    9.6478  -17.6681   23.7233 C   0  0  0  0  0  0  0  0  0  0  0  0
   10.6705  -16.9716   23.9180 O   0  0  0  0  0  0  0  0  0  0  0  0
    8.6329  -17.7976   24.6984 N   0  0  0  0  0  0  0  0  0  0  0  0
    7.3444  -18.4443   24.5018 C   0  0  0  0  0  0  0  0  0  0  0  0
    6.4906  -18.0066   25.6813 C   0  0  0  0  0  0  0  0  0  0  0  0
    7.5284  -17.9333   26.7725 C   0  0  0  0  0  0  0  0  0  0  0  0
    8.7041  -17.3099   26.0497 C   0  0  1  0  0  0  0  0  0  0  0  0
    9.9291  -17.7455   26.7537 C   0  0  0  0  0  0  0  0  0  0  0  0
   10.5839  -18.6952   26.2644 O   0  0  0  0  0  0  0  0  0  0  0  0
   10.3923  -17.1647   27.9196 O   0  0  0  0  0  0  0  0  0  0  0  0
  2  1  1  0
  3  2  1  0
  4  5  1  0
  4  3  1  0
  5  6  1  6
  7  5  1  0
  8  7  2  0
 10  9  1  6
 10 12  1  0
 10 11  1  0
 11  7  1  0
 12 14  1  0
 13 12  2  0
 14 18  1  0
 14 15  1  0
 15 16  1  0
 17 16  1  0
 18 17  1  0
 19 21  1  0
 18 19  1  1
 20 19  2  0
M  END
$$$$
