MAP.pdb
     RDKit          3D

 21 21  0  0  1  0  0  0  0  0999 V2000
    6.5528  -11.0829   27.0844 C   0  0  0  0  0  0  0  0  0  0  0  0
    6.2939  -12.7569   26.5448 S   0  0  0  0  0  0  0  0  0  0  0  0
    7.6047  -13.9076   26.7953 C   0  0  0  0  0  0  0  0  0  0  0  0
    7.4371  -15.3267   26.3825 C   0  0  0  0  0  0  0  0  0  0  0  0
    6.4089  -15.5873   25.3546 C   0  0  2  0  0  0  0  0  0  0  0  0
    5.6427  -16.7591   25.6986 N   0  0  0  0  0  0  0  0  0  0  0  0
    7.0103  -15.8350   24.0021 C   0  0  0  0  0  0  0  0  0  0  0  0
    7.4294  -16.9797   23.7284 O   0  0  0  0  0  0  0  0  0  0  0  0
    7.8601  -13.6734   21.0616 C   0  0  0  0  0  0  0  0  0  0  0  0
    7.6673  -15.0489   21.6994 C   0  0  2  0  0  0  0  0  0  0  0  0
    7.1270  -14.8321   23.0168 N   0  0  0  0  0  0  0  0  0  0  0  0
    9.0050  -15.6891   21.7467 C   0  0  0  0  0  0  0  0  0  0  0  0
    9.8153  -15.2743   22.6070 O   0  0  0  0  0  0  0  0  0  0  0  0
    9.3347  -16.7274   20.8461 N   0  0  0  0  0  0  0  0  0  0  0  0
    8.4429  -17.3027   19.8507 C   0  0  0  0  0  0  0  0  0  0  0  0
    9.1138  -18.5932   19.4077 C   0  0  0  0  0  0  0  0  0  0  0  0
   10.5672  -18.1996   19.4846 C   0  0  0  0  0  0  0  0  0  0  0  0
   10.6086  -17.3902   20.7638 C   0  0  1  0  0  0  0  0  0  0  0  0
   11.7406  -16.4464   20.6460 C   0  0  0  0  0  0  0  0  0  0  0  0
   11.5376  -15.3516   20.0713 O   0  0  0  0  0  0  0  0  0  0  0  0
   13.0084  -16.7034   21.1334 O   0  0  0  0  0  0  0  0  0  0  0  0
  2  1  1  0
  3  2  1  0
  4  5  1  0
  4  3  1  0
  5  6  1  1
  7  5  1  0
  8  7  2  0
 10  9  1  1
 10 12  1  0
 10 11  1  0
 11  7  1  0
 12 14  1  0
 13 12  2  0
 14 18  1  0
 14 15  1  0
 15 16  1  0
 17 16  1  0
 18 17  1  0
 19 21  1  0
 18 19  1  6
 20 19  2  0
M  END
$$$$
