WWH.pdb
     RDKit          3D

 39 43  0  0  1  0  0  0  0  0999 V2000
    7.3631  -17.5780   26.2886 N   0  0  0  0  0  0  0  0  0  0  0  0
    7.7778  -16.7579   25.1902 C   0  0  1  0  0  0  0  0  0  0  0  0
    8.8012  -15.7123   25.5520 C   0  0  0  0  0  0  0  0  0  0  0  0
    8.3312  -14.7337   26.5524 C   0  0  0  0  0  0  0  0  0  0  0  0
    8.7237  -14.6403   27.8717 C   0  0  0  0  0  0  0  0  0  0  0  0
    8.0571  -13.6434   28.4626 N   0  0  0  0  0  0  0  0  0  0  0  0
    7.2337  -13.0763   27.5626 C   0  0  0  0  0  0  0  0  0  0  0  0
    6.3418  -12.0304   27.6211 C   0  0  0  0  0  0  0  0  0  0  0  0
    5.6163  -11.6540   26.4967 C   0  0  0  0  0  0  0  0  0  0  0  0
    5.7765  -12.3207   25.3018 C   0  0  0  0  0  0  0  0  0  0  0  0
    6.6849  -13.3830   25.2503 C   0  0  0  0  0  0  0  0  0  0  0  0
    7.3987  -13.7567   26.3519 C   0  0  0  0  0  0  0  0  0  0  0  0
    8.1536  -17.5501   23.9906 C   0  0  0  0  0  0  0  0  0  0  0  0
    8.1326  -18.8300   24.0166 O   0  0  0  0  0  0  0  0  0  0  0  0
    8.5329  -16.8461   22.8178 N   0  0  0  0  0  0  0  0  0  0  0  0
    8.9430  -17.5467   21.6369 C   0  0  1  0  0  0  0  0  0  0  0  0
    8.2470  -17.0371   20.3913 C   0  0  0  0  0  0  0  0  0  0  0  0
    7.7495  -15.6640   20.5382 C   0  0  0  0  0  0  0  0  0  0  0  0
    6.5272  -15.3055   21.0425 C   0  0  0  0  0  0  0  0  0  0  0  0
    6.4721  -13.9456   21.0018 N   0  0  0  0  0  0  0  0  0  0  0  0
    7.6103  -13.4476   20.4929 C   0  0  0  0  0  0  0  0  0  0  0  0
    8.0954  -12.1766   20.2263 C   0  0  0  0  0  0  0  0  0  0  0  0
    9.3266  -11.9352   19.6901 C   0  0  0  0  0  0  0  0  0  0  0  0
   10.1455  -13.0081   19.3915 C   0  0  0  0  0  0  0  0  0  0  0  0
    9.6826  -14.2841   19.6490 C   0  0  0  0  0  0  0  0  0  0  0  0
    8.4214  -14.5187   20.1975 C   0  0  0  0  0  0  0  0  0  0  0  0
   10.4007  -17.4164   21.3777 C   0  0  0  0  0  0  0  0  0  0  0  0
   10.8770  -17.8696   20.3088 O   0  0  0  0  0  0  0  0  0  0  0  0
   11.2824  -16.8001   22.2883 N   0  0  0  0  0  0  0  0  0  0  0  0
   12.7315  -17.0921   22.2005 C   0  0  1  0  0  0  0  0  0  0  0  0
   13.4527  -15.7932   21.9789 C   0  0  0  0  0  0  0  0  0  0  0  0
   13.3701  -15.3606   20.5745 C   0  0  0  0  0  0  0  0  0  0  0  0
   12.7833  -16.1442   19.5843 C   0  0  0  0  0  0  0  0  0  0  0  0
   12.8812  -15.4540   18.4365 N   0  0  0  0  0  0  0  0  0  0  0  0
   13.4910  -14.2867   18.6372 C   0  0  0  0  0  0  0  0  0  0  0  0
   13.7779  -14.2529   19.9416 N   0  0  0  0  0  0  0  0  0  0  0  0
   13.1169  -17.7112   23.5127 C   0  0  0  0  0  0  0  0  0  0  0  0
   14.3096  -18.0392   23.6765 O   0  0  0  0  0  0  0  0  0  0  0  0
   12.2011  -17.9166   24.5127 O   0  0  0  0  0  0  0  0  0  0  0  0
  2  1  1  1
  2  3  1  0
  3  4  1  0
  4  5  2  0
  5  6  1  0
  7  6  1  0
  8  7  2  0
  9  8  1  0
 10 11  1  0
 10  9  2  0
 11 12  2  0
 12  4  1  0
 12  7  1  0
 13  2  1  0
 14 13  2  0
 15 13  1  0
 16 15  1  0
 16 17  1  6
 18 26  1  0
 18 17  1  0
 19 18  2  0
 20 19  1  0
 20 21  1  0
 21 22  1  0
 21 26  2  0
 22 23  2  0
 23 24  1  0
 25 24  2  0
 26 25  1  0
 27 16  1  0
 28 27  2  0
 29 27  1  0
 30 29  1  0
 30 31  1  1
 32 31  1  0
 32 36  1  0
 33 34  1  0
 33 32  2  0
 34 35  1  0
 35 36  2  0
 37 30  1  0
 37 39  1  0
 38 37  2  0
M  END
$$$$
