WWH.pdb
     RDKit          3D

 39 43  0  0  1  0  0  0  0  0999 V2000
   10.9158  -15.9447   20.6587 N   0  0  0  0  0  0  0  0  0  0  0  0
    9.7932  -16.0617   21.5403 C   0  0  1  0  0  0  0  0  0  0  0  0
    8.6129  -16.7853   20.9446 C   0  0  0  0  0  0  0  0  0  0  0  0
    7.6442  -15.8991   20.2696 C   0  0  0  0  0  0  0  0  0  0  0  0
    6.4772  -16.2731   19.6359 C   0  0  0  0  0  0  0  0  0  0  0  0
    5.8837  -15.1895   19.1252 N   0  0  0  0  0  0  0  0  0  0  0  0
    6.6326  -14.1084   19.4082 C   0  0  0  0  0  0  0  0  0  0  0  0
    6.4988  -12.7659   19.1388 C   0  0  0  0  0  0  0  0  0  0  0  0
    7.4539  -11.8564   19.5777 C   0  0  0  0  0  0  0  0  0  0  0  0
    8.5530  -12.2816   20.2914 C   0  0  0  0  0  0  0  0  0  0  0  0
    8.6821  -13.6479   20.5612 C   0  0  0  0  0  0  0  0  0  0  0  0
    7.7473  -14.5446   20.1314 C   0  0  0  0  0  0  0  0  0  0  0  0
   10.1687  -16.5686   22.8856 C   0  0  0  0  0  0  0  0  0  0  0  0
   11.3644  -16.9549   23.1310 O   0  0  0  0  0  0  0  0  0  0  0  0
    9.1643  -16.6086   23.8879 N   0  0  0  0  0  0  0  0  0  0  0  0
    9.5099  -16.7087   25.2750 C   0  0  1  0  0  0  0  0  0  0  0  0
    8.2952  -16.6541   26.1790 C   0  0  0  0  0  0  0  0  0  0  0  0
    7.4321  -15.4991   25.9040 C   0  0  0  0  0  0  0  0  0  0  0  0
    6.2286  -15.5372   25.2504 C   0  0  0  0  0  0  0  0  0  0  0  0
    5.7653  -14.2574   25.2115 N   0  0  0  0  0  0  0  0  0  0  0  0
    6.6327  -13.4287   25.8142 C   0  0  0  0  0  0  0  0  0  0  0  0
    6.6799  -12.0658   26.0639 C   0  0  0  0  0  0  0  0  0  0  0  0
    7.7084  -11.4530   26.7181 C   0  0  0  0  0  0  0  0  0  0  0  0
    8.7682  -12.2215   27.1619 C   0  0  0  0  0  0  0  0  0  0  0  0
    8.7424  -13.5823   26.9242 C   0  0  0  0  0  0  0  0  0  0  0  0
    7.6850  -14.1980   26.2538 C   0  0  0  0  0  0  0  0  0  0  0  0
   10.2059  -17.9823   25.5955 C   0  0  0  0  0  0  0  0  0  0  0  0
    9.8122  -19.0480   25.0624 O   0  0  0  0  0  0  0  0  0  0  0  0
   11.3004  -18.0482   26.4811 N   0  0  0  0  0  0  0  0  0  0  0  0
   11.9350  -19.3592   26.7485 C   0  0  1  0  0  0  0  0  0  0  0  0
   13.4184  -19.1992   26.5745 C   0  0  0  0  0  0  0  0  0  0  0  0
   14.1321  -20.4620   26.8233 C   0  0  0  0  0  0  0  0  0  0  0  0
   13.8654  -21.6253   26.1060 C   0  0  0  0  0  0  0  0  0  0  0  0
   14.6862  -22.5730   26.5872 N   0  0  0  0  0  0  0  0  0  0  0  0
   15.4531  -22.0845   27.5608 C   0  0  0  0  0  0  0  0  0  0  0  0
   15.0988  -20.8024   27.6858 N   0  0  0  0  0  0  0  0  0  0  0  0
   11.5886  -19.7138   28.1656 C   0  0  0  0  0  0  0  0  0  0  0  0
   11.0114  -18.8523   28.8594 O   0  0  0  0  0  0  0  0  0  0  0  0
   11.8879  -20.9417   28.6980 O   0  0  0  0  0  0  0  0  0  0  0  0
  2  1  1  6
  2  3  1  0
  3  4  1  0
  4  5  2  0
  5  6  1  0
  7  6  1  0
  8  7  2  0
  9  8  1  0
 10 11  1  0
 10  9  2  0
 11 12  2  0
 12  4  1  0
 12  7  1  0
 13  2  1  0
 14 13  2  0
 15 13  1  0
 16 15  1  0
 16 17  1  1
 18 26  1  0
 18 17  1  0
 19 18  2  0
 20 19  1  0
 20 21  1  0
 21 22  1  0
 21 26  2  0
 22 23  2  0
 23 24  1  0
 25 24  2  0
 26 25  1  0
 27 16  1  0
 28 27  2  0
 29 27  1  0
 30 29  1  0
 30 31  1  1
 32 31  1  0
 32 36  1  0
 33 34  1  0
 33 32  2  0
 34 35  1  0
 35 36  2  0
 37 30  1  0
 37 39  1  0
 38 37  2  0
M  END
$$$$
