WWH.pdb
     RDKit          3D

 39 43  0  0  1  0  0  0  0  0999 V2000
   10.5397  -14.8104   21.3633 N   0  0  0  0  0  0  0  0  0  0  0  0
    9.5701  -15.6386   22.0153 C   0  0  1  0  0  0  0  0  0  0  0  0
    8.9372  -16.6715   21.1187 C   0  0  0  0  0  0  0  0  0  0  0  0
    8.0565  -16.1043   20.0785 C   0  0  0  0  0  0  0  0  0  0  0  0
    7.3291  -16.8004   19.1353 C   0  0  0  0  0  0  0  0  0  0  0  0
    6.6747  -15.9355   18.3537 N   0  0  0  0  0  0  0  0  0  0  0  0
    6.9535  -14.6838   18.7603 C   0  0  0  0  0  0  0  0  0  0  0  0
    6.5579  -13.4379   18.3314 C   0  0  0  0  0  0  0  0  0  0  0  0
    7.0152  -12.2906   18.9693 C   0  0  0  0  0  0  0  0  0  0  0  0
    7.8731  -12.3789   20.0436 C   0  0  0  0  0  0  0  0  0  0  0  0
    8.2709  -13.6490   20.4736 C   0  0  0  0  0  0  0  0  0  0  0  0
    7.8252  -14.7781   19.8498 C   0  0  0  0  0  0  0  0  0  0  0  0
   10.0656  -16.2046   23.2966 C   0  0  0  0  0  0  0  0  0  0  0  0
   11.3164  -16.2136   23.5698 O   0  0  0  0  0  0  0  0  0  0  0  0
    9.1119  -16.7310   24.2068 N   0  0  0  0  0  0  0  0  0  0  0  0
    9.4371  -16.9184   25.5898 C   0  0  1  0  0  0  0  0  0  0  0  0
    8.2143  -16.8680   26.4832 C   0  0  0  0  0  0  0  0  0  0  0  0
    7.4161  -15.6518   26.2881 C   0  0  0  0  0  0  0  0  0  0  0  0
    6.2239  -15.5762   25.6173 C   0  0  0  0  0  0  0  0  0  0  0  0
    5.8271  -14.2749   25.6727 N   0  0  0  0  0  0  0  0  0  0  0  0
    6.7248  -13.5418   26.3503 C   0  0  0  0  0  0  0  0  0  0  0  0
    6.8369  -12.2068   26.7068 C   0  0  0  0  0  0  0  0  0  0  0  0
    7.8836  -11.7011   27.4209 C   0  0  0  0  0  0  0  0  0  0  0  0
    8.8950  -12.5560   27.8173 C   0  0  0  0  0  0  0  0  0  0  0  0
    8.8042  -13.8909   27.4732 C   0  0  0  0  0  0  0  0  0  0  0  0
    7.7287  -14.3967   26.7423 C   0  0  0  0  0  0  0  0  0  0  0  0
   10.0827  -18.2321   25.8476 C   0  0  0  0  0  0  0  0  0  0  0  0
    9.4362  -19.2863   25.6339 O   0  0  0  0  0  0  0  0  0  0  0  0
   11.4030  -18.3490   26.3266 N   0  0  0  0  0  0  0  0  0  0  0  0
   11.9201  -19.6855   26.6998 C   0  0  1  0  0  0  0  0  0  0  0  0
   13.4192  -19.6422   26.6134 C   0  0  0  0  0  0  0  0  0  0  0  0
   13.8794  -19.5715   25.2172 C   0  0  0  0  0  0  0  0  0  0  0  0
   13.0359  -19.8238   24.1384 C   0  0  0  0  0  0  0  0  0  0  0  0
   13.7745  -19.6740   23.0269 N   0  0  0  0  0  0  0  0  0  0  0  0
   15.0282  -19.3439   23.3332 C   0  0  0  0  0  0  0  0  0  0  0  0
   15.0674  -19.2877   24.6675 N   0  0  0  0  0  0  0  0  0  0  0  0
   11.4634  -19.9359   28.1078 C   0  0  0  0  0  0  0  0  0  0  0  0
   11.8584  -20.9751   28.6743 O   0  0  0  0  0  0  0  0  0  0  0  0
   10.6390  -19.0609   28.7676 O   0  0  0  0  0  0  0  0  0  0  0  0
  2  1  1  6
  2  3  1  0
  3  4  1  0
  4  5  2  0
  5  6  1  0
  7  6  1  0
  8  7  2  0
  9  8  1  0
 10 11  1  0
 10  9  2  0
 11 12  2  0
 12  4  1  0
 12  7  1  0
 13  2  1  0
 14 13  2  0
 15 13  1  0
 16 15  1  0
 16 17  1  1
 18 26  1  0
 18 17  1  0
 19 18  2  0
 20 19  1  0
 20 21  1  0
 21 22  1  0
 21 26  2  0
 22 23  2  0
 23 24  1  0
 25 24  2  0
 26 25  1  0
 27 16  1  0
 28 27  2  0
 29 27  1  0
 30 29  1  0
 30 31  1  1
 32 31  1  0
 32 36  1  0
 33 34  1  0
 33 32  2  0
 34 35  1  0
 35 36  2  0
 37 30  1  0
 37 39  1  0
 38 37  2  0
M  END
$$$$
