WWH.pdb
     RDKit          3D

 39 43  0  0  1  0  0  0  0  0999 V2000
    6.9392  -18.5721   19.7436 N   0  0  0  0  0  0  0  0  0  0  0  0
    6.5687  -18.6471   21.1249 C   0  0  1  0  0  0  0  0  0  0  0  0
    6.5029  -20.0502   21.6714 C   0  0  0  0  0  0  0  0  0  0  0  0
    5.3834  -20.8503   21.1368 C   0  0  0  0  0  0  0  0  0  0  0  0
    5.4676  -22.0519   20.4641 C   0  0  0  0  0  0  0  0  0  0  0  0
    4.2401  -22.4526   20.1177 N   0  0  0  0  0  0  0  0  0  0  0  0
    3.3474  -21.5425   20.5473 C   0  0  0  0  0  0  0  0  0  0  0  0
    1.9766  -21.4515   20.4736 C   0  0  0  0  0  0  0  0  0  0  0  0
    1.3072  -20.3686   21.0316 C   0  0  0  0  0  0  0  0  0  0  0  0
    2.0034  -19.3655   21.6695 C   0  0  0  0  0  0  0  0  0  0  0  0
    3.3967  -19.4650   21.7402 C   0  0  0  0  0  0  0  0  0  0  0  0
    4.0583  -20.5259   21.1930 C   0  0  0  0  0  0  0  0  0  0  0  0
    7.3563  -17.7244   21.9827 C   0  0  0  0  0  0  0  0  0  0  0  0
    8.5504  -17.3906   21.6637 O   0  0  0  0  0  0  0  0  0  0  0  0
    6.7447  -17.2238   23.1619 N   0  0  0  0  0  0  0  0  0  0  0  0
    7.4595  -16.3596   24.0539 C   0  0  1  0  0  0  0  0  0  0  0  0
    6.5940  -15.8612   25.1934 C   0  0  0  0  0  0  0  0  0  0  0  0
    7.3141  -14.9648   26.1057 C   0  0  0  0  0  0  0  0  0  0  0  0
    8.2451  -15.3482   27.0348 C   0  0  0  0  0  0  0  0  0  0  0  0
    8.6612  -14.2131   27.6613 N   0  0  0  0  0  0  0  0  0  0  0  0
    8.0258  -13.1428   27.1581 C   0  0  0  0  0  0  0  0  0  0  0  0
    8.0500  -11.7787   27.4042 C   0  0  0  0  0  0  0  0  0  0  0  0
    7.2802  -10.8759   26.7304 C   0  0  0  0  0  0  0  0  0  0  0  0
    6.4247  -11.3331   25.7456 C   0  0  0  0  0  0  0  0  0  0  0  0
    6.3840  -12.6890   25.4833 C   0  0  0  0  0  0  0  0  0  0  0  0
    7.1760  -13.6029   26.1790 C   0  0  0  0  0  0  0  0  0  0  0  0
    8.6242  -17.0336   24.6847 C   0  0  0  0  0  0  0  0  0  0  0  0
    8.5123  -18.2242   25.0656 O   0  0  0  0  0  0  0  0  0  0  0  0
    9.8629  -16.3892   24.8767 N   0  0  0  0  0  0  0  0  0  0  0  0
   11.1111  -17.1800   24.7796 C   0  0  1  0  0  0  0  0  0  0  0  0
   12.0221  -16.4889   23.8056 C   0  0  0  0  0  0  0  0  0  0  0  0
   13.3062  -17.1953   23.6702 C   0  0  0  0  0  0  0  0  0  0  0  0
   14.2247  -17.2831   24.7131 C   0  0  0  0  0  0  0  0  0  0  0  0
   15.2706  -17.9860   24.2490 N   0  0  0  0  0  0  0  0  0  0  0  0
   15.0726  -18.3474   22.9822 C   0  0  0  0  0  0  0  0  0  0  0  0
   13.8745  -17.8564   22.6533 N   0  0  0  0  0  0  0  0  0  0  0  0
   11.7047  -17.2016   26.1584 C   0  0  0  0  0  0  0  0  0  0  0  0
   12.4207  -18.1743   26.4714 O   0  0  0  0  0  0  0  0  0  0  0  0
   11.4795  -16.1923   27.0591 O   0  0  0  0  0  0  0  0  0  0  0  0
  2  1  1  6
  2  3  1  0
  3  4  1  0
  4  5  2  0
  5  6  1  0
  7  6  1  0
  8  7  2  0
  9  8  1  0
 10 11  1  0
 10  9  2  0
 11 12  2  0
 12  4  1  0
 12  7  1  0
 13  2  1  0
 14 13  2  0
 15 13  1  0
 16 15  1  0
 16 17  1  1
 18 26  1  0
 18 17  1  0
 19 18  2  0
 20 19  1  0
 20 21  1  0
 21 22  1  0
 21 26  2  0
 22 23  2  0
 23 24  1  0
 25 24  2  0
 26 25  1  0
 27 16  1  0
 28 27  2  0
 29 27  1  0
 30 29  1  0
 30 31  1  6
 32 31  1  0
 32 36  1  0
 33 34  1  0
 33 32  2  0
 34 35  1  0
 35 36  2  0
 37 30  1  0
 37 39  1  0
 38 37  2  0
M  END
$$$$
