WWH.pdb
     RDKit          3D

 39 43  0  0  1  0  0  0  0  0999 V2000
    8.2149  -18.0509   20.1532 N   0  0  0  0  0  0  0  0  0  0  0  0
    9.4619  -17.3577   20.2782 C   0  0  1  0  0  0  0  0  0  0  0  0
    9.7283  -16.3626   19.1781 C   0  0  0  0  0  0  0  0  0  0  0  0
    8.5736  -15.5010   18.8560 C   0  0  0  0  0  0  0  0  0  0  0  0
    7.5951  -15.7409   17.9134 C   0  0  0  0  0  0  0  0  0  0  0  0
    6.7342  -14.7182   17.8986 N   0  0  0  0  0  0  0  0  0  0  0  0
    7.1222  -13.8088   18.8109 C   0  0  0  0  0  0  0  0  0  0  0  0
    6.6146  -12.5956   19.2150 C   0  0  0  0  0  0  0  0  0  0  0  0
    7.2429  -11.8620   20.2146 C   0  0  0  0  0  0  0  0  0  0  0  0
    8.3861  -12.3357   20.8203 C   0  0  0  0  0  0  0  0  0  0  0  0
    8.8961  -13.5697   20.4040 C   0  0  0  0  0  0  0  0  0  0  0  0
    8.2831  -14.2930   19.4223 C   0  0  0  0  0  0  0  0  0  0  0  0
    9.6732  -16.7944   21.6368 C   0  0  0  0  0  0  0  0  0  0  0  0
   10.7702  -16.2086   21.9408 O   0  0  0  0  0  0  0  0  0  0  0  0
    8.6232  -16.9233   22.5834 N   0  0  0  0  0  0  0  0  0  0  0  0
    8.7538  -16.3901   23.9071 C   0  0  1  0  0  0  0  0  0  0  0  0
    7.4120  -16.1462   24.5671 C   0  0  0  0  0  0  0  0  0  0  0  0
    7.5215  -15.3792   25.8138 C   0  0  0  0  0  0  0  0  0  0  0  0
    7.8758  -15.8859   27.0364 C   0  0  0  0  0  0  0  0  0  0  0  0
    7.8542  -14.8432   27.9118 N   0  0  0  0  0  0  0  0  0  0  0  0
    7.5011  -13.7118   27.2811 C   0  0  0  0  0  0  0  0  0  0  0  0
    7.3213  -12.3901   27.6587 C   0  0  0  0  0  0  0  0  0  0  0  0
    6.9479  -11.4020   26.7951 C   0  0  0  0  0  0  0  0  0  0  0  0
    6.7338  -11.7228   25.4677 C   0  0  0  0  0  0  0  0  0  0  0  0
    6.9071  -13.0342   25.0688 C   0  0  0  0  0  0  0  0  0  0  0  0
    7.2892  -14.0363   25.9612 C   0  0  0  0  0  0  0  0  0  0  0  0
    9.5004  -17.3005   24.8141 C   0  0  0  0  0  0  0  0  0  0  0  0
    9.5505  -18.5261   24.5485 O   0  0  0  0  0  0  0  0  0  0  0  0
   10.1623  -16.8449   25.9720 N   0  0  0  0  0  0  0  0  0  0  0  0
   11.5643  -17.2568   26.2117 C   0  0  1  0  0  0  0  0  0  0  0  0
   12.4615  -16.2602   25.5348 C   0  0  0  0  0  0  0  0  0  0  0  0
   13.2392  -16.8807   24.4503 C   0  0  0  0  0  0  0  0  0  0  0  0
   13.1714  -18.2421   24.1661 C   0  0  0  0  0  0  0  0  0  0  0  0
   13.9992  -18.4629   23.1320 N   0  0  0  0  0  0  0  0  0  0  0  0
   14.5848  -17.3307   22.7449 C   0  0  0  0  0  0  0  0  0  0  0  0
   14.1080  -16.3850   23.5594 N   0  0  0  0  0  0  0  0  0  0  0  0
   11.7594  -17.2414   27.7001 C   0  0  0  0  0  0  0  0  0  0  0  0
   10.8276  -16.8075   28.4075 O   0  0  0  0  0  0  0  0  0  0  0  0
   12.9180  -17.6876   28.2827 O   0  0  0  0  0  0  0  0  0  0  0  0
  2  1  1  1
  2  3  1  0
  3  4  1  0
  4  5  2  0
  5  6  1  0
  7  6  1  0
  8  7  2  0
  9  8  1  0
 10 11  1  0
 10  9  2  0
 11 12  2  0
 12  4  1  0
 12  7  1  0
 13  2  1  0
 14 13  2  0
 15 13  1  0
 16 15  1  0
 16 17  1  1
 18 26  1  0
 18 17  1  0
 19 18  2  0
 20 19  1  0
 20 21  1  0
 21 22  1  0
 21 26  2  0
 22 23  2  0
 23 24  1  0
 25 24  2  0
 26 25  1  0
 27 16  1  0
 28 27  2  0
 29 27  1  0
 30 29  1  0
 30 31  1  6
 32 31  1  0
 32 36  1  0
 33 34  1  0
 33 32  2  0
 34 35  1  0
 35 36  2  0
 37 30  1  0
 37 39  1  0
 38 37  2  0
M  END
$$$$
