WWH.pdb
     RDKit          3D

 39 43  0  0  1  0  0  0  0  0999 V2000
    8.2723  -18.1962   21.5116 N   0  0  0  0  0  0  0  0  0  0  0  0
    8.4397  -16.7835   21.6766 C   0  0  1  0  0  0  0  0  0  0  0  0
    7.1963  -15.9777   21.4008 C   0  0  0  0  0  0  0  0  0  0  0  0
    7.2636  -15.1752   20.1636 C   0  0  0  0  0  0  0  0  0  0  0  0
    6.9768  -15.5980   18.8821 C   0  0  0  0  0  0  0  0  0  0  0  0
    7.1791  -14.5902   18.0273 N   0  0  0  0  0  0  0  0  0  0  0  0
    7.5925  -13.5111   18.7162 C   0  0  0  0  0  0  0  0  0  0  0  0
    7.9321  -12.2282   18.3536 C   0  0  0  0  0  0  0  0  0  0  0  0
    8.3244  -11.3011   19.3121 C   0  0  0  0  0  0  0  0  0  0  0  0
    8.3806  -11.6489   20.6440 C   0  0  0  0  0  0  0  0  0  0  0  0
    8.0341  -12.9551   21.0048 C   0  0  0  0  0  0  0  0  0  0  0  0
    7.6492  -13.8689   20.0670 C   0  0  0  0  0  0  0  0  0  0  0  0
    9.0904  -16.4279   22.9642 C   0  0  0  0  0  0  0  0  0  0  0  0
    9.8185  -15.3794   23.0639 O   0  0  0  0  0  0  0  0  0  0  0  0
    8.8784  -17.2825   24.0776 N   0  0  0  0  0  0  0  0  0  0  0  0
    9.5235  -17.0331   25.3326 C   0  0  1  0  0  0  0  0  0  0  0  0
    8.5350  -16.8819   26.4709 C   0  0  0  0  0  0  0  0  0  0  0  0
    7.5741  -15.7946   26.2502 C   0  0  0  0  0  0  0  0  0  0  0  0
    6.2673  -15.9469   25.8679 C   0  0  0  0  0  0  0  0  0  0  0  0
    5.7384  -14.6954   25.7798 N   0  0  0  0  0  0  0  0  0  0  0  0
    6.6641  -13.7745   26.0919 C   0  0  0  0  0  0  0  0  0  0  0  0
    6.6881  -12.3906   26.1694 C   0  0  0  0  0  0  0  0  0  0  0  0
    7.7934  -11.6730   26.5229 C   0  0  0  0  0  0  0  0  0  0  0  0
    8.9602  -12.3507   26.8230 C   0  0  0  0  0  0  0  0  0  0  0  0
    8.9594  -13.7305   26.7524 C   0  0  0  0  0  0  0  0  0  0  0  0
    7.8228  -14.4537   26.3896 C   0  0  0  0  0  0  0  0  0  0  0  0
   10.4418  -18.1332   25.7267 C   0  0  0  0  0  0  0  0  0  0  0  0
    9.9840  -19.2926   25.8719 O   0  0  0  0  0  0  0  0  0  0  0  0
   11.8191  -17.9313   25.9473 N   0  0  0  0  0  0  0  0  0  0  0  0
   12.6622  -19.0803   26.3495 C   0  0  1  0  0  0  0  0  0  0  0  0
   14.1004  -18.6696   26.2118 C   0  0  0  0  0  0  0  0  0  0  0  0
   15.0129  -19.7338   26.6600 C   0  0  0  0  0  0  0  0  0  0  0  0
   14.6084  -20.7530   27.5183 C   0  0  0  0  0  0  0  0  0  0  0  0
   15.6793  -21.5383   27.7178 N   0  0  0  0  0  0  0  0  0  0  0  0
   16.7328  -21.0819   27.0421 C   0  0  0  0  0  0  0  0  0  0  0  0
   16.3040  -19.9867   26.4083 N   0  0  0  0  0  0  0  0  0  0  0  0
   12.3157  -19.3770   27.7798 C   0  0  0  0  0  0  0  0  0  0  0  0
   12.6295  -20.4945   28.2376 O   0  0  0  0  0  0  0  0  0  0  0  0
   11.6758  -18.4606   28.5744 O   0  0  0  0  0  0  0  0  0  0  0  0
  2  1  1  1
  2  3  1  0
  3  4  1  0
  4  5  2  0
  5  6  1  0
  7  6  1  0
  8  7  2  0
  9  8  1  0
 10 11  1  0
 10  9  2  0
 11 12  2  0
 12  4  1  0
 12  7  1  0
 13  2  1  0
 14 13  2  0
 15 13  1  0
 16 15  1  0
 16 17  1  1
 18 26  1  0
 18 17  1  0
 19 18  2  0
 20 19  1  0
 20 21  1  0
 21 22  1  0
 21 26  2  0
 22 23  2  0
 23 24  1  0
 25 24  2  0
 26 25  1  0
 27 16  1  0
 28 27  2  0
 29 27  1  0
 30 29  1  0
 30 31  1  1
 32 31  1  0
 32 36  1  0
 33 34  1  0
 33 32  2  0
 34 35  1  0
 35 36  2  0
 37 30  1  0
 37 39  1  0
 38 37  2  0
M  END
$$$$
