WWH.pdb
     RDKit          3D

 39 43  0  0  1  0  0  0  0  0999 V2000
    8.0643  -15.9596   20.9815 N   0  0  0  0  0  0  0  0  0  0  0  0
    8.9327  -14.9489   21.5064 C   0  0  1  0  0  0  0  0  0  0  0  0
    8.7451  -13.5892   20.8840 C   0  0  0  0  0  0  0  0  0  0  0  0
    8.8997  -13.5749   19.4160 C   0  0  0  0  0  0  0  0  0  0  0  0
    7.8916  -13.5588   18.4742 C   0  0  0  0  0  0  0  0  0  0  0  0
    8.4287  -13.5750   17.2501 N   0  0  0  0  0  0  0  0  0  0  0  0
    9.7690  -13.6008   17.3627 C   0  0  0  0  0  0  0  0  0  0  0  0
   10.7967  -13.6186   16.4483 C   0  0  0  0  0  0  0  0  0  0  0  0
   12.1210  -13.6351   16.8706 C   0  0  0  0  0  0  0  0  0  0  0  0
   12.4300  -13.6337   18.2132 C   0  0  0  0  0  0  0  0  0  0  0  0
   11.3798  -13.6158   19.1367 C   0  0  0  0  0  0  0  0  0  0  0  0
   10.0781  -13.6005   18.7267 C   0  0  0  0  0  0  0  0  0  0  0  0
    8.9420  -14.9133   22.9918 C   0  0  0  0  0  0  0  0  0  0  0  0
    8.8675  -13.8013   23.6219 O   0  0  0  0  0  0  0  0  0  0  0  0
    9.0331  -16.1468   23.6884 N   0  0  0  0  0  0  0  0  0  0  0  0
    9.5529  -16.2039   25.0226 C   0  0  1  0  0  0  0  0  0  0  0  0
    8.4700  -16.4416   26.0553 C   0  0  0  0  0  0  0  0  0  0  0  0
    7.3471  -15.5048   25.9291 C   0  0  0  0  0  0  0  0  0  0  0  0
    6.0905  -15.8176   25.4817 C   0  0  0  0  0  0  0  0  0  0  0  0
    5.3641  -14.6668   25.5232 N   0  0  0  0  0  0  0  0  0  0  0  0
    6.1195  -13.6543   25.9778 C   0  0  0  0  0  0  0  0  0  0  0  0
    5.9135  -12.3050   26.2204 C   0  0  0  0  0  0  0  0  0  0  0  0
    6.8787  -11.4677   26.6988 C   0  0  0  0  0  0  0  0  0  0  0  0
    8.1356  -11.9800   26.9604 C   0  0  0  0  0  0  0  0  0  0  0  0
    8.3636  -13.3223   26.7261 C   0  0  0  0  0  0  0  0  0  0  0  0
    7.3687  -14.1691   26.2365 C   0  0  0  0  0  0  0  0  0  0  0  0
   10.5403  -17.3005   25.2000 C   0  0  0  0  0  0  0  0  0  0  0  0
   10.3428  -18.4021   24.6324 O   0  0  0  0  0  0  0  0  0  0  0  0
   11.7016  -17.1577   25.9858 N   0  0  0  0  0  0  0  0  0  0  0  0
   12.5769  -18.3326   26.2009 C   0  0  1  0  0  0  0  0  0  0  0  0
   13.9725  -17.9498   25.7979 C   0  0  0  0  0  0  0  0  0  0  0  0
   14.0387  -17.5581   24.3808 C   0  0  0  0  0  0  0  0  0  0  0  0
   14.3727  -16.2681   23.9766 C   0  0  0  0  0  0  0  0  0  0  0  0
   14.3362  -16.2619   22.6342 N   0  0  0  0  0  0  0  0  0  0  0  0
   14.0011  -17.4627   22.1648 C   0  0  0  0  0  0  0  0  0  0  0  0
   13.8258  -18.2319   23.2430 N   0  0  0  0  0  0  0  0  0  0  0  0
   12.5020  -18.6514   27.6660 C   0  0  0  0  0  0  0  0  0  0  0  0
   11.7984  -17.9170   28.3889 O   0  0  0  0  0  0  0  0  0  0  0  0
   13.1774  -19.7133   28.2110 O   0  0  0  0  0  0  0  0  0  0  0  0
  2  1  1  1
  2  3  1  0
  3  4  1  0
  4  5  2  0
  5  6  1  0
  7  6  1  0
  8  7  2  0
  9  8  1  0
 10 11  1  0
 10  9  2  0
 11 12  2  0
 12  4  1  0
 12  7  1  0
 13  2  1  0
 14 13  2  0
 15 13  1  0
 16 15  1  0
 16 17  1  1
 18 26  1  0
 18 17  1  0
 19 18  2  0
 20 19  1  0
 20 21  1  0
 21 22  1  0
 21 26  2  0
 22 23  2  0
 23 24  1  0
 25 24  2  0
 26 25  1  0
 27 16  1  0
 28 27  2  0
 29 27  1  0
 30 29  1  0
 30 31  1  1
 32 31  1  0
 32 36  1  0
 33 34  1  0
 33 32  2  0
 34 35  1  0
 35 36  2  0
 37 30  1  0
 37 39  1  0
 38 37  2  0
M  END
$$$$
