FTG.pdb
     RDKit          3D

 23 23  0  0  1  0  0  0  0  0999 V2000
    6.1934  -17.4503   25.2855 N   0  0  0  0  0  0  0  0  0  0  0  0
    7.0597  -16.3710   24.9120 C   0  0  1  0  0  0  0  0  0  0  0  0
    7.4714  -15.6421   26.1648 C   0  0  0  0  0  0  0  0  0  0  0  0
    7.1609  -14.2211   26.1496 C   0  0  0  0  0  0  0  0  0  0  0  0
    5.9682  -13.7683   26.6773 C   0  0  0  0  0  0  0  0  0  0  0  0
    5.6166  -12.4284   26.6916 C   0  0  0  0  0  0  0  0  0  0  0  0
    6.4886  -11.4874   26.1568 C   0  0  0  0  0  0  0  0  0  0  0  0
    7.6890  -11.9098   25.6218 C   0  0  0  0  0  0  0  0  0  0  0  0
    8.0092  -13.2503   25.6229 C   0  0  0  0  0  0  0  0  0  0  0  0
    8.2321  -16.8762   24.1877 C   0  0  0  0  0  0  0  0  0  0  0  0
    8.7819  -17.9686   24.5318 O   0  0  0  0  0  0  0  0  0  0  0  0
    8.2551  -17.5309   20.5970 C   0  0  0  0  0  0  0  0  0  0  0  0
    9.5703  -16.8368   20.8391 C   0  0  1  0  0  0  0  0  0  0  0  0
    9.5454  -15.5372   20.3499 O   0  0  0  0  0  0  0  0  0  0  0  0
    9.9231  -16.7959   22.3115 C   0  0  2  0  0  0  0  0  0  0  0  0
    8.8254  -16.2055   23.0809 N   0  0  0  0  0  0  0  0  0  0  0  0
   11.1533  -16.0175   22.5885 C   0  0  0  0  0  0  0  0  0  0  0  0
   11.1318  -14.7764   22.3626 O   0  0  0  0  0  0  0  0  0  0  0  0
   12.3541  -16.5842   23.0931 N   0  0  0  0  0  0  0  0  0  0  0  0
   13.5006  -15.7277   23.3035 C   0  0  0  0  0  0  0  0  0  0  0  0
   14.6857  -16.5329   23.7481 C   0  0  0  0  0  0  0  0  0  0  0  0
   14.6302  -17.7652   23.9125 O   0  0  0  0  0  0  0  0  0  0  0  0
   15.8909  -15.8904   23.9868 O   0  0  0  0  0  0  0  0  0  0  0  0
  2  1  1  1
  2 10  1  0
  3  2  1  0
  4  5  2  0
  4  3  1  0
  6  5  1  0
  7  6  2  0
  8  7  1  0
  8  9  2  0
  9  4  1  0
 10 11  2  0
 10 16  1  0
 13 12  1  1
 13 14  1  0
 15 13  1  0
 15 16  1  1
 17 15  1  0
 17 18  2  0
 19 17  1  0
 20 19  1  0
 20 21  1  0
 21 23  1  0
 22 21  2  0
M  END
$$$$
