FTG.pdb
     RDKit          3D

 23 23  0  0  1  0  0  0  0  0999 V2000
    6.0888  -17.2450   25.7519 N   0  0  0  0  0  0  0  0  0  0  0  0
    6.7432  -16.1118   25.1666 C   0  0  1  0  0  0  0  0  0  0  0  0
    7.5233  -15.4082   26.2467 C   0  0  0  0  0  0  0  0  0  0  0  0
    7.2522  -13.9819   26.3364 C   0  0  0  0  0  0  0  0  0  0  0  0
    6.0450  -13.5377   26.8379 C   0  0  0  0  0  0  0  0  0  0  0  0
    5.7292  -12.1933   26.9479 C   0  0  0  0  0  0  0  0  0  0  0  0
    6.6539  -11.2387   26.5413 C   0  0  0  0  0  0  0  0  0  0  0  0
    7.8700  -11.6523   26.0355 C   0  0  0  0  0  0  0  0  0  0  0  0
    8.1536  -12.9975   25.9391 C   0  0  0  0  0  0  0  0  0  0  0  0
    7.6241  -16.5328   24.0705 C   0  0  0  0  0  0  0  0  0  0  0  0
    8.0296  -17.7343   23.9937 O   0  0  0  0  0  0  0  0  0  0  0  0
    6.5496  -15.5254   20.6112 C   0  0  0  0  0  0  0  0  0  0  0  0
    8.0541  -15.4445   20.6070 C   0  0  1  0  0  0  0  0  0  0  0  0
    8.4822  -14.1233   20.6160 O   0  0  0  0  0  0  0  0  0  0  0  0
    8.6602  -16.1607   21.7960 C   0  0  2  0  0  0  0  0  0  0  0  0
    8.0779  -15.6586   23.0426 N   0  0  0  0  0  0  0  0  0  0  0  0
   10.1316  -16.0027   21.8758 C   0  0  0  0  0  0  0  0  0  0  0  0
   10.8247  -16.4171   20.9065 O   0  0  0  0  0  0  0  0  0  0  0  0
   10.8077  -15.4127   22.9770 N   0  0  0  0  0  0  0  0  0  0  0  0
   12.2181  -15.1152   22.8573 C   0  0  0  0  0  0  0  0  0  0  0  0
   13.0437  -16.2815   23.3141 C   0  0  0  0  0  0  0  0  0  0  0  0
   12.5510  -17.4046   23.5250 O   0  0  0  0  0  0  0  0  0  0  0  0
   14.4056  -16.1123   23.5113 O   0  0  0  0  0  0  0  0  0  0  0  0
  2  1  1  1
  2 10  1  0
  3  2  1  0
  4  5  2  0
  4  3  1  0
  6  5  1  0
  7  6  2  0
  8  7  1  0
  8  9  2  0
  9  4  1  0
 10 11  2  0
 10 16  1  0
 13 12  1  1
 13 14  1  0
 15 13  1  0
 15 16  1  1
 17 15  1  0
 17 18  2  0
 19 17  1  0
 20 19  1  0
 20 21  1  0
 21 23  1  0
 22 21  2  0
M  END
$$$$
