FTG.pdb
     RDKit          3D

 23 23  0  0  1  0  0  0  0  0999 V2000
    6.0954  -17.1682   25.7061 N   0  0  0  0  0  0  0  0  0  0  0  0
    6.7976  -16.0738   25.1025 C   0  0  1  0  0  0  0  0  0  0  0  0
    7.4924  -15.3008   26.1933 C   0  0  0  0  0  0  0  0  0  0  0  0
    6.9877  -13.9482   26.3712 C   0  0  0  0  0  0  0  0  0  0  0  0
    7.5926  -12.8929   25.7181 C   0  0  0  0  0  0  0  0  0  0  0  0
    7.1578  -11.5840   25.8477 C   0  0  0  0  0  0  0  0  0  0  0  0
    6.0691  -11.3034   26.6649 C   0  0  0  0  0  0  0  0  0  0  0  0
    5.4434  -12.3379   27.3311 C   0  0  0  0  0  0  0  0  0  0  0  0
    5.9004  -13.6294   27.1810 C   0  0  0  0  0  0  0  0  0  0  0  0
    7.7606  -16.5628   24.1086 C   0  0  0  0  0  0  0  0  0  0  0  0
    8.4094  -17.6360   24.3122 O   0  0  0  0  0  0  0  0  0  0  0  0
    9.7005  -16.3208   19.5054 C   0  0  0  0  0  0  0  0  0  0  0  0
    8.6841  -15.8730   20.5235 C   0  0  1  0  0  0  0  0  0  0  0  0
    7.4027  -16.2583   20.1514 O   0  0  0  0  0  0  0  0  0  0  0  0
    8.9804  -16.4327   21.8994 C   0  0  2  0  0  0  0  0  0  0  0  0
    8.0344  -15.8965   22.8807 N   0  0  0  0  0  0  0  0  0  0  0  0
   10.3535  -16.1246   22.3639 C   0  0  0  0  0  0  0  0  0  0  0  0
   10.6454  -14.9179   22.5886 O   0  0  0  0  0  0  0  0  0  0  0  0
   11.3597  -17.1055   22.5719 N   0  0  0  0  0  0  0  0  0  0  0  0
   12.6436  -16.6943   23.0957 C   0  0  0  0  0  0  0  0  0  0  0  0
   13.7219  -16.9052   22.0742 C   0  0  0  0  0  0  0  0  0  0  0  0
   13.4960  -17.4185   20.9632 O   0  0  0  0  0  0  0  0  0  0  0  0
   15.0201  -16.5177   22.3688 O   0  0  0  0  0  0  0  0  0  0  0  0
  2  1  1  1
  2 10  1  0
  3  2  1  0
  4  5  2  0
  4  3  1  0
  6  5  1  0
  7  6  2  0
  8  7  1  0
  8  9  2  0
  9  4  1  0
 10 11  2  0
 10 16  1  0
 13 12  1  6
 13 14  1  0
 15 13  1  0
 15 16  1  1
 17 15  1  0
 17 18  2  0
 19 17  1  0
 20 19  1  0
 20 21  1  0
 21 23  1  0
 22 21  2  0
M  END
$$$$
