FTG.pdb
     RDKit          3D

 23 23  0  0  1  0  0  0  0  0999 V2000
    5.8797  -18.2417   18.9751 N   0  0  0  0  0  0  0  0  0  0  0  0
    6.8332  -17.2501   19.3785 C   0  0  1  0  0  0  0  0  0  0  0  0
    6.1754  -15.8979   19.2841 C   0  0  0  0  0  0  0  0  0  0  0  0
    7.0725  -14.7852   19.5546 C   0  0  0  0  0  0  0  0  0  0  0  0
    6.7233  -13.8256   20.4838 C   0  0  0  0  0  0  0  0  0  0  0  0
    7.5351  -12.7440   20.7841 C   0  0  0  0  0  0  0  0  0  0  0  0
    8.7547  -12.6033   20.1326 C   0  0  0  0  0  0  0  0  0  0  0  0
    9.1314  -13.5470   19.1982 C   0  0  0  0  0  0  0  0  0  0  0  0
    8.3009  -14.6117   18.9220 C   0  0  0  0  0  0  0  0  0  0  0  0
    7.3049  -17.5117   20.7435 C   0  0  0  0  0  0  0  0  0  0  0  0
    6.4773  -17.6401   21.6989 O   0  0  0  0  0  0  0  0  0  0  0  0
    7.0752  -19.6639   22.3831 C   0  0  0  0  0  0  0  0  0  0  0  0
    8.5735  -19.6117   22.5324 C   0  0  1  0  0  0  0  0  0  0  0  0
    9.1962  -20.4313   21.6000 O   0  0  0  0  0  0  0  0  0  0  0  0
    9.1067  -18.2028   22.3750 C   0  0  2  0  0  0  0  0  0  0  0  0
    8.6792  -17.6379   21.0930 N   0  0  0  0  0  0  0  0  0  0  0  0
   10.5856  -18.1351   22.4405 C   0  0  0  0  0  0  0  0  0  0  0  0
   11.1997  -17.6436   21.4540 O   0  0  0  0  0  0  0  0  0  0  0  0
   11.3527  -18.5893   23.5464 N   0  0  0  0  0  0  0  0  0  0  0  0
   12.7873  -18.4060   23.5286 C   0  0  0  0  0  0  0  0  0  0  0  0
   13.4174  -19.0616   24.7218 C   0  0  0  0  0  0  0  0  0  0  0  0
   12.7436  -19.5498   25.6472 O   0  0  0  0  0  0  0  0  0  0  0  0
   14.7996  -19.1315   24.8059 O   0  0  0  0  0  0  0  0  0  0  0  0
  2  1  1  1
  2 10  1  0
  3  2  1  0
  4  5  2  0
  4  3  1  0
  6  5  1  0
  7  6  2  0
  8  7  1  0
  8  9  2  0
  9  4  1  0
 10 11  2  0
 10 16  1  0
 13 12  1  6
 13 14  1  0
 15 13  1  0
 15 16  1  6
 17 15  1  0
 17 18  2  0
 19 17  1  0
 20 19  1  0
 20 21  1  0
 21 23  1  0
 22 21  2  0
M  END
$$$$
