FTG.pdb
     RDKit          3D

 23 23  0  0  1  0  0  0  0  0999 V2000
    6.0295  -17.4918   24.9135 N   0  0  0  0  0  0  0  0  0  0  0  0
    7.0326  -16.4733   24.8065 C   0  0  1  0  0  0  0  0  0  0  0  0
    7.3394  -15.9665   26.1918 C   0  0  0  0  0  0  0  0  0  0  0  0
    7.1526  -14.5326   26.3503 C   0  0  0  0  0  0  0  0  0  0  0  0
    8.2405  -13.6839   26.3005 C   0  0  0  0  0  0  0  0  0  0  0  0
    8.1260  -12.3109   26.4446 C   0  0  0  0  0  0  0  0  0  0  0  0
    6.8719  -11.7474   26.6484 C   0  0  0  0  0  0  0  0  0  0  0  0
    5.7651  -12.5705   26.7029 C   0  0  0  0  0  0  0  0  0  0  0  0
    5.9127  -13.9329   26.5559 C   0  0  0  0  0  0  0  0  0  0  0  0
    8.2396  -17.0024   24.1604 C   0  0  0  0  0  0  0  0  0  0  0  0
    8.6452  -18.1790   24.4156 O   0  0  0  0  0  0  0  0  0  0  0  0
    8.7017  -17.2268   20.5279 C   0  0  0  0  0  0  0  0  0  0  0  0
   10.0118  -16.6783   21.0308 C   0  0  1  0  0  0  0  0  0  0  0  0
   10.1340  -15.3274   20.7323 O   0  0  0  0  0  0  0  0  0  0  0  0
   10.1624  -16.8618   22.5267 C   0  0  2  0  0  0  0  0  0  0  0  0
    9.0241  -16.2649   23.2291 N   0  0  0  0  0  0  0  0  0  0  0  0
   11.4050  -16.2555   23.0599 C   0  0  0  0  0  0  0  0  0  0  0  0
   11.4062  -15.0153   23.2916 O   0  0  0  0  0  0  0  0  0  0  0  0
   12.5936  -16.9863   23.3265 N   0  0  0  0  0  0  0  0  0  0  0  0
   13.7755  -16.2721   23.7565 C   0  0  0  0  0  0  0  0  0  0  0  0
   14.9084  -17.2251   23.9992 C   0  0  0  0  0  0  0  0  0  0  0  0
   14.7857  -18.4555   23.8586 O   0  0  0  0  0  0  0  0  0  0  0  0
   16.1404  -16.7272   24.3946 O   0  0  0  0  0  0  0  0  0  0  0  0
  2  1  1  1
  2 10  1  0
  3  2  1  0
  4  5  2  0
  4  3  1  0
  6  5  1  0
  7  6  2  0
  8  7  1  0
  8  9  2  0
  9  4  1  0
 10 11  2  0
 10 16  1  0
 13 12  1  1
 13 14  1  0
 15 13  1  0
 15 16  1  1
 17 15  1  0
 17 18  2  0
 19 17  1  0
 20 19  1  0
 20 21  1  0
 21 23  1  0
 22 21  2  0
M  END
$$$$
