FTG.pdb
     RDKit          3D

 23 23  0  0  1  0  0  0  0  0999 V2000
    6.7505  -16.3873   25.0663 N   0  0  0  0  0  0  0  0  0  0  0  0
    7.9043  -15.5902   24.7692 C   0  0  1  0  0  0  0  0  0  0  0  0
    8.2445  -14.7792   25.9926 C   0  0  0  0  0  0  0  0  0  0  0  0
    7.4791  -13.5485   26.1163 C   0  0  0  0  0  0  0  0  0  0  0  0
    6.5510  -13.4102   27.1291 C   0  0  0  0  0  0  0  0  0  0  0  0
    5.7925  -12.2634   27.2980 C   0  0  0  0  0  0  0  0  0  0  0  0
    5.9596  -11.1983   26.4209 C   0  0  0  0  0  0  0  0  0  0  0  0
    6.8802  -11.3069   25.3980 C   0  0  0  0  0  0  0  0  0  0  0  0
    7.6194  -12.4615   25.2571 C   0  0  0  0  0  0  0  0  0  0  0  0
    9.0320  -16.4413   24.3715 C   0  0  0  0  0  0  0  0  0  0  0  0
    9.1627  -17.6080   24.8571 O   0  0  0  0  0  0  0  0  0  0  0  0
    9.6665  -17.5843   21.0435 C   0  0  0  0  0  0  0  0  0  0  0  0
   11.0317  -17.1374   21.4983 C   0  0  1  0  0  0  0  0  0  0  0  0
   11.3955  -15.9451   20.8859 O   0  0  0  0  0  0  0  0  0  0  0  0
   11.0924  -16.9515   23.0002 C   0  0  2  0  0  0  0  0  0  0  0  0
   10.0339  -16.0409   23.4427 N   0  0  0  0  0  0  0  0  0  0  0  0
   12.3920  -16.4097   23.4623 C   0  0  0  0  0  0  0  0  0  0  0  0
   12.5375  -15.1566   23.4819 O   0  0  0  0  0  0  0  0  0  0  0  0
   13.4827  -17.2158   23.8848 N   0  0  0  0  0  0  0  0  0  0  0  0
   14.6983  -16.5732   24.3336 C   0  0  0  0  0  0  0  0  0  0  0  0
   15.7464  -16.6202   23.2612 C   0  0  0  0  0  0  0  0  0  0  0  0
   15.5275  -17.1058   22.1365 O   0  0  0  0  0  0  0  0  0  0  0  0
   17.0074  -16.1065   23.5227 O   0  0  0  0  0  0  0  0  0  0  0  0
  2  1  1  1
  2 10  1  0
  3  2  1  0
  4  5  2  0
  4  3  1  0
  6  5  1  0
  7  6  2  0
  8  7  1  0
  8  9  2  0
  9  4  1  0
 10 11  2  0
 10 16  1  0
 13 12  1  1
 13 14  1  0
 15 13  1  0
 15 16  1  6
 17 15  1  0
 17 18  2  0
 19 17  1  0
 20 19  1  0
 20 21  1  0
 21 23  1  0
 22 21  2  0
M  END
$$$$
