FTG.pdb
     RDKit          3D

 23 23  0  0  1  0  0  0  0  0999 V2000
    5.9051  -17.7811   24.9696 N   0  0  0  0  0  0  0  0  0  0  0  0
    6.7718  -16.6413   24.9027 C   0  0  1  0  0  0  0  0  0  0  0  0
    6.9675  -16.1154   26.3011 C   0  0  0  0  0  0  0  0  0  0  0  0
    7.0162  -14.6640   26.3842 C   0  0  0  0  0  0  0  0  0  0  0  0
    5.8610  -13.9235   26.2317 C   0  0  0  0  0  0  0  0  0  0  0  0
    5.8440  -12.5400   26.3004 C   0  0  0  0  0  0  0  0  0  0  0  0
    7.0298  -11.8528   26.5318 C   0  0  0  0  0  0  0  0  0  0  0  0
    8.2013  -12.5658   26.6884 C   0  0  0  0  0  0  0  0  0  0  0  0
    8.1845  -13.9420   26.6145 C   0  0  0  0  0  0  0  0  0  0  0  0
    8.0563  -17.0037   24.2922 C   0  0  0  0  0  0  0  0  0  0  0  0
    8.5729  -18.1447   24.5049 O   0  0  0  0  0  0  0  0  0  0  0  0
    8.5141  -17.4660   20.8761 C   0  0  0  0  0  0  0  0  0  0  0  0
    9.6998  -16.6015   21.2177 C   0  0  1  0  0  0  0  0  0  0  0  0
    9.5024  -15.2941   20.7926 O   0  0  0  0  0  0  0  0  0  0  0  0
    9.9801  -16.5922   22.7061 C   0  0  2  0  0  0  0  0  0  0  0  0
    8.7993  -16.1357   23.4428 N   0  0  0  0  0  0  0  0  0  0  0  0
   11.1203  -15.7195   23.0729 C   0  0  0  0  0  0  0  0  0  0  0  0
   10.8957  -14.4884   23.2329 O   0  0  0  0  0  0  0  0  0  0  0  0
   12.4497  -16.1856   23.2556 N   0  0  0  0  0  0  0  0  0  0  0  0
   13.5040  -15.2248   23.4950 C   0  0  0  0  0  0  0  0  0  0  0  0
   14.8235  -15.9196   23.6584 C   0  0  0  0  0  0  0  0  0  0  0  0
   15.0696  -17.0163   23.1241 O   0  0  0  0  0  0  0  0  0  0  0  0
   15.8109  -15.3269   24.4303 O   0  0  0  0  0  0  0  0  0  0  0  0
  2  1  1  1
  2 10  1  0
  3  2  1  0
  4  5  2  0
  4  3  1  0
  6  5  1  0
  7  6  2  0
  8  7  1  0
  8  9  2  0
  9  4  1  0
 10 11  2  0
 10 16  1  0
 13 12  1  1
 13 14  1  0
 15 13  1  0
 15 16  1  1
 17 15  1  0
 17 18  2  0
 19 17  1  0
 20 19  1  0
 20 21  1  0
 21 23  1  0
 22 21  2  0
M  END
$$$$
