FTG.pdb
     RDKit          3D

 23 23  0  0  1  0  0  0  0  0999 V2000
    6.8003  -15.9660   26.0184 N   0  0  0  0  0  0  0  0  0  0  0  0
    6.9163  -15.3873   24.7120 C   0  0  1  0  0  0  0  0  0  0  0  0
    7.5532  -14.0292   24.8530 C   0  0  0  0  0  0  0  0  0  0  0  0
    6.9861  -13.2194   25.9200 C   0  0  0  0  0  0  0  0  0  0  0  0
    7.7911  -12.7643   26.9452 C   0  0  0  0  0  0  0  0  0  0  0  0
    7.3093  -11.9902   27.9881 C   0  0  0  0  0  0  0  0  0  0  0  0
    5.9626  -11.6481   28.0196 C   0  0  0  0  0  0  0  0  0  0  0  0
    5.1325  -12.0885   27.0084 C   0  0  0  0  0  0  0  0  0  0  0  0
    5.6429  -12.8573   25.9848 C   0  0  0  0  0  0  0  0  0  0  0  0
    7.7110  -16.2525   23.8322 C   0  0  0  0  0  0  0  0  0  0  0  0
    7.2499  -17.3683   23.4363 O   0  0  0  0  0  0  0  0  0  0  0  0
    7.2868  -16.9683   21.3801 C   0  0  0  0  0  0  0  0  0  0  0  0
    8.6760  -16.5094   21.0197 C   0  0  1  0  0  0  0  0  0  0  0  0
    8.6609  -15.2079   20.5353 O   0  0  0  0  0  0  0  0  0  0  0  0
    9.6168  -16.5769   22.2047 C   0  0  2  0  0  0  0  0  0  0  0  0
    9.0158  -15.9217   23.3687 N   0  0  0  0  0  0  0  0  0  0  0  0
   10.9266  -15.9369   21.9385 C   0  0  0  0  0  0  0  0  0  0  0  0
   10.9408  -14.7011   21.6852 O   0  0  0  0  0  0  0  0  0  0  0  0
   12.1661  -16.6307   21.9519 N   0  0  0  0  0  0  0  0  0  0  0  0
   13.3107  -16.0112   22.5829 C   0  0  0  0  0  0  0  0  0  0  0  0
   14.5279  -16.8750   22.4315 C   0  0  0  0  0  0  0  0  0  0  0  0
   14.4562  -18.0807   22.1317 O   0  0  0  0  0  0  0  0  0  0  0  0
   15.7825  -16.3195   22.6305 O   0  0  0  0  0  0  0  0  0  0  0  0
  2  1  1  1
  2 10  1  0
  3  2  1  0
  4  5  2  0
  4  3  1  0
  6  5  1  0
  7  6  2  0
  8  7  1  0
  8  9  2  0
  9  4  1  0
 10 11  2  0
 10 16  1  0
 13 12  1  1
 13 14  1  0
 15 13  1  0
 15 16  1  1
 17 15  1  0
 17 18  2  0
 19 17  1  0
 20 19  1  0
 20 21  1  0
 21 23  1  0
 22 21  2  0
M  END
$$$$
