FTG.pdb
     RDKit          3D

 23 23  0  0  1  0  0  0  0  0999 V2000
    6.1065  -17.3055   25.7725 N   0  0  0  0  0  0  0  0  0  0  0  0
    6.7367  -16.1450   25.2148 C   0  0  1  0  0  0  0  0  0  0  0  0
    7.4921  -15.4447   26.3144 C   0  0  0  0  0  0  0  0  0  0  0  0
    7.1221  -14.0486   26.4878 C   0  0  0  0  0  0  0  0  0  0  0  0
    8.0612  -13.0552   26.2946 C   0  0  0  0  0  0  0  0  0  0  0  0
    7.7691  -11.7094   26.4447 C   0  0  0  0  0  0  0  0  0  0  0  0
    6.4826  -11.3254   26.8044 C   0  0  0  0  0  0  0  0  0  0  0  0
    5.5217  -12.2961   27.0045 C   0  0  0  0  0  0  0  0  0  0  0  0
    5.8445  -13.6267   26.8472 C   0  0  0  0  0  0  0  0  0  0  0  0
    7.6349  -16.5220   24.1168 C   0  0  0  0  0  0  0  0  0  0  0  0
    8.1729  -17.6726   24.0892 O   0  0  0  0  0  0  0  0  0  0  0  0
    6.8464  -15.5766   20.4786 C   0  0  0  0  0  0  0  0  0  0  0  0
    8.3432  -15.4836   20.6245 C   0  0  1  0  0  0  0  0  0  0  0  0
    8.7687  -14.1629   20.5641 O   0  0  0  0  0  0  0  0  0  0  0  0
    8.8210  -16.0898   21.9277 C   0  0  2  0  0  0  0  0  0  0  0  0
    7.9629  -15.6584   23.0336 N   0  0  0  0  0  0  0  0  0  0  0  0
   10.2187  -15.7231   22.2562 C   0  0  0  0  0  0  0  0  0  0  0  0
   10.4116  -14.9240   23.2133 O   0  0  0  0  0  0  0  0  0  0  0  0
   11.3535  -16.2173   21.5592 N   0  0  0  0  0  0  0  0  0  0  0  0
   12.6652  -15.7189   21.9103 C   0  0  0  0  0  0  0  0  0  0  0  0
   13.3886  -16.7048   22.7794 C   0  0  0  0  0  0  0  0  0  0  0  0
   14.5912  -16.9799   22.6163 O   0  0  0  0  0  0  0  0  0  0  0  0
   12.7014  -17.3374   23.8041 O   0  0  0  0  0  0  0  0  0  0  0  0
  2  1  1  1
  2 10  1  0
  3  2  1  0
  4  5  2  0
  4  3  1  0
  6  5  1  0
  7  6  2  0
  8  7  1  0
  8  9  2  0
  9  4  1  0
 10 11  2  0
 10 16  1  0
 13 12  1  1
 13 14  1  0
 15 13  1  0
 15 16  1  1
 17 15  1  0
 17 18  2  0
 19 17  1  0
 20 19  1  0
 20 21  1  0
 21 23  1  0
 22 21  2  0
M  END
$$$$
