FTG.pdb
     RDKit          3D

 23 23  0  0  1  0  0  0  0  0999 V2000
    6.0275  -17.4722   25.8593 N   0  0  0  0  0  0  0  0  0  0  0  0
    6.6264  -16.2783   25.3389 C   0  0  1  0  0  0  0  0  0  0  0  0
    7.4782  -15.6678   26.4215 C   0  0  0  0  0  0  0  0  0  0  0  0
    7.2404  -14.2479   26.6290 C   0  0  0  0  0  0  0  0  0  0  0  0
    8.2992  -13.3996   26.8851 C   0  0  0  0  0  0  0  0  0  0  0  0
    8.1359  -12.0395   27.0911 C   0  0  0  0  0  0  0  0  0  0  0  0
    6.8606  -11.4891   27.0413 C   0  0  0  0  0  0  0  0  0  0  0  0
    5.7819  -12.3121   26.7871 C   0  0  0  0  0  0  0  0  0  0  0  0
    5.9780  -13.6615   26.5866 C   0  0  0  0  0  0  0  0  0  0  0  0
    7.4272  -16.5793   24.1462 C   0  0  0  0  0  0  0  0  0  0  0  0
    8.0482  -17.6832   24.0475 O   0  0  0  0  0  0  0  0  0  0  0  0
    6.4676  -15.0447   20.6399 C   0  0  0  0  0  0  0  0  0  0  0  0
    7.9642  -15.2148   20.6783 C   0  0  1  0  0  0  0  0  0  0  0  0
    8.6058  -13.9831   20.6898 O   0  0  0  0  0  0  0  0  0  0  0  0
    8.4103  -16.0073   21.8896 C   0  0  2  0  0  0  0  0  0  0  0  0
    7.5666  -15.6892   23.0439 N   0  0  0  0  0  0  0  0  0  0  0  0
    9.8209  -15.7470   22.2616 C   0  0  0  0  0  0  0  0  0  0  0  0
   10.0552  -14.8135   23.0774 O   0  0  0  0  0  0  0  0  0  0  0  0
   10.9242  -16.4851   21.7559 N   0  0  0  0  0  0  0  0  0  0  0  0
   12.2621  -16.1149   22.1620 C   0  0  0  0  0  0  0  0  0  0  0  0
   13.2791  -16.9794   21.4773 C   0  0  0  0  0  0  0  0  0  0  0  0
   12.9585  -17.9420   20.7566 O   0  0  0  0  0  0  0  0  0  0  0  0
   14.6274  -16.7043   21.6470 O   0  0  0  0  0  0  0  0  0  0  0  0
  2  1  1  1
  2 10  1  0
  3  2  1  0
  4  5  2  0
  4  3  1  0
  6  5  1  0
  7  6  2  0
  8  7  1  0
  8  9  2  0
  9  4  1  0
 10 11  2  0
 10 16  1  0
 13 12  1  1
 13 14  1  0
 15 13  1  0
 15 16  1  1
 17 15  1  0
 17 18  2  0
 19 17  1  0
 20 19  1  0
 20 21  1  0
 21 23  1  0
 22 21  2  0
M  END
$$$$
