NVR.pdb
     RDKit          3D

 27 26  0  0  1  0  0  0  0  0999 V2000
   10.4154  -18.4924   14.5902 N   0  0  0  0  0  0  0  0  0  0  0  0
   10.2986  -17.1263   14.2688 C   0  0  0  0  0  0  0  0  0  0  0  0
   10.8762  -16.7129   13.2306 O   0  0  0  0  0  0  0  0  0  0  0  0
    9.5360  -16.1517   15.0831 C   0  0  0  0  0  0  0  0  0  0  0  0
    9.0165  -16.8000   16.3477 C   0  0  2  0  0  0  0  0  0  0  0  0
    7.6360  -17.1142   16.1216 N   0  0  0  0  0  0  0  0  0  0  0  0
    9.2956  -16.0258   17.5526 C   0  0  0  0  0  0  0  0  0  0  0  0
   10.4066  -16.1922   18.1248 O   0  0  0  0  0  0  0  0  0  0  0  0
    8.2396  -12.6190   21.0427 C   0  0  0  0  0  0  0  0  0  0  0  0
    7.7691  -13.3679   19.7974 C   0  0  2  0  0  0  0  0  0  0  0  0
    6.3977  -13.9209   19.9995 C   0  0  0  0  0  0  0  0  0  0  0  0
    8.7905  -14.4063   19.3855 C   0  0  2  0  0  0  0  0  0  0  0  0
    8.4199  -15.0818   18.1590 N   0  0  0  0  0  0  0  0  0  0  0  0
    8.9186  -15.3613   20.5156 C   0  0  0  0  0  0  0  0  0  0  0  0
    7.9985  -16.2333   20.6570 O   0  0  0  0  0  0  0  0  0  0  0  0
   15.2856  -20.4534   23.7123 N   0  0  0  0  0  0  0  0  0  0  0  0
   14.0774  -21.0143   23.1676 C   0  0  0  0  0  0  0  0  0  0  0  0
   14.0478  -22.2383   22.7921 N   0  0  0  0  0  0  0  0  0  0  0  0
   12.9024  -20.2308   23.0309 N   0  0  0  0  0  0  0  0  0  0  0  0
   12.7979  -18.8458   23.3150 C   0  0  0  0  0  0  0  0  0  0  0  0
   11.3998  -18.3357   23.1800 C   0  0  0  0  0  0  0  0  0  0  0  0
   11.2633  -17.2671   22.1283 C   0  0  0  0  0  0  0  0  0  0  0  0
   10.1865  -16.3047   22.4743 C   0  0  2  0  0  0  0  0  0  0  0  0
    9.9972  -15.3165   21.3950 N   0  0  0  0  0  0  0  0  0  0  0  0
   10.3525  -15.5999   23.7647 C   0  0  0  0  0  0  0  0  0  0  0  0
   10.5412  -14.3905   23.9241 O   0  0  0  0  0  0  0  0  0  0  0  0
   10.2922  -16.3708   24.9422 O   0  0  0  0  0  0  0  0  0  0  0  0
  2  3  2  0
  2  1  1  0
  4  2  1  0
  5  4  1  0
  5  6  1  6
  7  5  1  0
  8  7  2  0
 10  9  1  1
 10 11  1  0
 10 12  1  0
 12 13  1  6
 13  7  1  0
 14 15  2  0
 14 12  1  0
 17 16  1  0
 17 18  2  0
 19 17  1  0
 20 19  1  0
 21 20  1  0
 23 22  1  6
 22 21  1  0
 23 24  1  0
 24 14  1  0
 25 23  1  0
 26 25  2  0
 27 25  1  0
M  END
$$$$
