NVR.pdb
     RDKit          3D

 27 26  0  0  1  0  0  0  0  0999 V2000
    5.9825  -19.1251   16.7723 N   0  0  0  0  0  0  0  0  0  0  0  0
    5.6231  -19.2071   18.1315 C   0  0  0  0  0  0  0  0  0  0  0  0
    4.7085  -20.0087   18.4527 O   0  0  0  0  0  0  0  0  0  0  0  0
    6.2602  -18.4039   19.2008 C   0  0  0  0  0  0  0  0  0  0  0  0
    7.2582  -17.4284   18.6162 C   0  0  2  0  0  0  0  0  0  0  0  0
    8.0764  -18.1650   17.6979 N   0  0  0  0  0  0  0  0  0  0  0  0
    7.9805  -16.6629   19.6269 C   0  0  0  0  0  0  0  0  0  0  0  0
    9.0433  -17.1505   20.0982 O   0  0  0  0  0  0  0  0  0  0  0  0
    6.8461  -12.9977   22.0660 C   0  0  0  0  0  0  0  0  0  0  0  0
    8.1009  -13.2470   21.2315 C   0  0  2  0  0  0  0  0  0  0  0  0
    7.9907  -12.5826   19.8996 C   0  0  0  0  0  0  0  0  0  0  0  0
    8.3985  -14.7289   21.1508 C   0  0  2  0  0  0  0  0  0  0  0  0
    7.5964  -15.3940   20.1447 N   0  0  0  0  0  0  0  0  0  0  0  0
    8.1551  -15.2946   22.5023 C   0  0  0  0  0  0  0  0  0  0  0  0
    6.9566  -15.2838   22.9383 O   0  0  0  0  0  0  0  0  0  0  0  0
    7.1919  -22.1338   25.2115 N   0  0  0  0  0  0  0  0  0  0  0  0
    6.2474  -21.5029   24.3278 C   0  0  0  0  0  0  0  0  0  0  0  0
    5.0515  -21.9520   24.2365 N   0  0  0  0  0  0  0  0  0  0  0  0
    6.6162  -20.3815   23.5407 N   0  0  0  0  0  0  0  0  0  0  0  0
    7.9100  -19.8048   23.4832 C   0  0  0  0  0  0  0  0  0  0  0  0
    7.8851  -18.3201   23.6505 C   0  0  0  0  0  0  0  0  0  0  0  0
    8.9085  -17.8226   24.6363 C   0  0  0  0  0  0  0  0  0  0  0  0
    8.9776  -16.3392   24.6393 C   0  0  2  0  0  0  0  0  0  0  0  0
    9.1882  -15.8196   23.2744 N   0  0  0  0  0  0  0  0  0  0  0  0
    9.9823  -15.7500   25.5518 C   0  0  0  0  0  0  0  0  0  0  0  0
   10.9895  -15.1150   25.2265 O   0  0  0  0  0  0  0  0  0  0  0  0
    9.7866  -15.9209   26.9363 O   0  0  0  0  0  0  0  0  0  0  0  0
  2  3  2  0
  2  1  1  0
  4  2  1  0
  5  4  1  0
  5  6  1  1
  7  5  1  0
  8  7  2  0
 10  9  1  6
 10 11  1  0
 10 12  1  0
 12 13  1  6
 13  7  1  0
 14 15  2  0
 14 12  1  0
 17 16  1  0
 17 18  2  0
 19 17  1  0
 20 19  1  0
 21 20  1  0
 23 22  1  6
 22 21  1  0
 23 24  1  0
 24 14  1  0
 25 23  1  0
 26 25  2  0
 27 25  1  0
M  END
$$$$
