NVR.pdb
     RDKit          3D

 27 26  0  0  1  0  0  0  0  0999 V2000
    6.9902  -18.9016   16.4732 N   0  0  0  0  0  0  0  0  0  0  0  0
    7.8177  -19.4710   17.4603 C   0  0  0  0  0  0  0  0  0  0  0  0
    7.6797  -20.6959   17.7112 O   0  0  0  0  0  0  0  0  0  0  0  0
    8.8384  -18.7099   18.2174 C   0  0  0  0  0  0  0  0  0  0  0  0
    8.8283  -17.2517   17.8141 C   0  0  2  0  0  0  0  0  0  0  0  0
    9.6045  -17.1430   16.6137 N   0  0  0  0  0  0  0  0  0  0  0  0
    9.2120  -16.3490   18.8944 C   0  0  0  0  0  0  0  0  0  0  0  0
   10.4399  -16.1405   19.0901 O   0  0  0  0  0  0  0  0  0  0  0  0
    6.5320  -14.3048   21.7009 C   0  0  0  0  0  0  0  0  0  0  0  0
    7.8925  -13.7638   21.2657 C   0  0  2  0  0  0  0  0  0  0  0  0
    7.7351  -12.7373   20.1938 C   0  0  0  0  0  0  0  0  0  0  0  0
    8.8196  -14.8999   20.8904 C   0  0  2  0  0  0  0  0  0  0  0  0
    8.3192  -15.6663   19.7677 N   0  0  0  0  0  0  0  0  0  0  0  0
    8.9797  -15.7470   22.0996 C   0  0  0  0  0  0  0  0  0  0  0  0
    8.1808  -16.7315   22.2390 O   0  0  0  0  0  0  0  0  0  0  0  0
   16.8658  -15.7225   23.4281 N   0  0  0  0  0  0  0  0  0  0  0  0
   16.1097  -16.2086   22.3042 C   0  0  0  0  0  0  0  0  0  0  0  0
   16.6781  -16.3735   21.1685 N   0  0  0  0  0  0  0  0  0  0  0  0
   14.7285  -16.5100   22.4253 N   0  0  0  0  0  0  0  0  0  0  0  0
   13.9411  -16.3134   23.5877 C   0  0  0  0  0  0  0  0  0  0  0  0
   12.5097  -16.6905   23.3824 C   0  0  0  0  0  0  0  0  0  0  0  0
   11.6436  -16.3801   24.5741 C   0  0  0  0  0  0  0  0  0  0  0  0
   10.2046  -16.3726   24.2073 C   0  0  2  0  0  0  0  0  0  0  0  0
    9.9606  -15.4866   23.0529 N   0  0  0  0  0  0  0  0  0  0  0  0
    9.2702  -16.0262   25.3011 C   0  0  0  0  0  0  0  0  0  0  0  0
    9.0633  -16.6802   26.3273 O   0  0  0  0  0  0  0  0  0  0  0  0
    8.5329  -14.8325   25.1764 O   0  0  0  0  0  0  0  0  0  0  0  0
  2  3  2  0
  2  1  1  0
  4  2  1  0
  5  4  1  0
  5  6  1  6
  7  5  1  0
  8  7  2  0
 10  9  1  6
 10 11  1  0
 10 12  1  0
 12 13  1  6
 13  7  1  0
 14 15  2  0
 14 12  1  0
 17 16  1  0
 17 18  2  0
 19 17  1  0
 20 19  1  0
 21 20  1  0
 23 22  1  1
 22 21  1  0
 23 24  1  0
 24 14  1  0
 25 23  1  0
 26 25  2  0
 27 25  1  0
M  END
$$$$
