NVR.pdb
     RDKit          3D

 27 26  0  0  1  0  0  0  0  0999 V2000
    5.6272  -17.1215   20.0611 N   0  0  0  0  0  0  0  0  0  0  0  0
    6.7960  -17.7073   20.5846 C   0  0  0  0  0  0  0  0  0  0  0  0
    7.2242  -18.7576   20.0407 O   0  0  0  0  0  0  0  0  0  0  0  0
    7.5467  -17.1574   21.7372 C   0  0  0  0  0  0  0  0  0  0  0  0
    7.6243  -15.6485   21.6557 C   0  0  2  0  0  0  0  0  0  0  0  0
    8.3485  -15.3295   20.4602 N   0  0  0  0  0  0  0  0  0  0  0  0
    8.1239  -15.0271   22.8778 C   0  0  0  0  0  0  0  0  0  0  0  0
    9.2271  -15.4242   23.3411 O   0  0  0  0  0  0  0  0  0  0  0  0
    7.9666  -11.7220   26.6072 C   0  0  0  0  0  0  0  0  0  0  0  0
    7.2207  -12.3746   25.4450 C   0  0  2  0  0  0  0  0  0  0  0  0
    5.8501  -12.7913   25.8636 C   0  0  0  0  0  0  0  0  0  0  0  0
    8.0439  -13.4967   24.8498 C   0  0  2  0  0  0  0  0  0  0  0  0
    7.4760  -13.9959   23.6143 N   0  0  0  0  0  0  0  0  0  0  0  0
    8.1313  -14.5639   25.8789 C   0  0  0  0  0  0  0  0  0  0  0  0
    7.7675  -15.7389   25.5414 O   0  0  0  0  0  0  0  0  0  0  0  0
   13.3857  -20.2113   28.2169 N   0  0  0  0  0  0  0  0  0  0  0  0
   12.1955  -20.3215   27.4154 C   0  0  0  0  0  0  0  0  0  0  0  0
   11.8153  -21.4646   26.9806 N   0  0  0  0  0  0  0  0  0  0  0  0
   11.4243  -19.1766   27.0872 N   0  0  0  0  0  0  0  0  0  0  0  0
   11.9421  -17.8868   26.8079 C   0  0  0  0  0  0  0  0  0  0  0  0
   11.3536  -16.8294   27.6846 C   0  0  0  0  0  0  0  0  0  0  0  0
   10.4053  -15.9187   26.9512 C   0  0  0  0  0  0  0  0  0  0  0  0
    9.4917  -15.2214   27.8917 C   0  0  2  0  0  0  0  0  0  0  0  0
    8.5909  -14.3043   27.1674 N   0  0  0  0  0  0  0  0  0  0  0  0
   10.1510  -14.4934   28.9983 C   0  0  0  0  0  0  0  0  0  0  0  0
   10.2370  -14.8614   30.1735 O   0  0  0  0  0  0  0  0  0  0  0  0
   10.7468  -13.2524   28.6999 O   0  0  0  0  0  0  0  0  0  0  0  0
  2  3  2  0
  2  1  1  0
  4  2  1  0
  5  4  1  0
  5  6  1  6
  7  5  1  0
  8  7  2  0
 10  9  1  1
 10 11  1  0
 10 12  1  0
 12 13  1  6
 13  7  1  0
 14 15  2  0
 14 12  1  0
 17 16  1  0
 17 18  2  0
 19 17  1  0
 20 19  1  0
 21 20  1  0
 23 22  1  6
 22 21  1  0
 23 24  1  0
 24 14  1  0
 25 23  1  0
 26 25  2  0
 27 25  1  0
M  END
$$$$
