NVR.pdb
     RDKit          3D

 27 26  0  0  1  0  0  0  0  0999 V2000
    6.7017  -18.3891   15.6239 N   0  0  0  0  0  0  0  0  0  0  0  0
    7.0731  -19.1017   16.7805 C   0  0  0  0  0  0  0  0  0  0  0  0
    6.6132  -20.2628   16.9312 O   0  0  0  0  0  0  0  0  0  0  0  0
    7.9722  -18.5615   17.8265 C   0  0  0  0  0  0  0  0  0  0  0  0
    8.3029  -17.1107   17.5522 C   0  0  2  0  0  0  0  0  0  0  0  0
    9.2161  -17.0902   16.4472 N   0  0  0  0  0  0  0  0  0  0  0  0
    8.7361  -16.3807   18.7390 C   0  0  0  0  0  0  0  0  0  0  0  0
    9.9313  -16.5129   19.1178 O   0  0  0  0  0  0  0  0  0  0  0  0
    6.3162  -13.7923   21.4069 C   0  0  0  0  0  0  0  0  0  0  0  0
    7.7784  -13.5711   21.0250 C   0  0  2  0  0  0  0  0  0  0  0  0
    7.8915  -12.5733   19.9209 C   0  0  0  0  0  0  0  0  0  0  0  0
    8.4537  -14.8920   20.7244 C   0  0  2  0  0  0  0  0  0  0  0  0
    7.9265  -15.5164   19.5284 N   0  0  0  0  0  0  0  0  0  0  0  0
    8.2665  -15.7566   21.9174 C   0  0  0  0  0  0  0  0  0  0  0  0
    7.3491  -16.6412   21.8656 O   0  0  0  0  0  0  0  0  0  0  0  0
   14.7965  -20.0356   20.1834 N   0  0  0  0  0  0  0  0  0  0  0  0
   14.5642  -20.3932   21.5579 C   0  0  0  0  0  0  0  0  0  0  0  0
   15.1757  -21.3922   22.0757 N   0  0  0  0  0  0  0  0  0  0  0  0
   13.6574  -19.6570   22.3635 N   0  0  0  0  0  0  0  0  0  0  0  0
   12.7982  -18.6264   21.9058 C   0  0  0  0  0  0  0  0  0  0  0  0
   11.8388  -18.1696   22.9564 C   0  0  0  0  0  0  0  0  0  0  0  0
   10.8761  -17.1246   22.4586 C   0  0  0  0  0  0  0  0  0  0  0  0
    9.9563  -16.6815   23.5370 C   0  0  2  0  0  0  0  0  0  0  0  0
    9.0558  -15.6162   23.0559 N   0  0  0  0  0  0  0  0  0  0  0  0
   10.6086  -16.2465   24.7919 C   0  0  0  0  0  0  0  0  0  0  0  0
   10.9833  -15.1035   25.0689 O   0  0  0  0  0  0  0  0  0  0  0  0
   10.8334  -17.2219   25.7830 O   0  0  0  0  0  0  0  0  0  0  0  0
  2  3  2  0
  2  1  1  0
  4  2  1  0
  5  4  1  0
  5  6  1  6
  7  5  1  0
  8  7  2  0
 10  9  1  6
 10 11  1  0
 10 12  1  0
 12 13  1  6
 13  7  1  0
 14 15  2  0
 14 12  1  0
 17 16  1  0
 17 18  2  0
 19 17  1  0
 20 19  1  0
 21 20  1  0
 23 22  1  6
 22 21  1  0
 23 24  1  0
 24 14  1  0
 25 23  1  0
 26 25  2  0
 27 25  1  0
M  END
$$$$
