NVR.pdb
     RDKit          3D

 27 26  0  0  1  0  0  0  0  0999 V2000
    7.0840  -18.5303   15.2546 N   0  0  0  0  0  0  0  0  0  0  0  0
    7.4704  -19.2481   16.4030 C   0  0  0  0  0  0  0  0  0  0  0  0
    7.1186  -20.4525   16.4921 O   0  0  0  0  0  0  0  0  0  0  0  0
    8.2655  -18.6653   17.5087 C   0  0  0  0  0  0  0  0  0  0  0  0
    8.4460  -17.1760   17.3122 C   0  0  2  0  0  0  0  0  0  0  0  0
    9.3153  -17.0038   16.1852 N   0  0  0  0  0  0  0  0  0  0  0  0
    8.8468  -16.4755   18.5278 C   0  0  0  0  0  0  0  0  0  0  0  0
   10.0456  -16.5738   18.9055 O   0  0  0  0  0  0  0  0  0  0  0  0
    6.3209  -14.1769   21.3888 C   0  0  0  0  0  0  0  0  0  0  0  0
    7.7330  -13.8156   20.9324 C   0  0  2  0  0  0  0  0  0  0  0  0
    7.6926  -12.7874   19.8514 C   0  0  0  0  0  0  0  0  0  0  0  0
    8.5050  -15.0628   20.5589 C   0  0  2  0  0  0  0  0  0  0  0  0
    8.0012  -15.6757   19.3470 N   0  0  0  0  0  0  0  0  0  0  0  0
    8.4168  -15.9905   21.7152 C   0  0  0  0  0  0  0  0  0  0  0  0
    7.7713  -17.0781   21.5499 O   0  0  0  0  0  0  0  0  0  0  0  0
   15.9699  -16.0205   23.2327 N   0  0  0  0  0  0  0  0  0  0  0  0
   15.8651  -17.4545   23.1701 C   0  0  0  0  0  0  0  0  0  0  0  0
   16.8464  -18.1888   23.5416 N   0  0  0  0  0  0  0  0  0  0  0  0
   14.6849  -18.0830   22.6958 N   0  0  0  0  0  0  0  0  0  0  0  0
   13.5667  -17.4182   22.1325 C   0  0  0  0  0  0  0  0  0  0  0  0
   12.4119  -17.3350   23.0773 C   0  0  0  0  0  0  0  0  0  0  0  0
   11.2272  -16.6110   22.4950 C   0  0  0  0  0  0  0  0  0  0  0  0
   10.1326  -16.4809   23.4900 C   0  0  2  0  0  0  0  0  0  0  0  0
    9.0115  -15.6954   22.9392 N   0  0  0  0  0  0  0  0  0  0  0  0
   10.5276  -15.9235   24.8024 C   0  0  0  0  0  0  0  0  0  0  0  0
   10.5579  -14.7301   25.1164 O   0  0  0  0  0  0  0  0  0  0  0  0
   10.9114  -16.8314   25.8087 O   0  0  0  0  0  0  0  0  0  0  0  0
  2  3  2  0
  2  1  1  0
  4  2  1  0
  5  4  1  0
  5  6  1  6
  7  5  1  0
  8  7  2  0
 10  9  1  6
 10 11  1  0
 10 12  1  0
 12 13  1  6
 13  7  1  0
 14 15  2  0
 14 12  1  0
 17 16  1  0
 17 18  2  0
 19 17  1  0
 20 19  1  0
 21 20  1  0
 23 22  1  6
 22 21  1  0
 23 24  1  0
 24 14  1  0
 25 23  1  0
 26 25  2  0
 27 25  1  0
M  END
$$$$
