NVR.pdb
     RDKit          3D

 27 26  0  0  1  0  0  0  0  0999 V2000
    8.3607  -18.4635   15.0598 N   0  0  0  0  0  0  0  0  0  0  0  0
    9.4196  -17.5353   15.0387 C   0  0  0  0  0  0  0  0  0  0  0  0
   10.1311  -17.4752   14.0031 O   0  0  0  0  0  0  0  0  0  0  0  0
    9.7415  -16.6287   16.1652 C   0  0  0  0  0  0  0  0  0  0  0  0
    9.0424  -17.0762   17.4302 C   0  0  2  0  0  0  0  0  0  0  0  0
    7.6601  -17.2668   17.1006 N   0  0  0  0  0  0  0  0  0  0  0  0
    9.3017  -16.2078   18.5738 C   0  0  0  0  0  0  0  0  0  0  0  0
   10.4790  -16.1450   19.0204 O   0  0  0  0  0  0  0  0  0  0  0  0
    6.4280  -13.9647   21.2076 C   0  0  0  0  0  0  0  0  0  0  0  0
    7.7620  -13.4715   20.6508 C   0  0  2  0  0  0  0  0  0  0  0  0
    7.5490  -12.6205   19.4434 C   0  0  0  0  0  0  0  0  0  0  0  0
    8.7023  -14.6346   20.4186 C   0  0  2  0  0  0  0  0  0  0  0  0
    8.3376  -15.4081   19.2495 N   0  0  0  0  0  0  0  0  0  0  0  0
    8.6780  -15.4649   21.6498 C   0  0  0  0  0  0  0  0  0  0  0  0
    7.7106  -16.2845   21.7885 O   0  0  0  0  0  0  0  0  0  0  0  0
   10.3931  -22.4422   21.9129 N   0  0  0  0  0  0  0  0  0  0  0  0
   11.5864  -22.1867   22.6758 C   0  0  0  0  0  0  0  0  0  0  0  0
   12.0484  -23.0811   23.4675 N   0  0  0  0  0  0  0  0  0  0  0  0
   12.2706  -20.9480   22.5733 N   0  0  0  0  0  0  0  0  0  0  0  0
   11.7698  -19.7794   21.9461 C   0  0  0  0  0  0  0  0  0  0  0  0
   11.2719  -18.7690   22.9280 C   0  0  0  0  0  0  0  0  0  0  0  0
   10.6907  -17.5463   22.2693 C   0  0  0  0  0  0  0  0  0  0  0  0
   10.2687  -16.5403   23.2769 C   0  0  2  0  0  0  0  0  0  0  0  0
    9.6678  -15.3615   22.6237 N   0  0  0  0  0  0  0  0  0  0  0  0
   11.3228  -16.0994   24.2170 C   0  0  0  0  0  0  0  0  0  0  0  0
   11.8009  -14.9650   24.3076 O   0  0  0  0  0  0  0  0  0  0  0  0
   11.8464  -17.0576   25.1069 O   0  0  0  0  0  0  0  0  0  0  0  0
  2  3  2  0
  2  1  1  0
  4  2  1  0
  5  4  1  0
  5  6  1  6
  7  5  1  0
  8  7  2  0
 10  9  1  6
 10 11  1  0
 10 12  1  0
 12 13  1  6
 13  7  1  0
 14 15  2  0
 14 12  1  0
 17 16  1  0
 17 18  2  0
 19 17  1  0
 20 19  1  0
 21 20  1  0
 23 22  1  6
 22 21  1  0
 23 24  1  0
 24 14  1  0
 25 23  1  0
 26 25  2  0
 27 25  1  0
M  END
$$$$
