NVR.pdb
     RDKit          3D

 27 26  0  0  1  0  0  0  0  0999 V2000
    8.0647  -17.7057   14.0602 N   0  0  0  0  0  0  0  0  0  0  0  0
    8.0976  -16.3047   13.9204 C   0  0  0  0  0  0  0  0  0  0  0  0
    7.8553  -15.8192   12.7856 O   0  0  0  0  0  0  0  0  0  0  0  0
    8.4011  -15.3739   15.0321 C   0  0  0  0  0  0  0  0  0  0  0  0
    8.8337  -16.1353   16.2660 C   0  0  2  0  0  0  0  0  0  0  0  0
    7.8101  -17.0998   16.5441 N   0  0  0  0  0  0  0  0  0  0  0  0
    9.2015  -15.2698   17.3816 C   0  0  0  0  0  0  0  0  0  0  0  0
   10.1921  -14.5028   17.2405 O   0  0  0  0  0  0  0  0  0  0  0  0
    6.8784  -14.2347   20.9304 C   0  0  0  0  0  0  0  0  0  0  0  0
    7.9963  -13.4375   20.2613 C   0  0  2  0  0  0  0  0  0  0  0  0
    7.4390  -12.4904   19.2514 C   0  0  0  0  0  0  0  0  0  0  0  0
    9.0526  -14.3686   19.7061 C   0  0  2  0  0  0  0  0  0  0  0  0
    8.5396  -15.2042   18.6399 N   0  0  0  0  0  0  0  0  0  0  0  0
    9.5540  -15.1830   20.8424 C   0  0  0  0  0  0  0  0  0  0  0  0
    8.9643  -16.2887   21.0799 O   0  0  0  0  0  0  0  0  0  0  0  0
   17.7101  -14.2297   19.7024 N   0  0  0  0  0  0  0  0  0  0  0  0
   17.4283  -14.0064   21.0959 C   0  0  0  0  0  0  0  0  0  0  0  0
   18.2501  -13.3438   21.8211 N   0  0  0  0  0  0  0  0  0  0  0  0
   16.2466  -14.5139   21.6951 N   0  0  0  0  0  0  0  0  0  0  0  0
   15.4082  -15.5156   21.1443 C   0  0  0  0  0  0  0  0  0  0  0  0
   14.2326  -15.8229   22.0142 C   0  0  0  0  0  0  0  0  0  0  0  0
   13.0562  -14.9205   21.7525 C   0  0  0  0  0  0  0  0  0  0  0  0
   11.7715  -15.6413   21.9408 C   0  0  2  0  0  0  0  0  0  0  0  0
   10.6261  -14.7658   21.6268 N   0  0  0  0  0  0  0  0  0  0  0  0
   11.5739  -16.2533   23.2733 C   0  0  0  0  0  0  0  0  0  0  0  0
   10.7713  -15.8907   24.1382 O   0  0  0  0  0  0  0  0  0  0  0  0
   12.3739  -17.3637   23.6070 O   0  0  0  0  0  0  0  0  0  0  0  0
  2  3  2  0
  2  1  1  0
  4  2  1  0
  5  4  1  0
  5  6  1  1
  7  5  1  0
  8  7  2  0
 10  9  1  6
 10 11  1  0
 10 12  1  0
 12 13  1  6
 13  7  1  0
 14 15  2  0
 14 12  1  0
 17 16  1  0
 17 18  2  0
 19 17  1  0
 20 19  1  0
 21 20  1  0
 23 22  1  1
 22 21  1  0
 23 24  1  0
 24 14  1  0
 25 23  1  0
 26 25  2  0
 27 25  1  0
M  END
$$$$
