QLC.pdb
     RDKit          3D

 24 23  0  0  1  0  0  0  0  0999 V2000
   11.1855  -17.5245   15.7717 N   0  0  0  0  0  0  0  0  0  0  0  0
   12.2592  -17.0754   16.6059 C   0  0  0  0  0  0  0  0  0  0  0  0
   13.2692  -16.6429   16.0352 O   0  0  0  0  0  0  0  0  0  0  0  0
   12.1180  -17.1425   18.0448 C   0  0  0  0  0  0  0  0  0  0  0  0
   10.8444  -17.7537   18.5475 C   0  0  0  0  0  0  0  0  0  0  0  0
   10.7237  -17.9160   20.0188 C   0  0  2  0  0  0  0  0  0  0  0  0
    9.7780  -18.8920   20.4799 N   0  0  0  0  0  0  0  0  0  0  0  0
   10.5741  -16.6183   20.7338 C   0  0  0  0  0  0  0  0  0  0  0  0
   11.6275  -16.0066   21.0419 O   0  0  0  0  0  0  0  0  0  0  0  0
    8.9743  -13.2352   19.0136 C   0  0  0  0  0  0  0  0  0  0  0  0
    8.1580  -12.9206   20.2362 C   0  0  1  0  0  0  0  0  0  0  0  0
    6.7636  -12.4951   19.7430 C   0  0  0  0  0  0  0  0  0  0  0  0
    7.9351  -14.0490   21.1732 C   0  0  0  0  0  0  0  0  0  0  0  0
    9.1417  -14.7697   21.6728 C   0  0  2  0  0  0  0  0  0  0  0  0
    9.3226  -16.0663   21.0688 N   0  0  0  0  0  0  0  0  0  0  0  0
    8.9060  -14.9995   23.1466 C   0  0  0  0  0  0  0  0  0  0  0  0
    8.2055  -14.2073   23.8398 O   0  0  0  0  0  0  0  0  0  0  0  0
    9.5016  -16.1444   23.7350 N   0  0  0  0  0  0  0  0  0  0  0  0
    9.1060  -16.6612   25.0272 C   0  0  1  0  0  0  0  0  0  0  0  0
    7.6811  -17.1645   24.8825 C   0  0  0  0  0  0  0  0  0  0  0  0
    7.1217  -18.0545   26.3416 S   0  0  0  0  0  0  0  0  0  0  0  0
    9.9767  -17.7743   25.4169 C   0  0  0  0  0  0  0  0  0  0  0  0
   10.7649  -18.2759   24.5796 O   0  0  0  0  0  0  0  0  0  0  0  0
    9.9351  -18.2715   26.6930 O   0  0  0  0  0  0  0  0  0  0  0  0
  2  1  1  0
  3  2  2  0
  4  2  1  0
  5  4  1  0
  6  7  1  6
  6  5  1  0
  8  6  1  0
  9  8  2  0
 11 10  1  6
 12 11  1  0
 14 13  1  6
 13 11  1  0
 14 15  1  0
 15  8  1  0
 16 18  1  0
 16 14  1  0
 17 16  2  0
 19 20  1  6
 19 18  1  0
 21 20  1  0
 22 19  1  0
 22 24  1  0
 23 22  2  0
M  END
$$$$
