QLC.pdb
     RDKit          3D

 24 23  0  0  1  0  0  0  0  0999 V2000
    9.2974  -13.9586   17.7654 N   0  0  0  0  0  0  0  0  0  0  0  0
    8.3260  -13.2565   18.5488 C   0  0  0  0  0  0  0  0  0  0  0  0
    7.7056  -12.3444   17.9867 O   0  0  0  0  0  0  0  0  0  0  0  0
    8.1155  -13.6373   19.9292 C   0  0  0  0  0  0  0  0  0  0  0  0
    8.8748  -14.8430   20.3963 C   0  0  0  0  0  0  0  0  0  0  0  0
    8.1982  -15.7034   21.4002 C   0  0  2  0  0  0  0  0  0  0  0  0
    6.7670  -15.7742   21.3222 N   0  0  0  0  0  0  0  0  0  0  0  0
    8.6654  -15.4473   22.7908 C   0  0  0  0  0  0  0  0  0  0  0  0
    9.9066  -15.4233   22.9853 O   0  0  0  0  0  0  0  0  0  0  0  0
    5.8352  -12.2036   26.3987 C   0  0  0  0  0  0  0  0  0  0  0  0
    6.9076  -12.9106   25.6176 C   0  0  1  0  0  0  0  0  0  0  0  0
    8.2003  -12.0951   25.7975 C   0  0  0  0  0  0  0  0  0  0  0  0
    7.2277  -14.2900   26.0604 C   0  0  0  0  0  0  0  0  0  0  0  0
    8.2044  -15.0612   25.2381 C   0  0  2  0  0  0  0  0  0  0  0  0
    7.7853  -15.2362   23.8696 N   0  0  0  0  0  0  0  0  0  0  0  0
    8.2718  -16.4368   25.8574 C   0  0  0  0  0  0  0  0  0  0  0  0
    7.2282  -17.1025   26.1147 O   0  0  0  0  0  0  0  0  0  0  0  0
    9.5569  -16.9642   26.1444 N   0  0  0  0  0  0  0  0  0  0  0  0
    9.7606  -18.2916   26.6828 C   0  0  1  0  0  0  0  0  0  0  0  0
   10.8484  -18.9429   25.8480 C   0  0  0  0  0  0  0  0  0  0  0  0
   12.2606  -17.8569   25.6024 S   0  0  0  0  0  0  0  0  0  0  0  0
   10.2024  -18.2110   28.0783 C   0  0  0  0  0  0  0  0  0  0  0  0
   10.4372  -17.0933   28.5975 O   0  0  0  0  0  0  0  0  0  0  0  0
   10.3610  -19.3515   28.8210 O   0  0  0  0  0  0  0  0  0  0  0  0
  2  1  1  0
  3  2  2  0
  4  2  1  0
  5  4  1  0
  6  7  1  1
  6  5  1  0
  8  6  1  0
  9  8  2  0
 11 10  1  1
 12 11  1  0
 14 13  1  1
 13 11  1  0
 14 15  1  0
 15  8  1  0
 16 18  1  0
 16 14  1  0
 17 16  2  0
 19 20  1  6
 19 18  1  0
 21 20  1  0
 22 19  1  0
 22 24  1  0
 23 22  2  0
M  END
$$$$
