QLC.pdb
     RDKit          3D

 24 23  0  0  1  0  0  0  0  0999 V2000
   10.9762  -20.3121   22.3590 N   0  0  0  0  0  0  0  0  0  0  0  0
   10.0924  -19.9777   21.2831 C   0  0  0  0  0  0  0  0  0  0  0  0
    9.8546  -20.8676   20.4558 O   0  0  0  0  0  0  0  0  0  0  0  0
    9.5274  -18.6470   21.2142 C   0  0  0  0  0  0  0  0  0  0  0  0
    9.9273  -17.7107   22.3149 C   0  0  0  0  0  0  0  0  0  0  0  0
    9.2830  -16.3725   22.3125 C   0  0  2  0  0  0  0  0  0  0  0  0
    9.6722  -15.4764   21.2613 N   0  0  0  0  0  0  0  0  0  0  0  0
    9.3180  -15.7109   23.6461 C   0  0  0  0  0  0  0  0  0  0  0  0
   10.4439  -15.3779   24.0936 O   0  0  0  0  0  0  0  0  0  0  0  0
    5.4706  -11.9611   25.5639 C   0  0  0  0  0  0  0  0  0  0  0  0
    6.7666  -12.6796   25.3103 C   0  0  1  0  0  0  0  0  0  0  0  0
    7.8830  -11.8112   25.9168 C   0  0  0  0  0  0  0  0  0  0  0  0
    6.8990  -14.0166   25.9396 C   0  0  0  0  0  0  0  0  0  0  0  0
    8.1577  -14.7727   25.6769 C   0  0  2  0  0  0  0  0  0  0  0  0
    8.1604  -15.4516   24.4049 N   0  0  0  0  0  0  0  0  0  0  0  0
    8.2312  -15.8379   26.7448 C   0  0  0  0  0  0  0  0  0  0  0  0
    8.3764  -15.5464   27.9665 O   0  0  0  0  0  0  0  0  0  0  0  0
    8.1311  -17.1905   26.3295 N   0  0  0  0  0  0  0  0  0  0  0  0
    8.2468  -18.3054   27.2444 C   0  0  1  0  0  0  0  0  0  0  0  0
    7.4036  -19.4317   26.6744 C   0  0  0  0  0  0  0  0  0  0  0  0
    8.1964  -20.2342   25.2738 S   0  0  0  0  0  0  0  0  0  0  0  0
    9.6427  -18.7430   27.3372 C   0  0  0  0  0  0  0  0  0  0  0  0
   10.4938  -18.2979   26.5300 O   0  0  0  0  0  0  0  0  0  0  0  0
   10.0250  -19.6375   28.3023 O   0  0  0  0  0  0  0  0  0  0  0  0
  2  1  1  0
  3  2  2  0
  4  2  1  0
  5  4  1  0
  6  7  1  6
  6  5  1  0
  8  6  1  0
  9  8  2  0
 11 10  1  1
 12 11  1  0
 14 13  1  1
 13 11  1  0
 14 15  1  0
 15  8  1  0
 16 18  1  0
 16 14  1  0
 17 16  2  0
 19 20  1  6
 19 18  1  0
 21 20  1  0
 22 19  1  0
 22 24  1  0
 23 22  2  0
M  END
$$$$
