QLC.pdb
     RDKit          3D

 24 23  0  0  1  0  0  0  0  0999 V2000
   13.0223  -17.8233   17.1715 N   0  0  0  0  0  0  0  0  0  0  0  0
   11.7878  -18.5460   17.1059 C   0  0  0  0  0  0  0  0  0  0  0  0
   11.5233  -19.1077   16.0347 O   0  0  0  0  0  0  0  0  0  0  0  0
   10.9262  -18.5890   18.2680 C   0  0  0  0  0  0  0  0  0  0  0  0
   11.4595  -17.9222   19.5006 C   0  0  0  0  0  0  0  0  0  0  0  0
   10.6391  -18.0531   20.7317 C   0  0  2  0  0  0  0  0  0  0  0  0
    9.4066  -18.7774   20.6058 N   0  0  0  0  0  0  0  0  0  0  0  0
   10.4508  -16.7580   21.4421 C   0  0  0  0  0  0  0  0  0  0  0  0
   11.4781  -16.0700   21.6660 O   0  0  0  0  0  0  0  0  0  0  0  0
    6.3600  -13.5140   19.8997 C   0  0  0  0  0  0  0  0  0  0  0  0
    7.6578  -14.0707   20.4154 C   0  0  1  0  0  0  0  0  0  0  0  0
    8.7400  -13.0144   20.1296 C   0  0  0  0  0  0  0  0  0  0  0  0
    7.7152  -14.3324   21.8746 C   0  0  0  0  0  0  0  0  0  0  0  0
    8.9529  -14.9744   22.4045 C   0  0  2  0  0  0  0  0  0  0  0  0
    9.1911  -16.2888   21.8617 N   0  0  0  0  0  0  0  0  0  0  0  0
    8.7283  -15.1447   23.8881 C   0  0  0  0  0  0  0  0  0  0  0  0
    8.3340  -14.1885   24.6154 O   0  0  0  0  0  0  0  0  0  0  0  0
    8.9761  -16.4250   24.4459 N   0  0  0  0  0  0  0  0  0  0  0  0
    8.8297  -16.7107   25.8567 C   0  0  1  0  0  0  0  0  0  0  0  0
    7.3620  -16.5206   26.1943 C   0  0  0  0  0  0  0  0  0  0  0  0
    6.3031  -17.6640   25.2968 S   0  0  0  0  0  0  0  0  0  0  0  0
    9.2167  -18.0966   26.1367 C   0  0  0  0  0  0  0  0  0  0  0  0
    9.1478  -18.5420   27.3076 O   0  0  0  0  0  0  0  0  0  0  0  0
    9.6542  -18.9109   25.1252 O   0  0  0  0  0  0  0  0  0  0  0  0
  2  1  1  0
  3  2  2  0
  4  2  1  0
  5  4  1  0
  6  7  1  6
  6  5  1  0
  8  6  1  0
  9  8  2  0
 11 10  1  1
 12 11  1  0
 14 13  1  6
 13 11  1  0
 14 15  1  0
 15  8  1  0
 16 18  1  0
 16 14  1  0
 17 16  2  0
 19 20  1  6
 19 18  1  0
 21 20  1  0
 22 19  1  0
 22 24  1  0
 23 22  2  0
M  END
$$$$
