QDF.pdb
     RDKit          3D

 29 29  0  0  1  0  0  0  0  0999 V2000
    7.9296  -11.9192   18.2424 N   0  0  0  0  0  0  0  0  0  0  0  0
    7.6569  -13.3115   18.0886 C   0  0  0  0  0  0  0  0  0  0  0  0
    8.2729  -13.8897   17.1655 O   0  0  0  0  0  0  0  0  0  0  0  0
    6.7250  -14.0432   18.9316 C   0  0  0  0  0  0  0  0  0  0  0  0
    7.2354  -14.6504   20.1792 C   0  0  0  0  0  0  0  0  0  0  0  0
    8.6929  -15.0189   20.2018 C   0  0  2  0  0  0  0  0  0  0  0  0
    9.2280  -15.5318   18.9825 N   0  0  0  0  0  0  0  0  0  0  0  0
    8.8721  -15.9431   21.3610 C   0  0  0  0  0  0  0  0  0  0  0  0
    7.8362  -16.4537   21.8771 O   0  0  0  0  0  0  0  0  0  0  0  0
   10.1082  -16.2973   21.9342 N   0  0  0  0  0  0  0  0  0  0  0  0
   10.2284  -17.2278   23.0436 C   0  0  1  0  0  0  0  0  0  0  0  0
   11.2218  -18.3191   22.7548 C   0  0  0  0  0  0  0  0  0  0  0  0
   12.4340  -17.8514   22.0467 C   0  0  0  0  0  0  0  0  0  0  0  0
   13.5057  -17.5032   22.5946 O   0  0  0  0  0  0  0  0  0  0  0  0
   10.6839  -16.4972   24.2408 C   0  0  0  0  0  0  0  0  0  0  0  0
   11.7721  -16.7973   24.7838 O   0  0  0  0  0  0  0  0  0  0  0  0
   12.3708  -17.7967   20.6617 O   0  0  0  0  0  0  0  0  0  0  0  0
    9.9047  -15.4578   24.7860 N   0  0  0  0  0  0  0  0  0  0  0  0
    9.2486  -15.6569   26.0755 C   0  0  1  0  0  0  0  0  0  0  0  0
    7.7957  -15.3932   25.8621 C   0  0  0  0  0  0  0  0  0  0  0  0
    7.4193  -13.9706   25.9444 C   0  0  0  0  0  0  0  0  0  0  0  0
    6.5426  -13.5638   26.9058 C   0  0  0  0  0  0  0  0  0  0  0  0
    6.2005  -12.2310   26.9759 C   0  0  0  0  0  0  0  0  0  0  0  0
    6.7166  -11.3112   26.1088 C   0  0  0  0  0  0  0  0  0  0  0  0
    7.6050  -11.7313   25.1367 C   0  0  0  0  0  0  0  0  0  0  0  0
    7.9550  -13.0559   25.0549 C   0  0  0  0  0  0  0  0  0  0  0  0
    9.5303  -17.0065   26.5646 C   0  0  0  0  0  0  0  0  0  0  0  0
    9.1938  -18.1570   25.8856 O   0  0  0  0  0  0  0  0  0  0  0  0
   10.1217  -17.1779   27.6836 O   0  0  0  0  0  0  0  0  0  0  0  0
  2  3  2  0
  2  1  1  0
  4  2  1  0
  5  4  1  0
  5  6  1  0
  6  8  1  0
  6  7  1  6
  8  9  2  0
 10 11  1  0
 10  8  1  0
 11 12  1  6
 13 12  1  0
 14 13  2  0
 15 11  1  0
 15 16  2  0
 17 13  1  0
 18 15  1  0
 19 18  1  0
 19 27  1  0
 19 20  1  6
 21 20  1  0
 22 21  2  0
 23 22  1  0
 24 23  2  0
 24 25  1  0
 25 26  2  0
 26 21  1  0
 27 28  1  0
 29 27  2  0
M  END
$$$$
