QDF.pdb
     RDKit          3D

 29 29  0  0  1  0  0  0  0  0999 V2000
    9.4607  -20.0519   16.4476 N   0  0  0  0  0  0  0  0  0  0  0  0
    9.6752  -20.5875   17.7528 C   0  0  0  0  0  0  0  0  0  0  0  0
    9.6523  -21.8355   17.8413 O   0  0  0  0  0  0  0  0  0  0  0  0
    9.9054  -19.7638   18.9288 C   0  0  0  0  0  0  0  0  0  0  0  0
    9.0336  -19.9622   20.1062 C   0  0  0  0  0  0  0  0  0  0  0  0
    8.7329  -18.7441   20.9346 C   0  0  2  0  0  0  0  0  0  0  0  0
    8.3877  -17.5641   20.2104 N   0  0  0  0  0  0  0  0  0  0  0  0
    9.9025  -18.5584   21.8442 C   0  0  0  0  0  0  0  0  0  0  0  0
   10.2080  -19.5112   22.6183 O   0  0  0  0  0  0  0  0  0  0  0  0
   10.7014  -17.4014   21.9146 N   0  0  0  0  0  0  0  0  0  0  0  0
   11.7239  -17.2063   22.9283 C   0  0  1  0  0  0  0  0  0  0  0  0
   12.9246  -16.4844   22.3818 C   0  0  0  0  0  0  0  0  0  0  0  0
   13.8520  -17.3549   21.6257 C   0  0  0  0  0  0  0  0  0  0  0  0
   14.1410  -18.5376   21.9215 O   0  0  0  0  0  0  0  0  0  0  0  0
   11.1658  -16.4004   24.0299 C   0  0  0  0  0  0  0  0  0  0  0  0
   11.9088  -16.0029   24.9567 O   0  0  0  0  0  0  0  0  0  0  0  0
   14.4469  -16.8089   20.4973 O   0  0  0  0  0  0  0  0  0  0  0  0
    9.7966  -16.0692   24.0535 N   0  0  0  0  0  0  0  0  0  0  0  0
    9.2918  -15.1897   25.1044 C   0  0  1  0  0  0  0  0  0  0  0  0
    8.2747  -14.3024   24.4685 C   0  0  0  0  0  0  0  0  0  0  0  0
    7.5686  -13.4166   25.4114 C   0  0  0  0  0  0  0  0  0  0  0  0
    8.2249  -12.3488   25.9472 C   0  0  0  0  0  0  0  0  0  0  0  0
    7.5541  -11.5252   26.8248 C   0  0  0  0  0  0  0  0  0  0  0  0
    6.2526  -11.7521   27.1693 C   0  0  0  0  0  0  0  0  0  0  0  0
    5.5937  -12.8369   26.6218 C   0  0  0  0  0  0  0  0  0  0  0  0
    6.2493  -13.6660   25.7461 C   0  0  0  0  0  0  0  0  0  0  0  0
    8.7575  -15.9955   26.2022 C   0  0  0  0  0  0  0  0  0  0  0  0
    8.9154  -15.6824   27.5343 O   0  0  0  0  0  0  0  0  0  0  0  0
    8.0985  -17.0624   25.9592 O   0  0  0  0  0  0  0  0  0  0  0  0
  2  3  2  0
  2  1  1  0
  4  2  1  0
  5  4  1  0
  5  6  1  0
  6  8  1  0
  6  7  1  6
  8  9  2  0
 10 11  1  0
 10  8  1  0
 11 12  1  6
 13 12  1  0
 14 13  2  0
 15 11  1  0
 15 16  2  0
 17 13  1  0
 18 15  1  0
 19 18  1  0
 19 27  1  0
 19 20  1  6
 21 20  1  0
 22 21  2  0
 23 22  1  0
 24 23  2  0
 24 25  1  0
 25 26  2  0
 26 21  1  0
 27 28  1  0
 29 27  2  0
M  END
$$$$
