QDF.pdb
     RDKit          3D

 29 29  0  0  1  0  0  0  0  0999 V2000
    7.4447  -16.5705   17.5449 N   0  0  0  0  0  0  0  0  0  0  0  0
    6.4753  -15.9925   18.4183 C   0  0  0  0  0  0  0  0  0  0  0  0
    5.4912  -16.7140   18.6955 O   0  0  0  0  0  0  0  0  0  0  0  0
    6.5905  -14.6509   18.9671 C   0  0  0  0  0  0  0  0  0  0  0  0
    7.8013  -13.8642   18.6492 C   0  0  0  0  0  0  0  0  0  0  0  0
    8.6147  -13.3785   19.8166 C   0  0  2  0  0  0  0  0  0  0  0  0
    9.7146  -12.5257   19.5016 N   0  0  0  0  0  0  0  0  0  0  0  0
    9.0118  -14.5960   20.5845 C   0  0  0  0  0  0  0  0  0  0  0  0
    8.0993  -15.3985   20.9359 O   0  0  0  0  0  0  0  0  0  0  0  0
   10.3285  -14.9295   20.9549 N   0  0  0  0  0  0  0  0  0  0  0  0
   10.6564  -16.1130   21.7313 C   0  0  1  0  0  0  0  0  0  0  0  0
   11.9333  -16.7546   21.2631 C   0  0  0  0  0  0  0  0  0  0  0  0
   12.3472  -17.9219   22.0728 C   0  0  0  0  0  0  0  0  0  0  0  0
   12.3870  -17.9595   23.3246 O   0  0  0  0  0  0  0  0  0  0  0  0
   10.8257  -15.7322   23.1458 C   0  0  0  0  0  0  0  0  0  0  0  0
   11.6335  -14.8280   23.4608 O   0  0  0  0  0  0  0  0  0  0  0  0
   12.7208  -19.0654   21.3813 O   0  0  0  0  0  0  0  0  0  0  0  0
   10.0848  -16.3773   24.1556 N   0  0  0  0  0  0  0  0  0  0  0  0
    9.5443  -15.5894   25.2600 C   0  0  1  0  0  0  0  0  0  0  0  0
    8.6768  -14.5386   24.6523 C   0  0  0  0  0  0  0  0  0  0  0  0
    7.9600  -13.7029   25.6322 C   0  0  0  0  0  0  0  0  0  0  0  0
    8.6709  -12.9244   26.4963 C   0  0  0  0  0  0  0  0  0  0  0  0
    7.9905  -12.1444   27.4057 C   0  0  0  0  0  0  0  0  0  0  0  0
    6.6264  -12.1325   27.4620 C   0  0  0  0  0  0  0  0  0  0  0  0
    5.9124  -12.9246   26.5824 C   0  0  0  0  0  0  0  0  0  0  0  0
    6.5768  -13.7067   25.6709 C   0  0  0  0  0  0  0  0  0  0  0  0
    8.8318  -16.4695   26.1862 C   0  0  0  0  0  0  0  0  0  0  0  0
    8.4889  -17.7726   25.8997 O   0  0  0  0  0  0  0  0  0  0  0  0
    8.4860  -16.0479   27.3412 O   0  0  0  0  0  0  0  0  0  0  0  0
  2  3  2  0
  2  1  1  0
  4  2  1  0
  5  4  1  0
  5  6  1  0
  6  8  1  0
  6  7  1  6
  8  9  2  0
 10 11  1  0
 10  8  1  0
 11 12  1  6
 13 12  1  0
 14 13  2  0
 15 11  1  0
 15 16  2  0
 17 13  1  0
 18 15  1  0
 19 18  1  0
 19 27  1  0
 19 20  1  6
 21 20  1  0
 22 21  2  0
 23 22  1  0
 24 23  2  0
 24 25  1  0
 25 26  2  0
 26 21  1  0
 27 28  1  0
 29 27  2  0
M  END
$$$$
