QDF.pdb
     RDKit          3D

 29 29  0  0  1  0  0  0  0  0999 V2000
    7.7342  -13.1466   17.1455 N   0  0  0  0  0  0  0  0  0  0  0  0
    8.4015  -12.8210   18.3642 C   0  0  0  0  0  0  0  0  0  0  0  0
    9.6502  -12.7653   18.3050 O   0  0  0  0  0  0  0  0  0  0  0  0
    7.7055  -12.5674   19.6155 C   0  0  0  0  0  0  0  0  0  0  0  0
    8.0121  -13.4300   20.7764 C   0  0  0  0  0  0  0  0  0  0  0  0
    7.6002  -14.8722   20.6715 C   0  0  2  0  0  0  0  0  0  0  0  0
    6.2282  -15.1104   20.3600 N   0  0  0  0  0  0  0  0  0  0  0  0
    8.0405  -15.5257   21.9399 C   0  0  0  0  0  0  0  0  0  0  0  0
    7.1544  -16.0510   22.6742 O   0  0  0  0  0  0  0  0  0  0  0  0
    9.3710  -15.6069   22.3927 N   0  0  0  0  0  0  0  0  0  0  0  0
    9.9505  -16.8255   22.9315 C   0  0  1  0  0  0  0  0  0  0  0  0
   11.2696  -17.1514   22.2873 C   0  0  0  0  0  0  0  0  0  0  0  0
   11.9212  -18.3602   22.8386 C   0  0  0  0  0  0  0  0  0  0  0  0
   13.0777  -18.4064   23.3187 O   0  0  0  0  0  0  0  0  0  0  0  0
   10.1759  -16.6555   24.3788 C   0  0  0  0  0  0  0  0  0  0  0  0
   10.6602  -17.5930   25.0538 O   0  0  0  0  0  0  0  0  0  0  0  0
   11.1841  -19.5356   22.8188 O   0  0  0  0  0  0  0  0  0  0  0  0
    9.8509  -15.4424   25.0174 N   0  0  0  0  0  0  0  0  0  0  0  0
    9.6190  -15.4330   26.4591 C   0  0  1  0  0  0  0  0  0  0  0  0
    8.1404  -15.4687   26.6554 C   0  0  0  0  0  0  0  0  0  0  0  0
    7.4685  -14.1750   26.4379 C   0  0  0  0  0  0  0  0  0  0  0  0
    8.2175  -13.0418   26.3230 C   0  0  0  0  0  0  0  0  0  0  0  0
    7.5793  -11.8385   26.1162 C   0  0  0  0  0  0  0  0  0  0  0  0
    6.2197  -11.7539   26.0238 C   0  0  0  0  0  0  0  0  0  0  0  0
    5.4669  -12.9074   26.1413 C   0  0  0  0  0  0  0  0  0  0  0  0
    6.0891  -14.1133   26.3475 C   0  0  0  0  0  0  0  0  0  0  0  0
   10.3160  -16.5626   27.0742 C   0  0  0  0  0  0  0  0  0  0  0  0
   11.1017  -17.4540   26.3772 O   0  0  0  0  0  0  0  0  0  0  0  0
   10.2193  -16.7752   28.3299 O   0  0  0  0  0  0  0  0  0  0  0  0
  2  3  2  0
  2  1  1  0
  4  2  1  0
  5  4  1  0
  5  6  1  0
  6  8  1  0
  6  7  1  1
  8  9  2  0
 10 11  1  0
 10  8  1  0
 11 12  1  6
 13 12  1  0
 14 13  2  0
 15 11  1  0
 15 16  2  0
 17 13  1  0
 18 15  1  0
 19 18  1  0
 19 27  1  0
 19 20  1  6
 21 20  1  0
 22 21  2  0
 23 22  1  0
 24 23  2  0
 24 25  1  0
 25 26  2  0
 26 21  1  0
 27 28  1  0
 29 27  2  0
M  END
$$$$
