QDF.pdb
     RDKit          3D

 29 29  0  0  1  0  0  0  0  0999 V2000
    8.8437  -12.4276   17.5723 N   0  0  0  0  0  0  0  0  0  0  0  0
    8.1779  -13.4430   16.8224 C   0  0  0  0  0  0  0  0  0  0  0  0
    8.4739  -13.5079   15.6083 O   0  0  0  0  0  0  0  0  0  0  0  0
    7.2081  -14.3596   17.4002 C   0  0  0  0  0  0  0  0  0  0  0  0
    7.5234  -14.9862   18.7017 C   0  0  0  0  0  0  0  0  0  0  0  0
    8.8199  -15.7425   18.7886 C   0  0  2  0  0  0  0  0  0  0  0  0
    9.0463  -16.7160   17.7701 N   0  0  0  0  0  0  0  0  0  0  0  0
    8.8826  -16.3066   20.1698 C   0  0  0  0  0  0  0  0  0  0  0  0
    7.8412  -16.2395   20.8849 O   0  0  0  0  0  0  0  0  0  0  0  0
   10.0135  -16.9121   20.7496 N   0  0  0  0  0  0  0  0  0  0  0  0
   10.0078  -17.4836   22.0854 C   0  0  1  0  0  0  0  0  0  0  0  0
   11.2568  -18.2738   22.3625 C   0  0  0  0  0  0  0  0  0  0  0  0
   11.2577  -18.9473   23.6801 C   0  0  0  0  0  0  0  0  0  0  0  0
   11.4999  -18.3941   24.7779 O   0  0  0  0  0  0  0  0  0  0  0  0
    9.9235  -16.3953   23.0770 C   0  0  0  0  0  0  0  0  0  0  0  0
   10.7493  -15.4538   23.0483 O   0  0  0  0  0  0  0  0  0  0  0  0
   10.9651  -20.3036   23.6924 O   0  0  0  0  0  0  0  0  0  0  0  0
    8.9183  -16.4010   24.0640 N   0  0  0  0  0  0  0  0  0  0  0  0
    8.8311  -15.2853   25.0022 C   0  0  1  0  0  0  0  0  0  0  0  0
    7.6509  -14.4706   24.5906 C   0  0  0  0  0  0  0  0  0  0  0  0
    7.3506  -13.3415   25.4891 C   0  0  0  0  0  0  0  0  0  0  0  0
    6.2944  -13.4297   26.3464 C   0  0  0  0  0  0  0  0  0  0  0  0
    6.0250  -12.3698   27.1843 C   0  0  0  0  0  0  0  0  0  0  0  0
    6.7876  -11.2373   27.1768 C   0  0  0  0  0  0  0  0  0  0  0  0
    7.8569  -11.1552   26.3046 C   0  0  0  0  0  0  0  0  0  0  0  0
    8.1373  -12.2034   25.4641 C   0  0  0  0  0  0  0  0  0  0  0  0
    8.7357  -15.8008   26.3680 C   0  0  0  0  0  0  0  0  0  0  0  0
    8.0878  -16.9685   26.7063 O   0  0  0  0  0  0  0  0  0  0  0  0
    9.2696  -15.1637   27.3378 O   0  0  0  0  0  0  0  0  0  0  0  0
  2  3  2  0
  2  1  1  0
  4  2  1  0
  5  4  1  0
  5  6  1  0
  6  8  1  0
  6  7  1  6
  8  9  2  0
 10 11  1  0
 10  8  1  0
 11 12  1  1
 13 12  1  0
 14 13  2  0
 15 11  1  0
 15 16  2  0
 17 13  1  0
 18 15  1  0
 19 18  1  0
 19 27  1  0
 19 20  1  6
 21 20  1  0
 22 21  2  0
 23 22  1  0
 24 23  2  0
 24 25  1  0
 25 26  2  0
 26 21  1  0
 27 28  1  0
 29 27  2  0
M  END
$$$$
