QDF.pdb
     RDKit          3D

 29 29  0  0  1  0  0  0  0  0999 V2000
   13.8484  -19.0822   18.1055 N   0  0  0  0  0  0  0  0  0  0  0  0
   12.9131  -20.0905   18.4863 C   0  0  0  0  0  0  0  0  0  0  0  0
   13.0514  -21.2021   17.9286 O   0  0  0  0  0  0  0  0  0  0  0  0
   11.8514  -19.8732   19.4558 C   0  0  0  0  0  0  0  0  0  0  0  0
   11.6759  -18.5145   20.0116 C   0  0  0  0  0  0  0  0  0  0  0  0
   11.1921  -18.4251   21.4323 C   0  0  2  0  0  0  0  0  0  0  0  0
   10.7692  -19.6508   22.0279 N   0  0  0  0  0  0  0  0  0  0  0  0
   10.1400  -17.3656   21.4494 C   0  0  0  0  0  0  0  0  0  0  0  0
   10.3787  -16.2839   20.8385 O   0  0  0  0  0  0  0  0  0  0  0  0
    8.8930  -17.4692   22.0945 N   0  0  0  0  0  0  0  0  0  0  0  0
    7.8556  -16.4586   21.9784 C   0  0  1  0  0  0  0  0  0  0  0  0
    6.4788  -17.0626   22.0069 C   0  0  0  0  0  0  0  0  0  0  0  0
    6.3251  -18.2411   21.1253 C   0  0  0  0  0  0  0  0  0  0  0  0
    6.3358  -18.2168   19.8727 O   0  0  0  0  0  0  0  0  0  0  0  0
    7.9678  -15.5179   23.1085 C   0  0  0  0  0  0  0  0  0  0  0  0
    7.7375  -14.2987   22.9364 O   0  0  0  0  0  0  0  0  0  0  0  0
    6.1555  -19.4711   21.7447 O   0  0  0  0  0  0  0  0  0  0  0  0
    8.3335  -15.9765   24.3894 N   0  0  0  0  0  0  0  0  0  0  0  0
    9.5869  -15.5179   24.9821 C   0  0  1  0  0  0  0  0  0  0  0  0
    9.5713  -14.0274   24.9175 C   0  0  0  0  0  0  0  0  0  0  0  0
    8.3910  -13.4057   25.5443 C   0  0  0  0  0  0  0  0  0  0  0  0
    7.7720  -12.3634   24.9210 C   0  0  0  0  0  0  0  0  0  0  0  0
    6.6674  -11.7922   25.5141 C   0  0  0  0  0  0  0  0  0  0  0  0
    6.1796  -12.2434   26.7068 C   0  0  0  0  0  0  0  0  0  0  0  0
    6.8127  -13.3008   27.3329 C   0  0  0  0  0  0  0  0  0  0  0  0
    7.9142  -13.8797   26.7538 C   0  0  0  0  0  0  0  0  0  0  0  0
    9.7047  -16.0410   26.3432 C   0  0  0  0  0  0  0  0  0  0  0  0
    8.7673  -16.8565   26.9381 O   0  0  0  0  0  0  0  0  0  0  0  0
   10.7204  -15.7506   27.0612 O   0  0  0  0  0  0  0  0  0  0  0  0
  2  3  2  0
  2  1  1  0
  4  2  1  0
  5  4  1  0
  5  6  1  0
  6  8  1  0
  6  7  1  6
  8  9  2  0
 10 11  1  0
 10  8  1  0
 11 12  1  1
 13 12  1  0
 14 13  2  0
 15 11  1  0
 15 16  2  0
 17 13  1  0
 18 15  1  0
 19 18  1  0
 19 27  1  0
 19 20  1  1
 21 20  1  0
 22 21  2  0
 23 22  1  0
 24 23  2  0
 24 25  1  0
 25 26  2  0
 26 21  1  0
 27 28  1  0
 29 27  2  0
M  END
$$$$
