LQK.pdb
     RDKit          3D

 27 26  0  0  1  0  0  0  0  0999 V2000
    7.2120  -11.5031   27.6466 C   0  0  0  0  0  0  0  0  0  0  0  0
    6.2771  -12.3962   26.8623 C   0  0  1  0  0  0  0  0  0  0  0  0
    5.3430  -11.6057   25.9807 C   0  0  0  0  0  0  0  0  0  0  0  0
    7.0902  -13.2989   25.9580 C   0  0  0  0  0  0  0  0  0  0  0  0
    6.1573  -14.2814   25.3175 C   0  0  2  0  0  0  0  0  0  0  0  0
    5.4795  -15.1391   26.2408 N   0  0  0  0  0  0  0  0  0  0  0  0
    6.8561  -15.0828   24.2805 C   0  0  0  0  0  0  0  0  0  0  0  0
    7.1605  -16.2799   24.4841 O   0  0  0  0  0  0  0  0  0  0  0  0
    8.0241  -12.8690   18.4412 N   0  0  0  0  0  0  0  0  0  0  0  0
    8.6723  -14.1279   18.4109 C   0  0  0  0  0  0  0  0  0  0  0  0
    9.2238  -14.5296   17.3764 O   0  0  0  0  0  0  0  0  0  0  0  0
    8.6750  -14.9496   19.6376 C   0  0  0  0  0  0  0  0  0  0  0  0
    7.9236  -14.3652   20.7774 C   0  0  0  0  0  0  0  0  0  0  0  0
    7.8997  -15.2373   22.0114 C   0  0  2  0  0  0  0  0  0  0  0  0
    7.1723  -14.4574   23.0472 N   0  0  0  0  0  0  0  0  0  0  0  0
    9.2658  -15.3856   22.5407 C   0  0  0  0  0  0  0  0  0  0  0  0
    9.8438  -14.3881   23.0896 O   0  0  0  0  0  0  0  0  0  0  0  0
    9.9634  -16.5935   22.4709 N   0  0  0  0  0  0  0  0  0  0  0  0
   11.3134  -16.7477   23.0497 C   0  0  1  0  0  0  0  0  0  0  0  0
   11.2675  -18.0664   23.7809 C   0  0  0  0  0  0  0  0  0  0  0  0
   12.5618  -18.4879   24.3828 C   0  0  0  0  0  0  0  0  0  0  0  0
   12.4060  -19.7761   25.1354 C   0  0  0  0  0  0  0  0  0  0  0  0
   13.7163  -20.1770   25.7567 C   0  0  0  0  0  0  0  0  0  0  0  0
   13.5985  -21.4634   26.4096 N   0  0  0  0  0  0  0  0  0  0  0  0
   12.3509  -16.6907   22.0218 C   0  0  0  0  0  0  0  0  0  0  0  0
   12.0988  -17.0872   20.7249 O   0  0  0  0  0  0  0  0  0  0  0  0
   13.4978  -16.2781   22.2991 O   0  0  0  0  0  0  0  0  0  0  0  0
  2  4  1  0
  2  1  1  6
  3  2  1  0
  4  5  1  0
  5  6  1  1
  7  5  1  0
  8  7  2  0
 10  9  1  0
 10 12  1  0
 11 10  2  0
 13 12  1  0
 14 13  1  6
 14 15  1  0
 15  7  1  0
 16 18  1  0
 16 14  1  0
 17 16  2  0
 19 25  1  0
 19 18  1  0
 19 20  1  6
 20 21  1  0
 22 21  1  0
 23 22  1  0
 24 23  1  0
 25 26  1  0
 27 25  2  0
M  END
$$$$
