LQK.pdb
     RDKit          3D

 27 26  0  0  1  0  0  0  0  0999 V2000
    6.3848  -11.9338   26.8443 C   0  0  0  0  0  0  0  0  0  0  0  0
    6.8053  -12.4294   25.4789 C   0  0  1  0  0  0  0  0  0  0  0  0
    7.8983  -11.5808   24.8786 C   0  0  0  0  0  0  0  0  0  0  0  0
    7.3488  -13.8375   25.6041 C   0  0  0  0  0  0  0  0  0  0  0  0
    7.7598  -14.3027   24.2402 C   0  0  2  0  0  0  0  0  0  0  0  0
    6.7197  -14.2441   23.2591 N   0  0  0  0  0  0  0  0  0  0  0  0
    8.3458  -15.6662   24.2955 C   0  0  0  0  0  0  0  0  0  0  0  0
    7.8355  -16.5615   25.0063 O   0  0  0  0  0  0  0  0  0  0  0  0
   11.7461  -19.0092   19.5769 N   0  0  0  0  0  0  0  0  0  0  0  0
   10.7112  -18.0563   19.7412 C   0  0  0  0  0  0  0  0  0  0  0  0
   10.4131  -17.2827   18.8201 O   0  0  0  0  0  0  0  0  0  0  0  0
    9.9978  -18.0052   21.0328 C   0  0  0  0  0  0  0  0  0  0  0  0
   10.7813  -17.4222   22.1516 C   0  0  0  0  0  0  0  0  0  0  0  0
   10.0188  -17.3254   23.4528 C   0  0  2  0  0  0  0  0  0  0  0  0
    9.5034  -15.9325   23.5201 N   0  0  0  0  0  0  0  0  0  0  0  0
   10.9535  -17.4371   24.5851 C   0  0  0  0  0  0  0  0  0  0  0  0
   11.6742  -16.4350   24.9122 O   0  0  0  0  0  0  0  0  0  0  0  0
   11.0814  -18.6109   25.3310 N   0  0  0  0  0  0  0  0  0  0  0  0
   12.0240  -18.7153   26.4632 C   0  0  1  0  0  0  0  0  0  0  0  0
   11.4294  -19.7731   27.3593 C   0  0  0  0  0  0  0  0  0  0  0  0
   12.1253  -19.9447   28.6638 C   0  0  0  0  0  0  0  0  0  0  0  0
   11.4425  -20.9860   29.5001 C   0  0  0  0  0  0  0  0  0  0  0  0
   12.1081  -21.0909   30.8453 C   0  0  0  0  0  0  0  0  0  0  0  0
   11.5300  -22.1701   31.6174 N   0  0  0  0  0  0  0  0  0  0  0  0
   13.3773  -19.0323   26.0111 C   0  0  0  0  0  0  0  0  0  0  0  0
   14.4867  -18.5837   26.6972 O   0  0  0  0  0  0  0  0  0  0  0  0
   13.5588  -19.7221   24.9847 O   0  0  0  0  0  0  0  0  0  0  0  0
  2  4  1  0
  2  1  1  1
  3  2  1  0
  4  5  1  0
  5  6  1  6
  7  5  1  0
  8  7  2  0
 10  9  1  0
 10 12  1  0
 11 10  2  0
 13 12  1  0
 14 13  1  6
 14 15  1  0
 15  7  1  0
 16 18  1  0
 16 14  1  0
 17 16  2  0
 19 25  1  0
 19 18  1  0
 19 20  1  1
 20 21  1  0
 22 21  1  0
 23 22  1  0
 24 23  1  0
 25 26  1  0
 27 25  2  0
M  END
$$$$
