LQK.pdb
     RDKit          3D

 27 26  0  0  1  0  0  0  0  0999 V2000
    6.2657  -13.4142   17.8089 C   0  0  0  0  0  0  0  0  0  0  0  0
    7.6684  -13.1224   18.2926 C   0  0  1  0  0  0  0  0  0  0  0  0
    7.6911  -12.0556   19.3585 C   0  0  0  0  0  0  0  0  0  0  0  0
    8.2579  -14.3774   18.9019 C   0  0  0  0  0  0  0  0  0  0  0  0
    9.4956  -13.9943   19.6549 C   0  0  2  0  0  0  0  0  0  0  0  0
   10.3131  -13.0252   18.9915 N   0  0  0  0  0  0  0  0  0  0  0  0
   10.2963  -15.1934   20.0110 C   0  0  0  0  0  0  0  0  0  0  0  0
    9.7433  -16.2574   20.3706 O   0  0  0  0  0  0  0  0  0  0  0  0
   15.5180  -14.5007   17.1711 N   0  0  0  0  0  0  0  0  0  0  0  0
   15.5243  -14.5902   18.5846 C   0  0  0  0  0  0  0  0  0  0  0  0
   16.5895  -14.5382   19.2158 O   0  0  0  0  0  0  0  0  0  0  0  0
   14.2354  -14.7474   19.2873 C   0  0  0  0  0  0  0  0  0  0  0  0
   13.8176  -16.1551   19.5093 C   0  0  0  0  0  0  0  0  0  0  0  0
   12.5248  -16.3000   20.2783 C   0  0  2  0  0  0  0  0  0  0  0  0
   11.7099  -15.1051   19.9337 N   0  0  0  0  0  0  0  0  0  0  0  0
   12.7888  -16.1733   21.7214 C   0  0  0  0  0  0  0  0  0  0  0  0
   12.8274  -15.0155   22.2586 O   0  0  0  0  0  0  0  0  0  0  0  0
   12.9963  -17.2857   22.5400 N   0  0  0  0  0  0  0  0  0  0  0  0
   13.2310  -17.1511   23.9919 C   0  0  1  0  0  0  0  0  0  0  0  0
   12.4829  -18.3068   24.6087 C   0  0  0  0  0  0  0  0  0  0  0  0
   12.5960  -18.3998   26.0899 C   0  0  0  0  0  0  0  0  0  0  0  0
   11.8723  -19.6083   26.6055 C   0  0  0  0  0  0  0  0  0  0  0  0
   11.9973  -19.6896   28.1027 C   0  0  0  0  0  0  0  0  0  0  0  0
   11.2915  -20.8465   28.6111 N   0  0  0  0  0  0  0  0  0  0  0  0
   14.6576  -17.1483   24.3098 C   0  0  0  0  0  0  0  0  0  0  0  0
   15.5992  -17.5556   23.3877 O   0  0  0  0  0  0  0  0  0  0  0  0
   15.0573  -16.7737   25.4334 O   0  0  0  0  0  0  0  0  0  0  0  0
  2  4  1  0
  2  1  1  1
  3  2  1  0
  4  5  1  0
  5  6  1  6
  7  5  1  0
  8  7  2  0
 10  9  1  0
 10 12  1  0
 11 10  2  0
 13 12  1  0
 14 13  1  6
 14 15  1  0
 15  7  1  0
 16 18  1  0
 16 14  1  0
 17 16  2  0
 19 25  1  0
 19 18  1  0
 19 20  1  1
 20 21  1  0
 22 21  1  0
 23 22  1  0
 24 23  1  0
 25 26  1  0
 27 25  2  0
M  END
$$$$
