LQK.pdb
     RDKit          3D

 27 26  0  0  1  0  0  0  0  0999 V2000
    6.6821  -12.2761   19.1075 C   0  0  0  0  0  0  0  0  0  0  0  0
    8.0863  -12.8345   19.1627 C   0  0  1  0  0  0  0  0  0  0  0  0
    9.0329  -11.9194   19.8985 C   0  0  0  0  0  0  0  0  0  0  0  0
    8.0703  -14.1541   19.9058 C   0  0  0  0  0  0  0  0  0  0  0  0
    9.4891  -14.5792   20.1337 C   0  0  2  0  0  0  0  0  0  0  0  0
   10.1989  -14.9280   18.9411 N   0  0  0  0  0  0  0  0  0  0  0  0
    9.5628  -15.6835   21.1240 C   0  0  0  0  0  0  0  0  0  0  0  0
    8.9001  -15.6461   22.1855 O   0  0  0  0  0  0  0  0  0  0  0  0
   12.6847  -21.3880   21.1646 N   0  0  0  0  0  0  0  0  0  0  0  0
   11.2801  -21.4897   21.0135 C   0  0  0  0  0  0  0  0  0  0  0  0
   10.7315  -22.5985   20.9410 O   0  0  0  0  0  0  0  0  0  0  0  0
   10.4862  -20.2469   20.9437 C   0  0  0  0  0  0  0  0  0  0  0  0
   11.2682  -18.9995   21.1385 C   0  0  0  0  0  0  0  0  0  0  0  0
   10.5024  -17.8937   21.8273 C   0  0  2  0  0  0  0  0  0  0  0  0
   10.4060  -16.7878   20.8383 N   0  0  0  0  0  0  0  0  0  0  0  0
   11.3086  -17.3443   22.9303 C   0  0  0  0  0  0  0  0  0  0  0  0
   12.4303  -16.7883   22.6787 O   0  0  0  0  0  0  0  0  0  0  0  0
   10.8868  -17.4024   24.2605 N   0  0  0  0  0  0  0  0  0  0  0  0
   11.7514  -16.9564   25.3717 C   0  0  1  0  0  0  0  0  0  0  0  0
   10.8136  -16.2713   26.3344 C   0  0  0  0  0  0  0  0  0  0  0  0
   11.4663  -15.7295   27.5575 C   0  0  0  0  0  0  0  0  0  0  0  0
   10.4687  -15.0216   28.4257 C   0  0  0  0  0  0  0  0  0  0  0  0
   11.1584  -14.4005   29.6098 C   0  0  0  0  0  0  0  0  0  0  0  0
   10.2116  -13.6713   30.4265 N   0  0  0  0  0  0  0  0  0  0  0  0
   12.4812  -18.0730   25.9690 C   0  0  0  0  0  0  0  0  0  0  0  0
   11.9756  -19.3561   25.9444 O   0  0  0  0  0  0  0  0  0  0  0  0
   13.5880  -17.8867   26.5193 O   0  0  0  0  0  0  0  0  0  0  0  0
  2  4  1  0
  2  1  1  1
  3  2  1  0
  4  5  1  0
  5  6  1  6
  7  5  1  0
  8  7  2  0
 10  9  1  0
 10 12  1  0
 11 10  2  0
 13 12  1  0
 14 13  1  6
 14 15  1  0
 15  7  1  0
 16 18  1  0
 16 14  1  0
 17 16  2  0
 19 25  1  0
 19 18  1  0
 19 20  1  1
 20 21  1  0
 22 21  1  0
 23 22  1  0
 24 23  1  0
 25 26  1  0
 27 25  2  0
M  END
$$$$
