LQK.pdb
     RDKit          3D

 27 26  0  0  1  0  0  0  0  0999 V2000
    6.4059  -12.3903   26.8647 C   0  0  0  0  0  0  0  0  0  0  0  0
    6.7640  -12.6839   25.4252 C   0  0  1  0  0  0  0  0  0  0  0  0
    7.7791  -11.7094   24.8824 C   0  0  0  0  0  0  0  0  0  0  0  0
    7.3766  -14.0660   25.3347 C   0  0  0  0  0  0  0  0  0  0  0  0
    7.8097  -14.2934   23.9182 C   0  0  2  0  0  0  0  0  0  0  0  0
    6.7965  -14.0304   22.9426 N   0  0  0  0  0  0  0  0  0  0  0  0
    8.3590  -15.6618   23.7412 C   0  0  0  0  0  0  0  0  0  0  0  0
    7.8613  -16.6415   24.3411 O   0  0  0  0  0  0  0  0  0  0  0  0
   11.4530  -17.0427   18.5079 N   0  0  0  0  0  0  0  0  0  0  0  0
   11.4528  -18.3025   19.1551 C   0  0  0  0  0  0  0  0  0  0  0  0
   11.8753  -19.3116   18.5728 O   0  0  0  0  0  0  0  0  0  0  0  0
   10.9377  -18.3861   20.5362 C   0  0  0  0  0  0  0  0  0  0  0  0
   10.4561  -17.0983   21.0976 C   0  0  0  0  0  0  0  0  0  0  0  0
    9.8691  -17.2125   22.4855 C   0  0  2  0  0  0  0  0  0  0  0  0
    9.4666  -15.8346   22.8721 N   0  0  0  0  0  0  0  0  0  0  0  0
   10.9262  -17.5794   23.4427 C   0  0  0  0  0  0  0  0  0  0  0  0
   11.6345  -18.6214   23.2349 O   0  0  0  0  0  0  0  0  0  0  0  0
   11.1933  -16.8190   24.5833 N   0  0  0  0  0  0  0  0  0  0  0  0
   12.1915  -17.2431   25.5858 C   0  0  1  0  0  0  0  0  0  0  0  0
   11.4405  -17.2496   26.8940 C   0  0  0  0  0  0  0  0  0  0  0  0
   11.6622  -16.0474   27.7431 C   0  0  0  0  0  0  0  0  0  0  0  0
   10.9453  -16.1804   29.0540 C   0  0  0  0  0  0  0  0  0  0  0  0
   11.2025  -14.9716   29.9122 C   0  0  0  0  0  0  0  0  0  0  0  0
   10.5559  -15.1131   31.1993 N   0  0  0  0  0  0  0  0  0  0  0  0
   12.7785  -18.5384   25.2481 C   0  0  0  0  0  0  0  0  0  0  0  0
   14.1410  -18.7459   25.3063 O   0  0  0  0  0  0  0  0  0  0  0  0
   12.0520  -19.4928   24.8964 O   0  0  0  0  0  0  0  0  0  0  0  0
  2  4  1  0
  2  1  1  1
  3  2  1  0
  4  5  1  0
  5  6  1  6
  7  5  1  0
  8  7  2  0
 10  9  1  0
 10 12  1  0
 11 10  2  0
 13 12  1  0
 14 13  1  6
 14 15  1  0
 15  7  1  0
 16 18  1  0
 16 14  1  0
 17 16  2  0
 19 25  1  0
 19 18  1  0
 19 20  1  1
 20 21  1  0
 22 21  1  0
 23 22  1  0
 24 23  1  0
 25 26  1  0
 27 25  2  0
M  END
$$$$
