LQK.pdb
     RDKit          3D

 27 26  0  0  1  0  0  0  0  0999 V2000
    7.6217  -11.8091   19.7778 C   0  0  0  0  0  0  0  0  0  0  0  0
    8.0739  -13.1978   19.3860 C   0  0  1  0  0  0  0  0  0  0  0  0
    9.4744  -13.2022   18.8262 C   0  0  0  0  0  0  0  0  0  0  0  0
    8.0787  -14.0863   20.6125 C   0  0  0  0  0  0  0  0  0  0  0  0
    8.4900  -15.4639   20.1899 C   0  0  2  0  0  0  0  0  0  0  0  0
    7.6178  -16.0719   19.2322 N   0  0  0  0  0  0  0  0  0  0  0  0
    8.6693  -16.3519   21.3668 C   0  0  0  0  0  0  0  0  0  0  0  0
    7.6918  -16.9222   21.9021 O   0  0  0  0  0  0  0  0  0  0  0  0
   13.8869  -19.5190   22.5168 N   0  0  0  0  0  0  0  0  0  0  0  0
   13.1923  -19.7135   23.7357 C   0  0  0  0  0  0  0  0  0  0  0  0
   13.6826  -20.4069   24.6382 O   0  0  0  0  0  0  0  0  0  0  0  0
   11.8728  -19.0732   23.9058 C   0  0  0  0  0  0  0  0  0  0  0  0
   11.5217  -18.0866   22.8528 C   0  0  0  0  0  0  0  0  0  0  0  0
   10.1764  -17.4272   23.0504 C   0  0  2  0  0  0  0  0  0  0  0  0
    9.9808  -16.5402   21.8735 N   0  0  0  0  0  0  0  0  0  0  0  0
   10.2357  -16.5149   24.2048 C   0  0  0  0  0  0  0  0  0  0  0  0
   11.0244  -15.5111   24.1785 O   0  0  0  0  0  0  0  0  0  0  0  0
    9.4477  -16.7028   25.3425 N   0  0  0  0  0  0  0  0  0  0  0  0
    9.5580  -15.8192   26.5207 C   0  0  1  0  0  0  0  0  0  0  0  0
    8.1895  -15.2011   26.6645 C   0  0  0  0  0  0  0  0  0  0  0  0
    8.0718  -13.8201   26.1219 C   0  0  0  0  0  0  0  0  0  0  0  0
    6.6866  -13.2823   26.3270 C   0  0  0  0  0  0  0  0  0  0  0  0
    6.5800  -11.8917   25.7626 C   0  0  0  0  0  0  0  0  0  0  0  0
    5.2537  -11.3539   25.9791 N   0  0  0  0  0  0  0  0  0  0  0  0
    9.9895  -16.5544   27.7080 C   0  0  0  0  0  0  0  0  0  0  0  0
   10.4289  -15.8976   28.8386 O   0  0  0  0  0  0  0  0  0  0  0  0
    9.9693  -17.8041   27.7234 O   0  0  0  0  0  0  0  0  0  0  0  0
  2  4  1  0
  2  1  1  1
  3  2  1  0
  4  5  1  0
  5  6  1  6
  7  5  1  0
  8  7  2  0
 10  9  1  0
 10 12  1  0
 11 10  2  0
 13 12  1  0
 14 13  1  6
 14 15  1  0
 15  7  1  0
 16 18  1  0
 16 14  1  0
 17 16  2  0
 19 25  1  0
 19 18  1  0
 19 20  1  1
 20 21  1  0
 22 21  1  0
 23 22  1  0
 24 23  1  0
 25 26  1  0
 27 25  2  0
M  END
$$$$
