LQK.pdb
     RDKit          3D

 27 26  0  0  1  0  0  0  0  0999 V2000
    5.1497  -10.9694   26.1557 C   0  0  0  0  0  0  0  0  0  0  0  0
    6.3729  -11.8454   26.3074 C   0  0  1  0  0  0  0  0  0  0  0  0
    6.9120  -11.8293   27.7159 C   0  0  0  0  0  0  0  0  0  0  0  0
    6.0040  -13.2786   25.9851 C   0  0  0  0  0  0  0  0  0  0  0  0
    7.2671  -14.0822   25.9172 C   0  0  2  0  0  0  0  0  0  0  0  0
    8.4525  -13.3449   26.2314 N   0  0  0  0  0  0  0  0  0  0  0  0
    7.4047  -14.7496   24.5976 C   0  0  0  0  0  0  0  0  0  0  0  0
    6.5075  -15.5034   24.1570 O   0  0  0  0  0  0  0  0  0  0  0  0
    9.1346  -15.7551   19.1719 N   0  0  0  0  0  0  0  0  0  0  0  0
    8.0299  -14.8918   19.3729 C   0  0  0  0  0  0  0  0  0  0  0  0
    7.0978  -14.8586   18.5569 O   0  0  0  0  0  0  0  0  0  0  0  0
    8.0147  -14.0335   20.5741 C   0  0  0  0  0  0  0  0  0  0  0  0
    9.1282  -14.2786   21.5257 C   0  0  0  0  0  0  0  0  0  0  0  0
    8.8091  -15.2934   22.5991 C   0  0  2  0  0  0  0  0  0  0  0  0
    8.5825  -14.5122   23.8436 N   0  0  0  0  0  0  0  0  0  0  0  0
   10.0011  -16.1113   22.8788 C   0  0  0  0  0  0  0  0  0  0  0  0
   11.0022  -15.5884   23.4745 O   0  0  0  0  0  0  0  0  0  0  0  0
   10.0801  -17.4584   22.5184 N   0  0  0  0  0  0  0  0  0  0  0  0
   11.2818  -18.2701   22.7981 C   0  0  1  0  0  0  0  0  0  0  0  0
   10.7462  -19.5707   23.3431 C   0  0  0  0  0  0  0  0  0  0  0  0
   11.5287  -20.1391   24.4745 C   0  0  0  0  0  0  0  0  0  0  0  0
   11.0311  -21.5080   24.8331 C   0  0  0  0  0  0  0  0  0  0  0  0
   11.8762  -22.0976   25.9294 C   0  0  0  0  0  0  0  0  0  0  0  0
   11.3976  -23.4153   26.2894 N   0  0  0  0  0  0  0  0  0  0  0  0
   12.1089  -18.4385   21.6049 C   0  0  0  0  0  0  0  0  0  0  0  0
   13.4760  -18.5985   21.6959 O   0  0  0  0  0  0  0  0  0  0  0  0
   11.5901  -18.4409   20.4676 O   0  0  0  0  0  0  0  0  0  0  0  0
  2  4  1  0
  2  1  1  1
  3  2  1  0
  4  5  1  0
  5  6  1  6
  7  5  1  0
  8  7  2  0
 10  9  1  0
 10 12  1  0
 11 10  2  0
 13 12  1  0
 14 13  1  6
 14 15  1  0
 15  7  1  0
 16 18  1  0
 16 14  1  0
 17 16  2  0
 19 25  1  0
 19 18  1  0
 19 20  1  6
 20 21  1  0
 22 21  1  0
 23 22  1  0
 24 23  1  0
 25 26  1  0
 27 25  2  0
M  END
$$$$
