LQK.pdb
     RDKit          3D

 27 26  0  0  1  0  0  0  0  0999 V2000
    7.1351  -11.6625   27.1328 C   0  0  0  0  0  0  0  0  0  0  0  0
    6.5646  -12.5872   26.0812 C   0  0  1  0  0  0  0  0  0  0  0  0
    6.5365  -11.9462   24.7162 C   0  0  0  0  0  0  0  0  0  0  0  0
    7.4338  -13.8232   25.9781 C   0  0  0  0  0  0  0  0  0  0  0  0
    6.7508  -14.8003   25.0702 C   0  0  2  0  0  0  0  0  0  0  0  0
    5.5810  -15.4061   25.6290 N   0  0  0  0  0  0  0  0  0  0  0  0
    7.6987  -15.8407   24.5960 C   0  0  0  0  0  0  0  0  0  0  0  0
    7.7160  -16.9825   25.1090 O   0  0  0  0  0  0  0  0  0  0  0  0
   11.1483  -19.4233   20.8627 N   0  0  0  0  0  0  0  0  0  0  0  0
   10.3871  -18.2657   20.5681 C   0  0  0  0  0  0  0  0  0  0  0  0
    9.2979  -18.3579   19.9842 O   0  0  0  0  0  0  0  0  0  0  0  0
   10.9205  -16.9493   20.9710 C   0  0  0  0  0  0  0  0  0  0  0  0
    9.9391  -16.0626   21.6462 C   0  0  0  0  0  0  0  0  0  0  0  0
    9.4802  -16.5659   22.9952 C   0  0  2  0  0  0  0  0  0  0  0  0
    8.5889  -15.5093   23.5425 N   0  0  0  0  0  0  0  0  0  0  0  0
   10.6232  -16.6130   23.9224 C   0  0  0  0  0  0  0  0  0  0  0  0
   11.5913  -15.7934   23.7759 O   0  0  0  0  0  0  0  0  0  0  0  0
   10.6897  -17.5282   24.9752 N   0  0  0  0  0  0  0  0  0  0  0  0
   11.9181  -17.7067   25.7755 C   0  0  1  0  0  0  0  0  0  0  0  0
   11.5850  -18.8130   26.7454 C   0  0  0  0  0  0  0  0  0  0  0  0
   12.6076  -19.0404   27.8028 C   0  0  0  0  0  0  0  0  0  0  0  0
   12.1767  -20.1331   28.7357 C   0  0  0  0  0  0  0  0  0  0  0  0
   13.2067  -20.3322   29.8141 C   0  0  0  0  0  0  0  0  0  0  0  0
   12.7252  -21.2617   30.8137 N   0  0  0  0  0  0  0  0  0  0  0  0
   13.0734  -18.0044   24.9312 C   0  0  0  0  0  0  0  0  0  0  0  0
   13.0658  -19.0686   24.0536 O   0  0  0  0  0  0  0  0  0  0  0  0
   14.1010  -17.2949   24.9875 O   0  0  0  0  0  0  0  0  0  0  0  0
  2  4  1  0
  2  1  1  1
  3  2  1  0
  4  5  1  0
  5  6  1  1
  7  5  1  0
  8  7  2  0
 10  9  1  0
 10 12  1  0
 11 10  2  0
 13 12  1  0
 14 13  1  6
 14 15  1  0
 15  7  1  0
 16 18  1  0
 16 14  1  0
 17 16  2  0
 19 25  1  0
 19 18  1  0
 19 20  1  1
 20 21  1  0
 22 21  1  0
 23 22  1  0
 24 23  1  0
 25 26  1  0
 27 25  2  0
M  END
$$$$
