LQK.pdb
     RDKit          3D

 27 26  0  0  1  0  0  0  0  0999 V2000
    7.3311  -11.2475   22.4030 C   0  0  0  0  0  0  0  0  0  0  0  0
    7.4459  -12.3407   21.3645 C   0  0  1  0  0  0  0  0  0  0  0  0
    8.6255  -12.1318   20.4481 C   0  0  0  0  0  0  0  0  0  0  0  0
    7.6484  -13.6709   22.0596 C   0  0  0  0  0  0  0  0  0  0  0  0
    7.6836  -14.7439   21.0141 C   0  0  2  0  0  0  0  0  0  0  0  0
    6.4568  -14.9078   20.2960 N   0  0  0  0  0  0  0  0  0  0  0  0
    8.1239  -16.0388   21.5930 C   0  0  0  0  0  0  0  0  0  0  0  0
    7.3025  -16.9521   21.8351 O   0  0  0  0  0  0  0  0  0  0  0  0
   14.2819  -17.7173   21.9155 N   0  0  0  0  0  0  0  0  0  0  0  0
   13.5702  -18.8989   22.2371 C   0  0  0  0  0  0  0  0  0  0  0  0
   14.1329  -20.0027   22.2079 O   0  0  0  0  0  0  0  0  0  0  0  0
   12.1452  -18.7858   22.6063 C   0  0  0  0  0  0  0  0  0  0  0  0
   11.4618  -17.5774   22.0790 C   0  0  0  0  0  0  0  0  0  0  0  0
    9.9752  -17.5436   22.3483 C   0  0  2  0  0  0  0  0  0  0  0  0
    9.5041  -16.2183   21.8669 N   0  0  0  0  0  0  0  0  0  0  0  0
    9.7342  -17.5250   23.8008 C   0  0  0  0  0  0  0  0  0  0  0  0
   10.1440  -16.5366   24.4978 O   0  0  0  0  0  0  0  0  0  0  0  0
    9.0601  -18.5577   24.4563 N   0  0  0  0  0  0  0  0  0  0  0  0
    8.8459  -18.5436   25.9175 C   0  0  1  0  0  0  0  0  0  0  0  0
    7.9831  -19.7508   26.1890 C   0  0  0  0  0  0  0  0  0  0  0  0
    7.7397  -20.0283   27.6310 C   0  0  0  0  0  0  0  0  0  0  0  0
    6.9850  -21.3126   27.8072 C   0  0  0  0  0  0  0  0  0  0  0  0
    6.6192  -21.5063   29.2537 C   0  0  0  0  0  0  0  0  0  0  0  0
    5.7072  -22.6201   29.4043 N   0  0  0  0  0  0  0  0  0  0  0  0
   10.1115  -18.5594   26.6485 C   0  0  0  0  0  0  0  0  0  0  0  0
   11.2077  -19.2472   26.1708 O   0  0  0  0  0  0  0  0  0  0  0  0
   10.2277  -17.9450   27.7308 O   0  0  0  0  0  0  0  0  0  0  0  0
  2  4  1  0
  2  1  1  1
  3  2  1  0
  4  5  1  0
  5  6  1  1
  7  5  1  0
  8  7  2  0
 10  9  1  0
 10 12  1  0
 11 10  2  0
 13 12  1  0
 14 13  1  1
 14 15  1  0
 15  7  1  0
 16 18  1  0
 16 14  1  0
 17 16  2  0
 19 25  1  0
 19 18  1  0
 19 20  1  1
 20 21  1  0
 22 21  1  0
 23 22  1  0
 24 23  1  0
 25 26  1  0
 27 25  2  0
M  END
$$$$
