LQK.pdb
     RDKit          3D

 27 26  0  0  1  0  0  0  0  0999 V2000
    6.6715  -12.8866   18.3827 C   0  0  0  0  0  0  0  0  0  0  0  0
    7.9971  -13.5190   18.7428 C   0  0  1  0  0  0  0  0  0  0  0  0
    9.0642  -12.4874   19.0108 C   0  0  0  0  0  0  0  0  0  0  0  0
    7.8341  -14.3344   20.0087 C   0  0  0  0  0  0  0  0  0  0  0  0
    9.1994  -14.6665   20.5296 C   0  0  2  0  0  0  0  0  0  0  0  0
   10.0337  -15.3600   19.5966 N   0  0  0  0  0  0  0  0  0  0  0  0
    9.1147  -15.4168   21.8085 C   0  0  0  0  0  0  0  0  0  0  0  0
    8.2164  -15.1704   22.6450 O   0  0  0  0  0  0  0  0  0  0  0  0
   12.9688  -20.3021   23.0973 N   0  0  0  0  0  0  0  0  0  0  0  0
   12.0782  -20.3353   24.1982 C   0  0  0  0  0  0  0  0  0  0  0  0
   12.2025  -21.1915   25.0854 O   0  0  0  0  0  0  0  0  0  0  0  0
   10.9999  -19.3289   24.2638 C   0  0  0  0  0  0  0  0  0  0  0  0
   10.9883  -18.3580   23.1401 C   0  0  0  0  0  0  0  0  0  0  0  0
    9.8940  -17.3200   23.2341 C   0  0  2  0  0  0  0  0  0  0  0  0
   10.0801  -16.4247   22.0620 N   0  0  0  0  0  0  0  0  0  0  0  0
   10.1254  -16.4597   24.4066 C   0  0  0  0  0  0  0  0  0  0  0  0
   11.1724  -15.7307   24.4601 O   0  0  0  0  0  0  0  0  0  0  0  0
    9.2294  -16.4037   25.4765 N   0  0  0  0  0  0  0  0  0  0  0  0
    9.4654  -15.5320   26.6451 C   0  0  1  0  0  0  0  0  0  0  0  0
    8.1392  -14.8571   26.8926 C   0  0  0  0  0  0  0  0  0  0  0  0
    8.0772  -13.4336   26.4624 C   0  0  0  0  0  0  0  0  0  0  0  0
    6.7286  -12.8458   26.7556 C   0  0  0  0  0  0  0  0  0  0  0  0
    6.6521  -11.4357   26.2363 C   0  0  0  0  0  0  0  0  0  0  0  0
    5.3163  -10.9034   26.4014 N   0  0  0  0  0  0  0  0  0  0  0  0
    9.9528  -16.2914   27.7949 C   0  0  0  0  0  0  0  0  0  0  0  0
   10.6699  -15.6838   28.8045 O   0  0  0  0  0  0  0  0  0  0  0  0
    9.7282  -17.5175   27.8878 O   0  0  0  0  0  0  0  0  0  0  0  0
  2  4  1  0
  2  1  1  1
  3  2  1  0
  4  5  1  0
  5  6  1  6
  7  5  1  0
  8  7  2  0
 10  9  1  0
 10 12  1  0
 11 10  2  0
 13 12  1  0
 14 13  1  6
 14 15  1  0
 15  7  1  0
 16 18  1  0
 16 14  1  0
 17 16  2  0
 19 25  1  0
 19 18  1  0
 19 20  1  1
 20 21  1  0
 22 21  1  0
 23 22  1  0
 24 23  1  0
 25 26  1  0
 27 25  2  0
M  END
$$$$
