QMQ.pdb
     RDKit          3D

 27 26  0  0  1  0  0  0  0  0999 V2000
   28.1810  -21.2819  -18.4709 N   0  0  0  0  0  0  0  0  0  0  0  0
   29.3595  -20.6062  -18.0750 C   0  0  0  0  0  0  0  0  0  0  0  0
   30.1030  -20.1251  -18.9549 O   0  0  0  0  0  0  0  0  0  0  0  0
   29.6577  -20.5034  -16.6523 C   0  0  0  0  0  0  0  0  0  0  0  0
   28.6611  -21.1089  -15.7191 C   0  0  0  0  0  0  0  0  0  0  0  0
   27.6995  -20.1742  -15.0744 C   0  0  2  0  0  0  0  0  0  0  0  0
   28.2926  -18.9892  -14.5269 N   0  0  0  0  0  0  0  0  0  0  0  0
   26.8356  -20.8605  -14.0688 C   0  0  0  0  0  0  0  0  0  0  0  0
   26.1346  -21.8537  -14.4438 O   0  0  0  0  0  0  0  0  0  0  0  0
   26.7229  -19.4007   -7.6992 C   0  0  0  0  0  0  0  0  0  0  0  0
   25.8011  -20.9485   -7.7217 S   0  0  0  0  0  0  0  0  0  0  0  0
   25.1820  -21.2447   -9.3987 C   0  0  0  0  0  0  0  0  0  0  0  0
   26.1402  -20.6023  -10.3821 C   0  0  0  0  0  0  0  0  0  0  0  0
   25.7850  -21.0626  -11.7979 C   0  0  2  0  0  0  0  0  0  0  0  0
   26.7281  -20.4957  -12.7153 N   0  0  0  0  0  0  0  0  0  0  0  0
   24.3967  -20.7092  -12.0453 C   0  0  0  0  0  0  0  0  0  0  0  0
   24.0532  -19.5140  -12.1039 O   0  0  0  0  0  0  0  0  0  0  0  0
   20.7457  -24.6788  -14.8412 N   0  0  0  0  0  0  0  0  0  0  0  0
   19.7400  -23.7277  -14.5562 C   0  0  0  0  0  0  0  0  0  0  0  0
   18.5865  -23.8980  -14.9710 O   0  0  0  0  0  0  0  0  0  0  0  0
   20.0955  -22.5258  -13.7523 C   0  0  0  0  0  0  0  0  0  0  0  0
   21.5457  -22.6211  -13.3851 C   0  0  0  0  0  0  0  0  0  0  0  0
   22.0609  -21.4059  -12.6899 C   0  0  2  0  0  0  0  0  0  0  0  0
   23.4283  -21.7178  -12.2207 N   0  0  0  0  0  0  0  0  0  0  0  0
   21.2700  -20.9414  -11.5599 C   0  0  0  0  0  0  0  0  0  0  0  0
   21.3833  -21.4830  -10.4336 O   0  0  0  0  0  0  0  0  0  0  0  0
   20.3767  -19.8977  -11.6855 O   0  0  0  0  0  0  0  0  0  0  0  0
  1  2  1  0
  2  3  2  0
  4  5  1  0
  4  2  1  0
  6  5  1  0
  6  7  1  1
  8  6  1  0
  9  8  2  0
 11 10  1  0
 12 11  1  0
 13 12  1  0
 14 13  1  1
 14 15  1  0
 15  8  1  0
 16 14  1  0
 16 24  1  0
 17 16  2  0
 19 21  1  0
 19 18  1  0
 20 19  2  0
 22 21  1  0
 23 22  1  1
 23 24  1  0
 23 25  1  0
 25 27  1  0
 26 25  2  0
M  END
$$$$
