QMQ.pdb
     RDKit          3D

 27 26  0  0  1  0  0  0  0  0999 V2000
   28.9805  -16.8139  -17.3818 N   0  0  0  0  0  0  0  0  0  0  0  0
   27.9015  -16.8688  -18.2955 C   0  0  0  0  0  0  0  0  0  0  0  0
   28.0510  -16.3813  -19.4349 O   0  0  0  0  0  0  0  0  0  0  0  0
   26.6563  -17.4913  -17.8646 C   0  0  0  0  0  0  0  0  0  0  0  0
   26.6316  -18.0344  -16.4735 C   0  0  0  0  0  0  0  0  0  0  0  0
   27.0141  -19.4629  -16.3098 C   0  0  2  0  0  0  0  0  0  0  0  0
   27.1071  -20.2016  -17.5352 N   0  0  0  0  0  0  0  0  0  0  0  0
   26.1485  -20.1675  -15.3184 C   0  0  0  0  0  0  0  0  0  0  0  0
   25.2768  -20.9897  -15.7459 O   0  0  0  0  0  0  0  0  0  0  0  0
   24.5530  -21.6162   -7.7172 C   0  0  0  0  0  0  0  0  0  0  0  0
   25.5106  -20.6597   -8.9064 S   0  0  0  0  0  0  0  0  0  0  0  0
   24.9103  -21.0206  -10.5775 C   0  0  0  0  0  0  0  0  0  0  0  0
   25.8502  -20.3705  -11.5734 C   0  0  0  0  0  0  0  0  0  0  0  0
   25.3288  -20.6238  -12.9900 C   0  0  2  0  0  0  0  0  0  0  0  0
   26.2153  -19.9966  -13.9246 N   0  0  0  0  0  0  0  0  0  0  0  0
   23.9507  -20.1644  -13.0453 C   0  0  0  0  0  0  0  0  0  0  0  0
   23.6917  -18.9473  -13.0080 O   0  0  0  0  0  0  0  0  0  0  0  0
   20.0525  -22.6208  -16.6571 N   0  0  0  0  0  0  0  0  0  0  0  0
   19.0784  -21.8807  -15.9496 C   0  0  0  0  0  0  0  0  0  0  0  0
   17.9015  -21.8749  -16.3324 O   0  0  0  0  0  0  0  0  0  0  0  0
   19.4954  -21.1140  -14.7432 C   0  0  0  0  0  0  0  0  0  0  0  0
   20.9537  -21.3693  -14.5080 C   0  0  0  0  0  0  0  0  0  0  0  0
   21.4929  -20.6598  -13.3116 C   0  0  2  0  0  0  0  0  0  0  0  0
   22.8962  -21.0944  -13.1417 N   0  0  0  0  0  0  0  0  0  0  0  0
   20.7756  -20.8870  -12.0657 C   0  0  0  0  0  0  0  0  0  0  0  0
   21.0096  -21.9041  -11.3688 O   0  0  0  0  0  0  0  0  0  0  0  0
   19.8226  -19.9997  -11.6102 O   0  0  0  0  0  0  0  0  0  0  0  0
  1  2  1  0
  2  3  2  0
  4  5  1  0
  4  2  1  0
  6  5  1  0
  6  7  1  6
  8  6  1  0
  9  8  2  0
 11 10  1  0
 12 11  1  0
 13 12  1  0
 14 13  1  1
 14 15  1  0
 15  8  1  0
 16 14  1  0
 16 24  1  0
 17 16  2  0
 19 21  1  0
 19 18  1  0
 20 19  2  0
 22 21  1  0
 23 22  1  6
 23 24  1  0
 23 25  1  0
 25 27  1  0
 26 25  2  0
M  END
$$$$
