QMQ.pdb
     RDKit          3D

 27 26  0  0  1  0  0  0  0  0999 V2000
   27.2814  -19.9320  -20.4790 N   0  0  0  0  0  0  0  0  0  0  0  0
   27.9323  -19.8248  -21.7307 C   0  0  0  0  0  0  0  0  0  0  0  0
   28.5624  -20.8094  -22.1688 O   0  0  0  0  0  0  0  0  0  0  0  0
   27.8420  -18.5640  -22.4560 C   0  0  0  0  0  0  0  0  0  0  0  0
   27.1097  -17.4558  -21.7731 C   0  0  0  0  0  0  0  0  0  0  0  0
   27.9058  -16.2486  -21.4228 C   0  0  2  0  0  0  0  0  0  0  0  0
   29.1102  -16.5173  -20.6927 N   0  0  0  0  0  0  0  0  0  0  0  0
   27.0806  -15.2086  -20.7402 C   0  0  0  0  0  0  0  0  0  0  0  0
   25.8326  -15.4138  -20.6030 O   0  0  0  0  0  0  0  0  0  0  0  0
   26.5668  -10.0175  -15.0172 C   0  0  0  0  0  0  0  0  0  0  0  0
   27.5948  -11.1234  -16.0002 S   0  0  0  0  0  0  0  0  0  0  0  0
   26.6502  -11.6862  -17.4404 C   0  0  0  0  0  0  0  0  0  0  0  0
   27.5071  -12.6624  -18.2219 C   0  0  0  0  0  0  0  0  0  0  0  0
   26.7819  -13.0372  -19.5166 C   0  0  2  0  0  0  0  0  0  0  0  0
   27.5746  -13.9971  -20.2256 N   0  0  0  0  0  0  0  0  0  0  0  0
   26.5064  -11.8088  -20.2436 C   0  0  0  0  0  0  0  0  0  0  0  0
   27.3709  -11.3124  -20.9894 O   0  0  0  0  0  0  0  0  0  0  0  0
   21.0316  -10.6945  -22.2715 N   0  0  0  0  0  0  0  0  0  0  0  0
   21.5920   -9.4749  -22.7141 C   0  0  0  0  0  0  0  0  0  0  0  0
   20.9337   -8.7115  -23.4320 O   0  0  0  0  0  0  0  0  0  0  0  0
   22.9807   -9.1312  -22.3013 C   0  0  0  0  0  0  0  0  0  0  0  0
   23.5022  -10.2436  -21.4425 C   0  0  0  0  0  0  0  0  0  0  0  0
   24.8885  -10.0068  -20.9451 C   0  0  2  0  0  0  0  0  0  0  0  0
   25.2575  -11.1699  -20.1096 N   0  0  0  0  0  0  0  0  0  0  0  0
   25.0826   -8.7901  -20.1702 C   0  0  0  0  0  0  0  0  0  0  0  0
   25.0831   -8.8235  -18.9157 O   0  0  0  0  0  0  0  0  0  0  0  0
   25.2724   -7.5683  -20.7818 O   0  0  0  0  0  0  0  0  0  0  0  0
  1  2  1  0
  2  3  2  0
  4  5  1  0
  4  2  1  0
  6  5  1  0
  6  7  1  1
  8  6  1  0
  9  8  2  0
 11 10  1  0
 12 11  1  0
 13 12  1  0
 14 13  1  1
 14 15  1  0
 15  8  1  0
 16 14  1  0
 16 24  1  0
 17 16  2  0
 19 21  1  0
 19 18  1  0
 20 19  2  0
 22 21  1  0
 23 22  1  1
 23 24  1  0
 23 25  1  0
 25 27  1  0
 26 25  2  0
M  END
$$$$
