QMQ.pdb
     RDKit          3D

 27 26  0  0  1  0  0  0  0  0999 V2000
   27.6402  -36.3892  -16.4640 N   0  0  0  0  0  0  0  0  0  0  0  0
   28.2676  -35.2886  -15.8340 C   0  0  0  0  0  0  0  0  0  0  0  0
   29.4904  -35.3502  -15.5903 O   0  0  0  0  0  0  0  0  0  0  0  0
   27.4561  -34.1273  -15.4923 C   0  0  0  0  0  0  0  0  0  0  0  0
   27.4917  -33.6888  -14.0650 C   0  0  0  0  0  0  0  0  0  0  0  0
   26.3371  -34.0897  -13.2165 C   0  0  2  0  0  0  0  0  0  0  0  0
   25.0595  -33.6542  -13.7001 N   0  0  0  0  0  0  0  0  0  0  0  0
   26.5314  -33.7104  -11.7858 C   0  0  0  0  0  0  0  0  0  0  0  0
   27.5991  -34.0751  -11.1980 O   0  0  0  0  0  0  0  0  0  0  0  0
   23.0632  -29.2814   -8.7041 C   0  0  0  0  0  0  0  0  0  0  0  0
   22.1977  -30.7517   -9.2828 S   0  0  0  0  0  0  0  0  0  0  0  0
   23.4122  -32.0383   -9.6741 C   0  0  0  0  0  0  0  0  0  0  0  0
   24.7845  -31.5395   -9.2667 C   0  0  0  0  0  0  0  0  0  0  0  0
   25.8310  -32.5876   -9.6526 C   0  0  2  0  0  0  0  0  0  0  0  0
   25.6167  -32.9700  -11.0166 N   0  0  0  0  0  0  0  0  0  0  0  0
   25.7498  -33.6730   -8.6889 C   0  0  0  0  0  0  0  0  0  0  0  0
   25.0676  -34.6843   -8.9372 O   0  0  0  0  0  0  0  0  0  0  0  0
   28.3541  -37.7201   -7.9874 N   0  0  0  0  0  0  0  0  0  0  0  0
   28.2265  -37.8412   -6.5851 C   0  0  0  0  0  0  0  0  0  0  0  0
   28.3990  -38.9370   -6.0366 O   0  0  0  0  0  0  0  0  0  0  0  0
   27.8826  -36.6312   -5.7883 C   0  0  0  0  0  0  0  0  0  0  0  0
   27.7067  -35.4823   -6.7350 C   0  0  0  0  0  0  0  0  0  0  0  0
   26.4524  -34.7095   -6.5006 C   0  0  2  0  0  0  0  0  0  0  0  0
   26.4434  -33.5885   -7.4651 N   0  0  0  0  0  0  0  0  0  0  0  0
   26.2805  -34.1763   -5.1573 C   0  0  0  0  0  0  0  0  0  0  0  0
   26.6333  -33.0033   -4.8844 O   0  0  0  0  0  0  0  0  0  0  0  0
   25.7274  -34.9341   -4.1459 O   0  0  0  0  0  0  0  0  0  0  0  0
  1  2  1  0
  2  3  2  0
  4  5  1  0
  4  2  1  0
  6  5  1  0
  6  7  1  6
  8  6  1  0
  9  8  2  0
 11 10  1  0
 12 11  1  0
 13 12  1  0
 14 13  1  1
 14 15  1  0
 15  8  1  0
 16 14  1  0
 16 24  1  0
 17 16  2  0
 19 21  1  0
 19 18  1  0
 20 19  2  0
 22 21  1  0
 23 22  1  1
 23 24  1  0
 23 25  1  0
 25 27  1  0
 26 25  2  0
M  END
$$$$
