QMQ.pdb
     RDKit          3D

 27 26  0  0  1  0  0  0  0  0999 V2000
   28.0800  -17.1274  -14.9313 N   0  0  0  0  0  0  0  0  0  0  0  0
   28.4113  -17.4584  -16.2665 C   0  0  0  0  0  0  0  0  0  0  0  0
   29.2730  -16.7778  -16.8602 O   0  0  0  0  0  0  0  0  0  0  0  0
   27.7274  -18.5815  -16.8948 C   0  0  0  0  0  0  0  0  0  0  0  0
   26.7985  -19.3642  -16.0258 C   0  0  0  0  0  0  0  0  0  0  0  0
   27.4259  -20.2317  -14.9927 C   0  0  2  0  0  0  0  0  0  0  0  0
   28.3790  -21.1744  -15.5013 N   0  0  0  0  0  0  0  0  0  0  0  0
   26.4102  -20.9029  -14.1287 C   0  0  0  0  0  0  0  0  0  0  0  0
   25.9635  -22.0399  -14.4838 O   0  0  0  0  0  0  0  0  0  0  0  0
   27.8358  -20.6721   -7.6785 C   0  0  0  0  0  0  0  0  0  0  0  0
   26.2339  -20.2757   -8.4015 S   0  0  0  0  0  0  0  0  0  0  0  0
   26.1639  -20.9395  -10.0861 C   0  0  0  0  0  0  0  0  0  0  0  0
   24.8917  -20.4416  -10.7431 C   0  0  0  0  0  0  0  0  0  0  0  0
   24.8315  -20.9705  -12.1781 C   0  0  2  0  0  0  0  0  0  0  0  0
   25.8945  -20.3753  -12.9319 N   0  0  0  0  0  0  0  0  0  0  0  0
   23.4953  -20.7149  -12.6906 C   0  0  0  0  0  0  0  0  0  0  0  0
   23.1940  -19.5882  -13.1263 O   0  0  0  0  0  0  0  0  0  0  0  0
   19.6000  -25.2402  -14.0880 N   0  0  0  0  0  0  0  0  0  0  0  0
   18.6896  -24.1726  -14.2579 C   0  0  0  0  0  0  0  0  0  0  0  0
   17.5376  -24.3936  -14.6523 O   0  0  0  0  0  0  0  0  0  0  0  0
   19.1430  -22.7872  -13.9543 C   0  0  0  0  0  0  0  0  0  0  0  0
   20.5566  -22.8555  -13.4603 C   0  0  0  0  0  0  0  0  0  0  0  0
   21.1617  -21.5147  -13.2118 C   0  0  2  0  0  0  0  0  0  0  0  0
   22.5298  -21.7415  -12.6981 N   0  0  0  0  0  0  0  0  0  0  0  0
   20.4435  -20.6607  -12.2774 C   0  0  0  0  0  0  0  0  0  0  0  0
   20.6722  -20.7258  -11.0452 O   0  0  0  0  0  0  0  0  0  0  0  0
   19.4954  -19.7566  -12.7094 O   0  0  0  0  0  0  0  0  0  0  0  0
  1  2  1  0
  2  3  2  0
  4  5  1  0
  4  2  1  0
  6  5  1  0
  6  7  1  6
  8  6  1  0
  9  8  2  0
 11 10  1  0
 12 11  1  0
 13 12  1  0
 14 13  1  1
 14 15  1  0
 15  8  1  0
 16 14  1  0
 16 24  1  0
 17 16  2  0
 19 21  1  0
 19 18  1  0
 20 19  2  0
 22 21  1  0
 23 22  1  1
 23 24  1  0
 23 25  1  0
 25 27  1  0
 26 25  2  0
M  END
$$$$
