QMQ.pdb
     RDKit          3D

 27 26  0  0  1  0  0  0  0  0999 V2000
   26.9190  -18.5600  -18.1733 N   0  0  0  0  0  0  0  0  0  0  0  0
   28.1119  -17.9848  -17.6754 C   0  0  0  0  0  0  0  0  0  0  0  0
   28.8127  -17.2921  -18.4417 O   0  0  0  0  0  0  0  0  0  0  0  0
   28.4746  -18.2294  -16.2852 C   0  0  0  0  0  0  0  0  0  0  0  0
   27.4789  -18.9774  -15.4606 C   0  0  0  0  0  0  0  0  0  0  0  0
   27.9205  -20.2873  -14.9102 C   0  0  2  0  0  0  0  0  0  0  0  0
   28.3836  -21.2235  -15.8924 N   0  0  0  0  0  0  0  0  0  0  0  0
   26.8893  -20.9012  -14.0223 C   0  0  0  0  0  0  0  0  0  0  0  0
   25.9837  -21.6234  -14.5485 O   0  0  0  0  0  0  0  0  0  0  0  0
   26.0453  -19.4178   -7.5453 C   0  0  0  0  0  0  0  0  0  0  0  0
   25.3682  -21.0759   -7.7405 S   0  0  0  0  0  0  0  0  0  0  0  0
   24.9111  -21.3285   -9.4756 C   0  0  0  0  0  0  0  0  0  0  0  0
   26.0779  -20.9012  -10.3440 C   0  0  0  0  0  0  0  0  0  0  0  0
   25.7303  -21.1643  -11.8112 C   0  0  2  0  0  0  0  0  0  0  0  0
   26.8320  -20.7463  -12.6262 N   0  0  0  0  0  0  0  0  0  0  0  0
   24.4682  -20.5011  -12.0950 C   0  0  0  0  0  0  0  0  0  0  0  0
   24.4156  -19.2603  -12.1816 O   0  0  0  0  0  0  0  0  0  0  0  0
   22.9738  -20.7714  -16.5396 N   0  0  0  0  0  0  0  0  0  0  0  0
   22.3117  -19.5736  -16.1872 C   0  0  0  0  0  0  0  0  0  0  0  0
   22.2791  -18.6238  -16.9800 O   0  0  0  0  0  0  0  0  0  0  0  0
   21.6593  -19.4798  -14.8520 C   0  0  0  0  0  0  0  0  0  0  0  0
   21.8714  -20.7794  -14.1357 C   0  0  0  0  0  0  0  0  0  0  0  0
   22.0138  -20.6244  -12.6588 C   0  0  2  0  0  0  0  0  0  0  0  0
   23.2933  -21.2585  -12.2745 N   0  0  0  0  0  0  0  0  0  0  0  0
   20.9438  -21.1995  -11.8570 C   0  0  0  0  0  0  0  0  0  0  0  0
   21.0929  -22.3108  -11.2935 O   0  0  0  0  0  0  0  0  0  0  0  0
   19.7393  -20.5485  -11.6886 O   0  0  0  0  0  0  0  0  0  0  0  0
  1  2  1  0
  2  3  2  0
  4  5  1  0
  4  2  1  0
  6  5  1  0
  6  7  1  6
  8  6  1  0
  9  8  2  0
 11 10  1  0
 12 11  1  0
 13 12  1  0
 14 13  1  1
 14 15  1  0
 15  8  1  0
 16 14  1  0
 16 24  1  0
 17 16  2  0
 19 21  1  0
 19 18  1  0
 20 19  2  0
 22 21  1  0
 23 22  1  6
 23 24  1  0
 23 25  1  0
 25 27  1  0
 26 25  2  0
M  END
$$$$
