QMQ.pdb
     RDKit          3D

 27 26  0  0  1  0  0  0  0  0999 V2000
   29.5897  -23.2283  -17.3224 N   0  0  0  0  0  0  0  0  0  0  0  0
   28.8272  -22.7516  -16.2300 C   0  0  0  0  0  0  0  0  0  0  0  0
   27.8581  -23.4293  -15.8299 O   0  0  0  0  0  0  0  0  0  0  0  0
   29.2048  -21.4837  -15.6187 C   0  0  0  0  0  0  0  0  0  0  0  0
   28.0854  -20.5786  -15.2208 C   0  0  0  0  0  0  0  0  0  0  0  0
   27.1439  -20.1710  -16.2984 C   0  0  2  0  0  0  0  0  0  0  0  0
   27.7576  -19.4998  -17.4069 N   0  0  0  0  0  0  0  0  0  0  0  0
   25.9856  -19.3921  -15.7691 C   0  0  0  0  0  0  0  0  0  0  0  0
   25.3278  -19.8676  -14.7895 O   0  0  0  0  0  0  0  0  0  0  0  0
   27.1983  -12.8706  -15.6107 C   0  0  0  0  0  0  0  0  0  0  0  0
   25.7291  -13.6587  -16.2938 S   0  0  0  0  0  0  0  0  0  0  0  0
   25.6888  -15.3925  -15.7687 C   0  0  0  0  0  0  0  0  0  0  0  0
   24.4216  -16.0256  -16.3084 C   0  0  0  0  0  0  0  0  0  0  0  0
   24.3568  -17.4835  -15.8469 C   0  0  2  0  0  0  0  0  0  0  0  0
   25.5505  -18.1529  -16.2707 N   0  0  0  0  0  0  0  0  0  0  0  0
   23.1186  -18.0549  -16.3509 C   0  0  0  0  0  0  0  0  0  0  0  0
   23.1453  -18.9433  -17.2226 O   0  0  0  0  0  0  0  0  0  0  0  0
   21.2097  -21.3693  -12.9687 N   0  0  0  0  0  0  0  0  0  0  0  0
   20.2801  -21.7271  -13.9712 C   0  0  0  0  0  0  0  0  0  0  0  0
   19.5910  -22.7474  -13.8457 O   0  0  0  0  0  0  0  0  0  0  0  0
   20.1487  -20.8568  -15.1723 C   0  0  0  0  0  0  0  0  0  0  0  0
   21.1079  -19.7139  -15.0287 C   0  0  0  0  0  0  0  0  0  0  0  0
   20.7002  -18.4999  -15.7939 C   0  0  2  0  0  0  0  0  0  0  0  0
   21.8775  -17.6070  -15.8560 N   0  0  0  0  0  0  0  0  0  0  0  0
   19.5742  -17.7571  -15.2473 C   0  0  0  0  0  0  0  0  0  0  0  0
   19.7564  -16.8540  -14.3952 O   0  0  0  0  0  0  0  0  0  0  0  0
   18.2787  -18.0162  -15.6441 O   0  0  0  0  0  0  0  0  0  0  0  0
  1  2  1  0
  2  3  2  0
  4  5  1  0
  4  2  1  0
  6  5  1  0
  6  7  1  6
  8  6  1  0
  9  8  2  0
 11 10  1  0
 12 11  1  0
 13 12  1  0
 14 13  1  6
 14 15  1  0
 15  8  1  0
 16 14  1  0
 16 24  1  0
 17 16  2  0
 19 21  1  0
 19 18  1  0
 20 19  2  0
 22 21  1  0
 23 22  1  1
 23 24  1  0
 23 25  1  0
 25 27  1  0
 26 25  2  0
M  END
$$$$
