QMQ.pdb
     RDKit          3D

 27 26  0  0  1  0  0  0  0  0999 V2000
   18.4914  -15.7877  -16.0201 N   0  0  0  0  0  0  0  0  0  0  0  0
   19.0288  -16.4856  -17.1273 C   0  0  0  0  0  0  0  0  0  0  0  0
   18.6848  -17.6704  -17.3178 O   0  0  0  0  0  0  0  0  0  0  0  0
   19.9669  -15.7902  -17.9992 C   0  0  0  0  0  0  0  0  0  0  0  0
   20.1609  -14.3325  -17.7383 C   0  0  0  0  0  0  0  0  0  0  0  0
   21.1632  -13.6322  -18.5860 C   0  0  2  0  0  0  0  0  0  0  0  0
   21.7815  -14.4546  -19.5845 N   0  0  0  0  0  0  0  0  0  0  0  0
   22.1853  -12.9118  -17.7705 C   0  0  0  0  0  0  0  0  0  0  0  0
   21.7892  -12.0837  -16.8897 O   0  0  0  0  0  0  0  0  0  0  0  0
   29.7887  -12.0697  -15.8048 C   0  0  0  0  0  0  0  0  0  0  0  0
   28.5585  -12.9774  -16.7579 S   0  0  0  0  0  0  0  0  0  0  0  0
   26.9275  -12.2411  -16.4735 C   0  0  0  0  0  0  0  0  0  0  0  0
   25.9145  -12.9806  -17.3249 C   0  0  0  0  0  0  0  0  0  0  0  0
   24.5469  -12.3118  -17.1668 C   0  0  2  0  0  0  0  0  0  0  0  0
   23.5763  -13.0734  -17.8952 N   0  0  0  0  0  0  0  0  0  0  0  0
   24.6792  -10.9250  -17.5823 C   0  0  0  0  0  0  0  0  0  0  0  0
   24.8255  -10.6405  -18.7854 O   0  0  0  0  0  0  0  0  0  0  0  0
   21.7818   -6.6923  -14.5289 N   0  0  0  0  0  0  0  0  0  0  0  0
   22.5084   -5.7844  -15.3322 C   0  0  0  0  0  0  0  0  0  0  0  0
   22.2911   -4.5688  -15.2502 O   0  0  0  0  0  0  0  0  0  0  0  0
   23.5330   -6.3180  -16.2717 C   0  0  0  0  0  0  0  0  0  0  0  0
   23.6180   -7.8019  -16.0774 C   0  0  0  0  0  0  0  0  0  0  0  0
   24.5586   -8.4694  -17.0236 C   0  0  2  0  0  0  0  0  0  0  0  0
   24.6430   -9.8911  -16.6253 N   0  0  0  0  0  0  0  0  0  0  0  0
   25.9031   -7.9142  -17.0748 C   0  0  0  0  0  0  0  0  0  0  0  0
   26.8073   -8.3572  -16.3258 O   0  0  0  0  0  0  0  0  0  0  0  0
   26.2283   -6.8916  -17.9416 O   0  0  0  0  0  0  0  0  0  0  0  0
  1  2  1  0
  2  3  2  0
  4  5  1  0
  4  2  1  0
  6  5  1  0
  6  7  1  1
  8  6  1  0
  9  8  2  0
 11 10  1  0
 12 11  1  0
 13 12  1  0
 14 13  1  6
 14 15  1  0
 15  8  1  0
 16 14  1  0
 16 24  1  0
 17 16  2  0
 19 21  1  0
 19 18  1  0
 20 19  2  0
 22 21  1  0
 23 22  1  1
 23 24  1  0
 23 25  1  0
 25 27  1  0
 26 25  2  0
M  END
$$$$
