TRG.pdb
     RDKit          3D

 23 22  0  0  1  0  0  0  0  0999 V2000
   10.0111  -18.8982   24.5908 C   0  0  0  0  0  0  0  0  0  0  0  0
    9.2784  -19.9154   23.7375 C   0  0  1  0  0  0  0  0  0  0  0  0
    8.8209  -20.9339   24.5749 O   0  0  0  0  0  0  0  0  0  0  0  0
    8.0861  -19.2367   23.1184 C   0  0  2  0  0  0  0  0  0  0  0  0
    7.2902  -20.1923   22.4097 N   0  0  0  0  0  0  0  0  0  0  0  0
    8.5593  -18.1729   22.1799 C   0  0  0  0  0  0  0  0  0  0  0  0
    9.1734  -18.4531   21.1238 O   0  0  0  0  0  0  0  0  0  0  0  0
    8.0671  -15.4248   17.9585 N   0  0  0  0  0  0  0  0  0  0  0  0
    8.3516  -14.0687   17.5826 C   0  0  0  0  0  0  0  0  0  0  0  0
    8.9059  -13.8550   16.4626 N   0  0  0  0  0  0  0  0  0  0  0  0
    8.0171  -12.9893   18.4496 N   0  0  0  0  0  0  0  0  0  0  0  0
    7.3523  -13.2299   19.6989 C   0  0  0  0  0  0  0  0  0  0  0  0
    8.2934  -13.4041   20.8699 C   0  0  0  0  0  0  0  0  0  0  0  0
    7.8598  -14.5650   21.7355 C   0  0  0  0  0  0  0  0  0  0  0  0
    8.7874  -15.7322   21.6479 C   0  0  2  0  0  0  0  0  0  0  0  0
    8.3157  -16.8041   22.4774 N   0  0  0  0  0  0  0  0  0  0  0  0
   10.1813  -15.3927   21.9982 C   0  0  0  0  0  0  0  0  0  0  0  0
   10.4132  -14.8833   23.1191 O   0  0  0  0  0  0  0  0  0  0  0  0
    9.0659  -12.8816   16.1361 N   0  0  0  0  0  0  0  0  0  0  0  0
   11.2752  -15.6253   21.1039 C   0  0  0  0  0  0  0  0  0  0  0  0
   12.5922  -15.1940   21.5244 C   0  0  0  0  0  0  0  0  0  0  0  0
   13.5969  -15.3233   20.4674 O   0  0  0  0  0  0  0  0  0  0  0  0
   13.5723  -16.3035   19.6936 O   0  0  0  0  0  0  0  0  0  0  0  0
  2  1  1  1
  2  3  1  0
  4  6  1  0
  4  2  1  0
  4  5  1  6
  6  7  2  0
  9 11  1  0
  9  8  1  0
 10  9  2  0
 12 11  1  0
 12 13  1  0
 13 14  1  0
 15 14  1  1
 15 17  1  0
 16 15  1  0
 16  6  1  0
 17 19  1  0
 17 18  2  0
 19 20  1  0
 20 21  1  0
 21 22  2  0
 21 23  1  0
M  END
$$$$
