TRG.pdb
     RDKit          3D

 23 22  0  0  1  0  0  0  0  0999 V2000
   11.0937  -20.0911   16.5513 C   0  0  0  0  0  0  0  0  0  0  0  0
   11.2805  -19.0805   17.6663 C   0  0  1  0  0  0  0  0  0  0  0  0
   12.4761  -19.3762   18.3229 O   0  0  0  0  0  0  0  0  0  0  0  0
   11.4036  -17.7147   17.0459 C   0  0  2  0  0  0  0  0  0  0  0  0
   12.5557  -17.6625   16.1980 N   0  0  0  0  0  0  0  0  0  0  0  0
   11.5234  -16.6919   18.1303 C   0  0  0  0  0  0  0  0  0  0  0  0
   12.6200  -16.1513   18.4063 O   0  0  0  0  0  0  0  0  0  0  0  0
    8.0713  -12.9157   16.1195 N   0  0  0  0  0  0  0  0  0  0  0  0
    7.1979  -13.9187   16.6604 C   0  0  0  0  0  0  0  0  0  0  0  0
    6.7361  -14.8038   15.8791 N   0  0  0  0  0  0  0  0  0  0  0  0
    6.8599  -13.9178   18.0441 N   0  0  0  0  0  0  0  0  0  0  0  0
    7.5294  -13.0413   18.9629 C   0  0  0  0  0  0  0  0  0  0  0  0
    8.9789  -13.3987   19.2047 C   0  0  0  0  0  0  0  0  0  0  0  0
    9.0872  -14.6519   20.0430 C   0  0  0  0  0  0  0  0  0  0  0  0
   10.4159  -15.3219   19.9159 C   0  0  2  0  0  0  0  0  0  0  0  0
   10.3752  -16.3116   18.8775 N   0  0  0  0  0  0  0  0  0  0  0  0
   10.8829  -15.9280   21.1790 C   0  0  0  0  0  0  0  0  0  0  0  0
   10.0813  -16.6226   21.8458 O   0  0  0  0  0  0  0  0  0  0  0  0
    6.1437  -15.5719   16.2516 N   0  0  0  0  0  0  0  0  0  0  0  0
   12.2173  -15.7505   21.6674 C   0  0  0  0  0  0  0  0  0  0  0  0
   12.5613  -16.3741   22.9284 C   0  0  0  0  0  0  0  0  0  0  0  0
   13.9379  -16.0966   23.3426 O   0  0  0  0  0  0  0  0  0  0  0  0
   14.7078  -15.4694   22.5850 O   0  0  0  0  0  0  0  0  0  0  0  0
  2  1  1  6
  2  3  1  0
  4  6  1  0
  4  2  1  0
  4  5  1  6
  6  7  2  0
  9 11  1  0
  9  8  1  0
 10  9  2  0
 12 11  1  0
 12 13  1  0
 13 14  1  0
 15 14  1  1
 15 17  1  0
 16 15  1  0
 16  6  1  0
 17 19  1  0
 17 18  2  0
 19 20  1  0
 20 21  1  0
 21 22  2  0
 21 23  1  0
M  END
$$$$
