TRG.pdb
     RDKit          3D

 23 22  0  0  1  0  0  0  0  0999 V2000
    8.8980  -15.0795   16.8676 C   0  0  0  0  0  0  0  0  0  0  0  0
    8.6220  -13.7021   17.4388 C   0  0  1  0  0  0  0  0  0  0  0  0
    8.0472  -12.9235   16.4332 O   0  0  0  0  0  0  0  0  0  0  0  0
    7.6241  -13.8489   18.5560 C   0  0  2  0  0  0  0  0  0  0  0  0
    7.2242  -12.5587   19.0299 N   0  0  0  0  0  0  0  0  0  0  0  0
    8.2456  -14.6297   19.6698 C   0  0  0  0  0  0  0  0  0  0  0  0
    9.0856  -14.1153   20.4449 O   0  0  0  0  0  0  0  0  0  0  0  0
   10.3922  -22.4467   21.0180 N   0  0  0  0  0  0  0  0  0  0  0  0
    9.2940  -22.5294   21.9392 C   0  0  0  0  0  0  0  0  0  0  0  0
    8.7215  -23.6491   22.0989 N   0  0  0  0  0  0  0  0  0  0  0  0
    8.8599  -21.3782   22.6568 N   0  0  0  0  0  0  0  0  0  0  0  0
    8.0608  -20.3720   22.0168 C   0  0  0  0  0  0  0  0  0  0  0  0
    8.8596  -19.2054   21.4799 C   0  0  0  0  0  0  0  0  0  0  0  0
    7.9525  -18.2034   20.8031 C   0  0  0  0  0  0  0  0  0  0  0  0
    8.4565  -16.8014   20.9072 C   0  0  2  0  0  0  0  0  0  0  0  0
    7.8868  -15.9909   19.8689 N   0  0  0  0  0  0  0  0  0  0  0  0
    9.9301  -16.7110   20.8731 C   0  0  0  0  0  0  0  0  0  0  0  0
   10.5379  -17.1622   19.8748 O   0  0  0  0  0  0  0  0  0  0  0  0
    7.9206  -23.7375   22.7551 N   0  0  0  0  0  0  0  0  0  0  0  0
   10.6874  -16.1262   21.9385 C   0  0  0  0  0  0  0  0  0  0  0  0
   12.0092  -16.6588   22.1963 C   0  0  0  0  0  0  0  0  0  0  0  0
   13.0712  -15.8753   21.5623 O   0  0  0  0  0  0  0  0  0  0  0  0
   12.7839  -14.9383   20.7880 O   0  0  0  0  0  0  0  0  0  0  0  0
  2  1  1  6
  2  3  1  0
  4  6  1  0
  4  2  1  0
  4  5  1  1
  6  7  2  0
  9 11  1  0
  9  8  1  0
 10  9  2  0
 12 11  1  0
 12 13  1  0
 13 14  1  0
 15 14  1  6
 15 17  1  0
 16 15  1  0
 16  6  1  0
 17 19  1  0
 17 18  2  0
 19 20  1  0
 20 21  1  0
 21 22  2  0
 21 23  1  0
M  END
$$$$
