TRG.pdb
     RDKit          3D

 23 22  0  0  1  0  0  0  0  0999 V2000
    8.2975  -16.2737   18.6646 C   0  0  0  0  0  0  0  0  0  0  0  0
    8.4324  -14.8051   18.3117 C   0  0  1  0  0  0  0  0  0  0  0  0
    7.7225  -14.5762   17.1320 O   0  0  0  0  0  0  0  0  0  0  0  0
    7.7985  -13.9979   19.4127 C   0  0  2  0  0  0  0  0  0  0  0  0
    7.6822  -12.6284   19.0130 N   0  0  0  0  0  0  0  0  0  0  0  0
    8.6422  -14.0987   20.6433 C   0  0  0  0  0  0  0  0  0  0  0  0
    9.6194  -13.3375   20.8350 O   0  0  0  0  0  0  0  0  0  0  0  0
    6.7095  -11.8864   25.2481 N   0  0  0  0  0  0  0  0  0  0  0  0
    6.5953  -12.5525   26.5149 C   0  0  0  0  0  0  0  0  0  0  0  0
    6.8888  -11.9075   27.5661 N   0  0  0  0  0  0  0  0  0  0  0  0
    6.1612  -13.9071   26.5866 N   0  0  0  0  0  0  0  0  0  0  0  0
    6.8886  -14.9477   25.9166 C   0  0  0  0  0  0  0  0  0  0  0  0
    7.5770  -14.4950   24.6484 C   0  0  0  0  0  0  0  0  0  0  0  0
    8.2473  -15.6614   23.9591 C   0  0  0  0  0  0  0  0  0  0  0  0
    9.1227  -15.2399   22.8248 C   0  0  2  0  0  0  0  0  0  0  0  0
    8.3434  -15.0770   21.6308 N   0  0  0  0  0  0  0  0  0  0  0  0
   10.2422  -16.1711   22.5791 C   0  0  0  0  0  0  0  0  0  0  0  0
   10.0041  -17.2620   22.0110 O   0  0  0  0  0  0  0  0  0  0  0  0
    6.7972  -12.3578   28.4981 N   0  0  0  0  0  0  0  0  0  0  0  0
   11.5879  -15.8714   22.9662 C   0  0  0  0  0  0  0  0  0  0  0  0
   12.6295  -16.7841   22.5427 C   0  0  0  0  0  0  0  0  0  0  0  0
   12.8730  -17.8564   23.5093 O   0  0  0  0  0  0  0  0  0  0  0  0
   12.1106  -18.8447   23.5568 O   0  0  0  0  0  0  0  0  0  0  0  0
  2  1  1  1
  2  3  1  0
  4  6  1  0
  4  2  1  0
  4  5  1  6
  6  7  2  0
  9 11  1  0
  9  8  1  0
 10  9  2  0
 12 11  1  0
 12 13  1  0
 13 14  1  0
 15 14  1  1
 15 17  1  0
 16 15  1  0
 16  6  1  0
 17 19  1  0
 17 18  2  0
 19 20  1  0
 20 21  1  0
 21 22  2  0
 21 23  1  0
M  END
$$$$
