TRG.pdb
     RDKit          3D

 23 22  0  0  1  0  0  0  0  0999 V2000
   11.8254  -20.7388   18.1818 C   0  0  0  0  0  0  0  0  0  0  0  0
   11.8472  -19.9114   19.4525 C   0  0  1  0  0  0  0  0  0  0  0  0
   13.0932  -20.0807   20.0581 O   0  0  0  0  0  0  0  0  0  0  0  0
   11.6960  -18.4631   19.0718 C   0  0  2  0  0  0  0  0  0  0  0  0
   12.8188  -18.0409   18.2907 N   0  0  0  0  0  0  0  0  0  0  0  0
   11.6011  -17.6363   20.3143 C   0  0  0  0  0  0  0  0  0  0  0  0
   12.6179  -17.1392   20.8528 O   0  0  0  0  0  0  0  0  0  0  0  0
    8.5671  -11.4185   20.4691 N   0  0  0  0  0  0  0  0  0  0  0  0
    8.2355  -12.3956   19.4707 C   0  0  0  0  0  0  0  0  0  0  0  0
    8.8257  -12.3396   18.3501 N   0  0  0  0  0  0  0  0  0  0  0  0
    7.2657  -13.4044   19.7358 N   0  0  0  0  0  0  0  0  0  0  0  0
    7.4255  -14.3038   20.8431 C   0  0  0  0  0  0  0  0  0  0  0  0
    8.8254  -14.8584   20.9847 C   0  0  0  0  0  0  0  0  0  0  0  0
    8.8828  -15.8878   22.0900 C   0  0  0  0  0  0  0  0  0  0  0  0
   10.1748  -16.6363   22.1193 C   0  0  2  0  0  0  0  0  0  0  0  0
   10.3340  -17.3985   20.9138 N   0  0  0  0  0  0  0  0  0  0  0  0
   10.3096  -17.5148   23.2987 C   0  0  0  0  0  0  0  0  0  0  0  0
   10.1260  -18.7459   23.1564 O   0  0  0  0  0  0  0  0  0  0  0  0
    8.6466  -13.0655   17.6285 N   0  0  0  0  0  0  0  0  0  0  0  0
   10.6426  -17.0101   24.5968 C   0  0  0  0  0  0  0  0  0  0  0  0
   11.7811  -17.5944   25.2747 C   0  0  0  0  0  0  0  0  0  0  0  0
   11.3958  -18.5822   26.2843 O   0  0  0  0  0  0  0  0  0  0  0  0
   10.3876  -19.2986   26.1098 O   0  0  0  0  0  0  0  0  0  0  0  0
  2  1  1  6
  2  3  1  0
  4  6  1  0
  4  2  1  0
  4  5  1  1
  6  7  2  0
  9 11  1  0
  9  8  1  0
 10  9  2  0
 12 11  1  0
 12 13  1  0
 13 14  1  0
 15 14  1  6
 15 17  1  0
 16 15  1  0
 16  6  1  0
 17 19  1  0
 17 18  2  0
 19 20  1  0
 20 21  1  0
 21 22  2  0
 21 23  1  0
M  END
$$$$
