GSW.pdb
     RDKit          3D

 25 26  0  0  1  0  0  0  0  0999 V2000
    9.5899  -20.0163   19.7899 N   0  0  0  0  0  0  0  0  0  0  0  0
    8.5988  -19.3460   20.5807 C   0  0  0  0  0  0  0  0  0  0  0  0
    8.9250  -17.8835   20.6887 C   0  0  0  0  0  0  0  0  0  0  0  0
   10.0847  -17.4667   20.3974 O   0  0  0  0  0  0  0  0  0  0  0  0
    5.8999  -15.4196   22.0028 O   0  0  0  0  0  0  0  0  0  0  0  0
    6.8887  -14.8111   21.2332 C   0  0  0  0  0  0  0  0  0  0  0  0
    8.2073  -15.5649   21.3365 C   0  0  2  0  0  0  0  0  0  0  0  0
    7.9348  -16.9741   21.1145 N   0  0  0  0  0  0  0  0  0  0  0  0
    8.8649  -15.3083   22.6361 C   0  0  0  0  0  0  0  0  0  0  0  0
    9.3461  -14.1527   22.8784 O   0  0  0  0  0  0  0  0  0  0  0  0
    9.0008  -16.2722   23.6529 N   0  0  0  0  0  0  0  0  0  0  0  0
    9.8287  -16.0181   24.8315 C   0  0  1  0  0  0  0  0  0  0  0  0
    9.0110  -16.2349   26.0768 C   0  0  0  0  0  0  0  0  0  0  0  0
    7.8279  -15.3567   26.1039 C   0  0  0  0  0  0  0  0  0  0  0  0
    6.4992  -15.7858   25.9167 C   0  0  0  0  0  0  0  0  0  0  0  0
    5.7513  -14.6780   25.9620 N   0  0  0  0  0  0  0  0  0  0  0  0
    6.5147  -13.5919   26.1649 C   0  0  0  0  0  0  0  0  0  0  0  0
    6.2260  -12.2368   26.3113 C   0  0  0  0  0  0  0  0  0  0  0  0
    7.1963  -11.2884   26.5457 C   0  0  0  0  0  0  0  0  0  0  0  0
    8.5188  -11.6763   26.6434 C   0  0  0  0  0  0  0  0  0  0  0  0
    8.8204  -13.0129   26.4998 C   0  0  0  0  0  0  0  0  0  0  0  0
    7.8366  -13.9716   26.2615 C   0  0  0  0  0  0  0  0  0  0  0  0
   10.9972  -16.8798   24.7871 C   0  0  0  0  0  0  0  0  0  0  0  0
   11.2003  -17.7621   23.9098 O   0  0  0  0  0  0  0  0  0  0  0  0
   11.9834  -16.7466   25.7704 O   0  0  0  0  0  0  0  0  0  0  0  0
  2  3  1  0
  2  1  1  0
  3  4  2  0
  6  5  1  0
  7  6  1  1
  8  7  1  0
  8  3  1  0
  9 11  1  0
  9  7  1  0
 10  9  2  0
 12 11  1  0
 12 13  1  1
 13 14  1  0
 14 15  2  0
 15 16  1  0
 17 16  1  0
 18 17  2  0
 19 18  1  0
 20 21  1  0
 20 19  2  0
 21 22  2  0
 22 14  1  0
 22 17  1  0
 23 12  1  0
 24 23  2  0
 25 23  1  0
M  END
$$$$
