GSW.pdb
     RDKit          3D

 25 26  0  0  1  0  0  0  0  0999 V2000
    3.7836  -18.9154   21.5390 N   0  0  0  0  0  0  0  0  0  0  0  0
    4.2000  -17.7896   22.3239 C   0  0  0  0  0  0  0  0  0  0  0  0
    5.6599  -17.5143   22.1001 C   0  0  0  0  0  0  0  0  0  0  0  0
    6.5350  -18.3023   22.5655 O   0  0  0  0  0  0  0  0  0  0  0  0
    8.8271  -14.7057   19.6936 O   0  0  0  0  0  0  0  0  0  0  0  0
    7.5087  -15.0012   20.0326 C   0  0  0  0  0  0  0  0  0  0  0  0
    7.4468  -16.0161   21.1657 C   0  0  2  0  0  0  0  0  0  0  0  0
    6.0542  -16.3751   21.3682 N   0  0  0  0  0  0  0  0  0  0  0  0
    8.0832  -15.4841   22.3901 C   0  0  0  0  0  0  0  0  0  0  0  0
    7.7477  -14.3322   22.8218 O   0  0  0  0  0  0  0  0  0  0  0  0
    9.0575  -16.1756   23.1344 N   0  0  0  0  0  0  0  0  0  0  0  0
    9.8436  -15.4995   24.1659 C   0  0  1  0  0  0  0  0  0  0  0  0
    9.3570  -15.9213   25.5265 C   0  0  0  0  0  0  0  0  0  0  0  0
    8.0126  -15.3871   25.8072 C   0  0  0  0  0  0  0  0  0  0  0  0
    6.8149  -16.1226   25.7105 C   0  0  0  0  0  0  0  0  0  0  0  0
    5.8350  -15.2574   25.9928 N   0  0  0  0  0  0  0  0  0  0  0  0
    6.3330  -14.0390   26.2595 C   0  0  0  0  0  0  0  0  0  0  0  0
    5.7482  -12.8284   26.6250 C   0  0  0  0  0  0  0  0  0  0  0  0
    6.4827  -11.6921   26.8804 C   0  0  0  0  0  0  0  0  0  0  0  0
    7.8598  -11.7329   26.7756 C   0  0  0  0  0  0  0  0  0  0  0  0
    8.4529  -12.9228   26.4141 C   0  0  0  0  0  0  0  0  0  0  0  0
    7.7074  -14.0720   26.1548 C   0  0  0  0  0  0  0  0  0  0  0  0
   11.2501  -15.8045   23.9687 C   0  0  0  0  0  0  0  0  0  0  0  0
   11.6894  -16.6320   23.1252 O   0  0  0  0  0  0  0  0  0  0  0  0
   12.2080  -15.1521   24.7523 O   0  0  0  0  0  0  0  0  0  0  0  0
  2  3  1  0
  2  1  1  0
  3  4  2  0
  6  5  1  0
  7  6  1  6
  8  7  1  0
  8  3  1  0
  9 11  1  0
  9  7  1  0
 10  9  2  0
 12 11  1  0
 12 13  1  1
 13 14  1  0
 14 15  2  0
 15 16  1  0
 17 16  1  0
 18 17  2  0
 19 18  1  0
 20 21  1  0
 20 19  2  0
 21 22  2  0
 22 14  1  0
 22 17  1  0
 23 12  1  0
 24 23  2  0
 25 23  1  0
M  END
$$$$
