GSW.pdb
     RDKit          3D

 25 26  0  0  1  0  0  0  0  0999 V2000
    8.7037  -16.4756   16.0422 N   0  0  0  0  0  0  0  0  0  0  0  0
    9.5632  -16.5858   17.1850 C   0  0  0  0  0  0  0  0  0  0  0  0
    8.7560  -16.5058   18.4495 C   0  0  0  0  0  0  0  0  0  0  0  0
    7.4949  -16.4060   18.3944 O   0  0  0  0  0  0  0  0  0  0  0  0
    8.8698  -19.0957   20.9281 O   0  0  0  0  0  0  0  0  0  0  0  0
    7.9660  -18.0358   20.9185 C   0  0  0  0  0  0  0  0  0  0  0  0
    8.6892  -16.6965   20.9535 C   0  0  2  0  0  0  0  0  0  0  0  0
    9.4067  -16.5434   19.7001 N   0  0  0  0  0  0  0  0  0  0  0  0
    9.5752  -16.6025   22.1339 C   0  0  0  0  0  0  0  0  0  0  0  0
   10.7837  -16.9991   22.0444 O   0  0  0  0  0  0  0  0  0  0  0  0
    9.1713  -16.0922   23.3820 N   0  0  0  0  0  0  0  0  0  0  0  0
   10.1020  -16.0207   24.5080 C   0  0  1  0  0  0  0  0  0  0  0  0
    9.7871  -14.8096   25.3448 C   0  0  0  0  0  0  0  0  0  0  0  0
    8.3434  -14.7074   25.6224 C   0  0  0  0  0  0  0  0  0  0  0  0
    7.4292  -15.7768   25.5491 C   0  0  0  0  0  0  0  0  0  0  0  0
    6.2309  -15.2478   25.8190 N   0  0  0  0  0  0  0  0  0  0  0  0
    6.3310  -13.9298   26.0564 C   0  0  0  0  0  0  0  0  0  0  0  0
    5.4027  -12.9491   26.3994 C   0  0  0  0  0  0  0  0  0  0  0  0
    5.7530  -11.6368   26.6258 C   0  0  0  0  0  0  0  0  0  0  0  0
    7.0762  -11.2556   26.5131 C   0  0  0  0  0  0  0  0  0  0  0  0
    8.0060  -12.2139   26.1735 C   0  0  0  0  0  0  0  0  0  0  0  0
    7.6492  -13.5419   25.9437 C   0  0  0  0  0  0  0  0  0  0  0  0
   10.0179  -17.2521   25.2740 C   0  0  0  0  0  0  0  0  0  0  0  0
    9.1103  -18.1164   25.1380 O   0  0  0  0  0  0  0  0  0  0  0  0
   10.9956  -17.5276   26.2359 O   0  0  0  0  0  0  0  0  0  0  0  0
  2  3  1  0
  2  1  1  0
  3  4  2  0
  6  5  1  0
  7  6  1  6
  8  7  1  0
  8  3  1  0
  9 11  1  0
  9  7  1  0
 10  9  2  0
 12 11  1  0
 12 13  1  1
 13 14  1  0
 14 15  2  0
 15 16  1  0
 17 16  1  0
 18 17  2  0
 19 18  1  0
 20 21  1  0
 20 19  2  0
 21 22  2  0
 22 14  1  0
 22 17  1  0
 23 12  1  0
 24 23  2  0
 25 23  1  0
M  END
$$$$
