GSW.pdb
     RDKit          3D

 25 26  0  0  1  0  0  0  0  0999 V2000
   10.0576  -16.1518   17.6864 N   0  0  0  0  0  0  0  0  0  0  0  0
   10.6443  -15.8285   18.9545 C   0  0  0  0  0  0  0  0  0  0  0  0
    9.9846  -16.6209   20.0471 C   0  0  0  0  0  0  0  0  0  0  0  0
    9.0886  -17.4703   19.7655 O   0  0  0  0  0  0  0  0  0  0  0  0
   11.7756  -18.6927   22.2739 O   0  0  0  0  0  0  0  0  0  0  0  0
   10.3831  -18.6563   22.2698 C   0  0  0  0  0  0  0  0  0  0  0  0
    9.8698  -17.2384   22.4795 C   0  0  2  0  0  0  0  0  0  0  0  0
   10.3669  -16.4176   21.3893 N   0  0  0  0  0  0  0  0  0  0  0  0
   10.2639  -16.7224   23.8083 C   0  0  0  0  0  0  0  0  0  0  0  0
   11.3125  -16.0053   23.9171 O   0  0  0  0  0  0  0  0  0  0  0  0
    9.5457  -16.9707   24.9932 N   0  0  0  0  0  0  0  0  0  0  0  0
   10.0118  -16.4605   26.2822 C   0  0  1  0  0  0  0  0  0  0  0  0
    8.8424  -16.3184   27.2195 C   0  0  0  0  0  0  0  0  0  0  0  0
    7.7111  -15.6336   26.5692 C   0  0  0  0  0  0  0  0  0  0  0  0
    6.6342  -16.2802   25.9315 C   0  0  0  0  0  0  0  0  0  0  0  0
    5.8685  -15.3031   25.4339 N   0  0  0  0  0  0  0  0  0  0  0  0
    6.3872  -14.0968   25.7156 C   0  0  0  0  0  0  0  0  0  0  0  0
    5.9708  -12.7939   25.4507 C   0  0  0  0  0  0  0  0  0  0  0  0
    6.6704  -11.6863   25.8749 C   0  0  0  0  0  0  0  0  0  0  0  0
    7.8376  -11.8523   26.5954 C   0  0  0  0  0  0  0  0  0  0  0  0
    8.2630  -13.1349   26.8645 C   0  0  0  0  0  0  0  0  0  0  0  0
    7.5538  -14.2551   26.4332 C   0  0  0  0  0  0  0  0  0  0  0  0
   11.0293  -17.3539   26.8081 C   0  0  0  0  0  0  0  0  0  0  0  0
   11.6846  -17.1457   27.8648 O   0  0  0  0  0  0  0  0  0  0  0  0
   11.3257  -18.5345   26.1187 O   0  0  0  0  0  0  0  0  0  0  0  0
  2  3  1  0
  2  1  1  0
  3  4  2  0
  6  5  1  0
  7  6  1  6
  8  7  1  0
  8  3  1  0
  9 11  1  0
  9  7  1  0
 10  9  2  0
 12 11  1  0
 12 13  1  1
 13 14  1  0
 14 15  2  0
 15 16  1  0
 17 16  1  0
 18 17  2  0
 19 18  1  0
 20 21  1  0
 20 19  2  0
 21 22  2  0
 22 14  1  0
 22 17  1  0
 23 12  1  0
 24 23  2  0
 25 23  1  0
M  END
$$$$
