AVH.pdb
     RDKit          3D

 23 23  0  0  1  0  0  0  0  0999 V2000
   20.6663  -15.5606  -17.1404 C   0  0  0  0  0  0  0  0  0  0  0  0
   22.1249  -15.5138  -16.7635 C   0  0  2  0  0  0  0  0  0  0  0  0
   22.5572  -16.6956  -16.0357 N   0  0  0  0  0  0  0  0  0  0  0  0
   22.4020  -14.3438  -15.8816 C   0  0  0  0  0  0  0  0  0  0  0  0
   21.9198  -14.3499  -14.7223 O   0  0  0  0  0  0  0  0  0  0  0  0
   25.4393  -11.5985  -16.6842 C   0  0  0  0  0  0  0  0  0  0  0  0
   24.8829  -11.9150  -15.2847 C   0  0  2  0  0  0  0  0  0  0  0  0
   25.6546  -13.1263  -14.8259 C   0  0  0  0  0  0  0  0  0  0  0  0
   23.4104  -12.0926  -15.3932 C   0  0  2  0  0  0  0  0  0  0  0  0
   23.1692  -13.2248  -16.2534 N   0  0  0  0  0  0  0  0  0  0  0  0
   22.6234  -10.9065  -15.7397 C   0  0  0  0  0  0  0  0  0  0  0  0
   22.4325  -10.6175  -16.9755 O   0  0  0  0  0  0  0  0  0  0  0  0
   22.0374  -10.0246  -14.8054 N   0  0  0  0  0  0  0  0  0  0  0  0
   21.2401   -8.9187  -15.2592 C   0  0  1  0  0  0  0  0  0  0  0  0
   19.7945   -8.9805  -14.8304 C   0  0  0  0  0  0  0  0  0  0  0  0
   19.0295  -10.0257  -15.5296 C   0  0  0  0  0  0  0  0  0  0  0  0
   19.4930  -10.8682  -16.5043 C   0  0  0  0  0  0  0  0  0  0  0  0
   18.4992  -11.7082  -16.9076 N   0  0  0  0  0  0  0  0  0  0  0  0
   17.4239  -11.3722  -16.1717 C   0  0  0  0  0  0  0  0  0  0  0  0
   17.7607  -10.3503  -15.3416 N   0  0  0  0  0  0  0  0  0  0  0  0
   21.7878   -7.6638  -14.6996 C   0  0  0  0  0  0  0  0  0  0  0  0
   22.6562   -7.7057  -13.8176 O   0  0  0  0  0  0  0  0  0  0  0  0
   21.3219   -6.4608  -15.1668 O   0  0  0  0  0  0  0  0  0  0  0  0
  2  1  1  1
  2  4  1  0
  2  3  1  0
  4  5  2  0
  7  6  1  6
  7  9  1  0
  8  7  1  0
  9 11  1  0
  9 10  1  6
 10  4  1  0
 11 12  2  0
 13 11  1  0
 13 14  1  0
 14 21  1  0
 15 16  1  0
 14 15  1  1
 16 20  1  0
 17 18  1  0
 17 16  2  0
 18 19  1  0
 19 20  2  0
 21 22  2  0
 21 23  1  0
M  END
$$$$
