AVH.pdb
     RDKit          3D

 23 23  0  0  1  0  0  0  0  0999 V2000
   16.3180  -13.4235  -16.1304 C   0  0  0  0  0  0  0  0  0  0  0  0
   17.6351  -13.5844  -16.8455 C   0  0  2  0  0  0  0  0  0  0  0  0
   18.1346  -14.9490  -16.8063 N   0  0  0  0  0  0  0  0  0  0  0  0
   18.6817  -12.7281  -16.2171 C   0  0  0  0  0  0  0  0  0  0  0  0
   19.1896  -13.1132  -15.1353 O   0  0  0  0  0  0  0  0  0  0  0  0
   20.7232   -9.8600  -18.3678 C   0  0  0  0  0  0  0  0  0  0  0  0
   21.2752  -10.5457  -17.1055 C   0  0  2  0  0  0  0  0  0  0  0  0
   21.8911  -11.8300  -17.6003 C   0  0  0  0  0  0  0  0  0  0  0  0
   20.1639  -10.6987  -16.1294 C   0  0  2  0  0  0  0  0  0  0  0  0
   19.1468  -11.5118  -16.7493 N   0  0  0  0  0  0  0  0  0  0  0  0
   19.6494   -9.4731  -15.5133 C   0  0  0  0  0  0  0  0  0  0  0  0
   18.6864   -8.8412  -16.0795 O   0  0  0  0  0  0  0  0  0  0  0  0
   20.1338   -8.9071  -14.3137 N   0  0  0  0  0  0  0  0  0  0  0  0
   19.5734   -7.6807  -13.8171 C   0  0  1  0  0  0  0  0  0  0  0  0
   19.2941   -7.6836  -12.3340 C   0  0  0  0  0  0  0  0  0  0  0  0
   18.1197   -8.4928  -11.9697 C   0  0  0  0  0  0  0  0  0  0  0  0
   17.3658   -9.2687  -12.8089 C   0  0  0  0  0  0  0  0  0  0  0  0
   16.3665   -9.8775  -12.1111 N   0  0  0  0  0  0  0  0  0  0  0  0
   16.5154   -9.4671  -10.8382 C   0  0  0  0  0  0  0  0  0  0  0  0
   17.5818   -8.6277  -10.7684 N   0  0  0  0  0  0  0  0  0  0  0  0
   20.5286   -6.5776  -14.0594 C   0  0  0  0  0  0  0  0  0  0  0  0
   21.6693   -6.8253  -14.4729 O   0  0  0  0  0  0  0  0  0  0  0  0
   20.1364   -5.2849  -13.8192 O   0  0  0  0  0  0  0  0  0  0  0  0
  2  1  1  1
  2  4  1  0
  2  3  1  0
  4  5  2  0
  7  6  1  6
  7  9  1  0
  8  7  1  0
  9 11  1  0
  9 10  1  6
 10  4  1  0
 11 12  2  0
 13 11  1  0
 13 14  1  0
 14 21  1  0
 15 16  1  0
 14 15  1  1
 16 20  1  0
 17 18  1  0
 17 16  2  0
 18 19  1  0
 19 20  2  0
 21 22  2  0
 21 23  1  0
M  END
$$$$
