AVH.pdb
     RDKit          3D

 23 23  0  0  1  0  0  0  0  0999 V2000
   27.4772  -18.0444  -15.1235 C   0  0  0  0  0  0  0  0  0  0  0  0
   28.0302  -19.3575  -14.6318 C   0  0  2  0  0  0  0  0  0  0  0  0
   28.6180  -20.1552  -15.6954 N   0  0  0  0  0  0  0  0  0  0  0  0
   26.9509  -20.1866  -14.0226 C   0  0  0  0  0  0  0  0  0  0  0  0
   26.3036  -20.9583  -14.7724 O   0  0  0  0  0  0  0  0  0  0  0  0
   25.4430  -19.8863   -9.8789 C   0  0  0  0  0  0  0  0  0  0  0  0
   25.8132  -21.1583  -10.6620 C   0  0  2  0  0  0  0  0  0  0  0  0
   27.2629  -21.4085  -10.3316 C   0  0  0  0  0  0  0  0  0  0  0  0
   25.5107  -20.9299  -12.1000 C   0  0  2  0  0  0  0  0  0  0  0  0
   26.6004  -20.1695  -12.6603 N   0  0  0  0  0  0  0  0  0  0  0  0
   24.1860  -20.3929  -12.4215 C   0  0  0  0  0  0  0  0  0  0  0  0
   23.9297  -19.1603  -12.1716 O   0  0  0  0  0  0  0  0  0  0  0  0
   23.1325  -21.1339  -13.0003 N   0  0  0  0  0  0  0  0  0  0  0  0
   22.0172  -20.4546  -13.5996 C   0  0  1  0  0  0  0  0  0  0  0  0
   22.0962  -20.3413  -15.1025 C   0  0  0  0  0  0  0  0  0  0  0  0
   20.9545  -19.6196  -15.6875 C   0  0  0  0  0  0  0  0  0  0  0  0
   20.4283  -18.4307  -15.2580 C   0  0  0  0  0  0  0  0  0  0  0  0
   19.3833  -18.0676  -16.0530 N   0  0  0  0  0  0  0  0  0  0  0  0
   19.2745  -19.0445  -16.9720 C   0  0  0  0  0  0  0  0  0  0  0  0
   20.2333  -19.9785  -16.7370 N   0  0  0  0  0  0  0  0  0  0  0  0
   20.7766  -21.2031  -13.3025 C   0  0  0  0  0  0  0  0  0  0  0  0
   20.8278  -22.4167  -13.0609 O   0  0  0  0  0  0  0  0  0  0  0  0
   19.5759  -20.5390  -13.3004 O   0  0  0  0  0  0  0  0  0  0  0  0
  2  1  1  6
  2  4  1  0
  2  3  1  0
  4  5  2  0
  7  6  1  1
  7  9  1  0
  8  7  1  0
  9 11  1  0
  9 10  1  1
 10  4  1  0
 11 12  2  0
 13 11  1  0
 13 14  1  0
 14 21  1  0
 15 16  1  0
 14 15  1  6
 16 20  1  0
 17 18  1  0
 17 16  2  0
 18 19  1  0
 19 20  2  0
 21 22  2  0
 21 23  1  0
M  END
$$$$
