AVH.pdb
     RDKit          3D

 23 23  0  0  1  0  0  0  0  0999 V2000
   43.8356   -9.6618   -6.1447 C   0  0  0  0  0  0  0  0  0  0  0  0
   42.9986  -10.7082   -6.8349 C   0  0  2  0  0  0  0  0  0  0  0  0
   43.7784  -11.5640   -7.7139 N   0  0  0  0  0  0  0  0  0  0  0  0
   41.9507  -10.0682   -7.6810 C   0  0  0  0  0  0  0  0  0  0  0  0
   42.2062   -9.8782   -8.8956 O   0  0  0  0  0  0  0  0  0  0  0  0
   37.2688   -9.1354   -8.5889 C   0  0  0  0  0  0  0  0  0  0  0  0
   38.3657   -9.6904   -7.6631 C   0  0  2  0  0  0  0  0  0  0  0  0
   37.8963   -9.3648   -6.2677 C   0  0  0  0  0  0  0  0  0  0  0  0
   39.6661   -9.0893   -8.0618 C   0  0  2  0  0  0  0  0  0  0  0  0
   40.6875   -9.6581   -7.2174 N   0  0  0  0  0  0  0  0  0  0  0  0
   39.7199   -7.6282   -8.1554 C   0  0  0  0  0  0  0  0  0  0  0  0
   39.9433   -6.9382   -7.0965 O   0  0  0  0  0  0  0  0  0  0  0  0
   39.5424   -6.8877   -9.3446 N   0  0  0  0  0  0  0  0  0  0  0  0
   39.6051   -5.4525   -9.3168 C   0  0  1  0  0  0  0  0  0  0  0  0
   39.8168   -4.8157  -10.6686 C   0  0  0  0  0  0  0  0  0  0  0  0
   41.1441   -5.0992  -11.2383 C   0  0  0  0  0  0  0  0  0  0  0  0
   42.2568   -5.5164  -10.5581 C   0  0  0  0  0  0  0  0  0  0  0  0
   43.2970   -5.6844  -11.4216 N   0  0  0  0  0  0  0  0  0  0  0  0
   42.8113   -5.3662  -12.6356 C   0  0  0  0  0  0  0  0  0  0  0  0
   41.5053   -5.0128  -12.5082 N   0  0  0  0  0  0  0  0  0  0  0  0
   38.3247   -4.9208   -8.8013 C   0  0  0  0  0  0  0  0  0  0  0  0
   37.3187   -5.6427   -8.7774 O   0  0  0  0  0  0  0  0  0  0  0  0
   38.2670   -3.6246   -8.3549 O   0  0  0  0  0  0  0  0  0  0  0  0
  2  1  1  6
  2  4  1  0
  2  3  1  0
  4  5  2  0
  7  6  1  6
  7  9  1  0
  8  7  1  0
  9 11  1  0
  9 10  1  1
 10  4  1  0
 11 12  2  0
 13 11  1  0
 13 14  1  0
 14 21  1  0
 15 16  1  0
 14 15  1  6
 16 20  1  0
 17 18  1  0
 17 16  2  0
 18 19  1  0
 19 20  2  0
 21 22  2  0
 21 23  1  0
M  END
$$$$
