AVH.pdb
     RDKit          3D

 23 23  0  0  1  0  0  0  0  0999 V2000
   19.8978  -15.5922  -15.3239 C   0  0  0  0  0  0  0  0  0  0  0  0
   18.7694  -15.4381  -16.3112 C   0  0  2  0  0  0  0  0  0  0  0  0
   18.9031  -16.3169  -17.4615 N   0  0  0  0  0  0  0  0  0  0  0  0
   18.7219  -14.0451  -16.8411 C   0  0  0  0  0  0  0  0  0  0  0  0
   19.4517  -13.7606  -17.8225 O   0  0  0  0  0  0  0  0  0  0  0  0
   15.4587  -11.6473  -16.1220 C   0  0  0  0  0  0  0  0  0  0  0  0
   16.3630  -11.5710  -17.3648 C   0  0  2  0  0  0  0  0  0  0  0  0
   15.8498  -12.6503  -18.2842 C   0  0  0  0  0  0  0  0  0  0  0  0
   17.7768  -11.7165  -16.9273 C   0  0  2  0  0  0  0  0  0  0  0  0
   17.9146  -13.0174  -16.3204 N   0  0  0  0  0  0  0  0  0  0  0  0
   18.3382  -10.6259  -16.1261 C   0  0  0  0  0  0  0  0  0  0  0  0
   18.2436  -10.6723  -14.8470 O   0  0  0  0  0  0  0  0  0  0  0  0
   18.9953   -9.4922  -16.6523 N   0  0  0  0  0  0  0  0  0  0  0  0
   19.5420   -8.5003  -15.7682 C   0  0  1  0  0  0  0  0  0  0  0  0
   20.4928   -7.5350  -16.4330 C   0  0  0  0  0  0  0  0  0  0  0  0
   21.0089   -6.5080  -15.5134 C   0  0  0  0  0  0  0  0  0  0  0  0
   22.1287   -6.5960  -14.7305 C   0  0  0  0  0  0  0  0  0  0  0  0
   22.2938   -5.4455  -14.0198 N   0  0  0  0  0  0  0  0  0  0  0  0
   21.2654   -4.6533  -14.3743 C   0  0  0  0  0  0  0  0  0  0  0  0
   20.4948   -5.3114  -15.2798 N   0  0  0  0  0  0  0  0  0  0  0  0
   18.4400   -7.6847  -15.2132 C   0  0  0  0  0  0  0  0  0  0  0  0
   17.4279   -7.4661  -15.8926 O   0  0  0  0  0  0  0  0  0  0  0  0
   18.5548   -7.1753  -13.9443 O   0  0  0  0  0  0  0  0  0  0  0  0
  2  1  1  1
  2  4  1  0
  2  3  1  0
  4  5  2  0
  7  6  1  1
  7  9  1  0
  8  7  1  0
  9 11  1  0
  9 10  1  1
 10  4  1  0
 11 12  2  0
 13 11  1  0
 13 14  1  0
 14 21  1  0
 15 16  1  0
 14 15  1  6
 16 20  1  0
 17 18  1  0
 17 16  2  0
 18 19  1  0
 19 20  2  0
 21 22  2  0
 21 23  1  0
M  END
$$$$
