AVH.pdb
     RDKit          3D

 23 23  0  0  1  0  0  0  0  0999 V2000
   18.6747  -12.4778  -19.7679 C   0  0  0  0  0  0  0  0  0  0  0  0
   19.3448  -13.4176  -18.7985 C   0  0  2  0  0  0  0  0  0  0  0  0
   18.4522  -14.4572  -18.3130 N   0  0  0  0  0  0  0  0  0  0  0  0
   19.8299  -12.6764  -17.5990 C   0  0  0  0  0  0  0  0  0  0  0  0
   18.9911  -12.3620  -16.7191 O   0  0  0  0  0  0  0  0  0  0  0  0
   22.9296  -13.5009  -15.4874 C   0  0  0  0  0  0  0  0  0  0  0  0
   22.9922  -12.0197  -15.9002 C   0  0  2  0  0  0  0  0  0  0  0  0
   23.6583  -11.3224  -14.7412 C   0  0  0  0  0  0  0  0  0  0  0  0
   21.6141  -11.5623  -16.2212 C   0  0  2  0  0  0  0  0  0  0  0  0
   21.1670  -12.3001  -17.3769 N   0  0  0  0  0  0  0  0  0  0  0  0
   21.4025  -10.1162  -16.3225 C   0  0  0  0  0  0  0  0  0  0  0  0
   21.9276   -9.4709  -17.2998 O   0  0  0  0  0  0  0  0  0  0  0  0
   20.6480   -9.3444  -15.4120 N   0  0  0  0  0  0  0  0  0  0  0  0
   20.5563   -7.9200  -15.5769 C   0  0  1  0  0  0  0  0  0  0  0  0
   19.2103   -7.4381  -16.0603 C   0  0  0  0  0  0  0  0  0  0  0  0
   19.1266   -5.9724  -16.1674 C   0  0  0  0  0  0  0  0  0  0  0  0
   20.1740   -5.0916  -16.2064 C   0  0  0  0  0  0  0  0  0  0  0  0
   19.7085   -3.8162  -16.3188 N   0  0  0  0  0  0  0  0  0  0  0  0
   18.3675   -3.9244  -16.3479 C   0  0  0  0  0  0  0  0  0  0  0  0
   18.0299   -5.2374  -16.2545 N   0  0  0  0  0  0  0  0  0  0  0  0
   20.7898   -7.2644  -14.2717 C   0  0  0  0  0  0  0  0  0  0  0  0
   20.8157   -7.9405  -13.2345 O   0  0  0  0  0  0  0  0  0  0  0  0
   20.9739   -5.9055  -14.2263 O   0  0  0  0  0  0  0  0  0  0  0  0
  2  1  1  6
  2  4  1  0
  2  3  1  0
  4  5  2  0
  7  6  1  1
  7  9  1  0
  8  7  1  0
  9 11  1  0
  9 10  1  6
 10  4  1  0
 11 12  2  0
 13 11  1  0
 13 14  1  0
 14 21  1  0
 15 16  1  0
 14 15  1  1
 16 20  1  0
 17 18  1  0
 17 16  2  0
 18 19  1  0
 19 20  2  0
 21 22  2  0
 21 23  1  0
M  END
$$$$
