WHD.pdb
     RDKit          3D

 33 35  0  0  1  0  0  0  0  0999 V2000
    6.6248  -17.9292   25.0388 N   0  0  0  0  0  0  0  0  0  0  0  0
    7.0129  -16.6071   24.5807 C   0  0  1  0  0  0  0  0  0  0  0  0
    8.1591  -16.1241   25.4761 C   0  0  0  0  0  0  0  0  0  0  0  0
    7.5885  -15.1260   26.4081 C   0  0  0  0  0  0  0  0  0  0  0  0
    7.0378  -15.3859   27.6415 C   0  0  0  0  0  0  0  0  0  0  0  0
    6.6169  -14.2427   28.2106 N   0  0  0  0  0  0  0  0  0  0  0  0
    6.8899  -13.2656   27.3630 C   0  0  0  0  0  0  0  0  0  0  0  0
    6.6839  -11.8913   27.4191 C   0  0  0  0  0  0  0  0  0  0  0  0
    7.0771  -11.0865   26.3709 C   0  0  0  0  0  0  0  0  0  0  0  0
    7.6755  -11.5852   25.2482 C   0  0  0  0  0  0  0  0  0  0  0  0
    7.8874  -12.9594   25.1793 C   0  0  0  0  0  0  0  0  0  0  0  0
    7.5010  -13.7714   26.2154 C   0  0  0  0  0  0  0  0  0  0  0  0
    7.3933  -16.6214   23.1570 C   0  0  0  0  0  0  0  0  0  0  0  0
    7.9129  -17.6658   22.6905 O   0  0  0  0  0  0  0  0  0  0  0  0
    7.1617  -15.4648   22.3678 N   0  0  0  0  0  0  0  0  0  0  0  0
    7.6692  -15.3608   21.0249 C   0  0  1  0  0  0  0  0  0  0  0  0
    7.2710  -14.0426   20.3783 C   0  0  0  0  0  0  0  0  0  0  0  0
    7.6755  -14.0331   18.9397 C   0  0  0  0  0  0  0  0  0  0  0  0
    8.5072  -13.1112   18.3212 C   0  0  0  0  0  0  0  0  0  0  0  0
    8.6349  -13.4364   17.0201 N   0  0  0  0  0  0  0  0  0  0  0  0
    7.9045  -14.5385   16.8067 C   0  0  0  0  0  0  0  0  0  0  0  0
    7.3312  -14.8932   17.9589 N   0  0  0  0  0  0  0  0  0  0  0  0
    9.1389  -15.5405   21.0212 C   0  0  0  0  0  0  0  0  0  0  0  0
    9.8802  -14.9200   21.8261 O   0  0  0  0  0  0  0  0  0  0  0  0
    9.7329  -16.4321   20.0901 N   0  0  0  0  0  0  0  0  0  0  0  0
   11.1839  -16.6244   20.1268 C   0  0  1  0  0  0  0  0  0  0  0  0
   11.5129  -18.0900   20.1747 C   0  0  0  0  0  0  0  0  0  0  0  0
   12.0226  -18.5774   21.4608 C   0  0  0  0  0  0  0  0  0  0  0  0
   12.2382  -17.8547   22.4551 O   0  0  0  0  0  0  0  0  0  0  0  0
   11.6964  -15.9456   18.9131 C   0  0  0  0  0  0  0  0  0  0  0  0
   12.7485  -15.0558   18.9145 O   0  0  0  0  0  0  0  0  0  0  0  0
   12.2967  -19.9416   21.6181 O   0  0  0  0  0  0  0  0  0  0  0  0
   11.1813  -16.1460   17.7501 O   0  0  0  0  0  0  0  0  0  0  0  0
  2  1  1  1
  2  3  1  0
  3  4  1  0
  4  5  2  0
  6  5  1  0
  7  6  1  0
  8  7  2  0
  9  8  1  0
 10 11  1  0
 10  9  2  0
 11 12  2  0
 12  7  1  0
 12  4  1  0
 13 14  2  0
 13  2  1  0
 15 13  1  0
 16 15  1  0
 16 17  1  1
 18 17  1  0
 18 22  1  0
 19 20  1  0
 19 18  2  0
 20 21  1  0
 21 22  2  0
 23 16  1  0
 24 23  2  0
 25 23  1  0
 26 25  1  0
 26 27  1  6
 27 28  1  0
 28 29  2  0
 30 26  1  0
 30 31  1  0
 32 28  1  0
 33 30  2  0
M  END
$$$$
