WHD.pdb
     RDKit          3D

 33 35  0  0  1  0  0  0  0  0999 V2000
    6.3997  -17.3224   23.8853 N   0  0  0  0  0  0  0  0  0  0  0  0
    7.3385  -16.2171   23.8103 C   0  0  1  0  0  0  0  0  0  0  0  0
    7.8742  -15.9671   25.2242 C   0  0  0  0  0  0  0  0  0  0  0  0
    6.9771  -14.9748   25.8573 C   0  0  0  0  0  0  0  0  0  0  0  0
    5.7574  -15.2343   26.4381 C   0  0  0  0  0  0  0  0  0  0  0  0
    5.2178  -14.0967   26.9094 N   0  0  0  0  0  0  0  0  0  0  0  0
    6.0705  -13.1233   26.6389 C   0  0  0  0  0  0  0  0  0  0  0  0
    6.0420  -11.7556   26.8898 C   0  0  0  0  0  0  0  0  0  0  0  0
    7.0910  -10.9542   26.4916 C   0  0  0  0  0  0  0  0  0  0  0  0
    8.1877  -11.4500   25.8446 C   0  0  0  0  0  0  0  0  0  0  0  0
    8.2286  -12.8176   25.5872 C   0  0  0  0  0  0  0  0  0  0  0  0
    7.1916  -13.6261   25.9782 C   0  0  0  0  0  0  0  0  0  0  0  0
    8.4219  -16.4959   22.8510 C   0  0  0  0  0  0  0  0  0  0  0  0
    8.8225  -17.6809   22.7339 O   0  0  0  0  0  0  0  0  0  0  0  0
    8.9713  -15.4255   22.0983 N   0  0  0  0  0  0  0  0  0  0  0  0
   10.0467  -15.6404   21.1660 C   0  0  1  0  0  0  0  0  0  0  0  0
   10.2516  -14.4336   20.2626 C   0  0  0  0  0  0  0  0  0  0  0  0
    9.0728  -14.2612   19.3603 C   0  0  0  0  0  0  0  0  0  0  0  0
    8.8516  -14.9134   18.1562 C   0  0  0  0  0  0  0  0  0  0  0  0
    7.6813  -14.4945   17.6368 N   0  0  0  0  0  0  0  0  0  0  0  0
    7.1629  -13.5963   18.4843 C   0  0  0  0  0  0  0  0  0  0  0  0
    7.9992  -13.4591   19.5157 N   0  0  0  0  0  0  0  0  0  0  0  0
   11.2892  -15.9859   21.8935 C   0  0  0  0  0  0  0  0  0  0  0  0
   11.8652  -15.1568   22.6440 O   0  0  0  0  0  0  0  0  0  0  0  0
   11.8498  -17.2815   21.7455 N   0  0  0  0  0  0  0  0  0  0  0  0
   13.0244  -17.6357   22.5447 C   0  0  1  0  0  0  0  0  0  0  0  0
   12.8510  -19.0020   23.1460 C   0  0  0  0  0  0  0  0  0  0  0  0
   14.0541  -19.5760   23.7581 C   0  0  0  0  0  0  0  0  0  0  0  0
   14.9035  -18.9210   24.3960 O   0  0  0  0  0  0  0  0  0  0  0  0
   14.1715  -17.5451   21.6107 C   0  0  0  0  0  0  0  0  0  0  0  0
   14.0581  -17.1925   20.2835 O   0  0  0  0  0  0  0  0  0  0  0  0
   14.2972  -20.9497   23.6371 O   0  0  0  0  0  0  0  0  0  0  0  0
   15.3777  -17.7956   21.9850 O   0  0  0  0  0  0  0  0  0  0  0  0
  2  1  1  1
  2  3  1  0
  3  4  1  0
  4  5  2  0
  6  5  1  0
  7  6  1  0
  8  7  2  0
  9  8  1  0
 10 11  1  0
 10  9  2  0
 11 12  2  0
 12  7  1  0
 12  4  1  0
 13 14  2  0
 13  2  1  0
 15 13  1  0
 16 15  1  0
 16 17  1  1
 18 17  1  0
 18 22  1  0
 19 20  1  0
 19 18  2  0
 20 21  1  0
 21 22  2  0
 23 16  1  0
 24 23  2  0
 25 23  1  0
 26 25  1  0
 26 27  1  6
 27 28  1  0
 28 29  2  0
 30 26  1  0
 30 31  1  0
 32 28  1  0
 33 30  2  0
M  END
$$$$
