WHD.pdb
     RDKit          3D

 33 35  0  0  1  0  0  0  0  0999 V2000
    6.2746  -17.2227   23.8063 N   0  0  0  0  0  0  0  0  0  0  0  0
    7.2844  -16.1795   23.8298 C   0  0  1  0  0  0  0  0  0  0  0  0
    7.7484  -16.0159   25.2812 C   0  0  0  0  0  0  0  0  0  0  0  0
    6.8566  -15.0162   25.9101 C   0  0  0  0  0  0  0  0  0  0  0  0
    5.6196  -15.2609   26.4597 C   0  0  0  0  0  0  0  0  0  0  0  0
    5.0915  -14.1203   26.9372 N   0  0  0  0  0  0  0  0  0  0  0  0
    5.9686  -13.1597   26.7011 C   0  0  0  0  0  0  0  0  0  0  0  0
    5.9608  -11.7958   26.9731 C   0  0  0  0  0  0  0  0  0  0  0  0
    7.0336  -11.0090   26.6110 C   0  0  0  0  0  0  0  0  0  0  0  0
    8.1348  -11.5160   25.9805 C   0  0  0  0  0  0  0  0  0  0  0  0
    8.1551  -12.8800   25.7022 C   0  0  0  0  0  0  0  0  0  0  0  0
    7.0943  -13.6741   26.0573 C   0  0  0  0  0  0  0  0  0  0  0  0
    8.4040  -16.4944   22.9247 C   0  0  0  0  0  0  0  0  0  0  0  0
    8.8506  -17.6687   22.9170 O   0  0  0  0  0  0  0  0  0  0  0  0
    8.9352  -15.4693   22.0993 N   0  0  0  0  0  0  0  0  0  0  0  0
   10.0515  -15.7155   21.2247 C   0  0  1  0  0  0  0  0  0  0  0  0
   10.2909  -14.5453   20.2825 C   0  0  0  0  0  0  0  0  0  0  0  0
    9.1884  -14.4613   19.2771 C   0  0  0  0  0  0  0  0  0  0  0  0
    8.2071  -15.4139   19.0454 C   0  0  0  0  0  0  0  0  0  0  0  0
    7.3935  -14.9786   18.0638 N   0  0  0  0  0  0  0  0  0  0  0  0
    7.8395  -13.7774   17.6740 C   0  0  0  0  0  0  0  0  0  0  0  0
    8.9148  -13.4707   18.4030 N   0  0  0  0  0  0  0  0  0  0  0  0
   11.2622  -16.0236   22.0195 C   0  0  0  0  0  0  0  0  0  0  0  0
   11.5282  -15.4039   23.0814 O   0  0  0  0  0  0  0  0  0  0  0  0
   12.1486  -17.0410   21.5790 N   0  0  0  0  0  0  0  0  0  0  0  0
   13.2981  -17.3848   22.4182 C   0  0  1  0  0  0  0  0  0  0  0  0
   13.1495  -18.7799   22.9570 C   0  0  0  0  0  0  0  0  0  0  0  0
   14.3512  -19.3431   23.5816 C   0  0  0  0  0  0  0  0  0  0  0  0
   15.4431  -18.7464   23.6782 O   0  0  0  0  0  0  0  0  0  0  0  0
   14.4823  -17.2149   21.5434 C   0  0  0  0  0  0  0  0  0  0  0  0
   14.4136  -17.0570   20.1763 O   0  0  0  0  0  0  0  0  0  0  0  0
   14.3050  -20.6365   24.1162 O   0  0  0  0  0  0  0  0  0  0  0  0
   15.6813  -17.2036   22.0126 O   0  0  0  0  0  0  0  0  0  0  0  0
  2  1  1  1
  2  3  1  0
  3  4  1  0
  4  5  2  0
  6  5  1  0
  7  6  1  0
  8  7  2  0
  9  8  1  0
 10 11  1  0
 10  9  2  0
 11 12  2  0
 12  7  1  0
 12  4  1  0
 13 14  2  0
 13  2  1  0
 15 13  1  0
 16 15  1  0
 16 17  1  1
 18 17  1  0
 18 22  1  0
 19 20  1  0
 19 18  2  0
 20 21  1  0
 21 22  2  0
 23 16  1  0
 24 23  2  0
 25 23  1  0
 26 25  1  0
 26 27  1  6
 27 28  1  0
 28 29  2  0
 30 26  1  0
 30 31  1  0
 32 28  1  0
 33 30  2  0
M  END
$$$$
