WHD.pdb
     RDKit          3D

 33 35  0  0  1  0  0  0  0  0999 V2000
    6.6472  -17.2065   23.7076 N   0  0  0  0  0  0  0  0  0  0  0  0
    7.6836  -16.2454   23.3752 C   0  0  1  0  0  0  0  0  0  0  0  0
    8.4709  -15.9505   24.6566 C   0  0  0  0  0  0  0  0  0  0  0  0
    7.6034  -15.1118   25.5135 C   0  0  0  0  0  0  0  0  0  0  0  0
    6.5881  -15.5577   26.3276 C   0  0  0  0  0  0  0  0  0  0  0  0
    6.0104  -14.5199   26.9576 N   0  0  0  0  0  0  0  0  0  0  0  0
    6.6390  -13.4272   26.5590 C   0  0  0  0  0  0  0  0  0  0  0  0
    6.4748  -12.0831   26.8761 C   0  0  0  0  0  0  0  0  0  0  0  0
    7.2892  -11.1295   26.3029 C   0  0  0  0  0  0  0  0  0  0  0  0
    8.2770  -11.4476   25.4139 C   0  0  0  0  0  0  0  0  0  0  0  0
    8.4517  -12.7897   25.0877 C   0  0  0  0  0  0  0  0  0  0  0  0
    7.6483  -13.7485   25.6511 C   0  0  0  0  0  0  0  0  0  0  0  0
    8.5537  -16.7447   22.2956 C   0  0  0  0  0  0  0  0  0  0  0  0
    8.5056  -17.9673   22.0101 O   0  0  0  0  0  0  0  0  0  0  0  0
    9.4092  -15.8354   21.6206 N   0  0  0  0  0  0  0  0  0  0  0  0
   10.3570  -16.2887   20.6368 C   0  0  1  0  0  0  0  0  0  0  0  0
   10.4769  -15.3050   19.4826 C   0  0  0  0  0  0  0  0  0  0  0  0
    9.1275  -14.7796   19.1131 C   0  0  0  0  0  0  0  0  0  0  0  0
    7.9113  -15.1751   19.6501 C   0  0  0  0  0  0  0  0  0  0  0  0
    6.9217  -14.4736   19.0639 N   0  0  0  0  0  0  0  0  0  0  0  0
    7.4863  -13.6483   18.1729 C   0  0  0  0  0  0  0  0  0  0  0  0
    8.8078  -13.8343   18.2051 N   0  0  0  0  0  0  0  0  0  0  0  0
   11.6711  -16.5360   21.2726 C   0  0  0  0  0  0  0  0  0  0  0  0
   12.4568  -15.5933   21.5490 O   0  0  0  0  0  0  0  0  0  0  0  0
   12.0607  -17.8657   21.5805 N   0  0  0  0  0  0  0  0  0  0  0  0
   13.4366  -18.1131   22.0158 C   0  0  1  0  0  0  0  0  0  0  0  0
   13.4983  -19.3514   22.8651 C   0  0  0  0  0  0  0  0  0  0  0  0
   12.6757  -19.3216   24.0792 C   0  0  0  0  0  0  0  0  0  0  0  0
   12.7261  -18.4243   24.9450 O   0  0  0  0  0  0  0  0  0  0  0  0
   14.2267  -18.2168   20.7661 C   0  0  0  0  0  0  0  0  0  0  0  0
   15.6016  -18.1414   20.7156 O   0  0  0  0  0  0  0  0  0  0  0  0
   11.7609  -20.3555   24.3141 O   0  0  0  0  0  0  0  0  0  0  0  0
   13.6688  -18.3879   19.6183 O   0  0  0  0  0  0  0  0  0  0  0  0
  2  1  1  1
  2  3  1  0
  3  4  1  0
  4  5  2  0
  6  5  1  0
  7  6  1  0
  8  7  2  0
  9  8  1  0
 10 11  1  0
 10  9  2  0
 11 12  2  0
 12  7  1  0
 12  4  1  0
 13 14  2  0
 13  2  1  0
 15 13  1  0
 16 15  1  0
 16 17  1  6
 18 17  1  0
 18 22  1  0
 19 20  1  0
 19 18  2  0
 20 21  1  0
 21 22  2  0
 23 16  1  0
 24 23  2  0
 25 23  1  0
 26 25  1  0
 26 27  1  6
 27 28  1  0
 28 29  2  0
 30 26  1  0
 30 31  1  0
 32 28  1  0
 33 30  2  0
M  END
$$$$
