WHD.pdb
     RDKit          3D

 33 35  0  0  1  0  0  0  0  0999 V2000
    6.1202  -16.8577   23.5984 N   0  0  0  0  0  0  0  0  0  0  0  0
    7.2735  -15.9754   23.5942 C   0  0  1  0  0  0  0  0  0  0  0  0
    7.8170  -15.9161   25.0260 C   0  0  0  0  0  0  0  0  0  0  0  0
    6.9758  -14.9508   25.7681 C   0  0  0  0  0  0  0  0  0  0  0  0
    5.8093  -15.2357   26.4392 C   0  0  0  0  0  0  0  0  0  0  0  0
    5.3106  -14.1179   26.9956 N   0  0  0  0  0  0  0  0  0  0  0  0
    6.1372  -13.1323   26.6904 C   0  0  0  0  0  0  0  0  0  0  0  0
    6.1293  -11.7748   26.9929 C   0  0  0  0  0  0  0  0  0  0  0  0
    7.1407  -10.9557   26.5378 C   0  0  0  0  0  0  0  0  0  0  0  0
    8.1795  -11.4236   25.7833 C   0  0  0  0  0  0  0  0  0  0  0  0
    8.1992  -12.7807   25.4733 C   0  0  0  0  0  0  0  0  0  0  0  0
    7.1990  -13.6067   25.9200 C   0  0  0  0  0  0  0  0  0  0  0  0
    8.2952  -16.4304   22.6346 C   0  0  0  0  0  0  0  0  0  0  0  0
    8.2497  -17.6214   22.2371 O   0  0  0  0  0  0  0  0  0  0  0  0
    9.2875  -15.5156   22.1955 N   0  0  0  0  0  0  0  0  0  0  0  0
   10.3375  -15.9231   21.2994 C   0  0  1  0  0  0  0  0  0  0  0  0
   10.6425  -14.8451   20.2702 C   0  0  0  0  0  0  0  0  0  0  0  0
    9.4079  -14.5073   19.4988 C   0  0  0  0  0  0  0  0  0  0  0  0
    8.9388  -15.1547   18.3653 C   0  0  0  0  0  0  0  0  0  0  0  0
    7.7993  -14.5620   17.9591 N   0  0  0  0  0  0  0  0  0  0  0  0
    7.5418  -13.5593   18.8088 C   0  0  0  0  0  0  0  0  0  0  0  0
    8.5075  -13.5295   19.7299 N   0  0  0  0  0  0  0  0  0  0  0  0
   11.5480  -16.2917   22.0684 C   0  0  0  0  0  0  0  0  0  0  0  0
   12.0460  -15.5160   22.9243 O   0  0  0  0  0  0  0  0  0  0  0  0
   12.1669  -17.5485   21.8397 N   0  0  0  0  0  0  0  0  0  0  0  0
   13.4153  -17.8560   22.5400 C   0  0  1  0  0  0  0  0  0  0  0  0
   14.3585  -16.6888   22.4577 C   0  0  0  0  0  0  0  0  0  0  0  0
   15.2940  -16.7160   21.3283 C   0  0  0  0  0  0  0  0  0  0  0  0
   15.2974  -17.5867   20.4343 O   0  0  0  0  0  0  0  0  0  0  0  0
   13.0111  -18.1893   23.9264 C   0  0  0  0  0  0  0  0  0  0  0  0
   11.7393  -18.0042   24.4234 O   0  0  0  0  0  0  0  0  0  0  0  0
   16.2628  -15.7112   21.2151 O   0  0  0  0  0  0  0  0  0  0  0  0
   13.8396  -18.6848   24.7784 O   0  0  0  0  0  0  0  0  0  0  0  0
  2  1  1  1
  2  3  1  0
  3  4  1  0
  4  5  2  0
  6  5  1  0
  7  6  1  0
  8  7  2  0
  9  8  1  0
 10 11  1  0
 10  9  2  0
 11 12  2  0
 12  7  1  0
 12  4  1  0
 13 14  2  0
 13  2  1  0
 15 13  1  0
 16 15  1  0
 16 17  1  6
 18 17  1  0
 18 22  1  0
 19 20  1  0
 19 18  2  0
 20 21  1  0
 21 22  2  0
 23 16  1  0
 24 23  2  0
 25 23  1  0
 26 25  1  0
 26 27  1  1
 27 28  1  0
 28 29  2  0
 30 26  1  0
 30 31  1  0
 32 28  1  0
 33 30  2  0
M  END
$$$$
