WHD.pdb
     RDKit          3D

 33 35  0  0  1  0  0  0  0  0999 V2000
    9.4946  -17.2136   21.1342 N   0  0  0  0  0  0  0  0  0  0  0  0
    9.1648  -16.2221   22.1424 C   0  0  1  0  0  0  0  0  0  0  0  0
    7.6438  -16.0348   22.1285 C   0  0  0  0  0  0  0  0  0  0  0  0
    7.3794  -14.6190   22.4689 C   0  0  0  0  0  0  0  0  0  0  0  0
    7.5248  -13.5392   21.6292 C   0  0  0  0  0  0  0  0  0  0  0  0
    7.1991  -12.4048   22.2732 N   0  0  0  0  0  0  0  0  0  0  0  0
    6.8508  -12.7446   23.5025 C   0  0  0  0  0  0  0  0  0  0  0  0
    6.4244  -11.9984   24.5959 C   0  0  0  0  0  0  0  0  0  0  0  0
    6.1173  -12.6230   25.7861 C   0  0  0  0  0  0  0  0  0  0  0  0
    6.2135  -13.9762   25.9500 C   0  0  0  0  0  0  0  0  0  0  0  0
    6.6393  -14.7348   24.8631 C   0  0  0  0  0  0  0  0  0  0  0  0
    6.9480  -14.1257   23.6732 C   0  0  0  0  0  0  0  0  0  0  0  0
    9.6593  -16.6219   23.4719 C   0  0  0  0  0  0  0  0  0  0  0  0
   10.5211  -17.5338   23.5366 O   0  0  0  0  0  0  0  0  0  0  0  0
    9.1499  -15.9686   24.6243 N   0  0  0  0  0  0  0  0  0  0  0  0
    9.8343  -16.0386   25.8886 C   0  0  1  0  0  0  0  0  0  0  0  0
    9.2503  -15.0579   26.8943 C   0  0  0  0  0  0  0  0  0  0  0  0
    9.9916  -15.1471   28.1889 C   0  0  0  0  0  0  0  0  0  0  0  0
   10.7261  -14.1366   28.7918 C   0  0  0  0  0  0  0  0  0  0  0  0
   11.2449  -14.5977   29.9464 N   0  0  0  0  0  0  0  0  0  0  0  0
   10.8546  -15.8716   30.0830 C   0  0  0  0  0  0  0  0  0  0  0  0
   10.1039  -16.1973   29.0283 N   0  0  0  0  0  0  0  0  0  0  0  0
    9.8035  -17.4249   26.4076 C   0  0  0  0  0  0  0  0  0  0  0  0
    8.7206  -18.0455   26.5644 O   0  0  0  0  0  0  0  0  0  0  0  0
   11.0207  -18.0758   26.7386 N   0  0  0  0  0  0  0  0  0  0  0  0
   10.9677  -19.4365   27.2765 C   0  0  1  0  0  0  0  0  0  0  0  0
   12.0061  -20.2979   26.6145 C   0  0  0  0  0  0  0  0  0  0  0  0
   12.1417  -21.6515   27.1631 C   0  0  0  0  0  0  0  0  0  0  0  0
   11.4407  -22.1131   28.0867 O   0  0  0  0  0  0  0  0  0  0  0  0
   11.1724  -19.2852   28.7366 C   0  0  0  0  0  0  0  0  0  0  0  0
   12.0820  -18.4176   29.3010 O   0  0  0  0  0  0  0  0  0  0  0  0
   13.1144  -22.5109   26.6376 O   0  0  0  0  0  0  0  0  0  0  0  0
   10.4992  -19.9697   29.5946 O   0  0  0  0  0  0  0  0  0  0  0  0
  2  1  1  6
  2  3  1  0
  3  4  1  0
  4  5  2  0
  6  5  1  0
  7  6  1  0
  8  7  2  0
  9  8  1  0
 10 11  1  0
 10  9  2  0
 11 12  2  0
 12  7  1  0
 12  4  1  0
 13 14  2  0
 13  2  1  0
 15 13  1  0
 16 15  1  0
 16 17  1  1
 18 17  1  0
 18 22  1  0
 19 20  1  0
 19 18  2  0
 20 21  1  0
 21 22  2  0
 23 16  1  0
 24 23  2  0
 25 23  1  0
 26 25  1  0
 26 27  1  6
 27 28  1  0
 28 29  2  0
 30 26  1  0
 30 31  1  0
 32 28  1  0
 33 30  2  0
M  END
$$$$
