WHD.pdb
     RDKit          3D

 33 35  0  0  1  0  0  0  0  0999 V2000
    7.3043  -17.7909   25.8560 N   0  0  0  0  0  0  0  0  0  0  0  0
    6.5611  -17.1546   24.7831 C   0  0  1  0  0  0  0  0  0  0  0  0
    5.8848  -15.9078   25.3634 C   0  0  0  0  0  0  0  0  0  0  0  0
    6.9091  -15.1882   26.1529 C   0  0  0  0  0  0  0  0  0  0  0  0
    8.0651  -15.7263   26.6690 C   0  0  0  0  0  0  0  0  0  0  0  0
    8.7578  -14.7845   27.3330 N   0  0  0  0  0  0  0  0  0  0  0  0
    8.0643  -13.6623   27.2474 C   0  0  0  0  0  0  0  0  0  0  0  0
    8.2920  -12.3802   27.7360 C   0  0  0  0  0  0  0  0  0  0  0  0
    7.3835  -11.3722   27.4920 C   0  0  0  0  0  0  0  0  0  0  0  0
    6.2386  -11.5751   26.7742 C   0  0  0  0  0  0  0  0  0  0  0  0
    5.9986  -12.8541   26.2796 C   0  0  0  0  0  0  0  0  0  0  0  0
    6.8945  -13.8660   26.5152 C   0  0  0  0  0  0  0  0  0  0  0  0
    7.4360  -16.8276   23.6432 C   0  0  0  0  0  0  0  0  0  0  0  0
    8.4178  -17.5770   23.4126 O   0  0  0  0  0  0  0  0  0  0  0  0
    7.1425  -15.6871   22.8511 N   0  0  0  0  0  0  0  0  0  0  0  0
    7.8695  -15.4092   21.6403 C   0  0  1  0  0  0  0  0  0  0  0  0
    7.3630  -14.1447   20.9630 C   0  0  0  0  0  0  0  0  0  0  0  0
    7.9396  -14.0316   19.5889 C   0  0  0  0  0  0  0  0  0  0  0  0
    8.5247  -12.9057   19.0285 C   0  0  0  0  0  0  0  0  0  0  0  0
    8.9248  -13.1947   17.7749 N   0  0  0  0  0  0  0  0  0  0  0  0
    8.6055  -14.4730   17.5349 C   0  0  0  0  0  0  0  0  0  0  0  0
    8.0155  -14.9712   18.6238 N   0  0  0  0  0  0  0  0  0  0  0  0
    9.3198  -15.3232   21.9262 C   0  0  0  0  0  0  0  0  0  0  0  0
    9.7575  -14.7062   22.9313 O   0  0  0  0  0  0  0  0  0  0  0  0
   10.2444  -15.9493   21.0499 N   0  0  0  0  0  0  0  0  0  0  0  0
   11.6739  -15.8585   21.3532 C   0  0  1  0  0  0  0  0  0  0  0  0
   12.1835  -17.1802   21.8552 C   0  0  0  0  0  0  0  0  0  0  0  0
   13.6413  -17.2847   21.9798 C   0  0  0  0  0  0  0  0  0  0  0  0
   14.2519  -18.3321   22.2762 O   0  0  0  0  0  0  0  0  0  0  0  0
   12.3125  -15.4236   20.0885 C   0  0  0  0  0  0  0  0  0  0  0  0
   11.9237  -15.8583   18.8401 O   0  0  0  0  0  0  0  0  0  0  0  0
   14.4323  -16.1507   21.7580 O   0  0  0  0  0  0  0  0  0  0  0  0
   13.2955  -14.5921   20.0711 O   0  0  0  0  0  0  0  0  0  0  0  0
  2  1  1  1
  2  3  1  0
  3  4  1  0
  4  5  2  0
  6  5  1  0
  7  6  1  0
  8  7  2  0
  9  8  1  0
 10 11  1  0
 10  9  2  0
 11 12  2  0
 12  7  1  0
 12  4  1  0
 13 14  2  0
 13  2  1  0
 15 13  1  0
 16 15  1  0
 16 17  1  1
 18 17  1  0
 18 22  1  0
 19 20  1  0
 19 18  2  0
 20 21  1  0
 21 22  2  0
 23 16  1  0
 24 23  2  0
 25 23  1  0
 26 25  1  0
 26 27  1  6
 27 28  1  0
 28 29  2  0
 30 26  1  0
 30 31  1  0
 32 28  1  0
 33 30  2  0
M  END
$$$$
