WHD.pdb
     RDKit          3D

 33 35  0  0  1  0  0  0  0  0999 V2000
    6.4125  -17.9977   25.0553 N   0  0  0  0  0  0  0  0  0  0  0  0
    6.7073  -16.6208   24.7006 C   0  0  1  0  0  0  0  0  0  0  0  0
    7.6058  -16.0413   25.7987 C   0  0  0  0  0  0  0  0  0  0  0  0
    6.8306  -14.9771   26.4746 C   0  0  0  0  0  0  0  0  0  0  0  0
    5.8117  -15.1626   27.3799 C   0  0  0  0  0  0  0  0  0  0  0  0
    5.3328  -13.9742   27.7877 N   0  0  0  0  0  0  0  0  0  0  0  0
    6.0275  -13.0413   27.1594 C   0  0  0  0  0  0  0  0  0  0  0  0
    5.9736  -11.6520   27.1906 C   0  0  0  0  0  0  0  0  0  0  0  0
    6.8376  -10.9056   26.4176 C   0  0  0  0  0  0  0  0  0  0  0  0
    7.7702  -11.4784   25.5994 C   0  0  0  0  0  0  0  0  0  0  0  0
    7.8346  -12.8685   25.5588 C   0  0  0  0  0  0  0  0  0  0  0  0
    6.9807  -13.6228   26.3230 C   0  0  0  0  0  0  0  0  0  0  0  0
    7.3343  -16.5307   23.3700 C   0  0  0  0  0  0  0  0  0  0  0  0
    8.0707  -17.4767   22.9940 O   0  0  0  0  0  0  0  0  0  0  0  0
    7.0872  -15.3882   22.5651 N   0  0  0  0  0  0  0  0  0  0  0  0
    7.7485  -15.2066   21.2996 C   0  0  1  0  0  0  0  0  0  0  0  0
    7.2991  -13.9251   20.6140 C   0  0  0  0  0  0  0  0  0  0  0  0
    7.9588  -13.7981   19.2790 C   0  0  0  0  0  0  0  0  0  0  0  0
    8.8264  -12.7926   18.8784 C   0  0  0  0  0  0  0  0  0  0  0  0
    9.2118  -13.0235   17.6083 N   0  0  0  0  0  0  0  0  0  0  0  0
    8.6082  -14.1479   17.2022 C   0  0  0  0  0  0  0  0  0  0  0  0
    7.8584  -14.6092   18.2057 N   0  0  0  0  0  0  0  0  0  0  0  0
    9.2173  -15.2320   21.4850 C   0  0  0  0  0  0  0  0  0  0  0  0
    9.7718  -14.6224   22.4354 O   0  0  0  0  0  0  0  0  0  0  0  0
   10.0256  -15.9591   20.5725 N   0  0  0  0  0  0  0  0  0  0  0  0
   11.4733  -15.9944   20.7881 C   0  0  1  0  0  0  0  0  0  0  0  0
   11.8718  -17.2941   21.4291 C   0  0  0  0  0  0  0  0  0  0  0  0
   13.3161  -17.5351   21.5147 C   0  0  0  0  0  0  0  0  0  0  0  0
   14.1896  -16.7516   21.0899 O   0  0  0  0  0  0  0  0  0  0  0  0
   12.0708  -15.7922   19.4470 C   0  0  0  0  0  0  0  0  0  0  0  0
   13.3056  -15.2196   19.2324 O   0  0  0  0  0  0  0  0  0  0  0  0
   13.7811  -18.7154   22.1077 O   0  0  0  0  0  0  0  0  0  0  0  0
   11.4626  -16.1456   18.3686 O   0  0  0  0  0  0  0  0  0  0  0  0
  2  1  1  1
  2  3  1  0
  3  4  1  0
  4  5  2  0
  6  5  1  0
  7  6  1  0
  8  7  2  0
  9  8  1  0
 10 11  1  0
 10  9  2  0
 11 12  2  0
 12  7  1  0
 12  4  1  0
 13 14  2  0
 13  2  1  0
 15 13  1  0
 16 15  1  0
 16 17  1  1
 18 17  1  0
 18 22  1  0
 19 20  1  0
 19 18  2  0
 20 21  1  0
 21 22  2  0
 23 16  1  0
 24 23  2  0
 25 23  1  0
 26 25  1  0
 26 27  1  6
 27 28  1  0
 28 29  2  0
 30 26  1  0
 30 31  1  0
 32 28  1  0
 33 30  2  0
M  END
$$$$
