WHD.pdb
     RDKit          3D

 33 35  0  0  1  0  0  0  0  0999 V2000
    6.4218  -16.7870   23.6994 N   0  0  0  0  0  0  0  0  0  0  0  0
    7.5820  -15.9350   23.5079 C   0  0  1  0  0  0  0  0  0  0  0  0
    8.2493  -15.7463   24.8745 C   0  0  0  0  0  0  0  0  0  0  0  0
    7.3048  -14.9764   25.7143 C   0  0  0  0  0  0  0  0  0  0  0  0
    6.1776  -15.4677   26.3311 C   0  0  0  0  0  0  0  0  0  0  0  0
    5.5563  -14.4869   27.0092 N   0  0  0  0  0  0  0  0  0  0  0  0
    6.2668  -13.3859   26.8341 C   0  0  0  0  0  0  0  0  0  0  0  0
    6.1063  -12.0836   27.2951 C   0  0  0  0  0  0  0  0  0  0  0  0
    7.0193  -11.1083   26.9540 C   0  0  0  0  0  0  0  0  0  0  0  0
    8.1042  -11.3640   26.1636 C   0  0  0  0  0  0  0  0  0  0  0  0
    8.2765  -12.6637   25.6953 C   0  0  0  0  0  0  0  0  0  0  0  0
    7.3754  -13.6435   26.0274 C   0  0  0  0  0  0  0  0  0  0  0  0
    8.5097  -16.5050   22.5148 C   0  0  0  0  0  0  0  0  0  0  0  0
    8.4672  -17.7426   22.3026 O   0  0  0  0  0  0  0  0  0  0  0  0
    9.4119  -15.6439   21.8374 N   0  0  0  0  0  0  0  0  0  0  0  0
   10.2896  -16.1384   20.8093 C   0  0  1  0  0  0  0  0  0  0  0  0
   10.5542  -15.0829   19.7462 C   0  0  0  0  0  0  0  0  0  0  0  0
    9.2659  -14.6344   19.1358 C   0  0  0  0  0  0  0  0  0  0  0  0
    8.0031  -15.1407   19.4060 C   0  0  0  0  0  0  0  0  0  0  0  0
    7.0951  -14.4806   18.6611 N   0  0  0  0  0  0  0  0  0  0  0  0
    7.7562  -13.5733   17.9307 C   0  0  0  0  0  0  0  0  0  0  0  0
    9.0564  -13.6683   18.2177 N   0  0  0  0  0  0  0  0  0  0  0  0
   11.5520  -16.6264   21.4098 C   0  0  0  0  0  0  0  0  0  0  0  0
   12.4379  -17.1877   20.7152 O   0  0  0  0  0  0  0  0  0  0  0  0
   11.7750  -16.4609   22.8018 N   0  0  0  0  0  0  0  0  0  0  0  0
   12.8639  -17.2081   23.4340 C   0  0  1  0  0  0  0  0  0  0  0  0
   14.0568  -16.3168   23.6365 C   0  0  0  0  0  0  0  0  0  0  0  0
   14.8281  -16.0154   22.4258 C   0  0  0  0  0  0  0  0  0  0  0  0
   14.5728  -16.4730   21.2932 O   0  0  0  0  0  0  0  0  0  0  0  0
   12.2950  -17.7266   24.7005 C   0  0  0  0  0  0  0  0  0  0  0  0
   12.9168  -18.6627   25.4978 O   0  0  0  0  0  0  0  0  0  0  0  0
   15.9330  -15.1594   22.5112 O   0  0  0  0  0  0  0  0  0  0  0  0
   11.1562  -17.3285   25.1506 O   0  0  0  0  0  0  0  0  0  0  0  0
  2  1  1  1
  2  3  1  0
  3  4  1  0
  4  5  2  0
  6  5  1  0
  7  6  1  0
  8  7  2  0
  9  8  1  0
 10 11  1  0
 10  9  2  0
 11 12  2  0
 12  7  1  0
 12  4  1  0
 13 14  2  0
 13  2  1  0
 15 13  1  0
 16 15  1  0
 16 17  1  6
 18 17  1  0
 18 22  1  0
 19 20  1  0
 19 18  2  0
 20 21  1  0
 21 22  2  0
 23 16  1  0
 24 23  2  0
 25 23  1  0
 26 25  1  0
 26 27  1  1
 27 28  1  0
 28 29  2  0
 30 26  1  0
 30 31  1  0
 32 28  1  0
 33 30  2  0
M  END
$$$$
