WHD.pdb
     RDKit          3D

 33 35  0  0  1  0  0  0  0  0999 V2000
    6.0362  -17.2299   23.7531 N   0  0  0  0  0  0  0  0  0  0  0  0
    7.0999  -16.2416   23.7583 C   0  0  1  0  0  0  0  0  0  0  0  0
    7.6517  -16.1618   25.1859 C   0  0  0  0  0  0  0  0  0  0  0  0
    6.9087  -15.0845   25.8770 C   0  0  0  0  0  0  0  0  0  0  0  0
    5.7433  -15.2297   26.5931 C   0  0  0  0  0  0  0  0  0  0  0  0
    5.3482  -14.0405   27.0804 N   0  0  0  0  0  0  0  0  0  0  0  0
    6.2392  -13.1464   26.6874 C   0  0  0  0  0  0  0  0  0  0  0  0
    6.3445  -11.7750   26.8932 C   0  0  0  0  0  0  0  0  0  0  0  0
    7.4027  -11.0714   26.3583 C   0  0  0  0  0  0  0  0  0  0  0  0
    8.3805  -11.6705   25.6152 C   0  0  0  0  0  0  0  0  0  0  0  0
    8.2869  -13.0430   25.4015 C   0  0  0  0  0  0  0  0  0  0  0  0
    7.2391  -13.7549   25.9283 C   0  0  0  0  0  0  0  0  0  0  0  0
    8.1493  -16.5758   22.7790 C   0  0  0  0  0  0  0  0  0  0  0  0
    8.3397  -17.7861   22.5009 O   0  0  0  0  0  0  0  0  0  0  0  0
    8.9027  -15.5282   22.1882 N   0  0  0  0  0  0  0  0  0  0  0  0
    9.9135  -15.7982   21.1998 C   0  0  1  0  0  0  0  0  0  0  0  0
   10.2243  -14.5633   20.3676 C   0  0  0  0  0  0  0  0  0  0  0  0
    9.2166  -14.4136   19.2742 C   0  0  0  0  0  0  0  0  0  0  0  0
    8.2531  -15.3410   18.9059 C   0  0  0  0  0  0  0  0  0  0  0  0
    7.5336  -14.8452   17.8805 N   0  0  0  0  0  0  0  0  0  0  0  0
    8.0212  -13.6306   17.5963 C   0  0  0  0  0  0  0  0  0  0  0  0
    9.0293  -13.3753   18.4333 N   0  0  0  0  0  0  0  0  0  0  0  0
   11.1324  -16.3299   21.8510 C   0  0  0  0  0  0  0  0  0  0  0  0
   11.5389  -15.8815   22.9537 O   0  0  0  0  0  0  0  0  0  0  0  0
   11.8651  -17.3701   21.2219 N   0  0  0  0  0  0  0  0  0  0  0  0
   13.0982  -17.8439   21.8534 C   0  0  1  0  0  0  0  0  0  0  0  0
   13.4384  -19.2222   21.3601 C   0  0  0  0  0  0  0  0  0  0  0  0
   12.4834  -20.2735   21.7262 C   0  0  0  0  0  0  0  0  0  0  0  0
   12.0834  -21.1660   20.9510 O   0  0  0  0  0  0  0  0  0  0  0  0
   14.1231  -16.8282   21.5148 C   0  0  0  0  0  0  0  0  0  0  0  0
   15.3381  -16.7169   22.1551 O   0  0  0  0  0  0  0  0  0  0  0  0
   11.9649  -20.3074   23.0266 O   0  0  0  0  0  0  0  0  0  0  0  0
   13.9427  -15.9623   20.5791 O   0  0  0  0  0  0  0  0  0  0  0  0
  2  1  1  1
  2  3  1  0
  3  4  1  0
  4  5  2  0
  6  5  1  0
  7  6  1  0
  8  7  2  0
  9  8  1  0
 10 11  1  0
 10  9  2  0
 11 12  2  0
 12  7  1  0
 12  4  1  0
 13 14  2  0
 13  2  1  0
 15 13  1  0
 16 15  1  0
 16 17  1  1
 18 17  1  0
 18 22  1  0
 19 20  1  0
 19 18  2  0
 20 21  1  0
 21 22  2  0
 23 16  1  0
 24 23  2  0
 25 23  1  0
 26 25  1  0
 26 27  1  6
 27 28  1  0
 28 29  2  0
 30 26  1  0
 30 31  1  0
 32 28  1  0
 33 30  2  0
M  END
$$$$
