WHD.pdb
     RDKit          3D

 33 35  0  0  1  0  0  0  0  0999 V2000
    6.4221  -17.0849   24.0476 N   0  0  0  0  0  0  0  0  0  0  0  0
    7.4395  -16.1139   23.6865 C   0  0  1  0  0  0  0  0  0  0  0  0
    8.1612  -15.6983   24.9730 C   0  0  0  0  0  0  0  0  0  0  0  0
    7.2294  -14.8343   25.7316 C   0  0  0  0  0  0  0  0  0  0  0  0
    6.0024  -15.2033   26.2323 C   0  0  0  0  0  0  0  0  0  0  0  0
    5.4286  -14.1640   26.8635 N   0  0  0  0  0  0  0  0  0  0  0  0
    6.2668  -13.1458   26.7725 C   0  0  0  0  0  0  0  0  0  0  0  0
    6.2042  -11.8359   27.2356 C   0  0  0  0  0  0  0  0  0  0  0  0
    7.2450  -10.9639   26.9965 C   0  0  0  0  0  0  0  0  0  0  0  0
    8.3664  -11.3321   26.3079 C   0  0  0  0  0  0  0  0  0  0  0  0
    8.4416  -12.6407   25.8386 C   0  0  0  0  0  0  0  0  0  0  0  0
    7.4129  -13.5184   26.0698 C   0  0  0  0  0  0  0  0  0  0  0  0
    8.3709  -16.6589   22.6828 C   0  0  0  0  0  0  0  0  0  0  0  0
    8.2956  -17.8815   22.4033 O   0  0  0  0  0  0  0  0  0  0  0  0
    9.3132  -15.7917   22.0711 N   0  0  0  0  0  0  0  0  0  0  0  0
   10.1902  -16.2550   21.0281 C   0  0  1  0  0  0  0  0  0  0  0  0
   10.4667  -15.1632   20.0055 C   0  0  0  0  0  0  0  0  0  0  0  0
    9.1840  -14.6811   19.4090 C   0  0  0  0  0  0  0  0  0  0  0  0
    8.1576  -15.4691   18.9093 C   0  0  0  0  0  0  0  0  0  0  0  0
    7.1694  -14.6718   18.4589 N   0  0  0  0  0  0  0  0  0  0  0  0
    7.5499  -13.4041   18.6633 C   0  0  0  0  0  0  0  0  0  0  0  0
    8.7573  -13.4135   19.2326 N   0  0  0  0  0  0  0  0  0  0  0  0
   11.4466  -16.7754   21.6137 C   0  0  0  0  0  0  0  0  0  0  0  0
   12.3237  -17.3309   20.9035 O   0  0  0  0  0  0  0  0  0  0  0  0
   11.6739  -16.6482   23.0090 N   0  0  0  0  0  0  0  0  0  0  0  0
   12.8329  -17.3219   23.5977 C   0  0  1  0  0  0  0  0  0  0  0  0
   13.9444  -16.3372   23.8289 C   0  0  0  0  0  0  0  0  0  0  0  0
   14.7526  -16.0140   22.6482 C   0  0  0  0  0  0  0  0  0  0  0  0
   14.5407  -16.4618   21.5028 O   0  0  0  0  0  0  0  0  0  0  0  0
   12.3287  -17.9437   24.8450 C   0  0  0  0  0  0  0  0  0  0  0  0
   11.2525  -17.4682   25.5621 O   0  0  0  0  0  0  0  0  0  0  0  0
   15.8441  -15.1468   22.7800 O   0  0  0  0  0  0  0  0  0  0  0  0
   12.8748  -18.9929   25.3536 O   0  0  0  0  0  0  0  0  0  0  0  0
  2  1  1  1
  2  3  1  0
  3  4  1  0
  4  5  2  0
  6  5  1  0
  7  6  1  0
  8  7  2  0
  9  8  1  0
 10 11  1  0
 10  9  2  0
 11 12  2  0
 12  7  1  0
 12  4  1  0
 13 14  2  0
 13  2  1  0
 15 13  1  0
 16 15  1  0
 16 17  1  6
 18 17  1  0
 18 22  1  0
 19 20  1  0
 19 18  2  0
 20 21  1  0
 21 22  2  0
 23 16  1  0
 24 23  2  0
 25 23  1  0
 26 25  1  0
 26 27  1  1
 27 28  1  0
 28 29  2  0
 30 26  1  0
 30 31  1  0
 32 28  1  0
 33 30  2  0
M  END
$$$$
