MSQ.pdb
     RDKit          3D

 24 23  0  0  1  0  0  0  0  0999 V2000
    7.2350  -11.0139   25.4214 C   0  0  0  0  0  0  0  0  0  0  0  0
    6.6108  -12.6208   25.9751 S   0  0  0  0  0  0  0  0  0  0  0  0
    6.6739  -13.8028   24.6066 C   0  0  0  0  0  0  0  0  0  0  0  0
    7.4529  -13.2577   23.4266 C   0  0  0  0  0  0  0  0  0  0  0  0
    7.4211  -14.3349   22.3452 C   0  0  2  0  0  0  0  0  0  0  0  0
    6.0852  -14.6843   21.9829 N   0  0  0  0  0  0  0  0  0  0  0  0
    8.1920  -15.5126   22.8931 C   0  0  0  0  0  0  0  0  0  0  0  0
    7.6330  -16.4218   23.5520 O   0  0  0  0  0  0  0  0  0  0  0  0
   12.4535  -15.7365   22.6235 O   0  0  0  0  0  0  0  0  0  0  0  0
   11.6781  -16.8662   22.3974 C   0  0  0  0  0  0  0  0  0  0  0  0
   10.4026  -16.7251   23.1986 C   0  0  2  0  0  0  0  0  0  0  0  0
    9.5863  -15.6296   22.6775 N   0  0  0  0  0  0  0  0  0  0  0  0
   10.6550  -16.5528   24.6368 C   0  0  0  0  0  0  0  0  0  0  0  0
   10.4281  -15.4191   25.2017 O   0  0  0  0  0  0  0  0  0  0  0  0
   10.7644  -14.6706   28.6761 N   0  0  0  0  0  0  0  0  0  0  0  0
   10.5016  -15.7395   29.5527 C   0  0  0  0  0  0  0  0  0  0  0  0
   10.7762  -15.6442   30.7582 O   0  0  0  0  0  0  0  0  0  0  0  0
    9.8926  -16.9862   29.0286 C   0  0  0  0  0  0  0  0  0  0  0  0
    9.8691  -17.0119   27.5266 C   0  0  0  0  0  0  0  0  0  0  0  0
   11.1721  -17.3941   26.9652 C   0  0  2  0  0  0  0  0  0  0  0  0
   11.1404  -17.5351   25.5091 N   0  0  0  0  0  0  0  0  0  0  0  0
   11.7744  -18.5862   27.5104 C   0  0  0  0  0  0  0  0  0  0  0  0
   11.5469  -19.7306   26.9918 O   0  0  0  0  0  0  0  0  0  0  0  0
   12.6136  -18.5707   28.5942 O   0  0  0  0  0  0  0  0  0  0  0  0
  2  1  1  0
  2  3  1  0
  4  3  1  0
  5  4  1  0
  5  6  1  1
  7  8  2  0
  7  5  1  0
  9 10  1  0
 11 10  1  6
 11 12  1  0
 12  7  1  0
 13 11  1  0
 13 21  1  0
 14 13  2  0
 16 17  2  0
 16 15  1  0
 18 16  1  0
 19 18  1  0
 20 19  1  1
 20 21  1  0
 20 22  1  0
 22 24  1  0
 23 22  2  0
M  END
$$$$
