MSQ.pdb
     RDKit          3D

 24 23  0  0  1  0  0  0  0  0999 V2000
    8.5072  -11.4238   20.0307 C   0  0  0  0  0  0  0  0  0  0  0  0
    7.3648  -12.4537   19.0756 S   0  0  0  0  0  0  0  0  0  0  0  0
    7.6492  -14.1982   19.4626 C   0  0  0  0  0  0  0  0  0  0  0  0
    8.4612  -14.3692   20.7307 C   0  0  0  0  0  0  0  0  0  0  0  0
    8.7029  -15.8672   20.8977 C   0  0  2  0  0  0  0  0  0  0  0  0
    7.5942  -16.6388   20.4355 N   0  0  0  0  0  0  0  0  0  0  0  0
    8.9856  -16.0931   22.3641 C   0  0  0  0  0  0  0  0  0  0  0  0
   10.0231  -15.6527   22.9145 O   0  0  0  0  0  0  0  0  0  0  0  0
    6.7217  -18.8308   24.5744 O   0  0  0  0  0  0  0  0  0  0  0  0
    7.0286  -17.6422   25.2238 C   0  0  0  0  0  0  0  0  0  0  0  0
    8.2852  -17.0790   24.5975 C   0  0  2  0  0  0  0  0  0  0  0  0
    8.0778  -16.8172   23.1739 N   0  0  0  0  0  0  0  0  0  0  0  0
    9.4566  -17.9427   24.8065 C   0  0  0  0  0  0  0  0  0  0  0  0
    9.6907  -18.9202   24.0031 O   0  0  0  0  0  0  0  0  0  0  0  0
   13.7632  -15.4129   23.0718 N   0  0  0  0  0  0  0  0  0  0  0  0
   13.9295  -16.4932   23.9580 C   0  0  0  0  0  0  0  0  0  0  0  0
   14.9776  -17.1561   23.9493 O   0  0  0  0  0  0  0  0  0  0  0  0
   12.8432  -16.8386   24.9069 C   0  0  0  0  0  0  0  0  0  0  0  0
   12.6382  -18.3234   25.0101 C   0  0  0  0  0  0  0  0  0  0  0  0
   11.5816  -18.6645   25.9726 C   0  0  2  0  0  0  0  0  0  0  0  0
   10.3976  -17.8157   25.8360 N   0  0  0  0  0  0  0  0  0  0  0  0
   11.9648  -18.6658   27.3634 C   0  0  0  0  0  0  0  0  0  0  0  0
   12.9553  -19.3622   27.7691 O   0  0  0  0  0  0  0  0  0  0  0  0
   11.3089  -17.9348   28.3198 O   0  0  0  0  0  0  0  0  0  0  0  0
  2  1  1  0
  2  3  1  0
  4  3  1  0
  5  4  1  0
  5  6  1  1
  7  8  2  0
  7  5  1  0
  9 10  1  0
 11 10  1  6
 11 12  1  0
 12  7  1  0
 13 11  1  0
 13 21  1  0
 14 13  2  0
 16 17  2  0
 16 15  1  0
 18 16  1  0
 19 18  1  0
 20 19  1  6
 20 21  1  0
 20 22  1  0
 22 24  1  0
 23 22  2  0
M  END
$$$$
