MSQ.pdb
     RDKit          3D

 24 23  0  0  1  0  0  0  0  0999 V2000
    6.9618  -11.0808   25.6671 C   0  0  0  0  0  0  0  0  0  0  0  0
    5.9082  -12.1797   26.6472 S   0  0  0  0  0  0  0  0  0  0  0  0
    5.5941  -13.7043   25.7248 C   0  0  0  0  0  0  0  0  0  0  0  0
    6.8786  -14.4359   25.3912 C   0  0  0  0  0  0  0  0  0  0  0  0
    6.4873  -15.6451   24.5454 C   0  0  2  0  0  0  0  0  0  0  0  0
    5.6415  -16.5438   25.2631 N   0  0  0  0  0  0  0  0  0  0  0  0
    7.7782  -16.2980   24.1109 C   0  0  0  0  0  0  0  0  0  0  0  0
    8.3610  -17.1514   24.8217 O   0  0  0  0  0  0  0  0  0  0  0  0
   10.2082  -14.6644   21.0242 O   0  0  0  0  0  0  0  0  0  0  0  0
    9.9697  -16.0324   21.0167 C   0  0  0  0  0  0  0  0  0  0  0  0
    9.6817  -16.4639   22.4377 C   0  0  2  0  0  0  0  0  0  0  0  0
    8.3783  -15.9640   22.8730 N   0  0  0  0  0  0  0  0  0  0  0  0
   10.7386  -16.0592   23.3764 C   0  0  0  0  0  0  0  0  0  0  0  0
   10.7878  -14.8493   23.8118 O   0  0  0  0  0  0  0  0  0  0  0  0
   10.5207  -16.1243   28.4559 N   0  0  0  0  0  0  0  0  0  0  0  0
   11.9053  -16.3035   28.6314 C   0  0  0  0  0  0  0  0  0  0  0  0
   12.4477  -15.9906   29.7018 O   0  0  0  0  0  0  0  0  0  0  0  0
   12.7181  -16.8703   27.5278 C   0  0  0  0  0  0  0  0  0  0  0  0
   11.8921  -17.1382   26.3018 C   0  0  0  0  0  0  0  0  0  0  0  0
   12.5203  -16.5960   25.0892 C   0  0  2  0  0  0  0  0  0  0  0  0
   11.7524  -16.8851   23.8776 N   0  0  0  0  0  0  0  0  0  0  0  0
   13.8868  -16.9916   24.8497 C   0  0  0  0  0  0  0  0  0  0  0  0
   14.1862  -17.7508   23.8677 O   0  0  0  0  0  0  0  0  0  0  0  0
   14.9312  -16.5865   25.6398 O   0  0  0  0  0  0  0  0  0  0  0  0
  2  1  1  0
  2  3  1  0
  4  3  1  0
  5  4  1  0
  5  6  1  1
  7  8  2  0
  7  5  1  0
  9 10  1  0
 11 10  1  6
 11 12  1  0
 12  7  1  0
 13 11  1  0
 13 21  1  0
 14 13  2  0
 16 17  2  0
 16 15  1  0
 18 16  1  0
 19 18  1  0
 20 19  1  1
 20 21  1  0
 20 22  1  0
 22 24  1  0
 23 22  2  0
M  END
$$$$
