MSQ.pdb
     RDKit          3D

 24 23  0  0  1  0  0  0  0  0999 V2000
    5.7533  -11.0262   26.9288 C   0  0  0  0  0  0  0  0  0  0  0  0
    7.1209  -12.1851   26.6737 S   0  0  0  0  0  0  0  0  0  0  0  0
    6.5958  -13.5107   25.5596 C   0  0  0  0  0  0  0  0  0  0  0  0
    7.6929  -14.5336   25.3443 C   0  0  0  0  0  0  0  0  0  0  0  0
    7.0976  -15.6382   24.4748 C   0  0  2  0  0  0  0  0  0  0  0  0
    5.9705  -16.2548   25.0974 N   0  0  0  0  0  0  0  0  0  0  0  0
    8.2136  -16.6210   24.2098 C   0  0  0  0  0  0  0  0  0  0  0  0
    8.3649  -17.6547   24.9039 O   0  0  0  0  0  0  0  0  0  0  0  0
   11.4063  -15.5979   21.6181 O   0  0  0  0  0  0  0  0  0  0  0  0
   10.9499  -16.9093   21.5966 C   0  0  0  0  0  0  0  0  0  0  0  0
   10.3356  -17.2120   22.9455 C   0  0  2  0  0  0  0  0  0  0  0  0
    9.1349  -16.4046   23.1569 N   0  0  0  0  0  0  0  0  0  0  0  0
   11.2875  -17.0357   24.0522 C   0  0  0  0  0  0  0  0  0  0  0  0
   11.5073  -15.8636   24.5353 O   0  0  0  0  0  0  0  0  0  0  0  0
   11.6614  -18.5759   30.4949 N   0  0  0  0  0  0  0  0  0  0  0  0
   11.7592  -17.5334   29.5549 C   0  0  0  0  0  0  0  0  0  0  0  0
   11.1063  -16.4898   29.7054 O   0  0  0  0  0  0  0  0  0  0  0  0
   12.6491  -17.6866   28.3784 C   0  0  0  0  0  0  0  0  0  0  0  0
   11.8736  -17.7696   27.0942 C   0  0  0  0  0  0  0  0  0  0  0  0
   12.7585  -17.8834   25.9267 C   0  0  2  0  0  0  0  0  0  0  0  0
   12.0218  -18.0534   24.6740 N   0  0  0  0  0  0  0  0  0  0  0  0
   13.7647  -18.9154   25.9897 C   0  0  0  0  0  0  0  0  0  0  0  0
   13.7015  -19.9388   25.2287 O   0  0  0  0  0  0  0  0  0  0  0  0
   14.8322  -18.8666   26.8483 O   0  0  0  0  0  0  0  0  0  0  0  0
  2  1  1  0
  2  3  1  0
  4  3  1  0
  5  4  1  0
  5  6  1  1
  7  8  2  0
  7  5  1  0
  9 10  1  0
 11 10  1  6
 11 12  1  0
 12  7  1  0
 13 11  1  0
 13 21  1  0
 14 13  2  0
 16 17  2  0
 16 15  1  0
 18 16  1  0
 19 18  1  0
 20 19  1  1
 20 21  1  0
 20 22  1  0
 22 24  1  0
 23 22  2  0
M  END
$$$$
