MSQ.pdb
     RDKit          3D

 24 23  0  0  1  0  0  0  0  0999 V2000
    5.5034  -11.7366   25.1249 C   0  0  0  0  0  0  0  0  0  0  0  0
    6.9411  -12.4423   25.9694 S   0  0  0  0  0  0  0  0  0  0  0  0
    6.9407  -14.2410   25.7722 C   0  0  0  0  0  0  0  0  0  0  0  0
    6.4578  -14.6571   24.3974 C   0  0  0  0  0  0  0  0  0  0  0  0
    6.4652  -16.1835   24.3738 C   0  0  2  0  0  0  0  0  0  0  0  0
    5.9140  -16.7358   25.5693 N   0  0  0  0  0  0  0  0  0  0  0  0
    7.9013  -16.6002   24.1602 C   0  0  0  0  0  0  0  0  0  0  0  0
    8.5682  -17.1648   25.0600 O   0  0  0  0  0  0  0  0  0  0  0  0
   10.1845  -15.3172   20.8047 O   0  0  0  0  0  0  0  0  0  0  0  0
   10.2058  -16.6623   21.1493 C   0  0  0  0  0  0  0  0  0  0  0  0
    9.9225  -16.7690   22.6315 C   0  0  2  0  0  0  0  0  0  0  0  0
    8.5479  -16.3644   22.9231 N   0  0  0  0  0  0  0  0  0  0  0  0
   10.8782  -16.0038   23.4459 C   0  0  0  0  0  0  0  0  0  0  0  0
   10.5936  -14.8067   23.8222 O   0  0  0  0  0  0  0  0  0  0  0  0
   10.3383  -16.6717   28.5684 N   0  0  0  0  0  0  0  0  0  0  0  0
   11.7015  -16.3885   28.7716 C   0  0  0  0  0  0  0  0  0  0  0  0
   12.1808  -16.3993   29.9153 O   0  0  0  0  0  0  0  0  0  0  0  0
   12.5678  -16.0756   27.6091 C   0  0  0  0  0  0  0  0  0  0  0  0
   11.8586  -16.2988   26.3036 C   0  0  0  0  0  0  0  0  0  0  0  0
   12.7429  -16.0660   25.1534 C   0  0  2  0  0  0  0  0  0  0  0  0
   12.1305  -16.4540   23.8824 N   0  0  0  0  0  0  0  0  0  0  0  0
   14.0470  -16.6793   25.2196 C   0  0  0  0  0  0  0  0  0  0  0  0
   15.0447  -16.0457   25.7030 O   0  0  0  0  0  0  0  0  0  0  0  0
   14.2963  -17.9540   24.7812 O   0  0  0  0  0  0  0  0  0  0  0  0
  2  1  1  0
  2  3  1  0
  4  3  1  0
  5  4  1  0
  5  6  1  1
  7  8  2  0
  7  5  1  0
  9 10  1  0
 11 10  1  6
 11 12  1  0
 12  7  1  0
 13 11  1  0
 13 21  1  0
 14 13  2  0
 16 17  2  0
 16 15  1  0
 18 16  1  0
 19 18  1  0
 20 19  1  1
 20 21  1  0
 20 22  1  0
 22 24  1  0
 23 22  2  0
M  END
$$$$
