MSQ.pdb
     RDKit          3D

 24 23  0  0  1  0  0  0  0  0999 V2000
    7.8543  -11.4168   26.4556 C   0  0  0  0  0  0  0  0  0  0  0  0
    6.2408  -11.8783   25.7759 S   0  0  0  0  0  0  0  0  0  0  0  0
    6.4710  -12.8406   24.2610 C   0  0  0  0  0  0  0  0  0  0  0  0
    7.3670  -14.0417   24.4870 C   0  0  0  0  0  0  0  0  0  0  0  0
    7.5501  -14.7137   23.1286 C   0  0  2  0  0  0  0  0  0  0  0  0
    6.3023  -15.1121   22.5608 N   0  0  0  0  0  0  0  0  0  0  0  0
    8.4765  -15.8853   23.3533 C   0  0  0  0  0  0  0  0  0  0  0  0
    8.1642  -16.8432   24.1004 O   0  0  0  0  0  0  0  0  0  0  0  0
   12.4510  -15.9112   21.7760 O   0  0  0  0  0  0  0  0  0  0  0  0
   11.7118  -17.0856   21.8308 C   0  0  0  0  0  0  0  0  0  0  0  0
   10.7419  -16.9734   22.9864 C   0  0  2  0  0  0  0  0  0  0  0  0
    9.7415  -15.9408   22.7200 N   0  0  0  0  0  0  0  0  0  0  0  0
   11.4176  -16.7302   24.2695 C   0  0  0  0  0  0  0  0  0  0  0  0
   11.7451  -15.5336   24.6110 O   0  0  0  0  0  0  0  0  0  0  0  0
   10.7887  -14.6822   29.5298 N   0  0  0  0  0  0  0  0  0  0  0  0
   10.7127  -16.0872   29.5112 C   0  0  0  0  0  0  0  0  0  0  0  0
   10.7524  -16.7316   30.5700 O   0  0  0  0  0  0  0  0  0  0  0  0
   10.5846  -16.7986   28.2161 C   0  0  0  0  0  0  0  0  0  0  0  0
   11.5745  -16.3011   27.2013 C   0  0  0  0  0  0  0  0  0  0  0  0
   12.2885  -17.4055   26.5459 C   0  0  2  0  0  0  0  0  0  0  0  0
   11.7639  -17.7053   25.2132 N   0  0  0  0  0  0  0  0  0  0  0  0
   12.3562  -18.6444   27.2818 C   0  0  0  0  0  0  0  0  0  0  0  0
   13.0653  -18.7399   28.3394 O   0  0  0  0  0  0  0  0  0  0  0  0
   11.6779  -19.7748   26.9059 O   0  0  0  0  0  0  0  0  0  0  0  0
  2  1  1  0
  2  3  1  0
  4  3  1  0
  5  4  1  0
  5  6  1  1
  7  8  2  0
  7  5  1  0
  9 10  1  0
 11 10  1  6
 11 12  1  0
 12  7  1  0
 13 11  1  0
 13 21  1  0
 14 13  2  0
 16 17  2  0
 16 15  1  0
 18 16  1  0
 19 18  1  0
 20 19  1  1
 20 21  1  0
 20 22  1  0
 22 24  1  0
 23 22  2  0
M  END
$$$$
