MSQ.pdb
     RDKit          3D

 24 23  0  0  1  0  0  0  0  0999 V2000
    7.7907  -11.8440   19.5648 C   0  0  0  0  0  0  0  0  0  0  0  0
    6.7772  -13.2477   19.0350 S   0  0  0  0  0  0  0  0  0  0  0  0
    7.7050  -14.7856   19.2541 C   0  0  0  0  0  0  0  0  0  0  0  0
    9.2005  -14.5423   19.2827 C   0  0  0  0  0  0  0  0  0  0  0  0
    9.8593  -15.8932   19.5502 C   0  0  2  0  0  0  0  0  0  0  0  0
    8.9711  -16.9789   19.2846 N   0  0  0  0  0  0  0  0  0  0  0  0
   10.3170  -15.8674   20.9893 C   0  0  0  0  0  0  0  0  0  0  0  0
   11.5321  -15.8998   21.2988 O   0  0  0  0  0  0  0  0  0  0  0  0
    7.6217  -16.7569   23.9649 O   0  0  0  0  0  0  0  0  0  0  0  0
    8.5078  -15.7529   24.3326 C   0  0  0  0  0  0  0  0  0  0  0  0
    9.7393  -15.8754   23.4625 C   0  0  2  0  0  0  0  0  0  0  0  0
    9.3784  -15.8046   22.0473 N   0  0  0  0  0  0  0  0  0  0  0  0
   10.5126  -17.0933   23.7461 C   0  0  0  0  0  0  0  0  0  0  0  0
   10.7964  -17.9145   22.7970 O   0  0  0  0  0  0  0  0  0  0  0  0
   15.4515  -15.6781   23.5564 N   0  0  0  0  0  0  0  0  0  0  0  0
   15.8181  -16.8503   24.2431 C   0  0  0  0  0  0  0  0  0  0  0  0
   17.0116  -17.1729   24.3406 O   0  0  0  0  0  0  0  0  0  0  0  0
   14.7688  -17.7030   24.8527 C   0  0  0  0  0  0  0  0  0  0  0  0
   13.3901  -17.1577   24.6096 C   0  0  0  0  0  0  0  0  0  0  0  0
   12.3532  -17.9956   25.2276 C   0  0  2  0  0  0  0  0  0  0  0  0
   11.0021  -17.4824   24.9993 N   0  0  0  0  0  0  0  0  0  0  0  0
   12.4967  -18.2457   26.6411 C   0  0  0  0  0  0  0  0  0  0  0  0
   12.1821  -17.3539   27.4991 O   0  0  0  0  0  0  0  0  0  0  0  0
   12.9664  -19.4303   27.1463 O   0  0  0  0  0  0  0  0  0  0  0  0
  2  1  1  0
  2  3  1  0
  4  3  1  0
  5  4  1  0
  5  6  1  1
  7  8  2  0
  7  5  1  0
  9 10  1  0
 11 10  1  1
 11 12  1  0
 12  7  1  0
 13 11  1  0
 13 21  1  0
 14 13  2  0
 16 17  2  0
 16 15  1  0
 18 16  1  0
 19 18  1  0
 20 19  1  1
 20 21  1  0
 20 22  1  0
 22 24  1  0
 23 22  2  0
M  END
$$$$
