MSQ.pdb
     RDKit          3D

 24 23  0  0  1  0  0  0  0  0999 V2000
    3.2435  -18.7690   22.1072 C   0  0  0  0  0  0  0  0  0  0  0  0
    3.5218  -19.1683   20.3632 S   0  0  0  0  0  0  0  0  0  0  0  0
    4.5616  -17.8958   19.6058 C   0  0  0  0  0  0  0  0  0  0  0  0
    5.8844  -17.7445   20.3295 C   0  0  0  0  0  0  0  0  0  0  0  0
    6.6360  -16.6109   19.6363 C   0  0  2  0  0  0  0  0  0  0  0  0
    7.0085  -16.9583   18.3026 N   0  0  0  0  0  0  0  0  0  0  0  0
    7.8339  -16.3006   20.5024 C   0  0  0  0  0  0  0  0  0  0  0  0
    9.0014  -16.5907   20.1472 O   0  0  0  0  0  0  0  0  0  0  0  0
    7.2990  -15.0241   24.4775 O   0  0  0  0  0  0  0  0  0  0  0  0
    8.3489  -14.4512   23.7717 C   0  0  0  0  0  0  0  0  0  0  0  0
    8.7726  -15.4243   22.6937 C   0  0  2  0  0  0  0  0  0  0  0  0
    7.6755  -15.6645   21.7572 N   0  0  0  0  0  0  0  0  0  0  0  0
    9.2797  -16.6904   23.2430 C   0  0  0  0  0  0  0  0  0  0  0  0
    8.4772  -17.6765   23.4414 O   0  0  0  0  0  0  0  0  0  0  0  0
   13.7257  -20.2599   21.4655 N   0  0  0  0  0  0  0  0  0  0  0  0
   13.4063  -20.8970   22.6788 C   0  0  0  0  0  0  0  0  0  0  0  0
   13.9073  -21.9957   22.9612 O   0  0  0  0  0  0  0  0  0  0  0  0
   12.4647  -20.2482   23.6232 C   0  0  0  0  0  0  0  0  0  0  0  0
   11.9926  -18.9141   23.1186 C   0  0  0  0  0  0  0  0  0  0  0  0
   11.0826  -18.2601   24.0690 C   0  0  2  0  0  0  0  0  0  0  0  0
   10.6086  -16.9599   23.5937 N   0  0  0  0  0  0  0  0  0  0  0  0
   11.5837  -18.0831   25.4101 C   0  0  0  0  0  0  0  0  0  0  0  0
   11.8257  -16.9168   25.8701 O   0  0  0  0  0  0  0  0  0  0  0  0
   11.8254  -19.1299   26.2616 O   0  0  0  0  0  0  0  0  0  0  0  0
  2  1  1  0
  2  3  1  0
  4  3  1  0
  5  4  1  0
  5  6  1  6
  7  8  2  0
  7  5  1  0
  9 10  1  0
 11 10  1  1
 11 12  1  0
 12  7  1  0
 13 11  1  0
 13 21  1  0
 14 13  2  0
 16 17  2  0
 16 15  1  0
 18 16  1  0
 19 18  1  0
 20 19  1  6
 20 21  1  0
 20 22  1  0
 22 24  1  0
 23 22  2  0
M  END
$$$$
