MSQ.pdb
     RDKit          3D

 24 23  0  0  1  0  0  0  0  0999 V2000
    8.6645  -12.4130   26.7172 C   0  0  0  0  0  0  0  0  0  0  0  0
    6.8563  -12.3322   26.6689 S   0  0  0  0  0  0  0  0  0  0  0  0
    6.2140  -13.6777   25.6437 C   0  0  0  0  0  0  0  0  0  0  0  0
    7.2267  -14.7928   25.4780 C   0  0  0  0  0  0  0  0  0  0  0  0
    6.5795  -15.8424   24.5780 C   0  0  2  0  0  0  0  0  0  0  0  0
    5.6236  -16.6321   25.2858 N   0  0  0  0  0  0  0  0  0  0  0  0
    7.7065  -16.6762   24.0157 C   0  0  0  0  0  0  0  0  0  0  0  0
    8.0889  -17.7339   24.5708 O   0  0  0  0  0  0  0  0  0  0  0  0
   10.0694  -15.1620   20.9043 O   0  0  0  0  0  0  0  0  0  0  0  0
    9.8108  -16.5259   20.8646 C   0  0  0  0  0  0  0  0  0  0  0  0
    9.5313  -16.9894   22.2772 C   0  0  2  0  0  0  0  0  0  0  0  0
    8.3746  -16.2861   22.8301 N   0  0  0  0  0  0  0  0  0  0  0  0
   10.6998  -16.8508   23.1589 C   0  0  0  0  0  0  0  0  0  0  0  0
   10.9954  -15.7055   23.6653 O   0  0  0  0  0  0  0  0  0  0  0  0
   12.3094  -18.7348   28.2865 N   0  0  0  0  0  0  0  0  0  0  0  0
   11.1328  -19.0192   27.5690 C   0  0  0  0  0  0  0  0  0  0  0  0
   10.2967  -19.8136   28.0248 O   0  0  0  0  0  0  0  0  0  0  0  0
   10.8941  -18.3634   26.2603 C   0  0  0  0  0  0  0  0  0  0  0  0
   12.0082  -17.4260   25.8899 C   0  0  0  0  0  0  0  0  0  0  0  0
   12.5871  -17.7541   24.5798 C   0  0  2  0  0  0  0  0  0  0  0  0
   11.5750  -17.8792   23.5305 N   0  0  0  0  0  0  0  0  0  0  0  0
   13.4214  -18.9299   24.5298 C   0  0  0  0  0  0  0  0  0  0  0  0
   13.1103  -19.9225   23.7893 O   0  0  0  0  0  0  0  0  0  0  0  0
   14.5781  -19.0566   25.2544 O   0  0  0  0  0  0  0  0  0  0  0  0
  2  1  1  0
  2  3  1  0
  4  3  1  0
  5  4  1  0
  5  6  1  1
  7  8  2  0
  7  5  1  0
  9 10  1  0
 11 10  1  6
 11 12  1  0
 12  7  1  0
 13 11  1  0
 13 21  1  0
 14 13  2  0
 16 17  2  0
 16 15  1  0
 18 16  1  0
 19 18  1  0
 20 19  1  1
 20 21  1  0
 20 22  1  0
 22 24  1  0
 23 22  2  0
M  END
$$$$
