HDT.pdb
     RDKit          3D

 26 26  0  0  1  0  0  0  0  0999 V2000
   10.4287  -15.4432   20.4879 N   0  0  0  0  0  0  0  0  0  0  0  0
    9.3531  -14.9486   21.2996 C   0  0  1  0  0  0  0  0  0  0  0  0
    8.0312  -15.2148   20.6180 C   0  0  0  0  0  0  0  0  0  0  0  0
    7.8986  -14.3761   19.3866 C   0  0  0  0  0  0  0  0  0  0  0  0
    8.8405  -13.5357   18.8568 C   0  0  0  0  0  0  0  0  0  0  0  0
    8.3268  -12.9727   17.7533 N   0  0  0  0  0  0  0  0  0  0  0  0
    7.0847  -13.4648   17.6121 C   0  0  0  0  0  0  0  0  0  0  0  0
    6.8199  -14.3167   18.6003 N   0  0  0  0  0  0  0  0  0  0  0  0
    9.3450  -15.6617   22.6253 C   0  0  0  0  0  0  0  0  0  0  0  0
    8.4343  -15.3484   23.3982 O   0  0  0  0  0  0  0  0  0  0  0  0
   10.3124  -16.6194   22.9559 N   0  0  0  0  0  0  0  0  0  0  0  0
   10.5121  -17.3005   24.1964 C   0  0  1  0  0  0  0  0  0  0  0  0
   11.3373  -18.5589   24.0594 C   0  0  0  0  0  0  0  0  0  0  0  0
   10.6690  -19.4607   23.0873 C   0  0  0  0  0  0  0  0  0  0  0  0
    9.4473  -19.8099   23.1825 O   0  0  0  0  0  0  0  0  0  0  0  0
   10.8636  -16.4550   25.3405 C   0  0  0  0  0  0  0  0  0  0  0  0
   11.9776  -15.8225   25.4051 O   0  0  0  0  0  0  0  0  0  0  0  0
   11.3552  -19.9904   21.9878 O   0  0  0  0  0  0  0  0  0  0  0  0
    9.8722  -13.4274   28.8353 C   0  0  0  0  0  0  0  0  0  0  0  0
    9.3381  -14.4266   27.8144 C   0  0  1  0  0  0  0  0  0  0  0  0
    9.0766  -13.8209   26.6094 O   0  0  0  0  0  0  0  0  0  0  0  0
   10.4447  -15.4683   27.5885 C   0  0  2  0  0  0  0  0  0  0  0  0
   10.0147  -16.2615   26.4661 N   0  0  0  0  0  0  0  0  0  0  0  0
   10.5696  -16.2485   28.8299 C   0  0  0  0  0  0  0  0  0  0  0  0
   10.0568  -17.3883   28.8956 O   0  0  0  0  0  0  0  0  0  0  0  0
   11.2379  -15.7670   29.9375 O   0  0  0  0  0  0  0  0  0  0  0  0
  2  3  1  0
  2  1  1  6
  2  9  1  0
  3  4  1  0
  4  8  1  0
  4  5  2  0
  5  6  1  0
  7  6  1  0
  8  7  2  0
  9 10  2  0
 11  9  1  0
 11 12  1  0
 12 16  1  0
 13 14  1  0
 12 13  1  6
 14 15  2  0
 14 18  1  0
 16 23  1  0
 16 17  2  0
 20 19  1  1
 20 22  1  0
 20 21  1  0
 22 24  1  0
 22 23  1  6
 24 25  2  0
 24 26  1  0
M  END
$$$$
