HDT.pdb
     RDKit          3D

 26 26  0  0  1  0  0  0  0  0999 V2000
    8.6237  -12.6714   18.8646 N   0  0  0  0  0  0  0  0  0  0  0  0
    8.8265  -14.0756   19.0826 C   0  0  1  0  0  0  0  0  0  0  0  0
    9.4286  -14.7050   17.8480 C   0  0  0  0  0  0  0  0  0  0  0  0
    8.5111  -14.5445   16.6776 C   0  0  0  0  0  0  0  0  0  0  0  0
    7.3589  -13.8067   16.6290 C   0  0  0  0  0  0  0  0  0  0  0  0
    6.8352  -13.9275   15.4004 N   0  0  0  0  0  0  0  0  0  0  0  0
    7.6596  -14.7305   14.7073 C   0  0  0  0  0  0  0  0  0  0  0  0
    8.6779  -15.1076   15.4774 N   0  0  0  0  0  0  0  0  0  0  0  0
    9.7853  -14.2813   20.2245 C   0  0  0  0  0  0  0  0  0  0  0  0
   10.4102  -13.2803   20.5884 O   0  0  0  0  0  0  0  0  0  0  0  0
    9.9542  -15.5321   20.8323 N   0  0  0  0  0  0  0  0  0  0  0  0
   10.8464  -15.9039   21.8852 C   0  0  1  0  0  0  0  0  0  0  0  0
   10.2104  -16.8108   22.9130 C   0  0  0  0  0  0  0  0  0  0  0  0
   11.1918  -17.0573   23.9998 C   0  0  0  0  0  0  0  0  0  0  0  0
   11.4662  -16.2005   24.9022 O   0  0  0  0  0  0  0  0  0  0  0  0
   12.1966  -16.2944   21.4708 C   0  0  0  0  0  0  0  0  0  0  0  0
   12.5654  -17.5216   21.4149 O   0  0  0  0  0  0  0  0  0  0  0  0
   11.8865  -18.2689   24.0987 O   0  0  0  0  0  0  0  0  0  0  0  0
   13.8995  -14.9868   18.4374 C   0  0  0  0  0  0  0  0  0  0  0  0
   14.9341  -14.8547   19.5501 C   0  0  1  0  0  0  0  0  0  0  0  0
   14.9555  -13.5817   20.0663 O   0  0  0  0  0  0  0  0  0  0  0  0
   14.5061  -15.8121   20.6731 C   0  0  2  0  0  0  0  0  0  0  0  0
   13.2057  -15.3626   21.0985 N   0  0  0  0  0  0  0  0  0  0  0  0
   15.5214  -15.7215   21.7343 C   0  0  0  0  0  0  0  0  0  0  0  0
   15.2063  -15.2501   22.8501 O   0  0  0  0  0  0  0  0  0  0  0  0
   16.8228  -16.1409   21.5452 O   0  0  0  0  0  0  0  0  0  0  0  0
  2  3  1  0
  2  1  1  6
  2  9  1  0
  3  4  1  0
  4  8  1  0
  4  5  2  0
  5  6  1  0
  7  6  1  0
  8  7  2  0
  9 10  2  0
 11  9  1  0
 11 12  1  0
 12 16  1  0
 13 14  1  0
 12 13  1  6
 14 15  2  0
 14 18  1  0
 16 23  1  0
 16 17  2  0
 20 19  1  6
 20 22  1  0
 20 21  1  0
 22 24  1  0
 22 23  1  1
 24 25  2  0
 24 26  1  0
M  END
$$$$
