HDT.pdb
     RDKit          3D

 26 26  0  0  1  0  0  0  0  0999 V2000
    9.9344  -14.9595   18.9852 N   0  0  0  0  0  0  0  0  0  0  0  0
    8.6780  -14.6126   19.5867 C   0  0  1  0  0  0  0  0  0  0  0  0
    7.5448  -14.9846   18.6592 C   0  0  0  0  0  0  0  0  0  0  0  0
    7.7453  -14.3649   17.3126 C   0  0  0  0  0  0  0  0  0  0  0  0
    7.8864  -13.0325   17.0315 C   0  0  0  0  0  0  0  0  0  0  0  0
    8.0437  -12.8979   15.7065 N   0  0  0  0  0  0  0  0  0  0  0  0
    7.9988  -14.1355   15.1855 C   0  0  0  0  0  0  0  0  0  0  0  0
    7.8180  -15.0291   16.1555 N   0  0  0  0  0  0  0  0  0  0  0  0
    8.4986  -15.3778   20.8706 C   0  0  0  0  0  0  0  0  0  0  0  0
    7.3975  -15.2600   21.4169 O   0  0  0  0  0  0  0  0  0  0  0  0
    9.5204  -16.1718   21.4073 N   0  0  0  0  0  0  0  0  0  0  0  0
    9.6072  -16.7641   22.7051 C   0  0  1  0  0  0  0  0  0  0  0  0
   10.6709  -17.8330   22.8025 C   0  0  0  0  0  0  0  0  0  0  0  0
   10.5438  -18.7365   21.6309 C   0  0  0  0  0  0  0  0  0  0  0  0
   11.3099  -18.6758   20.6144 O   0  0  0  0  0  0  0  0  0  0  0  0
    9.5636  -15.8339   23.8365 C   0  0  0  0  0  0  0  0  0  0  0  0
   10.5639  -15.0957   24.1523 O   0  0  0  0  0  0  0  0  0  0  0  0
    9.5560  -19.7270   21.5731 O   0  0  0  0  0  0  0  0  0  0  0  0
    6.9838  -13.1417   24.7969 C   0  0  0  0  0  0  0  0  0  0  0  0
    7.0846  -14.1595   25.9281 C   0  0  1  0  0  0  0  0  0  0  0  0
    6.1477  -15.1551   25.7917 O   0  0  0  0  0  0  0  0  0  0  0  0
    8.4758  -14.8037   25.8260 C   0  0  2  0  0  0  0  0  0  0  0  0
    8.4256  -15.6672   24.6745 N   0  0  0  0  0  0  0  0  0  0  0  0
    8.7122  -15.5330   27.0820 C   0  0  0  0  0  0  0  0  0  0  0  0
    8.8290  -16.7789   27.0585 O   0  0  0  0  0  0  0  0  0  0  0  0
    8.8114  -14.8894   28.2990 O   0  0  0  0  0  0  0  0  0  0  0  0
  2  3  1  0
  2  1  1  6
  2  9  1  0
  3  4  1  0
  4  8  1  0
  4  5  2  0
  5  6  1  0
  7  6  1  0
  8  7  2  0
  9 10  2  0
 11  9  1  0
 11 12  1  0
 12 16  1  0
 13 14  1  0
 12 13  1  6
 14 15  2  0
 14 18  1  0
 16 23  1  0
 16 17  2  0
 20 19  1  6
 20 22  1  0
 20 21  1  0
 22 24  1  0
 22 23  1  6
 24 25  2  0
 24 26  1  0
M  END
$$$$
