HDT.pdb
     RDKit          3D

 26 26  0  0  1  0  0  0  0  0999 V2000
    7.3168  -16.7856   20.6017 N   0  0  0  0  0  0  0  0  0  0  0  0
    8.4606  -16.1044   21.1386 C   0  0  1  0  0  0  0  0  0  0  0  0
    8.2158  -14.6135   21.1409 C   0  0  0  0  0  0  0  0  0  0  0  0
    8.0974  -14.0999   19.7410 C   0  0  0  0  0  0  0  0  0  0  0  0
    8.2251  -14.8220   18.5849 C   0  0  0  0  0  0  0  0  0  0  0  0
    8.0492  -13.9891   17.5487 N   0  0  0  0  0  0  0  0  0  0  0  0
    7.8166  -12.7720   18.0679 C   0  0  0  0  0  0  0  0  0  0  0  0
    7.8448  -12.8336   19.3974 N   0  0  0  0  0  0  0  0  0  0  0  0
    8.6927  -16.5400   22.5606 C   0  0  0  0  0  0  0  0  0  0  0  0
    7.6781  -16.7914   23.2180 O   0  0  0  0  0  0  0  0  0  0  0  0
    9.9812  -16.6512   23.0991 N   0  0  0  0  0  0  0  0  0  0  0  0
   10.3702  -17.0196   24.4241 C   0  0  1  0  0  0  0  0  0  0  0  0
   11.5111  -18.0099   24.4569 C   0  0  0  0  0  0  0  0  0  0  0  0
   11.7848  -18.3712   25.8709 C   0  0  0  0  0  0  0  0  0  0  0  0
   10.8736  -18.7055   26.6965 O   0  0  0  0  0  0  0  0  0  0  0  0
   10.4811  -15.9202   25.3867 C   0  0  0  0  0  0  0  0  0  0  0  0
   11.4947  -15.1347   25.4119 O   0  0  0  0  0  0  0  0  0  0  0  0
   13.0851  -18.3658   26.3900 O   0  0  0  0  0  0  0  0  0  0  0  0
    8.2617  -12.9661   26.0847 C   0  0  0  0  0  0  0  0  0  0  0  0
    8.3421  -13.8012   27.3582 C   0  0  1  0  0  0  0  0  0  0  0  0
    7.3317  -14.7305   27.4131 O   0  0  0  0  0  0  0  0  0  0  0  0
    9.6780  -14.5589   27.3114 C   0  0  2  0  0  0  0  0  0  0  0  0
    9.4902  -15.6285   26.3655 N   0  0  0  0  0  0  0  0  0  0  0  0
    9.9556  -15.0387   28.6745 C   0  0  0  0  0  0  0  0  0  0  0  0
   10.0011  -16.2694   28.8972 O   0  0  0  0  0  0  0  0  0  0  0  0
   10.1704  -14.1745   29.7292 O   0  0  0  0  0  0  0  0  0  0  0  0
  2  3  1  0
  2  1  1  1
  2  9  1  0
  3  4  1  0
  4  8  1  0
  4  5  2  0
  5  6  1  0
  7  6  1  0
  8  7  2  0
  9 10  2  0
 11  9  1  0
 11 12  1  0
 12 16  1  0
 13 14  1  0
 12 13  1  6
 14 15  2  0
 14 18  1  0
 16 23  1  0
 16 17  2  0
 20 19  1  6
 20 22  1  0
 20 21  1  0
 22 24  1  0
 22 23  1  6
 24 25  2  0
 24 26  1  0
M  END
$$$$
