HHT.pdb
     RDKit          3D

 28 29  0  0  1  0  0  0  0  0999 V2000
    7.9263  -17.1209   18.9098 N   0  0  0  0  0  0  0  0  0  0  0  0
    8.3753  -16.1138   19.8006 C   0  0  1  0  0  0  0  0  0  0  0  0
    7.5492  -14.8582   19.6042 C   0  0  0  0  0  0  0  0  0  0  0  0
    7.7512  -14.3110   18.2407 C   0  0  0  0  0  0  0  0  0  0  0  0
    8.5968  -14.8169   17.2692 C   0  0  0  0  0  0  0  0  0  0  0  0
    8.5096  -14.0604   16.1757 N   0  0  0  0  0  0  0  0  0  0  0  0
    7.6288  -13.0808   16.4208 C   0  0  0  0  0  0  0  0  0  0  0  0
    7.1629  -13.2248   17.6723 N   0  0  0  0  0  0  0  0  0  0  0  0
    8.3549  -16.5460   21.2329 C   0  0  0  0  0  0  0  0  0  0  0  0
    7.3322  -17.0546   21.7503 O   0  0  0  0  0  0  0  0  0  0  0  0
    9.5064  -16.3870   22.0462 N   0  0  0  0  0  0  0  0  0  0  0  0
    9.6588  -16.7351   23.4152 C   0  0  1  0  0  0  0  0  0  0  0  0
   10.7434  -17.7171   23.6885 C   0  0  0  0  0  0  0  0  0  0  0  0
   10.8360  -18.0462   25.1463 C   0  0  0  0  0  0  0  0  0  0  0  0
   10.0244  -17.7155   26.1827 C   0  0  0  0  0  0  0  0  0  0  0  0
   10.5097  -18.2417   27.3399 N   0  0  0  0  0  0  0  0  0  0  0  0
   11.6293  -18.9008   27.0073 C   0  0  0  0  0  0  0  0  0  0  0  0
   11.8275  -18.7846   25.6882 N   0  0  0  0  0  0  0  0  0  0  0  0
    9.6222  -15.5826   24.3699 C   0  0  0  0  0  0  0  0  0  0  0  0
   10.4448  -14.6369   24.3730 O   0  0  0  0  0  0  0  0  0  0  0  0
    6.7423  -13.1685   24.8797 C   0  0  0  0  0  0  0  0  0  0  0  0
    7.0706  -13.8047   26.1856 C   0  0  1  0  0  0  0  0  0  0  0  0
    6.1197  -14.8292   26.3918 O   0  0  0  0  0  0  0  0  0  0  0  0
    8.4725  -14.3670   26.2590 C   0  0  2  0  0  0  0  0  0  0  0  0
    8.6048  -15.5116   25.3556 N   0  0  0  0  0  0  0  0  0  0  0  0
    8.9166  -14.6800   27.6129 C   0  0  0  0  0  0  0  0  0  0  0  0
    9.0533  -13.7694   28.6404 O   0  0  0  0  0  0  0  0  0  0  0  0
    9.2176  -15.8857   27.9248 O   0  0  0  0  0  0  0  0  0  0  0  0
  2  9  1  0
  2  1  1  6
  3  2  1  0
  4  5  2  0
  4  3  1  0
  6  5  1  0
  7  8  2  0
  7  6  1  0
  8  4  1  0
  9 11  1  0
 10  9  2  0
 11 12  1  0
 12 13  1  6
 13 14  1  0
 14 15  2  0
 14 18  1  0
 15 16  1  0
 16 17  1  0
 18 17  2  0
 19 20  2  0
 19 12  1  0
 22 21  1  6
 22 24  1  0
 23 22  1  0
 24 26  1  0
 24 25  1  6
 25 19  1  0
 26 27  1  0
 28 26  2  0
M  END
$$$$
