HHT.pdb
     RDKit          3D

 28 29  0  0  1  0  0  0  0  0999 V2000
    9.2004  -15.0189   19.4279 N   0  0  0  0  0  0  0  0  0  0  0  0
    7.8960  -14.5269   19.6844 C   0  0  1  0  0  0  0  0  0  0  0  0
    6.9418  -15.0445   18.6265 C   0  0  0  0  0  0  0  0  0  0  0  0
    7.4076  -14.6582   17.2726 C   0  0  0  0  0  0  0  0  0  0  0  0
    8.6150  -14.0595   16.9587 C   0  0  0  0  0  0  0  0  0  0  0  0
    8.6780  -13.8648   15.6419 N   0  0  0  0  0  0  0  0  0  0  0  0
    7.5407  -14.3236   15.1021 C   0  0  0  0  0  0  0  0  0  0  0  0
    6.7630  -14.8074   16.0846 N   0  0  0  0  0  0  0  0  0  0  0  0
    7.4022  -14.8618   21.0566 C   0  0  0  0  0  0  0  0  0  0  0  0
    6.2337  -14.5870   21.4186 O   0  0  0  0  0  0  0  0  0  0  0  0
    8.2567  -15.5049   21.9888 N   0  0  0  0  0  0  0  0  0  0  0  0
    7.9638  -15.8662   23.3313 C   0  0  1  0  0  0  0  0  0  0  0  0
    8.1395  -17.3122   23.6368 C   0  0  0  0  0  0  0  0  0  0  0  0
    9.5618  -17.7454   23.4596 C   0  0  0  0  0  0  0  0  0  0  0  0
   10.6402  -17.0726   22.9833 C   0  0  0  0  0  0  0  0  0  0  0  0
   11.7377  -17.8766   23.0070 N   0  0  0  0  0  0  0  0  0  0  0  0
   11.3259  -19.0527   23.5028 C   0  0  0  0  0  0  0  0  0  0  0  0
   10.0173  -18.9760   23.7758 N   0  0  0  0  0  0  0  0  0  0  0  0
    8.5263  -14.9484   24.3717 C   0  0  0  0  0  0  0  0  0  0  0  0
    9.5996  -14.3123   24.2518 O   0  0  0  0  0  0  0  0  0  0  0  0
    7.0686  -11.8391   25.6598 C   0  0  0  0  0  0  0  0  0  0  0  0
    7.2723  -12.7285   26.8369 C   0  0  1  0  0  0  0  0  0  0  0  0
    6.0156  -13.2980   27.1414 O   0  0  0  0  0  0  0  0  0  0  0  0
    8.3010  -13.8144   26.6147 C   0  0  2  0  0  0  0  0  0  0  0  0
    7.8319  -14.7521   25.5927 N   0  0  0  0  0  0  0  0  0  0  0  0
    8.7194  -14.4946   27.8356 C   0  0  0  0  0  0  0  0  0  0  0  0
    9.2480  -13.8805   28.9523 O   0  0  0  0  0  0  0  0  0  0  0  0
    8.6082  -15.7676   27.9289 O   0  0  0  0  0  0  0  0  0  0  0  0
  2  9  1  0
  2  1  1  6
  3  2  1  0
  4  5  2  0
  4  3  1  0
  6  5  1  0
  7  8  2  0
  7  6  1  0
  8  4  1  0
  9 11  1  0
 10  9  2  0
 11 12  1  0
 12 13  1  1
 13 14  1  0
 14 15  2  0
 14 18  1  0
 15 16  1  0
 16 17  1  0
 18 17  2  0
 19 20  2  0
 19 12  1  0
 22 21  1  6
 22 24  1  0
 23 22  1  0
 24 26  1  0
 24 25  1  6
 25 19  1  0
 26 27  1  0
 28 26  2  0
M  END
$$$$
