HHT.pdb
     RDKit          3D

 28 29  0  0  1  0  0  0  0  0999 V2000
    8.3344  -17.2084   15.7570 N   0  0  0  0  0  0  0  0  0  0  0  0
    9.0615  -16.3682   16.6372 C   0  0  1  0  0  0  0  0  0  0  0  0
    8.3598  -15.0299   16.7559 C   0  0  0  0  0  0  0  0  0  0  0  0
    8.2603  -14.3756   15.4286 C   0  0  0  0  0  0  0  0  0  0  0  0
    7.0944  -14.0358   14.7653 C   0  0  0  0  0  0  0  0  0  0  0  0
    7.4033  -13.4661   13.6009 N   0  0  0  0  0  0  0  0  0  0  0  0
    8.7389  -13.4317   13.4998 C   0  0  0  0  0  0  0  0  0  0  0  0
    9.2681  -13.9818   14.6051 N   0  0  0  0  0  0  0  0  0  0  0  0
    9.2764  -16.9782   17.9865 C   0  0  0  0  0  0  0  0  0  0  0  0
    8.4470  -17.7749   18.4860 O   0  0  0  0  0  0  0  0  0  0  0  0
   10.4374  -16.6637   18.7387 N   0  0  0  0  0  0  0  0  0  0  0  0
   10.7770  -17.1142   20.0427 C   0  0  1  0  0  0  0  0  0  0  0  0
   11.9620  -18.0129   20.0995 C   0  0  0  0  0  0  0  0  0  0  0  0
   11.7251  -19.2873   19.3498 C   0  0  0  0  0  0  0  0  0  0  0  0
   11.8699  -19.5803   18.0324 C   0  0  0  0  0  0  0  0  0  0  0  0
   11.5349  -20.8795   17.8053 N   0  0  0  0  0  0  0  0  0  0  0  0
   11.1818  -21.3855   18.9960 C   0  0  0  0  0  0  0  0  0  0  0  0
   11.2956  -20.4295   19.9265 N   0  0  0  0  0  0  0  0  0  0  0  0
   10.7595  -16.0571   21.1028 C   0  0  0  0  0  0  0  0  0  0  0  0
   11.5618  -15.0958   21.1600 O   0  0  0  0  0  0  0  0  0  0  0  0
    7.9304  -13.7219   21.9984 C   0  0  0  0  0  0  0  0  0  0  0  0
    8.3024  -14.4962   23.2150 C   0  0  1  0  0  0  0  0  0  0  0  0
    7.3476  -15.5289   23.3503 O   0  0  0  0  0  0  0  0  0  0  0  0
    9.6989  -15.0747   23.1710 C   0  0  2  0  0  0  0  0  0  0  0  0
    9.7861  -16.1038   22.1332 N   0  0  0  0  0  0  0  0  0  0  0  0
   10.1851  -15.5512   24.4613 C   0  0  0  0  0  0  0  0  0  0  0  0
   10.3265  -14.7806   25.5970 O   0  0  0  0  0  0  0  0  0  0  0  0
   10.5227  -16.7789   24.6040 O   0  0  0  0  0  0  0  0  0  0  0  0
  2  9  1  0
  2  1  1  6
  3  2  1  0
  4  5  2  0
  4  3  1  0
  6  5  1  0
  7  8  2  0
  7  6  1  0
  8  4  1  0
  9 11  1  0
 10  9  2  0
 11 12  1  0
 12 13  1  6
 13 14  1  0
 14 15  2  0
 14 18  1  0
 15 16  1  0
 16 17  1  0
 18 17  2  0
 19 20  2  0
 19 12  1  0
 22 21  1  6
 22 24  1  0
 23 22  1  0
 24 26  1  0
 24 25  1  6
 25 19  1  0
 26 27  1  0
 28 26  2  0
M  END
$$$$
