HHT.pdb
     RDKit          3D

 28 29  0  0  1  0  0  0  0  0999 V2000
   10.9222  -17.6082   18.9717 N   0  0  0  0  0  0  0  0  0  0  0  0
   10.8304  -18.1799   20.2655 C   0  0  1  0  0  0  0  0  0  0  0  0
   12.0217  -19.0859   20.5052 C   0  0  0  0  0  0  0  0  0  0  0  0
   11.9758  -20.2566   19.5959 C   0  0  0  0  0  0  0  0  0  0  0  0
   10.9555  -20.5748   18.7169 C   0  0  0  0  0  0  0  0  0  0  0  0
   11.2694  -21.6965   18.0696 N   0  0  0  0  0  0  0  0  0  0  0  0
   12.4661  -22.1068   18.5111 C   0  0  0  0  0  0  0  0  0  0  0  0
   12.9030  -21.2386   19.4382 N   0  0  0  0  0  0  0  0  0  0  0  0
   10.7119  -17.1574   21.3515 C   0  0  0  0  0  0  0  0  0  0  0  0
   11.7232  -16.6979   21.9331 O   0  0  0  0  0  0  0  0  0  0  0  0
    9.4369  -16.6808   21.7513 N   0  0  0  0  0  0  0  0  0  0  0  0
    9.1305  -15.8351   22.8511 C   0  0  1  0  0  0  0  0  0  0  0  0
    8.0516  -14.8437   22.5895 C   0  0  0  0  0  0  0  0  0  0  0  0
    8.2642  -14.1252   21.2931 C   0  0  0  0  0  0  0  0  0  0  0  0
    9.3049  -14.1574   20.4225 C   0  0  0  0  0  0  0  0  0  0  0  0
    9.0563  -13.3322   19.3695 N   0  0  0  0  0  0  0  0  0  0  0  0
    7.8512  -12.7902   19.5990 C   0  0  0  0  0  0  0  0  0  0  0  0
    7.3729  -13.2659   20.7556 N   0  0  0  0  0  0  0  0  0  0  0  0
    9.0155  -16.5302   24.1721 C   0  0  0  0  0  0  0  0  0  0  0  0
    7.9313  -16.8426   24.7178 O   0  0  0  0  0  0  0  0  0  0  0  0
   10.0473  -19.8491   24.8363 C   0  0  0  0  0  0  0  0  0  0  0  0
   10.7539  -19.0432   25.8703 C   0  0  1  0  0  0  0  0  0  0  0  0
   12.0918  -18.9053   25.4374 O   0  0  0  0  0  0  0  0  0  0  0  0
   10.1384  -17.6838   26.1153 C   0  0  2  0  0  0  0  0  0  0  0  0
   10.1862  -16.8806   24.8920 N   0  0  0  0  0  0  0  0  0  0  0  0
   10.6991  -16.9759   27.2610 C   0  0  0  0  0  0  0  0  0  0  0  0
   10.6887  -17.4287   28.5643 O   0  0  0  0  0  0  0  0  0  0  0  0
   11.2582  -15.8348   27.0970 O   0  0  0  0  0  0  0  0  0  0  0  0
  2  9  1  0
  2  1  1  6
  3  2  1  0
  4  5  2  0
  4  3  1  0
  6  5  1  0
  7  8  2  0
  7  6  1  0
  8  4  1  0
  9 11  1  0
 10  9  2  0
 11 12  1  0
 12 13  1  6
 13 14  1  0
 14 15  2  0
 14 18  1  0
 15 16  1  0
 16 17  1  0
 18 17  2  0
 19 20  2  0
 19 12  1  0
 22 21  1  6
 22 24  1  0
 23 22  1  0
 24 26  1  0
 24 25  1  6
 25 19  1  0
 26 27  1  0
 28 26  2  0
M  END
$$$$
