HHT.pdb
     RDKit          3D

 28 29  0  0  1  0  0  0  0  0999 V2000
   12.9685  -14.3938   18.2922 N   0  0  0  0  0  0  0  0  0  0  0  0
   12.6003  -15.1521   19.4319 C   0  0  1  0  0  0  0  0  0  0  0  0
   13.8261  -15.4144   20.2840 C   0  0  0  0  0  0  0  0  0  0  0  0
   14.6895  -16.4404   19.6507 C   0  0  0  0  0  0  0  0  0  0  0  0
   14.3271  -17.7379   19.3344 C   0  0  0  0  0  0  0  0  0  0  0  0
   15.3664  -18.3596   18.7783 N   0  0  0  0  0  0  0  0  0  0  0  0
   16.3876  -17.4935   18.7297 C   0  0  0  0  0  0  0  0  0  0  0  0
   15.9860  -16.3253   19.2571 N   0  0  0  0  0  0  0  0  0  0  0  0
   11.5178  -14.5084   20.2399 C   0  0  0  0  0  0  0  0  0  0  0  0
   11.6138  -13.3239   20.6398 O   0  0  0  0  0  0  0  0  0  0  0  0
   10.3458  -15.2340   20.5753 N   0  0  0  0  0  0  0  0  0  0  0  0
    9.1804  -14.7499   21.2281 C   0  0  1  0  0  0  0  0  0  0  0  0
    7.9218  -14.9105   20.4501 C   0  0  0  0  0  0  0  0  0  0  0  0
    8.0950  -14.4844   19.0252 C   0  0  0  0  0  0  0  0  0  0  0  0
    8.2016  -13.2473   18.4769 C   0  0  0  0  0  0  0  0  0  0  0  0
    8.3467  -13.3474   17.1277 N   0  0  0  0  0  0  0  0  0  0  0  0
    8.3288  -14.6590   16.8485 C   0  0  0  0  0  0  0  0  0  0  0  0
    8.1775  -15.3448   17.9885 N   0  0  0  0  0  0  0  0  0  0  0  0
    9.0597  -15.1274   22.6718 C   0  0  0  0  0  0  0  0  0  0  0  0
    9.7572  -16.0015   23.2377 O   0  0  0  0  0  0  0  0  0  0  0  0
    7.1442  -12.4779   25.3874 C   0  0  0  0  0  0  0  0  0  0  0  0
    6.8787  -13.9359   25.5349 C   0  0  1  0  0  0  0  0  0  0  0  0
    5.6197  -14.1841   24.9435 O   0  0  0  0  0  0  0  0  0  0  0  0
    7.9356  -14.8184   24.9098 C   0  0  2  0  0  0  0  0  0  0  0  0
    8.1056  -14.4778   23.4960 N   0  0  0  0  0  0  0  0  0  0  0  0
    7.7109  -16.2460   25.1091 C   0  0  0  0  0  0  0  0  0  0  0  0
    7.6097  -16.8768   26.3320 O   0  0  0  0  0  0  0  0  0  0  0  0
    7.5915  -17.0223   24.0968 O   0  0  0  0  0  0  0  0  0  0  0  0
  2  9  1  0
  2  1  1  6
  3  2  1  0
  4  5  2  0
  4  3  1  0
  6  5  1  0
  7  8  2  0
  7  6  1  0
  8  4  1  0
  9 11  1  0
 10  9  2  0
 11 12  1  0
 12 13  1  6
 13 14  1  0
 14 15  2  0
 14 18  1  0
 15 16  1  0
 16 17  1  0
 18 17  2  0
 19 20  2  0
 19 12  1  0
 22 21  1  6
 22 24  1  0
 23 22  1  0
 24 26  1  0
 24 25  1  6
 25 19  1  0
 26 27  1  0
 28 26  2  0
M  END
$$$$
