MRV.pdb
     RDKit          3D

 27 26  0  0  1  0  0  0  0  0999 V2000
    5.3918  -11.9903   26.8285 C   0  0  0  0  0  0  0  0  0  0  0  0
    6.0623  -13.0097   28.1494 S   0  0  0  0  0  0  0  0  0  0  0  0
    6.3810  -14.6630   27.5191 C   0  0  0  0  0  0  0  0  0  0  0  0
    5.5402  -14.9642   26.3261 C   0  0  0  0  0  0  0  0  0  0  0  0
    5.7897  -16.3452   25.7515 C   0  0  2  0  0  0  0  0  0  0  0  0
    6.2163  -17.3067   26.7218 N   0  0  0  0  0  0  0  0  0  0  0  0
    6.8547  -16.1868   24.7312 C   0  0  0  0  0  0  0  0  0  0  0  0
    7.8431  -16.9231   24.7648 O   0  0  0  0  0  0  0  0  0  0  0  0
    7.6893  -15.1540   17.7232 N   0  0  0  0  0  0  0  0  0  0  0  0
    8.7633  -14.2761   17.4746 C   0  0  0  0  0  0  0  0  0  0  0  0
    9.5663  -14.3934   16.4691 N   0  0  0  0  0  0  0  0  0  0  0  0
    9.0080  -13.1822   18.3644 N   0  0  0  0  0  0  0  0  0  0  0  0
    8.1368  -13.0006   19.5198 C   0  0  0  0  0  0  0  0  0  0  0  0
    8.5624  -13.9285   20.6139 C   0  0  0  0  0  0  0  0  0  0  0  0
    7.6251  -13.9558   21.7662 C   0  0  0  0  0  0  0  0  0  0  0  0
    7.8419  -15.0819   22.7304 C   0  0  2  0  0  0  0  0  0  0  0  0
    6.7738  -15.1984   23.6982 N   0  0  0  0  0  0  0  0  0  0  0  0
    9.1469  -14.7796   23.4299 C   0  0  0  0  0  0  0  0  0  0  0  0
    9.3556  -13.6797   24.0003 O   0  0  0  0  0  0  0  0  0  0  0  0
   10.3747  -13.7505   16.3259 C   0  0  0  0  0  0  0  0  0  0  0  0
   11.9720  -15.5661   26.7675 C   0  0  2  0  0  0  0  0  0  0  0  0
   10.8257  -15.4750   25.7865 C   0  0  0  0  0  0  0  0  0  0  0  0
   10.0434  -14.1982   25.9258 C   0  0  1  0  0  0  0  0  0  0  0  0
   11.3144  -15.6091   24.3660 N   0  0  0  0  0  0  0  0  0  0  0  0
   10.1884  -15.7417   23.4627 C   0  0  0  0  0  0  0  0  0  0  0  0
   12.2308  -16.7870   24.2154 O   0  0  0  0  0  0  0  0  0  0  0  0
   13.5499  -16.7488   24.6442 O   0  0  0  0  0  0  0  0  0  0  0  0
  2  1  1  0
  3  4  1  0
  3  2  1  0
  4  5  1  0
  5  6  1  1
  7  8  2  0
  7  5  1  0
 10 12  1  0
 10  9  1  0
 11 10  2  0
 13 14  1  0
 13 12  1  0
 14 15  1  0
 16 15  1  6
 16 17  1  0
 17  7  1  0
 18 16  1  0
 19 18  2  0
 21 20  1  1
 21 22  1  0
 23 21  1  0
 23 24  1  1
 24 18  1  0
 25 26  1  0
 25 23  1  0
 27 25  2  0
M  END
$$$$
