MRV.pdb
     RDKit          3D

 27 26  0  0  1  0  0  0  0  0999 V2000
    6.2875  -10.9987   26.9871 C   0  0  0  0  0  0  0  0  0  0  0  0
    6.5509  -12.7760   27.0582 S   0  0  0  0  0  0  0  0  0  0  0  0
    5.4546  -13.5855   25.8855 C   0  0  0  0  0  0  0  0  0  0  0  0
    5.4571  -15.0648   26.0670 C   0  0  0  0  0  0  0  0  0  0  0  0
    6.8257  -15.6888   25.8752 C   0  0  2  0  0  0  0  0  0  0  0  0
    7.8910  -14.9395   26.4681 N   0  0  0  0  0  0  0  0  0  0  0  0
    7.0485  -15.7648   24.4106 C   0  0  0  0  0  0  0  0  0  0  0  0
    6.4703  -16.6320   23.7520 O   0  0  0  0  0  0  0  0  0  0  0  0
    7.4068  -15.2912   17.7354 N   0  0  0  0  0  0  0  0  0  0  0  0
    8.4177  -14.5247   17.1216 C   0  0  0  0  0  0  0  0  0  0  0  0
    8.8663  -14.7524   15.9315 N   0  0  0  0  0  0  0  0  0  0  0  0
    9.0027  -13.4250   17.8262 N   0  0  0  0  0  0  0  0  0  0  0  0
    8.5071  -13.0922   19.1569 C   0  0  0  0  0  0  0  0  0  0  0  0
    8.7626  -14.2391   20.0836 C   0  0  0  0  0  0  0  0  0  0  0  0
    8.3549  -13.9699   21.4866 C   0  0  0  0  0  0  0  0  0  0  0  0
    8.3739  -15.1648   22.3903 C   0  0  2  0  0  0  0  0  0  0  0  0
    7.9207  -14.8568   23.7285 N   0  0  0  0  0  0  0  0  0  0  0  0
    9.8101  -15.6339   22.4225 C   0  0  0  0  0  0  0  0  0  0  0  0
   10.7072  -14.9861   23.0177 O   0  0  0  0  0  0  0  0  0  0  0  0
    9.5793  -14.1400   15.4801 C   0  0  0  0  0  0  0  0  0  0  0  0
   12.9283  -19.4112   21.9219 C   0  0  2  0  0  0  0  0  0  0  0  0
   11.5364  -18.8344   22.0425 C   0  0  0  0  0  0  0  0  0  0  0  0
   10.8861  -19.1598   23.3589 C   0  0  1  0  0  0  0  0  0  0  0  0
   11.5494  -17.3389   21.8478 N   0  0  0  0  0  0  0  0  0  0  0  0
   10.1922  -16.8350   21.7724 C   0  0  0  0  0  0  0  0  0  0  0  0
   12.3043  -16.9587   20.6087 O   0  0  0  0  0  0  0  0  0  0  0  0
   11.8218  -17.2453   19.3397 O   0  0  0  0  0  0  0  0  0  0  0  0
  2  1  1  0
  3  4  1  0
  3  2  1  0
  4  5  1  0
  5  6  1  1
  7  8  2  0
  7  5  1  0
 10 12  1  0
 10  9  1  0
 11 10  2  0
 13 14  1  0
 13 12  1  0
 14 15  1  0
 16 15  1  6
 16 17  1  0
 17  7  1  0
 18 16  1  0
 19 18  2  0
 21 20  1  6
 21 22  1  0
 23 21  1  0
 23 24  1  6
 24 18  1  0
 25 26  1  0
 25 23  1  0
 27 25  2  0
M  END
$$$$
