MRV.pdb
     RDKit          3D

 27 26  0  0  1  0  0  0  0  0999 V2000
    6.2161  -12.0111   26.8838 C   0  0  0  0  0  0  0  0  0  0  0  0
    4.6442  -12.8538   26.6547 S   0  0  0  0  0  0  0  0  0  0  0  0
    4.7121  -14.4632   27.4532 C   0  0  0  0  0  0  0  0  0  0  0  0
    5.9294  -15.2224   27.0492 C   0  0  0  0  0  0  0  0  0  0  0  0
    5.6479  -16.3010   26.0213 C   0  0  2  0  0  0  0  0  0  0  0  0
    5.3690  -17.5838   26.5907 N   0  0  0  0  0  0  0  0  0  0  0  0
    6.8648  -16.4030   25.1791 C   0  0  0  0  0  0  0  0  0  0  0  0
    7.6478  -17.3393   25.3534 O   0  0  0  0  0  0  0  0  0  0  0  0
    9.2186  -13.5653   16.9427 N   0  0  0  0  0  0  0  0  0  0  0  0
    9.0779  -13.1661   18.2870 C   0  0  0  0  0  0  0  0  0  0  0  0
    9.6385  -12.1133   18.7839 N   0  0  0  0  0  0  0  0  0  0  0  0
    8.2768  -13.9461   19.1802 N   0  0  0  0  0  0  0  0  0  0  0  0
    8.7980  -15.2155   19.6740 C   0  0  0  0  0  0  0  0  0  0  0  0
    9.3149  -15.0326   21.0664 C   0  0  0  0  0  0  0  0  0  0  0  0
    8.2466  -14.7756   22.0664 C   0  0  0  0  0  0  0  0  0  0  0  0
    8.2860  -15.6609   23.2745 C   0  0  2  0  0  0  0  0  0  0  0  0
    7.1645  -15.4421   24.1607 N   0  0  0  0  0  0  0  0  0  0  0  0
    9.5802  -15.3337   23.9828 C   0  0  0  0  0  0  0  0  0  0  0  0
   10.1478  -14.2208   23.8488 O   0  0  0  0  0  0  0  0  0  0  0  0
    9.5100  -11.8333   19.7801 C   0  0  0  0  0  0  0  0  0  0  0  0
   11.1285  -14.5567   28.0382 C   0  0  2  0  0  0  0  0  0  0  0  0
   10.3517  -14.8460   26.7743 C   0  0  0  0  0  0  0  0  0  0  0  0
   10.1074  -13.6128   25.9489 C   0  0  1  0  0  0  0  0  0  0  0  0
   11.0527  -15.8811   25.9307 N   0  0  0  0  0  0  0  0  0  0  0  0
   10.2004  -16.2867   24.8304 C   0  0  0  0  0  0  0  0  0  0  0  0
   11.4358  -17.0792   26.7478 O   0  0  0  0  0  0  0  0  0  0  0  0
   10.9114  -18.3384   26.4928 O   0  0  0  0  0  0  0  0  0  0  0  0
  2  1  1  0
  3  4  1  0
  3  2  1  0
  4  5  1  0
  5  6  1  1
  7  8  2  0
  7  5  1  0
 10 12  1  0
 10  9  1  0
 11 10  2  0
 13 14  1  0
 13 12  1  0
 14 15  1  0
 16 15  1  6
 16 17  1  0
 17  7  1  0
 18 16  1  0
 19 18  2  0
 21 20  1  1
 21 22  1  0
 23 21  1  0
 23 24  1  1
 24 18  1  0
 25 26  1  0
 25 23  1  0
 27 25  2  0
M  END
$$$$
