MRV.pdb
     RDKit          3D

 27 26  0  0  1  0  0  0  0  0999 V2000
    7.2658  -11.6331   20.1401 C   0  0  0  0  0  0  0  0  0  0  0  0
    7.8168  -12.6553   18.7673 S   0  0  0  0  0  0  0  0  0  0  0  0
    8.4868  -14.1963   19.4067 C   0  0  0  0  0  0  0  0  0  0  0  0
    9.2585  -13.9769   20.6626 C   0  0  0  0  0  0  0  0  0  0  0  0
   10.1843  -15.1281   21.0048 C   0  0  2  0  0  0  0  0  0  0  0  0
   10.1691  -16.1877   20.0432 N   0  0  0  0  0  0  0  0  0  0  0  0
    9.7256  -15.6585   22.3120 C   0  0  0  0  0  0  0  0  0  0  0  0
    9.3048  -14.8796   23.1702 O   0  0  0  0  0  0  0  0  0  0  0  0
    6.0958  -19.4528   26.8364 N   0  0  0  0  0  0  0  0  0  0  0  0
    6.8429  -20.4774   27.4513 C   0  0  0  0  0  0  0  0  0  0  0  0
    6.6587  -20.8655   28.6700 N   0  0  0  0  0  0  0  0  0  0  0  0
    7.8709  -21.1476   26.7150 N   0  0  0  0  0  0  0  0  0  0  0  0
    8.1757  -20.7034   25.3597 C   0  0  0  0  0  0  0  0  0  0  0  0
    9.0921  -19.5218   25.4183 C   0  0  0  0  0  0  0  0  0  0  0  0
    9.4733  -19.0003   24.0804 C   0  0  0  0  0  0  0  0  0  0  0  0
    9.2908  -17.5239   23.9024 C   0  0  2  0  0  0  0  0  0  0  0  0
    9.7550  -17.0578   22.6147 N   0  0  0  0  0  0  0  0  0  0  0  0
   10.0884  -16.8740   25.0093 C   0  0  0  0  0  0  0  0  0  0  0  0
   11.3445  -16.8475   24.9956 O   0  0  0  0  0  0  0  0  0  0  0  0
    7.2294  -21.6226   29.1040 C   0  0  0  0  0  0  0  0  0  0  0  0
   10.1060  -13.6504   28.7350 C   0  0  1  0  0  0  0  0  0  0  0  0
    9.3619  -14.3964   27.6512 C   0  0  0  0  0  0  0  0  0  0  0  0
    8.9743  -13.5107   26.4993 C   0  0  1  0  0  0  0  0  0  0  0  0
   10.1733  -15.5589   27.1367 N   0  0  0  0  0  0  0  0  0  0  0  0
    9.4331  -16.2673   26.1111 C   0  0  0  0  0  0  0  0  0  0  0  0
   10.5371  -16.5009   28.2459 O   0  0  0  0  0  0  0  0  0  0  0  0
   11.6462  -16.2896   29.0526 O   0  0  0  0  0  0  0  0  0  0  0  0
  2  1  1  0
  3  4  1  0
  3  2  1  0
  4  5  1  0
  5  6  1  6
  7  8  2  0
  7  5  1  0
 10 12  1  0
 10  9  1  0
 11 10  2  0
 13 14  1  0
 13 12  1  0
 14 15  1  0
 16 15  1  6
 16 17  1  0
 17  7  1  0
 18 16  1  0
 19 18  2  0
 21 20  1  1
 21 22  1  0
 23 21  1  0
 23 24  1  1
 24 18  1  0
 25 26  1  0
 25 23  1  0
 27 25  2  0
M  END
$$$$
