MRV.pdb
     RDKit          3D

 27 26  0  0  1  0  0  0  0  0999 V2000
    7.5046  -11.3974   20.0410 C   0  0  0  0  0  0  0  0  0  0  0  0
    8.1382  -12.1610   18.5414 S   0  0  0  0  0  0  0  0  0  0  0  0
    8.0049  -13.9483   18.6839 C   0  0  0  0  0  0  0  0  0  0  0  0
    7.9604  -14.3807   20.1095 C   0  0  0  0  0  0  0  0  0  0  0  0
    7.8192  -15.8813   20.2753 C   0  0  2  0  0  0  0  0  0  0  0  0
    6.6386  -16.4211   19.6730 N   0  0  0  0  0  0  0  0  0  0  0  0
    7.7741  -16.1377   21.7357 C   0  0  0  0  0  0  0  0  0  0  0  0
    6.7165  -15.9775   22.3486 O   0  0  0  0  0  0  0  0  0  0  0  0
   11.7923  -20.5469   21.0764 N   0  0  0  0  0  0  0  0  0  0  0  0
   12.8205  -19.9271   21.8145 C   0  0  0  0  0  0  0  0  0  0  0  0
   13.9955  -19.6794   21.3372 N   0  0  0  0  0  0  0  0  0  0  0  0
   12.5857  -19.5364   23.1711 N   0  0  0  0  0  0  0  0  0  0  0  0
   11.2797  -19.7947   23.7665 C   0  0  0  0  0  0  0  0  0  0  0  0
   10.2994  -18.7763   23.2754 C   0  0  0  0  0  0  0  0  0  0  0  0
    9.7838  -17.8850   24.3463 C   0  0  0  0  0  0  0  0  0  0  0  0
    8.8245  -16.8311   23.8837 C   0  0  2  0  0  0  0  0  0  0  0  0
    8.9282  -16.5692   22.4654 N   0  0  0  0  0  0  0  0  0  0  0  0
    9.1694  -15.5869   24.6691 C   0  0  0  0  0  0  0  0  0  0  0  0
   10.1248  -14.8390   24.3428 O   0  0  0  0  0  0  0  0  0  0  0  0
   14.7265  -19.1830   21.8909 C   0  0  0  0  0  0  0  0  0  0  0  0
    7.1883  -12.5650   25.4465 C   0  0  2  0  0  0  0  0  0  0  0  0
    7.5913  -13.1566   26.7777 C   0  0  0  0  0  0  0  0  0  0  0  0
    6.4664  -13.8966   27.4476 C   0  0  2  0  0  0  0  0  0  0  0  0
    8.7754  -14.0783   26.6265 N   0  0  0  0  0  0  0  0  0  0  0  0
    8.4146  -15.2229   25.8133 C   0  0  0  0  0  0  0  0  0  0  0  0
    9.2791  -14.5397   27.9619 O   0  0  0  0  0  0  0  0  0  0  0  0
    9.9078  -13.6751   28.8466 O   0  0  0  0  0  0  0  0  0  0  0  0
  2  1  1  0
  3  4  1  0
  3  2  1  0
  4  5  1  0
  5  6  1  6
  7  8  2  0
  7  5  1  0
 10 12  1  0
 10  9  1  0
 11 10  2  0
 13 14  1  0
 13 12  1  0
 14 15  1  0
 16 15  1  1
 16 17  1  0
 17  7  1  0
 18 16  1  0
 19 18  2  0
 21 20  1  1
 21 22  1  0
 23 21  1  0
 23 24  1  1
 24 18  1  0
 25 26  1  0
 25 23  1  0
 27 25  2  0
M  END
$$$$
