MRV.pdb
     RDKit          3D

 27 26  0  0  1  0  0  0  0  0999 V2000
    8.5987  -12.4511   19.9814 C   0  0  0  0  0  0  0  0  0  0  0  0
    7.5671  -13.1945   18.7100 S   0  0  0  0  0  0  0  0  0  0  0  0
    7.4542  -14.9656   18.9983 C   0  0  0  0  0  0  0  0  0  0  0  0
    6.9864  -15.2651   20.3813 C   0  0  0  0  0  0  0  0  0  0  0  0
    6.9509  -16.7487   20.6926 C   0  0  2  0  0  0  0  0  0  0  0  0
    5.9456  -17.4671   19.9709 N   0  0  0  0  0  0  0  0  0  0  0  0
    6.6747  -16.8641   22.1455 C   0  0  0  0  0  0  0  0  0  0  0  0
    5.5638  -16.5518   22.5797 O   0  0  0  0  0  0  0  0  0  0  0  0
    4.8930  -21.1274   23.3316 N   0  0  0  0  0  0  0  0  0  0  0  0
    5.9632  -21.8795   23.8562 C   0  0  0  0  0  0  0  0  0  0  0  0
    6.6781  -22.6946   23.1533 N   0  0  0  0  0  0  0  0  0  0  0  0
    6.3058  -21.7587   25.2404 N   0  0  0  0  0  0  0  0  0  0  0  0
    6.6388  -20.4434   25.7754 C   0  0  0  0  0  0  0  0  0  0  0  0
    7.4662  -19.6959   24.7774 C   0  0  0  0  0  0  0  0  0  0  0  0
    7.9382  -18.3756   25.2687 C   0  0  0  0  0  0  0  0  0  0  0  0
    7.4367  -17.1965   24.4922 C   0  0  2  0  0  0  0  0  0  0  0  0
    7.6636  -17.3302   23.0703 N   0  0  0  0  0  0  0  0  0  0  0  0
    8.1883  -16.0003   25.0288 C   0  0  0  0  0  0  0  0  0  0  0  0
    9.3947  -15.7922   24.7457 O   0  0  0  0  0  0  0  0  0  0  0  0
    7.4723  -23.2319   23.5631 C   0  0  0  0  0  0  0  0  0  0  0  0
    7.9792  -11.6383   27.3800 C   0  0  2  0  0  0  0  0  0  0  0  0
    7.2670  -12.8512   26.8267 C   0  0  0  0  0  0  0  0  0  0  0  0
    6.3761  -12.5190   25.6615 C   0  0  1  0  0  0  0  0  0  0  0  0
    8.2506  -13.9180   26.4153 N   0  0  0  0  0  0  0  0  0  0  0  0
    7.5451  -15.0654   25.8794 C   0  0  0  0  0  0  0  0  0  0  0  0
    9.1087  -14.3406   27.5707 O   0  0  0  0  0  0  0  0  0  0  0  0
   10.2641  -13.6537   27.9152 O   0  0  0  0  0  0  0  0  0  0  0  0
  2  1  1  0
  3  4  1  0
  3  2  1  0
  4  5  1  0
  5  6  1  6
  7  8  2  0
  7  5  1  0
 10 12  1  0
 10  9  1  0
 11 10  2  0
 13 14  1  0
 13 12  1  0
 14 15  1  0
 16 15  1  1
 16 17  1  0
 17  7  1  0
 18 16  1  0
 19 18  2  0
 21 20  1  1
 21 22  1  0
 23 21  1  0
 23 24  1  1
 24 18  1  0
 25 26  1  0
 25 23  1  0
 27 25  2  0
M  END
$$$$
