MRV.pdb
     RDKit          3D

 27 26  0  0  1  0  0  0  0  0999 V2000
    5.9644  -11.8235   27.2967 C   0  0  0  0  0  0  0  0  0  0  0  0
    5.1876  -12.8386   28.5614 S   0  0  0  0  0  0  0  0  0  0  0  0
    4.8216  -14.4608   27.8780 C   0  0  0  0  0  0  0  0  0  0  0  0
    5.9832  -15.0100   27.1228 C   0  0  0  0  0  0  0  0  0  0  0  0
    5.6631  -16.2955   26.3849 C   0  0  2  0  0  0  0  0  0  0  0  0
    5.7803  -17.4706   27.1930 N   0  0  0  0  0  0  0  0  0  0  0  0
    6.6297  -16.3849   25.2632 C   0  0  0  0  0  0  0  0  0  0  0  0
    7.5568  -17.1955   25.3229 O   0  0  0  0  0  0  0  0  0  0  0  0
    9.8802  -12.0313   19.1876 N   0  0  0  0  0  0  0  0  0  0  0  0
    9.9425  -13.2568   18.4944 C   0  0  0  0  0  0  0  0  0  0  0  0
   10.9544  -13.6250   17.7802 N   0  0  0  0  0  0  0  0  0  0  0  0
    8.8420  -14.1691   18.5629 N   0  0  0  0  0  0  0  0  0  0  0  0
    7.8403  -13.9933   19.6082 C   0  0  0  0  0  0  0  0  0  0  0  0
    8.2596  -14.7484   20.8304 C   0  0  0  0  0  0  0  0  0  0  0  0
    7.2647  -14.6922   21.9323 C   0  0  0  0  0  0  0  0  0  0  0  0
    7.5645  -15.5819   23.1000 C   0  0  2  0  0  0  0  0  0  0  0  0
    6.5222  -15.5540   24.1019 N   0  0  0  0  0  0  0  0  0  0  0  0
    8.8615  -15.0715   23.6842 C   0  0  0  0  0  0  0  0  0  0  0  0
    9.1629  -13.8519   23.6677 O   0  0  0  0  0  0  0  0  0  0  0  0
   10.9811  -14.5431   17.2865 C   0  0  0  0  0  0  0  0  0  0  0  0
   10.8550  -14.8017   27.6828 C   0  0  2  0  0  0  0  0  0  0  0  0
    9.9470  -14.9918   26.4895 C   0  0  0  0  0  0  0  0  0  0  0  0
    9.2408  -13.7253   26.0908 C   0  0  1  0  0  0  0  0  0  0  0  0
   10.7106  -15.5317   25.3063 N   0  0  0  0  0  0  0  0  0  0  0  0
    9.7888  -15.9669   24.2755 C   0  0  0  0  0  0  0  0  0  0  0  0
   11.6013  -16.6698   25.7078 O   0  0  0  0  0  0  0  0  0  0  0  0
   12.8074  -16.4612   26.3615 O   0  0  0  0  0  0  0  0  0  0  0  0
  2  1  1  0
  3  4  1  0
  3  2  1  0
  4  5  1  0
  5  6  1  1
  7  8  2  0
  7  5  1  0
 10 12  1  0
 10  9  1  0
 11 10  2  0
 13 14  1  0
 13 12  1  0
 14 15  1  0
 16 15  1  6
 16 17  1  0
 17  7  1  0
 18 16  1  0
 19 18  2  0
 21 20  1  1
 21 22  1  0
 23 21  1  0
 23 24  1  1
 24 18  1  0
 25 26  1  0
 25 23  1  0
 27 25  2  0
M  END
$$$$
