RTR.pdb
     RDKit          3D

 30 29  0  0  1  0  0  0  0  0999 V2000
   12.0852  -21.3346   20.8705 N   0  0  0  0  0  0  0  0  0  0  0  0
   11.7788  -22.2927   19.8618 C   0  0  0  0  0  0  0  0  0  0  0  0
   12.6575  -23.1854   19.5725 N   0  0  0  0  0  0  0  0  0  0  0  0
   10.5043  -22.2548   19.1827 N   0  0  0  0  0  0  0  0  0  0  0  0
    9.6472  -21.1417   19.4761 C   0  0  0  0  0  0  0  0  0  0  0  0
   10.1163  -19.8434   18.9362 C   0  0  0  0  0  0  0  0  0  0  0  0
    9.2724  -18.6528   19.1336 C   0  0  0  0  0  0  0  0  0  0  0  0
    9.7841  -17.3572   18.5495 C   0  0  2  0  0  0  0  0  0  0  0  0
   11.0677  -17.4744   17.9668 N   0  0  0  0  0  0  0  0  0  0  0  0
    9.6212  -16.2985   19.5758 C   0  0  0  0  0  0  0  0  0  0  0  0
   10.6075  -15.9955   20.3448 O   0  0  0  0  0  0  0  0  0  0  0  0
   12.4504  -23.8557   18.8082 C   0  0  0  0  0  0  0  0  0  0  0  0
    7.5031  -12.7458   19.3050 C   0  0  2  0  0  0  0  0  0  0  0  0
    7.2863  -13.5151   20.5867 O   0  0  0  0  0  0  0  0  0  0  0  0
    6.1044  -14.2376   20.4319 C   0  0  2  0  0  0  0  0  0  0  0  0
    8.3847  -14.5234   20.8449 N   0  0  0  0  0  0  0  0  0  0  0  0
    8.4430  -15.5493   19.8151 C   0  0  0  0  0  0  0  0  0  0  0  0
    8.1512  -15.1502   22.1935 O   0  0  0  0  0  0  0  0  0  0  0  0
    7.5459  -16.2483   22.2602 N   0  0  0  0  0  0  0  0  0  0  0  0
   13.4743  -19.3643   25.5313 C   0  0  0  0  0  0  0  0  0  0  0  0
   12.6878  -19.6417   24.3837 N   0  0  0  0  0  0  0  0  0  0  0  0
   13.0259  -20.6075   23.6170 N   0  0  0  0  0  0  0  0  0  0  0  0
   11.5411  -18.8629   24.0847 C   0  0  0  0  0  0  0  0  0  0  0  0
   11.2134  -17.7101   24.8693 C   0  0  0  0  0  0  0  0  0  0  0  0
    9.9080  -17.0753   24.4379 C   0  0  0  0  0  0  0  0  0  0  0  0
    9.5764  -15.8306   25.2099 C   0  0  2  0  0  0  0  0  0  0  0  0
    8.3558  -15.1176   24.7172 N   0  0  0  0  0  0  0  0  0  0  0  0
    8.5897  -14.5446   23.3838 C   0  0  0  0  0  0  0  0  0  0  0  0
    7.9143  -14.0043   25.5866 O   0  0  0  0  0  0  0  0  0  0  0  0
    7.9874  -12.6908   25.1437 O   0  0  0  0  0  0  0  0  0  0  0  0
  2  3  2  0
  2  1  1  0
  4  2  1  0
  5  4  1  0
  6  7  1  0
  6  5  1  0
  8 10  1  0
  8  7  1  0
  8  9  1  1
 10 11  2  0
 13 12  1  1
 13 14  1  0
 15 13  1  0
 16 10  1  0
 15 16  1  1
 17 15  1  0
 18 17  2  0
 19 20  1  0
 20 22  1  0
 21 20  2  0
 22 23  1  0
 23 24  1  0
 24 25  1  0
 26 25  1  6
 26 28  1  0
 26 27  1  0
 27 17  1  0
 28 29  1  0
 30 28  2  0
M  END
$$$$
