RTR.pdb
     RDKit          3D

 30 29  0  0  1  0  0  0  0  0999 V2000
    9.2807  -16.1604   17.0944 N   0  0  0  0  0  0  0  0  0  0  0  0
    8.7150  -15.4555   15.9932 C   0  0  0  0  0  0  0  0  0  0  0  0
    8.2752  -16.1293   14.9906 N   0  0  0  0  0  0  0  0  0  0  0  0
    8.6410  -14.0128   16.0110 N   0  0  0  0  0  0  0  0  0  0  0  0
    8.5367  -13.3857   17.2976 C   0  0  0  0  0  0  0  0  0  0  0  0
    7.1613  -13.3325   17.8478 C   0  0  0  0  0  0  0  0  0  0  0  0
    6.9029  -13.9529   19.1581 C   0  0  0  0  0  0  0  0  0  0  0  0
    7.9161  -13.6829   20.2454 C   0  0  2  0  0  0  0  0  0  0  0  0
    9.0982  -13.0695   19.7689 N   0  0  0  0  0  0  0  0  0  0  0  0
    8.0913  -14.9322   21.0259 C   0  0  0  0  0  0  0  0  0  0  0  0
    7.0611  -15.6251   21.3644 O   0  0  0  0  0  0  0  0  0  0  0  0
    7.9120  -15.6131   14.1672 C   0  0  0  0  0  0  0  0  0  0  0  0
   10.0915  -18.0721   20.2108 C   0  0  2  0  0  0  0  0  0  0  0  0
   10.4161  -17.6752   21.6316 O   0  0  0  0  0  0  0  0  0  0  0  0
   11.6318  -16.9942   21.5956 C   0  0  2  0  0  0  0  0  0  0  0  0
    9.3957  -16.7183   22.2087 N   0  0  0  0  0  0  0  0  0  0  0  0
    9.3265  -15.4718   21.4618 C   0  0  0  0  0  0  0  0  0  0  0  0
    9.7536  -16.4467   23.6454 O   0  0  0  0  0  0  0  0  0  0  0  0
   10.4392  -15.4321   23.9229 N   0  0  0  0  0  0  0  0  0  0  0  0
    7.5437  -20.5683   27.3860 C   0  0  0  0  0  0  0  0  0  0  0  0
    6.4317  -20.6187   26.5065 N   0  0  0  0  0  0  0  0  0  0  0  0
    5.7942  -21.7190   26.3729 N   0  0  0  0  0  0  0  0  0  0  0  0
    6.0270  -19.4686   25.7824 C   0  0  0  0  0  0  0  0  0  0  0  0
    6.9106  -18.3518   25.6274 C   0  0  0  0  0  0  0  0  0  0  0  0
    7.5125  -17.9100   26.9448 C   0  0  0  0  0  0  0  0  0  0  0  0
    9.0069  -18.0530   26.9855 C   0  0  2  0  0  0  0  0  0  0  0  0
    9.7330  -17.0953   26.0931 N   0  0  0  0  0  0  0  0  0  0  0  0
    9.3443  -17.2944   24.6894 C   0  0  0  0  0  0  0  0  0  0  0  0
   11.2069  -17.2181   26.1473 O   0  0  0  0  0  0  0  0  0  0  0  0
   11.9319  -16.5844   27.1471 O   0  0  0  0  0  0  0  0  0  0  0  0
  2  3  2  0
  2  1  1  0
  4  2  1  0
  5  4  1  0
  6  7  1  0
  6  5  1  0
  8 10  1  0
  8  7  1  0
  8  9  1  6
 10 11  2  0
 13 12  1  1
 13 14  1  0
 15 13  1  0
 16 10  1  0
 15 16  1  1
 17 15  1  0
 18 17  2  0
 19 20  1  0
 20 22  1  0
 21 20  2  0
 22 23  1  0
 23 24  1  0
 24 25  1  0
 26 25  1  1
 26 28  1  0
 26 27  1  0
 27 17  1  0
 28 29  1  0
 30 28  2  0
M  END
$$$$
