RTR.pdb
     RDKit          3D

 30 29  0  0  1  0  0  0  0  0999 V2000
    9.4650  -11.8274   18.0852 N   0  0  0  0  0  0  0  0  0  0  0  0
    9.2029  -13.1623   17.6623 C   0  0  0  0  0  0  0  0  0  0  0  0
    8.5801  -13.3461   16.5527 N   0  0  0  0  0  0  0  0  0  0  0  0
    9.6317  -14.2808   18.4697 N   0  0  0  0  0  0  0  0  0  0  0  0
    8.8064  -15.4546   18.4403 C   0  0  0  0  0  0  0  0  0  0  0  0
    7.7826  -15.5152   19.5104 C   0  0  0  0  0  0  0  0  0  0  0  0
    8.2281  -15.7096   20.9005 C   0  0  0  0  0  0  0  0  0  0  0  0
    7.1476  -15.9385   21.9309 C   0  0  2  0  0  0  0  0  0  0  0  0
    5.8409  -15.7521   21.4224 N   0  0  0  0  0  0  0  0  0  0  0  0
    7.5000  -15.1581   23.1424 C   0  0  0  0  0  0  0  0  0  0  0  0
    8.1045  -14.0285   23.0224 O   0  0  0  0  0  0  0  0  0  0  0  0
    8.3217  -14.3142   16.2836 C   0  0  0  0  0  0  0  0  0  0  0  0
    6.2039  -12.9402   25.6325 C   0  0  2  0  0  0  0  0  0  0  0  0
    6.8226  -14.0722   26.4182 O   0  0  0  0  0  0  0  0  0  0  0  0
    5.7944  -14.9605   26.7291 C   0  0  2  0  0  0  0  0  0  0  0  0
    7.8393  -14.8463   25.6077 N   0  0  0  0  0  0  0  0  0  0  0  0
    7.2329  -15.5381   24.4807 C   0  0  0  0  0  0  0  0  0  0  0  0
    8.5259  -15.8308   26.5163 O   0  0  0  0  0  0  0  0  0  0  0  0
    8.0907  -17.0067   26.5832 N   0  0  0  0  0  0  0  0  0  0  0  0
   16.6097  -16.9802   25.3376 C   0  0  0  0  0  0  0  0  0  0  0  0
   15.3253  -16.6262   24.8501 N   0  0  0  0  0  0  0  0  0  0  0  0
   15.2101  -16.2114   23.6461 N   0  0  0  0  0  0  0  0  0  0  0  0
   14.1806  -16.7283   25.6808 C   0  0  0  0  0  0  0  0  0  0  0  0
   14.3006  -17.1479   27.0452 C   0  0  0  0  0  0  0  0  0  0  0  0
   12.9533  -17.2916   27.7213 C   0  0  0  0  0  0  0  0  0  0  0  0
   11.9294  -16.3230   27.2029 C   0  0  1  0  0  0  0  0  0  0  0  0
   10.5859  -16.4557   27.8497 N   0  0  0  0  0  0  0  0  0  0  0  0
    9.6413  -15.4756   27.2945 C   0  0  0  0  0  0  0  0  0  0  0  0
   10.5982  -16.2508   29.3154 O   0  0  0  0  0  0  0  0  0  0  0  0
    9.8796  -15.2109   29.8891 O   0  0  0  0  0  0  0  0  0  0  0  0
  2  3  2  0
  2  1  1  0
  4  2  1  0
  5  4  1  0
  6  7  1  0
  6  5  1  0
  8 10  1  0
  8  7  1  0
  8  9  1  6
 10 11  2  0
 13 12  1  1
 13 14  1  0
 15 13  1  0
 16 10  1  0
 15 16  1  1
 17 15  1  0
 18 17  2  0
 19 20  1  0
 20 22  1  0
 21 20  2  0
 22 23  1  0
 23 24  1  0
 24 25  1  0
 26 25  1  6
 26 28  1  0
 26 27  1  0
 27 17  1  0
 28 29  1  0
 30 28  2  0
M  END
$$$$
