RTR.pdb
     RDKit          3D

 30 29  0  0  1  0  0  0  0  0999 V2000
    5.7352  -12.4596   17.1866 N   0  0  0  0  0  0  0  0  0  0  0  0
    6.5968  -12.8961   16.1394 C   0  0  0  0  0  0  0  0  0  0  0  0
    6.2802  -12.6182   14.9248 N   0  0  0  0  0  0  0  0  0  0  0  0
    7.7997  -13.6355   16.4449 N   0  0  0  0  0  0  0  0  0  0  0  0
    7.6321  -14.9913   16.8847 C   0  0  0  0  0  0  0  0  0  0  0  0
    7.4961  -15.1510   18.3520 C   0  0  0  0  0  0  0  0  0  0  0  0
    8.6412  -15.6806   19.1115 C   0  0  0  0  0  0  0  0  0  0  0  0
    9.4423  -16.7770   18.4499 C   0  0  2  0  0  0  0  0  0  0  0  0
    8.6688  -17.9149   18.1216 N   0  0  0  0  0  0  0  0  0  0  0  0
   10.6520  -17.0187   19.2738 C   0  0  0  0  0  0  0  0  0  0  0  0
   10.7980  -18.1434   19.8818 O   0  0  0  0  0  0  0  0  0  0  0  0
    6.8770  -12.9864   14.1602 C   0  0  0  0  0  0  0  0  0  0  0  0
   15.3182  -15.9350   20.6879 C   0  0  1  0  0  0  0  0  0  0  0  0
   14.0773  -15.5590   19.9130 O   0  0  0  0  0  0  0  0  0  0  0  0
   14.3758  -15.7265   18.5618 C   0  0  1  0  0  0  0  0  0  0  0  0
   12.9096  -16.4714   20.2193 N   0  0  0  0  0  0  0  0  0  0  0  0
   11.7144  -16.1037   19.4759 C   0  0  0  0  0  0  0  0  0  0  0  0
   12.6396  -16.4221   21.6994 O   0  0  0  0  0  0  0  0  0  0  0  0
   12.1629  -15.3733   22.1988 N   0  0  0  0  0  0  0  0  0  0  0  0
   12.8707  -22.7421   28.1808 C   0  0  0  0  0  0  0  0  0  0  0  0
   12.1875  -21.6114   28.6980 N   0  0  0  0  0  0  0  0  0  0  0  0
   11.5795  -21.7113   29.8184 N   0  0  0  0  0  0  0  0  0  0  0  0
   12.1747  -20.3841   27.9877 C   0  0  0  0  0  0  0  0  0  0  0  0
   12.4716  -20.3452   26.5868 C   0  0  0  0  0  0  0  0  0  0  0  0
   12.5156  -18.9302   26.0494 C   0  0  0  0  0  0  0  0  0  0  0  0
   12.7498  -18.8715   24.5672 C   0  0  2  0  0  0  0  0  0  0  0  0
   12.6763  -17.4901   23.9951 N   0  0  0  0  0  0  0  0  0  0  0  0
   12.9044  -17.5148   22.5430 C   0  0  0  0  0  0  0  0  0  0  0  0
   13.6646  -16.5471   24.5644 O   0  0  0  0  0  0  0  0  0  0  0  0
   13.3138  -15.7009   25.6074 O   0  0  0  0  0  0  0  0  0  0  0  0
  2  3  2  0
  2  1  1  0
  4  2  1  0
  5  4  1  0
  6  7  1  0
  6  5  1  0
  8 10  1  0
  8  7  1  0
  8  9  1  1
 10 11  2  0
 13 12  1  6
 13 14  1  0
 15 13  1  0
 16 10  1  0
 15 16  1  1
 17 15  1  0
 18 17  2  0
 19 20  1  0
 20 22  1  0
 21 20  2  0
 22 23  1  0
 23 24  1  0
 24 25  1  0
 26 25  1  6
 26 28  1  0
 26 27  1  0
 27 17  1  0
 28 29  1  0
 30 28  2  0
M  END
$$$$
