MIC.pdb
     RDKit          3D

 23 22  0  0  1  0  0  0  0  0999 V2000
   24.8720  -29.3291  -16.8791 C   0  0  0  0  0  0  0  0  0  0  0  0
   26.4752  -29.1078  -17.6326 S   0  0  0  0  0  0  0  0  0  0  0  0
   27.0704  -27.4555  -17.8156 C   0  0  0  0  0  0  0  0  0  0  0  0
   26.6315  -26.4027  -16.8889 C   0  0  0  0  0  0  0  0  0  0  0  0
   27.1176  -25.0252  -17.1332 C   0  0  2  0  0  0  0  0  0  0  0  0
   28.5435  -24.8737  -17.1333 N   0  0  0  0  0  0  0  0  0  0  0  0
   26.4765  -24.0483  -16.1882 C   0  0  0  0  0  0  0  0  0  0  0  0
   27.1586  -23.2472  -15.5079 O   0  0  0  0  0  0  0  0  0  0  0  0
   24.4039  -19.1138  -16.0397 C   0  0  0  0  0  0  0  0  0  0  0  0
   23.9167  -20.4562  -15.5870 C   0  0  0  0  0  0  0  0  0  0  0  0
   24.6503  -21.6293  -16.1543 C   0  0  2  0  0  0  0  0  0  0  0  0
   24.2343  -21.7634  -17.6030 C   0  0  0  0  0  0  0  0  0  0  0  0
   24.4212  -22.8815  -15.3710 C   0  0  2  0  0  0  0  0  0  0  0  0
   25.0903  -24.0113  -16.0433 N   0  0  0  0  0  0  0  0  0  0  0  0
   23.0123  -23.3169  -15.2546 C   0  0  0  0  0  0  0  0  0  0  0  0
   22.3530  -23.6249  -16.3202 O   0  0  0  0  0  0  0  0  0  0  0  0
   22.2552  -23.4515  -14.0702 N   0  0  0  0  0  0  0  0  0  0  0  0
   20.8589  -23.8566  -14.0642 C   0  0  1  0  0  0  0  0  0  0  0  0
   20.6542  -24.7635  -12.8422 C   0  0  0  0  0  0  0  0  0  0  0  0
   22.0322  -25.9225  -12.6553 S   0  0  0  0  0  0  0  0  0  0  0  0
   19.9326  -22.7340  -13.9181 C   0  0  0  0  0  0  0  0  0  0  0  0
   20.4063  -21.4734  -13.6397 O   0  0  0  0  0  0  0  0  0  0  0  0
   18.7075  -22.9087  -14.0445 O   0  0  0  0  0  0  0  0  0  0  0  0
  2  1  1  0
  3  2  1  0
  4  3  1  0
  5  4  1  0
  5  6  1  1
  7 14  1  0
  7  5  1  0
  8  7  2  0
  9 10  1  0
 11 13  1  0
 11 10  1  0
 11 12  1  6
 13 14  1  6
 15 13  1  0
 16 15  2  0
 17 15  1  0
 18 21  1  0
 18 17  1  0
 18 19  1  1
 20 19  1  0
 21 22  1  0
 23 21  2  0
M  END
$$$$
