MIC.pdb
     RDKit          3D

 23 22  0  0  1  0  0  0  0  0999 V2000
   12.4583  -20.9268    6.3019 C   0  0  0  0  0  0  0  0  0  0  0  0
   13.9698  -20.0633    6.6977 S   0  0  0  0  0  0  0  0  0  0  0  0
   14.7373  -19.1287    5.4113 C   0  0  0  0  0  0  0  0  0  0  0  0
   15.9862  -18.3983    5.6697 C   0  0  0  0  0  0  0  0  0  0  0  0
   16.5483  -17.5857    4.5665 C   0  0  2  0  0  0  0  0  0  0  0  0
   16.6813  -18.2694    3.3131 N   0  0  0  0  0  0  0  0  0  0  0  0
   17.8494  -16.9505    4.9694 C   0  0  0  0  0  0  0  0  0  0  0  0
   18.9394  -17.3074    4.4649 O   0  0  0  0  0  0  0  0  0  0  0  0
   18.1410  -11.7831    4.6953 C   0  0  0  0  0  0  0  0  0  0  0  0
   18.5149  -13.2304    4.7958 C   0  0  0  0  0  0  0  0  0  0  0  0
   18.8213  -13.7192    6.1754 C   0  0  2  0  0  0  0  0  0  0  0  0
   19.9674  -12.8848    6.7050 C   0  0  0  0  0  0  0  0  0  0  0  0
   19.1107  -15.1851    6.2127 C   0  0  2  0  0  0  0  0  0  0  0  0
   17.8745  -15.9376    5.9271 N   0  0  0  0  0  0  0  0  0  0  0  0
   19.5613  -15.7172    7.5172 C   0  0  0  0  0  0  0  0  0  0  0  0
   18.6999  -15.8986    8.4606 O   0  0  0  0  0  0  0  0  0  0  0  0
   20.8768  -16.0760    7.8847 N   0  0  0  0  0  0  0  0  0  0  0  0
   21.2348  -16.5080    9.2260 C   0  0  1  0  0  0  0  0  0  0  0  0
   22.2971  -17.6071    9.0810 C   0  0  0  0  0  0  0  0  0  0  0  0
   22.7360  -18.3032   10.6934 S   0  0  0  0  0  0  0  0  0  0  0  0
   21.8326  -15.4456   10.0345 C   0  0  0  0  0  0  0  0  0  0  0  0
   21.6699  -15.4360   11.4001 O   0  0  0  0  0  0  0  0  0  0  0  0
   22.4939  -14.5407    9.4948 O   0  0  0  0  0  0  0  0  0  0  0  0
  2  1  1  0
  3  2  1  0
  4  3  1  0
  5  4  1  0
  5  6  1  6
  7 14  1  0
  7  5  1  0
  8  7  2  0
  9 10  1  0
 11 13  1  0
 11 10  1  0
 11 12  1  6
 13 14  1  1
 15 13  1  0
 16 15  2  0
 17 15  1  0
 18 21  1  0
 18 17  1  0
 18 19  1  6
 20 19  1  0
 21 22  1  0
 23 21  2  0
M  END
$$$$
