MIC.pdb
     RDKit          3D

 23 22  0  0  1  0  0  0  0  0999 V2000
   24.0789  -17.4581  -24.0648 C   0  0  0  0  0  0  0  0  0  0  0  0
   22.8089  -16.2362  -23.7802 S   0  0  0  0  0  0  0  0  0  0  0  0
   22.5735  -15.6736  -22.1233 C   0  0  0  0  0  0  0  0  0  0  0  0
   23.0423  -16.4852  -20.9913 C   0  0  0  0  0  0  0  0  0  0  0  0
   22.7044  -16.0212  -19.6260 C   0  0  2  0  0  0  0  0  0  0  0  0
   23.1428  -14.6935  -19.3082 N   0  0  0  0  0  0  0  0  0  0  0  0
   23.1738  -17.0018  -18.5883 C   0  0  0  0  0  0  0  0  0  0  0  0
   23.0621  -18.2386  -18.7544 O   0  0  0  0  0  0  0  0  0  0  0  0
   27.0859  -15.5115  -16.6941 C   0  0  0  0  0  0  0  0  0  0  0  0
   26.5833  -16.8729  -16.3223 C   0  0  0  0  0  0  0  0  0  0  0  0
   25.2948  -16.8955  -15.5637 C   0  0  2  0  0  0  0  0  0  0  0  0
   25.5504  -17.6254  -14.2629 C   0  0  0  0  0  0  0  0  0  0  0  0
   24.1765  -17.4975  -16.3518 C   0  0  2  0  0  0  0  0  0  0  0  0
   23.7503  -16.5524  -17.4012 N   0  0  0  0  0  0  0  0  0  0  0  0
   22.9364  -17.7771  -15.5956 C   0  0  0  0  0  0  0  0  0  0  0  0
   22.3805  -16.8316  -14.9160 O   0  0  0  0  0  0  0  0  0  0  0  0
   22.2414  -19.0040  -15.5185 N   0  0  0  0  0  0  0  0  0  0  0  0
   21.0305  -19.1807  -14.7336 C   0  0  1  0  0  0  0  0  0  0  0  0
   19.9096  -18.4124  -15.4485 C   0  0  0  0  0  0  0  0  0  0  0  0
   19.1896  -19.4042  -16.7808 S   0  0  0  0  0  0  0  0  0  0  0  0
   20.5981  -20.5752  -14.6451 C   0  0  0  0  0  0  0  0  0  0  0  0
   19.5411  -20.9256  -13.8380 O   0  0  0  0  0  0  0  0  0  0  0  0
   21.1819  -21.4577  -15.2990 O   0  0  0  0  0  0  0  0  0  0  0  0
  2  1  1  0
  3  2  1  0
  4  3  1  0
  5  4  1  0
  5  6  1  1
  7 14  1  0
  7  5  1  0
  8  7  2  0
  9 10  1  0
 11 13  1  0
 11 10  1  0
 11 12  1  1
 13 14  1  6
 15 13  1  0
 16 15  2  0
 17 15  1  0
 18 21  1  0
 18 17  1  0
 18 19  1  6
 20 19  1  0
 21 22  1  0
 23 21  2  0
M  END
$$$$
