MIC.pdb
     RDKit          3D

 23 22  0  0  1  0  0  0  0  0999 V2000
   22.3906  -17.1123  -17.1840 C   0  0  0  0  0  0  0  0  0  0  0  0
   22.1779  -18.0840  -15.7016 S   0  0  0  0  0  0  0  0  0  0  0  0
   23.6028  -18.8935  -15.0443 C   0  0  0  0  0  0  0  0  0  0  0  0
   23.5163  -19.6340  -13.7778 C   0  0  0  0  0  0  0  0  0  0  0  0
   24.7819  -20.1003  -13.1661 C   0  0  2  0  0  0  0  0  0  0  0  0
   25.6341  -20.8598  -14.0339 N   0  0  0  0  0  0  0  0  0  0  0  0
   24.5238  -20.8438  -11.8858 C   0  0  0  0  0  0  0  0  0  0  0  0
   24.3847  -22.0888  -11.8651 O   0  0  0  0  0  0  0  0  0  0  0  0
   27.2291  -19.4690   -7.5169 C   0  0  0  0  0  0  0  0  0  0  0  0
   26.4190  -20.2830   -8.4790 C   0  0  0  0  0  0  0  0  0  0  0  0
   24.9364  -20.1929   -8.3052 C   0  0  2  0  0  0  0  0  0  0  0  0
   24.6071  -20.7617   -6.9421 C   0  0  0  0  0  0  0  0  0  0  0  0
   24.1883  -20.8700   -9.4079 C   0  0  2  0  0  0  0  0  0  0  0  0
   24.4303  -20.1568  -10.6763 N   0  0  0  0  0  0  0  0  0  0  0  0
   22.7151  -20.8754   -9.2749 C   0  0  0  0  0  0  0  0  0  0  0  0
   22.0315  -19.8878   -9.7464 O   0  0  0  0  0  0  0  0  0  0  0  0
   21.9157  -21.8719   -8.6731 N   0  0  0  0  0  0  0  0  0  0  0  0
   20.4669  -21.7826   -8.5905 C   0  0  1  0  0  0  0  0  0  0  0  0
   19.9070  -22.2073   -9.9557 C   0  0  0  0  0  0  0  0  0  0  0  0
   18.1025  -22.3414   -9.9045 S   0  0  0  0  0  0  0  0  0  0  0  0
   19.8884  -22.6860   -7.5961 C   0  0  0  0  0  0  0  0  0  0  0  0
   18.6355  -22.4446   -7.0831 O   0  0  0  0  0  0  0  0  0  0  0  0
   20.5240  -23.6812   -7.2051 O   0  0  0  0  0  0  0  0  0  0  0  0
  2  1  1  0
  3  2  1  0
  4  3  1  0
  5  4  1  0
  5  6  1  6
  7 14  1  0
  7  5  1  0
  8  7  2  0
  9 10  1  0
 11 13  1  0
 11 10  1  0
 11 12  1  1
 13 14  1  6
 15 13  1  0
 16 15  2  0
 17 15  1  0
 18 21  1  0
 18 17  1  0
 18 19  1  6
 20 19  1  0
 21 22  1  0
 23 21  2  0
M  END
$$$$
