MIC.pdb
     RDKit          3D

 23 22  0  0  1  0  0  0  0  0999 V2000
   21.6974   -5.7975  -23.0438 C   0  0  0  0  0  0  0  0  0  0  0  0
   22.6905   -7.2118  -23.4912 S   0  0  0  0  0  0  0  0  0  0  0  0
   22.6186   -8.6266  -22.4372 C   0  0  0  0  0  0  0  0  0  0  0  0
   22.1085   -8.5029  -21.0645 C   0  0  0  0  0  0  0  0  0  0  0  0
   22.1415   -9.7103  -20.2073 C   0  0  2  0  0  0  0  0  0  0  0  0
   21.5127  -10.8714  -20.7665 N   0  0  0  0  0  0  0  0  0  0  0  0
   21.5998   -9.4171  -18.8365 C   0  0  0  0  0  0  0  0  0  0  0  0
   20.4310   -9.7294  -18.5107 O   0  0  0  0  0  0  0  0  0  0  0  0
   24.4719  -10.6702  -14.6638 C   0  0  0  0  0  0  0  0  0  0  0  0
   23.3161  -10.2914  -15.5385 C   0  0  0  0  0  0  0  0  0  0  0  0
   22.9492   -8.8417  -15.5240 C   0  0  2  0  0  0  0  0  0  0  0  0
   22.5439   -8.4935  -14.1082 C   0  0  0  0  0  0  0  0  0  0  0  0
   21.8900   -8.5090  -16.5247 C   0  0  2  0  0  0  0  0  0  0  0  0
   22.3947   -8.7813  -17.8838 N   0  0  0  0  0  0  0  0  0  0  0  0
   21.4765   -7.0896  -16.5734 C   0  0  0  0  0  0  0  0  0  0  0  0
   22.3477   -6.1843  -16.8674 O   0  0  0  0  0  0  0  0  0  0  0  0
   20.1867   -6.5671  -16.3328 N   0  0  0  0  0  0  0  0  0  0  0  0
   19.8874   -5.1450  -16.3752 C   0  0  1  0  0  0  0  0  0  0  0  0
   19.4578   -4.8138  -17.8116 C   0  0  0  0  0  0  0  0  0  0  0  0
   18.7499   -3.1506  -17.9108 S   0  0  0  0  0  0  0  0  0  0  0  0
   18.7776   -4.7623  -15.5026 C   0  0  0  0  0  0  0  0  0  0  0  0
   17.9117   -5.7156  -15.0202 O   0  0  0  0  0  0  0  0  0  0  0  0
   18.6065   -3.5710  -15.1882 O   0  0  0  0  0  0  0  0  0  0  0  0
  2  1  1  0
  3  2  1  0
  4  3  1  0
  5  4  1  0
  5  6  1  6
  7 14  1  0
  7  5  1  0
  8  7  2  0
  9 10  1  0
 11 13  1  0
 11 10  1  0
 11 12  1  1
 13 14  1  6
 15 13  1  0
 16 15  2  0
 17 15  1  0
 18 21  1  0
 18 17  1  0
 18 19  1  6
 20 19  1  0
 21 22  1  0
 23 21  2  0
M  END
$$$$
