MIC.pdb
     RDKit          3D

 23 22  0  0  1  0  0  0  0  0999 V2000
   19.7371  -34.3379  -15.6295 C   0  0  0  0  0  0  0  0  0  0  0  0
   19.9280  -33.4483  -17.1654 S   0  0  0  0  0  0  0  0  0  0  0  0
   20.8618  -31.9502  -17.1309 C   0  0  0  0  0  0  0  0  0  0  0  0
   21.6013  -31.5655  -15.9205 C   0  0  0  0  0  0  0  0  0  0  0  0
   21.8943  -30.1273  -15.7217 C   0  0  2  0  0  0  0  0  0  0  0  0
   22.8281  -29.5620  -16.6514 N   0  0  0  0  0  0  0  0  0  0  0  0
   22.3156  -29.8504  -14.3059 C   0  0  0  0  0  0  0  0  0  0  0  0
   23.4779  -29.4744  -14.0274 O   0  0  0  0  0  0  0  0  0  0  0  0
   19.7631  -26.3320  -11.6670 C   0  0  0  0  0  0  0  0  0  0  0  0
   20.8246  -27.3167  -12.0517 C   0  0  0  0  0  0  0  0  0  0  0  0
   20.7474  -28.6434  -11.3659 C   0  0  2  0  0  0  0  0  0  0  0  0
   20.8809  -28.3908   -9.8798 C   0  0  0  0  0  0  0  0  0  0  0  0
   21.7624  -29.6133  -11.8788 C   0  0  2  0  0  0  0  0  0  0  0  0
   21.4121  -30.0090  -13.2560 N   0  0  0  0  0  0  0  0  0  0  0  0
   21.8502  -30.8965  -11.1482 C   0  0  0  0  0  0  0  0  0  0  0  0
   20.8599  -31.7223  -11.1943 O   0  0  0  0  0  0  0  0  0  0  0  0
   22.9323  -31.3640  -10.3705 N   0  0  0  0  0  0  0  0  0  0  0  0
   22.8667  -32.5748   -9.5685 C   0  0  1  0  0  0  0  0  0  0  0  0
   24.2851  -32.8544   -9.0510 C   0  0  0  0  0  0  0  0  0  0  0  0
   25.4776  -32.8919  -10.4125 S   0  0  0  0  0  0  0  0  0  0  0  0
   22.0057  -32.4433   -8.3934 C   0  0  0  0  0  0  0  0  0  0  0  0
   21.6322  -33.5562   -7.6770 O   0  0  0  0  0  0  0  0  0  0  0  0
   21.6031  -31.3236   -8.0306 O   0  0  0  0  0  0  0  0  0  0  0  0
  2  1  1  0
  3  2  1  0
  4  3  1  0
  5  4  1  0
  5  6  1  6
  7 14  1  0
  7  5  1  0
  8  7  2  0
  9 10  1  0
 11 13  1  0
 11 10  1  0
 11 12  1  1
 13 14  1  6
 15 13  1  0
 16 15  2  0
 17 15  1  0
 18 21  1  0
 18 17  1  0
 18 19  1  1
 20 19  1  0
 21 22  1  0
 23 21  2  0
M  END
$$$$
