MIC.pdb
     RDKit          3D

 23 22  0  0  1  0  0  0  0  0999 V2000
   25.3940  -15.4517  -17.1726 C   0  0  0  0  0  0  0  0  0  0  0  0
   27.0320  -15.2846  -16.4827 S   0  0  0  0  0  0  0  0  0  0  0  0
   27.8160  -16.7462  -15.8772 C   0  0  0  0  0  0  0  0  0  0  0  0
   27.0081  -17.8820  -15.4114 C   0  0  0  0  0  0  0  0  0  0  0  0
   27.7118  -18.9929  -14.7301 C   0  0  2  0  0  0  0  0  0  0  0  0
   28.7248  -19.6417  -15.5105 N   0  0  0  0  0  0  0  0  0  0  0  0
   26.7372  -19.9957  -14.1796 C   0  0  0  0  0  0  0  0  0  0  0  0
   26.4814  -21.0637  -14.7829 O   0  0  0  0  0  0  0  0  0  0  0  0
   26.4869  -20.7174   -8.8078 C   0  0  0  0  0  0  0  0  0  0  0  0
   26.3800  -21.0141  -10.2724 C   0  0  0  0  0  0  0  0  0  0  0  0
   25.0989  -20.5946  -10.9197 C   0  0  2  0  0  0  0  0  0  0  0  0
   23.9876  -21.4020  -10.2848 C   0  0  0  0  0  0  0  0  0  0  0  0
   25.1358  -20.7357  -12.4073 C   0  0  2  0  0  0  0  0  0  0  0  0
   26.0854  -19.7574  -12.9704 N   0  0  0  0  0  0  0  0  0  0  0  0
   23.8664  -20.4493  -13.1107 C   0  0  0  0  0  0  0  0  0  0  0  0
   23.3914  -19.2496  -13.0999 O   0  0  0  0  0  0  0  0  0  0  0  0
   23.0663  -21.3609  -13.8338 N   0  0  0  0  0  0  0  0  0  0  0  0
   21.7871  -20.9987  -14.4222 C   0  0  1  0  0  0  0  0  0  0  0  0
   21.5188  -21.9847  -15.5684 C   0  0  0  0  0  0  0  0  0  0  0  0
   19.8401  -21.7865  -16.2162 S   0  0  0  0  0  0  0  0  0  0  0  0
   20.6673  -21.1196  -13.4890 C   0  0  0  0  0  0  0  0  0  0  0  0
   19.6323  -20.2147  -13.5241 O   0  0  0  0  0  0  0  0  0  0  0  0
   20.6402  -22.0420  -12.6549 O   0  0  0  0  0  0  0  0  0  0  0  0
  2  1  1  0
  3  2  1  0
  4  3  1  0
  5  4  1  0
  5  6  1  6
  7 14  1  0
  7  5  1  0
  8  7  2  0
  9 10  1  0
 11 13  1  0
 11 10  1  0
 11 12  1  1
 13 14  1  6
 15 13  1  0
 16 15  2  0
 17 15  1  0
 18 21  1  0
 18 17  1  0
 18 19  1  6
 20 19  1  0
 21 22  1  0
 23 21  2  0
M  END
$$$$
