WSG.pdb
     RDKit          3D

 25 26  0  0  1  0  0  0  0  0999 V2000
    6.5940  -17.5220   24.3722 N   0  0  0  0  0  0  0  0  0  0  0  0
    7.5194  -16.5908   23.7509 C   0  0  1  0  0  0  0  0  0  0  0  0
    8.2573  -15.8139   24.8099 C   0  0  0  0  0  0  0  0  0  0  0  0
    7.2660  -15.0136   25.5686 C   0  0  0  0  0  0  0  0  0  0  0  0
    6.1697  -15.4283   26.2941 C   0  0  0  0  0  0  0  0  0  0  0  0
    5.5949  -14.3294   26.7882 N   0  0  0  0  0  0  0  0  0  0  0  0
    6.2499  -13.2219   26.4289 C   0  0  0  0  0  0  0  0  0  0  0  0
    6.0630  -11.8621   26.6762 C   0  0  0  0  0  0  0  0  0  0  0  0
    6.9070  -10.8976   26.1732 C   0  0  0  0  0  0  0  0  0  0  0  0
    7.9696  -11.3133   25.3993 C   0  0  0  0  0  0  0  0  0  0  0  0
    8.1509  -12.6556   25.1576 C   0  0  0  0  0  0  0  0  0  0  0  0
    7.3106  -13.6303   25.6570 C   0  0  0  0  0  0  0  0  0  0  0  0
    8.4705  -17.3573   22.9025 C   0  0  0  0  0  0  0  0  0  0  0  0
    8.2606  -18.5772   22.6070 O   0  0  0  0  0  0  0  0  0  0  0  0
    9.0973  -15.3220   19.7555 O   0  0  0  0  0  0  0  0  0  0  0  0
    9.1114  -16.6824   20.0039 C   0  0  0  0  0  0  0  0  0  0  0  0
   10.1550  -17.0851   21.0397 C   0  0  2  0  0  0  0  0  0  0  0  0
    9.6447  -16.7699   22.3881 N   0  0  0  0  0  0  0  0  0  0  0  0
   11.4513  -16.4504   20.8097 C   0  0  0  0  0  0  0  0  0  0  0  0
   12.0050  -16.5710   19.6676 O   0  0  0  0  0  0  0  0  0  0  0  0
   12.1237  -15.7021   21.8037 N   0  0  0  0  0  0  0  0  0  0  0  0
   12.9346  -16.3363   22.8337 C   0  0  0  0  0  0  0  0  0  0  0  0
   14.1987  -16.7804   22.1671 C   0  0  0  0  0  0  0  0  0  0  0  0
   14.5362  -18.1195   22.2805 O   0  0  0  0  0  0  0  0  0  0  0  0
   14.9414  -15.9858   21.5238 O   0  0  0  0  0  0  0  0  0  0  0  0
  2  1  1  1
  2  3  1  0
  2 13  1  0
  3  4  1  0
  4  5  2  0
  6  5  1  0
  7  6  1  0
  8  7  2  0
  9  8  1  0
 10  9  2  0
 10 11  1  0
 11 12  2  0
 12  7  1  0
 12  4  1  0
 13 14  2  0
 16 15  1  0
 17 16  1  6
 18 13  1  0
 18 17  1  0
 19 17  1  0
 19 20  2  0
 21 19  1  0
 22 21  1  0
 22 23  1  0
 23 24  1  0
 25 23  2  0
M  END
$$$$
