WSG.pdb
     RDKit          3D

 25 26  0  0  1  0  0  0  0  0999 V2000
    7.3360  -18.3084   24.7966 N   0  0  0  0  0  0  0  0  0  0  0  0
    7.5183  -17.0606   24.0759 C   0  0  1  0  0  0  0  0  0  0  0  0
    8.2407  -16.0645   24.9449 C   0  0  0  0  0  0  0  0  0  0  0  0
    7.2256  -15.2161   25.6146 C   0  0  0  0  0  0  0  0  0  0  0  0
    6.0567  -15.5775   26.2498 C   0  0  0  0  0  0  0  0  0  0  0  0
    5.4907  -14.4508   26.6883 N   0  0  0  0  0  0  0  0  0  0  0  0
    6.2197  -13.3752   26.3777 C   0  0  0  0  0  0  0  0  0  0  0  0
    6.0713  -12.0065   26.6006 C   0  0  0  0  0  0  0  0  0  0  0  0
    6.9941  -11.0832   26.1631 C   0  0  0  0  0  0  0  0  0  0  0  0
    8.0980  -11.5504   25.4819 C   0  0  0  0  0  0  0  0  0  0  0  0
    8.2410  -12.9014   25.2639 C   0  0  0  0  0  0  0  0  0  0  0  0
    7.3218  -13.8351   25.6982 C   0  0  0  0  0  0  0  0  0  0  0  0
    8.2916  -17.3345   22.8353 C   0  0  0  0  0  0  0  0  0  0  0  0
    9.0732  -18.3350   22.7484 O   0  0  0  0  0  0  0  0  0  0  0  0
    6.9801  -16.3757   19.0832 O   0  0  0  0  0  0  0  0  0  0  0  0
    8.2937  -16.0074   19.3098 C   0  0  0  0  0  0  0  0  0  0  0  0
    8.9363  -16.7793   20.4567 C   0  0  2  0  0  0  0  0  0  0  0  0
    8.1950  -16.5010   21.7021 N   0  0  0  0  0  0  0  0  0  0  0  0
   10.3570  -16.4747   20.6147 C   0  0  0  0  0  0  0  0  0  0  0  0
   11.1336  -16.6097   19.6127 O   0  0  0  0  0  0  0  0  0  0  0  0
   10.9131  -16.0327   21.8376 N   0  0  0  0  0  0  0  0  0  0  0  0
   12.3251  -15.7020   21.9710 C   0  0  0  0  0  0  0  0  0  0  0  0
   12.9953  -16.9157   22.5339 C   0  0  0  0  0  0  0  0  0  0  0  0
   14.3478  -16.8160   22.8189 O   0  0  0  0  0  0  0  0  0  0  0  0
   12.3746  -17.9954   22.7480 O   0  0  0  0  0  0  0  0  0  0  0  0
  2  1  1  1
  2  3  1  0
  2 13  1  0
  3  4  1  0
  4  5  2  0
  6  5  1  0
  7  6  1  0
  8  7  2  0
  9  8  1  0
 10  9  2  0
 10 11  1  0
 11 12  2  0
 12  7  1  0
 12  4  1  0
 13 14  2  0
 16 15  1  0
 17 16  1  6
 18 13  1  0
 18 17  1  0
 19 17  1  0
 19 20  2  0
 21 19  1  0
 22 21  1  0
 22 23  1  0
 23 24  1  0
 25 23  2  0
M  END
$$$$
