WSG.pdb
     RDKit          3D

 25 26  0  0  1  0  0  0  0  0999 V2000
    6.8014  -18.3229   24.9105 N   0  0  0  0  0  0  0  0  0  0  0  0
    7.1608  -17.0696   24.2705 C   0  0  1  0  0  0  0  0  0  0  0  0
    8.0132  -16.2433   25.1980 C   0  0  0  0  0  0  0  0  0  0  0  0
    7.1417  -15.2359   25.8495 C   0  0  0  0  0  0  0  0  0  0  0  0
    5.9895  -15.4128   26.5853 C   0  0  0  0  0  0  0  0  0  0  0  0
    5.5762  -14.1983   26.9544 N   0  0  0  0  0  0  0  0  0  0  0  0
    6.3893  -13.2388   26.5039 C   0  0  0  0  0  0  0  0  0  0  0  0
    6.4002  -11.8484   26.6112 C   0  0  0  0  0  0  0  0  0  0  0  0
    7.3807  -11.0714   26.0364 C   0  0  0  0  0  0  0  0  0  0  0  0
    8.3790  -11.7120   25.3336 C   0  0  0  0  0  0  0  0  0  0  0  0
    8.3650  -13.0838   25.2299 C   0  0  0  0  0  0  0  0  0  0  0  0
    7.3867  -13.8717   25.8022 C   0  0  0  0  0  0  0  0  0  0  0  0
    7.8924  -17.3693   23.0109 C   0  0  0  0  0  0  0  0  0  0  0  0
    8.7018  -18.3481   22.9310 O   0  0  0  0  0  0  0  0  0  0  0  0
    8.2296  -14.4206   19.8332 O   0  0  0  0  0  0  0  0  0  0  0  0
    8.1441  -15.7779   19.5821 C   0  0  0  0  0  0  0  0  0  0  0  0
    8.6809  -16.6277   20.7283 C   0  0  2  0  0  0  0  0  0  0  0  0
    7.7238  -16.5855   21.8509 N   0  0  0  0  0  0  0  0  0  0  0  0
   10.0135  -16.2125   21.1616 C   0  0  0  0  0  0  0  0  0  0  0  0
   10.1196  -15.3257   22.0715 O   0  0  0  0  0  0  0  0  0  0  0  0
   11.1994  -16.7545   20.6139 N   0  0  0  0  0  0  0  0  0  0  0  0
   12.5205  -16.3288   21.0545 C   0  0  0  0  0  0  0  0  0  0  0  0
   13.5067  -16.9910   20.1445 C   0  0  0  0  0  0  0  0  0  0  0  0
   13.0022  -17.8618   19.1920 O   0  0  0  0  0  0  0  0  0  0  0  0
   14.7501  -16.7802   20.2236 O   0  0  0  0  0  0  0  0  0  0  0  0
  2  1  1  1
  2  3  1  0
  2 13  1  0
  3  4  1  0
  4  5  2  0
  6  5  1  0
  7  6  1  0
  8  7  2  0
  9  8  1  0
 10  9  2  0
 10 11  1  0
 11 12  2  0
 12  7  1  0
 12  4  1  0
 13 14  2  0
 16 15  1  0
 17 16  1  6
 18 13  1  0
 18 17  1  0
 19 17  1  0
 19 20  2  0
 21 19  1  0
 22 21  1  0
 22 23  1  0
 23 24  1  0
 25 23  2  0
M  END
$$$$
