WSG.pdb
     RDKit          3D

 25 26  0  0  1  0  0  0  0  0999 V2000
    6.7613  -17.8291   24.3955 N   0  0  0  0  0  0  0  0  0  0  0  0
    7.6753  -16.8558   23.8238 C   0  0  1  0  0  0  0  0  0  0  0  0
    8.4021  -16.1243   24.9221 C   0  0  0  0  0  0  0  0  0  0  0  0
    7.4194  -15.2768   25.6396 C   0  0  0  0  0  0  0  0  0  0  0  0
    6.3526  -15.6441   26.4317 C   0  0  0  0  0  0  0  0  0  0  0  0
    5.7730  -14.5156   26.8472 N   0  0  0  0  0  0  0  0  0  0  0  0
    6.3971  -13.4334   26.3740 C   0  0  0  0  0  0  0  0  0  0  0  0
    6.1931  -12.0604   26.5093 C   0  0  0  0  0  0  0  0  0  0  0  0
    7.0045  -11.1301   25.8995 C   0  0  0  0  0  0  0  0  0  0  0  0
    8.0511  -11.5946   25.1316 C   0  0  0  0  0  0  0  0  0  0  0  0
    8.2493  -12.9498   25.0005 C   0  0  0  0  0  0  0  0  0  0  0  0
    7.4417  -13.8906   25.6076 C   0  0  0  0  0  0  0  0  0  0  0  0
    8.6370  -17.5661   22.9392 C   0  0  0  0  0  0  0  0  0  0  0  0
    8.9437  -18.7853   23.1368 O   0  0  0  0  0  0  0  0  0  0  0  0
   10.3779  -15.5290   19.7452 O   0  0  0  0  0  0  0  0  0  0  0  0
   10.2463  -16.8992   19.6116 C   0  0  0  0  0  0  0  0  0  0  0  0
   10.1960  -17.6233   20.9523 C   0  0  2  0  0  0  0  0  0  0  0  0
    9.2513  -16.9238   21.8445 N   0  0  0  0  0  0  0  0  0  0  0  0
   11.5118  -17.7455   21.5764 C   0  0  0  0  0  0  0  0  0  0  0  0
   12.4357  -18.3669   20.9552 O   0  0  0  0  0  0  0  0  0  0  0  0
   11.8092  -17.2007   22.8472 N   0  0  0  0  0  0  0  0  0  0  0  0
   13.0878  -17.4273   23.5065 C   0  0  0  0  0  0  0  0  0  0  0  0
   13.9664  -16.2727   23.1400 C   0  0  0  0  0  0  0  0  0  0  0  0
   15.0848  -16.0543   23.9284 O   0  0  0  0  0  0  0  0  0  0  0  0
   13.7182  -15.5166   22.1585 O   0  0  0  0  0  0  0  0  0  0  0  0
  2  1  1  1
  2  3  1  0
  2 13  1  0
  3  4  1  0
  4  5  2  0
  6  5  1  0
  7  6  1  0
  8  7  2  0
  9  8  1  0
 10  9  2  0
 10 11  1  0
 11 12  2  0
 12  7  1  0
 12  4  1  0
 13 14  2  0
 16 15  1  0
 17 16  1  6
 18 13  1  0
 18 17  1  0
 19 17  1  0
 19 20  2  0
 21 19  1  0
 22 21  1  0
 22 23  1  0
 23 24  1  0
 25 23  2  0
M  END
$$$$
