WSG.pdb
     RDKit          3D

 25 26  0  0  1  0  0  0  0  0999 V2000
    6.9345  -17.3840   23.1325 N   0  0  0  0  0  0  0  0  0  0  0  0
    7.2191  -15.9871   22.8542 C   0  0  1  0  0  0  0  0  0  0  0  0
    8.1625  -15.4369   23.8919 C   0  0  0  0  0  0  0  0  0  0  0  0
    7.3558  -14.9586   25.0404 C   0  0  0  0  0  0  0  0  0  0  0  0
    6.5289  -15.6628   25.8893 C   0  0  0  0  0  0  0  0  0  0  0  0
    6.0288  -14.7829   26.7599 N   0  0  0  0  0  0  0  0  0  0  0  0
    6.4795  -13.5464   26.5306 C   0  0  0  0  0  0  0  0  0  0  0  0
    6.2663  -12.3091   27.1377 C   0  0  0  0  0  0  0  0  0  0  0  0
    6.8704  -11.1547   26.6926 C   0  0  0  0  0  0  0  0  0  0  0  0
    7.7132  -11.2480   25.6054 C   0  0  0  0  0  0  0  0  0  0  0  0
    7.9212  -12.4704   25.0091 C   0  0  0  0  0  0  0  0  0  0  0  0
    7.3205  -13.6334   25.4475 C   0  0  0  0  0  0  0  0  0  0  0  0
    7.8134  -15.8825   21.4949 C   0  0  0  0  0  0  0  0  0  0  0  0
    8.5589  -16.8004   21.0248 O   0  0  0  0  0  0  0  0  0  0  0  0
    8.4743  -13.0138   17.5478 O   0  0  0  0  0  0  0  0  0  0  0  0
    7.7919  -13.3117   18.7131 C   0  0  0  0  0  0  0  0  0  0  0  0
    8.3939  -14.4918   19.4674 C   0  0  2  0  0  0  0  0  0  0  0  0
    7.5790  -14.7654   20.6671 N   0  0  0  0  0  0  0  0  0  0  0  0
    9.7946  -14.2768   19.8247 C   0  0  0  0  0  0  0  0  0  0  0  0
   10.0707  -13.7306   20.9432 O   0  0  0  0  0  0  0  0  0  0  0  0
   10.8656  -14.6509   18.9803 N   0  0  0  0  0  0  0  0  0  0  0  0
   12.2557  -14.4064   19.3388 C   0  0  0  0  0  0  0  0  0  0  0  0
   13.0862  -14.9504   18.2191 C   0  0  0  0  0  0  0  0  0  0  0  0
   14.3959  -14.5066   18.1302 O   0  0  0  0  0  0  0  0  0  0  0  0
   12.6334  -15.7790   17.3794 O   0  0  0  0  0  0  0  0  0  0  0  0
  2  1  1  1
  2  3  1  0
  2 13  1  0
  3  4  1  0
  4  5  2  0
  6  5  1  0
  7  6  1  0
  8  7  2  0
  9  8  1  0
 10  9  2  0
 10 11  1  0
 11 12  2  0
 12  7  1  0
 12  4  1  0
 13 14  2  0
 16 15  1  0
 17 16  1  1
 18 13  1  0
 18 17  1  0
 19 17  1  0
 19 20  2  0
 21 19  1  0
 22 21  1  0
 22 23  1  0
 23 24  1  0
 25 23  2  0
M  END
$$$$
