WSG.pdb
     RDKit          3D

 25 26  0  0  1  0  0  0  0  0999 V2000
    8.9686  -15.4901   24.2484 N   0  0  0  0  0  0  0  0  0  0  0  0
    7.8258  -16.3826   24.1639 C   0  0  1  0  0  0  0  0  0  0  0  0
    6.6967  -15.8556   25.0107 C   0  0  0  0  0  0  0  0  0  0  0  0
    7.2835  -15.0751   26.1266 C   0  0  0  0  0  0  0  0  0  0  0  0
    8.1721  -15.4685   27.1043 C   0  0  0  0  0  0  0  0  0  0  0  0
    8.3940  -14.4026   27.8767 N   0  0  0  0  0  0  0  0  0  0  0  0
    7.7038  -13.3365   27.4621 C   0  0  0  0  0  0  0  0  0  0  0  0
    7.5901  -12.0210   27.9111 C   0  0  0  0  0  0  0  0  0  0  0  0
    6.7863  -11.0945   27.2857 C   0  0  0  0  0  0  0  0  0  0  0  0
    6.0766  -11.5035   26.1767 C   0  0  0  0  0  0  0  0  0  0  0  0
    6.1912  -12.8020   25.7367 C   0  0  0  0  0  0  0  0  0  0  0  0
    6.9940  -13.7384   26.3564 C   0  0  0  0  0  0  0  0  0  0  0  0
    7.4091  -16.4913   22.7404 C   0  0  0  0  0  0  0  0  0  0  0  0
    6.3348  -17.0867   22.4075 O   0  0  0  0  0  0  0  0  0  0  0  0
    8.6693  -14.1158   19.5564 O   0  0  0  0  0  0  0  0  0  0  0  0
    7.6750  -15.0731   19.4692 C   0  0  0  0  0  0  0  0  0  0  0  0
    7.9824  -16.3232   20.2858 C   0  0  2  0  0  0  0  0  0  0  0  0
    8.1825  -15.9415   21.6973 N   0  0  0  0  0  0  0  0  0  0  0  0
    9.1363  -17.0604   19.7749 C   0  0  0  0  0  0  0  0  0  0  0  0
   10.2588  -16.9403   20.3676 O   0  0  0  0  0  0  0  0  0  0  0  0
    9.0634  -17.9080   18.6451 N   0  0  0  0  0  0  0  0  0  0  0  0
   10.1948  -18.7141   18.2081 C   0  0  0  0  0  0  0  0  0  0  0  0
   10.9104  -17.9139   17.1656 C   0  0  0  0  0  0  0  0  0  0  0  0
   12.0713  -18.4567   16.6386 O   0  0  0  0  0  0  0  0  0  0  0  0
   10.4924  -16.7895   16.7683 O   0  0  0  0  0  0  0  0  0  0  0  0
  2  1  1  6
  2  3  1  0
  2 13  1  0
  3  4  1  0
  4  5  2  0
  6  5  1  0
  7  6  1  0
  8  7  2  0
  9  8  1  0
 10  9  2  0
 10 11  1  0
 11 12  2  0
 12  7  1  0
 12  4  1  0
 13 14  2  0
 16 15  1  0
 17 16  1  6
 18 13  1  0
 18 17  1  0
 19 17  1  0
 19 20  2  0
 21 19  1  0
 22 21  1  0
 22 23  1  0
 23 24  1  0
 25 23  2  0
M  END
$$$$
