QKF.pdb
     RDKit          3D

 30 30  0  0  1  0  0  0  0  0999 V2000
   21.1160  -20.6856  -16.0593 N   0  0  0  0  0  0  0  0  0  0  0  0
   20.5618  -20.1224  -17.2533 C   0  0  0  0  0  0  0  0  0  0  0  0
   20.5893  -18.8690  -17.3363 O   0  0  0  0  0  0  0  0  0  0  0  0
   20.0099  -21.0101  -18.2827 C   0  0  0  0  0  0  0  0  0  0  0  0
   20.6846  -20.9275  -19.6109 C   0  0  0  0  0  0  0  0  0  0  0  0
   21.4295  -22.1578  -20.0175 C   0  0  2  0  0  0  0  0  0  0  0  0
   20.5653  -23.3083  -20.1444 N   0  0  0  0  0  0  0  0  0  0  0  0
   22.5577  -22.4536  -19.0687 C   0  0  0  0  0  0  0  0  0  0  0  0
   22.3854  -23.3584  -18.1996 O   0  0  0  0  0  0  0  0  0  0  0  0
   23.7652  -21.7603  -19.1312 N   0  0  0  0  0  0  0  0  0  0  0  0
   24.8553  -22.1187  -18.1862 C   0  0  1  0  0  0  0  0  0  0  0  0
   26.0887  -21.4138  -18.6292 C   0  0  0  0  0  0  0  0  0  0  0  0
   27.3432  -21.6479  -17.8654 C   0  0  0  0  0  0  0  0  0  0  0  0
   27.6856  -23.1326  -17.7616 C   0  0  0  0  0  0  0  0  0  0  0  0
   28.9553  -23.2445  -16.9392 C   0  0  0  0  0  0  0  0  0  0  0  0
   29.1420  -24.6607  -16.6515 N   0  0  0  0  0  0  0  0  0  0  0  0
   24.4622  -21.6142  -16.8351 C   0  0  0  0  0  0  0  0  0  0  0  0
   23.8716  -20.4823  -16.7691 O   0  0  0  0  0  0  0  0  0  0  0  0
   24.7143  -22.3371  -15.6547 N   0  0  0  0  0  0  0  0  0  0  0  0
   24.4867  -21.7911  -14.3223 C   0  0  1  0  0  0  0  0  0  0  0  0
   25.0277  -22.6532  -13.2482 C   0  0  0  0  0  0  0  0  0  0  0  0
   24.8800  -22.0076  -11.9359 C   0  0  0  0  0  0  0  0  0  0  0  0
   23.7071  -21.9654  -11.2203 C   0  0  0  0  0  0  0  0  0  0  0  0
   23.5891  -21.3527   -9.9842 C   0  0  0  0  0  0  0  0  0  0  0  0
   24.7273  -20.7601   -9.4669 C   0  0  0  0  0  0  0  0  0  0  0  0
   25.9208  -20.7734  -10.1384 C   0  0  0  0  0  0  0  0  0  0  0  0
   25.9937  -21.3911  -11.3595 C   0  0  0  0  0  0  0  0  0  0  0  0
   24.8697  -20.3815  -14.3109 C   0  0  0  0  0  0  0  0  0  0  0  0
   24.0774  -19.4436  -13.6817 O   0  0  0  0  0  0  0  0  0  0  0  0
   25.9133  -19.9879  -14.8621 O   0  0  0  0  0  0  0  0  0  0  0  0
  2  1  1  0
  3  2  2  0
  4  2  1  0
  5  6  1  0
  5  4  1  0
  6  8  1  0
  6  7  1  1
  8  9  2  0
 10 11  1  0
 10  8  1  0
 11 12  1  6
 13 12  1  0
 13 14  1  0
 15 14  1  0
 16 15  1  0
 17 18  2  0
 17 11  1  0
 19 17  1  0
 20 19  1  0
 20 21  1  1
 21 22  1  0
 22 23  2  0
 23 24  1  0
 25 24  2  0
 26 25  1  0
 27 26  2  0
 27 22  1  0
 28 20  1  0
 29 28  1  0
 30 28  2  0
M  END
$$$$
