QKF.pdb
     RDKit          3D

 30 30  0  0  1  0  0  0  0  0999 V2000
   23.0775  -24.6813  -14.0382 N   0  0  0  0  0  0  0  0  0  0  0  0
   23.4714  -23.3129  -13.8886 C   0  0  0  0  0  0  0  0  0  0  0  0
   22.8398  -22.6479  -13.0298 O   0  0  0  0  0  0  0  0  0  0  0  0
   24.5564  -22.7781  -14.7186 C   0  0  0  0  0  0  0  0  0  0  0  0
   25.2330  -23.7816  -15.5911 C   0  0  0  0  0  0  0  0  0  0  0  0
   26.3521  -23.2424  -16.4221 C   0  0  2  0  0  0  0  0  0  0  0  0
   25.9400  -22.1295  -17.2457 N   0  0  0  0  0  0  0  0  0  0  0  0
   26.9728  -24.3182  -17.2695 C   0  0  0  0  0  0  0  0  0  0  0  0
   26.4170  -24.6064  -18.3702 O   0  0  0  0  0  0  0  0  0  0  0  0
   28.1272  -24.9884  -16.8686 N   0  0  0  0  0  0  0  0  0  0  0  0
   28.6851  -26.0545  -17.7416 C   0  0  1  0  0  0  0  0  0  0  0  0
   30.1580  -26.0870  -17.5317 C   0  0  0  0  0  0  0  0  0  0  0  0
   30.9451  -27.1296  -18.2426 C   0  0  0  0  0  0  0  0  0  0  0  0
   32.4391  -27.0276  -17.9427 C   0  0  0  0  0  0  0  0  0  0  0  0
   33.1424  -28.0557  -18.8084 C   0  0  0  0  0  0  0  0  0  0  0  0
   34.5719  -27.8758  -18.5908 N   0  0  0  0  0  0  0  0  0  0  0  0
   28.0984  -27.3544  -17.2937 C   0  0  0  0  0  0  0  0  0  0  0  0
   28.0926  -27.6065  -16.0405 O   0  0  0  0  0  0  0  0  0  0  0  0
   27.5578  -28.2906  -18.1942 N   0  0  0  0  0  0  0  0  0  0  0  0
   26.9122  -29.5259  -17.7668 C   0  0  1  0  0  0  0  0  0  0  0  0
   25.6735  -29.2886  -16.9930 C   0  0  0  0  0  0  0  0  0  0  0  0
   24.9793  -30.5546  -16.7171 C   0  0  0  0  0  0  0  0  0  0  0  0
   25.2378  -31.3605  -15.6340 C   0  0  0  0  0  0  0  0  0  0  0  0
   24.5713  -32.5497  -15.3914 C   0  0  0  0  0  0  0  0  0  0  0  0
   23.5995  -32.9212  -16.3035 C   0  0  0  0  0  0  0  0  0  0  0  0
   23.3028  -32.1550  -17.3993 C   0  0  0  0  0  0  0  0  0  0  0  0
   23.9867  -30.9849  -17.6016 C   0  0  0  0  0  0  0  0  0  0  0  0
   26.8315  -30.4412  -18.9023 C   0  0  0  0  0  0  0  0  0  0  0  0
   26.9712  -31.8015  -18.7191 O   0  0  0  0  0  0  0  0  0  0  0  0
   26.6346  -30.0257  -20.0583 O   0  0  0  0  0  0  0  0  0  0  0  0
  2  1  1  0
  3  2  2  0
  4  2  1  0
  5  6  1  0
  5  4  1  0
  6  8  1  0
  6  7  1  6
  8  9  2  0
 10 11  1  0
 10  8  1  0
 11 12  1  1
 13 12  1  0
 13 14  1  0
 15 14  1  0
 16 15  1  0
 17 18  2  0
 17 11  1  0
 19 17  1  0
 20 19  1  0
 20 21  1  6
 21 22  1  0
 22 23  2  0
 23 24  1  0
 25 24  2  0
 26 25  1  0
 27 26  2  0
 27 22  1  0
 28 20  1  0
 29 28  1  0
 30 28  2  0
M  END
$$$$
