QKF.pdb
     RDKit          3D

 30 30  0  0  1  0  0  0  0  0999 V2000
   20.2461  -16.1336  -13.9063 N   0  0  0  0  0  0  0  0  0  0  0  0
   19.4619  -17.3087  -14.1394 C   0  0  0  0  0  0  0  0  0  0  0  0
   19.1364  -17.5266  -15.3333 O   0  0  0  0  0  0  0  0  0  0  0  0
   19.0929  -18.1677  -13.0088 C   0  0  0  0  0  0  0  0  0  0  0  0
   20.1290  -19.1660  -12.6140 C   0  0  0  0  0  0  0  0  0  0  0  0
   20.3245  -20.2883  -13.5816 C   0  0  2  0  0  0  0  0  0  0  0  0
   19.2167  -21.2153  -13.5809 N   0  0  0  0  0  0  0  0  0  0  0  0
   21.6149  -21.0155  -13.3233 C   0  0  0  0  0  0  0  0  0  0  0  0
   21.6324  -21.8959  -12.4132 O   0  0  0  0  0  0  0  0  0  0  0  0
   22.7678  -20.7399  -14.0565 N   0  0  0  0  0  0  0  0  0  0  0  0
   24.0176  -21.4827  -13.7463 C   0  0  1  0  0  0  0  0  0  0  0  0
   24.8658  -21.4724  -14.9690 C   0  0  0  0  0  0  0  0  0  0  0  0
   26.1839  -22.1592  -14.9142 C   0  0  0  0  0  0  0  0  0  0  0  0
   26.9104  -22.1188  -16.2569 C   0  0  0  0  0  0  0  0  0  0  0  0
   28.2610  -22.7799  -16.0571 C   0  0  0  0  0  0  0  0  0  0  0  0
   28.9775  -22.6538  -17.3196 N   0  0  0  0  0  0  0  0  0  0  0  0
   24.7217  -20.7411  -12.6561 C   0  0  0  0  0  0  0  0  0  0  0  0
   24.7586  -19.4653  -12.7292 O   0  0  0  0  0  0  0  0  0  0  0  0
   25.3309  -21.3935  -11.5685 N   0  0  0  0  0  0  0  0  0  0  0  0
   26.3025  -20.7472  -10.6946 C   0  0  1  0  0  0  0  0  0  0  0  0
   26.3963  -21.3903   -9.3653 C   0  0  0  0  0  0  0  0  0  0  0  0
   27.3131  -20.6472   -8.4890 C   0  0  0  0  0  0  0  0  0  0  0  0
   28.6526  -20.9250   -8.3542 C   0  0  0  0  0  0  0  0  0  0  0  0
   29.5000  -20.2116   -7.5234 C   0  0  0  0  0  0  0  0  0  0  0  0
   28.9420  -19.1703   -6.8033 C   0  0  0  0  0  0  0  0  0  0  0  0
   27.6136  -18.8515   -6.9006 C   0  0  0  0  0  0  0  0  0  0  0  0
   26.8100  -19.5836   -7.7351 C   0  0  0  0  0  0  0  0  0  0  0  0
   27.5465  -20.5410  -11.4318 C   0  0  0  0  0  0  0  0  0  0  0  0
   28.0278  -19.2674  -11.6548 O   0  0  0  0  0  0  0  0  0  0  0  0
   28.2045  -21.4990  -11.8756 O   0  0  0  0  0  0  0  0  0  0  0  0
  2  1  1  0
  3  2  2  0
  4  2  1  0
  5  6  1  0
  5  4  1  0
  6  8  1  0
  6  7  1  1
  8  9  2  0
 10 11  1  0
 10  8  1  0
 11 12  1  6
 13 12  1  0
 13 14  1  0
 15 14  1  0
 16 15  1  0
 17 18  2  0
 17 11  1  0
 19 17  1  0
 20 19  1  0
 20 21  1  1
 21 22  1  0
 22 23  2  0
 23 24  1  0
 25 24  2  0
 26 25  1  0
 27 26  2  0
 27 22  1  0
 28 20  1  0
 29 28  1  0
 30 28  2  0
M  END
$$$$
