QKF.pdb
     RDKit          3D

 30 30  0  0  1  0  0  0  0  0999 V2000
   27.2435  -17.5827  -18.5319 N   0  0  0  0  0  0  0  0  0  0  0  0
   26.8527  -17.8796  -19.8769 C   0  0  0  0  0  0  0  0  0  0  0  0
   27.5783  -17.3960  -20.7816 O   0  0  0  0  0  0  0  0  0  0  0  0
   25.6649  -18.7060  -20.1189 C   0  0  0  0  0  0  0  0  0  0  0  0
   24.9368  -19.1346  -18.8892 C   0  0  0  0  0  0  0  0  0  0  0  0
   25.7421  -19.9532  -17.9325 C   0  0  2  0  0  0  0  0  0  0  0  0
   26.4968  -20.9912  -18.5954 N   0  0  0  0  0  0  0  0  0  0  0  0
   24.8769  -20.5437  -16.8538 C   0  0  0  0  0  0  0  0  0  0  0  0
   24.1432  -21.5320  -17.1510 O   0  0  0  0  0  0  0  0  0  0  0  0
   24.8716  -20.0290  -15.5586 N   0  0  0  0  0  0  0  0  0  0  0  0
   23.9887  -20.6502  -14.5366 C   0  0  1  0  0  0  0  0  0  0  0  0
   24.5938  -20.3965  -13.2009 C   0  0  0  0  0  0  0  0  0  0  0  0
   23.8884  -20.9193  -12.0005 C   0  0  0  0  0  0  0  0  0  0  0  0
   24.6894  -20.6964  -10.7194 C   0  0  0  0  0  0  0  0  0  0  0  0
   23.8302  -21.1728   -9.5636 C   0  0  0  0  0  0  0  0  0  0  0  0
   24.6357  -21.0277   -8.3581 N   0  0  0  0  0  0  0  0  0  0  0  0
   22.6631  -19.9637  -14.6114 C   0  0  0  0  0  0  0  0  0  0  0  0
   22.6481  -18.6866  -14.5552 O   0  0  0  0  0  0  0  0  0  0  0  0
   21.4525  -20.6684  -14.7439 N   0  0  0  0  0  0  0  0  0  0  0  0
   20.1489  -20.0160  -14.7619 C   0  0  1  0  0  0  0  0  0  0  0  0
   19.4334  -20.1975  -16.0443 C   0  0  0  0  0  0  0  0  0  0  0  0
   19.9492  -19.2745  -17.0655 C   0  0  0  0  0  0  0  0  0  0  0  0
   19.3912  -18.0531  -17.3593 C   0  0  0  0  0  0  0  0  0  0  0  0
   19.8934  -17.1973  -18.3251 C   0  0  0  0  0  0  0  0  0  0  0  0
   21.0161  -17.6196  -19.0145 C   0  0  0  0  0  0  0  0  0  0  0  0
   21.6111  -18.8268  -18.7610 C   0  0  0  0  0  0  0  0  0  0  0  0
   21.0815  -19.6436  -17.7965 C   0  0  0  0  0  0  0  0  0  0  0  0
   19.4289  -20.3517  -13.5361 C   0  0  0  0  0  0  0  0  0  0  0  0
   18.4773  -19.4944  -13.0234 O   0  0  0  0  0  0  0  0  0  0  0  0
   19.6489  -21.4121  -12.9237 O   0  0  0  0  0  0  0  0  0  0  0  0
  2  1  1  0
  3  2  2  0
  4  2  1  0
  5  6  1  0
  5  4  1  0
  6  8  1  0
  6  7  1  6
  8  9  2  0
 10 11  1  0
 10  8  1  0
 11 12  1  1
 13 12  1  0
 13 14  1  0
 15 14  1  0
 16 15  1  0
 17 18  2  0
 17 11  1  0
 19 17  1  0
 20 19  1  0
 20 21  1  6
 21 22  1  0
 22 23  2  0
 23 24  1  0
 25 24  2  0
 26 25  1  0
 27 26  2  0
 27 22  1  0
 28 20  1  0
 29 28  1  0
 30 28  2  0
M  END
$$$$
