QKF.pdb
     RDKit          3D

 30 30  0  0  1  0  0  0  0  0999 V2000
   27.4014  -16.7634  -15.3640 N   0  0  0  0  0  0  0  0  0  0  0  0
   27.6234  -16.4761  -16.7490 C   0  0  0  0  0  0  0  0  0  0  0  0
   28.4090  -15.5273  -16.9965 O   0  0  0  0  0  0  0  0  0  0  0  0
   26.9441  -17.2791  -17.7718 C   0  0  0  0  0  0  0  0  0  0  0  0
   26.0599  -18.3567  -17.2396 C   0  0  0  0  0  0  0  0  0  0  0  0
   26.2603  -19.7012  -17.8608 C   0  0  2  0  0  0  0  0  0  0  0  0
   26.2836  -19.6433  -19.3039 N   0  0  0  0  0  0  0  0  0  0  0  0
   25.2199  -20.6810  -17.3937 C   0  0  0  0  0  0  0  0  0  0  0  0
   24.0949  -20.6799  -17.9751 O   0  0  0  0  0  0  0  0  0  0  0  0
   25.4713  -21.5716  -16.3515 N   0  0  0  0  0  0  0  0  0  0  0  0
   24.3714  -22.4454  -15.8650 C   0  0  1  0  0  0  0  0  0  0  0  0
   24.9332  -23.8077  -15.6577 C   0  0  0  0  0  0  0  0  0  0  0  0
   25.4243  -24.5525  -16.8477 C   0  0  0  0  0  0  0  0  0  0  0  0
   25.9881  -25.9227  -16.4770 C   0  0  0  0  0  0  0  0  0  0  0  0
   26.4688  -26.5729  -17.7604 C   0  0  0  0  0  0  0  0  0  0  0  0
   27.0228  -27.8684  -17.3890 N   0  0  0  0  0  0  0  0  0  0  0  0
   23.9127  -21.9002  -14.5509 C   0  0  0  0  0  0  0  0  0  0  0  0
   24.7701  -21.8193  -13.6061 O   0  0  0  0  0  0  0  0  0  0  0  0
   22.5897  -21.4767  -14.3278 N   0  0  0  0  0  0  0  0  0  0  0  0
   22.0698  -21.1513  -13.0052 C   0  0  1  0  0  0  0  0  0  0  0  0
   22.6931  -19.9413  -12.4248 C   0  0  0  0  0  0  0  0  0  0  0  0
   23.5723  -20.2945  -11.3010 C   0  0  0  0  0  0  0  0  0  0  0  0
   23.1444  -20.4664  -10.0061 C   0  0  0  0  0  0  0  0  0  0  0  0
   23.9893  -20.8003   -8.9612 C   0  0  0  0  0  0  0  0  0  0  0  0
   25.3291  -20.9631   -9.2657 C   0  0  0  0  0  0  0  0  0  0  0  0
   25.8079  -20.8036  -10.5389 C   0  0  0  0  0  0  0  0  0  0  0  0
   24.9369  -20.4729  -11.5438 C   0  0  0  0  0  0  0  0  0  0  0  0
   20.6105  -21.2071  -13.0377 C   0  0  0  0  0  0  0  0  0  0  0  0
   19.9452  -21.5113  -14.2074 O   0  0  0  0  0  0  0  0  0  0  0  0
   19.9297  -20.9853  -12.0203 O   0  0  0  0  0  0  0  0  0  0  0  0
  2  1  1  0
  3  2  2  0
  4  2  1  0
  5  6  1  0
  5  4  1  0
  6  8  1  0
  6  7  1  6
  8  9  2  0
 10 11  1  0
 10  8  1  0
 11 12  1  1
 13 12  1  0
 13 14  1  0
 15 14  1  0
 16 15  1  0
 17 18  2  0
 17 11  1  0
 19 17  1  0
 20 19  1  0
 20 21  1  6
 21 22  1  0
 22 23  2  0
 23 24  1  0
 25 24  2  0
 26 25  1  0
 27 26  2  0
 27 22  1  0
 28 20  1  0
 29 28  1  0
 30 28  2  0
M  END
$$$$
