QKF.pdb
     RDKit          3D

 30 30  0  0  1  0  0  0  0  0999 V2000
   28.4502  -20.9453  -15.2602 N   0  0  0  0  0  0  0  0  0  0  0  0
   29.0090  -19.8659  -16.0170 C   0  0  0  0  0  0  0  0  0  0  0  0
   29.7303  -20.1919  -16.9929 O   0  0  0  0  0  0  0  0  0  0  0  0
   28.7186  -18.4822  -15.6256 C   0  0  0  0  0  0  0  0  0  0  0  0
   27.8107  -18.3392  -14.4503 C   0  0  0  0  0  0  0  0  0  0  0  0
   26.4250  -18.8597  -14.6567 C   0  0  2  0  0  0  0  0  0  0  0  0
   25.7002  -18.1140  -15.6593 N   0  0  0  0  0  0  0  0  0  0  0  0
   25.6529  -18.8885  -13.3669 C   0  0  0  0  0  0  0  0  0  0  0  0
   25.1349  -17.8082  -12.9567 O   0  0  0  0  0  0  0  0  0  0  0  0
   25.5027  -20.0631  -12.6319 N   0  0  0  0  0  0  0  0  0  0  0  0
   24.7303  -20.0286  -11.3622 C   0  0  1  0  0  0  0  0  0  0  0  0
   23.6196  -21.0118  -11.4809 C   0  0  0  0  0  0  0  0  0  0  0  0
   22.6572  -20.8507  -12.6034 C   0  0  0  0  0  0  0  0  0  0  0  0
   21.5145  -21.8615  -12.5316 C   0  0  0  0  0  0  0  0  0  0  0  0
   21.1955  -22.2807  -13.9541 C   0  0  0  0  0  0  0  0  0  0  0  0
   20.0493  -23.1771  -13.8772 N   0  0  0  0  0  0  0  0  0  0  0  0
   25.6499  -20.4597  -10.2654 C   0  0  0  0  0  0  0  0  0  0  0  0
   26.2794  -21.5626  -10.4130 O   0  0  0  0  0  0  0  0  0  0  0  0
   25.8435  -19.6991   -9.0977 N   0  0  0  0  0  0  0  0  0  0  0  0
   26.6665  -20.1488   -7.9815 C   0  0  1  0  0  0  0  0  0  0  0  0
   27.5131  -19.0720   -7.4218 C   0  0  0  0  0  0  0  0  0  0  0  0
   28.1735  -19.5158   -6.1858 C   0  0  0  0  0  0  0  0  0  0  0  0
   29.2762  -20.3355   -6.1473 C   0  0  0  0  0  0  0  0  0  0  0  0
   29.8845  -20.7414   -4.9715 C   0  0  0  0  0  0  0  0  0  0  0  0
   29.3321  -20.2827   -3.7889 C   0  0  0  0  0  0  0  0  0  0  0  0
   28.2340  -19.4643   -3.7710 C   0  0  0  0  0  0  0  0  0  0  0  0
   27.6628  -19.0864   -4.9579 C   0  0  0  0  0  0  0  0  0  0  0  0
   25.8352  -20.9051   -7.0484 C   0  0  0  0  0  0  0  0  0  0  0  0
   26.3960  -21.8541   -6.2188 O   0  0  0  0  0  0  0  0  0  0  0  0
   24.6078  -20.7170   -6.9732 O   0  0  0  0  0  0  0  0  0  0  0  0
  2  1  1  0
  3  2  2  0
  4  2  1  0
  5  6  1  0
  5  4  1  0
  6  8  1  0
  6  7  1  6
  8  9  2  0
 10 11  1  0
 10  8  1  0
 11 12  1  6
 13 12  1  0
 13 14  1  0
 15 14  1  0
 16 15  1  0
 17 18  2  0
 17 11  1  0
 19 17  1  0
 20 19  1  0
 20 21  1  1
 21 22  1  0
 22 23  2  0
 23 24  1  0
 25 24  2  0
 26 25  1  0
 27 26  2  0
 27 22  1  0
 28 20  1  0
 29 28  1  0
 30 28  2  0
M  END
$$$$
