QKF.pdb
     RDKit          3D

 30 30  0  0  1  0  0  0  0  0999 V2000
   28.0545  -23.2761  -23.6932 N   0  0  0  0  0  0  0  0  0  0  0  0
   29.4853  -23.2805  -23.6392 C   0  0  0  0  0  0  0  0  0  0  0  0
   30.0645  -22.3732  -24.2872 O   0  0  0  0  0  0  0  0  0  0  0  0
   30.1760  -24.3104  -22.8552 C   0  0  0  0  0  0  0  0  0  0  0  0
   29.2879  -25.1471  -21.9965 C   0  0  0  0  0  0  0  0  0  0  0  0
   29.9978  -26.1400  -21.1339 C   0  0  2  0  0  0  0  0  0  0  0  0
   31.0766  -26.8023  -21.8297 N   0  0  0  0  0  0  0  0  0  0  0  0
   29.0432  -27.1526  -20.5648 C   0  0  0  0  0  0  0  0  0  0  0  0
   28.6114  -28.0632  -21.3316 O   0  0  0  0  0  0  0  0  0  0  0  0
   28.6355  -27.1040  -19.2329 N   0  0  0  0  0  0  0  0  0  0  0  0
   27.6898  -28.1336  -18.7274 C   0  0  1  0  0  0  0  0  0  0  0  0
   28.1158  -28.5025  -17.3501 C   0  0  0  0  0  0  0  0  0  0  0  0
   27.3294  -29.5366  -16.6259 C   0  0  0  0  0  0  0  0  0  0  0  0
   27.9892  -30.9124  -16.6917 C   0  0  0  0  0  0  0  0  0  0  0  0
   27.1013  -31.8736  -15.9243 C   0  0  0  0  0  0  0  0  0  0  0  0
   27.7995  -33.1521  -15.8942 N   0  0  0  0  0  0  0  0  0  0  0  0
   26.3338  -27.5074  -18.6688 C   0  0  0  0  0  0  0  0  0  0  0  0
   26.1993  -26.4377  -17.9819 O   0  0  0  0  0  0  0  0  0  0  0  0
   25.2211  -28.0483  -19.3389 N   0  0  0  0  0  0  0  0  0  0  0  0
   23.8906  -27.4554  -19.2806 C   0  0  1  0  0  0  0  0  0  0  0  0
   23.1750  -27.5220  -20.5741 C   0  0  0  0  0  0  0  0  0  0  0  0
   21.8214  -26.9622  -20.4517 C   0  0  0  0  0  0  0  0  0  0  0  0
   21.4972  -25.6526  -20.7150 C   0  0  0  0  0  0  0  0  0  0  0  0
   20.2147  -25.1449  -20.5946 C   0  0  0  0  0  0  0  0  0  0  0  0
   19.2280  -26.0245  -20.1860 C   0  0  0  0  0  0  0  0  0  0  0  0
   19.4969  -27.3389  -19.9109 C   0  0  0  0  0  0  0  0  0  0  0  0
   20.7805  -27.8002  -20.0431 C   0  0  0  0  0  0  0  0  0  0  0  0
   23.1938  -27.9583  -18.0994 C   0  0  0  0  0  0  0  0  0  0  0  0
   22.4820  -27.1011  -17.2859 O   0  0  0  0  0  0  0  0  0  0  0  0
   23.2198  -29.1643  -17.7949 O   0  0  0  0  0  0  0  0  0  0  0  0
  2  1  1  0
  3  2  2  0
  4  2  1  0
  5  6  1  0
  5  4  1  0
  6  8  1  0
  6  7  1  6
  8  9  2  0
 10 11  1  0
 10  8  1  0
 11 12  1  1
 13 12  1  0
 13 14  1  0
 15 14  1  0
 16 15  1  0
 17 18  2  0
 17 11  1  0
 19 17  1  0
 20 19  1  0
 20 21  1  6
 21 22  1  0
 22 23  2  0
 23 24  1  0
 25 24  2  0
 26 25  1  0
 27 26  2  0
 27 22  1  0
 28 20  1  0
 29 28  1  0
 30 28  2  0
M  END
$$$$
