QKF.pdb
     RDKit          3D

 30 30  0  0  1  0  0  0  0  0999 V2000
   21.3220  -22.0216  -16.0150 N   0  0  0  0  0  0  0  0  0  0  0  0
   21.2802  -22.4339  -17.3855 C   0  0  0  0  0  0  0  0  0  0  0  0
   22.1563  -21.9382  -18.1376 O   0  0  0  0  0  0  0  0  0  0  0  0
   20.2505  -23.3824  -17.8240 C   0  0  0  0  0  0  0  0  0  0  0  0
   19.2946  -23.8079  -16.7604 C   0  0  0  0  0  0  0  0  0  0  0  0
   19.7580  -24.9513  -15.9167 C   0  0  2  0  0  0  0  0  0  0  0  0
   20.0657  -26.1250  -16.7004 N   0  0  0  0  0  0  0  0  0  0  0  0
   18.7549  -25.2848  -14.8475 C   0  0  0  0  0  0  0  0  0  0  0  0
   17.7039  -25.9044  -15.1870 O   0  0  0  0  0  0  0  0  0  0  0  0
   18.9614  -24.9290  -13.5159 N   0  0  0  0  0  0  0  0  0  0  0  0
   17.9382  -25.2957  -12.5017 C   0  0  1  0  0  0  0  0  0  0  0  0
   18.6390  -25.9675  -11.3738 C   0  0  0  0  0  0  0  0  0  0  0  0
   19.2765  -27.2867  -11.6300 C   0  0  0  0  0  0  0  0  0  0  0  0
   19.9207  -27.8686  -10.3735 C   0  0  0  0  0  0  0  0  0  0  0  0
   20.6046  -29.1611  -10.7766 C   0  0  0  0  0  0  0  0  0  0  0  0
   21.2253  -29.6973   -9.5723 N   0  0  0  0  0  0  0  0  0  0  0  0
   17.3208  -24.0272  -12.0078 C   0  0  0  0  0  0  0  0  0  0  0  0
   18.0992  -23.1256  -11.5435 O   0  0  0  0  0  0  0  0  0  0  0  0
   15.9331  -23.7978  -12.0420 N   0  0  0  0  0  0  0  0  0  0  0  0
   15.3128  -22.5864  -11.5194 C   0  0  1  0  0  0  0  0  0  0  0  0
   14.7079  -21.7482  -12.5781 C   0  0  0  0  0  0  0  0  0  0  0  0
   15.7377  -21.2456  -13.4988 C   0  0  0  0  0  0  0  0  0  0  0  0
   16.5816  -20.1970  -13.2203 C   0  0  0  0  0  0  0  0  0  0  0  0
   17.5466  -19.7393  -14.1016 C   0  0  0  0  0  0  0  0  0  0  0  0
   17.6437  -20.3903  -15.3185 C   0  0  0  0  0  0  0  0  0  0  0  0
   16.8277  -21.4403  -15.6462 C   0  0  0  0  0  0  0  0  0  0  0  0
   15.8858  -21.8615  -14.7444 C   0  0  0  0  0  0  0  0  0  0  0  0
   14.4745  -22.9337  -10.3747 C   0  0  0  0  0  0  0  0  0  0  0  0
   13.8092  -21.9530   -9.6684 O   0  0  0  0  0  0  0  0  0  0  0  0
   14.3352  -24.1138  -10.0064 O   0  0  0  0  0  0  0  0  0  0  0  0
  2  1  1  0
  3  2  2  0
  4  2  1  0
  5  6  1  0
  5  4  1  0
  6  8  1  0
  6  7  1  6
  8  9  2  0
 10 11  1  0
 10  8  1  0
 11 12  1  1
 13 12  1  0
 13 14  1  0
 15 14  1  0
 16 15  1  0
 17 18  2  0
 17 11  1  0
 19 17  1  0
 20 19  1  0
 20 21  1  6
 21 22  1  0
 22 23  2  0
 23 24  1  0
 25 24  2  0
 26 25  1  0
 27 26  2  0
 27 22  1  0
 28 20  1  0
 29 28  1  0
 30 28  2  0
M  END
$$$$
