QKF.pdb
     RDKit          3D

 30 30  0  0  1  0  0  0  0  0999 V2000
   21.4340  -16.0056  -16.5038 N   0  0  0  0  0  0  0  0  0  0  0  0
   20.7350  -16.9181  -15.6502 C   0  0  0  0  0  0  0  0  0  0  0  0
   19.6617  -17.3870  -16.1051 O   0  0  0  0  0  0  0  0  0  0  0  0
   21.2914  -17.2465  -14.3330 C   0  0  0  0  0  0  0  0  0  0  0  0
   21.8375  -18.6294  -14.2089 C   0  0  0  0  0  0  0  0  0  0  0  0
   23.1594  -18.8473  -14.8715 C   0  0  2  0  0  0  0  0  0  0  0  0
   23.0298  -19.1090  -16.2863 N   0  0  0  0  0  0  0  0  0  0  0  0
   23.9312  -19.9516  -14.2042 C   0  0  0  0  0  0  0  0  0  0  0  0
   23.3668  -21.0770  -14.0682 O   0  0  0  0  0  0  0  0  0  0  0  0
   25.2320  -19.7578  -13.7429 N   0  0  0  0  0  0  0  0  0  0  0  0
   25.9548  -20.8957  -13.1162 C   0  0  1  0  0  0  0  0  0  0  0  0
   27.2623  -21.0400  -13.8119 C   0  0  0  0  0  0  0  0  0  0  0  0
   27.4127  -22.1398  -14.8017 C   0  0  0  0  0  0  0  0  0  0  0  0
   28.8005  -22.1549  -15.4392 C   0  0  0  0  0  0  0  0  0  0  0  0
   28.7659  -23.1689  -16.5669 C   0  0  0  0  0  0  0  0  0  0  0  0
   30.0831  -23.1447  -17.1895 N   0  0  0  0  0  0  0  0  0  0  0  0
   26.1988  -20.5392  -11.6852 C   0  0  0  0  0  0  0  0  0  0  0  0
   26.5333  -19.3345  -11.4188 O   0  0  0  0  0  0  0  0  0  0  0  0
   26.0693  -21.4725  -10.6403 N   0  0  0  0  0  0  0  0  0  0  0  0
   26.4546  -21.1857   -9.2638 C   0  0  1  0  0  0  0  0  0  0  0  0
   27.5182  -20.1616   -9.1666 C   0  0  0  0  0  0  0  0  0  0  0  0
   27.8675  -19.9029   -7.7624 C   0  0  0  0  0  0  0  0  0  0  0  0
   28.6504  -20.7302   -6.9930 C   0  0  0  0  0  0  0  0  0  0  0  0
   28.9688  -20.4676   -5.6713 C   0  0  0  0  0  0  0  0  0  0  0  0
   28.4585  -19.3045   -5.1226 C   0  0  0  0  0  0  0  0  0  0  0  0
   27.6734  -18.4457   -5.8450 C   0  0  0  0  0  0  0  0  0  0  0  0
   27.3825  -18.7439   -7.1505 C   0  0  0  0  0  0  0  0  0  0  0  0
   25.2504  -20.9836   -8.4621 C   0  0  0  0  0  0  0  0  0  0  0  0
   24.1265  -20.4065   -9.0163 O   0  0  0  0  0  0  0  0  0  0  0  0
   25.2019  -21.3240   -7.2664 O   0  0  0  0  0  0  0  0  0  0  0  0
  2  1  1  0
  3  2  2  0
  4  2  1  0
  5  6  1  0
  5  4  1  0
  6  8  1  0
  6  7  1  6
  8  9  2  0
 10 11  1  0
 10  8  1  0
 11 12  1  6
 13 12  1  0
 13 14  1  0
 15 14  1  0
 16 15  1  0
 17 18  2  0
 17 11  1  0
 19 17  1  0
 20 19  1  0
 20 21  1  6
 21 22  1  0
 22 23  2  0
 23 24  1  0
 25 24  2  0
 26 25  1  0
 27 26  2  0
 27 22  1  0
 28 20  1  0
 29 28  1  0
 30 28  2  0
M  END
$$$$
