QLI.pdb
     RDKit          3D

 26 25  0  0  1  0  0  0  0  0999 V2000
    8.5328  -18.5676   17.1634 N   0  0  0  0  0  0  0  0  0  0  0  0
    9.7309  -18.7576   17.8830 C   0  0  0  0  0  0  0  0  0  0  0  0
   10.0131  -19.9523   18.2226 O   0  0  0  0  0  0  0  0  0  0  0  0
   10.6416  -17.6815   18.2454 C   0  0  0  0  0  0  0  0  0  0  0  0
   10.2067  -16.7477   19.3173 C   0  0  0  0  0  0  0  0  0  0  0  0
    9.7637  -17.4068   20.5981 C   0  0  2  0  0  0  0  0  0  0  0  0
    8.4373  -17.9203   20.4626 N   0  0  0  0  0  0  0  0  0  0  0  0
    9.8677  -16.4191   21.7315 C   0  0  0  0  0  0  0  0  0  0  0  0
   10.9355  -15.8302   22.0240 O   0  0  0  0  0  0  0  0  0  0  0  0
    7.7960  -12.3722   24.7247 C   0  0  0  0  0  0  0  0  0  0  0  0
    7.3511  -13.7491   25.1520 C   0  0  1  0  0  0  0  0  0  0  0  0
    5.8675  -13.5994   25.5278 C   0  0  0  0  0  0  0  0  0  0  0  0
    7.4111  -14.7746   24.0924 C   0  0  0  0  0  0  0  0  0  0  0  0
    8.7479  -15.3324   23.7289 C   0  0  2  0  0  0  0  0  0  0  0  0
    8.7175  -16.1239   22.5179 N   0  0  0  0  0  0  0  0  0  0  0  0
    9.5270  -15.9185   24.8198 C   0  0  0  0  0  0  0  0  0  0  0  0
   10.4443  -16.7304   24.5755 O   0  0  0  0  0  0  0  0  0  0  0  0
   11.0289  -13.5699   30.3071 C   0  0  0  0  0  0  0  0  0  0  0  0
   11.2687  -14.5803   29.2201 C   0  0  0  0  0  0  0  0  0  0  0  0
   10.2232  -14.4767   28.1196 C   0  0  2  0  0  0  0  0  0  0  0  0
    8.8681  -14.5510   28.7825 C   0  0  0  0  0  0  0  0  0  0  0  0
   10.3375  -15.6150   27.1406 C   0  0  2  0  0  0  0  0  0  0  0  0
    9.2503  -15.5717   26.1631 N   0  0  0  0  0  0  0  0  0  0  0  0
   10.3287  -16.8840   27.9003 C   0  0  0  0  0  0  0  0  0  0  0  0
   11.3138  -17.1984   28.6406 O   0  0  0  0  0  0  0  0  0  0  0  0
    9.2466  -17.7522   27.8163 O   0  0  0  0  0  0  0  0  0  0  0  0
  2  1  1  0
  3  2  2  0
  4  2  1  0
  5  4  1  0
  6  8  1  0
  6  5  1  0
  6  7  1  6
  8  9  2  0
 11 10  1  6
 12 11  1  0
 14 13  1  1
 13 11  1  0
 15 14  1  0
 15  8  1  0
 16 17  2  0
 16 14  1  0
 18 19  1  0
 19 20  1  0
 20 22  1  0
 20 21  1  1
 22 24  1  0
 22 23  1  6
 23 16  1  0
 24 26  1  0
 25 24  2  0
M  END
$$$$
