QLI.pdb
     RDKit          3D

 26 25  0  0  1  0  0  0  0  0999 V2000
   14.4600  -19.3348   19.3233 N   0  0  0  0  0  0  0  0  0  0  0  0
   13.7075  -18.9610   18.1906 C   0  0  0  0  0  0  0  0  0  0  0  0
   13.8318  -19.6894   17.1531 O   0  0  0  0  0  0  0  0  0  0  0  0
   12.8138  -17.8128   18.1501 C   0  0  0  0  0  0  0  0  0  0  0  0
   12.5807  -17.0809   19.4229 C   0  0  0  0  0  0  0  0  0  0  0  0
   11.5612  -17.7044   20.3410 C   0  0  2  0  0  0  0  0  0  0  0  0
   10.4116  -18.1205   19.6016 N   0  0  0  0  0  0  0  0  0  0  0  0
   11.2018  -16.7254   21.4289 C   0  0  0  0  0  0  0  0  0  0  0  0
   12.0632  -16.1306   22.1195 O   0  0  0  0  0  0  0  0  0  0  0  0
    6.3451  -13.8940   21.1289 C   0  0  0  0  0  0  0  0  0  0  0  0
    7.7759  -14.3233   21.3405 C   0  0  1  0  0  0  0  0  0  0  0  0
    8.5831  -13.0179   21.4354 C   0  0  0  0  0  0  0  0  0  0  0  0
    8.0215  -15.0575   22.5969 C   0  0  0  0  0  0  0  0  0  0  0  0
    9.3786  -15.6412   22.8162 C   0  0  2  0  0  0  0  0  0  0  0  0
    9.8324  -16.4457   21.7022 N   0  0  0  0  0  0  0  0  0  0  0  0
    9.6298  -16.2276   24.1328 C   0  0  0  0  0  0  0  0  0  0  0  0
    9.6339  -17.4678   24.2815 O   0  0  0  0  0  0  0  0  0  0  0  0
    9.5473  -13.0699   28.9115 C   0  0  0  0  0  0  0  0  0  0  0  0
    9.2830  -14.0575   27.8092 C   0  0  0  0  0  0  0  0  0  0  0  0
   10.4757  -14.9743   27.5820 C   0  0  2  0  0  0  0  0  0  0  0  0
   11.6126  -14.1132   27.0848 C   0  0  0  0  0  0  0  0  0  0  0  0
   10.1783  -16.0189   26.5392 C   0  0  2  0  0  0  0  0  0  0  0  0
    9.8712  -15.3964   25.2518 N   0  0  0  0  0  0  0  0  0  0  0  0
    9.0510  -16.8472   27.0196 C   0  0  0  0  0  0  0  0  0  0  0  0
    9.1980  -17.6159   28.0220 O   0  0  0  0  0  0  0  0  0  0  0  0
    7.8161  -16.8001   26.3836 O   0  0  0  0  0  0  0  0  0  0  0  0
  2  1  1  0
  3  2  2  0
  4  2  1  0
  5  4  1  0
  6  8  1  0
  6  5  1  0
  6  7  1  6
  8  9  2  0
 11 10  1  1
 12 11  1  0
 14 13  1  6
 13 11  1  0
 15 14  1  0
 15  8  1  0
 16 17  2  0
 16 14  1  0
 18 19  1  0
 19 20  1  0
 20 22  1  0
 20 21  1  6
 22 24  1  0
 22 23  1  6
 23 16  1  0
 24 26  1  0
 25 24  2  0
M  END
$$$$
