QLI.pdb
     RDKit          3D

 26 25  0  0  1  0  0  0  0  0999 V2000
   12.5467  -15.5769   17.5602 N   0  0  0  0  0  0  0  0  0  0  0  0
   11.3333  -16.2770   17.3975 C   0  0  0  0  0  0  0  0  0  0  0  0
   10.9053  -16.4144   16.2058 O   0  0  0  0  0  0  0  0  0  0  0  0
   10.5651  -16.8403   18.4981 C   0  0  0  0  0  0  0  0  0  0  0  0
   11.0762  -16.6157   19.8760 C   0  0  0  0  0  0  0  0  0  0  0  0
   10.2914  -17.2966   20.9675 C   0  0  2  0  0  0  0  0  0  0  0  0
    8.9935  -17.6626   20.4954 N   0  0  0  0  0  0  0  0  0  0  0  0
   10.2140  -16.3899   22.1688 C   0  0  0  0  0  0  0  0  0  0  0  0
   11.2115  -15.7852   22.6292 O   0  0  0  0  0  0  0  0  0  0  0  0
    7.7164  -12.5057   24.9418 C   0  0  0  0  0  0  0  0  0  0  0  0
    7.2558  -13.8940   25.3119 C   0  0  1  0  0  0  0  0  0  0  0  0
    5.7381  -13.7752   25.5291 C   0  0  0  0  0  0  0  0  0  0  0  0
    7.4479  -14.9101   24.2591 C   0  0  0  0  0  0  0  0  0  0  0  0
    8.8140  -15.4857   24.0785 C   0  0  2  0  0  0  0  0  0  0  0  0
    8.9657  -16.1940   22.8257 N   0  0  0  0  0  0  0  0  0  0  0  0
    9.3914  -16.1674   25.2370 C   0  0  0  0  0  0  0  0  0  0  0  0
    9.6388  -17.3910   25.1914 O   0  0  0  0  0  0  0  0  0  0  0  0
    9.9768  -13.2148   29.9674 C   0  0  0  0  0  0  0  0  0  0  0  0
   10.3660  -13.9323   28.7049 C   0  0  0  0  0  0  0  0  0  0  0  0
   10.1388  -15.4321   28.8213 C   0  0  2  0  0  0  0  0  0  0  0  0
   11.1329  -15.9575   29.8298 C   0  0  0  0  0  0  0  0  0  0  0  0
   10.3777  -16.1302   27.5089 C   0  0  2  0  0  0  0  0  0  0  0  0
    9.6763  -15.4483   26.4215 N   0  0  0  0  0  0  0  0  0  0  0  0
    9.9312  -17.5340   27.6411 C   0  0  0  0  0  0  0  0  0  0  0  0
    8.6920  -17.8197   27.6286 O   0  0  0  0  0  0  0  0  0  0  0  0
   10.8567  -18.5613   27.7823 O   0  0  0  0  0  0  0  0  0  0  0  0
  2  1  1  0
  3  2  2  0
  4  2  1  0
  5  4  1  0
  6  8  1  0
  6  5  1  0
  6  7  1  6
  8  9  2  0
 11 10  1  6
 12 11  1  0
 14 13  1  1
 13 11  1  0
 15 14  1  0
 15  8  1  0
 16 17  2  0
 16 14  1  0
 18 19  1  0
 19 20  1  0
 20 22  1  0
 20 21  1  1
 22 24  1  0
 22 23  1  6
 23 16  1  0
 24 26  1  0
 25 24  2  0
M  END
$$$$
