QLI.pdb
     RDKit          3D

 26 25  0  0  1  0  0  0  0  0999 V2000
    9.8511  -20.7689   18.3703 N   0  0  0  0  0  0  0  0  0  0  0  0
    9.8407  -20.5451   19.7628 C   0  0  0  0  0  0  0  0  0  0  0  0
    8.7184  -20.6595   20.3540 O   0  0  0  0  0  0  0  0  0  0  0  0
   11.0221  -20.2012   20.5404 C   0  0  0  0  0  0  0  0  0  0  0  0
   10.9749  -18.9495   21.3410 C   0  0  0  0  0  0  0  0  0  0  0  0
   11.0290  -17.6752   20.5384 C   0  0  2  0  0  0  0  0  0  0  0  0
   12.3495  -17.4554   20.0388 N   0  0  0  0  0  0  0  0  0  0  0  0
   10.5554  -16.5260   21.3906 C   0  0  0  0  0  0  0  0  0  0  0  0
   11.3100  -15.9092   22.1799 O   0  0  0  0  0  0  0  0  0  0  0  0
    6.5199  -13.1386   19.5218 C   0  0  0  0  0  0  0  0  0  0  0  0
    7.7468  -13.6979   20.1986 C   0  0  1  0  0  0  0  0  0  0  0  0
    8.6399  -12.4812   20.4931 C   0  0  0  0  0  0  0  0  0  0  0  0
    7.4924  -14.3521   21.4968 C   0  0  0  0  0  0  0  0  0  0  0  0
    8.6227  -15.0744   22.1534 C   0  0  2  0  0  0  0  0  0  0  0  0
    9.1978  -16.1027   21.3132 N   0  0  0  0  0  0  0  0  0  0  0  0
    8.4201  -15.4700   23.5472 C   0  0  0  0  0  0  0  0  0  0  0  0
    8.4052  -16.6779   23.8653 O   0  0  0  0  0  0  0  0  0  0  0  0
    5.8727  -12.0584   27.2831 C   0  0  0  0  0  0  0  0  0  0  0  0
    6.5634  -12.8641   26.2183 C   0  0  0  0  0  0  0  0  0  0  0  0
    7.6598  -13.7415   26.8039 C   0  0  2  0  0  0  0  0  0  0  0  0
    8.9063  -12.8942   26.9001 C   0  0  0  0  0  0  0  0  0  0  0  0
    7.9541  -14.9226   25.9176 C   0  0  2  0  0  0  0  0  0  0  0  0
    8.2394  -14.4888   24.5502 N   0  0  0  0  0  0  0  0  0  0  0  0
    6.7926  -15.8373   25.9613 C   0  0  0  0  0  0  0  0  0  0  0  0
    5.9399  -15.8411   25.0179 O   0  0  0  0  0  0  0  0  0  0  0  0
    6.6141  -16.7046   27.0326 O   0  0  0  0  0  0  0  0  0  0  0  0
  2  1  1  0
  3  2  2  0
  4  2  1  0
  5  4  1  0
  6  8  1  0
  6  5  1  0
  6  7  1  1
  8  9  2  0
 11 10  1  1
 12 11  1  0
 14 13  1  6
 13 11  1  0
 15 14  1  0
 15  8  1  0
 16 17  2  0
 16 14  1  0
 18 19  1  0
 19 20  1  0
 20 22  1  0
 20 21  1  6
 22 24  1  0
 22 23  1  6
 23 16  1  0
 24 26  1  0
 25 24  2  0
M  END
$$$$
