QLI.pdb
     RDKit          3D

 26 25  0  0  1  0  0  0  0  0999 V2000
   15.6635  -16.8637   19.3863 N   0  0  0  0  0  0  0  0  0  0  0  0
   14.9536  -17.8588   18.6828 C   0  0  0  0  0  0  0  0  0  0  0  0
   15.6455  -18.6919   18.0124 O   0  0  0  0  0  0  0  0  0  0  0  0
   13.5031  -17.9803   18.6874 C   0  0  0  0  0  0  0  0  0  0  0  0
   12.7371  -17.0127   19.5163 C   0  0  0  0  0  0  0  0  0  0  0  0
   11.6713  -17.6229   20.3897 C   0  0  2  0  0  0  0  0  0  0  0  0
   10.6131  -18.1533   19.5895 N   0  0  0  0  0  0  0  0  0  0  0  0
   11.1703  -16.5888   21.3648 C   0  0  0  0  0  0  0  0  0  0  0  0
   11.9305  -15.9607   22.1396 O   0  0  0  0  0  0  0  0  0  0  0  0
    6.2031  -14.0091   20.3907 C   0  0  0  0  0  0  0  0  0  0  0  0
    7.6361  -14.2677   20.7858 C   0  0  1  0  0  0  0  0  0  0  0  0
    8.2611  -12.8769   20.9849 C   0  0  0  0  0  0  0  0  0  0  0  0
    7.8048  -14.9871   22.0632 C   0  0  0  0  0  0  0  0  0  0  0  0
    9.1759  -15.4478   22.4349 C   0  0  2  0  0  0  0  0  0  0  0  0
    9.7785  -16.2933   21.4269 N   0  0  0  0  0  0  0  0  0  0  0  0
    9.3548  -15.9167   23.8091 C   0  0  0  0  0  0  0  0  0  0  0  0
    9.6045  -17.1188   24.0388 O   0  0  0  0  0  0  0  0  0  0  0  0
    9.1369  -12.0372   27.8235 C   0  0  0  0  0  0  0  0  0  0  0  0
    9.7214  -13.1310   26.9737 C   0  0  0  0  0  0  0  0  0  0  0  0
    9.0749  -14.4759   27.2706 C   0  0  2  0  0  0  0  0  0  0  0  0
    9.5771  -14.9241   28.6227 C   0  0  0  0  0  0  0  0  0  0  0  0
    9.4639  -15.5127   26.2505 C   0  0  2  0  0  0  0  0  0  0  0  0
    9.2475  -15.0136   24.8927 N   0  0  0  0  0  0  0  0  0  0  0  0
    8.6737  -16.7364   26.5069 C   0  0  0  0  0  0  0  0  0  0  0  0
    9.1066  -17.6272   27.3047 O   0  0  0  0  0  0  0  0  0  0  0  0
    7.4487  -16.9327   25.8804 O   0  0  0  0  0  0  0  0  0  0  0  0
  2  1  1  0
  3  2  2  0
  4  2  1  0
  5  4  1  0
  6  8  1  0
  6  5  1  0
  6  7  1  6
  8  9  2  0
 11 10  1  1
 12 11  1  0
 14 13  1  6
 13 11  1  0
 15 14  1  0
 15  8  1  0
 16 17  2  0
 16 14  1  0
 18 19  1  0
 19 20  1  0
 20 22  1  0
 20 21  1  1
 22 24  1  0
 22 23  1  6
 23 16  1  0
 24 26  1  0
 25 24  2  0
M  END
$$$$
