RRL.pdb
     RDKit          3D

 31 30  0  0  1  0  0  0  0  0999 V2000
   27.3650  -31.6947  -14.9367 N   0  0  0  0  0  0  0  0  0  0  0  0
   27.8732  -31.8242  -16.2536 C   0  0  0  0  0  0  0  0  0  0  0  0
   29.1613  -31.8205  -16.4743 N   0  0  0  0  0  0  0  0  0  0  0  0
   27.0162  -31.9634  -17.3885 N   0  0  0  0  0  0  0  0  0  0  0  0
   25.5811  -32.0474  -17.2184 C   0  0  0  0  0  0  0  0  0  0  0  0
   25.0446  -30.6798  -16.7826 C   0  0  0  0  0  0  0  0  0  0  0  0
   23.5566  -30.8368  -16.6556 C   0  0  0  0  0  0  0  0  0  0  0  0
   23.1664  -32.1279  -15.9614 C   0  0  2  0  0  0  0  0  0  0  0  0
   22.4204  -32.9994  -16.8156 N   0  0  0  0  0  0  0  0  0  0  0  0
   22.2932  -31.7176  -14.8321 C   0  0  0  0  0  0  0  0  0  0  0  0
   21.0626  -31.8696  -15.0046 O   0  0  0  0  0  0  0  0  0  0  0  0
   29.5219  -31.9250  -17.4469 N   0  0  0  0  0  0  0  0  0  0  0  0
   25.2067  -31.6655   -7.1073 C   0  0  0  0  0  0  0  0  0  0  0  0
   24.5109  -32.6501   -7.8634 N   0  0  0  0  0  0  0  0  0  0  0  0
   24.7135  -33.8857   -7.6367 N   0  0  0  0  0  0  0  0  0  0  0  0
   23.6005  -32.2243   -8.8592 C   0  0  0  0  0  0  0  0  0  0  0  0
   23.2671  -30.8205   -8.9220 C   0  0  0  0  0  0  0  0  0  0  0  0
   22.2504  -30.5442  -10.0379 C   0  0  0  0  0  0  0  0  0  0  0  0
   22.9145  -30.9203  -11.3258 C   0  0  1  0  0  0  0  0  0  0  0  0
   22.0489  -30.7991  -12.5347 N   0  0  0  0  0  0  0  0  0  0  0  0
   22.8734  -31.2001  -13.6702 C   0  0  0  0  0  0  0  0  0  0  0  0
   21.4359  -29.4828  -12.7369 O   0  0  0  0  0  0  0  0  0  0  0  0
   21.8933  -28.7759  -13.6760 C   0  0  0  0  0  0  0  0  0  0  0  0
   24.2324  -34.6310   -8.1790 C   0  0  1  0  0  0  0  0  0  0  0  0
   17.7470  -26.1188  -13.3784 C   0  0  0  0  0  0  0  0  0  0  0  0
   18.7779  -26.6142  -14.4568 C   0  0  0  0  0  0  0  0  0  0  0  0
   19.6654  -25.3896  -14.6400 C   0  0  2  0  0  0  0  0  0  0  0  0
   19.4321  -27.7743  -13.8181 N   0  0  0  0  0  0  0  0  0  0  0  0
   19.7722  -27.6704  -12.3789 C   0  0  0  0  0  0  0  0  0  0  0  0
   20.3784  -28.9608  -11.9678 O   0  0  0  0  0  0  0  0  0  0  0  0
   18.7351  -27.3145  -11.4255 O   0  0  0  0  0  0  0  0  0  0  0  0
  2  1  1  0
  3  2  2  0
  4  2  1  0
  5  4  1  0
  6  5  1  0
  7  6  1  0
  8  9  1  6
  8  7  1  0
 10  8  1  0
 10 11  2  0
 13 14  2  0
 13 12  1  0
 15 13  1  0
 15 16  1  0
 17 18  1  0
 17 16  1  0
 19 18  1  1
 19 20  1  0
 19 21  1  0
 20 10  1  0
 21 28  1  0
 21 22  2  0
 24 23  1  1
 24 25  1  0
 26 24  1  0
 27 26  1  1
 28 27  1  0
 29 30  1  0
 29 27  1  0
 31 29  2  0
M  END
$$$$
