RRL.pdb
     RDKit          3D

 31 30  0  0  1  0  0  0  0  0999 V2000
   19.5890  -23.3900   -7.0669 N   0  0  0  0  0  0  0  0  0  0  0  0
   18.9934  -22.7308   -8.1715 C   0  0  0  0  0  0  0  0  0  0  0  0
   17.7129  -22.8463   -8.4053 N   0  0  0  0  0  0  0  0  0  0  0  0
   19.7513  -21.9192   -9.0708 N   0  0  0  0  0  0  0  0  0  0  0  0
   21.1773  -22.1209   -9.2171 C   0  0  0  0  0  0  0  0  0  0  0  0
   21.9216  -20.9631   -8.5436 C   0  0  0  0  0  0  0  0  0  0  0  0
   22.6436  -20.2366   -9.6417 C   0  0  0  0  0  0  0  0  0  0  0  0
   23.8856  -20.9734  -10.1063 C   0  0  2  0  0  0  0  0  0  0  0  0
   24.9883  -20.7953   -9.2129 N   0  0  0  0  0  0  0  0  0  0  0  0
   24.2377  -20.3629  -11.4136 C   0  0  0  0  0  0  0  0  0  0  0  0
   24.6747  -19.1904  -11.3737 O   0  0  0  0  0  0  0  0  0  0  0  0
   17.3063  -22.4468   -9.2782 N   0  0  0  0  0  0  0  0  0  0  0  0
   27.1712  -24.9604  -16.1223 C   0  0  0  0  0  0  0  0  0  0  0  0
   26.5516  -23.8920  -16.8292 N   0  0  0  0  0  0  0  0  0  0  0  0
   25.9185  -24.1266  -17.9078 N   0  0  0  0  0  0  0  0  0  0  0  0
   26.6562  -22.5809  -16.3077 C   0  0  0  0  0  0  0  0  0  0  0  0
   27.3570  -22.3988  -15.0581 C   0  0  0  0  0  0  0  0  0  0  0  0
   26.5719  -21.4779  -14.1143 C   0  0  0  0  0  0  0  0  0  0  0  0
   25.1758  -21.4047  -14.6498 C   0  0  2  0  0  0  0  0  0  0  0  0
   24.2635  -20.4963  -13.8962 N   0  0  0  0  0  0  0  0  0  0  0  0
   24.0694  -21.1072  -12.5850 C   0  0  0  0  0  0  0  0  0  0  0  0
   22.9903  -20.1969  -14.5582 O   0  0  0  0  0  0  0  0  0  0  0  0
   21.9419  -20.3254  -13.8688 C   0  0  0  0  0  0  0  0  0  0  0  0
   25.5389  -23.3615  -18.5008 C   0  0  2  0  0  0  0  0  0  0  0  0
   21.6109  -15.4003  -14.4204 C   0  0  0  0  0  0  0  0  0  0  0  0
   21.1320  -16.8878  -14.5914 C   0  0  0  0  0  0  0  0  0  0  0  0
   19.8311  -16.7199  -15.3663 C   0  0  1  0  0  0  0  0  0  0  0  0
   22.2304  -17.5320  -15.3399 N   0  0  0  0  0  0  0  0  0  0  0  0
   21.8932  -18.6894  -16.2029 C   0  0  0  0  0  0  0  0  0  0  0  0
   22.8580  -19.7738  -15.8945 O   0  0  0  0  0  0  0  0  0  0  0  0
   21.8334  -18.5105  -17.6436 O   0  0  0  0  0  0  0  0  0  0  0  0
  2  1  1  0
  3  2  2  0
  4  2  1  0
  5  4  1  0
  6  5  1  0
  7  6  1  0
  8  9  1  1
  8  7  1  0
 10  8  1  0
 10 11  2  0
 13 14  2  0
 13 12  1  0
 15 13  1  0
 15 16  1  0
 17 18  1  0
 17 16  1  0
 19 18  1  1
 19 20  1  0
 19 21  1  0
 20 10  1  0
 21 28  1  0
 21 22  2  0
 24 23  1  6
 24 25  1  0
 26 24  1  0
 27 26  1  6
 28 27  1  0
 29 30  1  0
 29 27  1  0
 31 29  2  0
M  END
$$$$
