RRL.pdb
     RDKit          3D

 31 30  0  0  1  0  0  0  0  0999 V2000
   40.5772  -29.1388  -17.5978 N   0  0  0  0  0  0  0  0  0  0  0  0
   39.5131  -29.3017  -18.5199 C   0  0  0  0  0  0  0  0  0  0  0  0
   39.4517  -28.5723  -19.6026 N   0  0  0  0  0  0  0  0  0  0  0  0
   38.4702  -30.2570  -18.3157 N   0  0  0  0  0  0  0  0  0  0  0  0
   38.3836  -30.9944  -17.0730 C   0  0  0  0  0  0  0  0  0  0  0  0
   37.2442  -32.0143  -17.1707 C   0  0  0  0  0  0  0  0  0  0  0  0
   37.1879  -32.7056  -15.8389 C   0  0  0  0  0  0  0  0  0  0  0  0
   35.9256  -32.3741  -15.0657 C   0  0  2  0  0  0  0  0  0  0  0  0
   35.7936  -33.1613  -13.8788 N   0  0  0  0  0  0  0  0  0  0  0  0
   34.8053  -32.7126  -15.9801 C   0  0  0  0  0  0  0  0  0  0  0  0
   34.4310  -33.9072  -15.9732 O   0  0  0  0  0  0  0  0  0  0  0  0
   38.6425  -28.6738  -20.2520 N   0  0  0  0  0  0  0  0  0  0  0  0
   27.9608  -28.0712  -17.6160 C   0  0  0  0  0  0  0  0  0  0  0  0
   27.6099  -29.2714  -18.2954 N   0  0  0  0  0  0  0  0  0  0  0  0
   26.4030  -29.4749  -18.6435 N   0  0  0  0  0  0  0  0  0  0  0  0
   28.6246  -30.2184  -18.5702 C   0  0  0  0  0  0  0  0  0  0  0  0
   29.8875  -30.0825  -17.8828 C   0  0  0  0  0  0  0  0  0  0  0  0
   30.8660  -31.1877  -18.3025 C   0  0  0  0  0  0  0  0  0  0  0  0
   32.0936  -31.0150  -17.4632 C   0  0  2  0  0  0  0  0  0  0  0  0
   33.1720  -32.0134  -17.7193 N   0  0  0  0  0  0  0  0  0  0  0  0
   34.2431  -31.7098  -16.7756 C   0  0  0  0  0  0  0  0  0  0  0  0
   33.6563  -32.0716  -19.1018 O   0  0  0  0  0  0  0  0  0  0  0  0
   34.6085  -31.3033  -19.4082 C   0  0  0  0  0  0  0  0  0  0  0  0
   26.0974  -30.3716  -19.0721 C   0  0  2  0  0  0  0  0  0  0  0  0
   37.5458  -32.6565  -20.5633 C   0  0  0  0  0  0  0  0  0  0  0  0
   36.3342  -32.4162  -21.5356 C   0  0  0  0  0  0  0  0  0  0  0  0
   36.9353  -32.7653  -22.8912 C   0  0  1  0  0  0  0  0  0  0  0  0
   35.2968  -33.3485  -21.0495 N   0  0  0  0  0  0  0  0  0  0  0  0
   33.8839  -33.0434  -21.3788 C   0  0  0  0  0  0  0  0  0  0  0  0
   33.1422  -32.9217  -20.0995 O   0  0  0  0  0  0  0  0  0  0  0  0
   33.1504  -33.9325  -22.2635 O   0  0  0  0  0  0  0  0  0  0  0  0
  2  1  1  0
  3  2  2  0
  4  2  1  0
  5  4  1  0
  6  5  1  0
  7  6  1  0
  8  9  1  1
  8  7  1  0
 10  8  1  0
 10 11  2  0
 13 14  2  0
 13 12  1  0
 15 13  1  0
 15 16  1  0
 17 18  1  0
 17 16  1  0
 19 18  1  1
 19 20  1  0
 19 21  1  0
 20 10  1  0
 21 28  1  0
 21 22  2  0
 24 23  1  1
 24 25  1  0
 26 24  1  0
 27 26  1  6
 28 27  1  0
 29 30  1  0
 29 27  1  0
 31 29  2  0
M  END
$$$$
