RRL.pdb
     RDKit          3D

 31 30  0  0  1  0  0  0  0  0999 V2000
   19.5337  -23.1614   -6.8643 N   0  0  0  0  0  0  0  0  0  0  0  0
   18.9022  -23.2887   -8.1269 C   0  0  0  0  0  0  0  0  0  0  0  0
   17.9500  -24.1648   -8.3105 N   0  0  0  0  0  0  0  0  0  0  0  0
   19.2688  -22.4780   -9.2450 N   0  0  0  0  0  0  0  0  0  0  0  0
   19.9735  -21.2293   -9.0463 C   0  0  0  0  0  0  0  0  0  0  0  0
   21.4514  -21.5237   -8.7679 C   0  0  0  0  0  0  0  0  0  0  0  0
   22.2289  -20.7852   -9.8190 C   0  0  0  0  0  0  0  0  0  0  0  0
   23.7232  -21.0227   -9.7097 C   0  0  2  0  0  0  0  0  0  0  0  0
   24.2765  -20.4590   -8.5173 N   0  0  0  0  0  0  0  0  0  0  0  0
   24.3177  -20.3248  -10.8782 C   0  0  0  0  0  0  0  0  0  0  0  0
   24.6217  -19.1228  -10.7052 O   0  0  0  0  0  0  0  0  0  0  0  0
   17.5231  -24.2775   -9.2550 N   0  0  0  0  0  0  0  0  0  0  0  0
   28.3843  -18.7841  -17.3766 C   0  0  0  0  0  0  0  0  0  0  0  0
   28.2591  -20.2002  -17.3116 N   0  0  0  0  0  0  0  0  0  0  0  0
   28.4604  -20.9042  -18.3523 N   0  0  0  0  0  0  0  0  0  0  0  0
   27.9107  -20.7958  -16.0764 C   0  0  0  0  0  0  0  0  0  0  0  0
   27.7803  -19.9400  -14.9203 C   0  0  0  0  0  0  0  0  0  0  0  0
   27.5704  -20.7655  -13.6437 C   0  0  0  0  0  0  0  0  0  0  0  0
   26.1791  -21.3139  -13.7116 C   0  0  2  0  0  0  0  0  0  0  0  0
   25.1159  -20.3837  -13.2321 N   0  0  0  0  0  0  0  0  0  0  0  0
   24.5027  -21.0256  -12.0737 C   0  0  0  0  0  0  0  0  0  0  0  0
   24.1218  -19.9968  -14.2377 O   0  0  0  0  0  0  0  0  0  0  0  0
   23.1342  -20.7659  -14.3924 C   0  0  0  0  0  0  0  0  0  0  0  0
   28.3383  -21.9367  -18.3505 C   0  0  1  0  0  0  0  0  0  0  0  0
   20.0643  -17.5751  -15.6683 C   0  0  0  0  0  0  0  0  0  0  0  0
   21.2765  -16.7706  -16.2638 C   0  0  0  0  0  0  0  0  0  0  0  0
   20.8816  -15.3290  -15.9697 C   0  0  1  0  0  0  0  0  0  0  0  0
   22.4421  -17.2698  -15.5062 N   0  0  0  0  0  0  0  0  0  0  0  0
   23.0642  -18.5395  -15.9519 C   0  0  0  0  0  0  0  0  0  0  0  0
   24.1887  -18.8349  -15.0300 O   0  0  0  0  0  0  0  0  0  0  0  0
   23.5361  -18.6597  -17.3209 O   0  0  0  0  0  0  0  0  0  0  0  0
  2  1  1  0
  3  2  2  0
  4  2  1  0
  5  4  1  0
  6  5  1  0
  7  6  1  0
  8  9  1  1
  8  7  1  0
 10  8  1  0
 10 11  2  0
 13 14  2  0
 13 12  1  0
 15 13  1  0
 15 16  1  0
 17 18  1  0
 17 16  1  0
 19 18  1  1
 19 20  1  0
 19 21  1  0
 20 10  1  0
 21 28  1  0
 21 22  2  0
 24 23  1  1
 24 25  1  0
 26 24  1  0
 27 26  1  6
 28 27  1  0
 29 30  1  0
 29 27  1  0
 31 29  2  0
M  END
$$$$
