RRL.pdb
     RDKit          3D

 31 30  0  0  1  0  0  0  0  0999 V2000
   27.8070  -15.6233  -19.8646 N   0  0  0  0  0  0  0  0  0  0  0  0
   26.5803  -16.2861  -19.6091 C   0  0  0  0  0  0  0  0  0  0  0  0
   25.9135  -16.8519  -20.5802 N   0  0  0  0  0  0  0  0  0  0  0  0
   26.0199  -16.3680  -18.2971 N   0  0  0  0  0  0  0  0  0  0  0  0
   26.6071  -15.6273  -17.2008 C   0  0  0  0  0  0  0  0  0  0  0  0
   27.9142  -16.3056  -16.7773 C   0  0  0  0  0  0  0  0  0  0  0  0
   27.6838  -16.8238  -15.3870 C   0  0  0  0  0  0  0  0  0  0  0  0
   27.6532  -18.3394  -15.3300 C   0  0  2  0  0  0  0  0  0  0  0  0
   27.3562  -18.9244  -16.6010 N   0  0  0  0  0  0  0  0  0  0  0  0
   26.5525  -18.6744  -14.3907 C   0  0  0  0  0  0  0  0  0  0  0  0
   25.4855  -18.0379  -14.5438 O   0  0  0  0  0  0  0  0  0  0  0  0
   25.0303  -17.3657  -20.3732 N   0  0  0  0  0  0  0  0  0  0  0  0
   20.1977  -20.9876  -12.8312 C   0  0  0  0  0  0  0  0  0  0  0  0
   20.1935  -20.4266  -14.1390 N   0  0  0  0  0  0  0  0  0  0  0  0
   19.1378  -19.8799  -14.5925 N   0  0  0  0  0  0  0  0  0  0  0  0
   21.3780  -20.4914  -14.9102 C   0  0  0  0  0  0  0  0  0  0  0  0
   22.5232  -21.1653  -14.3443 C   0  0  0  0  0  0  0  0  0  0  0  0
   23.3664  -20.2032  -13.4966 C   0  0  0  0  0  0  0  0  0  0  0  0
   24.7150  -20.8353  -13.3445 C   0  0  2  0  0  0  0  0  0  0  0  0
   25.6811  -20.0564  -12.5166 N   0  0  0  0  0  0  0  0  0  0  0  0
   26.7586  -19.6544  -13.4152 C   0  0  0  0  0  0  0  0  0  0  0  0
   26.1857  -20.7475  -11.3263 O   0  0  0  0  0  0  0  0  0  0  0  0
   27.4005  -21.0870  -11.3327 C   0  0  0  0  0  0  0  0  0  0  0  0
   19.0941  -19.4771  -15.5501 C   0  0  2  0  0  0  0  0  0  0  0  0
   27.0203  -19.1828   -6.4364 C   0  0  0  0  0  0  0  0  0  0  0  0
   27.8228  -20.0952   -7.4337 C   0  0  0  0  0  0  0  0  0  0  0  0
   27.8773  -21.4206   -6.6846 C   0  0  2  0  0  0  0  0  0  0  0  0
   26.9959  -20.0988   -8.6576 N   0  0  0  0  0  0  0  0  0  0  0  0
   26.1200  -21.2708   -8.8968 C   0  0  0  0  0  0  0  0  0  0  0  0
   25.4183  -21.0498  -10.1853 O   0  0  0  0  0  0  0  0  0  0  0  0
   25.1432  -21.6477   -7.8893 O   0  0  0  0  0  0  0  0  0  0  0  0
  2  1  1  0
  3  2  2  0
  4  2  1  0
  5  4  1  0
  6  5  1  0
  7  6  1  0
  8  9  1  6
  8  7  1  0
 10  8  1  0
 10 11  2  0
 13 14  2  0
 13 12  1  0
 15 13  1  0
 15 16  1  0
 17 18  1  0
 17 16  1  0
 19 18  1  6
 19 20  1  0
 19 21  1  0
 20 10  1  0
 21 28  1  0
 21 22  2  0
 24 23  1  1
 24 25  1  0
 26 24  1  0
 27 26  1  1
 28 27  1  0
 29 30  1  0
 29 27  1  0
 31 29  2  0
M  END
$$$$
