RRL.pdb
     RDKit          3D

 31 30  0  0  1  0  0  0  0  0999 V2000
   32.9979  -23.9004  -15.0432 N   0  0  0  0  0  0  0  0  0  0  0  0
   33.3313  -23.7570  -13.6730 C   0  0  0  0  0  0  0  0  0  0  0  0
   34.5364  -24.0311  -13.2480 N   0  0  0  0  0  0  0  0  0  0  0  0
   32.3816  -23.3121  -12.7024 N   0  0  0  0  0  0  0  0  0  0  0  0
   31.1314  -22.7135  -13.1197 C   0  0  0  0  0  0  0  0  0  0  0  0
   31.4218  -21.5716  -14.0995 C   0  0  0  0  0  0  0  0  0  0  0  0
   30.2927  -20.5937  -13.9467 C   0  0  0  0  0  0  0  0  0  0  0  0
   28.9327  -21.2629  -14.0096 C   0  0  2  0  0  0  0  0  0  0  0  0
   28.4255  -21.3370  -15.3449 N   0  0  0  0  0  0  0  0  0  0  0  0
   28.0304  -20.3932  -13.2126 C   0  0  0  0  0  0  0  0  0  0  0  0
   28.0784  -19.1687  -13.4688 O   0  0  0  0  0  0  0  0  0  0  0  0
   34.7748  -23.8989  -12.2417 N   0  0  0  0  0  0  0  0  0  0  0  0
   23.9174  -23.0366  -14.7765 C   0  0  0  0  0  0  0  0  0  0  0  0
   22.7489  -23.3378  -14.0221 N   0  0  0  0  0  0  0  0  0  0  0  0
   22.1611  -24.4552  -14.1802 N   0  0  0  0  0  0  0  0  0  0  0  0
   22.2657  -22.3756  -13.1042 C   0  0  0  0  0  0  0  0  0  0  0  0
   23.0184  -21.1542  -12.9383 C   0  0  0  0  0  0  0  0  0  0  0  0
   24.3430  -21.4171  -12.2091 C   0  0  0  0  0  0  0  0  0  0  0  0
   25.0163  -20.0893  -12.0512 C   0  0  1  0  0  0  0  0  0  0  0  0
   26.3544  -20.1408  -11.3936 N   0  0  0  0  0  0  0  0  0  0  0  0
   27.1985  -20.9698  -12.2482 C   0  0  0  0  0  0  0  0  0  0  0  0
   26.3518  -20.6068  -10.0037 O   0  0  0  0  0  0  0  0  0  0  0  0
   26.1460  -21.8364   -9.8120 C   0  0  0  0  0  0  0  0  0  0  0  0
   21.3565  -24.7427  -13.5877 C   0  0  2  0  0  0  0  0  0  0  0  0
   29.0686  -19.0836   -4.8882 C   0  0  0  0  0  0  0  0  0  0  0  0
   27.9307  -20.0556   -5.3695 C   0  0  0  0  0  0  0  0  0  0  0  0
   26.7913  -19.7133   -4.4180 C   0  0  1  0  0  0  0  0  0  0  0  0
   27.7083  -19.6737   -6.7789 N   0  0  0  0  0  0  0  0  0  0  0  0
   26.6891  -20.4281   -7.5470 C   0  0  0  0  0  0  0  0  0  0  0  0
   26.5676  -19.7870   -8.8796 O   0  0  0  0  0  0  0  0  0  0  0  0
   25.3596  -20.6021   -6.9872 O   0  0  0  0  0  0  0  0  0  0  0  0
  2  1  1  0
  3  2  2  0
  4  2  1  0
  5  4  1  0
  6  5  1  0
  7  6  1  0
  8  9  1  6
  8  7  1  0
 10  8  1  0
 10 11  2  0
 13 14  2  0
 13 12  1  0
 15 13  1  0
 15 16  1  0
 17 18  1  0
 17 16  1  0
 19 18  1  6
 19 20  1  0
 19 21  1  0
 20 10  1  0
 21 28  1  0
 21 22  2  0
 24 23  1  1
 24 25  1  0
 26 24  1  0
 27 26  1  6
 28 27  1  0
 29 30  1  0
 29 27  1  0
 31 29  2  0
M  END
$$$$
