RRL.pdb
     RDKit          3D

 31 30  0  0  1  0  0  0  0  0999 V2000
   26.9008  -25.0361  -16.7910 N   0  0  0  0  0  0  0  0  0  0  0  0
   28.0779  -25.5225  -17.4131 C   0  0  0  0  0  0  0  0  0  0  0  0
   28.1235  -26.7357  -17.8970 N   0  0  0  0  0  0  0  0  0  0  0  0
   29.2557  -24.7234  -17.5408 N   0  0  0  0  0  0  0  0  0  0  0  0
   29.2574  -23.3439  -17.1022 C   0  0  0  0  0  0  0  0  0  0  0  0
   28.2942  -22.5356  -17.9781 C   0  0  0  0  0  0  0  0  0  0  0  0
   27.3114  -21.8982  -17.0387 C   0  0  0  0  0  0  0  0  0  0  0  0
   27.2778  -20.3874  -17.1711 C   0  0  2  0  0  0  0  0  0  0  0  0
   28.5194  -19.7822  -16.7995 N   0  0  0  0  0  0  0  0  0  0  0  0
   26.2314  -19.9334  -16.2199 C   0  0  0  0  0  0  0  0  0  0  0  0
   26.5939  -19.0986  -15.3603 O   0  0  0  0  0  0  0  0  0  0  0  0
   29.0164  -27.1056  -18.2879 N   0  0  0  0  0  0  0  0  0  0  0  0
   20.2570  -17.3269  -18.2867 C   0  0  0  0  0  0  0  0  0  0  0  0
   21.0950  -16.1857  -18.1438 N   0  0  0  0  0  0  0  0  0  0  0  0
   20.9954  -15.2177  -18.9637 N   0  0  0  0  0  0  0  0  0  0  0  0
   22.0280  -16.1563  -17.0805 C   0  0  0  0  0  0  0  0  0  0  0  0
   22.2530  -17.3744  -16.3379 C   0  0  0  0  0  0  0  0  0  0  0  0
   22.6740  -18.5189  -17.2696 C   0  0  0  0  0  0  0  0  0  0  0  0
   22.6762  -19.7666  -16.4423 C   0  0  2  0  0  0  0  0  0  0  0  0
   23.8444  -19.9069  -15.5251 N   0  0  0  0  0  0  0  0  0  0  0  0
   24.9352  -20.4452  -16.3315 C   0  0  0  0  0  0  0  0  0  0  0  0
   23.6028  -20.7073  -14.3209 O   0  0  0  0  0  0  0  0  0  0  0  0
   24.1738  -21.8301  -14.2551 C   0  0  0  0  0  0  0  0  0  0  0  0
   21.5931  -14.3701  -18.8900 C   0  0  2  0  0  0  0  0  0  0  0  0
   26.0828  -20.3553   -9.8736 C   0  0  0  0  0  0  0  0  0  0  0  0
   24.8363  -21.2519  -10.2105 C   0  0  0  0  0  0  0  0  0  0  0  0
   23.8792  -20.9120   -9.0751 C   0  0  1  0  0  0  0  0  0  0  0  0
   24.4145  -20.7880  -11.5479 N   0  0  0  0  0  0  0  0  0  0  0  0
   22.9921  -20.9675  -11.9251 C   0  0  0  0  0  0  0  0  0  0  0  0
   22.7915  -20.3112  -13.2406 O   0  0  0  0  0  0  0  0  0  0  0  0
   21.9516  -20.5207  -11.0145 O   0  0  0  0  0  0  0  0  0  0  0  0
  2  1  1  0
  3  2  2  0
  4  2  1  0
  5  4  1  0
  6  5  1  0
  7  6  1  0
  8  9  1  1
  8  7  1  0
 10  8  1  0
 10 11  2  0
 13 14  2  0
 13 12  1  0
 15 13  1  0
 15 16  1  0
 17 18  1  0
 17 16  1  0
 19 18  1  6
 19 20  1  0
 19 21  1  0
 20 10  1  0
 21 28  1  0
 21 22  2  0
 24 23  1  1
 24 25  1  0
 26 24  1  0
 27 26  1  1
 28 27  1  0
 29 30  1  0
 29 27  1  0
 31 29  2  0
M  END
$$$$
