RRL.pdb
     RDKit          3D

 31 30  0  0  1  0  0  0  0  0999 V2000
   17.3149  -25.1197  -13.7016 N   0  0  0  0  0  0  0  0  0  0  0  0
   18.6386  -25.0284  -14.2003 C   0  0  0  0  0  0  0  0  0  0  0  0
   19.3614  -26.1034  -14.3732 N   0  0  0  0  0  0  0  0  0  0  0  0
   19.2401  -23.7759  -14.5342 N   0  0  0  0  0  0  0  0  0  0  0  0
   19.8985  -22.9838  -13.5171 C   0  0  0  0  0  0  0  0  0  0  0  0
   19.5406  -21.5074  -13.7182 C   0  0  0  0  0  0  0  0  0  0  0  0
   20.6625  -20.9117  -14.5190 C   0  0  0  0  0  0  0  0  0  0  0  0
   21.9780  -20.9105  -13.7636 C   0  0  2  0  0  0  0  0  0  0  0  0
   21.9021  -20.1693  -12.5427 N   0  0  0  0  0  0  0  0  0  0  0  0
   22.9466  -20.2341  -14.6637 C   0  0  0  0  0  0  0  0  0  0  0  0
   22.8659  -18.9861  -14.7206 O   0  0  0  0  0  0  0  0  0  0  0  0
   20.3310  -26.0226  -14.7476 N   0  0  0  0  0  0  0  0  0  0  0  0
   30.2860  -23.5377  -16.1452 C   0  0  0  0  0  0  0  0  0  0  0  0
   29.4104  -23.1207  -17.1867 N   0  0  0  0  0  0  0  0  0  0  0  0
   29.5988  -23.5294  -18.3769 N   0  0  0  0  0  0  0  0  0  0  0  0
   28.3397  -22.2525  -16.8676 C   0  0  0  0  0  0  0  0  0  0  0  0
   28.1961  -21.8234  -15.4961 C   0  0  0  0  0  0  0  0  0  0  0  0
   27.0357  -20.8301  -15.3472 C   0  0  0  0  0  0  0  0  0  0  0  0
   26.0061  -21.2184  -16.3623 C   0  0  2  0  0  0  0  0  0  0  0  0
   24.7687  -20.3853  -16.3484 N   0  0  0  0  0  0  0  0  0  0  0  0
   23.8707  -21.0027  -15.3776 C   0  0  0  0  0  0  0  0  0  0  0  0
   24.1251  -20.1976  -17.6521 O   0  0  0  0  0  0  0  0  0  0  0  0
   22.9702  -20.6837  -17.7963 C   0  0  0  0  0  0  0  0  0  0  0  0
   28.9185  -23.3367  -19.1392 C   0  0  2  0  0  0  0  0  0  0  0  0
   21.0953  -16.4215  -18.8071 C   0  0  0  0  0  0  0  0  0  0  0  0
   21.4829  -17.9441  -18.8596 C   0  0  0  0  0  0  0  0  0  0  0  0
   21.2391  -18.2878  -20.3235 C   0  0  1  0  0  0  0  0  0  0  0  0
   22.8979  -17.9664  -18.4363 N   0  0  0  0  0  0  0  0  0  0  0  0
   23.9034  -18.4540  -19.4104 C   0  0  0  0  0  0  0  0  0  0  0  0
   24.6979  -19.5136  -18.7413 O   0  0  0  0  0  0  0  0  0  0  0  0
   24.8136  -17.5059  -20.0299 O   0  0  0  0  0  0  0  0  0  0  0  0
  2  1  1  0
  3  2  2  0
  4  2  1  0
  5  4  1  0
  6  5  1  0
  7  6  1  0
  8  9  1  1
  8  7  1  0
 10  8  1  0
 10 11  2  0
 13 14  2  0
 13 12  1  0
 15 13  1  0
 15 16  1  0
 17 18  1  0
 17 16  1  0
 19 18  1  1
 19 20  1  0
 19 21  1  0
 20 10  1  0
 21 28  1  0
 21 22  2  0
 24 23  1  6
 24 25  1  0
 26 24  1  0
 27 26  1  6
 28 27  1  0
 29 30  1  0
 29 27  1  0
 31 29  2  0
M  END
$$$$
