HAM.pdb
     RDKit          3D

 24 24  0  0  1  0  0  0  0  0999 V2000
   24.3062  -21.9479  -14.6613 N   0  0  0  0  0  0  0  0  0  0  0  0
   24.2658  -20.9879  -13.5420 C   0  0  1  0  0  0  0  0  0  0  0  0
   22.9766  -21.3014  -12.8149 C   0  0  0  0  0  0  0  0  0  0  0  0
   21.7774  -20.8087  -13.5023 C   0  0  0  0  0  0  0  0  0  0  0  0
   20.8791  -21.6536  -14.1507 C   0  0  0  0  0  0  0  0  0  0  0  0
   19.8933  -20.9489  -14.6823 N   0  0  0  0  0  0  0  0  0  0  0  0
   20.1294  -19.6550  -14.3936 C   0  0  0  0  0  0  0  0  0  0  0  0
   21.2767  -19.5820  -13.6765 N   0  0  0  0  0  0  0  0  0  0  0  0
   25.4016  -21.3579  -12.6485 C   0  0  0  0  0  0  0  0  0  0  0  0
   25.6779  -22.5445  -12.3323 O   0  0  0  0  0  0  0  0  0  0  0  0
   28.5796  -19.7850  -11.4813 C   0  0  0  0  0  0  0  0  0  0  0  0
   27.4188  -20.7358  -11.2515 C   0  0  2  0  0  0  0  0  0  0  0  0
   26.2762  -20.3687  -12.0755 N   0  0  0  0  0  0  0  0  0  0  0  0
   26.9798  -20.6728   -9.8380 C   0  0  0  0  0  0  0  0  0  0  0  0
   25.8456  -20.1990   -9.5896 O   0  0  0  0  0  0  0  0  0  0  0  0
   31.3422  -20.2803   -5.2528 C   0  0  0  0  0  0  0  0  0  0  0  0
   29.9819  -20.8240   -4.1755 S   0  0  0  0  0  0  0  0  0  0  0  0
   28.3942  -20.7117   -5.0879 C   0  0  0  0  0  0  0  0  0  0  0  0
   28.6334  -20.9973   -6.5557 C   0  0  0  0  0  0  0  0  0  0  0  0
   27.3943  -20.9214   -7.3937 C   0  0  2  0  0  0  0  0  0  0  0  0
   27.7882  -21.1241   -8.7682 N   0  0  0  0  0  0  0  0  0  0  0  0
   26.6533  -19.6560   -7.2636 C   0  0  0  0  0  0  0  0  0  0  0  0
   25.6459  -19.4387   -6.3376 O   0  0  0  0  0  0  0  0  0  0  0  0
   26.9309  -18.7059   -8.0230 O   0  0  0  0  0  0  0  0  0  0  0  0
  2  1  1  6
  3  2  1  0
  4  3  1  0
  4  5  2  0
  6  5  1  0
  7  6  1  0
  8  7  2  0
  8  4  1  0
  9  2  1  0
 10  9  2  0
 12 11  1  1
 12 13  1  0
 12 14  1  0
 13  9  1  0
 14 21  1  0
 15 14  2  0
 17 16  1  0
 18 17  1  0
 19 18  1  0
 20 19  1  1
 20 22  1  0
 21 20  1  0
 22 24  2  0
 22 23  1  0
M  END
$$$$
