HAM.pdb
     RDKit          3D

 24 24  0  0  1  0  0  0  0  0999 V2000
   18.4326  -11.4303  -19.1399 N   0  0  0  0  0  0  0  0  0  0  0  0
   17.8209  -10.7538  -17.9805 C   0  0  1  0  0  0  0  0  0  0  0  0
   18.1746  -11.6271  -16.7969 C   0  0  0  0  0  0  0  0  0  0  0  0
   17.4430  -12.8987  -16.7629 C   0  0  0  0  0  0  0  0  0  0  0  0
   16.0843  -12.9951  -17.0563 C   0  0  0  0  0  0  0  0  0  0  0  0
   15.6833  -14.2517  -16.9500 N   0  0  0  0  0  0  0  0  0  0  0  0
   16.7563  -14.9821  -16.5916 C   0  0  0  0  0  0  0  0  0  0  0  0
   17.8195  -14.1495  -16.4809 N   0  0  0  0  0  0  0  0  0  0  0  0
   18.5493   -9.4604  -17.8342 C   0  0  0  0  0  0  0  0  0  0  0  0
   19.7958   -9.3469  -17.9677 O   0  0  0  0  0  0  0  0  0  0  0  0
   17.6245   -5.7947  -17.4493 C   0  0  0  0  0  0  0  0  0  0  0  0
   18.5819   -6.9705  -17.3791 C   0  0  2  0  0  0  0  0  0  0  0  0
   17.8680   -8.2307  -17.5253 N   0  0  0  0  0  0  0  0  0  0  0  0
   19.2591   -6.9991  -16.0618 C   0  0  0  0  0  0  0  0  0  0  0  0
   18.8504   -7.8156  -15.2022 O   0  0  0  0  0  0  0  0  0  0  0  0
   24.3203  -10.4104  -12.5146 C   0  0  0  0  0  0  0  0  0  0  0  0
   23.2218   -9.9168  -13.8770 S   0  0  0  0  0  0  0  0  0  0  0  0
   22.7057   -8.1713  -13.6476 C   0  0  0  0  0  0  0  0  0  0  0  0
   21.7444   -7.7793  -14.7501 C   0  0  0  0  0  0  0  0  0  0  0  0
   21.1836   -6.3989  -14.5974 C   0  0  2  0  0  0  0  0  0  0  0  0
   20.3408   -6.1450  -15.7424 N   0  0  0  0  0  0  0  0  0  0  0  0
   22.2019   -5.3426  -14.4776 C   0  0  0  0  0  0  0  0  0  0  0  0
   22.8237   -4.9958  -13.2891 O   0  0  0  0  0  0  0  0  0  0  0  0
   22.5427   -4.7058  -15.4949 O   0  0  0  0  0  0  0  0  0  0  0  0
  2  1  1  6
  3  2  1  0
  4  3  1  0
  4  5  2  0
  6  5  1  0
  7  6  1  0
  8  7  2  0
  8  4  1  0
  9  2  1  0
 10  9  2  0
 12 11  1  1
 12 13  1  0
 12 14  1  0
 13  9  1  0
 14 21  1  0
 15 14  2  0
 17 16  1  0
 18 17  1  0
 19 18  1  0
 20 19  1  6
 20 22  1  0
 21 20  1  0
 22 24  2  0
 22 23  1  0
M  END
$$$$
