HAM.pdb
     RDKit          3D

 24 24  0  0  1  0  0  0  0  0999 V2000
   16.8507  -11.5146  -17.7304 N   0  0  0  0  0  0  0  0  0  0  0  0
   16.6494  -10.7895  -16.4616 C   0  0  1  0  0  0  0  0  0  0  0  0
   17.2848  -11.6730  -15.4106 C   0  0  0  0  0  0  0  0  0  0  0  0
   16.5511  -12.9203  -15.1669 C   0  0  0  0  0  0  0  0  0  0  0  0
   15.2276  -12.9440  -14.7319 C   0  0  0  0  0  0  0  0  0  0  0  0
   14.8156  -14.1940  -14.5944 N   0  0  0  0  0  0  0  0  0  0  0  0
   15.8467  -14.9915  -14.9320 C   0  0  0  0  0  0  0  0  0  0  0  0
   16.8956  -14.2067  -15.2780 N   0  0  0  0  0  0  0  0  0  0  0  0
   17.4635   -9.5445  -16.5719 C   0  0  0  0  0  0  0  0  0  0  0  0
   18.6232   -9.5144  -17.0602 O   0  0  0  0  0  0  0  0  0  0  0  0
   16.8832   -5.8215  -16.0691 C   0  0  0  0  0  0  0  0  0  0  0  0
   17.7550   -7.0491  -16.2622 C   0  0  2  0  0  0  0  0  0  0  0  0
   16.9729   -8.2687  -16.1206 N   0  0  0  0  0  0  0  0  0  0  0  0
   18.8187   -7.0868  -15.2317 C   0  0  0  0  0  0  0  0  0  0  0  0
   18.7329   -7.9453  -14.3217 O   0  0  0  0  0  0  0  0  0  0  0  0
   25.2585   -9.9789  -14.0143 C   0  0  0  0  0  0  0  0  0  0  0  0
   23.6410   -9.6414  -14.7734 S   0  0  0  0  0  0  0  0  0  0  0  0
   22.9777   -8.0580  -14.1260 C   0  0  0  0  0  0  0  0  0  0  0  0
   21.6639   -7.7429  -14.8102 C   0  0  0  0  0  0  0  0  0  0  0  0
   21.0747   -6.4268  -14.4052 C   0  0  2  0  0  0  0  0  0  0  0  0
   19.9178   -6.1959  -15.2382 N   0  0  0  0  0  0  0  0  0  0  0  0
   22.0048   -5.2905  -14.5091 C   0  0  0  0  0  0  0  0  0  0  0  0
   22.8861   -4.9154  -13.5080 O   0  0  0  0  0  0  0  0  0  0  0  0
   22.0190   -4.6075  -15.5530 O   0  0  0  0  0  0  0  0  0  0  0  0
  2  1  1  6
  3  2  1  0
  4  3  1  0
  4  5  2  0
  6  5  1  0
  7  6  1  0
  8  7  2  0
  8  4  1  0
  9  2  1  0
 10  9  2  0
 12 11  1  1
 12 13  1  0
 12 14  1  0
 13  9  1  0
 14 21  1  0
 15 14  2  0
 17 16  1  0
 18 17  1  0
 19 18  1  0
 20 19  1  6
 20 22  1  0
 21 20  1  0
 22 24  2  0
 22 23  1  0
M  END
$$$$
