HAM.pdb
     RDKit          3D

 24 24  0  0  1  0  0  0  0  0999 V2000
   18.3045   -9.7785  -13.8589 N   0  0  0  0  0  0  0  0  0  0  0  0
   19.0787   -8.6989  -13.2178 C   0  0  1  0  0  0  0  0  0  0  0  0
   19.8842   -8.0857  -14.3421 C   0  0  0  0  0  0  0  0  0  0  0  0
   20.9543   -8.9558  -14.8433 C   0  0  0  0  0  0  0  0  0  0  0  0
   22.2663   -8.8809  -14.3802 C   0  0  0  0  0  0  0  0  0  0  0  0
   23.0196   -9.7758  -14.9990 N   0  0  0  0  0  0  0  0  0  0  0  0
   22.2239  -10.4371  -15.8608 C   0  0  0  0  0  0  0  0  0  0  0  0
   20.9715   -9.9304  -15.7575 N   0  0  0  0  0  0  0  0  0  0  0  0
   18.0748   -7.6921  -12.7665 C   0  0  0  0  0  0  0  0  0  0  0  0
   17.0522   -7.3848  -13.4328 O   0  0  0  0  0  0  0  0  0  0  0  0
   17.3528   -5.7573   -9.5799 C   0  0  0  0  0  0  0  0  0  0  0  0
   17.2121   -6.0259  -11.0673 C   0  0  2  0  0  0  0  0  0  0  0  0
   18.2063   -6.9896  -11.5171 N   0  0  0  0  0  0  0  0  0  0  0  0
   17.4316   -4.7775  -11.8342 C   0  0  0  0  0  0  0  0  0  0  0  0
   18.6084   -4.4639  -12.1330 O   0  0  0  0  0  0  0  0  0  0  0  0
   14.5108    0.1448  -17.1726 C   0  0  0  0  0  0  0  0  0  0  0  0
   14.3342   -1.3263  -16.1184 S   0  0  0  0  0  0  0  0  0  0  0  0
   15.6538   -1.3299  -14.8439 C   0  0  0  0  0  0  0  0  0  0  0  0
   15.5536   -2.5941  -14.0161 C   0  0  0  0  0  0  0  0  0  0  0  0
   16.6175   -2.7139  -12.9688 C   0  0  2  0  0  0  0  0  0  0  0  0
   16.3695   -3.9343  -12.2375 N   0  0  0  0  0  0  0  0  0  0  0  0
   16.6819   -1.5741  -12.0393 C   0  0  0  0  0  0  0  0  0  0  0  0
   17.4497   -0.4409  -12.2535 O   0  0  0  0  0  0  0  0  0  0  0  0
   16.0130   -1.6071  -10.9867 O   0  0  0  0  0  0  0  0  0  0  0  0
  2  1  1  6
  3  2  1  0
  4  3  1  0
  4  5  2  0
  6  5  1  0
  7  6  1  0
  8  7  2  0
  8  4  1  0
  9  2  1  0
 10  9  2  0
 12 11  1  1
 12 13  1  0
 12 14  1  0
 13  9  1  0
 14 21  1  0
 15 14  2  0
 17 16  1  0
 18 17  1  0
 19 18  1  0
 20 19  1  6
 20 22  1  0
 21 20  1  0
 22 24  2  0
 22 23  1  0
M  END
$$$$
