HAM.pdb
     RDKit          3D

 24 24  0  0  1  0  0  0  0  0999 V2000
   26.0014  -18.5851  -16.9551 N   0  0  0  0  0  0  0  0  0  0  0  0
   26.3718  -18.2983  -15.5564 C   0  0  1  0  0  0  0  0  0  0  0  0
   26.8594  -16.8662  -15.5752 C   0  0  0  0  0  0  0  0  0  0  0  0
   27.9981  -16.6430  -16.4734 C   0  0  0  0  0  0  0  0  0  0  0  0
   29.2353  -17.2571  -16.2897 C   0  0  0  0  0  0  0  0  0  0  0  0
   30.0761  -16.8809  -17.2398 N   0  0  0  0  0  0  0  0  0  0  0  0
   29.4115  -16.0299  -18.0444 C   0  0  0  0  0  0  0  0  0  0  0  0
   28.1501  -15.8930  -17.5690 N   0  0  0  0  0  0  0  0  0  0  0  0
   25.0978  -18.3422  -14.7818 C   0  0  0  0  0  0  0  0  0  0  0  0
   24.1436  -17.5429  -14.9692 O   0  0  0  0  0  0  0  0  0  0  0  0
   23.6794  -21.0057  -15.0684 C   0  0  0  0  0  0  0  0  0  0  0  0
   23.7152  -20.2093  -13.7767 C   0  0  2  0  0  0  0  0  0  0  0  0
   24.8652  -19.3171  -13.7487 N   0  0  0  0  0  0  0  0  0  0  0  0
   23.8393  -21.1230  -12.6172 C   0  0  0  0  0  0  0  0  0  0  0  0
   22.9598  -22.0026  -12.4582 O   0  0  0  0  0  0  0  0  0  0  0  0
   27.4501  -18.5391   -8.0237 C   0  0  0  0  0  0  0  0  0  0  0  0
   27.1368  -20.1282   -7.1972 S   0  0  0  0  0  0  0  0  0  0  0  0
   25.7523  -20.9929   -8.0346 C   0  0  0  0  0  0  0  0  0  0  0  0
   25.8249  -20.7377   -9.5255 C   0  0  0  0  0  0  0  0  0  0  0  0
   24.7218  -21.3884  -10.3022 C   0  0  2  0  0  0  0  0  0  0  0  0
   24.9057  -21.0385  -11.6912 N   0  0  0  0  0  0  0  0  0  0  0  0
   23.3686  -21.0105   -9.8627 C   0  0  0  0  0  0  0  0  0  0  0  0
   22.5281  -21.8406   -9.1388 O   0  0  0  0  0  0  0  0  0  0  0  0
   22.9287  -19.8784  -10.1476 O   0  0  0  0  0  0  0  0  0  0  0  0
  2  1  1  6
  3  2  1  0
  4  3  1  0
  4  5  2  0
  6  5  1  0
  7  6  1  0
  8  7  2  0
  8  4  1  0
  9  2  1  0
 10  9  2  0
 12 11  1  6
 12 13  1  0
 12 14  1  0
 13  9  1  0
 14 21  1  0
 15 14  2  0
 17 16  1  0
 18 17  1  0
 19 18  1  0
 20 19  1  1
 20 22  1  0
 21 20  1  0
 22 24  2  0
 22 23  1  0
M  END
$$$$
