HAM.pdb
     RDKit          3D

 24 24  0  0  1  0  0  0  0  0999 V2000
   21.2764  -18.7765  -16.6447 N   0  0  0  0  0  0  0  0  0  0  0  0
   20.8199  -17.3741  -16.6688 C   0  0  1  0  0  0  0  0  0  0  0  0
   21.2650  -16.8036  -15.3402 C   0  0  0  0  0  0  0  0  0  0  0  0
   20.5207  -17.3336  -14.1919 C   0  0  0  0  0  0  0  0  0  0  0  0
   19.5925  -18.3664  -14.3066 C   0  0  0  0  0  0  0  0  0  0  0  0
   19.0726  -18.6453  -13.1220 N   0  0  0  0  0  0  0  0  0  0  0  0
   19.6443  -17.8127  -12.2314 C   0  0  0  0  0  0  0  0  0  0  0  0
   20.5223  -17.0205  -12.8928 N   0  0  0  0  0  0  0  0  0  0  0  0
   21.6095  -16.7083  -17.7451 C   0  0  0  0  0  0  0  0  0  0  0  0
   22.8175  -16.9704  -17.9828 O   0  0  0  0  0  0  0  0  0  0  0  0
   20.9018  -14.3584  -20.6445 C   0  0  0  0  0  0  0  0  0  0  0  0
   21.8128  -15.0486  -19.6455 C   0  0  2  0  0  0  0  0  0  0  0  0
   21.0372  -15.7033  -18.6019 N   0  0  0  0  0  0  0  0  0  0  0  0
   22.6900  -14.0551  -18.9837 C   0  0  0  0  0  0  0  0  0  0  0  0
   22.5063  -13.8196  -17.7657 O   0  0  0  0  0  0  0  0  0  0  0  0
   28.6253  -12.9139  -15.1815 C   0  0  0  0  0  0  0  0  0  0  0  0
   27.4029  -13.8181  -16.1787 S   0  0  0  0  0  0  0  0  0  0  0  0
   26.4657  -12.6350  -17.2216 C   0  0  0  0  0  0  0  0  0  0  0  0
   25.4061  -13.3812  -18.0052 C   0  0  0  0  0  0  0  0  0  0  0  0
   24.6517  -12.5189  -18.9698 C   0  0  2  0  0  0  0  0  0  0  0  0
   23.7183  -13.3687  -19.6715 N   0  0  0  0  0  0  0  0  0  0  0  0
   25.5030  -11.8024  -19.9337 C   0  0  0  0  0  0  0  0  0  0  0  0
   25.9204  -10.4909  -19.7749 O   0  0  0  0  0  0  0  0  0  0  0  0
   25.8850  -12.3910  -20.9653 O   0  0  0  0  0  0  0  0  0  0  0  0
  2  1  1  1
  3  2  1  0
  4  3  1  0
  4  5  2  0
  6  5  1  0
  7  6  1  0
  8  7  2  0
  8  4  1  0
  9  2  1  0
 10  9  2  0
 12 11  1  6
 12 13  1  0
 12 14  1  0
 13  9  1  0
 14 21  1  0
 15 14  2  0
 17 16  1  0
 18 17  1  0
 19 18  1  0
 20 19  1  1
 20 22  1  0
 21 20  1  0
 22 24  2  0
 22 23  1  0
M  END
$$$$
