HAM.pdb
     RDKit          3D

 24 24  0  0  1  0  0  0  0  0999 V2000
   19.5498  -14.0157  -19.1042 N   0  0  0  0  0  0  0  0  0  0  0  0
   18.6588  -13.0248  -18.4718 C   0  0  1  0  0  0  0  0  0  0  0  0
   18.4168  -13.5616  -17.0782 C   0  0  0  0  0  0  0  0  0  0  0  0
   17.5608  -14.7531  -17.0458 C   0  0  0  0  0  0  0  0  0  0  0  0
   16.2342  -14.7405  -17.4717 C   0  0  0  0  0  0  0  0  0  0  0  0
   15.7002  -15.9434  -17.3343 N   0  0  0  0  0  0  0  0  0  0  0  0
   16.6543  -16.7458  -16.8251 C   0  0  0  0  0  0  0  0  0  0  0  0
   17.7802  -16.0117  -16.6541 N   0  0  0  0  0  0  0  0  0  0  0  0
   19.4626  -11.7740  -18.3518 C   0  0  0  0  0  0  0  0  0  0  0  0
   20.6580  -11.7523  -17.9582 O   0  0  0  0  0  0  0  0  0  0  0  0
   19.1009   -8.1836  -19.5082 C   0  0  0  0  0  0  0  0  0  0  0  0
   19.7369   -9.2777  -18.6700 C   0  0  2  0  0  0  0  0  0  0  0  0
   18.9199  -10.4826  -18.6828 N   0  0  0  0  0  0  0  0  0  0  0  0
   19.8511   -8.8389  -17.2597 C   0  0  0  0  0  0  0  0  0  0  0  0
   18.9108   -9.1108  -16.4758 O   0  0  0  0  0  0  0  0  0  0  0  0
   23.5418  -11.3951  -13.4204 C   0  0  0  0  0  0  0  0  0  0  0  0
   22.5339   -9.8975  -13.6389 S   0  0  0  0  0  0  0  0  0  0  0  0
   23.2566   -8.8599  -14.9681 C   0  0  0  0  0  0  0  0  0  0  0  0
   22.5024   -7.5494  -15.0529 C   0  0  0  0  0  0  0  0  0  0  0  0
   21.0523   -7.7100  -15.3912 C   0  0  2  0  0  0  0  0  0  0  0  0
   20.9737   -8.1301  -16.7707 N   0  0  0  0  0  0  0  0  0  0  0  0
   20.2459   -6.4952  -15.1881 C   0  0  0  0  0  0  0  0  0  0  0  0
   19.6833   -6.1314  -13.9754 O   0  0  0  0  0  0  0  0  0  0  0  0
   20.0422   -5.7302  -16.1523 O   0  0  0  0  0  0  0  0  0  0  0  0
  2  1  1  6
  3  2  1  0
  4  3  1  0
  4  5  2  0
  6  5  1  0
  7  6  1  0
  8  7  2  0
  8  4  1  0
  9  2  1  0
 10  9  2  0
 12 11  1  6
 12 13  1  0
 12 14  1  0
 13  9  1  0
 14 21  1  0
 15 14  2  0
 17 16  1  0
 18 17  1  0
 19 18  1  0
 20 19  1  6
 20 22  1  0
 21 20  1  0
 22 24  2  0
 22 23  1  0
M  END
$$$$
