NFW.pdb
     RDKit          3D

 34 36  0  0  1  0  0  0  0  0999 V2000
    8.6187  -19.9943   17.8041 N   0  0  0  0  0  0  0  0  0  0  0  0
    9.9366  -19.5430   18.0377 C   0  0  0  0  0  0  0  0  0  0  0  0
   10.8499  -19.8237   17.2322 O   0  0  0  0  0  0  0  0  0  0  0  0
   10.2232  -18.7384   19.2399 C   0  0  0  0  0  0  0  0  0  0  0  0
    9.7305  -17.3167   19.0154 C   0  0  2  0  0  0  0  0  0  0  0  0
   10.4489  -16.6131   18.0135 N   0  0  0  0  0  0  0  0  0  0  0  0
    9.6703  -16.6501   20.3277 C   0  0  0  0  0  0  0  0  0  0  0  0
   10.7725  -16.4393   20.9099 O   0  0  0  0  0  0  0  0  0  0  0  0
    8.4768  -16.2346   20.9739 N   0  0  0  0  0  0  0  0  0  0  0  0
    8.4487  -15.7023   22.3298 C   0  0  1  0  0  0  0  0  0  0  0  0
    7.1179  -15.0684   22.5718 C   0  0  0  0  0  0  0  0  0  0  0  0
    6.9261  -14.5766   23.9378 C   0  0  0  0  0  0  0  0  0  0  0  0
    7.4165  -13.3648   24.3689 C   0  0  0  0  0  0  0  0  0  0  0  0
    7.2149  -12.9243   25.6791 C   0  0  0  0  0  0  0  0  0  0  0  0
    6.5171  -13.6923   26.5806 C   0  0  0  0  0  0  0  0  0  0  0  0
    6.0240  -14.9046   26.1572 C   0  0  0  0  0  0  0  0  0  0  0  0
    6.2316  -15.3276   24.8566 C   0  0  0  0  0  0  0  0  0  0  0  0
    8.8042  -16.7262   23.3280 C   0  0  0  0  0  0  0  0  0  0  0  0
    8.2496  -17.8523   23.2789 O   0  0  0  0  0  0  0  0  0  0  0  0
    9.7556  -16.5052   24.3597 N   0  0  0  0  0  0  0  0  0  0  0  0
   10.4275  -17.5633   25.0674 C   0  0  1  0  0  0  0  0  0  0  0  0
   11.6438  -17.0685   25.8192 C   0  0  0  0  0  0  0  0  0  0  0  0
   11.2636  -16.4591   27.1143 C   0  0  0  0  0  0  0  0  0  0  0  0
   10.8470  -17.1586   28.2231 C   0  0  0  0  0  0  0  0  0  0  0  0
   10.5735  -16.3328   29.2415 N   0  0  0  0  0  0  0  0  0  0  0  0
   10.8158  -15.0880   28.7861 C   0  0  0  0  0  0  0  0  0  0  0  0
   10.7080  -13.8365   29.3950 C   0  0  0  0  0  0  0  0  0  0  0  0
   11.0224  -12.7008   28.6942 C   0  0  0  0  0  0  0  0  0  0  0  0
   11.4478  -12.7589   27.3871 C   0  0  0  0  0  0  0  0  0  0  0  0
   11.5603  -13.9847   26.7699 C   0  0  0  0  0  0  0  0  0  0  0  0
   11.2437  -15.1307   27.4748 C   0  0  0  0  0  0  0  0  0  0  0  0
    9.4853  -18.1338   26.0631 C   0  0  0  0  0  0  0  0  0  0  0  0
    8.4173  -17.5657   26.4039 O   0  0  0  0  0  0  0  0  0  0  0  0
    9.7518  -19.3539   26.6772 O   0  0  0  0  0  0  0  0  0  0  0  0
  2  1  1  0
  2  3  2  0
  4  2  1  0
  5  7  1  0
  5  4  1  0
  5  6  1  6
  7  8  2  0
  9 10  1  0
  9  7  1  0
 10 11  1  1
 11 12  1  0
 12 17  2  0
 13 14  2  0
 13 12  1  0
 14 15  1  0
 15 16  2  0
 17 16  1  0
 18 10  1  0
 19 18  2  0
 20 18  1  0
 21 20  1  0
 21 22  1  1
 22 23  1  0
 23 31  1  0
 24 25  1  0
 24 23  2  0
 25 26  1  0
 26 31  2  0
 26 27  1  0
 27 28  2  0
 28 29  1  0
 30 29  2  0
 31 30  1  0
 32 21  1  0
 32 34  1  0
 33 32  2  0
M  END
$$$$
