NFW.pdb
     RDKit          3D

 34 36  0  0  1  0  0  0  0  0999 V2000
   10.6020  -16.4724   15.7925 N   0  0  0  0  0  0  0  0  0  0  0  0
   11.1111  -17.2575   16.8505 C   0  0  0  0  0  0  0  0  0  0  0  0
   11.4858  -18.4309   16.6394 O   0  0  0  0  0  0  0  0  0  0  0  0
   11.1958  -16.6794   18.2044 C   0  0  0  0  0  0  0  0  0  0  0  0
   10.4052  -17.5520   19.1676 C   0  0  2  0  0  0  0  0  0  0  0  0
    9.1822  -18.0339   18.6319 N   0  0  0  0  0  0  0  0  0  0  0  0
   10.2862  -16.8210   20.4411 C   0  0  0  0  0  0  0  0  0  0  0  0
   11.3654  -16.4755   21.0018 O   0  0  0  0  0  0  0  0  0  0  0  0
    9.0608  -16.4832   21.0726 N   0  0  0  0  0  0  0  0  0  0  0  0
    8.9852  -15.9074   22.4088 C   0  0  1  0  0  0  0  0  0  0  0  0
    7.7244  -15.1143   22.5218 C   0  0  0  0  0  0  0  0  0  0  0  0
    7.5076  -14.5150   23.8403 C   0  0  0  0  0  0  0  0  0  0  0  0
    6.8365  -15.1637   24.8520 C   0  0  0  0  0  0  0  0  0  0  0  0
    6.6476  -14.5639   26.0993 C   0  0  0  0  0  0  0  0  0  0  0  0
    7.1291  -13.3018   26.3540 C   0  0  0  0  0  0  0  0  0  0  0  0
    7.8008  -12.6473   25.3478 C   0  0  0  0  0  0  0  0  0  0  0  0
    7.9801  -13.2540   24.1176 C   0  0  0  0  0  0  0  0  0  0  0  0
    9.1326  -16.9329   23.4566 C   0  0  0  0  0  0  0  0  0  0  0  0
    8.5385  -18.0324   23.3296 O   0  0  0  0  0  0  0  0  0  0  0  0
    9.9230  -16.7422   24.6217 N   0  0  0  0  0  0  0  0  0  0  0  0
   10.6980  -17.7849   25.2412 C   0  0  1  0  0  0  0  0  0  0  0  0
   11.6822  -17.2432   26.2547 C   0  0  0  0  0  0  0  0  0  0  0  0
   10.9919  -16.7862   27.4827 C   0  0  0  0  0  0  0  0  0  0  0  0
   10.8023  -17.5493   28.6113 C   0  0  0  0  0  0  0  0  0  0  0  0
   10.1452  -16.8626   29.5549 N   0  0  0  0  0  0  0  0  0  0  0  0
    9.9082  -15.6441   29.0307 C   0  0  0  0  0  0  0  0  0  0  0  0
    9.2656  -14.5175   29.5469 C   0  0  0  0  0  0  0  0  0  0  0  0
    9.1569  -13.3797   28.7896 C   0  0  0  0  0  0  0  0  0  0  0  0
    9.6708  -13.3144   27.5150 C   0  0  0  0  0  0  0  0  0  0  0  0
   10.3081  -14.4159   26.9891 C   0  0  0  0  0  0  0  0  0  0  0  0
   10.4185  -15.5638   27.7511 C   0  0  0  0  0  0  0  0  0  0  0  0
    9.7704  -18.6959   25.9582 C   0  0  0  0  0  0  0  0  0  0  0  0
    8.5429  -18.4617   26.0924 O   0  0  0  0  0  0  0  0  0  0  0  0
   10.2328  -19.8789   26.5271 O   0  0  0  0  0  0  0  0  0  0  0  0
  2  1  1  0
  2  3  2  0
  4  2  1  0
  5  7  1  0
  5  4  1  0
  5  6  1  6
  7  8  2  0
  9 10  1  0
  9  7  1  0
 10 11  1  1
 11 12  1  0
 12 17  2  0
 13 14  2  0
 13 12  1  0
 14 15  1  0
 15 16  2  0
 17 16  1  0
 18 10  1  0
 19 18  2  0
 20 18  1  0
 21 20  1  0
 21 22  1  1
 22 23  1  0
 23 31  1  0
 24 25  1  0
 24 23  2  0
 25 26  1  0
 26 31  2  0
 26 27  1  0
 27 28  2  0
 28 29  1  0
 30 29  2  0
 31 30  1  0
 32 21  1  0
 32 34  1  0
 33 32  2  0
M  END
$$$$
