NFW.pdb
     RDKit          3D

 34 36  0  0  1  0  0  0  0  0999 V2000
   12.1203  -21.8600   18.4694 N   0  0  0  0  0  0  0  0  0  0  0  0
   10.7954  -21.6167   18.8940 C   0  0  0  0  0  0  0  0  0  0  0  0
   10.0321  -22.5718   19.1527 O   0  0  0  0  0  0  0  0  0  0  0  0
   10.3228  -20.2263   19.0286 C   0  0  0  0  0  0  0  0  0  0  0  0
   10.0317  -19.9401   20.4941 C   0  0  2  0  0  0  0  0  0  0  0  0
    8.9275  -20.6670   21.0113 N   0  0  0  0  0  0  0  0  0  0  0  0
    9.9517  -18.4784   20.6587 C   0  0  0  0  0  0  0  0  0  0  0  0
   10.9133  -17.8003   20.1964 O   0  0  0  0  0  0  0  0  0  0  0  0
    8.8846  -17.7893   21.2919 N   0  0  0  0  0  0  0  0  0  0  0  0
    8.8740  -16.3458   21.4893 C   0  0  1  0  0  0  0  0  0  0  0  0
    7.4682  -15.8536   21.3758 C   0  0  0  0  0  0  0  0  0  0  0  0
    7.3458  -14.3960   21.3057 C   0  0  0  0  0  0  0  0  0  0  0  0
    7.0118  -13.6234   22.3949 C   0  0  0  0  0  0  0  0  0  0  0  0
    6.9043  -12.2343   22.2944 C   0  0  0  0  0  0  0  0  0  0  0  0
    7.1302  -11.5952   21.0986 C   0  0  0  0  0  0  0  0  0  0  0  0
    7.4644  -12.3606   20.0056 C   0  0  0  0  0  0  0  0  0  0  0  0
    7.5670  -13.7353   20.1203 C   0  0  0  0  0  0  0  0  0  0  0  0
    9.5338  -15.9603   22.7492 C   0  0  0  0  0  0  0  0  0  0  0  0
   10.2257  -14.9125   22.7860 O   0  0  0  0  0  0  0  0  0  0  0  0
    9.4281  -16.7218   23.9439 N   0  0  0  0  0  0  0  0  0  0  0  0
   10.2011  -16.4603   25.1296 C   0  0  1  0  0  0  0  0  0  0  0  0
    9.3619  -16.5228   26.3870 C   0  0  0  0  0  0  0  0  0  0  0  0
    8.2056  -15.6009   26.3074 C   0  0  0  0  0  0  0  0  0  0  0  0
    6.9245  -15.9699   25.9686 C   0  0  0  0  0  0  0  0  0  0  0  0
    6.0978  -14.9162   25.9825 N   0  0  0  0  0  0  0  0  0  0  0  0
    6.8524  -13.8564   26.3337 C   0  0  0  0  0  0  0  0  0  0  0  0
    6.5387  -12.5076   26.5094 C   0  0  0  0  0  0  0  0  0  0  0  0
    7.5137  -11.6164   26.8768 C   0  0  0  0  0  0  0  0  0  0  0  0
    8.8135  -12.0187   27.0807 C   0  0  0  0  0  0  0  0  0  0  0  0
    9.1416  -13.3454   26.9122 C   0  0  0  0  0  0  0  0  0  0  0  0
    8.1600  -14.2452   26.5418 C   0  0  0  0  0  0  0  0  0  0  0  0
   11.2554  -17.4998   25.2409 C   0  0  0  0  0  0  0  0  0  0  0  0
   12.1271  -17.5014   26.1462 O   0  0  0  0  0  0  0  0  0  0  0  0
   11.3249  -18.5439   24.3233 O   0  0  0  0  0  0  0  0  0  0  0  0
  2  1  1  0
  2  3  2  0
  4  2  1  0
  5  7  1  0
  5  4  1  0
  5  6  1  6
  7  8  2  0
  9 10  1  0
  9  7  1  0
 10 11  1  1
 11 12  1  0
 12 17  2  0
 13 14  2  0
 13 12  1  0
 14 15  1  0
 15 16  2  0
 17 16  1  0
 18 10  1  0
 19 18  2  0
 20 18  1  0
 21 20  1  0
 21 22  1  1
 22 23  1  0
 23 31  1  0
 24 25  1  0
 24 23  2  0
 25 26  1  0
 26 31  2  0
 26 27  1  0
 27 28  2  0
 28 29  1  0
 30 29  2  0
 31 30  1  0
 32 21  1  0
 32 34  1  0
 33 32  2  0
M  END
$$$$
