NFW.pdb
     RDKit          3D

 34 36  0  0  1  0  0  0  0  0999 V2000
   10.8943  -16.9748   16.2593 N   0  0  0  0  0  0  0  0  0  0  0  0
   11.8757  -16.7720   17.2546 C   0  0  0  0  0  0  0  0  0  0  0  0
   13.0611  -17.1093   17.0474 O   0  0  0  0  0  0  0  0  0  0  0  0
   11.4879  -16.1593   18.5386 C   0  0  0  0  0  0  0  0  0  0  0  0
   10.4199  -17.0195   19.1972 C   0  0  2  0  0  0  0  0  0  0  0  0
    9.2613  -17.2056   18.3985 N   0  0  0  0  0  0  0  0  0  0  0  0
   10.1718  -16.4747   20.5432 C   0  0  0  0  0  0  0  0  0  0  0  0
   11.1807  -16.3194   21.2891 O   0  0  0  0  0  0  0  0  0  0  0  0
    8.8960  -16.1177   21.0528 N   0  0  0  0  0  0  0  0  0  0  0  0
    8.6867  -15.6389   22.4128 C   0  0  1  0  0  0  0  0  0  0  0  0
    7.3963  -14.8884   22.4668 C   0  0  0  0  0  0  0  0  0  0  0  0
    7.0408  -14.3996   23.8008 C   0  0  0  0  0  0  0  0  0  0  0  0
    7.3701  -13.1387   24.2441 C   0  0  0  0  0  0  0  0  0  0  0  0
    7.0148  -12.7027   25.5228 C   0  0  0  0  0  0  0  0  0  0  0  0
    6.3224  -13.5246   26.3799 C   0  0  0  0  0  0  0  0  0  0  0  0
    5.9899  -14.7861   25.9439 C   0  0  0  0  0  0  0  0  0  0  0  0
    6.3486  -15.2040   24.6750 C   0  0  0  0  0  0  0  0  0  0  0  0
    8.7752  -16.7311   23.3979 C   0  0  0  0  0  0  0  0  0  0  0  0
    8.0913  -17.7709   23.2272 O   0  0  0  0  0  0  0  0  0  0  0  0
    9.6055  -16.6708   24.5492 N   0  0  0  0  0  0  0  0  0  0  0  0
   10.1958  -17.8272   25.1705 C   0  0  1  0  0  0  0  0  0  0  0  0
   11.4491  -17.4850   25.9459 C   0  0  0  0  0  0  0  0  0  0  0  0
   11.1213  -16.9435   27.2848 C   0  0  0  0  0  0  0  0  0  0  0  0
   10.8753  -17.7039   28.4045 C   0  0  0  0  0  0  0  0  0  0  0  0
   10.6074  -16.9309   29.4649 N   0  0  0  0  0  0  0  0  0  0  0  0
   10.6810  -15.6590   29.0259 C   0  0  0  0  0  0  0  0  0  0  0  0
   10.4987  -14.4375   29.6765 C   0  0  0  0  0  0  0  0  0  0  0  0
   10.6339  -13.2620   28.9840 C   0  0  0  0  0  0  0  0  0  0  0  0
   10.9491  -13.2503   27.6449 C   0  0  0  0  0  0  0  0  0  0  0  0
   11.1328  -14.4455   26.9863 C   0  0  0  0  0  0  0  0  0  0  0  0
   10.9968  -15.6317   27.6828 C   0  0  0  0  0  0  0  0  0  0  0  0
    9.2154  -18.3962   26.1295 C   0  0  0  0  0  0  0  0  0  0  0  0
    8.1479  -17.8146   26.4484 O   0  0  0  0  0  0  0  0  0  0  0  0
    9.4429  -19.6301   26.7317 O   0  0  0  0  0  0  0  0  0  0  0  0
  2  1  1  0
  2  3  2  0
  4  2  1  0
  5  7  1  0
  5  4  1  0
  5  6  1  6
  7  8  2  0
  9 10  1  0
  9  7  1  0
 10 11  1  6
 11 12  1  0
 12 17  2  0
 13 14  2  0
 13 12  1  0
 14 15  1  0
 15 16  2  0
 17 16  1  0
 18 10  1  0
 19 18  2  0
 20 18  1  0
 21 20  1  0
 21 22  1  1
 22 23  1  0
 23 31  1  0
 24 25  1  0
 24 23  2  0
 25 26  1  0
 26 31  2  0
 26 27  1  0
 27 28  2  0
 28 29  1  0
 30 29  2  0
 31 30  1  0
 32 21  1  0
 32 34  1  0
 33 32  2  0
M  END
$$$$
