NFW.pdb
     RDKit          3D

 34 36  0  0  1  0  0  0  0  0999 V2000
    2.5138  -20.5250   20.2994 N   0  0  0  0  0  0  0  0  0  0  0  0
    3.9004  -20.2581   20.3323 C   0  0  0  0  0  0  0  0  0  0  0  0
    4.7105  -21.0774   19.8484 O   0  0  0  0  0  0  0  0  0  0  0  0
    4.3814  -19.0047   20.9424 C   0  0  0  0  0  0  0  0  0  0  0  0
    5.5079  -19.3251   21.9134 C   0  0  2  0  0  0  0  0  0  0  0  0
    5.1477  -20.2580   22.9208 N   0  0  0  0  0  0  0  0  0  0  0  0
    6.0512  -18.0482   22.4077 C   0  0  0  0  0  0  0  0  0  0  0  0
    6.3973  -17.2012   21.5352 O   0  0  0  0  0  0  0  0  0  0  0  0
    6.2108  -17.7087   23.7766 N   0  0  0  0  0  0  0  0  0  0  0  0
    6.8266  -16.4659   24.2228 C   0  0  1  0  0  0  0  0  0  0  0  0
    6.3652  -16.1706   25.6125 C   0  0  0  0  0  0  0  0  0  0  0  0
    6.8668  -14.9068   26.1564 C   0  0  0  0  0  0  0  0  0  0  0  0
    7.9871  -14.8311   26.9526 C   0  0  0  0  0  0  0  0  0  0  0  0
    8.4400  -13.6088   27.4547 C   0  0  0  0  0  0  0  0  0  0  0  0
    7.7764  -12.4399   27.1666 C   0  0  0  0  0  0  0  0  0  0  0  0
    6.6560  -12.5076   26.3716 C   0  0  0  0  0  0  0  0  0  0  0  0
    6.2194  -13.7253   25.8817 C   0  0  0  0  0  0  0  0  0  0  0  0
    8.2930  -16.4999   24.0832 C   0  0  0  0  0  0  0  0  0  0  0  0
    8.9103  -17.5657   24.3303 O   0  0  0  0  0  0  0  0  0  0  0  0
    9.0591  -15.3742   23.6777 N   0  0  0  0  0  0  0  0  0  0  0  0
   10.3784  -15.4678   23.1098 C   0  0  1  0  0  0  0  0  0  0  0  0
   10.7198  -14.2694   22.2515 C   0  0  0  0  0  0  0  0  0  0  0  0
    9.5488  -13.8226   21.4626 C   0  0  0  0  0  0  0  0  0  0  0  0
    8.3354  -13.4511   21.9935 C   0  0  0  0  0  0  0  0  0  0  0  0
    7.4742  -13.0969   21.0309 N   0  0  0  0  0  0  0  0  0  0  0  0
    8.1378  -13.2411   19.8670 C   0  0  0  0  0  0  0  0  0  0  0  0
    7.7532  -13.0231   18.5430 C   0  0  0  0  0  0  0  0  0  0  0  0
    8.6395  -13.2521   17.5223 C   0  0  0  0  0  0  0  0  0  0  0  0
    9.9177  -13.6979   17.7683 C   0  0  0  0  0  0  0  0  0  0  0  0
   10.3149  -13.9185   19.0682 C   0  0  0  0  0  0  0  0  0  0  0  0
    9.4226  -13.6881   20.0985 C   0  0  0  0  0  0  0  0  0  0  0  0
   11.3639  -15.5213   24.2191 C   0  0  0  0  0  0  0  0  0  0  0  0
   11.0565  -15.3284   25.4224 O   0  0  0  0  0  0  0  0  0  0  0  0
   12.7050  -15.7947   23.9669 O   0  0  0  0  0  0  0  0  0  0  0  0
  2  1  1  0
  2  3  2  0
  4  2  1  0
  5  7  1  0
  5  4  1  0
  5  6  1  1
  7  8  2  0
  9 10  1  0
  9  7  1  0
 10 11  1  1
 11 12  1  0
 12 17  2  0
 13 14  2  0
 13 12  1  0
 14 15  1  0
 15 16  2  0
 17 16  1  0
 18 10  1  0
 19 18  2  0
 20 18  1  0
 21 20  1  0
 21 22  1  6
 22 23  1  0
 23 31  1  0
 24 25  1  0
 24 23  2  0
 25 26  1  0
 26 31  2  0
 26 27  1  0
 27 28  2  0
 28 29  1  0
 30 29  2  0
 31 30  1  0
 32 21  1  0
 32 34  1  0
 33 32  2  0
M  END
$$$$
