NFW.pdb
     RDKit          3D

 34 36  0  0  1  0  0  0  0  0999 V2000
   12.6721  -20.9167   17.5822 N   0  0  0  0  0  0  0  0  0  0  0  0
   12.7346  -21.0604   18.9858 C   0  0  0  0  0  0  0  0  0  0  0  0
   13.2354  -22.0877   19.4915 O   0  0  0  0  0  0  0  0  0  0  0  0
   12.2036  -19.9877   19.8472 C   0  0  0  0  0  0  0  0  0  0  0  0
   11.5603  -18.9214   18.9733 C   0  0  2  0  0  0  0  0  0  0  0  0
   12.3757  -18.4995   17.8907 N   0  0  0  0  0  0  0  0  0  0  0  0
   11.0857  -17.8429   19.8573 C   0  0  0  0  0  0  0  0  0  0  0  0
   11.9478  -17.0023   20.2428 O   0  0  0  0  0  0  0  0  0  0  0  0
    9.7463  -17.6852   20.2998 N   0  0  0  0  0  0  0  0  0  0  0  0
    9.3155  -16.5933   21.1628 C   0  0  1  0  0  0  0  0  0  0  0  0
    8.0649  -15.9995   20.6018 C   0  0  0  0  0  0  0  0  0  0  0  0
    7.6387  -14.7630   21.2606 C   0  0  0  0  0  0  0  0  0  0  0  0
    6.8232  -14.7527   22.3694 C   0  0  0  0  0  0  0  0  0  0  0  0
    6.4358  -13.5550   22.9749 C   0  0  0  0  0  0  0  0  0  0  0  0
    6.8600  -12.3455   22.4783 C   0  0  0  0  0  0  0  0  0  0  0  0
    7.6752  -12.3477   21.3704 C   0  0  0  0  0  0  0  0  0  0  0  0
    8.0505  -13.5417   20.7815 C   0  0  0  0  0  0  0  0  0  0  0  0
    9.1863  -17.0225   22.5665 C   0  0  0  0  0  0  0  0  0  0  0  0
    8.9263  -18.2248   22.8210 O   0  0  0  0  0  0  0  0  0  0  0  0
    9.3421  -16.1356   23.6654 N   0  0  0  0  0  0  0  0  0  0  0  0
   10.1225  -16.4421   24.8355 C   0  0  1  0  0  0  0  0  0  0  0  0
    9.8609  -15.4746   25.9690 C   0  0  0  0  0  0  0  0  0  0  0  0
    8.4534  -15.0141   25.9682 C   0  0  0  0  0  0  0  0  0  0  0  0
    7.3538  -15.8384   25.9073 C   0  0  0  0  0  0  0  0  0  0  0  0
    6.2170  -15.1305   25.9233 N   0  0  0  0  0  0  0  0  0  0  0  0
    6.5859  -13.8364   25.9953 C   0  0  0  0  0  0  0  0  0  0  0  0
    5.8405  -12.6571   26.0415 C   0  0  0  0  0  0  0  0  0  0  0  0
    6.4754  -11.4440   26.1136 C   0  0  0  0  0  0  0  0  0  0  0  0
    7.8479  -11.3531   26.1420 C   0  0  0  0  0  0  0  0  0  0  0  0
    8.5998  -12.5058   26.0973 C   0  0  0  0  0  0  0  0  0  0  0  0
    7.9614  -13.7297   26.0246 C   0  0  0  0  0  0  0  0  0  0  0  0
    9.7473  -17.7990   25.3072 C   0  0  0  0  0  0  0  0  0  0  0  0
    8.7483  -18.4263   24.8738 O   0  0  0  0  0  0  0  0  0  0  0  0
   10.5060  -18.4509   26.2748 O   0  0  0  0  0  0  0  0  0  0  0  0
  2  1  1  0
  2  3  2  0
  4  2  1  0
  5  7  1  0
  5  4  1  0
  5  6  1  6
  7  8  2  0
  9 10  1  0
  9  7  1  0
 10 11  1  6
 11 12  1  0
 12 17  2  0
 13 14  2  0
 13 12  1  0
 14 15  1  0
 15 16  2  0
 17 16  1  0
 18 10  1  0
 19 18  2  0
 20 18  1  0
 21 20  1  0
 21 22  1  1
 22 23  1  0
 23 31  1  0
 24 25  1  0
 24 23  2  0
 25 26  1  0
 26 31  2  0
 26 27  1  0
 27 28  2  0
 28 29  1  0
 30 29  2  0
 31 30  1  0
 32 21  1  0
 32 34  1  0
 33 32  2  0
M  END
$$$$
