NFW.pdb
     RDKit          3D

 34 36  0  0  1  0  0  0  0  0999 V2000
   12.3698  -21.5003   17.3656 N   0  0  0  0  0  0  0  0  0  0  0  0
   11.3650  -21.1303   18.2867 C   0  0  0  0  0  0  0  0  0  0  0  0
   10.5161  -21.9672   18.6618 O   0  0  0  0  0  0  0  0  0  0  0  0
   11.3281  -19.7485   18.8005 C   0  0  0  0  0  0  0  0  0  0  0  0
    9.8784  -19.3245   18.9820 C   0  0  2  0  0  0  0  0  0  0  0  0
    9.1306  -19.3095   17.7755 N   0  0  0  0  0  0  0  0  0  0  0  0
    9.8718  -18.0604   19.7385 C   0  0  0  0  0  0  0  0  0  0  0  0
   10.9266  -17.3649   19.6936 O   0  0  0  0  0  0  0  0  0  0  0  0
    8.7784  -17.5772   20.5037 N   0  0  0  0  0  0  0  0  0  0  0  0
    8.8122  -16.3170   21.2341 C   0  0  1  0  0  0  0  0  0  0  0  0
    7.4548  -15.6951   21.1864 C   0  0  0  0  0  0  0  0  0  0  0  0
    7.3643  -14.3976   21.8594 C   0  0  0  0  0  0  0  0  0  0  0  0
    6.8037  -14.2432   23.1070 C   0  0  0  0  0  0  0  0  0  0  0  0
    6.7339  -12.9909   23.7219 C   0  0  0  0  0  0  0  0  0  0  0  0
    7.2256  -11.8705   23.0955 C   0  0  0  0  0  0  0  0  0  0  0  0
    7.7873  -12.0169   21.8485 C   0  0  0  0  0  0  0  0  0  0  0  0
    7.8494  -13.2634   21.2520 C   0  0  0  0  0  0  0  0  0  0  0  0
    9.3337  -16.4899   22.6013 C   0  0  0  0  0  0  0  0  0  0  0  0
    8.8097  -17.3463   23.3563 O   0  0  0  0  0  0  0  0  0  0  0  0
   10.4147  -15.7279   23.1204 N   0  0  0  0  0  0  0  0  0  0  0  0
   10.9440  -15.8933   24.4487 C   0  0  1  0  0  0  0  0  0  0  0  0
   10.0773  -16.7916   25.3039 C   0  0  0  0  0  0  0  0  0  0  0  0
    8.9387  -16.0442   25.8854 C   0  0  0  0  0  0  0  0  0  0  0  0
    7.6124  -16.3609   25.7042 C   0  0  0  0  0  0  0  0  0  0  0  0
    6.8166  -15.5016   26.3539 N   0  0  0  0  0  0  0  0  0  0  0  0
    7.6369  -14.6213   26.9606 C   0  0  0  0  0  0  0  0  0  0  0  0
    7.3790  -13.5136   27.7699 C   0  0  0  0  0  0  0  0  0  0  0  0
    8.4166  -12.7698   28.2696 C   0  0  0  0  0  0  0  0  0  0  0  0
    9.7262  -13.0879   27.9925 C   0  0  0  0  0  0  0  0  0  0  0  0
   10.0000  -14.1773   27.1961 C   0  0  0  0  0  0  0  0  0  0  0  0
    8.9551  -14.9283   26.6913 C   0  0  0  0  0  0  0  0  0  0  0  0
   12.2826  -16.5271   24.3446 C   0  0  0  0  0  0  0  0  0  0  0  0
   12.6262  -17.5252   25.0267 O   0  0  0  0  0  0  0  0  0  0  0  0
   13.2389  -16.0297   23.4642 O   0  0  0  0  0  0  0  0  0  0  0  0
  2  1  1  0
  2  3  2  0
  4  2  1  0
  5  7  1  0
  5  4  1  0
  5  6  1  6
  7  8  2  0
  9 10  1  0
  9  7  1  0
 10 11  1  1
 11 12  1  0
 12 17  2  0
 13 14  2  0
 13 12  1  0
 14 15  1  0
 15 16  2  0
 17 16  1  0
 18 10  1  0
 19 18  2  0
 20 18  1  0
 21 20  1  0
 21 22  1  1
 22 23  1  0
 23 31  1  0
 24 25  1  0
 24 23  2  0
 25 26  1  0
 26 31  2  0
 26 27  1  0
 27 28  2  0
 28 29  1  0
 30 29  2  0
 31 30  1  0
 32 21  1  0
 32 34  1  0
 33 32  2  0
M  END
$$$$
