NFW.pdb
     RDKit          3D

 34 36  0  0  1  0  0  0  0  0999 V2000
   14.5140  -18.1568   16.1846 N   0  0  0  0  0  0  0  0  0  0  0  0
   14.4403  -18.1051   17.5942 C   0  0  0  0  0  0  0  0  0  0  0  0
   15.2905  -18.6997   18.2909 O   0  0  0  0  0  0  0  0  0  0  0  0
   13.3515  -17.3438   18.2341 C   0  0  0  0  0  0  0  0  0  0  0  0
   12.6271  -18.2468   19.2210 C   0  0  2  0  0  0  0  0  0  0  0  0
   11.9225  -19.3161   18.6084 N   0  0  0  0  0  0  0  0  0  0  0  0
   11.8187  -17.3889   20.1045 C   0  0  0  0  0  0  0  0  0  0  0  0
   12.4058  -16.4007   20.6308 O   0  0  0  0  0  0  0  0  0  0  0  0
   10.4458  -17.5931   20.4014 N   0  0  0  0  0  0  0  0  0  0  0  0
    9.6816  -16.7170   21.2795 C   0  0  1  0  0  0  0  0  0  0  0  0
    8.2831  -16.6180   20.7640 C   0  0  0  0  0  0  0  0  0  0  0  0
    7.4884  -15.5550   21.3830 C   0  0  0  0  0  0  0  0  0  0  0  0
    6.5911  -15.7917   22.3997 C   0  0  0  0  0  0  0  0  0  0  0  0
    5.8490  -14.7545   22.9696 C   0  0  0  0  0  0  0  0  0  0  0  0
    5.9941  -13.4604   22.5292 C   0  0  0  0  0  0  0  0  0  0  0  0
    6.8888  -13.2160   21.5134 C   0  0  0  0  0  0  0  0  0  0  0  0
    7.6167  -14.2534   20.9588 C   0  0  0  0  0  0  0  0  0  0  0  0
    9.7622  -17.1461   22.6868 C   0  0  0  0  0  0  0  0  0  0  0  0
    9.7741  -18.3729   22.9566 O   0  0  0  0  0  0  0  0  0  0  0  0
    9.8280  -16.2324   23.7729 N   0  0  0  0  0  0  0  0  0  0  0  0
    9.9439  -16.6348   25.1500 C   0  0  1  0  0  0  0  0  0  0  0  0
    9.8671  -15.4593   26.0995 C   0  0  0  0  0  0  0  0  0  0  0  0
    8.5746  -14.7481   25.9704 C   0  0  0  0  0  0  0  0  0  0  0  0
    7.3660  -15.3499   25.7066 C   0  0  0  0  0  0  0  0  0  0  0  0
    6.3785  -14.4471   25.6482 N   0  0  0  0  0  0  0  0  0  0  0  0
    6.9547  -13.2506   25.8765 C   0  0  0  0  0  0  0  0  0  0  0  0
    6.4273  -11.9595   25.9360 C   0  0  0  0  0  0  0  0  0  0  0  0
    7.2489  -10.8914   26.1893 C   0  0  0  0  0  0  0  0  0  0  0  0
    8.5999  -11.0571   26.3897 C   0  0  0  0  0  0  0  0  0  0  0  0
    9.1381  -12.3234   26.3348 C   0  0  0  0  0  0  0  0  0  0  0  0
    8.3113  -13.4013   26.0795 C   0  0  0  0  0  0  0  0  0  0  0  0
    8.8151  -17.5449   25.4694 C   0  0  0  0  0  0  0  0  0  0  0  0
    7.7822  -17.6354   24.7590 O   0  0  0  0  0  0  0  0  0  0  0  0
    8.8538  -18.3576   26.5985 O   0  0  0  0  0  0  0  0  0  0  0  0
  2  1  1  0
  2  3  2  0
  4  2  1  0
  5  7  1  0
  5  4  1  0
  5  6  1  6
  7  8  2  0
  9 10  1  0
  9  7  1  0
 10 11  1  6
 11 12  1  0
 12 17  2  0
 13 14  2  0
 13 12  1  0
 14 15  1  0
 15 16  2  0
 17 16  1  0
 18 10  1  0
 19 18  2  0
 20 18  1  0
 21 20  1  0
 21 22  1  1
 22 23  1  0
 23 31  1  0
 24 25  1  0
 24 23  2  0
 25 26  1  0
 26 31  2  0
 26 27  1  0
 27 28  2  0
 28 29  1  0
 30 29  2  0
 31 30  1  0
 32 21  1  0
 32 34  1  0
 33 32  2  0
M  END
$$$$
