AFL.pdb
     RDKit          3D

 25 25  0  0  1  0  0  0  0  0999 V2000
    3.6447  -19.7556   22.6371 C   0  0  0  0  0  0  0  0  0  0  0  0
    5.1551  -19.7141   22.8139 C   0  0  2  0  0  0  0  0  0  0  0  0
    5.4785  -20.5380   23.9597 N   0  0  0  0  0  0  0  0  0  0  0  0
    5.5350  -18.2963   23.0680 C   0  0  0  0  0  0  0  0  0  0  0  0
    5.2249  -17.4651   22.1469 O   0  0  0  0  0  0  0  0  0  0  0  0
    6.1920  -17.8850   24.2397 N   0  0  0  0  0  0  0  0  0  0  0  0
    6.5585  -16.4700   24.4779 C   0  0  1  0  0  0  0  0  0  0  0  0
    6.7694  -16.3119   25.9391 C   0  0  0  0  0  0  0  0  0  0  0  0
    6.9377  -14.9811   26.4534 C   0  0  0  0  0  0  0  0  0  0  0  0
    5.9071  -14.0906   26.6375 C   0  0  0  0  0  0  0  0  0  0  0  0
    6.1601  -12.8045   27.1335 C   0  0  0  0  0  0  0  0  0  0  0  0
    7.4264  -12.3964   27.4480 C   0  0  0  0  0  0  0  0  0  0  0  0
    8.4688  -13.2756   27.2700 C   0  0  0  0  0  0  0  0  0  0  0  0
    8.2011  -14.5280   26.7839 C   0  0  0  0  0  0  0  0  0  0  0  0
    7.7898  -16.2161   23.7232 C   0  0  0  0  0  0  0  0  0  0  0  0
    8.6329  -17.1758   23.6290 O   0  0  0  0  0  0  0  0  0  0  0  0
    7.8247  -14.8867   19.6119 C   0  0  0  0  0  0  0  0  0  0  0  0
    7.9643  -13.7284   20.6056 C   0  0  2  0  0  0  0  0  0  0  0  0
    7.7551  -12.4504   19.8379 C   0  0  0  0  0  0  0  0  0  0  0  0
    9.2855  -13.7822   21.3046 C   0  0  0  0  0  0  0  0  0  0  0  0
    9.3574  -15.0275   22.1703 C   0  0  2  0  0  0  0  0  0  0  0  0
    8.1726  -15.0244   23.0640 N   0  0  0  0  0  0  0  0  0  0  0  0
   10.5445  -14.9928   23.0118 C   0  0  0  0  0  0  0  0  0  0  0  0
   11.8326  -15.2044   22.4800 O   0  0  0  0  0  0  0  0  0  0  0  0
   10.4428  -14.7721   24.2614 O   0  0  0  0  0  0  0  0  0  0  0  0
  2  1  1  1
  2  3  1  0
  4  2  1  0
  4  5  2  0
  6  4  1  0
  7  6  1  0
  7  8  1  1
  8  9  1  0
  9 14  2  0
 10  9  1  0
 10 11  2  0
 11 12  1  0
 12 13  2  0
 14 13  1  0
 15  7  1  0
 16 15  2  0
 18 19  1  6
 18 17  1  0
 20 18  1  0
 21 20  1  6
 21 22  1  0
 22 15  1  0
 23 21  1  0
 24 23  1  0
 25 23  2  0
M  END
$$$$
