AFL.pdb
     RDKit          3D

 25 25  0  0  1  0  0  0  0  0999 V2000
   10.9865  -18.8672   20.7041 C   0  0  0  0  0  0  0  0  0  0  0  0
   10.4655  -17.5197   20.2278 C   0  0  2  0  0  0  0  0  0  0  0  0
   11.4489  -16.9742   19.3160 N   0  0  0  0  0  0  0  0  0  0  0  0
   10.3262  -16.6468   21.4269 C   0  0  0  0  0  0  0  0  0  0  0  0
   11.3893  -16.0410   21.7988 O   0  0  0  0  0  0  0  0  0  0  0  0
    9.1111  -16.4900   22.1144 N   0  0  0  0  0  0  0  0  0  0  0  0
    8.9585  -15.5251   23.2275 C   0  0  1  0  0  0  0  0  0  0  0  0
    7.5255  -15.1401   23.2803 C   0  0  0  0  0  0  0  0  0  0  0  0
    7.1106  -14.2366   24.3173 C   0  0  0  0  0  0  0  0  0  0  0  0
    6.3373  -14.6020   25.3932 C   0  0  0  0  0  0  0  0  0  0  0  0
    5.9660  -13.6533   26.3555 C   0  0  0  0  0  0  0  0  0  0  0  0
    6.3562  -12.3467   26.2585 C   0  0  0  0  0  0  0  0  0  0  0  0
    7.1307  -11.9647   25.1882 C   0  0  0  0  0  0  0  0  0  0  0  0
    7.4830  -12.9067   24.2581 C   0  0  0  0  0  0  0  0  0  0  0  0
    9.3783  -16.2161   24.4507 C   0  0  0  0  0  0  0  0  0  0  0  0
    9.3140  -17.4954   24.4577 O   0  0  0  0  0  0  0  0  0  0  0  0
    9.7734  -13.5490   27.6235 C   0  0  0  0  0  0  0  0  0  0  0  0
   10.2106  -14.8148   28.3686 C   0  0  2  0  0  0  0  0  0  0  0  0
   10.6432  -14.3967   29.7487 C   0  0  0  0  0  0  0  0  0  0  0  0
   11.2810  -15.5355   27.6124 C   0  0  0  0  0  0  0  0  0  0  0  0
   10.6502  -16.4699   26.5954 C   0  0  2  0  0  0  0  0  0  0  0  0
    9.8638  -15.6408   25.6485 N   0  0  0  0  0  0  0  0  0  0  0  0
    9.7279  -17.3854   27.2508 C   0  0  0  0  0  0  0  0  0  0  0  0
   10.1857  -18.4054   28.1093 O   0  0  0  0  0  0  0  0  0  0  0  0
    8.4737  -17.2857   27.0570 O   0  0  0  0  0  0  0  0  0  0  0  0
  2  1  1  1
  2  3  1  0
  4  2  1  0
  4  5  2  0
  6  4  1  0
  7  6  1  0
  7  8  1  1
  8  9  1  0
  9 14  2  0
 10  9  1  0
 10 11  2  0
 11 12  1  0
 12 13  2  0
 14 13  1  0
 15  7  1  0
 16 15  2  0
 18 19  1  1
 18 17  1  0
 20 18  1  0
 21 20  1  1
 21 22  1  0
 22 15  1  0
 23 21  1  0
 24 23  1  0
 25 23  2  0
M  END
$$$$
