AFL.pdb
     RDKit          3D

 25 25  0  0  1  0  0  0  0  0999 V2000
   10.8226  -18.9823   20.8876 C   0  0  0  0  0  0  0  0  0  0  0  0
   10.2207  -17.6630   20.4280 C   0  0  2  0  0  0  0  0  0  0  0  0
   11.1140  -17.1033   19.4355 N   0  0  0  0  0  0  0  0  0  0  0  0
   10.1404  -16.7712   21.6186 C   0  0  0  0  0  0  0  0  0  0  0  0
   11.1803  -16.0652   21.8542 O   0  0  0  0  0  0  0  0  0  0  0  0
    9.0016  -16.7007   22.4383 N   0  0  0  0  0  0  0  0  0  0  0  0
    8.8780  -15.7018   23.5248 C   0  0  1  0  0  0  0  0  0  0  0  0
    7.4281  -15.5096   23.7805 C   0  0  0  0  0  0  0  0  0  0  0  0
    7.0390  -14.4708   24.6933 C   0  0  0  0  0  0  0  0  0  0  0  0
    7.4511  -13.1634   24.5930 C   0  0  0  0  0  0  0  0  0  0  0  0
    7.0339  -12.2133   25.5349 C   0  0  0  0  0  0  0  0  0  0  0  0
    6.2116  -12.5504   26.5738 C   0  0  0  0  0  0  0  0  0  0  0  0
    5.7898  -13.8543   26.6881 C   0  0  0  0  0  0  0  0  0  0  0  0
    6.2087  -14.7682   25.7577 C   0  0  0  0  0  0  0  0  0  0  0  0
    9.5645  -16.2581   24.6949 C   0  0  0  0  0  0  0  0  0  0  0  0
   10.6155  -16.9595   24.4846 O   0  0  0  0  0  0  0  0  0  0  0  0
   11.3178  -13.8659   27.6644 C   0  0  0  0  0  0  0  0  0  0  0  0
    9.9014  -14.3075   28.0480 C   0  0  2  0  0  0  0  0  0  0  0  0
    9.4570  -13.4426   29.1973 C   0  0  0  0  0  0  0  0  0  0  0  0
    9.8665  -15.7684   28.3667 C   0  0  0  0  0  0  0  0  0  0  0  0
   10.1498  -16.5742   27.1114 C   0  0  2  0  0  0  0  0  0  0  0  0
    9.2134  -16.1109   26.0574 N   0  0  0  0  0  0  0  0  0  0  0  0
    9.8870  -17.9866   27.3448 C   0  0  0  0  0  0  0  0  0  0  0  0
   10.8158  -18.8094   28.0136 O   0  0  0  0  0  0  0  0  0  0  0  0
    8.8018  -18.5159   26.9414 O   0  0  0  0  0  0  0  0  0  0  0  0
  2  1  1  1
  2  3  1  0
  4  2  1  0
  4  5  2  0
  6  4  1  0
  7  6  1  0
  7  8  1  1
  8  9  1  0
  9 14  2  0
 10  9  1  0
 10 11  2  0
 11 12  1  0
 12 13  2  0
 14 13  1  0
 15  7  1  0
 16 15  2  0
 18 19  1  1
 18 17  1  0
 20 18  1  0
 21 20  1  1
 21 22  1  0
 22 15  1  0
 23 21  1  0
 24 23  1  0
 25 23  2  0
M  END
$$$$
