AFL.pdb
     RDKit          3D

 25 25  0  0  1  0  0  0  0  0999 V2000
   10.9760  -19.1460   20.9817 C   0  0  0  0  0  0  0  0  0  0  0  0
   10.3408  -17.9001   20.3831 C   0  0  2  0  0  0  0  0  0  0  0  0
   11.2309  -17.4161   19.3488 N   0  0  0  0  0  0  0  0  0  0  0  0
   10.2161  -16.8950   21.4754 C   0  0  0  0  0  0  0  0  0  0  0  0
   11.2730  -16.2234   21.7348 O   0  0  0  0  0  0  0  0  0  0  0  0
    9.0203  -16.6880   22.1832 N   0  0  0  0  0  0  0  0  0  0  0  0
    8.9125  -15.6804   23.2632 C   0  0  1  0  0  0  0  0  0  0  0  0
    7.4826  -15.2921   23.3593 C   0  0  0  0  0  0  0  0  0  0  0  0
    7.1029  -14.3799   24.4020 C   0  0  0  0  0  0  0  0  0  0  0  0
    6.3955  -14.7430   25.5231 C   0  0  0  0  0  0  0  0  0  0  0  0
    6.0544  -13.7859   26.4883 C   0  0  0  0  0  0  0  0  0  0  0  0
    6.4100  -12.4732   26.3497 C   0  0  0  0  0  0  0  0  0  0  0  0
    7.1185  -12.0934   25.2338 C   0  0  0  0  0  0  0  0  0  0  0  0
    7.4421  -13.0436   24.3017 C   0  0  0  0  0  0  0  0  0  0  0  0
    9.3821  -16.3238   24.4943 C   0  0  0  0  0  0  0  0  0  0  0  0
    9.3715  -17.6040   24.5323 O   0  0  0  0  0  0  0  0  0  0  0  0
    9.6846  -13.6429   27.4049 C   0  0  0  0  0  0  0  0  0  0  0  0
   10.2820  -14.7092   28.3293 C   0  0  2  0  0  0  0  0  0  0  0  0
   10.8352  -13.9988   29.5358 C   0  0  0  0  0  0  0  0  0  0  0  0
   11.3076  -15.5253   27.6087 C   0  0  0  0  0  0  0  0  0  0  0  0
   10.6201  -16.4974   26.6666 C   0  0  2  0  0  0  0  0  0  0  0  0
    9.8638  -15.7002   25.6692 N   0  0  0  0  0  0  0  0  0  0  0  0
    9.6622  -17.3173   27.3937 C   0  0  0  0  0  0  0  0  0  0  0  0
    8.2787  -17.2408   27.1346 O   0  0  0  0  0  0  0  0  0  0  0  0
   10.0578  -18.1274   28.2924 O   0  0  0  0  0  0  0  0  0  0  0  0
  2  1  1  1
  2  3  1  0
  4  2  1  0
  4  5  2  0
  6  4  1  0
  7  6  1  0
  7  8  1  1
  8  9  1  0
  9 14  2  0
 10  9  1  0
 10 11  2  0
 11 12  1  0
 12 13  2  0
 14 13  1  0
 15  7  1  0
 16 15  2  0
 18 19  1  1
 18 17  1  0
 20 18  1  0
 21 20  1  1
 21 22  1  0
 22 15  1  0
 23 21  1  0
 24 23  1  0
 25 23  2  0
M  END
$$$$
