AFL.pdb
     RDKit          3D

 25 25  0  0  1  0  0  0  0  0999 V2000
    9.7301  -18.8052   20.9350 C   0  0  0  0  0  0  0  0  0  0  0  0
    9.1728  -17.4739   20.4543 C   0  0  2  0  0  0  0  0  0  0  0  0
    9.9471  -17.0738   19.2982 N   0  0  0  0  0  0  0  0  0  0  0  0
    9.3454  -16.4928   21.5618 C   0  0  0  0  0  0  0  0  0  0  0  0
   10.4751  -15.8950   21.6026 O   0  0  0  0  0  0  0  0  0  0  0  0
    8.3399  -16.2314   22.5076 N   0  0  0  0  0  0  0  0  0  0  0  0
    8.5147  -15.2255   23.5805 C   0  0  1  0  0  0  0  0  0  0  0  0
    7.1612  -14.7397   23.9504 C   0  0  0  0  0  0  0  0  0  0  0  0
    7.0582  -13.7929   25.0259 C   0  0  0  0  0  0  0  0  0  0  0  0
    7.4388  -12.4756   24.9314 C   0  0  0  0  0  0  0  0  0  0  0  0
    7.3162  -11.6202   26.0347 C   0  0  0  0  0  0  0  0  0  0  0  0
    6.8189  -12.0617   27.2292 C   0  0  0  0  0  0  0  0  0  0  0  0
    6.4331  -13.3770   27.3403 C   0  0  0  0  0  0  0  0  0  0  0  0
    6.5610  -14.1973   26.2507 C   0  0  0  0  0  0  0  0  0  0  0  0
    9.1695  -15.9076   24.7012 C   0  0  0  0  0  0  0  0  0  0  0  0
    8.6760  -17.0271   25.0805 O   0  0  0  0  0  0  0  0  0  0  0  0
   13.0559  -17.6191   24.5993 C   0  0  0  0  0  0  0  0  0  0  0  0
   12.9534  -16.1704   25.0885 C   0  0  2  0  0  0  0  0  0  0  0  0
   14.3251  -15.5602   24.9761 C   0  0  0  0  0  0  0  0  0  0  0  0
   12.3994  -16.1145   26.4767 C   0  0  0  0  0  0  0  0  0  0  0  0
   10.9059  -16.3856   26.4443 C   0  0  2  0  0  0  0  0  0  0  0  0
   10.3060  -15.4841   25.4294 N   0  0  0  0  0  0  0  0  0  0  0  0
   10.3037  -16.0646   27.7299 C   0  0  0  0  0  0  0  0  0  0  0  0
    9.3735  -15.0146   27.8676 O   0  0  0  0  0  0  0  0  0  0  0  0
   10.6113  -16.7307   28.7703 O   0  0  0  0  0  0  0  0  0  0  0  0
  2  1  1  1
  2  3  1  0
  4  2  1  0
  4  5  2  0
  6  4  1  0
  7  6  1  0
  7  8  1  1
  8  9  1  0
  9 14  2  0
 10  9  1  0
 10 11  2  0
 11 12  1  0
 12 13  2  0
 14 13  1  0
 15  7  1  0
 16 15  2  0
 18 19  1  1
 18 17  1  0
 20 18  1  0
 21 20  1  1
 21 22  1  0
 22 15  1  0
 23 21  1  0
 24 23  1  0
 25 23  2  0
M  END
$$$$
