MFK.pdb
     RDKit          3D

 29 29  0  0  1  0  0  0  0  0999 V2000
    9.8096  -21.1337   21.2881 C   0  0  0  0  0  0  0  0  0  0  0  0
    9.0099  -20.9075   19.6752 S   0  0  0  0  0  0  0  0  0  0  0  0
    9.0531  -19.1483   19.2385 C   0  0  0  0  0  0  0  0  0  0  0  0
    9.2704  -18.3005   20.4737 C   0  0  0  0  0  0  0  0  0  0  0  0
    9.2792  -16.8313   20.1699 C   0  0  2  0  0  0  0  0  0  0  0  0
   10.3822  -16.4919   19.3052 N   0  0  0  0  0  0  0  0  0  0  0  0
    9.4003  -16.0406   21.4327 C   0  0  0  0  0  0  0  0  0  0  0  0
   10.5471  -15.8593   21.9011 O   0  0  0  0  0  0  0  0  0  0  0  0
    8.2782  -15.5020   22.1007 N   0  0  0  0  0  0  0  0  0  0  0  0
    8.3376  -14.8321   23.3658 C   0  0  1  0  0  0  0  0  0  0  0  0
    7.1926  -13.9273   23.6325 C   0  0  0  0  0  0  0  0  0  0  0  0
    7.1011  -13.3081   24.9292 C   0  0  0  0  0  0  0  0  0  0  0  0
    6.2833  -13.7668   25.9380 C   0  0  0  0  0  0  0  0  0  0  0  0
    6.1918  -13.1843   27.1669 C   0  0  0  0  0  0  0  0  0  0  0  0
    6.9370  -12.0796   27.4566 C   0  0  0  0  0  0  0  0  0  0  0  0
    7.7732  -11.5792   26.4800 C   0  0  0  0  0  0  0  0  0  0  0  0
    7.8497  -12.1916   25.2316 C   0  0  0  0  0  0  0  0  0  0  0  0
    8.7228  -15.7699   24.4077 C   0  0  0  0  0  0  0  0  0  0  0  0
    8.0939  -16.8601   24.4731 O   0  0  0  0  0  0  0  0  0  0  0  0
    9.7491  -15.5746   25.3658 N   0  0  0  0  0  0  0  0  0  0  0  0
   10.1007  -16.6703   26.2768 C   0  0  1  0  0  0  0  0  0  0  0  0
   11.3803  -17.3191   25.7861 C   0  0  0  0  0  0  0  0  0  0  0  0
   11.8654  -18.4507   26.6063 C   0  0  0  0  0  0  0  0  0  0  0  0
   13.0954  -19.1315   26.0924 C   0  0  0  0  0  0  0  0  0  0  0  0
   13.5264  -20.3080   26.9183 C   0  0  0  0  0  0  0  0  0  0  0  0
   14.6308  -20.9570   26.2316 N   0  0  0  0  0  0  0  0  0  0  0  0
   10.3064  -16.1347   27.6256 C   0  0  0  0  0  0  0  0  0  0  0  0
   10.1831  -14.7913   27.9607 O   0  0  0  0  0  0  0  0  0  0  0  0
   10.6181  -16.9325   28.5585 O   0  0  0  0  0  0  0  0  0  0  0  0
  2  1  1  0
  3  2  1  0
  4  3  1  0
  5  4  1  0
  5  6  1  6
  7  5  1  0
  7  8  2  0
  9  7  1  0
 10  9  1  0
 10 11  1  1
 12 11  1  0
 12 13  2  0
 14 13  1  0
 15 14  2  0
 16 15  1  0
 16 17  2  0
 17 12  1  0
 18 20  1  0
 18 10  1  0
 19 18  2  0
 21 20  1  0
 21 27  1  0
 21 22  1  6
 23 22  1  0
 24 25  1  0
 24 23  1  0
 25 26  1  0
 27 29  2  0
 27 28  1  0
M  END
$$$$
