MFK.pdb
     RDKit          3D

 29 29  0  0  1  0  0  0  0  0999 V2000
    7.9186  -11.9500   18.1687 C   0  0  0  0  0  0  0  0  0  0  0  0
    7.8844  -13.3129   16.9715 S   0  0  0  0  0  0  0  0  0  0  0  0
    8.0894  -14.8808   17.8587 C   0  0  0  0  0  0  0  0  0  0  0  0
    8.8325  -14.6610   19.1592 C   0  0  0  0  0  0  0  0  0  0  0  0
    8.9468  -15.9140   19.9764 C   0  0  2  0  0  0  0  0  0  0  0  0
    7.7631  -16.7261   19.8402 N   0  0  0  0  0  0  0  0  0  0  0  0
    9.1320  -15.5767   21.4209 C   0  0  0  0  0  0  0  0  0  0  0  0
   10.2834  -15.2724   21.8072 O   0  0  0  0  0  0  0  0  0  0  0  0
    8.0645  -15.5914   22.3460 N   0  0  0  0  0  0  0  0  0  0  0  0
    8.1483  -15.0819   23.6824 C   0  0  1  0  0  0  0  0  0  0  0  0
    6.9722  -14.2837   24.1069 C   0  0  0  0  0  0  0  0  0  0  0  0
    6.9852  -13.6976   25.4221 C   0  0  0  0  0  0  0  0  0  0  0  0
    7.5227  -12.4606   25.7011 C   0  0  0  0  0  0  0  0  0  0  0  0
    7.5388  -11.9012   26.9439 C   0  0  0  0  0  0  0  0  0  0  0  0
    7.0011  -12.5724   28.0023 C   0  0  0  0  0  0  0  0  0  0  0  0
    6.4493  -13.8166   27.7768 C   0  0  0  0  0  0  0  0  0  0  0  0
    6.4447  -14.3677   26.4978 C   0  0  0  0  0  0  0  0  0  0  0  0
    8.6291  -16.1187   24.5809 C   0  0  0  0  0  0  0  0  0  0  0  0
    7.9789  -17.1972   24.6284 O   0  0  0  0  0  0  0  0  0  0  0  0
    9.7714  -16.0329   25.4158 N   0  0  0  0  0  0  0  0  0  0  0  0
   10.3514  -17.2620   25.9700 C   0  0  1  0  0  0  0  0  0  0  0  0
   11.6840  -17.5188   25.2938 C   0  0  0  0  0  0  0  0  0  0  0  0
   12.4208  -18.7031   25.7869 C   0  0  0  0  0  0  0  0  0  0  0  0
   13.6592  -19.0500   25.0211 C   0  0  0  0  0  0  0  0  0  0  0  0
   14.4405  -20.1853   25.6150 C   0  0  0  0  0  0  0  0  0  0  0  0
   13.7609  -21.4239   25.2734 N   0  0  0  0  0  0  0  0  0  0  0  0
   10.5550  -17.0969   27.4121 C   0  0  0  0  0  0  0  0  0  0  0  0
   10.2561  -15.9362   28.1161 O   0  0  0  0  0  0  0  0  0  0  0  0
   11.0341  -18.0633   28.0758 O   0  0  0  0  0  0  0  0  0  0  0  0
  2  1  1  0
  3  2  1  0
  4  3  1  0
  5  4  1  0
  5  6  1  1
  7  5  1  0
  7  8  2  0
  9  7  1  0
 10  9  1  0
 10 11  1  1
 12 11  1  0
 12 13  2  0
 14 13  1  0
 15 14  2  0
 16 15  1  0
 16 17  2  0
 17 12  1  0
 18 20  1  0
 18 10  1  0
 19 18  2  0
 21 20  1  0
 21 27  1  0
 21 22  1  6
 23 22  1  0
 24 25  1  0
 24 23  1  0
 25 26  1  0
 27 29  2  0
 27 28  1  0
M  END
$$$$
