MFK.pdb
     RDKit          3D

 29 29  0  0  1  0  0  0  0  0999 V2000
    6.9709  -22.3842   23.9816 C   0  0  0  0  0  0  0  0  0  0  0  0
    6.2992  -22.6370   22.3151 S   0  0  0  0  0  0  0  0  0  0  0  0
    5.9128  -21.0229   21.5852 C   0  0  0  0  0  0  0  0  0  0  0  0
    6.6402  -19.9193   22.3234 C   0  0  0  0  0  0  0  0  0  0  0  0
    6.2674  -18.5527   21.8292 C   0  0  2  0  0  0  0  0  0  0  0  0
    6.5609  -18.4166   20.4240 N   0  0  0  0  0  0  0  0  0  0  0  0
    7.0244  -17.5047   22.5798 C   0  0  0  0  0  0  0  0  0  0  0  0
    8.1339  -17.1460   22.1240 O   0  0  0  0  0  0  0  0  0  0  0  0
    6.5327  -16.9183   23.7671 N   0  0  0  0  0  0  0  0  0  0  0  0
    7.2412  -15.9389   24.5363 C   0  0  1  0  0  0  0  0  0  0  0  0
    6.3744  -15.0823   25.3821 C   0  0  0  0  0  0  0  0  0  0  0  0
    7.0009  -14.0784   26.2026 C   0  0  0  0  0  0  0  0  0  0  0  0
    7.6748  -14.3589   27.3705 C   0  0  0  0  0  0  0  0  0  0  0  0
    8.2688  -13.4130   28.1517 C   0  0  0  0  0  0  0  0  0  0  0  0
    8.2165  -12.0986   27.7920 C   0  0  0  0  0  0  0  0  0  0  0  0
    7.5529  -11.7636   26.6298 C   0  0  0  0  0  0  0  0  0  0  0  0
    6.9535  -12.7479   25.8480 C   0  0  0  0  0  0  0  0  0  0  0  0
    8.4127  -16.5414   25.1510 C   0  0  0  0  0  0  0  0  0  0  0  0
    8.2629  -17.6515   25.7284 O   0  0  0  0  0  0  0  0  0  0  0  0
    9.7208  -15.9956   25.1621 N   0  0  0  0  0  0  0  0  0  0  0  0
   10.8489  -16.8391   25.5745 C   0  0  1  0  0  0  0  0  0  0  0  0
   12.0701  -16.4477   24.7654 C   0  0  0  0  0  0  0  0  0  0  0  0
   13.3095  -17.1810   25.1041 C   0  0  0  0  0  0  0  0  0  0  0  0
   14.4998  -16.8488   24.2596 C   0  0  0  0  0  0  0  0  0  0  0  0
   15.7461  -17.5864   24.6526 C   0  0  0  0  0  0  0  0  0  0  0  0
   16.7696  -17.2965   23.6621 N   0  0  0  0  0  0  0  0  0  0  0  0
   11.1161  -16.6313   27.0006 C   0  0  0  0  0  0  0  0  0  0  0  0
   11.7104  -17.5749   27.8303 O   0  0  0  0  0  0  0  0  0  0  0  0
   10.7903  -15.5271   27.5284 O   0  0  0  0  0  0  0  0  0  0  0  0
  2  1  1  0
  3  2  1  0
  4  3  1  0
  5  4  1  0
  5  6  1  6
  7  5  1  0
  7  8  2  0
  9  7  1  0
 10  9  1  0
 10 11  1  1
 12 11  1  0
 12 13  2  0
 14 13  1  0
 15 14  2  0
 16 15  1  0
 16 17  2  0
 17 12  1  0
 18 20  1  0
 18 10  1  0
 19 18  2  0
 21 20  1  0
 21 27  1  0
 21 22  1  6
 23 22  1  0
 24 25  1  0
 24 23  1  0
 25 26  1  0
 27 29  2  0
 27 28  1  0
M  END
$$$$
