MFK.pdb
     RDKit          3D

 29 29  0  0  1  0  0  0  0  0999 V2000
    5.7087  -21.2725   20.7514 C   0  0  0  0  0  0  0  0  0  0  0  0
    7.4410  -21.3350   20.2153 S   0  0  0  0  0  0  0  0  0  0  0  0
    7.9536  -19.6782   19.6867 C   0  0  0  0  0  0  0  0  0  0  0  0
    8.3043  -18.8237   20.8862 C   0  0  0  0  0  0  0  0  0  0  0  0
    8.6093  -17.4032   20.5122 C   0  0  2  0  0  0  0  0  0  0  0  0
    9.7369  -17.3385   19.6157 N   0  0  0  0  0  0  0  0  0  0  0  0
    8.9227  -16.6005   21.7338 C   0  0  0  0  0  0  0  0  0  0  0  0
   10.0992  -16.6217   22.1612 O   0  0  0  0  0  0  0  0  0  0  0  0
    7.9470  -15.8327   22.4075 N   0  0  0  0  0  0  0  0  0  0  0  0
    8.1905  -15.0963   23.6122 C   0  0  1  0  0  0  0  0  0  0  0  0
    7.2121  -14.0126   23.8743 C   0  0  0  0  0  0  0  0  0  0  0  0
    7.2524  -13.3529   25.1537 C   0  0  0  0  0  0  0  0  0  0  0  0
    6.2729  -13.4868   26.1125 C   0  0  0  0  0  0  0  0  0  0  0  0
    6.3052  -12.8642   27.3246 C   0  0  0  0  0  0  0  0  0  0  0  0
    7.3515  -12.0514   27.6476 C   0  0  0  0  0  0  0  0  0  0  0  0
    8.3601  -11.8830   26.7215 C   0  0  0  0  0  0  0  0  0  0  0  0
    8.3050  -12.5297   25.4894 C   0  0  0  0  0  0  0  0  0  0  0  0
    8.5038  -16.0098   24.6989 C   0  0  0  0  0  0  0  0  0  0  0  0
    7.6394  -16.8758   25.0007 O   0  0  0  0  0  0  0  0  0  0  0  0
    9.7007  -16.0213   25.4581 N   0  0  0  0  0  0  0  0  0  0  0  0
    9.9016  -17.0665   26.4687 C   0  0  1  0  0  0  0  0  0  0  0  0
   10.7460  -18.1714   25.8645 C   0  0  0  0  0  0  0  0  0  0  0  0
   11.1103  -19.2634   26.7937 C   0  0  0  0  0  0  0  0  0  0  0  0
   11.9263  -20.3664   26.1954 C   0  0  0  0  0  0  0  0  0  0  0  0
   12.2795  -21.4540   27.1671 C   0  0  0  0  0  0  0  0  0  0  0  0
   13.4736  -21.0421   27.8861 N   0  0  0  0  0  0  0  0  0  0  0  0
   10.5940  -16.4960   27.6279 C   0  0  0  0  0  0  0  0  0  0  0  0
   10.5400  -17.0282   28.9108 O   0  0  0  0  0  0  0  0  0  0  0  0
   11.2903  -15.4501   27.4693 O   0  0  0  0  0  0  0  0  0  0  0  0
  2  1  1  0
  3  2  1  0
  4  3  1  0
  5  4  1  0
  5  6  1  6
  7  5  1  0
  7  8  2  0
  9  7  1  0
 10  9  1  0
 10 11  1  1
 12 11  1  0
 12 13  2  0
 14 13  1  0
 15 14  2  0
 16 15  1  0
 16 17  2  0
 17 12  1  0
 18 20  1  0
 18 10  1  0
 19 18  2  0
 21 20  1  0
 21 27  1  0
 21 22  1  6
 23 22  1  0
 24 25  1  0
 24 23  1  0
 25 26  1  0
 27 29  2  0
 27 28  1  0
M  END
$$$$
