MFK.pdb
     RDKit          3D

 29 29  0  0  1  0  0  0  0  0999 V2000
    9.1312  -17.1737   16.1722 C   0  0  0  0  0  0  0  0  0  0  0  0
    8.7061  -15.4098   16.1878 S   0  0  0  0  0  0  0  0  0  0  0  0
    7.3620  -15.1388   17.3740 C   0  0  0  0  0  0  0  0  0  0  0  0
    7.8747  -14.4133   18.5998 C   0  0  0  0  0  0  0  0  0  0  0  0
    8.5312  -15.3367   19.5833 C   0  0  2  0  0  0  0  0  0  0  0  0
    7.7321  -16.5191   19.7905 N   0  0  0  0  0  0  0  0  0  0  0  0
    8.7171  -14.6487   20.8973 C   0  0  0  0  0  0  0  0  0  0  0  0
    9.5438  -13.7101   20.9538 O   0  0  0  0  0  0  0  0  0  0  0  0
    8.0000  -15.0204   22.0562 N   0  0  0  0  0  0  0  0  0  0  0  0
    8.1119  -14.3575   23.3213 C   0  0  1  0  0  0  0  0  0  0  0  0
    6.8137  -14.0844   23.9852 C   0  0  0  0  0  0  0  0  0  0  0  0
    6.8254  -13.3808   25.2414 C   0  0  0  0  0  0  0  0  0  0  0  0
    6.9676  -12.0152   25.3500 C   0  0  0  0  0  0  0  0  0  0  0  0
    6.9804  -11.3439   26.5362 C   0  0  0  0  0  0  0  0  0  0  0  0
    6.8476  -12.0267   27.7091 C   0  0  0  0  0  0  0  0  0  0  0  0
    6.7021  -13.3975   27.6560 C   0  0  0  0  0  0  0  0  0  0  0  0
    6.6921  -14.0615   26.4319 C   0  0  0  0  0  0  0  0  0  0  0  0
    9.1668  -14.9700   24.1123 C   0  0  0  0  0  0  0  0  0  0  0  0
    9.4658  -14.4248   25.2084 O   0  0  0  0  0  0  0  0  0  0  0  0
    9.8976  -16.1343   23.7663 N   0  0  0  0  0  0  0  0  0  0  0  0
   11.0974  -16.4855   24.5351 C   0  0  1  0  0  0  0  0  0  0  0  0
   11.0190  -17.9509   24.9166 C   0  0  0  0  0  0  0  0  0  0  0  0
   10.4946  -18.2197   26.2735 C   0  0  0  0  0  0  0  0  0  0  0  0
   10.3607  -19.6668   26.6320 C   0  0  0  0  0  0  0  0  0  0  0  0
    9.8780  -19.9014   28.0334 C   0  0  0  0  0  0  0  0  0  0  0  0
    9.6725  -21.3302   28.2032 N   0  0  0  0  0  0  0  0  0  0  0  0
   12.2879  -16.2543   23.7119 C   0  0  0  0  0  0  0  0  0  0  0  0
   12.2579  -16.0201   22.3421 O   0  0  0  0  0  0  0  0  0  0  0  0
   13.4260  -16.2659   24.2673 O   0  0  0  0  0  0  0  0  0  0  0  0
  2  1  1  0
  3  2  1  0
  4  3  1  0
  5  4  1  0
  5  6  1  1
  7  5  1  0
  7  8  2  0
  9  7  1  0
 10  9  1  0
 10 11  1  1
 12 11  1  0
 12 13  2  0
 14 13  1  0
 15 14  2  0
 16 15  1  0
 16 17  2  0
 17 12  1  0
 18 20  1  0
 18 10  1  0
 19 18  2  0
 21 20  1  0
 21 27  1  0
 21 22  1  6
 23 22  1  0
 24 25  1  0
 24 23  1  0
 25 26  1  0
 27 29  2  0
 27 28  1  0
M  END
$$$$
