YCN.pdb
     RDKit          3D

 27 27  0  0  1  0  0  0  0  0999 V2000
   22.6810  -21.6496   -8.5507 O   0  0  0  0  0  0  0  0  0  0  0  0
   23.6098  -21.1852   -9.4864 C   0  0  0  0  0  0  0  0  0  0  0  0
   24.9113  -21.0119   -9.1329 C   0  0  0  0  0  0  0  0  0  0  0  0
   25.8518  -20.5523  -10.0429 C   0  0  0  0  0  0  0  0  0  0  0  0
   25.4662  -20.2641  -11.3312 C   0  0  0  0  0  0  0  0  0  0  0  0
   26.4902  -19.7732  -12.2820 C   0  0  0  0  0  0  0  0  0  0  0  0
   26.5639  -20.6671  -13.5077 C   0  0  2  0  0  0  0  0  0  0  0  0
   27.5286  -21.7050  -13.2391 N   0  0  0  0  0  0  0  0  0  0  0  0
   27.0072  -19.8358  -14.6579 C   0  0  0  0  0  0  0  0  0  0  0  0
   28.1845  -19.3526  -14.6506 O   0  0  0  0  0  0  0  0  0  0  0  0
   24.1490  -20.4400  -11.6877 C   0  0  0  0  0  0  0  0  0  0  0  0
   23.2078  -20.8988  -10.7811 C   0  0  0  0  0  0  0  0  0  0  0  0
   26.1714  -19.5540  -15.7721 N   0  0  0  0  0  0  0  0  0  0  0  0
   26.6731  -18.8859  -16.9538 C   0  0  1  0  0  0  0  0  0  0  0  0
   27.8760  -19.6223  -17.5302 C   0  0  0  0  0  0  0  0  0  0  0  0
   28.8136  -18.5866  -18.6600 S   0  0  0  0  0  0  0  0  0  0  0  0
   25.6104  -18.7543  -17.9948 C   0  0  0  0  0  0  0  0  0  0  0  0
   24.9097  -19.7597  -18.2514 O   0  0  0  0  0  0  0  0  0  0  0  0
   22.0314  -17.2230  -18.0021 N   0  0  0  0  0  0  0  0  0  0  0  0
   22.5405  -16.0154  -18.5823 C   0  0  0  0  0  0  0  0  0  0  0  0
   21.9483  -14.9713  -18.2333 O   0  0  0  0  0  0  0  0  0  0  0  0
   23.6773  -16.0165  -19.5186 C   0  0  0  0  0  0  0  0  0  0  0  0
   24.2552  -17.3893  -19.6413 C   0  0  2  0  0  0  0  0  0  0  0  0
   25.3624  -17.5696  -18.6916 N   0  0  0  0  0  0  0  0  0  0  0  0
   24.8809  -17.5216  -20.9746 C   0  0  0  0  0  0  0  0  0  0  0  0
   26.0944  -17.3503  -21.1945 O   0  0  0  0  0  0  0  0  0  0  0  0
   24.1016  -17.8549  -22.0678 O   0  0  0  0  0  0  0  0  0  0  0  0
  1  2  1  0
  2  3  2  0
  3  4  1  0
  5  6  1  0
  5  4  2  0
  6  7  1  0
  7  8  1  1
  7  9  1  0
  9 13  1  0
  9 10  2  0
 11  5  1  0
 12 11  2  0
 12  2  1  0
 13 14  1  0
 14 15  1  6
 15 16  1  0
 17 14  1  0
 17 18  2  0
 19 20  1  0
 20 21  2  0
 22 20  1  0
 23 22  1  6
 23 24  1  0
 24 17  1  0
 25 23  1  0
 26 25  2  0
 27 25  1  0
M  END
$$$$
