YCN.pdb
     RDKit          3D

 27 27  0  0  1  0  0  0  0  0999 V2000
   30.7261  -10.6936  -16.9758 O   0  0  0  0  0  0  0  0  0  0  0  0
   29.3757  -10.3480  -16.8727 C   0  0  0  0  0  0  0  0  0  0  0  0
   28.6572  -10.7088  -15.7761 C   0  0  0  0  0  0  0  0  0  0  0  0
   27.3162  -10.3779  -15.6503 C   0  0  0  0  0  0  0  0  0  0  0  0
   26.6943   -9.6702  -16.6522 C   0  0  0  0  0  0  0  0  0  0  0  0
   25.2612   -9.3316  -16.4934 C   0  0  0  0  0  0  0  0  0  0  0  0
   24.4305  -10.5834  -16.2705 C   0  0  2  0  0  0  0  0  0  0  0  0
   24.6776  -11.4788  -17.3738 N   0  0  0  0  0  0  0  0  0  0  0  0
   22.9981  -10.1860  -16.2394 C   0  0  0  0  0  0  0  0  0  0  0  0
   22.3619  -10.0901  -17.3374 O   0  0  0  0  0  0  0  0  0  0  0  0
   27.4223   -9.3056  -17.7613 C   0  0  0  0  0  0  0  0  0  0  0  0
   28.7616   -9.6347  -17.8896 C   0  0  0  0  0  0  0  0  0  0  0  0
   22.3023   -9.9063  -15.0323 N   0  0  0  0  0  0  0  0  0  0  0  0
   20.8849   -9.6146  -15.0175 C   0  0  1  0  0  0  0  0  0  0  0  0
   20.2042  -10.2661  -13.8200 C   0  0  0  0  0  0  0  0  0  0  0  0
   18.4685   -9.8143  -13.7121 S   0  0  0  0  0  0  0  0  0  0  0  0
   20.6341   -8.1425  -15.0066 C   0  0  0  0  0  0  0  0  0  0  0  0
   21.3306   -7.4321  -14.2462 O   0  0  0  0  0  0  0  0  0  0  0  0
   18.7885   -3.3854  -15.9492 N   0  0  0  0  0  0  0  0  0  0  0  0
   18.6489   -4.1822  -17.1323 C   0  0  0  0  0  0  0  0  0  0  0  0
   18.2234   -3.5688  -18.1350 O   0  0  0  0  0  0  0  0  0  0  0  0
   18.9849   -5.6160  -17.1534 C   0  0  0  0  0  0  0  0  0  0  0  0
   19.3952   -6.0792  -15.7930 C   0  0  2  0  0  0  0  0  0  0  0  0
   19.6652   -7.5240  -15.7998 N   0  0  0  0  0  0  0  0  0  0  0  0
   18.2490   -5.9174  -14.8728 C   0  0  0  0  0  0  0  0  0  0  0  0
   17.2651   -6.6798  -14.8451 O   0  0  0  0  0  0  0  0  0  0  0  0
   18.2345   -4.8662  -13.9737 O   0  0  0  0  0  0  0  0  0  0  0  0
  1  2  1  0
  2  3  2  0
  3  4  1  0
  5  6  1  0
  5  4  2  0
  6  7  1  0
  7  8  1  6
  7  9  1  0
  9 13  1  0
  9 10  2  0
 11  5  1  0
 12 11  2  0
 12  2  1  0
 13 14  1  0
 14 15  1  1
 15 16  1  0
 17 14  1  0
 17 18  2  0
 19 20  1  0
 20 21  2  0
 22 20  1  0
 23 22  1  6
 23 24  1  0
 24 17  1  0
 25 23  1  0
 26 25  2  0
 27 25  1  0
M  END
$$$$
