YCN.pdb
     RDKit          3D

 27 27  0  0  1  0  0  0  0  0999 V2000
   30.9473  -21.5725   -9.6275 O   0  0  0  0  0  0  0  0  0  0  0  0
   29.8575  -21.1433  -10.3904 C   0  0  0  0  0  0  0  0  0  0  0  0
   30.0442  -20.6904  -11.6588 C   0  0  0  0  0  0  0  0  0  0  0  0
   28.9793  -20.2590  -12.4358 C   0  0  0  0  0  0  0  0  0  0  0  0
   27.7054  -20.2874  -11.9181 C   0  0  0  0  0  0  0  0  0  0  0  0
   26.5867  -19.8194  -12.7684 C   0  0  0  0  0  0  0  0  0  0  0  0
   26.0412  -20.9537  -13.6183 C   0  0  2  0  0  0  0  0  0  0  0  0
   27.0736  -21.3454  -14.5462 N   0  0  0  0  0  0  0  0  0  0  0  0
   24.8520  -20.4475  -14.3533 C   0  0  0  0  0  0  0  0  0  0  0  0
   25.0279  -19.7599  -15.4097 O   0  0  0  0  0  0  0  0  0  0  0  0
   27.5177  -20.7460  -10.6345 C   0  0  0  0  0  0  0  0  0  0  0  0
   28.5793  -21.1774   -9.8565 C   0  0  0  0  0  0  0  0  0  0  0  0
   23.5194  -20.6976  -13.9277 N   0  0  0  0  0  0  0  0  0  0  0  0
   22.4024  -20.6513  -14.8468 C   0  0  1  0  0  0  0  0  0  0  0  0
   22.6545  -21.5376  -16.0603 C   0  0  0  0  0  0  0  0  0  0  0  0
   21.4020  -21.3058  -17.3274 S   0  0  0  0  0  0  0  0  0  0  0  0
   21.1311  -21.0564  -14.1762 C   0  0  0  0  0  0  0  0  0  0  0  0
   21.1708  -22.0095  -13.3651 O   0  0  0  0  0  0  0  0  0  0  0  0
   16.0971  -21.4291  -12.8640 N   0  0  0  0  0  0  0  0  0  0  0  0
   16.3816  -20.0698  -13.2183 C   0  0  0  0  0  0  0  0  0  0  0  0
   15.4562  -19.2604  -12.9925 O   0  0  0  0  0  0  0  0  0  0  0  0
   17.6718  -19.6682  -13.8041 C   0  0  0  0  0  0  0  0  0  0  0  0
   18.6500  -20.7965  -13.7434 C   0  0  2  0  0  0  0  0  0  0  0  0
   19.9068  -20.4260  -14.4093 N   0  0  0  0  0  0  0  0  0  0  0  0
   18.1219  -21.9236  -14.5420 C   0  0  0  0  0  0  0  0  0  0  0  0
   18.1592  -21.9738  -15.7854 O   0  0  0  0  0  0  0  0  0  0  0  0
   17.5440  -23.0056  -13.9026 O   0  0  0  0  0  0  0  0  0  0  0  0
  1  2  1  0
  2  3  2  0
  3  4  1  0
  5  6  1  0
  5  4  2  0
  6  7  1  0
  7  8  1  6
  7  9  1  0
  9 13  1  0
  9 10  2  0
 11  5  1  0
 12 11  2  0
 12  2  1  0
 13 14  1  0
 14 15  1  6
 15 16  1  0
 17 14  1  0
 17 18  2  0
 19 20  1  0
 20 21  2  0
 22 20  1  0
 23 22  1  6
 23 24  1  0
 24 17  1  0
 25 23  1  0
 26 25  2  0
 27 25  1  0
M  END
$$$$
