YCN.pdb
     RDKit          3D

 27 27  0  0  1  0  0  0  0  0999 V2000
   27.0876   -4.7418  -19.1560 O   0  0  0  0  0  0  0  0  0  0  0  0
   25.9443   -5.2335  -18.5196 C   0  0  0  0  0  0  0  0  0  0  0  0
   25.3584   -4.5245  -17.5181 C   0  0  0  0  0  0  0  0  0  0  0  0
   24.2237   -4.9910  -16.8711 C   0  0  0  0  0  0  0  0  0  0  0  0
   23.6750   -6.1952  -17.2456 C   0  0  0  0  0  0  0  0  0  0  0  0
   22.4645   -6.6708  -16.5370 C   0  0  0  0  0  0  0  0  0  0  0  0
   22.8382   -7.4228  -15.2715 C   0  0  2  0  0  0  0  0  0  0  0  0
   23.5418   -8.6199  -15.6614 N   0  0  0  0  0  0  0  0  0  0  0  0
   21.5827   -7.7723  -14.5558 C   0  0  0  0  0  0  0  0  0  0  0  0
   20.8756   -8.7379  -14.9889 O   0  0  0  0  0  0  0  0  0  0  0  0
   24.2686   -6.9117  -18.2591 C   0  0  0  0  0  0  0  0  0  0  0  0
   25.4017   -6.4482  -18.9070 C   0  0  0  0  0  0  0  0  0  0  0  0
   21.1327   -7.0733  -13.4033 N   0  0  0  0  0  0  0  0  0  0  0  0
   19.9881   -7.5188  -12.6380 C   0  0  1  0  0  0  0  0  0  0  0  0
   20.3872   -8.5863  -11.6267 C   0  0  0  0  0  0  0  0  0  0  0  0
   21.7924   -8.0712  -10.6325 S   0  0  0  0  0  0  0  0  0  0  0  0
   19.3260   -6.3775  -11.9384 C   0  0  0  0  0  0  0  0  0  0  0  0
   20.0410   -5.4181  -11.5697 O   0  0  0  0  0  0  0  0  0  0  0  0
   13.7619   -3.7581  -10.9609 N   0  0  0  0  0  0  0  0  0  0  0  0
   15.1598   -4.0156  -10.7768 C   0  0  0  0  0  0  0  0  0  0  0  0
   15.7602   -3.1847  -10.0614 O   0  0  0  0  0  0  0  0  0  0  0  0
   15.8284   -5.1760  -11.3897 C   0  0  0  0  0  0  0  0  0  0  0  0
   17.2788   -5.1967  -11.0298 C   0  0  2  0  0  0  0  0  0  0  0  0
   17.9547   -6.3298  -11.6776 N   0  0  0  0  0  0  0  0  0  0  0  0
   17.4027   -5.4660   -9.5811 C   0  0  0  0  0  0  0  0  0  0  0  0
   17.6401   -6.5893   -9.0993 O   0  0  0  0  0  0  0  0  0  0  0  0
   17.2518   -4.4310   -8.6758 O   0  0  0  0  0  0  0  0  0  0  0  0
  1  2  1  0
  2  3  2  0
  3  4  1  0
  5  6  1  0
  5  4  2  0
  6  7  1  0
  7  8  1  6
  7  9  1  0
  9 13  1  0
  9 10  2  0
 11  5  1  0
 12 11  2  0
 12  2  1  0
 13 14  1  0
 14 15  1  1
 15 16  1  0
 17 14  1  0
 17 18  2  0
 19 20  1  0
 20 21  2  0
 22 20  1  0
 23 22  1  6
 23 24  1  0
 24 17  1  0
 25 23  1  0
 26 25  2  0
 27 25  1  0
M  END
$$$$
