YCN.pdb
     RDKit          3D

 27 27  0  0  1  0  0  0  0  0999 V2000
   21.0688  -18.2957  -16.4850 O   0  0  0  0  0  0  0  0  0  0  0  0
   22.4284  -18.0219  -16.3111 C   0  0  0  0  0  0  0  0  0  0  0  0
   23.0946  -17.2549  -17.2149 C   0  0  0  0  0  0  0  0  0  0  0  0
   24.4435  -16.9691  -17.0648 C   0  0  0  0  0  0  0  0  0  0  0  0
   25.1272  -17.4692  -15.9813 C   0  0  0  0  0  0  0  0  0  0  0  0
   26.5673  -17.1504  -15.8462 C   0  0  0  0  0  0  0  0  0  0  0  0
   27.4255  -18.2976  -16.3501 C   0  0  2  0  0  0  0  0  0  0  0  0
   26.8446  -18.7755  -17.5807 N   0  0  0  0  0  0  0  0  0  0  0  0
   27.4098  -19.3708  -15.3212 C   0  0  0  0  0  0  0  0  0  0  0  0
   26.4529  -20.2099  -15.3215 O   0  0  0  0  0  0  0  0  0  0  0  0
   24.4522  -18.2452  -15.0675 C   0  0  0  0  0  0  0  0  0  0  0  0
   23.1052  -18.5321  -15.2149 C   0  0  0  0  0  0  0  0  0  0  0  0
   28.4205  -19.5036  -14.3311 N   0  0  0  0  0  0  0  0  0  0  0  0
   28.2442  -20.3462  -13.1677 C   0  0  1  0  0  0  0  0  0  0  0  0
   29.4714  -20.2981  -12.2657 C   0  0  0  0  0  0  0  0  0  0  0  0
   29.2675  -21.3268  -10.8068 S   0  0  0  0  0  0  0  0  0  0  0  0
   27.0283  -19.9549  -12.3939 C   0  0  0  0  0  0  0  0  0  0  0  0
   26.8101  -18.7347  -12.2173 O   0  0  0  0  0  0  0  0  0  0  0  0
   22.0345  -19.5210  -10.5811 N   0  0  0  0  0  0  0  0  0  0  0  0
   22.5245  -20.8344  -10.8797 C   0  0  0  0  0  0  0  0  0  0  0  0
   21.8795  -21.7698  -10.3585 O   0  0  0  0  0  0  0  0  0  0  0  0
   23.7012  -21.0535  -11.7378 C   0  0  0  0  0  0  0  0  0  0  0  0
   24.9337  -20.5150  -11.0863 C   0  0  2  0  0  0  0  0  0  0  0  0
   26.1282  -20.8804  -11.8609 N   0  0  0  0  0  0  0  0  0  0  0  0
   25.1128  -21.1895   -9.7826 C   0  0  0  0  0  0  0  0  0  0  0  0
   24.6365  -20.7715   -8.7109 O   0  0  0  0  0  0  0  0  0  0  0  0
   25.8485  -22.3588   -9.7109 O   0  0  0  0  0  0  0  0  0  0  0  0
  1  2  1  0
  2  3  2  0
  3  4  1  0
  5  6  1  0
  5  4  2  0
  6  7  1  0
  7  8  1  6
  7  9  1  0
  9 13  1  0
  9 10  2  0
 11  5  1  0
 12 11  2  0
 12  2  1  0
 13 14  1  0
 14 15  1  1
 15 16  1  0
 17 14  1  0
 17 18  2  0
 19 20  1  0
 20 21  2  0
 22 20  1  0
 23 22  1  6
 23 24  1  0
 24 17  1  0
 25 23  1  0
 26 25  2  0
 27 25  1  0
M  END
$$$$
