YCN.pdb
     RDKit          3D

 27 27  0  0  1  0  0  0  0  0999 V2000
   29.9163  -16.2376  -18.6984 O   0  0  0  0  0  0  0  0  0  0  0  0
   29.0274  -17.0088  -17.9442 C   0  0  0  0  0  0  0  0  0  0  0  0
   28.8125  -16.7215  -16.6327 C   0  0  0  0  0  0  0  0  0  0  0  0
   27.9356  -17.4718  -15.8632 C   0  0  0  0  0  0  0  0  0  0  0  0
   27.2666  -18.5298  -16.4329 C   0  0  0  0  0  0  0  0  0  0  0  0
   26.3376  -19.3154  -15.5883 C   0  0  0  0  0  0  0  0  0  0  0  0
   27.0999  -20.2854  -14.7025 C   0  0  2  0  0  0  0  0  0  0  0  0
   27.6901  -21.2892  -15.5534 N   0  0  0  0  0  0  0  0  0  0  0  0
   26.1312  -20.9099  -13.7632 C   0  0  0  0  0  0  0  0  0  0  0  0
   25.5104  -21.9597  -14.1270 O   0  0  0  0  0  0  0  0  0  0  0  0
   27.4848  -18.8195  -17.7601 C   0  0  0  0  0  0  0  0  0  0  0  0
   28.3598  -18.0720  -18.5308 C   0  0  0  0  0  0  0  0  0  0  0  0
   25.8647  -20.3852  -12.4697 N   0  0  0  0  0  0  0  0  0  0  0  0
   24.8701  -20.9718  -11.5974 C   0  0  1  0  0  0  0  0  0  0  0  0
   25.1325  -20.6039  -10.1422 C   0  0  0  0  0  0  0  0  0  0  0  0
   26.7874  -21.0736   -9.6236 S   0  0  0  0  0  0  0  0  0  0  0  0
   23.4910  -20.5519  -11.9876 C   0  0  0  0  0  0  0  0  0  0  0  0
   23.3131  -19.3611  -12.3310 O   0  0  0  0  0  0  0  0  0  0  0  0
   20.1923  -20.6174  -15.0372 N   0  0  0  0  0  0  0  0  0  0  0  0
   20.0082  -21.9186  -14.4653 C   0  0  0  0  0  0  0  0  0  0  0  0
   19.5274  -22.7731  -15.2408 O   0  0  0  0  0  0  0  0  0  0  0  0
   20.3626  -22.2153  -13.0669 C   0  0  0  0  0  0  0  0  0  0  0  0
   21.0492  -21.0454  -12.4397 C   0  0  2  0  0  0  0  0  0  0  0  0
   22.3967  -21.4197  -11.9876 N   0  0  0  0  0  0  0  0  0  0  0  0
   20.3271  -20.6814  -11.2016 C   0  0  0  0  0  0  0  0  0  0  0  0
   20.7055  -20.9938  -10.0573 O   0  0  0  0  0  0  0  0  0  0  0  0
   19.1560  -19.9494  -11.2807 O   0  0  0  0  0  0  0  0  0  0  0  0
  1  2  1  0
  2  3  2  0
  3  4  1  0
  5  6  1  0
  5  4  2  0
  6  7  1  0
  7  8  1  6
  7  9  1  0
  9 13  1  0
  9 10  2  0
 11  5  1  0
 12 11  2  0
 12  2  1  0
 13 14  1  0
 14 15  1  1
 15 16  1  0
 17 14  1  0
 17 18  2  0
 19 20  1  0
 20 21  2  0
 22 20  1  0
 23 22  1  1
 23 24  1  0
 24 17  1  0
 25 23  1  0
 26 25  2  0
 27 25  1  0
M  END
$$$$
