YCN.pdb
     RDKit          3D

 27 27  0  0  1  0  0  0  0  0999 V2000
   27.9481  -17.6418  -15.6944 O   0  0  0  0  0  0  0  0  0  0  0  0
   27.1261  -16.5207  -15.8403 C   0  0  0  0  0  0  0  0  0  0  0  0
   26.5766  -16.2258  -17.0486 C   0  0  0  0  0  0  0  0  0  0  0  0
   25.7578  -15.1193  -17.2189 C   0  0  0  0  0  0  0  0  0  0  0  0
   25.4924  -14.2993  -16.1472 C   0  0  0  0  0  0  0  0  0  0  0  0
   24.6166  -13.1235  -16.3571 C   0  0  0  0  0  0  0  0  0  0  0  0
   23.3173  -13.2713  -15.5847 C   0  0  2  0  0  0  0  0  0  0  0  0
   22.6567  -14.4633  -16.0569 N   0  0  0  0  0  0  0  0  0  0  0  0
   22.4795  -12.0741  -15.8594 C   0  0  0  0  0  0  0  0  0  0  0  0
   21.7148  -12.0781  -16.8766 O   0  0  0  0  0  0  0  0  0  0  0  0
   26.0490  -14.5987  -14.9251 C   0  0  0  0  0  0  0  0  0  0  0  0
   26.8669  -15.7030  -14.7521 C   0  0  0  0  0  0  0  0  0  0  0  0
   22.4937  -10.9179  -15.0332 N   0  0  0  0  0  0  0  0  0  0  0  0
   21.5662   -9.8250  -15.2326 C   0  0  1  0  0  0  0  0  0  0  0  0
   20.9770   -9.3581  -13.9072 C   0  0  0  0  0  0  0  0  0  0  0  0
   20.5255  -10.7417  -12.8537 S   0  0  0  0  0  0  0  0  0  0  0  0
   22.2210   -8.6784  -15.9303 C   0  0  0  0  0  0  0  0  0  0  0  0
   23.3964   -8.3883  -15.6109 O   0  0  0  0  0  0  0  0  0  0  0  0
   23.2362   -4.7544  -19.1914 N   0  0  0  0  0  0  0  0  0  0  0  0
   22.6699   -5.8870  -19.8627 C   0  0  0  0  0  0  0  0  0  0  0  0
   22.7198   -5.8406  -21.1109 O   0  0  0  0  0  0  0  0  0  0  0  0
   22.0762   -7.0159  -19.1263 C   0  0  0  0  0  0  0  0  0  0  0  0
   22.2340   -6.8227  -17.6528 C   0  0  2  0  0  0  0  0  0  0  0  0
   21.5881   -7.9189  -16.9168 N   0  0  0  0  0  0  0  0  0  0  0  0
   21.4861   -5.6116  -17.2519 C   0  0  0  0  0  0  0  0  0  0  0  0
   21.8337   -4.4513  -17.5401 O   0  0  0  0  0  0  0  0  0  0  0  0
   20.3249   -5.7367  -16.5107 O   0  0  0  0  0  0  0  0  0  0  0  0
  1  2  1  0
  2  3  2  0
  3  4  1  0
  5  6  1  0
  5  4  2  0
  6  7  1  0
  7  8  1  6
  7  9  1  0
  9 13  1  0
  9 10  2  0
 11  5  1  0
 12 11  2  0
 12  2  1  0
 13 14  1  0
 14 15  1  1
 15 16  1  0
 17 14  1  0
 17 18  2  0
 19 20  1  0
 20 21  2  0
 22 20  1  0
 23 22  1  6
 23 24  1  0
 24 17  1  0
 25 23  1  0
 26 25  2  0
 27 25  1  0
M  END
$$$$
