YCN.pdb
     RDKit          3D

 27 27  0  0  1  0  0  0  0  0999 V2000
   16.2641  -11.7632  -18.0536 O   0  0  0  0  0  0  0  0  0  0  0  0
   17.5129  -11.1384  -18.1145 C   0  0  0  0  0  0  0  0  0  0  0  0
   18.5835  -11.7946  -18.6362 C   0  0  0  0  0  0  0  0  0  0  0  0
   19.8328  -11.1963  -18.7076 C   0  0  0  0  0  0  0  0  0  0  0  0
   19.9987   -9.9127  -18.2426 C   0  0  0  0  0  0  0  0  0  0  0  0
   21.3436   -9.2984  -18.3290 C   0  0  0  0  0  0  0  0  0  0  0  0
   22.0655   -9.3854  -16.9956 C   0  0  2  0  0  0  0  0  0  0  0  0
   21.8169  -10.6948  -16.4443 N   0  0  0  0  0  0  0  0  0  0  0  0
   21.5097   -8.3353  -16.1018 C   0  0  0  0  0  0  0  0  0  0  0  0
   20.5481   -8.6348  -15.3238 O   0  0  0  0  0  0  0  0  0  0  0  0
   18.9148   -9.2496  -17.7150 C   0  0  0  0  0  0  0  0  0  0  0  0
   17.6661   -9.8446  -17.6425 C   0  0  0  0  0  0  0  0  0  0  0  0
   22.0058   -7.0039  -16.0760 N   0  0  0  0  0  0  0  0  0  0  0  0
   21.4578   -6.0014  -15.1877 C   0  0  1  0  0  0  0  0  0  0  0  0
   22.5605   -5.3104  -14.3951 C   0  0  0  0  0  0  0  0  0  0  0  0
   21.9047   -4.0357  -13.3119 S   0  0  0  0  0  0  0  0  0  0  0  0
   20.6604   -4.9875  -15.9404 C   0  0  0  0  0  0  0  0  0  0  0  0
   21.1341   -4.5418  -17.0103 O   0  0  0  0  0  0  0  0  0  0  0  0
   15.6092   -2.9698  -17.7332 N   0  0  0  0  0  0  0  0  0  0  0  0
   16.4245   -2.5757  -16.6222 C   0  0  0  0  0  0  0  0  0  0  0  0
   16.4186   -1.3511  -16.3709 O   0  0  0  0  0  0  0  0  0  0  0  0
   17.2066   -3.5497  -15.8420 C   0  0  0  0  0  0  0  0  0  0  0  0
   18.6565   -3.4607  -16.1932 C   0  0  2  0  0  0  0  0  0  0  0  0
   19.4184   -4.5156  -15.5098 N   0  0  0  0  0  0  0  0  0  0  0  0
   19.1980   -2.1965  -15.6497 C   0  0  0  0  0  0  0  0  0  0  0  0
   19.9064   -2.1245  -14.6283 O   0  0  0  0  0  0  0  0  0  0  0  0
   18.9214   -1.0012  -16.2885 O   0  0  0  0  0  0  0  0  0  0  0  0
  1  2  1  0
  2  3  2  0
  3  4  1  0
  5  6  1  0
  5  4  2  0
  6  7  1  0
  7  8  1  1
  7  9  1  0
  9 13  1  0
  9 10  2  0
 11  5  1  0
 12 11  2  0
 12  2  1  0
 13 14  1  0
 14 15  1  6
 15 16  1  0
 17 14  1  0
 17 18  2  0
 19 20  1  0
 20 21  2  0
 22 20  1  0
 23 22  1  1
 23 24  1  0
 24 17  1  0
 25 23  1  0
 26 25  2  0
 27 25  1  0
M  END
$$$$
