LVD.pdb
     RDKit          3D

 24 23  0  0  1  0  0  0  0  0999 V2000
    6.2061  -12.3845   26.0183 C   0  0  0  0  0  0  0  0  0  0  0  0
    6.7340  -13.1660   27.1799 C   0  0  2  0  0  0  0  0  0  0  0  0
    7.6753  -12.2834   27.9677 C   0  0  0  0  0  0  0  0  0  0  0  0
    7.3752  -14.4665   26.7841 C   0  0  0  0  0  0  0  0  0  0  0  0
    6.4188  -15.2103   25.8605 C   0  0  2  0  0  0  0  0  0  0  0  0
    5.7215  -16.2094   26.6144 N   0  0  0  0  0  0  0  0  0  0  0  0
    7.1810  -15.8150   24.7174 C   0  0  0  0  0  0  0  0  0  0  0  0
    7.5572  -17.0109   24.7850 O   0  0  0  0  0  0  0  0  0  0  0  0
    6.6073  -15.0093   20.7640 C   0  0  0  0  0  0  0  0  0  0  0  0
    8.0854  -14.8472   21.2160 C   0  0  2  0  0  0  0  0  0  0  0  0
    8.8785  -15.4138   20.0710 C   0  0  0  0  0  0  0  0  0  0  0  0
    8.2971  -15.6376   22.4655 C   0  0  2  0  0  0  0  0  0  0  0  0
    7.4926  -15.0780   23.5566 N   0  0  0  0  0  0  0  0  0  0  0  0
    9.7380  -15.6697   22.8997 C   0  0  0  0  0  0  0  0  0  0  0  0
   10.2995  -14.5947   23.2626 O   0  0  0  0  0  0  0  0  0  0  0  0
   10.4866  -16.8498   22.9234 N   0  0  0  0  0  0  0  0  0  0  0  0
   11.8469  -17.0218   23.3332 C   0  0  1  0  0  0  0  0  0  0  0  0
   12.1274  -18.2691   24.1526 C   0  0  0  0  0  0  0  0  0  0  0  0
   13.5500  -18.2869   24.5921 C   0  0  0  0  0  0  0  0  0  0  0  0
   14.3015  -17.3229   24.2360 O   0  0  0  0  0  0  0  0  0  0  0  0
   12.7956  -16.8622   22.2428 C   0  0  0  0  0  0  0  0  0  0  0  0
   12.7664  -17.5432   21.1764 O   0  0  0  0  0  0  0  0  0  0  0  0
   14.0936  -19.2826   25.3574 O   0  0  0  0  0  0  0  0  0  0  0  0
   13.8077  -15.9182   22.3379 O   0  0  0  0  0  0  0  0  0  0  0  0
  2  1  1  6
  2  3  1  0
  4  5  1  0
  4  2  1  0
  5  7  1  0
  5  6  1  1
  7 13  1  0
  8  7  2  0
 10 11  1  6
 10  9  1  0
 12 10  1  0
 12 13  1  1
 14 12  1  0
 14 16  1  0
 15 14  2  0
 17 16  1  0
 17 21  1  0
 17 18  1  6
 19 18  1  0
 20 19  2  0
 21 22  2  0
 21 24  1  0
 23 19  1  0
M  END
$$$$
