LVD.pdb
     RDKit          3D

 24 23  0  0  1  0  0  0  0  0999 V2000
    5.6605  -12.4629   26.3254 C   0  0  0  0  0  0  0  0  0  0  0  0
    6.6123  -13.2215   27.1959 C   0  0  2  0  0  0  0  0  0  0  0  0
    7.4397  -12.2313   27.9837 C   0  0  0  0  0  0  0  0  0  0  0  0
    7.4675  -14.1979   26.4381 C   0  0  0  0  0  0  0  0  0  0  0  0
    6.5507  -15.1500   25.6805 C   0  0  2  0  0  0  0  0  0  0  0  0
    6.0754  -16.1583   26.5808 N   0  0  0  0  0  0  0  0  0  0  0  0
    7.2877  -15.7515   24.5194 C   0  0  0  0  0  0  0  0  0  0  0  0
    7.7087  -16.9319   24.5949 O   0  0  0  0  0  0  0  0  0  0  0  0
    6.5272  -15.0355   20.6444 C   0  0  0  0  0  0  0  0  0  0  0  0
    8.0355  -14.8471   20.9684 C   0  0  2  0  0  0  0  0  0  0  0  0
    8.7388  -15.4806   19.7999 C   0  0  0  0  0  0  0  0  0  0  0  0
    8.3483  -15.5622   22.2418 C   0  0  2  0  0  0  0  0  0  0  0  0
    7.5264  -15.0285   23.3329 N   0  0  0  0  0  0  0  0  0  0  0  0
    9.7973  -15.4508   22.6341 C   0  0  0  0  0  0  0  0  0  0  0  0
   10.1436  -14.5778   23.4828 O   0  0  0  0  0  0  0  0  0  0  0  0
   10.7841  -16.2829   22.0980 N   0  0  0  0  0  0  0  0  0  0  0  0
   11.9531  -16.7935   22.7463 C   0  0  1  0  0  0  0  0  0  0  0  0
   11.7033  -17.5469   24.0408 C   0  0  0  0  0  0  0  0  0  0  0  0
   12.9967  -17.9000   24.6886 C   0  0  0  0  0  0  0  0  0  0  0  0
   14.0743  -17.5263   24.1228 O   0  0  0  0  0  0  0  0  0  0  0  0
   12.8276  -17.5303   21.8479 C   0  0  0  0  0  0  0  0  0  0  0  0
   12.6244  -18.7268   21.4887 O   0  0  0  0  0  0  0  0  0  0  0  0
   13.0904  -18.6040   25.8582 O   0  0  0  0  0  0  0  0  0  0  0  0
   13.9623  -16.9213   21.3319 O   0  0  0  0  0  0  0  0  0  0  0  0
  2  1  1  6
  2  3  1  0
  4  5  1  0
  4  2  1  0
  5  7  1  0
  5  6  1  1
  7 13  1  0
  8  7  2  0
 10 11  1  6
 10  9  1  0
 12 10  1  0
 12 13  1  1
 14 12  1  0
 14 16  1  0
 15 14  2  0
 17 16  1  0
 17 21  1  0
 17 18  1  1
 19 18  1  0
 20 19  2  0
 21 22  2  0
 21 24  1  0
 23 19  1  0
M  END
$$$$
