LVD.pdb
     RDKit          3D

 24 23  0  0  1  0  0  0  0  0999 V2000
    6.1455  -16.4048   19.7642 C   0  0  0  0  0  0  0  0  0  0  0  0
    7.4248  -17.0075   20.2534 C   0  0  2  0  0  0  0  0  0  0  0  0
    7.3231  -18.5118   20.1424 C   0  0  0  0  0  0  0  0  0  0  0  0
    7.8023  -16.5661   21.6396 C   0  0  0  0  0  0  0  0  0  0  0  0
    7.8277  -15.0431   21.6670 C   0  0  2  0  0  0  0  0  0  0  0  0
    8.6690  -14.5695   20.6082 N   0  0  0  0  0  0  0  0  0  0  0  0
    8.3069  -14.5653   23.0069 C   0  0  0  0  0  0  0  0  0  0  0  0
    9.5295  -14.6235   23.2864 O   0  0  0  0  0  0  0  0  0  0  0  0
    6.3150  -11.7865   25.2496 C   0  0  0  0  0  0  0  0  0  0  0  0
    6.7530  -13.0304   26.0720 C   0  0  2  0  0  0  0  0  0  0  0  0
    7.2453  -12.4517   27.3697 C   0  0  0  0  0  0  0  0  0  0  0  0
    7.8506  -13.7305   25.3399 C   0  0  2  0  0  0  0  0  0  0  0  0
    7.4213  -14.0471   23.9737 N   0  0  0  0  0  0  0  0  0  0  0  0
    8.2829  -15.0049   26.0143 C   0  0  0  0  0  0  0  0  0  0  0  0
    7.9571  -16.1167   25.5041 O   0  0  0  0  0  0  0  0  0  0  0  0
    9.0404  -15.0106   27.1889 N   0  0  0  0  0  0  0  0  0  0  0  0
   10.1744  -15.8255   27.5016 C   0  0  1  0  0  0  0  0  0  0  0  0
   11.2611  -15.8637   26.4416 C   0  0  0  0  0  0  0  0  0  0  0  0
   11.2219  -17.1604   25.7108 C   0  0  0  0  0  0  0  0  0  0  0  0
   10.4417  -18.0698   26.1412 O   0  0  0  0  0  0  0  0  0  0  0  0
   10.7152  -15.5661   28.8263 C   0  0  0  0  0  0  0  0  0  0  0  0
   11.0036  -16.4726   29.6611 O   0  0  0  0  0  0  0  0  0  0  0  0
   11.9783  -17.4280   24.6024 O   0  0  0  0  0  0  0  0  0  0  0  0
   10.9434  -14.2610   29.2378 O   0  0  0  0  0  0  0  0  0  0  0  0
  2  1  1  1
  2  3  1  0
  4  5  1  0
  4  2  1  0
  5  7  1  0
  5  6  1  6
  7 13  1  0
  8  7  2  0
 10 11  1  1
 10  9  1  0
 12 10  1  0
 12 13  1  6
 14 12  1  0
 14 16  1  0
 15 14  2  0
 17 16  1  0
 17 21  1  0
 17 18  1  6
 19 18  1  0
 20 19  2  0
 21 22  2  0
 21 24  1  0
 23 19  1  0
M  END
$$$$
