LVD.pdb
     RDKit          3D

 24 23  0  0  1  0  0  0  0  0999 V2000
    5.8799  -11.8945   26.1072 C   0  0  0  0  0  0  0  0  0  0  0  0
    6.3962  -12.9465   27.0376 C   0  0  2  0  0  0  0  0  0  0  0  0
    7.2625  -12.2825   28.0838 C   0  0  0  0  0  0  0  0  0  0  0  0
    7.1130  -14.0659   26.3362 C   0  0  0  0  0  0  0  0  0  0  0  0
    6.1724  -14.6583   25.2944 C   0  0  2  0  0  0  0  0  0  0  0  0
    5.1836  -15.4567   25.9561 N   0  0  0  0  0  0  0  0  0  0  0  0
    6.9560  -15.4645   24.2999 C   0  0  0  0  0  0  0  0  0  0  0  0
    7.0962  -16.7000   24.4742 O   0  0  0  0  0  0  0  0  0  0  0  0
    7.1079  -14.6748   20.3384 C   0  0  0  0  0  0  0  0  0  0  0  0
    8.5224  -14.8969   20.9428 C   0  0  2  0  0  0  0  0  0  0  0  0
    9.2317  -15.7272   19.9089 C   0  0  0  0  0  0  0  0  0  0  0  0
    8.3851  -15.6381   22.2321 C   0  0  2  0  0  0  0  0  0  0  0  0
    7.5470  -14.8758   23.1633 N   0  0  0  0  0  0  0  0  0  0  0  0
    9.7096  -15.9118   22.8930 C   0  0  0  0  0  0  0  0  0  0  0  0
   10.3636  -14.9493   23.3911 O   0  0  0  0  0  0  0  0  0  0  0  0
   10.2492  -17.1980   22.9840 N   0  0  0  0  0  0  0  0  0  0  0  0
   11.3400  -17.6398   23.7981 C   0  0  1  0  0  0  0  0  0  0  0  0
   11.0081  -18.7405   24.7902 C   0  0  0  0  0  0  0  0  0  0  0  0
   12.2369  -19.1680   25.5146 C   0  0  0  0  0  0  0  0  0  0  0  0
   12.9174  -20.1284   25.0294 O   0  0  0  0  0  0  0  0  0  0  0  0
   12.5382  -17.9414   23.0314 C   0  0  0  0  0  0  0  0  0  0  0  0
   13.6813  -18.1136   23.5466 O   0  0  0  0  0  0  0  0  0  0  0  0
   12.6742  -18.5853   26.6728 O   0  0  0  0  0  0  0  0  0  0  0  0
   12.4664  -18.0556   21.6506 O   0  0  0  0  0  0  0  0  0  0  0  0
  2  1  1  6
  2  3  1  0
  4  5  1  0
  4  2  1  0
  5  7  1  0
  5  6  1  1
  7 13  1  0
  8  7  2  0
 10 11  1  6
 10  9  1  0
 12 10  1  0
 12 13  1  1
 14 12  1  0
 14 16  1  0
 15 14  2  0
 17 16  1  0
 17 21  1  0
 17 18  1  6
 19 18  1  0
 20 19  2  0
 21 22  2  0
 21 24  1  0
 23 19  1  0
M  END
$$$$
