LVD.pdb
     RDKit          3D

 24 23  0  0  1  0  0  0  0  0999 V2000
    8.5560  -12.0565   20.2026 C   0  0  0  0  0  0  0  0  0  0  0  0
    7.7569  -13.2190   19.7036 C   0  0  2  0  0  0  0  0  0  0  0  0
    7.0763  -12.8189   18.4143 C   0  0  0  0  0  0  0  0  0  0  0  0
    6.7831  -13.7541   20.7157 C   0  0  0  0  0  0  0  0  0  0  0  0
    7.4998  -14.7956   21.5658 C   0  0  2  0  0  0  0  0  0  0  0  0
    6.6844  -15.9704   21.6536 N   0  0  0  0  0  0  0  0  0  0  0  0
    7.7969  -14.2286   22.9235 C   0  0  0  0  0  0  0  0  0  0  0  0
    7.5553  -13.0191   23.1581 O   0  0  0  0  0  0  0  0  0  0  0  0
    7.0640  -12.5235   25.1027 C   0  0  0  0  0  0  0  0  0  0  0  0
    7.2855  -13.8834   25.8218 C   0  0  2  0  0  0  0  0  0  0  0  0
    7.4062  -13.5101   27.2734 C   0  0  0  0  0  0  0  0  0  0  0  0
    8.5482  -14.4978   25.3134 C   0  0  2  0  0  0  0  0  0  0  0  0
    8.3442  -15.0163   23.9567 N   0  0  0  0  0  0  0  0  0  0  0  0
    9.0451  -15.6193   26.1857 C   0  0  0  0  0  0  0  0  0  0  0  0
    8.2110  -16.3105   26.8407 O   0  0  0  0  0  0  0  0  0  0  0  0
   10.4021  -15.9346   26.2992 N   0  0  0  0  0  0  0  0  0  0  0  0
   10.9928  -17.0603   26.9561 C   0  0  1  0  0  0  0  0  0  0  0  0
   12.3979  -17.4154   26.5029 C   0  0  0  0  0  0  0  0  0  0  0  0
   12.5595  -17.1245   25.0515 C   0  0  0  0  0  0  0  0  0  0  0  0
   11.8025  -17.7332   24.2284 O   0  0  0  0  0  0  0  0  0  0  0  0
   10.8888  -16.9944   28.4051 C   0  0  0  0  0  0  0  0  0  0  0  0
   11.1134  -17.9740   29.1743 O   0  0  0  0  0  0  0  0  0  0  0  0
   13.4766  -16.2391   24.5543 O   0  0  0  0  0  0  0  0  0  0  0  0
   10.5246  -15.8052   29.0199 O   0  0  0  0  0  0  0  0  0  0  0  0
  2  1  1  1
  2  3  1  0
  4  5  1  0
  4  2  1  0
  5  7  1  0
  5  6  1  1
  7 13  1  0
  8  7  2  0
 10 11  1  1
 10  9  1  0
 12 10  1  0
 12 13  1  6
 14 12  1  0
 14 16  1  0
 15 14  2  0
 17 16  1  0
 17 21  1  0
 17 18  1  1
 19 18  1  0
 20 19  2  0
 21 22  2  0
 21 24  1  0
 23 19  1  0
M  END
$$$$
