LVD.pdb
     RDKit          3D

 24 23  0  0  1  0  0  0  0  0999 V2000
    4.9141  -16.6998   20.3830 C   0  0  0  0  0  0  0  0  0  0  0  0
    6.2909  -17.2857   20.3703 C   0  0  2  0  0  0  0  0  0  0  0  0
    6.1745  -18.7897   20.2704 C   0  0  0  0  0  0  0  0  0  0  0  0
    7.1332  -16.8593   21.5398 C   0  0  0  0  0  0  0  0  0  0  0  0
    7.1259  -15.3373   21.6056 C   0  0  2  0  0  0  0  0  0  0  0  0
    7.7322  -14.8141   20.4175 N   0  0  0  0  0  0  0  0  0  0  0  0
    7.8456  -14.8769   22.8398 C   0  0  0  0  0  0  0  0  0  0  0  0
    9.1007  -14.8903   22.8686 O   0  0  0  0  0  0  0  0  0  0  0  0
    6.4615  -11.9583   25.3377 C   0  0  0  0  0  0  0  0  0  0  0  0
    6.9154  -13.2426   26.0860 C   0  0  2  0  0  0  0  0  0  0  0  0
    7.6239  -12.7201   27.3051 C   0  0  0  0  0  0  0  0  0  0  0  0
    7.8461  -14.0103   25.2057 C   0  0  2  0  0  0  0  0  0  0  0  0
    7.1529  -14.4245   23.9814 N   0  0  0  0  0  0  0  0  0  0  0  0
    8.4082  -15.2351   25.8763 C   0  0  0  0  0  0  0  0  0  0  0  0
    7.6214  -16.1562   26.2434 O   0  0  0  0  0  0  0  0  0  0  0  0
    9.7767  -15.4002   26.1078 N   0  0  0  0  0  0  0  0  0  0  0  0
   10.4484  -16.5485   26.6350 C   0  0  1  0  0  0  0  0  0  0  0  0
   11.8157  -16.8339   26.0392 C   0  0  0  0  0  0  0  0  0  0  0  0
   12.4452  -17.9944   26.7278 C   0  0  0  0  0  0  0  0  0  0  0  0
   13.1037  -17.7753   27.7952 O   0  0  0  0  0  0  0  0  0  0  0  0
   10.4713  -16.5785   28.0887 C   0  0  0  0  0  0  0  0  0  0  0  0
   10.3744  -17.6376   28.7746 O   0  0  0  0  0  0  0  0  0  0  0  0
   12.3547  -19.2829   26.2761 O   0  0  0  0  0  0  0  0  0  0  0  0
   10.6061  -15.3972   28.8036 O   0  0  0  0  0  0  0  0  0  0  0  0
  2  1  1  1
  2  3  1  0
  4  5  1  0
  4  2  1  0
  5  7  1  0
  5  6  1  6
  7 13  1  0
  8  7  2  0
 10 11  1  1
 10  9  1  0
 12 10  1  0
 12 13  1  6
 14 12  1  0
 14 16  1  0
 15 14  2  0
 17 16  1  0
 17 21  1  0
 17 18  1  6
 19 18  1  0
 20 19  2  0
 21 22  2  0
 21 24  1  0
 23 19  1  0
M  END
$$$$
