GIG.pdb
     RDKit          3D

 17 16  0  0  1  0  0  0  0  0999 V2000
   19.4266  -21.1880  -12.0926 N   0  0  0  0  0  0  0  0  0  0  0  0
   20.6318  -21.8158  -12.6012 C   0  0  0  0  0  0  0  0  0  0  0  0
   21.7952  -20.8950  -12.5110 C   0  0  0  0  0  0  0  0  0  0  0  0
   21.7028  -19.6940  -12.1746 O   0  0  0  0  0  0  0  0  0  0  0  0
   25.2052  -20.4780   -9.9484 C   0  0  0  0  0  0  0  0  0  0  0  0
   25.1644  -21.8202  -10.6646 C   0  0  0  0  0  0  0  0  0  0  0  0
   25.3333  -21.5454  -12.1210 C   0  0  2  0  0  0  0  0  0  0  0  0
   26.7256  -21.0032  -12.3641 C   0  0  0  0  0  0  0  0  0  0  0  0
   24.2985  -20.6466  -12.7145 C   0  0  2  0  0  0  0  0  0  0  0  0
   23.0730  -21.4117  -12.8241 N   0  0  0  0  0  0  0  0  0  0  0  0
   24.6308  -20.0950  -14.0196 C   0  0  0  0  0  0  0  0  0  0  0  0
   25.5698  -19.2897  -14.1550 O   0  0  0  0  0  0  0  0  0  0  0  0
   23.8870  -20.4693  -15.1556 N   0  0  0  0  0  0  0  0  0  0  0  0
   24.1985  -20.0000  -16.4895 C   0  0  0  0  0  0  0  0  0  0  0  0
   24.9362  -21.0792  -17.1900 C   0  0  0  0  0  0  0  0  0  0  0  0
   26.1212  -21.3573  -16.8724 O   0  0  0  0  0  0  0  0  0  0  0  0
   24.3643  -21.8249  -18.2157 O   0  0  0  0  0  0  0  0  0  0  0  0
  1  2  1  0
  2  3  1  0
  3  4  2  0
  6  5  1  0
  7  6  1  0
  7  8  1  1
  9  7  1  0
 10  3  1  0
  9 10  1  6
 11 12  2  0
 11  9  1  0
 13 11  1  0
 14 15  1  0
 14 13  1  0
 15 17  1  0
 16 15  2  0
M  END
$$$$
