GIG.pdb
     RDKit          3D

 17 16  0  0  1  0  0  0  0  0999 V2000
   19.9458  -20.2932  -11.8420 N   0  0  0  0  0  0  0  0  0  0  0  0
   20.8544  -21.1909  -12.5305 C   0  0  0  0  0  0  0  0  0  0  0  0
   22.1857  -20.5597  -12.7268 C   0  0  0  0  0  0  0  0  0  0  0  0
   22.3456  -19.4177  -13.2112 O   0  0  0  0  0  0  0  0  0  0  0  0
   23.9681  -20.8609   -9.4787 C   0  0  0  0  0  0  0  0  0  0  0  0
   25.1808  -20.2727  -10.1855 C   0  0  0  0  0  0  0  0  0  0  0  0
   25.4786  -21.1538  -11.3517 C   0  0  2  0  0  0  0  0  0  0  0  0
   26.9645  -21.1108  -11.6379 C   0  0  0  0  0  0  0  0  0  0  0  0
   24.6882  -20.8541  -12.5831 C   0  0  2  0  0  0  0  0  0  0  0  0
   23.3294  -21.2960  -12.3429 N   0  0  0  0  0  0  0  0  0  0  0  0
   25.1802  -21.4771  -13.8030 C   0  0  0  0  0  0  0  0  0  0  0  0
   25.0398  -22.6975  -14.0011 O   0  0  0  0  0  0  0  0  0  0  0  0
   25.8271  -20.6992  -14.7829 N   0  0  0  0  0  0  0  0  0  0  0  0
   26.2553  -21.2366  -16.0574 C   0  0  0  0  0  0  0  0  0  0  0  0
   27.6038  -21.8256  -15.8719 C   0  0  0  0  0  0  0  0  0  0  0  0
   28.2884  -21.5535  -14.8523 O   0  0  0  0  0  0  0  0  0  0  0  0
   28.1691  -22.6936  -16.8005 O   0  0  0  0  0  0  0  0  0  0  0  0
  1  2  1  0
  2  3  1  0
  3  4  2  0
  6  5  1  0
  7  6  1  0
  7  8  1  6
  9  7  1  0
 10  3  1  0
  9 10  1  1
 11 12  2  0
 11  9  1  0
 13 11  1  0
 14 15  1  0
 14 13  1  0
 15 17  1  0
 16 15  2  0
M  END
$$$$
