GIG.pdb
     RDKit          3D

 17 16  0  0  1  0  0  0  0  0999 V2000
   30.0798  -21.8814  -12.2950 N   0  0  0  0  0  0  0  0  0  0  0  0
   29.7492  -20.8268  -11.3549 C   0  0  0  0  0  0  0  0  0  0  0  0
   28.6051  -21.2181  -10.4904 C   0  0  0  0  0  0  0  0  0  0  0  0
   27.9730  -22.2892  -10.6219 O   0  0  0  0  0  0  0  0  0  0  0  0
   28.7270  -19.4125   -5.4530 C   0  0  0  0  0  0  0  0  0  0  0  0
   28.5468  -20.2859   -6.6863 C   0  0  0  0  0  0  0  0  0  0  0  0
   27.2734  -19.8649   -7.3393 C   0  0  2  0  0  0  0  0  0  0  0  0
   26.1225  -20.1189   -6.3893 C   0  0  0  0  0  0  0  0  0  0  0  0
   27.0147  -20.4890   -8.6714 C   0  0  2  0  0  0  0  0  0  0  0  0
   28.2155  -20.3260   -9.4656 N   0  0  0  0  0  0  0  0  0  0  0  0
   25.8838  -19.9397   -9.4046 C   0  0  0  0  0  0  0  0  0  0  0  0
   25.8851  -18.7577   -9.7936 O   0  0  0  0  0  0  0  0  0  0  0  0
   24.7640  -20.7466   -9.6854 N   0  0  0  0  0  0  0  0  0  0  0  0
   23.5841  -20.2476  -10.3601 C   0  0  0  0  0  0  0  0  0  0  0  0
   23.3927  -21.0493  -11.5931 C   0  0  0  0  0  0  0  0  0  0  0  0
   22.2521  -21.4727  -11.9127 O   0  0  0  0  0  0  0  0  0  0  0  0
   24.4469  -21.3674  -12.4432 O   0  0  0  0  0  0  0  0  0  0  0  0
  1  2  1  0
  2  3  1  0
  3  4  2  0
  6  5  1  0
  7  6  1  0
  7  8  1  1
  9  7  1  0
 10  3  1  0
  9 10  1  6
 11 12  2  0
 11  9  1  0
 13 11  1  0
 14 15  1  0
 14 13  1  0
 15 17  1  0
 16 15  2  0
M  END
$$$$
