GIG.pdb
     RDKit          3D

 17 16  0  0  1  0  0  0  0  0999 V2000
   18.4100  -12.5467  -17.3499 N   0  0  0  0  0  0  0  0  0  0  0  0
   18.4422  -11.0972  -17.2921 C   0  0  0  0  0  0  0  0  0  0  0  0
   19.0955  -10.6245  -16.0435 C   0  0  0  0  0  0  0  0  0  0  0  0
   18.6667  -10.8830  -14.8974 O   0  0  0  0  0  0  0  0  0  0  0  0
   24.1015  -11.6690  -15.3972 C   0  0  0  0  0  0  0  0  0  0  0  0
   22.6439  -11.3625  -15.0844 C   0  0  0  0  0  0  0  0  0  0  0  0
   22.4568   -9.8934  -15.2625 C   0  0  2  0  0  0  0  0  0  0  0  0
   23.4383   -9.1583  -14.3748 C   0  0  0  0  0  0  0  0  0  0  0  0
   21.0631   -9.4060  -15.0368 C   0  0  2  0  0  0  0  0  0  0  0  0
   20.2651   -9.8404  -16.1654 N   0  0  0  0  0  0  0  0  0  0  0  0
   20.9266   -7.9648  -14.8871 C   0  0  0  0  0  0  0  0  0  0  0  0
   21.4028   -7.3749  -13.9002 O   0  0  0  0  0  0  0  0  0  0  0  0
   20.2479   -7.2134  -15.8661 N   0  0  0  0  0  0  0  0  0  0  0  0
   20.1715   -5.7678  -15.8354 C   0  0  0  0  0  0  0  0  0  0  0  0
   18.8343   -5.3945  -15.3137 C   0  0  0  0  0  0  0  0  0  0  0  0
   18.0002   -6.2800  -14.9934 O   0  0  0  0  0  0  0  0  0  0  0  0
   18.4424   -4.0692  -15.1551 O   0  0  0  0  0  0  0  0  0  0  0  0
  1  2  1  0
  2  3  1  0
  3  4  2  0
  6  5  1  0
  7  6  1  0
  7  8  1  1
  9  7  1  0
 10  3  1  0
  9 10  1  6
 11 12  2  0
 11  9  1  0
 13 11  1  0
 14 15  1  0
 14 13  1  0
 15 17  1  0
 16 15  2  0
M  END
$$$$
