GIG.pdb
     RDKit          3D

 17 16  0  0  1  0  0  0  0  0999 V2000
   18.3879  -25.2765   -8.5973 N   0  0  0  0  0  0  0  0  0  0  0  0
   18.7611  -25.1359   -7.2022 C   0  0  0  0  0  0  0  0  0  0  0  0
   17.6717  -25.6039   -6.3058 C   0  0  0  0  0  0  0  0  0  0  0  0
   16.6004  -26.0998   -6.7189 O   0  0  0  0  0  0  0  0  0  0  0  0
   17.3345  -28.8521   -3.5018 C   0  0  0  0  0  0  0  0  0  0  0  0
   18.3312  -27.7342   -3.2315 C   0  0  0  0  0  0  0  0  0  0  0  0
   17.5449  -26.5374   -2.8137 C   0  0  2  0  0  0  0  0  0  0  0  0
   16.5592  -26.9433   -1.7389 C   0  0  0  0  0  0  0  0  0  0  0  0
   16.8559  -25.8188   -3.9271 C   0  0  2  0  0  0  0  0  0  0  0  0
   17.8636  -25.4787   -4.9111 N   0  0  0  0  0  0  0  0  0  0  0  0
   16.1457  -24.6092   -3.5390 C   0  0  0  0  0  0  0  0  0  0  0  0
   16.7600  -23.6126   -3.1171 O   0  0  0  0  0  0  0  0  0  0  0  0
   14.7419  -24.5513   -3.6372 N   0  0  0  0  0  0  0  0  0  0  0  0
   13.9726  -23.3912   -3.2384 C   0  0  0  0  0  0  0  0  0  0  0  0
   13.6231  -23.5485   -1.8056 C   0  0  0  0  0  0  0  0  0  0  0  0
   13.8722  -24.6215   -1.1983 O   0  0  0  0  0  0  0  0  0  0  0  0
   13.0128  -22.5345   -1.0745 O   0  0  0  0  0  0  0  0  0  0  0  0
  1  2  1  0
  2  3  1  0
  3  4  2  0
  6  5  1  0
  7  6  1  0
  7  8  1  1
  9  7  1  0
 10  3  1  0
  9 10  1  6
 11 12  2  0
 11  9  1  0
 13 11  1  0
 14 15  1  0
 14 13  1  0
 15 17  1  0
 16 15  2  0
M  END
$$$$
