GVK.pdb
     RDKit          3D

 21 20  0  0  1  0  0  0  0  0999 V2000
   28.4195  -21.2847  -15.7062 N   0  0  0  0  0  0  0  0  0  0  0  0
   27.7389  -20.4568  -14.7455 C   0  0  0  0  0  0  0  0  0  0  0  0
   26.5732  -21.1570  -14.1389 C   0  0  0  0  0  0  0  0  0  0  0  0
   26.1338  -22.2450  -14.5654 O   0  0  0  0  0  0  0  0  0  0  0  0
   25.2151  -19.8440  -10.3926 C   0  0  0  0  0  0  0  0  0  0  0  0
   25.0907  -21.2686  -10.9677 C   0  0  2  0  0  0  0  0  0  0  0  0
   26.3942  -21.9395  -10.6604 C   0  0  0  0  0  0  0  0  0  0  0  0
   24.7310  -21.1216  -12.3947 C   0  0  2  0  0  0  0  0  0  0  0  0
   25.9442  -20.5628  -13.0387 N   0  0  0  0  0  0  0  0  0  0  0  0
   23.5591  -20.3261  -12.7294 C   0  0  0  0  0  0  0  0  0  0  0  0
   23.5389  -19.0550  -12.5815 O   0  0  0  0  0  0  0  0  0  0  0  0
   22.3710  -20.8926  -13.2392 N   0  0  0  0  0  0  0  0  0  0  0  0
   21.2101  -19.9895  -13.6185 C   0  0  1  0  0  0  0  0  0  0  0  0
   20.8743  -20.4288  -14.9923 C   0  0  0  0  0  0  0  0  0  0  0  0
   19.8149  -19.8698  -15.8050 C   0  0  0  0  0  0  0  0  0  0  0  0
   19.5328  -20.4219  -17.1483 C   0  0  0  0  0  0  0  0  0  0  0  0
   18.4535  -19.5323  -17.8295 C   0  0  0  0  0  0  0  0  0  0  0  0
   18.0253  -20.1355  -19.0770 N   0  0  0  0  0  0  0  0  0  0  0  0
   20.2165  -20.3049  -12.5751 C   0  0  0  0  0  0  0  0  0  0  0  0
   20.1903  -21.3683  -11.9179 O   0  0  0  0  0  0  0  0  0  0  0  0
   19.2006  -19.3945  -12.2421 O   0  0  0  0  0  0  0  0  0  0  0  0
  1  2  1  0
  3  4  2  0
  3  2  1  0
  6  5  1  6
  6  8  1  0
  7  6  1  0
  8  9  1  6
  8 10  1  0
  9  3  1  0
 10 11  2  0
 12 10  1  0
 12 13  1  0
 13 14  1  6
 14 15  1  0
 15 16  1  0
 16 17  1  0
 17 18  1  0
 19 21  1  0
 19 13  1  0
 20 19  2  0
M  END
$$$$
