GVK.pdb
     RDKit          3D

 21 20  0  0  1  0  0  0  0  0999 V2000
   22.6646  -15.1238  -18.2161 N   0  0  0  0  0  0  0  0  0  0  0  0
   23.4315  -13.9548  -18.5577 C   0  0  0  0  0  0  0  0  0  0  0  0
   23.5636  -13.0230  -17.4039 C   0  0  0  0  0  0  0  0  0  0  0  0
   22.7769  -13.0224  -16.4344 O   0  0  0  0  0  0  0  0  0  0  0  0
   26.6715  -12.2236  -15.5402 C   0  0  0  0  0  0  0  0  0  0  0  0
   26.2170  -10.8983  -16.1828 C   0  0  2  0  0  0  0  0  0  0  0  0
   26.6703   -9.8224  -15.2444 C   0  0  0  0  0  0  0  0  0  0  0  0
   24.7614  -11.0159  -16.4168 C   0  0  2  0  0  0  0  0  0  0  0  0
   24.6216  -12.1065  -17.4118 N   0  0  0  0  0  0  0  0  0  0  0  0
   24.0370   -9.8300  -16.8495 C   0  0  0  0  0  0  0  0  0  0  0  0
   24.2658   -9.2710  -17.9777 O   0  0  0  0  0  0  0  0  0  0  0  0
   23.0368   -9.2167  -16.0647 N   0  0  0  0  0  0  0  0  0  0  0  0
   22.3461   -7.9630  -16.5728 C   0  0  1  0  0  0  0  0  0  0  0  0
   21.1421   -8.4921  -17.2535 C   0  0  0  0  0  0  0  0  0  0  0  0
   20.2353   -7.7059  -18.0627 C   0  0  0  0  0  0  0  0  0  0  0  0
   19.0292   -8.3276  -18.6522 C   0  0  0  0  0  0  0  0  0  0  0  0
   18.2762   -7.2498  -19.4839 C   0  0  0  0  0  0  0  0  0  0  0  0
   17.0210   -7.7859  -19.9746 N   0  0  0  0  0  0  0  0  0  0  0  0
   22.1092   -7.2111  -15.3261 C   0  0  0  0  0  0  0  0  0  0  0  0
   21.8330   -5.9928  -15.2734 O   0  0  0  0  0  0  0  0  0  0  0  0
   22.1807   -7.8424  -14.0739 O   0  0  0  0  0  0  0  0  0  0  0  0
  1  2  1  0
  3  4  2  0
  3  2  1  0
  6  5  1  1
  6  8  1  0
  7  6  1  0
  8  9  1  6
  8 10  1  0
  9  3  1  0
 10 11  2  0
 12 10  1  0
 12 13  1  0
 13 14  1  1
 14 15  1  0
 15 16  1  0
 16 17  1  0
 17 18  1  0
 19 21  1  0
 19 13  1  0
 20 19  2  0
M  END
$$$$
