GVK.pdb
     RDKit          3D

 21 20  0  0  1  0  0  0  0  0999 V2000
   22.3572  -21.8370  -11.4836 N   0  0  0  0  0  0  0  0  0  0  0  0
   23.2256  -20.7485  -11.1193 C   0  0  0  0  0  0  0  0  0  0  0  0
   24.4911  -21.2329  -10.5022 C   0  0  0  0  0  0  0  0  0  0  0  0
   24.5875  -22.3314   -9.9168 O   0  0  0  0  0  0  0  0  0  0  0  0
   27.5945  -21.4995  -12.1588 C   0  0  0  0  0  0  0  0  0  0  0  0
   27.9299  -20.5267  -11.0112 C   0  0  2  0  0  0  0  0  0  0  0  0
   29.3592  -20.8021  -10.6580 C   0  0  0  0  0  0  0  0  0  0  0  0
   26.9212  -20.7523   -9.9535 C   0  0  2  0  0  0  0  0  0  0  0  0
   25.6231  -20.4137  -10.5853 N   0  0  0  0  0  0  0  0  0  0  0  0
   27.0785  -20.0439   -8.6918 C   0  0  0  0  0  0  0  0  0  0  0  0
   26.6517  -18.8485   -8.5287 O   0  0  0  0  0  0  0  0  0  0  0  0
   27.7053  -20.6191   -7.5654 N   0  0  0  0  0  0  0  0  0  0  0  0
   27.7235  -19.8637   -6.2478 C   0  0  1  0  0  0  0  0  0  0  0  0
   28.1686  -20.8887   -5.2761 C   0  0  0  0  0  0  0  0  0  0  0  0
   28.4856  -20.6312   -3.8874 C   0  0  0  0  0  0  0  0  0  0  0  0
   27.4036  -20.4455   -2.8957 C   0  0  0  0  0  0  0  0  0  0  0  0
   28.0468  -20.0712   -1.5295 C   0  0  0  0  0  0  0  0  0  0  0  0
   27.0127  -19.8095   -0.5467 N   0  0  0  0  0  0  0  0  0  0  0  0
   28.6789  -18.7750   -6.5263 C   0  0  0  0  0  0  0  0  0  0  0  0
   29.6230  -18.8506   -7.3425 O   0  0  0  0  0  0  0  0  0  0  0  0
   28.5819  -17.5389   -5.8673 O   0  0  0  0  0  0  0  0  0  0  0  0
  1  2  1  0
  3  4  2  0
  3  2  1  0
  6  5  1  6
  6  8  1  0
  7  6  1  0
  8  9  1  6
  8 10  1  0
  9  3  1  0
 10 11  2  0
 12 10  1  0
 12 13  1  0
 13 14  1  1
 14 15  1  0
 15 16  1  0
 16 17  1  0
 17 18  1  0
 19 21  1  0
 19 13  1  0
 20 19  2  0
M  END
$$$$
