GVK.pdb
     RDKit          3D

 21 20  0  0  1  0  0  0  0  0999 V2000
   22.8395  -18.7168  -15.7393 N   0  0  0  0  0  0  0  0  0  0  0  0
   22.3469  -17.5380  -15.0764 C   0  0  0  0  0  0  0  0  0  0  0  0
   21.4890  -16.7160  -15.9740 C   0  0  0  0  0  0  0  0  0  0  0  0
   21.4717  -16.8539  -17.2147 O   0  0  0  0  0  0  0  0  0  0  0  0
   18.1095  -16.6058  -16.1662 C   0  0  0  0  0  0  0  0  0  0  0  0
   18.4127  -15.1632  -15.7158 C   0  0  2  0  0  0  0  0  0  0  0  0
   17.2991  -14.3286  -16.2699 C   0  0  0  0  0  0  0  0  0  0  0  0
   19.7815  -14.8510  -16.1808 C   0  0  2  0  0  0  0  0  0  0  0  0
   20.6652  -15.7445  -15.3937 N   0  0  0  0  0  0  0  0  0  0  0  0
   20.2382  -13.4717  -16.0953 C   0  0  0  0  0  0  0  0  0  0  0  0
   20.4449  -12.8954  -14.9715 O   0  0  0  0  0  0  0  0  0  0  0  0
   20.4866  -12.6769  -17.2351 N   0  0  0  0  0  0  0  0  0  0  0  0
   20.9698  -11.2471  -17.0636 C   0  0  1  0  0  0  0  0  0  0  0  0
   21.4860  -10.9008  -18.4077 C   0  0  0  0  0  0  0  0  0  0  0  0
   21.9604   -9.5909  -18.8006 C   0  0  0  0  0  0  0  0  0  0  0  0
   22.5205   -9.3733  -20.1526 C   0  0  0  0  0  0  0  0  0  0  0  0
   22.8281   -7.8575  -20.3200 C   0  0  0  0  0  0  0  0  0  0  0  0
   23.6208   -7.6387  -21.5147 N   0  0  0  0  0  0  0  0  0  0  0  0
   19.7396  -10.5512  -16.6417 C   0  0  0  0  0  0  0  0  0  0  0  0
   19.7140   -9.5225  -15.9315 O   0  0  0  0  0  0  0  0  0  0  0  0
   18.4732  -11.0188  -17.0279 O   0  0  0  0  0  0  0  0  0  0  0  0
  1  2  1  0
  3  4  2  0
  3  2  1  0
  6  5  1  6
  6  8  1  0
  7  6  1  0
  8  9  1  1
  8 10  1  0
  9  3  1  0
 10 11  2  0
 12 10  1  0
 12 13  1  0
 13 14  1  6
 14 15  1  0
 15 16  1  0
 16 17  1  0
 17 18  1  0
 19 21  1  0
 19 13  1  0
 20 19  2  0
M  END
$$$$
