GVK.pdb
     RDKit          3D

 21 20  0  0  1  0  0  0  0  0999 V2000
   22.1098  -13.0944  -19.6150 N   0  0  0  0  0  0  0  0  0  0  0  0
   22.4904  -11.7070  -19.5735 C   0  0  0  0  0  0  0  0  0  0  0  0
   22.7139  -11.2359  -18.1787 C   0  0  0  0  0  0  0  0  0  0  0  0
   21.9762  -11.5571  -17.2241 O   0  0  0  0  0  0  0  0  0  0  0  0
   25.4994  -11.6501  -16.1093 C   0  0  0  0  0  0  0  0  0  0  0  0
   25.4629  -10.1201  -16.2922 C   0  0  2  0  0  0  0  0  0  0  0  0
   26.0355   -9.5524  -15.0299 C   0  0  0  0  0  0  0  0  0  0  0  0
   24.0645   -9.7633  -16.6153 C   0  0  2  0  0  0  0  0  0  0  0  0
   23.8042  -10.3934  -17.9322 N   0  0  0  0  0  0  0  0  0  0  0  0
   23.7034   -8.3536  -16.6402 C   0  0  0  0  0  0  0  0  0  0  0  0
   24.1831   -7.5470  -17.5103 O   0  0  0  0  0  0  0  0  0  0  0  0
   22.8040   -7.7786  -15.7165 N   0  0  0  0  0  0  0  0  0  0  0  0
   22.4885   -6.2952  -15.7985 C   0  0  1  0  0  0  0  0  0  0  0  0
   21.0645   -6.2738  -16.2044 C   0  0  0  0  0  0  0  0  0  0  0  0
   20.2552   -5.0798  -16.3247 C   0  0  0  0  0  0  0  0  0  0  0  0
   18.8267   -5.1793  -16.6967 C   0  0  0  0  0  0  0  0  0  0  0  0
   18.2560   -3.7400  -16.8483 C   0  0  0  0  0  0  0  0  0  0  0  0
   16.9057   -3.7921  -17.3751 N   0  0  0  0  0  0  0  0  0  0  0  0
   22.7791   -5.8388  -14.4263 C   0  0  0  0  0  0  0  0  0  0  0  0
   22.8231   -6.5853  -13.4242 O   0  0  0  0  0  0  0  0  0  0  0  0
   23.0355   -4.4859  -14.1510 O   0  0  0  0  0  0  0  0  0  0  0  0
  1  2  1  0
  3  4  2  0
  3  2  1  0
  6  5  1  1
  6  8  1  0
  7  6  1  0
  8  9  1  6
  8 10  1  0
  9  3  1  0
 10 11  2  0
 12 10  1  0
 12 13  1  0
 13 14  1  1
 14 15  1  0
 15 16  1  0
 16 17  1  0
 17 18  1  0
 19 21  1  0
 19 13  1  0
 20 19  2  0
M  END
$$$$
