GVK.pdb
     RDKit          3D

 21 20  0  0  1  0  0  0  0  0999 V2000
   25.5266  -15.1326  -17.0838 N   0  0  0  0  0  0  0  0  0  0  0  0
   26.4616  -14.2535  -16.4321 C   0  0  0  0  0  0  0  0  0  0  0  0
   26.8206  -13.0920  -17.2918 C   0  0  0  0  0  0  0  0  0  0  0  0
   26.2459  -12.8389  -18.3708 O   0  0  0  0  0  0  0  0  0  0  0  0
   26.9272   -9.7870  -15.7803 C   0  0  0  0  0  0  0  0  0  0  0  0
   26.9619  -10.1153  -17.2859 C   0  0  2  0  0  0  0  0  0  0  0  0
   25.6337  -10.7371  -17.5906 C   0  0  0  0  0  0  0  0  0  0  0  0
   28.1618  -10.9497  -17.5121 C   0  0  2  0  0  0  0  0  0  0  0  0
   27.8520  -12.2475  -16.8650 N   0  0  0  0  0  0  0  0  0  0  0  0
   29.4475  -10.4423  -17.0559 C   0  0  0  0  0  0  0  0  0  0  0  0
   29.8187  -10.5387  -15.8350 O   0  0  0  0  0  0  0  0  0  0  0  0
   30.3713   -9.8148  -17.9191 N   0  0  0  0  0  0  0  0  0  0  0  0
   31.7356   -9.4062  -17.3911 C   0  0  1  0  0  0  0  0  0  0  0  0
   32.6734  -10.1042  -18.3002 C   0  0  0  0  0  0  0  0  0  0  0  0
   34.0980  -10.2349  -18.0796 C   0  0  0  0  0  0  0  0  0  0  0  0
   34.9355  -10.9944  -19.0338 C   0  0  0  0  0  0  0  0  0  0  0  0
   36.3948  -11.0209  -18.4953 C   0  0  0  0  0  0  0  0  0  0  0  0
   36.7620  -12.3719  -18.1167 N   0  0  0  0  0  0  0  0  0  0  0  0
   31.6884   -7.9368  -17.5106 C   0  0  0  0  0  0  0  0  0  0  0  0
   30.8699   -7.3079  -18.2162 O   0  0  0  0  0  0  0  0  0  0  0  0
   32.5939   -7.1229  -16.8112 O   0  0  0  0  0  0  0  0  0  0  0  0
  1  2  1  0
  3  4  2  0
  3  2  1  0
  6  5  1  1
  6  8  1  0
  7  6  1  0
  8  9  1  1
  8 10  1  0
  9  3  1  0
 10 11  2  0
 12 10  1  0
 12 13  1  0
 13 14  1  6
 14 15  1  0
 15 16  1  0
 16 17  1  0
 17 18  1  0
 19 21  1  0
 19 13  1  0
 20 19  2  0
M  END
$$$$
