GVK.pdb
     RDKit          3D

 21 20  0  0  1  0  0  0  0  0999 V2000
   20.9775  -21.1854   -8.3475 N   0  0  0  0  0  0  0  0  0  0  0  0
   22.1447  -21.7104   -9.0060 C   0  0  0  0  0  0  0  0  0  0  0  0
   22.7741  -20.7027   -9.9034 C   0  0  0  0  0  0  0  0  0  0  0  0
   22.4856  -19.4884   -9.8733 O   0  0  0  0  0  0  0  0  0  0  0  0
   26.1313  -21.9931  -12.0453 C   0  0  0  0  0  0  0  0  0  0  0  0
   25.9255  -20.5844  -11.4546 C   0  0  2  0  0  0  0  0  0  0  0  0
   26.3742  -20.6789  -10.0286 C   0  0  0  0  0  0  0  0  0  0  0  0
   24.5102  -20.2262  -11.6911 C   0  0  2  0  0  0  0  0  0  0  0  0
   23.7340  -21.1432  -10.8219 N   0  0  0  0  0  0  0  0  0  0  0  0
   24.0102  -20.2673  -13.0573 C   0  0  0  0  0  0  0  0  0  0  0  0
   24.4913  -19.5190  -13.9772 O   0  0  0  0  0  0  0  0  0  0  0  0
   22.9693  -21.1294  -13.4645 N   0  0  0  0  0  0  0  0  0  0  0  0
   22.4154  -21.0252  -14.8750 C   0  0  1  0  0  0  0  0  0  0  0  0
   22.6058  -22.3908  -15.4152 C   0  0  0  0  0  0  0  0  0  0  0  0
   23.7492  -22.8230  -16.1905 C   0  0  0  0  0  0  0  0  0  0  0  0
   25.0902  -22.8929  -15.5694 C   0  0  0  0  0  0  0  0  0  0  0  0
   26.1143  -23.3280  -16.6567 C   0  0  0  0  0  0  0  0  0  0  0  0
   27.4434  -23.4158  -16.0829 N   0  0  0  0  0  0  0  0  0  0  0  0
   21.0205  -20.6120  -14.6320 C   0  0  0  0  0  0  0  0  0  0  0  0
   20.4449  -20.6729  -13.5237 O   0  0  0  0  0  0  0  0  0  0  0  0
   20.2233  -20.1040  -15.6703 O   0  0  0  0  0  0  0  0  0  0  0  0
  1  2  1  0
  3  4  2  0
  3  2  1  0
  6  5  1  1
  6  8  1  0
  7  6  1  0
  8  9  1  1
  8 10  1  0
  9  3  1  0
 10 11  2  0
 12 10  1  0
 12 13  1  0
 13 14  1  1
 14 15  1  0
 15 16  1  0
 16 17  1  0
 17 18  1  0
 19 21  1  0
 19 13  1  0
 20 19  2  0
M  END
$$$$
