GVK.pdb
     RDKit          3D

 21 20  0  0  1  0  0  0  0  0999 V2000
   28.8650  -19.6856  -15.3397 N   0  0  0  0  0  0  0  0  0  0  0  0
   28.1278  -19.2650  -14.1772 C   0  0  0  0  0  0  0  0  0  0  0  0
   27.1007  -20.2675  -13.7807 C   0  0  0  0  0  0  0  0  0  0  0  0
   26.8473  -21.2873  -14.4548 O   0  0  0  0  0  0  0  0  0  0  0  0
   25.3737  -19.9336   -9.9190 C   0  0  0  0  0  0  0  0  0  0  0  0
   25.6420  -21.2309  -10.7068 C   0  0  2  0  0  0  0  0  0  0  0  0
   27.0627  -21.5964  -10.4039 C   0  0  0  0  0  0  0  0  0  0  0  0
   25.3079  -20.9479  -12.1194 C   0  0  2  0  0  0  0  0  0  0  0  0
   26.3887  -20.0511  -12.5952 N   0  0  0  0  0  0  0  0  0  0  0  0
   24.0012  -20.3795  -12.4157 C   0  0  0  0  0  0  0  0  0  0  0  0
   23.6808  -19.1942  -12.0548 O   0  0  0  0  0  0  0  0  0  0  0  0
   23.0018  -21.0865  -13.1185 N   0  0  0  0  0  0  0  0  0  0  0  0
   21.6961  -20.3938  -13.4683 C   0  0  1  0  0  0  0  0  0  0  0  0
   21.6937  -20.4038  -14.9492 C   0  0  0  0  0  0  0  0  0  0  0  0
   20.9443  -19.4879  -15.7826 C   0  0  0  0  0  0  0  0  0  0  0  0
   19.6990  -19.9305  -16.4474 C   0  0  0  0  0  0  0  0  0  0  0  0
   19.2093  -18.7899  -17.3852 C   0  0  0  0  0  0  0  0  0  0  0  0
   18.0113  -19.2038  -18.0901 N   0  0  0  0  0  0  0  0  0  0  0  0
   20.6986  -21.2596  -12.8118 C   0  0  0  0  0  0  0  0  0  0  0  0
   20.8917  -22.4550  -12.5000 O   0  0  0  0  0  0  0  0  0  0  0  0
   19.4224  -20.7752  -12.4829 O   0  0  0  0  0  0  0  0  0  0  0  0
  1  2  1  0
  3  4  2  0
  3  2  1  0
  6  5  1  1
  6  8  1  0
  7  6  1  0
  8  9  1  1
  8 10  1  0
  9  3  1  0
 10 11  2  0
 12 10  1  0
 12 13  1  0
 13 14  1  6
 14 15  1  0
 15 16  1  0
 16 17  1  0
 17 18  1  0
 19 21  1  0
 19 13  1  0
 20 19  2  0
M  END
$$$$
