GVK.pdb
     RDKit          3D

 21 20  0  0  1  0  0  0  0  0999 V2000
   33.1073  -28.4582    2.5261 N   0  0  0  0  0  0  0  0  0  0  0  0
   32.7223  -27.6420    3.6474 C   0  0  0  0  0  0  0  0  0  0  0  0
   33.5771  -26.4288    3.7680 C   0  0  0  0  0  0  0  0  0  0  0  0
   34.5876  -26.2336    3.0613 O   0  0  0  0  0  0  0  0  0  0  0  0
   31.9902  -23.1362    3.8715 C   0  0  0  0  0  0  0  0  0  0  0  0
   32.8751  -23.1797    5.1329 C   0  0  2  0  0  0  0  0  0  0  0  0
   33.3081  -21.7651    5.3670 C   0  0  0  0  0  0  0  0  0  0  0  0
   33.9390  -24.1735    4.8724 C   0  0  2  0  0  0  0  0  0  0  0  0
   33.2263  -25.4649    4.7204 N   0  0  0  0  0  0  0  0  0  0  0  0
   35.0189  -24.2936    5.8407 C   0  0  0  0  0  0  0  0  0  0  0  0
   34.8509  -24.8616    6.9752 O   0  0  0  0  0  0  0  0  0  0  0  0
   36.3191  -23.7993    5.6007 N   0  0  0  0  0  0  0  0  0  0  0  0
   37.4207  -24.0586    6.6137 C   0  0  1  0  0  0  0  0  0  0  0  0
   38.6565  -23.9532    5.8045 C   0  0  0  0  0  0  0  0  0  0  0  0
   39.9975  -24.1565    6.3099 C   0  0  0  0  0  0  0  0  0  0  0  0
   41.1678  -23.9480    5.4292 C   0  0  0  0  0  0  0  0  0  0  0  0
   42.4599  -24.1757    6.2652 C   0  0  0  0  0  0  0  0  0  0  0  0
   43.6303  -23.8526    5.4719 N   0  0  0  0  0  0  0  0  0  0  0  0
   37.1966  -22.9843    7.5992 C   0  0  0  0  0  0  0  0  0  0  0  0
   36.5992  -21.9127    7.3577 O   0  0  0  0  0  0  0  0  0  0  0  0
   37.6571  -23.1045    8.9203 O   0  0  0  0  0  0  0  0  0  0  0  0
  1  2  1  0
  3  4  2  0
  3  2  1  0
  6  5  1  6
  6  8  1  0
  7  6  1  0
  8  9  1  1
  8 10  1  0
  9  3  1  0
 10 11  2  0
 12 10  1  0
 12 13  1  0
 13 14  1  6
 14 15  1  0
 15 16  1  0
 16 17  1  0
 17 18  1  0
 19 21  1  0
 19 13  1  0
 20 19  2  0
M  END
$$$$
