FFM.pdb
     RDKit          3D

 31 32  0  0  1  0  0  0  0  0999 V2000
   28.2974  -19.5115  -15.3651 N   0  0  0  0  0  0  0  0  0  0  0  0
   27.3710  -19.2370  -14.2922 C   0  0  1  0  0  0  0  0  0  0  0  0
   26.4349  -18.1291  -14.6728 C   0  0  0  0  0  0  0  0  0  0  0  0
   27.0894  -16.8967  -15.1265 C   0  0  0  0  0  0  0  0  0  0  0  0
   27.2929  -16.6192  -16.4594 C   0  0  0  0  0  0  0  0  0  0  0  0
   27.9083  -15.4588  -16.8725 C   0  0  0  0  0  0  0  0  0  0  0  0
   28.3340  -14.5472  -15.9309 C   0  0  0  0  0  0  0  0  0  0  0  0
   28.1327  -14.8199  -14.5934 C   0  0  0  0  0  0  0  0  0  0  0  0
   27.5220  -15.9715  -14.1836 C   0  0  0  0  0  0  0  0  0  0  0  0
   26.7446  -20.4320  -13.7390 C   0  0  0  0  0  0  0  0  0  0  0  0
   26.3559  -21.3441  -14.5439 O   0  0  0  0  0  0  0  0  0  0  0  0
   26.5193  -20.6902  -12.3625 N   0  0  0  0  0  0  0  0  0  0  0  0
   25.5437  -21.6315  -11.8769 C   0  0  1  0  0  0  0  0  0  0  0  0
   25.9426  -22.2240  -10.5413 C   0  0  0  0  0  0  0  0  0  0  0  0
   26.5509  -21.2204   -9.6335 C   0  0  0  0  0  0  0  0  0  0  0  0
   25.8516  -20.2851   -8.9082 C   0  0  0  0  0  0  0  0  0  0  0  0
   26.4652  -19.3725   -8.0778 C   0  0  0  0  0  0  0  0  0  0  0  0
   27.8288  -19.3586   -7.9366 C   0  0  0  0  0  0  0  0  0  0  0  0
   28.5446  -20.2918   -8.6585 C   0  0  0  0  0  0  0  0  0  0  0  0
   27.9427  -21.2087   -9.4916 C   0  0  0  0  0  0  0  0  0  0  0  0
   24.2370  -20.9762  -11.7016 C   0  0  0  0  0  0  0  0  0  0  0  0
   24.2040  -19.7313  -11.5446 O   0  0  0  0  0  0  0  0  0  0  0  0
   22.5798  -18.4330  -16.1148 C   0  0  0  0  0  0  0  0  0  0  0  0
   21.2561  -19.6973  -16.1527 S   0  0  0  0  0  0  0  0  0  0  0  0
   20.8911  -20.1282  -14.4294 C   0  0  0  0  0  0  0  0  0  0  0  0
   22.0876  -20.7269  -13.7640 C   0  0  0  0  0  0  0  0  0  0  0  0
   21.8506  -21.0654  -12.2965 C   0  0  2  0  0  0  0  0  0  0  0  0
   22.9993  -21.6761  -11.7027 N   0  0  0  0  0  0  0  0  0  0  0  0
   20.6871  -21.9440  -12.2329 C   0  0  0  0  0  0  0  0  0  0  0  0
   19.5347  -21.5628  -11.9252 O   0  0  0  0  0  0  0  0  0  0  0  0
   20.8539  -23.3082  -12.5335 O   0  0  0  0  0  0  0  0  0  0  0  0
  2  1  1  6
  2 10  1  0
  2  3  1  0
  3  4  1  0
  4  9  2  0
  5  6  2  0
  5  4  1  0
  6  7  1  0
  7  8  2  0
  9  8  1  0
 10 11  2  0
 12 13  1  0
 12 10  1  0
 13 21  1  0
 13 14  1  1
 15 14  1  0
 15 16  2  0
 17 16  1  0
 18 17  2  0
 19 20  2  0
 19 18  1  0
 20 15  1  0
 21 22  2  0
 21 28  1  0
 23 24  1  0
 24 25  1  0
 26 25  1  0
 27 26  1  6
 28 27  1  0
 29 31  1  0
 29 27  1  0
 30 29  2  0
M  END
$$$$
