FFM.pdb
     RDKit          3D

 31 32  0  0  1  0  0  0  0  0999 V2000
   25.4060  -21.6362  -13.4373 N   0  0  0  0  0  0  0  0  0  0  0  0
   24.9856  -20.7013  -12.4205 C   0  0  1  0  0  0  0  0  0  0  0  0
   23.5018  -20.4916  -12.4762 C   0  0  0  0  0  0  0  0  0  0  0  0
   23.0130  -19.8655  -13.7100 C   0  0  0  0  0  0  0  0  0  0  0  0
   23.5232  -18.6785  -14.1851 C   0  0  0  0  0  0  0  0  0  0  0  0
   23.0560  -18.1012  -15.3445 C   0  0  0  0  0  0  0  0  0  0  0  0
   22.0509  -18.7238  -16.0524 C   0  0  0  0  0  0  0  0  0  0  0  0
   21.5356  -19.9138  -15.5810 C   0  0  0  0  0  0  0  0  0  0  0  0
   21.9993  -20.4866  -14.4304 C   0  0  0  0  0  0  0  0  0  0  0  0
   25.5348  -20.9859  -11.0999 C   0  0  0  0  0  0  0  0  0  0  0  0
   25.6288  -22.2043  -10.7291 O   0  0  0  0  0  0  0  0  0  0  0  0
   25.9876  -20.0217  -10.1633 N   0  0  0  0  0  0  0  0  0  0  0  0
   26.4236  -20.3482   -8.8301 C   0  0  1  0  0  0  0  0  0  0  0  0
   27.5121  -19.4139   -8.3443 C   0  0  0  0  0  0  0  0  0  0  0  0
   27.8948  -19.6718   -6.9343 C   0  0  0  0  0  0  0  0  0  0  0  0
   28.6020  -20.7659   -6.4954 C   0  0  0  0  0  0  0  0  0  0  0  0
   28.9325  -20.9597   -5.1718 C   0  0  0  0  0  0  0  0  0  0  0  0
   28.5620  -20.0496   -4.2157 C   0  0  0  0  0  0  0  0  0  0  0  0
   27.8515  -18.9457   -4.6411 C   0  0  0  0  0  0  0  0  0  0  0  0
   27.5153  -18.7411   -5.9610 C   0  0  0  0  0  0  0  0  0  0  0  0
   25.3006  -20.2554   -7.8827 C   0  0  0  0  0  0  0  0  0  0  0  0
   24.6479  -19.1846   -7.8256 O   0  0  0  0  0  0  0  0  0  0  0  0
   19.5469  -23.0220   -6.2780 C   0  0  0  0  0  0  0  0  0  0  0  0
   20.8702  -23.7631   -7.3037 S   0  0  0  0  0  0  0  0  0  0  0  0
   22.4479  -23.1665   -6.6376 C   0  0  0  0  0  0  0  0  0  0  0  0
   22.5123  -21.6741   -6.6733 C   0  0  0  0  0  0  0  0  0  0  0  0
   23.8180  -21.1169   -6.1174 C   0  0  2  0  0  0  0  0  0  0  0  0
   24.9063  -21.3171   -7.0231 N   0  0  0  0  0  0  0  0  0  0  0  0
   24.0628  -21.7724   -4.8367 C   0  0  0  0  0  0  0  0  0  0  0  0
   24.9610  -22.6231   -4.6431 O   0  0  0  0  0  0  0  0  0  0  0  0
   23.2467  -21.4386   -3.7405 O   0  0  0  0  0  0  0  0  0  0  0  0
  2  1  1  6
  2 10  1  0
  2  3  1  0
  3  4  1  0
  4  9  2  0
  5  6  2  0
  5  4  1  0
  6  7  1  0
  7  8  2  0
  9  8  1  0
 10 11  2  0
 12 13  1  0
 12 10  1  0
 13 21  1  0
 13 14  1  1
 15 14  1  0
 15 16  2  0
 17 16  1  0
 18 17  2  0
 19 20  2  0
 19 18  1  0
 20 15  1  0
 21 22  2  0
 21 28  1  0
 23 24  1  0
 24 25  1  0
 26 25  1  0
 27 26  1  6
 28 27  1  0
 29 31  1  0
 29 27  1  0
 30 29  2  0
M  END
$$$$
