FFM.pdb
     RDKit          3D

 31 32  0  0  1  0  0  0  0  0999 V2000
   27.5574  -22.5479  -16.2762 N   0  0  0  0  0  0  0  0  0  0  0  0
   26.9304  -21.4067  -15.6524 C   0  0  1  0  0  0  0  0  0  0  0  0
   26.0984  -20.6521  -16.6459 C   0  0  0  0  0  0  0  0  0  0  0  0
   26.8618  -19.9545  -17.6868 C   0  0  0  0  0  0  0  0  0  0  0  0
   27.5553  -18.7919  -17.4365 C   0  0  0  0  0  0  0  0  0  0  0  0
   28.2682  -18.1468  -18.4220 C   0  0  0  0  0  0  0  0  0  0  0  0
   28.2918  -18.6742  -19.6948 C   0  0  0  0  0  0  0  0  0  0  0  0
   27.5985  -19.8393  -19.9516 C   0  0  0  0  0  0  0  0  0  0  0  0
   26.8911  -20.4795  -18.9736 C   0  0  0  0  0  0  0  0  0  0  0  0
   26.2768  -21.7167  -14.3862 C   0  0  0  0  0  0  0  0  0  0  0  0
   25.8619  -22.9085  -14.1908 O   0  0  0  0  0  0  0  0  0  0  0  0
   26.0516  -20.8054  -13.3228 N   0  0  0  0  0  0  0  0  0  0  0  0
   25.3908  -21.1614  -12.0938 C   0  0  1  0  0  0  0  0  0  0  0  0
   26.0324  -20.4993  -10.8922 C   0  0  0  0  0  0  0  0  0  0  0  0
   27.4895  -20.7657  -10.8073 C   0  0  0  0  0  0  0  0  0  0  0  0
   28.1111  -21.4371   -9.7813 C   0  0  0  0  0  0  0  0  0  0  0  0
   29.4709  -21.6585   -9.7493 C   0  0  0  0  0  0  0  0  0  0  0  0
   30.2788  -21.2087  -10.7615 C   0  0  0  0  0  0  0  0  0  0  0  0
   29.6691  -20.5328  -11.7987 C   0  0  0  0  0  0  0  0  0  0  0  0
   28.3114  -20.3055  -11.8418 C   0  0  0  0  0  0  0  0  0  0  0  0
   23.9781  -20.7485  -12.1290 C   0  0  0  0  0  0  0  0  0  0  0  0
   23.2755  -20.9177  -11.1026 O   0  0  0  0  0  0  0  0  0  0  0  0
   20.9750  -17.0450  -16.5959 C   0  0  0  0  0  0  0  0  0  0  0  0
   19.5600  -18.0850  -16.0782 S   0  0  0  0  0  0  0  0  0  0  0  0
   20.0350  -18.8807  -14.5193 C   0  0  0  0  0  0  0  0  0  0  0  0
   21.4562  -19.3396  -14.5656 C   0  0  0  0  0  0  0  0  0  0  0  0
   21.9579  -19.8726  -13.2283 C   0  0  2  0  0  0  0  0  0  0  0  0
   23.3579  -20.1617  -13.2660 N   0  0  0  0  0  0  0  0  0  0  0  0
   21.1762  -21.0635  -12.9114 C   0  0  0  0  0  0  0  0  0  0  0  0
   21.3881  -22.1949  -13.4043 O   0  0  0  0  0  0  0  0  0  0  0  0
   20.1138  -20.9501  -11.9962 O   0  0  0  0  0  0  0  0  0  0  0  0
  2  1  1  6
  2 10  1  0
  2  3  1  0
  3  4  1  0
  4  9  2  0
  5  6  2  0
  5  4  1  0
  6  7  1  0
  7  8  2  0
  9  8  1  0
 10 11  2  0
 12 13  1  0
 12 10  1  0
 13 21  1  0
 13 14  1  1
 15 14  1  0
 15 16  2  0
 17 16  1  0
 18 17  2  0
 19 20  2  0
 19 18  1  0
 20 15  1  0
 21 22  2  0
 21 28  1  0
 23 24  1  0
 24 25  1  0
 26 25  1  0
 27 26  1  6
 28 27  1  0
 29 31  1  0
 29 27  1  0
 30 29  2  0
M  END
$$$$
