FFM.pdb
     RDKit          3D

 31 32  0  0  1  0  0  0  0  0999 V2000
   28.7231  -20.4798  -14.5704 N   0  0  0  0  0  0  0  0  0  0  0  0
   27.5826  -19.7459  -14.0752 C   0  0  1  0  0  0  0  0  0  0  0  0
   26.8737  -19.0498  -15.1985 C   0  0  0  0  0  0  0  0  0  0  0  0
   27.6115  -17.9300  -15.7940 C   0  0  0  0  0  0  0  0  0  0  0  0
   27.6870  -16.6947  -15.1912 C   0  0  0  0  0  0  0  0  0  0  0  0
   28.3829  -15.6518  -15.7603 C   0  0  0  0  0  0  0  0  0  0  0  0
   29.0229  -15.8439  -16.9654 C   0  0  0  0  0  0  0  0  0  0  0  0
   28.9508  -17.0800  -17.5743 C   0  0  0  0  0  0  0  0  0  0  0  0
   28.2601  -18.1149  -17.0095 C   0  0  0  0  0  0  0  0  0  0  0  0
   26.7347  -20.5185  -13.1748 C   0  0  0  0  0  0  0  0  0  0  0  0
   26.6082  -21.7720  -13.3832 O   0  0  0  0  0  0  0  0  0  0  0  0
   26.0199  -20.0052  -12.0623 N   0  0  0  0  0  0  0  0  0  0  0  0
   25.0909  -20.7827  -11.2836 C   0  0  1  0  0  0  0  0  0  0  0  0
   25.0043  -20.2961   -9.8519 C   0  0  0  0  0  0  0  0  0  0  0  0
   26.2947  -20.4208   -9.1304 C   0  0  0  0  0  0  0  0  0  0  0  0
   26.6578  -19.6833   -8.0285 C   0  0  0  0  0  0  0  0  0  0  0  0
   27.8711  -19.8371   -7.3936 C   0  0  0  0  0  0  0  0  0  0  0  0
   28.7875  -20.7520   -7.8440 C   0  0  0  0  0  0  0  0  0  0  0  0
   28.4372  -21.5000   -8.9495 C   0  0  0  0  0  0  0  0  0  0  0  0
   27.2277  -21.3553   -9.5924 C   0  0  0  0  0  0  0  0  0  0  0  0
   23.7399  -20.7051  -11.8634 C   0  0  0  0  0  0  0  0  0  0  0  0
   23.3081  -19.5871  -12.2365 O   0  0  0  0  0  0  0  0  0  0  0  0
   19.9181  -25.0818  -14.8991 C   0  0  0  0  0  0  0  0  0  0  0  0
   21.6452  -24.7348  -15.3979 S   0  0  0  0  0  0  0  0  0  0  0  0
   22.1429  -23.2134  -14.5456 C   0  0  0  0  0  0  0  0  0  0  0  0
   21.1916  -22.8845  -13.4413 C   0  0  0  0  0  0  0  0  0  0  0  0
   21.6068  -21.6571  -12.6380 C   0  0  2  0  0  0  0  0  0  0  0  0
   22.8891  -21.8321  -12.0299 N   0  0  0  0  0  0  0  0  0  0  0  0
   20.5709  -21.4181  -11.6382 C   0  0  0  0  0  0  0  0  0  0  0  0
   19.3902  -21.1030  -11.9112 O   0  0  0  0  0  0  0  0  0  0  0  0
   20.9037  -21.5458  -10.2773 O   0  0  0  0  0  0  0  0  0  0  0  0
  2  1  1  6
  2 10  1  0
  2  3  1  0
  3  4  1  0
  4  9  2  0
  5  6  2  0
  5  4  1  0
  6  7  1  0
  7  8  2  0
  9  8  1  0
 10 11  2  0
 12 13  1  0
 12 10  1  0
 13 21  1  0
 13 14  1  1
 15 14  1  0
 15 16  2  0
 17 16  1  0
 18 17  2  0
 19 20  2  0
 19 18  1  0
 20 15  1  0
 21 22  2  0
 21 28  1  0
 23 24  1  0
 24 25  1  0
 26 25  1  0
 27 26  1  1
 28 27  1  0
 29 31  1  0
 29 27  1  0
 30 29  2  0
M  END
$$$$
