FFM.pdb
     RDKit          3D

 31 32  0  0  1  0  0  0  0  0999 V2000
   19.8842  -10.6005  -17.4075 N   0  0  0  0  0  0  0  0  0  0  0  0
   20.2601   -9.2081  -17.3391 C   0  0  1  0  0  0  0  0  0  0  0  0
   19.8664   -8.4919  -18.5964 C   0  0  0  0  0  0  0  0  0  0  0  0
   20.4627   -9.0288  -19.8249 C   0  0  0  0  0  0  0  0  0  0  0  0
   19.7549   -9.8185  -20.7025 C   0  0  0  0  0  0  0  0  0  0  0  0
   20.3259  -10.3161  -21.8523 C   0  0  0  0  0  0  0  0  0  0  0  0
   21.6409  -10.0188  -22.1374 C   0  0  0  0  0  0  0  0  0  0  0  0
   22.3555   -9.2276  -21.2614 C   0  0  0  0  0  0  0  0  0  0  0  0
   21.7886   -8.7339  -20.1204 C   0  0  0  0  0  0  0  0  0  0  0  0
   19.8726   -8.5572  -16.0929 C   0  0  0  0  0  0  0  0  0  0  0  0
   18.7850   -8.9186  -15.5297 O   0  0  0  0  0  0  0  0  0  0  0  0
   20.6013   -7.5391  -15.4262 N   0  0  0  0  0  0  0  0  0  0  0  0
   20.1624   -6.9132  -14.2057 C   0  0  1  0  0  0  0  0  0  0  0  0
   21.3239   -6.5580  -13.3009 C   0  0  0  0  0  0  0  0  0  0  0  0
   20.8856   -5.8984  -12.0462 C   0  0  0  0  0  0  0  0  0  0  0  0
   20.5401   -6.5541  -10.8884 C   0  0  0  0  0  0  0  0  0  0  0  0
   20.1382   -5.8938   -9.7476 C   0  0  0  0  0  0  0  0  0  0  0  0
   20.0644   -4.5252   -9.7185 C   0  0  0  0  0  0  0  0  0  0  0  0
   20.4083   -3.8528  -10.8735 C   0  0  0  0  0  0  0  0  0  0  0  0
   20.8114   -4.5016  -12.0196 C   0  0  0  0  0  0  0  0  0  0  0  0
   19.4284   -5.6709  -14.4978 C   0  0  0  0  0  0  0  0  0  0  0  0
   19.9141   -4.8659  -15.3295 O   0  0  0  0  0  0  0  0  0  0  0  0
   13.9439   -7.2195  -13.5509 C   0  0  0  0  0  0  0  0  0  0  0  0
   13.6717   -5.4099  -13.4927 S   0  0  0  0  0  0  0  0  0  0  0  0
   15.2910   -4.6434  -13.2120 C   0  0  0  0  0  0  0  0  0  0  0  0
   16.0051   -4.4157  -14.5046 C   0  0  0  0  0  0  0  0  0  0  0  0
   17.4968   -4.1555  -14.3277 C   0  0  2  0  0  0  0  0  0  0  0  0
   18.1897   -5.3274  -13.8902 N   0  0  0  0  0  0  0  0  0  0  0  0
   17.6395   -3.0633  -13.3703 C   0  0  0  0  0  0  0  0  0  0  0  0
   16.9729   -2.9624  -12.3151 O   0  0  0  0  0  0  0  0  0  0  0  0
   18.5808   -2.0519  -13.6350 O   0  0  0  0  0  0  0  0  0  0  0  0
  2  1  1  6
  2 10  1  0
  2  3  1  0
  3  4  1  0
  4  9  2  0
  5  6  2  0
  5  4  1  0
  6  7  1  0
  7  8  2  0
  9  8  1  0
 10 11  2  0
 12 13  1  0
 12 10  1  0
 13 21  1  0
 13 14  1  1
 15 14  1  0
 15 16  2  0
 17 16  1  0
 18 17  2  0
 19 20  2  0
 19 18  1  0
 20 15  1  0
 21 22  2  0
 21 28  1  0
 23 24  1  0
 24 25  1  0
 26 25  1  0
 27 26  1  1
 28 27  1  0
 29 31  1  0
 29 27  1  0
 30 29  2  0
M  END
$$$$
