FFM.pdb
     RDKit          3D

 31 32  0  0  1  0  0  0  0  0999 V2000
   23.1717  -19.3820  -18.1772 N   0  0  0  0  0  0  0  0  0  0  0  0
   23.8177  -18.5733  -17.1705 C   0  0  1  0  0  0  0  0  0  0  0  0
   22.8257  -17.6683  -16.5029 C   0  0  0  0  0  0  0  0  0  0  0  0
   22.2223  -16.6594  -17.3811 C   0  0  0  0  0  0  0  0  0  0  0  0
   22.9643  -15.6665  -17.9800 C   0  0  0  0  0  0  0  0  0  0  0  0
   22.3861  -14.7256  -18.8023 C   0  0  0  0  0  0  0  0  0  0  0  0
   21.0289  -14.7742  -19.0357 C   0  0  0  0  0  0  0  0  0  0  0  0
   20.2801  -15.7672  -18.4381 C   0  0  0  0  0  0  0  0  0  0  0  0
   20.8539  -16.7009  -17.6220 C   0  0  0  0  0  0  0  0  0  0  0  0
   24.6830  -19.3327  -16.2754 C   0  0  0  0  0  0  0  0  0  0  0  0
   24.2807  -20.4713  -15.8604 O   0  0  0  0  0  0  0  0  0  0  0  0
   25.9589  -18.9242  -15.8092 N   0  0  0  0  0  0  0  0  0  0  0  0
   26.6929  -19.6187  -14.7832 C   0  0  1  0  0  0  0  0  0  0  0  0
   28.0999  -19.0796  -14.6285 C   0  0  0  0  0  0  0  0  0  0  0  0
   28.8611  -19.7758  -13.5621 C   0  0  0  0  0  0  0  0  0  0  0  0
   29.4324  -19.1640  -12.4717 C   0  0  0  0  0  0  0  0  0  0  0  0
   30.1313  -19.8571  -11.5074 C   0  0  0  0  0  0  0  0  0  0  0  0
   30.2899  -21.2160  -11.5968 C   0  0  0  0  0  0  0  0  0  0  0  0
   29.7219  -21.8445  -12.6861 C   0  0  0  0  0  0  0  0  0  0  0  0
   29.0212  -21.1625  -13.6561 C   0  0  0  0  0  0  0  0  0  0  0  0
   26.0172  -19.4812  -13.4824 C   0  0  0  0  0  0  0  0  0  0  0  0
   26.0214  -18.3604  -12.9172 O   0  0  0  0  0  0  0  0  0  0  0  0
   20.7463  -21.0838  -10.8478 C   0  0  0  0  0  0  0  0  0  0  0  0
   21.5344  -20.4148   -9.3367 S   0  0  0  0  0  0  0  0  0  0  0  0
   23.3220  -20.3939   -9.6413 C   0  0  0  0  0  0  0  0  0  0  0  0
   23.6149  -20.4610  -11.1050 C   0  0  0  0  0  0  0  0  0  0  0  0
   25.1069  -20.4645  -11.4182 C   0  0  2  0  0  0  0  0  0  0  0  0
   25.3517  -20.5516  -12.8244 N   0  0  0  0  0  0  0  0  0  0  0  0
   25.7010  -21.5893  -10.7030 C   0  0  0  0  0  0  0  0  0  0  0  0
   25.9065  -21.6072   -9.4679 O   0  0  0  0  0  0  0  0  0  0  0  0
   26.0719  -22.7334  -11.4328 O   0  0  0  0  0  0  0  0  0  0  0  0
  2  1  1  1
  2 10  1  0
  2  3  1  0
  3  4  1  0
  4  9  2  0
  5  6  2  0
  5  4  1  0
  6  7  1  0
  7  8  2  0
  9  8  1  0
 10 11  2  0
 12 13  1  0
 12 10  1  0
 13 21  1  0
 13 14  1  1
 15 14  1  0
 15 16  2  0
 17 16  1  0
 18 17  2  0
 19 20  2  0
 19 18  1  0
 20 15  1  0
 21 22  2  0
 21 28  1  0
 23 24  1  0
 24 25  1  0
 26 25  1  0
 27 26  1  6
 28 27  1  0
 29 31  1  0
 29 27  1  0
 30 29  2  0
M  END
$$$$
