FFM.pdb
     RDKit          3D

 31 32  0  0  1  0  0  0  0  0999 V2000
   20.7562  -19.1177  -19.7407 N   0  0  0  0  0  0  0  0  0  0  0  0
   19.8954  -19.1911  -18.5838 C   0  0  1  0  0  0  0  0  0  0  0  0
   18.5007  -19.5676  -18.9859 C   0  0  0  0  0  0  0  0  0  0  0  0
   17.8139  -18.5817  -19.8281 C   0  0  0  0  0  0  0  0  0  0  0  0
   17.6404  -18.7634  -21.1816 C   0  0  0  0  0  0  0  0  0  0  0  0
   16.9938  -17.8307  -21.9612 C   0  0  0  0  0  0  0  0  0  0  0  0
   16.5051  -16.6827  -21.3763 C   0  0  0  0  0  0  0  0  0  0  0  0
   16.6760  -16.4951  -20.0200 C   0  0  0  0  0  0  0  0  0  0  0  0
   17.3177  -17.4208  -19.2465 C   0  0  0  0  0  0  0  0  0  0  0  0
   20.4629  -19.9550  -17.4788 C   0  0  0  0  0  0  0  0  0  0  0  0
   21.3442  -20.8414  -17.7405 O   0  0  0  0  0  0  0  0  0  0  0  0
   20.1273  -19.8077  -16.1085 N   0  0  0  0  0  0  0  0  0  0  0  0
   20.7657  -20.5431  -15.0476 C   0  0  1  0  0  0  0  0  0  0  0  0
   21.5674  -19.6397  -14.1337 C   0  0  0  0  0  0  0  0  0  0  0  0
   22.7895  -19.1102  -14.7876 C   0  0  0  0  0  0  0  0  0  0  0  0
   23.9458  -19.8238  -14.9961 C   0  0  0  0  0  0  0  0  0  0  0  0
   25.0559  -19.2845  -15.6091 C   0  0  0  0  0  0  0  0  0  0  0  0
   25.0539  -17.9852  -16.0465 C   0  0  0  0  0  0  0  0  0  0  0  0
   23.9000  -17.2560  -15.8441 C   0  0  0  0  0  0  0  0  0  0  0  0
   22.7843  -17.7839  -15.2328 C   0  0  0  0  0  0  0  0  0  0  0  0
   19.7617  -21.2346  -14.2223 C   0  0  0  0  0  0  0  0  0  0  0  0
   18.6813  -20.6473  -13.9704 O   0  0  0  0  0  0  0  0  0  0  0  0
   20.1536  -27.1842  -10.4453 C   0  0  0  0  0  0  0  0  0  0  0  0
   18.5419  -26.8342  -11.2403 S   0  0  0  0  0  0  0  0  0  0  0  0
   18.3759  -25.0301  -11.3202 C   0  0  0  0  0  0  0  0  0  0  0  0
   19.3750  -24.4433  -12.2636 C   0  0  0  0  0  0  0  0  0  0  0  0
   18.9615  -23.0783  -12.8020 C   0  0  2  0  0  0  0  0  0  0  0  0
   19.9439  -22.5410  -13.6915 N   0  0  0  0  0  0  0  0  0  0  0  0
   18.7458  -22.2029  -11.6545 C   0  0  0  0  0  0  0  0  0  0  0  0
   17.6581  -22.1018  -11.0424 O   0  0  0  0  0  0  0  0  0  0  0  0
   19.8175  -21.4161  -11.1945 O   0  0  0  0  0  0  0  0  0  0  0  0
  2  1  1  6
  2 10  1  0
  2  3  1  0
  3  4  1  0
  4  9  2  0
  5  6  2  0
  5  4  1  0
  6  7  1  0
  7  8  2  0
  9  8  1  0
 10 11  2  0
 12 13  1  0
 12 10  1  0
 13 21  1  0
 13 14  1  1
 15 14  1  0
 15 16  2  0
 17 16  1  0
 18 17  2  0
 19 20  2  0
 19 18  1  0
 20 15  1  0
 21 22  2  0
 21 28  1  0
 23 24  1  0
 24 25  1  0
 26 25  1  0
 27 26  1  1
 28 27  1  0
 29 31  1  0
 29 27  1  0
 30 29  2  0
M  END
$$$$
