FFM.pdb
     RDKit          3D

 31 32  0  0  1  0  0  0  0  0999 V2000
   18.0220  -11.0363  -20.1232 N   0  0  0  0  0  0  0  0  0  0  0  0
   19.1889  -10.1906  -20.0354 C   0  0  1  0  0  0  0  0  0  0  0  0
   19.3362   -9.3627  -21.2770 C   0  0  0  0  0  0  0  0  0  0  0  0
   19.5541  -10.1304  -22.5084 C   0  0  0  0  0  0  0  0  0  0  0  0
   20.8132  -10.4564  -22.9594 C   0  0  0  0  0  0  0  0  0  0  0  0
   21.0044  -11.1776  -24.1166 C   0  0  0  0  0  0  0  0  0  0  0  0
   19.9098  -11.5867  -24.8469 C   0  0  0  0  0  0  0  0  0  0  0  0
   18.6453  -11.2629  -24.3997 C   0  0  0  0  0  0  0  0  0  0  0  0
   18.4556  -10.5472  -23.2513 C   0  0  0  0  0  0  0  0  0  0  0  0
   19.2925   -9.4642  -18.7751 C   0  0  0  0  0  0  0  0  0  0  0  0
   18.2161   -9.1251  -18.1774 O   0  0  0  0  0  0  0  0  0  0  0  0
   20.4985   -9.0885  -18.1298 N   0  0  0  0  0  0  0  0  0  0  0  0
   20.5453   -8.3567  -16.8903 C   0  0  1  0  0  0  0  0  0  0  0  0
   21.8051   -8.6533  -16.1036 C   0  0  0  0  0  0  0  0  0  0  0  0
   21.8879   -7.8691  -14.8468 C   0  0  0  0  0  0  0  0  0  0  0  0
   21.3968   -8.2754  -13.6287 C   0  0  0  0  0  0  0  0  0  0  0  0
   21.4988   -7.5080  -12.4888 C   0  0  0  0  0  0  0  0  0  0  0  0
   22.1077   -6.2801  -12.5219 C   0  0  0  0  0  0  0  0  0  0  0  0
   22.6058   -5.8585  -13.7379 C   0  0  0  0  0  0  0  0  0  0  0  0
   22.5098   -6.6165  -14.8839 C   0  0  0  0  0  0  0  0  0  0  0  0
   20.5095   -6.9072  -17.1452 C   0  0  0  0  0  0  0  0  0  0  0  0
   21.3165   -6.4217  -17.9751 O   0  0  0  0  0  0  0  0  0  0  0  0
   15.6657   -4.1992  -19.6343 C   0  0  0  0  0  0  0  0  0  0  0  0
   17.1512   -3.1364  -19.7606 S   0  0  0  0  0  0  0  0  0  0  0  0
   18.5263   -4.0660  -19.0301 C   0  0  0  0  0  0  0  0  0  0  0  0
   18.3593   -4.1918  -17.5505 C   0  0  0  0  0  0  0  0  0  0  0  0
   19.6348   -4.6275  -16.8381 C   0  0  2  0  0  0  0  0  0  0  0  0
   19.6049   -6.0174  -16.5035 N   0  0  0  0  0  0  0  0  0  0  0  0
   19.7764   -3.7955  -15.6476 C   0  0  0  0  0  0  0  0  0  0  0  0
   19.5050   -4.1781  -14.4866 O   0  0  0  0  0  0  0  0  0  0  0  0
   20.2463   -2.4779  -15.7966 O   0  0  0  0  0  0  0  0  0  0  0  0
  2  1  1  6
  2 10  1  0
  2  3  1  0
  3  4  1  0
  4  9  2  0
  5  6  2  0
  5  4  1  0
  6  7  1  0
  7  8  2  0
  9  8  1  0
 10 11  2  0
 12 13  1  0
 12 10  1  0
 13 21  1  0
 13 14  1  6
 15 14  1  0
 15 16  2  0
 17 16  1  0
 18 17  2  0
 19 20  2  0
 19 18  1  0
 20 15  1  0
 21 22  2  0
 21 28  1  0
 23 24  1  0
 24 25  1  0
 26 25  1  0
 27 26  1  1
 28 27  1  0
 29 31  1  0
 29 27  1  0
 30 29  2  0
M  END
$$$$
