CVG.pdb
     RDKit          3D

 18 17  0  0  1  0  0  0  0  0999 V2000
   16.7478  -16.2089  -15.4991 N   0  0  0  0  0  0  0  0  0  0  0  0
   16.8474  -14.9601  -14.8207 C   0  0  1  0  0  0  0  0  0  0  0  0
   17.7744  -14.9926  -13.6259 C   0  0  0  0  0  0  0  0  0  0  0  0
   17.1744  -16.1637  -12.3671 S   0  0  0  0  0  0  0  0  0  0  0  0
   17.2538  -13.8390  -15.6892 C   0  0  0  0  0  0  0  0  0  0  0  0
   18.1849  -14.0582  -16.5143 O   0  0  0  0  0  0  0  0  0  0  0  0
   14.7605  -10.8187  -16.8936 C   0  0  0  0  0  0  0  0  0  0  0  0
   15.9977  -11.2926  -17.6282 C   0  0  1  0  0  0  0  0  0  0  0  0
   16.4629  -10.1196  -18.4934 C   0  0  0  0  0  0  0  0  0  0  0  0
   17.0768  -11.5281  -16.6005 C   0  0  2  0  0  0  0  0  0  0  0  0
   16.6598  -12.5449  -15.6452 N   0  0  0  0  0  0  0  0  0  0  0  0
   17.4662  -10.2955  -15.8883 C   0  0  0  0  0  0  0  0  0  0  0  0
   16.7696   -9.9226  -14.9016 O   0  0  0  0  0  0  0  0  0  0  0  0
   18.5925   -9.5629  -16.3125 N   0  0  0  0  0  0  0  0  0  0  0  0
   19.0423   -8.3803  -15.6318 C   0  0  0  0  0  0  0  0  0  0  0  0
   18.1206   -7.2300  -15.8141 C   0  0  0  0  0  0  0  0  0  0  0  0
   18.0808   -6.1272  -15.0027 O   0  0  0  0  0  0  0  0  0  0  0  0
   17.3258   -7.2877  -16.7880 O   0  0  0  0  0  0  0  0  0  0  0  0
  2  1  1  6
  3  2  1  0
  4  3  1  0
  5  2  1  0
  6  5  2  0
  8  7  1  1
  8  9  1  0
  8 10  1  0
 10 12  1  0
 10 11  1  1
 11  5  1  0
 12 14  1  0
 13 12  2  0
 14 15  1  0
 16 15  1  0
 16 17  1  0
 18 16  2  0
M  END
$$$$
