CVG.pdb
     RDKit          3D

 18 17  0  0  1  0  0  0  0  0999 V2000
   28.2482  -20.9424  -16.9224 N   0  0  0  0  0  0  0  0  0  0  0  0
   27.1557  -21.7455  -16.4851 C   0  0  1  0  0  0  0  0  0  0  0  0
   27.5813  -23.0121  -15.7763 C   0  0  0  0  0  0  0  0  0  0  0  0
   28.5049  -24.1085  -16.8992 S   0  0  0  0  0  0  0  0  0  0  0  0
   26.1985  -21.0317  -15.6187 C   0  0  0  0  0  0  0  0  0  0  0  0
   26.6804  -20.3118  -14.6993 O   0  0  0  0  0  0  0  0  0  0  0  0
   24.4647  -18.3869  -16.3887 C   0  0  0  0  0  0  0  0  0  0  0  0
   23.3243  -19.1602  -15.7590 C   0  0  1  0  0  0  0  0  0  0  0  0
   22.5644  -19.8235  -16.9094 C   0  0  0  0  0  0  0  0  0  0  0  0
   23.9261  -20.2736  -14.9379 C   0  0  2  0  0  0  0  0  0  0  0  0
   24.7836  -21.1119  -15.7639 N   0  0  0  0  0  0  0  0  0  0  0  0
   22.9070  -21.1022  -14.2649 C   0  0  0  0  0  0  0  0  0  0  0  0
   22.5132  -22.1583  -14.8372 O   0  0  0  0  0  0  0  0  0  0  0  0
   22.3951  -20.7097  -13.0122 N   0  0  0  0  0  0  0  0  0  0  0  0
   21.3485  -21.4350  -12.3470 C   0  0  0  0  0  0  0  0  0  0  0  0
   20.0152  -21.2063  -12.9603 C   0  0  0  0  0  0  0  0  0  0  0  0
   18.8438  -21.7496  -12.5034 O   0  0  0  0  0  0  0  0  0  0  0  0
   19.9756  -20.4576  -13.9710 O   0  0  0  0  0  0  0  0  0  0  0  0
  2  1  1  1
  3  2  1  0
  4  3  1  0
  5  2  1  0
  6  5  2  0
  8  7  1  6
  8  9  1  0
  8 10  1  0
 10 12  1  0
 10 11  1  6
 11  5  1  0
 12 14  1  0
 13 12  2  0
 14 15  1  0
 16 15  1  0
 16 17  1  0
 18 16  2  0
M  END
$$$$
