CVG.pdb
     RDKit          3D

 18 17  0  0  1  0  0  0  0  0999 V2000
   14.0248  -14.5972  -12.4779 N   0  0  0  0  0  0  0  0  0  0  0  0
   14.9411  -13.5449  -12.1904 C   0  0  1  0  0  0  0  0  0  0  0  0
   16.2403  -13.6470  -12.9584 C   0  0  0  0  0  0  0  0  0  0  0  0
   17.2411  -15.0470  -12.3629 S   0  0  0  0  0  0  0  0  0  0  0  0
   14.3857  -12.1946  -12.4015 C   0  0  0  0  0  0  0  0  0  0  0  0
   13.7453  -11.9965  -13.4721 O   0  0  0  0  0  0  0  0  0  0  0  0
   11.9676  -10.7076  -10.3359 C   0  0  0  0  0  0  0  0  0  0  0  0
   12.9331   -9.5541  -10.5152 C   0  0  1  0  0  0  0  0  0  0  0  0
   13.8374   -9.5514   -9.2810 C   0  0  0  0  0  0  0  0  0  0  0  0
   13.8137   -9.8753  -11.6973 C   0  0  2  0  0  0  0  0  0  0  0  0
   14.5326  -11.1221  -11.4754 N   0  0  0  0  0  0  0  0  0  0  0  0
   14.7660   -8.7924  -12.0112 C   0  0  0  0  0  0  0  0  0  0  0  0
   15.8138   -8.6881  -11.3119 O   0  0  0  0  0  0  0  0  0  0  0  0
   14.4972   -7.9032  -13.0706 N   0  0  0  0  0  0  0  0  0  0  0  0
   15.4024   -6.8505  -13.4402 C   0  0  0  0  0  0  0  0  0  0  0  0
   15.0272   -5.5402  -12.8499 C   0  0  0  0  0  0  0  0  0  0  0  0
   15.7617   -4.3907  -12.9740 O   0  0  0  0  0  0  0  0  0  0  0  0
   13.9554   -5.4996  -12.1917 O   0  0  0  0  0  0  0  0  0  0  0  0
  2  1  1  6
  3  2  1  0
  4  3  1  0
  5  2  1  0
  6  5  2  0
  8  7  1  1
  8  9  1  0
  8 10  1  0
 10 12  1  0
 10 11  1  1
 11  5  1  0
 12 14  1  0
 13 12  2  0
 14 15  1  0
 16 15  1  0
 16 17  1  0
 18 16  2  0
M  END
$$$$
