CVG.pdb
     RDKit          3D

 18 17  0  0  1  0  0  0  0  0999 V2000
   18.0816  -12.6357  -15.9596 N   0  0  0  0  0  0  0  0  0  0  0  0
   17.9651  -11.2188  -15.8658 C   0  0  1  0  0  0  0  0  0  0  0  0
   17.1064  -10.7575  -14.7092 C   0  0  0  0  0  0  0  0  0  0  0  0
   15.4123  -11.4094  -14.8545 S   0  0  0  0  0  0  0  0  0  0  0  0
   19.2601  -10.5167  -15.7873 C   0  0  0  0  0  0  0  0  0  0  0  0
   20.1892  -11.0917  -15.1534 O   0  0  0  0  0  0  0  0  0  0  0  0
   22.7644   -7.7651  -17.4968 C   0  0  0  0  0  0  0  0  0  0  0  0
   21.3750   -8.3448  -17.6657 C   0  0  1  0  0  0  0  0  0  0  0  0
   21.5496   -9.6833  -18.3863 C   0  0  0  0  0  0  0  0  0  0  0  0
   20.8411   -8.6594  -16.2902 C   0  0  2  0  0  0  0  0  0  0  0  0
   19.5112   -9.2457  -16.3798 N   0  0  0  0  0  0  0  0  0  0  0  0
   20.8140   -7.4793  -15.4043 C   0  0  0  0  0  0  0  0  0  0  0  0
   19.9791   -6.5616  -15.6464 O   0  0  0  0  0  0  0  0  0  0  0  0
   21.7063   -7.3940  -14.3172 N   0  0  0  0  0  0  0  0  0  0  0  0
   21.6801   -6.3020  -13.3840 C   0  0  0  0  0  0  0  0  0  0  0  0
   22.0509   -5.0066  -14.0090 C   0  0  0  0  0  0  0  0  0  0  0  0
   21.5485   -3.7887  -13.6345 O   0  0  0  0  0  0  0  0  0  0  0  0
   22.8874   -5.0478  -14.9483 O   0  0  0  0  0  0  0  0  0  0  0  0
  2  1  1  1
  3  2  1  0
  4  3  1  0
  5  2  1  0
  6  5  2  0
  8  7  1  1
  8  9  1  0
  8 10  1  0
 10 12  1  0
 10 11  1  6
 11  5  1  0
 12 14  1  0
 13 12  2  0
 14 15  1  0
 16 15  1  0
 16 17  1  0
 18 16  2  0
M  END
$$$$
