CVG.pdb
     RDKit          3D

 18 17  0  0  1  0  0  0  0  0999 V2000
   25.3783  -20.7348   -8.5069 N   0  0  0  0  0  0  0  0  0  0  0  0
   24.7749  -20.8587   -9.7915 C   0  0  1  0  0  0  0  0  0  0  0  0
   23.3343  -20.3990   -9.8303 C   0  0  0  0  0  0  0  0  0  0  0  0
   22.2676  -21.5160   -8.8656 S   0  0  0  0  0  0  0  0  0  0  0  0
   25.5094  -20.1646  -10.8661 C   0  0  0  0  0  0  0  0  0  0  0  0
   25.9118  -18.9920  -10.6240 O   0  0  0  0  0  0  0  0  0  0  0  0
   28.7408  -19.9568  -14.2969 C   0  0  0  0  0  0  0  0  0  0  0  0
   27.8734  -20.8066  -13.3912 C   0  0  1  0  0  0  0  0  0  0  0  0
   28.6333  -20.9456  -12.0705 C   0  0  0  0  0  0  0  0  0  0  0  0
   26.6209  -20.0213  -13.0901 C   0  0  2  0  0  0  0  0  0  0  0  0
   25.7829  -20.7398  -12.1405 N   0  0  0  0  0  0  0  0  0  0  0  0
   25.8451  -19.6962  -14.3028 C   0  0  0  0  0  0  0  0  0  0  0  0
   25.1898  -20.6189  -14.8659 O   0  0  0  0  0  0  0  0  0  0  0  0
   25.8462  -18.3810  -14.8082 N   0  0  0  0  0  0  0  0  0  0  0  0
   25.0281  -17.9830  -15.9200 C   0  0  0  0  0  0  0  0  0  0  0  0
   25.7072  -18.1740  -17.2271 C   0  0  0  0  0  0  0  0  0  0  0  0
   25.1459  -17.8951  -18.4449 O   0  0  0  0  0  0  0  0  0  0  0  0
   26.8816  -18.6249  -17.1965 O   0  0  0  0  0  0  0  0  0  0  0  0
  2  1  1  1
  3  2  1  0
  4  3  1  0
  5  2  1  0
  6  5  2  0
  8  7  1  6
  8  9  1  0
  8 10  1  0
 10 12  1  0
 10 11  1  1
 11  5  1  0
 12 14  1  0
 13 12  2  0
 14 15  1  0
 16 15  1  0
 16 17  1  0
 18 16  2  0
M  END
$$$$
