CVG.pdb
     RDKit          3D

 18 17  0  0  1  0  0  0  0  0999 V2000
   18.0782  -11.9180  -15.6865 N   0  0  0  0  0  0  0  0  0  0  0  0
   18.0130  -10.4965  -15.7552 C   0  0  1  0  0  0  0  0  0  0  0  0
   17.0056   -9.8902  -14.8037 C   0  0  0  0  0  0  0  0  0  0  0  0
   15.3074  -10.3534  -15.2704 S   0  0  0  0  0  0  0  0  0  0  0  0
   19.3103   -9.8277  -15.5407 C   0  0  0  0  0  0  0  0  0  0  0  0
   20.0749  -10.3221  -14.6652 O   0  0  0  0  0  0  0  0  0  0  0  0
   23.1579   -7.3324  -16.9791 C   0  0  0  0  0  0  0  0  0  0  0  0
   21.8006   -7.9177  -17.3107 C   0  0  1  0  0  0  0  0  0  0  0  0
   22.0599   -9.3097  -17.8905 C   0  0  0  0  0  0  0  0  0  0  0  0
   21.0608   -8.1201  -16.0116 C   0  0  2  0  0  0  0  0  0  0  0  0
   19.7366   -8.6732  -16.2583 N   0  0  0  0  0  0  0  0  0  0  0  0
   20.9505   -6.8807  -15.2180 C   0  0  0  0  0  0  0  0  0  0  0  0
   20.1952   -5.9589  -15.6395 O   0  0  0  0  0  0  0  0  0  0  0  0
   21.6782   -6.7449  -14.0191 N   0  0  0  0  0  0  0  0  0  0  0  0
   21.6587   -5.5384  -13.2395 C   0  0  0  0  0  0  0  0  0  0  0  0
   22.1885   -4.3676  -13.9843 C   0  0  0  0  0  0  0  0  0  0  0  0
   22.9978   -4.4466  -15.0865 O   0  0  0  0  0  0  0  0  0  0  0  0
   21.8614   -3.2289  -13.5601 O   0  0  0  0  0  0  0  0  0  0  0  0
  2  1  1  1
  3  2  1  0
  4  3  1  0
  5  2  1  0
  6  5  2  0
  8  7  1  1
  8  9  1  0
  8 10  1  0
 10 12  1  0
 10 11  1  6
 11  5  1  0
 12 14  1  0
 13 12  2  0
 14 15  1  0
 16 15  1  0
 16 17  1  0
 18 16  2  0
M  END
$$$$
