FVV.pdb
     RDKit          3D

 26 26  0  0  1  0  0  0  0  0999 V2000
   25.0099  -21.4384   -8.4053 N   0  0  0  0  0  0  0  0  0  0  0  0
   25.5501  -20.4876   -9.3508 C   0  0  1  0  0  0  0  0  0  0  0  0
   27.0491  -20.4492   -9.2275 C   0  0  0  0  0  0  0  0  0  0  0  0
   27.4179  -19.8860   -7.9092 C   0  0  0  0  0  0  0  0  0  0  0  0
   26.8738  -18.6761   -7.5525 C   0  0  0  0  0  0  0  0  0  0  0  0
   27.1695  -18.0924   -6.3473 C   0  0  0  0  0  0  0  0  0  0  0  0
   28.0344  -18.7597   -5.4984 C   0  0  0  0  0  0  0  0  0  0  0  0
   28.5771  -19.9650   -5.8522 C   0  0  0  0  0  0  0  0  0  0  0  0
   28.2844  -20.5519   -7.0558 C   0  0  0  0  0  0  0  0  0  0  0  0
   25.1410  -20.8545  -10.7298 C   0  0  0  0  0  0  0  0  0  0  0  0
   25.2337  -22.0465  -11.1166 O   0  0  0  0  0  0  0  0  0  0  0  0
   22.3416  -20.2951  -14.6010 C   0  0  0  0  0  0  0  0  0  0  0  0
   22.7290  -19.9240  -13.2065 C   0  0  1  0  0  0  0  0  0  0  0  0
   21.8168  -20.5585  -12.1879 C   0  0  0  0  0  0  0  0  0  0  0  0
   24.1884  -20.2645  -12.9609 C   0  0  2  0  0  0  0  0  0  0  0  0
   24.6376  -19.9022  -11.6568 N   0  0  0  0  0  0  0  0  0  0  0  0
   25.0645  -19.7637  -14.0482 C   0  0  0  0  0  0  0  0  0  0  0  0
   25.6041  -18.6341  -14.0500 O   0  0  0  0  0  0  0  0  0  0  0  0
   28.6022  -21.1146  -16.8584 C   0  0  0  0  0  0  0  0  0  0  0  0
   27.4818  -21.3143  -15.8798 C   0  0  1  0  0  0  0  0  0  0  0  0
   27.8940  -21.2068  -14.4465 C   0  0  0  0  0  0  0  0  0  0  0  0
   26.3798  -20.2777  -16.1229 C   0  0  2  0  0  0  0  0  0  0  0  0
   25.3313  -20.5900  -15.1748 N   0  0  0  0  0  0  0  0  0  0  0  0
   25.9070  -20.2688  -17.5033 C   0  0  0  0  0  0  0  0  0  0  0  0
   25.1655  -21.1916  -17.9157 O   0  0  0  0  0  0  0  0  0  0  0  0
   26.2615  -19.2579  -18.3703 O   0  0  0  0  0  0  0  0  0  0  0  0
  2 10  1  0
  2  1  1  1
  3  2  1  0
  4  3  1  0
  5  4  2  0
  6  5  1  0
  7  8  1  0
  7  6  2  0
  8  9  2  0
  9  4  1  0
 10 11  2  0
 13 12  1  6
 13 14  1  0
 15 13  1  0
 15 16  1  1
 16 10  1  0
 17 18  2  0
 17 15  1  0
 20 19  1  6
 20 21  1  0
 20 22  1  0
 22 23  1  1
 23 17  1  0
 24 26  1  0
 24 22  1  0
 25 24  2  0
M  END
$$$$
