FVV.pdb
     RDKit          3D

 26 26  0  0  1  0  0  0  0  0999 V2000
   28.3993  -20.6639   -8.9381 N   0  0  0  0  0  0  0  0  0  0  0  0
   26.9779  -20.5655   -8.6936 C   0  0  1  0  0  0  0  0  0  0  0  0
   26.7037  -19.4122   -7.7671 C   0  0  0  0  0  0  0  0  0  0  0  0
   27.4315  -19.6218   -6.4953 C   0  0  0  0  0  0  0  0  0  0  0  0
   26.9711  -20.5975   -5.6449 C   0  0  0  0  0  0  0  0  0  0  0  0
   27.5938  -20.8485   -4.4491 C   0  0  0  0  0  0  0  0  0  0  0  0
   28.7025  -20.0882   -4.1231 C   0  0  0  0  0  0  0  0  0  0  0  0
   29.1624  -19.1160   -4.9692 C   0  0  0  0  0  0  0  0  0  0  0  0
   28.5431  -18.8617   -6.1652 C   0  0  0  0  0  0  0  0  0  0  0  0
   26.2523  -20.3978   -9.9777 C   0  0  0  0  0  0  0  0  0  0  0  0
   26.4387  -19.3693  -10.6752 O   0  0  0  0  0  0  0  0  0  0  0  0
   24.6846  -21.7896  -14.1417 C   0  0  0  0  0  0  0  0  0  0  0  0
   25.3544  -22.0486  -12.8315 C   0  0  1  0  0  0  0  0  0  0  0  0
   26.8387  -21.7969  -12.9058 C   0  0  0  0  0  0  0  0  0  0  0  0
   24.6888  -21.2365  -11.7343 C   0  0  2  0  0  0  0  0  0  0  0  0
   25.3352  -21.3656  -10.4697 N   0  0  0  0  0  0  0  0  0  0  0  0
   23.2260  -21.4763  -11.6777 C   0  0  0  0  0  0  0  0  0  0  0  0
   22.6950  -22.4321  -11.0680 O   0  0  0  0  0  0  0  0  0  0  0  0
   20.7723  -19.2507  -10.3441 C   0  0  0  0  0  0  0  0  0  0  0  0
   20.3341  -19.4516  -11.7654 C   0  0  1  0  0  0  0  0  0  0  0  0
   20.7517  -18.3580  -12.6957 C   0  0  0  0  0  0  0  0  0  0  0  0
   20.9038  -20.7653  -12.3109 C   0  0  2  0  0  0  0  0  0  0  0  0
   22.3400  -20.5860  -12.3452 N   0  0  0  0  0  0  0  0  0  0  0  0
   20.3496  -21.1246  -13.6120 C   0  0  0  0  0  0  0  0  0  0  0  0
   20.9673  -20.8210  -14.6596 O   0  0  0  0  0  0  0  0  0  0  0  0
   19.1508  -21.7970  -13.7137 O   0  0  0  0  0  0  0  0  0  0  0  0
  2 10  1  0
  2  1  1  6
  3  2  1  0
  4  3  1  0
  5  4  2  0
  6  5  1  0
  7  8  1  0
  7  6  2  0
  8  9  2  0
  9  4  1  0
 10 11  2  0
 13 12  1  6
 13 14  1  0
 15 13  1  0
 15 16  1  1
 16 10  1  0
 17 18  2  0
 17 15  1  0
 20 19  1  1
 20 21  1  0
 20 22  1  0
 22 23  1  6
 23 17  1  0
 24 26  1  0
 24 22  1  0
 25 24  2  0
M  END
$$$$
