FVV.pdb
     RDKit          3D

 26 26  0  0  1  0  0  0  0  0999 V2000
   17.0594  -18.8705    2.0363 N   0  0  0  0  0  0  0  0  0  0  0  0
   16.5548  -18.3154    3.2719 C   0  0  1  0  0  0  0  0  0  0  0  0
   16.2061  -19.4299    4.2208 C   0  0  0  0  0  0  0  0  0  0  0  0
   15.0486  -20.1829    3.6878 C   0  0  0  0  0  0  0  0  0  0  0  0
   13.7903  -19.7014    3.9561 C   0  0  0  0  0  0  0  0  0  0  0  0
   12.6706  -20.3457    3.4958 C   0  0  0  0  0  0  0  0  0  0  0  0
   12.8457  -21.4983    2.7510 C   0  0  0  0  0  0  0  0  0  0  0  0
   14.0985  -21.9792    2.4828 C   0  0  0  0  0  0  0  0  0  0  0  0
   15.2203  -21.3385    2.9410 C   0  0  0  0  0  0  0  0  0  0  0  0
   17.5646  -17.4065    3.8700 C   0  0  0  0  0  0  0  0  0  0  0  0
   18.7834  -17.7105    3.8339 O   0  0  0  0  0  0  0  0  0  0  0  0
   18.9616  -12.9758    5.3714 C   0  0  0  0  0  0  0  0  0  0  0  0
   17.9603  -13.8452    4.6829 C   0  0  1  0  0  0  0  0  0  0  0  0
   17.9714  -13.6328    3.1906 C   0  0  0  0  0  0  0  0  0  0  0  0
   18.1852  -15.2996    5.0572 C   0  0  2  0  0  0  0  0  0  0  0  0
   17.2136  -16.1802    4.4967 N   0  0  0  0  0  0  0  0  0  0  0  0
   18.3671  -15.4735    6.5192 C   0  0  0  0  0  0  0  0  0  0  0  0
   17.4322  -15.4394    7.3511 O   0  0  0  0  0  0  0  0  0  0  0  0
   22.0946  -16.9029    7.8998 C   0  0  0  0  0  0  0  0  0  0  0  0
   20.7784  -17.1247    8.5860 C   0  0  1  0  0  0  0  0  0  0  0  0
   20.8934  -17.4539   10.0401 C   0  0  0  0  0  0  0  0  0  0  0  0
   19.9034  -15.8728    8.4631 C   0  0  2  0  0  0  0  0  0  0  0  0
   19.6698  -15.6949    7.0455 N   0  0  0  0  0  0  0  0  0  0  0  0
   20.5055  -14.6991    9.0866 C   0  0  0  0  0  0  0  0  0  0  0  0
   21.2346  -13.9367    8.4094 O   0  0  0  0  0  0  0  0  0  0  0  0
   20.2871  -14.4087   10.4160 O   0  0  0  0  0  0  0  0  0  0  0  0
  2 10  1  0
  2  1  1  6
  3  2  1  0
  4  3  1  0
  5  4  2  0
  6  5  1  0
  7  8  1  0
  7  6  2  0
  8  9  2  0
  9  4  1  0
 10 11  2  0
 13 12  1  1
 13 14  1  0
 15 13  1  0
 15 16  1  1
 16 10  1  0
 17 18  2  0
 17 15  1  0
 20 19  1  1
 20 21  1  0
 20 22  1  0
 22 23  1  6
 23 17  1  0
 24 26  1  0
 24 22  1  0
 25 24  2  0
M  END
$$$$
