FVV.pdb
     RDKit          3D

 26 26  0  0  1  0  0  0  0  0999 V2000
   27.0139  -18.3180   -8.0392 N   0  0  0  0  0  0  0  0  0  0  0  0
   27.2182  -19.6917   -8.4406 C   0  0  1  0  0  0  0  0  0  0  0  0
   26.8928  -20.6070   -7.2916 C   0  0  0  0  0  0  0  0  0  0  0  0
   27.8006  -20.3141   -6.1597 C   0  0  0  0  0  0  0  0  0  0  0  0
   27.2369  -19.9375   -4.9650 C   0  0  0  0  0  0  0  0  0  0  0  0
   28.0145  -19.6501   -3.8725 C   0  0  0  0  0  0  0  0  0  0  0  0
   29.3874  -19.7507   -4.0091 C   0  0  0  0  0  0  0  0  0  0  0  0
   29.9504  -20.1259   -5.1986 C   0  0  0  0  0  0  0  0  0  0  0  0
   29.1771  -20.4140   -6.2930 C   0  0  0  0  0  0  0  0  0  0  0  0
   26.3774  -20.0056   -9.6229 C   0  0  0  0  0  0  0  0  0  0  0  0
   25.2162  -19.5334   -9.7115 O   0  0  0  0  0  0  0  0  0  0  0  0
   26.7389  -20.9446  -14.4369 C   0  0  0  0  0  0  0  0  0  0  0  0
   27.3529  -21.0456  -13.0785 C   0  0  1  0  0  0  0  0  0  0  0  0
   28.5814  -20.1806  -12.9573 C   0  0  0  0  0  0  0  0  0  0  0  0
   26.3193  -20.7271  -12.0124 C   0  0  2  0  0  0  0  0  0  0  0  0
   26.8307  -20.8335  -10.6854 N   0  0  0  0  0  0  0  0  0  0  0  0
   25.0578  -21.4790  -12.2219 C   0  0  0  0  0  0  0  0  0  0  0  0
   24.9409  -22.7138  -12.0522 O   0  0  0  0  0  0  0  0  0  0  0  0
   20.1922  -21.1576  -12.5892 C   0  0  0  0  0  0  0  0  0  0  0  0
   21.5479  -20.5978  -12.2710 C   0  0  1  0  0  0  0  0  0  0  0  0
   21.8363  -20.4854  -10.8081 C   0  0  0  0  0  0  0  0  0  0  0  0
   22.6390  -21.4771  -12.8911 C   0  0  2  0  0  0  0  0  0  0  0  0
   23.8874  -20.7881  -12.6413 N   0  0  0  0  0  0  0  0  0  0  0  0
   22.4146  -21.7407  -14.3086 C   0  0  0  0  0  0  0  0  0  0  0  0
   21.8160  -22.7835  -14.6630 O   0  0  0  0  0  0  0  0  0  0  0  0
   22.8508  -20.8591  -15.2740 O   0  0  0  0  0  0  0  0  0  0  0  0
  2 10  1  0
  2  1  1  1
  3  2  1  0
  4  3  1  0
  5  4  2  0
  6  5  1  0
  7  8  1  0
  7  6  2  0
  8  9  2  0
  9  4  1  0
 10 11  2  0
 13 12  1  6
 13 14  1  0
 15 13  1  0
 15 16  1  1
 16 10  1  0
 17 18  2  0
 17 15  1  0
 20 19  1  1
 20 21  1  0
 20 22  1  0
 22 23  1  6
 23 17  1  0
 24 26  1  0
 24 22  1  0
 25 24  2  0
M  END
$$$$
