FVV.pdb
     RDKit          3D

 26 26  0  0  1  0  0  0  0  0999 V2000
   27.8734  -20.6716  -10.3058 N   0  0  0  0  0  0  0  0  0  0  0  0
   26.4709  -20.7833   -9.9740 C   0  0  1  0  0  0  0  0  0  0  0  0
   26.0900  -19.6874   -9.0160 C   0  0  0  0  0  0  0  0  0  0  0  0
   26.8269  -19.8696   -7.7453 C   0  0  0  0  0  0  0  0  0  0  0  0
   27.7202  -18.8939   -7.3750 C   0  0  0  0  0  0  0  0  0  0  0  0
   28.4392  -18.9942   -6.2116 C   0  0  0  0  0  0  0  0  0  0  0  0
   28.2381  -20.1101   -5.4191 C   0  0  0  0  0  0  0  0  0  0  0  0
   27.3485  -21.0829   -5.7864 C   0  0  0  0  0  0  0  0  0  0  0  0
   26.6279  -20.9868   -6.9484 C   0  0  0  0  0  0  0  0  0  0  0  0
   25.6500  -20.7167  -11.2090 C   0  0  0  0  0  0  0  0  0  0  0  0
   25.8954  -19.8451  -12.0804 O   0  0  0  0  0  0  0  0  0  0  0  0
   23.2806  -22.6293  -14.8343 C   0  0  0  0  0  0  0  0  0  0  0  0
   24.0399  -22.7811  -13.5565 C   0  0  1  0  0  0  0  0  0  0  0  0
   25.5043  -23.0365  -13.8061 C   0  0  0  0  0  0  0  0  0  0  0  0
   23.8118  -21.5724  -12.6658 C   0  0  2  0  0  0  0  0  0  0  0  0
   24.5746  -21.6108  -11.4614 N   0  0  0  0  0  0  0  0  0  0  0  0
   22.3683  -21.3130  -12.4433 C   0  0  0  0  0  0  0  0  0  0  0  0
   21.6810  -21.8805  -11.5642 O   0  0  0  0  0  0  0  0  0  0  0  0
   20.9047  -17.8228  -12.2491 C   0  0  0  0  0  0  0  0  0  0  0  0
   20.1371  -18.5678  -13.3019 C   0  0  1  0  0  0  0  0  0  0  0  0
   20.5680  -18.2675  -14.7019 C   0  0  0  0  0  0  0  0  0  0  0  0
   20.2805  -20.0783  -13.0878 C   0  0  2  0  0  0  0  0  0  0  0  0
   21.6887  -20.3670  -13.2596 N   0  0  0  0  0  0  0  0  0  0  0  0
   19.4321  -20.8589  -13.9821 C   0  0  0  0  0  0  0  0  0  0  0  0
   19.8555  -21.1893  -15.1147 O   0  0  0  0  0  0  0  0  0  0  0  0
   18.1640  -21.2439  -13.6039 O   0  0  0  0  0  0  0  0  0  0  0  0
  2 10  1  0
  2  1  1  6
  3  2  1  0
  4  3  1  0
  5  4  2  0
  6  5  1  0
  7  8  1  0
  7  6  2  0
  8  9  2  0
  9  4  1  0
 10 11  2  0
 13 12  1  6
 13 14  1  0
 15 13  1  0
 15 16  1  1
 16 10  1  0
 17 18  2  0
 17 15  1  0
 20 19  1  1
 20 21  1  0
 20 22  1  0
 22 23  1  6
 23 17  1  0
 24 26  1  0
 24 22  1  0
 25 24  2  0
M  END
$$$$
