FVV.pdb
     RDKit          3D

 26 26  0  0  1  0  0  0  0  0999 V2000
   28.3098  -20.8435   -9.4640 N   0  0  0  0  0  0  0  0  0  0  0  0
   26.9232  -20.5737   -9.1571 C   0  0  1  0  0  0  0  0  0  0  0  0
   26.8247  -19.3260   -8.3219 C   0  0  0  0  0  0  0  0  0  0  0  0
   27.4457  -19.5706   -7.0008 C   0  0  0  0  0  0  0  0  0  0  0  0
   26.7348  -20.3047   -6.0827 C   0  0  0  0  0  0  0  0  0  0  0  0
   27.2456  -20.5713   -4.8382 C   0  0  0  0  0  0  0  0  0  0  0  0
   28.5015  -20.0779   -4.5333 C   0  0  0  0  0  0  0  0  0  0  0  0
   29.2109  -19.3466   -5.4467 C   0  0  0  0  0  0  0  0  0  0  0  0
   28.7043  -19.0776   -6.6916 C   0  0  0  0  0  0  0  0  0  0  0  0
   26.1431  -20.4343  -10.4123 C   0  0  0  0  0  0  0  0  0  0  0  0
   26.4821  -19.5823  -11.2715 O   0  0  0  0  0  0  0  0  0  0  0  0
   23.8143  -22.1339  -14.1433 C   0  0  0  0  0  0  0  0  0  0  0  0
   24.5764  -22.3053  -12.8696 C   0  0  1  0  0  0  0  0  0  0  0  0
   26.0512  -22.4858  -13.1234 C   0  0  0  0  0  0  0  0  0  0  0  0
   24.2933  -21.1458  -11.9306 C   0  0  2  0  0  0  0  0  0  0  0  0
   25.0046  -21.2354  -10.6978 N   0  0  0  0  0  0  0  0  0  0  0  0
   22.8381  -20.9155  -11.7582 C   0  0  0  0  0  0  0  0  0  0  0  0
   22.1419  -21.4605  -10.8719 O   0  0  0  0  0  0  0  0  0  0  0  0
   21.3379  -17.3267  -12.1848 C   0  0  0  0  0  0  0  0  0  0  0  0
   20.5670  -18.3038  -13.0236 C   0  0  1  0  0  0  0  0  0  0  0  0
   20.9628  -18.3194  -14.4654 C   0  0  0  0  0  0  0  0  0  0  0  0
   20.7498  -19.7242  -12.4785 C   0  0  2  0  0  0  0  0  0  0  0  0
   22.1569  -20.0265  -12.6351 N   0  0  0  0  0  0  0  0  0  0  0  0
   19.8873  -20.6983  -13.1389 C   0  0  0  0  0  0  0  0  0  0  0  0
   20.2901  -21.2950  -14.1652 O   0  0  0  0  0  0  0  0  0  0  0  0
   18.6283  -20.9786  -12.6534 O   0  0  0  0  0  0  0  0  0  0  0  0
  2 10  1  0
  2  1  1  6
  3  2  1  0
  4  3  1  0
  5  4  2  0
  6  5  1  0
  7  8  1  0
  7  6  2  0
  8  9  2  0
  9  4  1  0
 10 11  2  0
 13 12  1  6
 13 14  1  0
 15 13  1  0
 15 16  1  1
 16 10  1  0
 17 18  2  0
 17 15  1  0
 20 19  1  1
 20 21  1  0
 20 22  1  0
 22 23  1  6
 23 17  1  0
 24 26  1  0
 24 22  1  0
 25 24  2  0
M  END
$$$$
