WAI.pdb
     RDKit          3D

 28 29  0  0  1  0  0  0  0  0999 V2000
    6.4728  -18.2837   21.6450 N   0  0  0  0  0  0  0  0  0  0  0  0
    6.9113  -17.4073   22.6932 C   0  0  1  0  0  0  0  0  0  0  0  0
    6.2912  -17.7376   24.0276 C   0  0  0  0  0  0  0  0  0  0  0  0
    6.6124  -16.7809   25.0872 C   0  0  0  0  0  0  0  0  0  0  0  0
    6.7232  -17.0520   26.4298 C   0  0  0  0  0  0  0  0  0  0  0  0
    7.0270  -15.9064   27.0445 N   0  0  0  0  0  0  0  0  0  0  0  0
    7.1146  -14.9125   26.1453 C   0  0  0  0  0  0  0  0  0  0  0  0
    7.4043  -13.5579   26.3055 C   0  0  0  0  0  0  0  0  0  0  0  0
    7.4238  -12.7657   25.1780 C   0  0  0  0  0  0  0  0  0  0  0  0
    7.1668  -13.2899   23.9354 C   0  0  0  0  0  0  0  0  0  0  0  0
    6.8795  -14.6248   23.7624 C   0  0  0  0  0  0  0  0  0  0  0  0
    6.8574  -15.4385   24.9040 C   0  0  0  0  0  0  0  0  0  0  0  0
    8.3806  -17.3978   22.8677 C   0  0  0  0  0  0  0  0  0  0  0  0
    8.9201  -18.5183   23.1165 O   0  0  0  0  0  0  0  0  0  0  0  0
   11.1784  -15.1274   22.1274 C   0  0  0  0  0  0  0  0  0  0  0  0
   10.5853  -16.3218   22.8889 C   0  0  2  0  0  0  0  0  0  0  0  0
    9.1693  -16.2261   22.7696 N   0  0  0  0  0  0  0  0  0  0  0  0
   11.0693  -16.1868   24.2835 C   0  0  0  0  0  0  0  0  0  0  0  0
   12.3083  -16.1262   24.4747 O   0  0  0  0  0  0  0  0  0  0  0  0
    8.6624  -12.9623   27.9672 C   0  0  0  0  0  0  0  0  0  0  0  0
    9.8104  -13.6496   27.2348 C   0  0  0  0  0  0  0  0  0  0  0  0
    9.7496  -15.1136   27.5989 C   0  0  2  0  0  0  0  0  0  0  0  0
   10.0998  -15.2342   29.0642 C   0  0  0  0  0  0  0  0  0  0  0  0
   10.6648  -15.9573   26.7665 C   0  0  2  0  0  0  0  0  0  0  0  0
   10.2165  -16.1221   25.4122 N   0  0  0  0  0  0  0  0  0  0  0  0
   10.7673  -17.2980   27.3928 C   0  0  0  0  0  0  0  0  0  0  0  0
   11.3602  -17.4900   28.4903 O   0  0  0  0  0  0  0  0  0  0  0  0
   10.2031  -18.4022   26.7787 O   0  0  0  0  0  0  0  0  0  0  0  0
  2  1  1  6
  2  3  1  0
  2 13  1  0
  4  3  1  0
  4  5  2  0
  6  5  1  0
  7  6  1  0
  8  7  2  0
  9  8  1  0
 10  9  2  0
 10 11  1  0
 11 12  2  0
 12  7  1  0
 12  4  1  0
 13 14  2  0
 13 17  1  0
 16 15  1  6
 17 16  1  0
 18 19  2  0
 18 16  1  0
 20 21  1  0
 21 22  1  0
 22 23  1  1
 24 22  1  0
 24 25  1  6
 25 18  1  0
 26 24  1  0
 27 26  2  0
 28 26  1  0
M  END
$$$$
