WAI.pdb
     RDKit          3D

 28 29  0  0  1  0  0  0  0  0999 V2000
    6.6197  -16.4799   22.4298 N   0  0  0  0  0  0  0  0  0  0  0  0
    7.9882  -16.3319   22.8355 C   0  0  1  0  0  0  0  0  0  0  0  0
    8.1552  -16.3284   24.3343 C   0  0  0  0  0  0  0  0  0  0  0  0
    7.2335  -15.4331   25.0345 C   0  0  0  0  0  0  0  0  0  0  0  0
    6.1365  -15.8028   25.7751 C   0  0  0  0  0  0  0  0  0  0  0  0
    5.5733  -14.6847   26.2393 N   0  0  0  0  0  0  0  0  0  0  0  0
    6.2690  -13.6137   25.8233 C   0  0  0  0  0  0  0  0  0  0  0  0
    6.0716  -12.2518   26.0483 C   0  0  0  0  0  0  0  0  0  0  0  0
    6.9658  -11.3692   25.4820 C   0  0  0  0  0  0  0  0  0  0  0  0
    8.0182  -11.8129   24.7204 C   0  0  0  0  0  0  0  0  0  0  0  0
    8.2253  -13.1540   24.4899 C   0  0  0  0  0  0  0  0  0  0  0  0
    7.3205  -14.0594   25.0621 C   0  0  0  0  0  0  0  0  0  0  0  0
    8.8755  -17.3799   22.2844 C   0  0  0  0  0  0  0  0  0  0  0  0
    8.6271  -17.7541   21.0983 O   0  0  0  0  0  0  0  0  0  0  0  0
   11.1394  -16.1901   21.9477 C   0  0  0  0  0  0  0  0  0  0  0  0
   11.2385  -17.3549   22.9436 C   0  0  2  0  0  0  0  0  0  0  0  0
    9.9478  -17.9534   23.0095 N   0  0  0  0  0  0  0  0  0  0  0  0
   11.6728  -16.7491   24.2250 C   0  0  0  0  0  0  0  0  0  0  0  0
   12.7954  -16.1890   24.2622 O   0  0  0  0  0  0  0  0  0  0  0  0
    9.4315  -13.3447   28.5705 C   0  0  0  0  0  0  0  0  0  0  0  0
   10.5618  -14.3314   28.2955 C   0  0  0  0  0  0  0  0  0  0  0  0
   10.2747  -14.9657   26.9558 C   0  0  2  0  0  0  0  0  0  0  0  0
    8.8569  -15.4880   26.9929 C   0  0  0  0  0  0  0  0  0  0  0  0
   11.2333  -16.0651   26.6167 C   0  0  2  0  0  0  0  0  0  0  0  0
   10.8961  -16.7651   25.4090 N   0  0  0  0  0  0  0  0  0  0  0  0
   11.2457  -17.0392   27.7353 C   0  0  0  0  0  0  0  0  0  0  0  0
   10.7061  -18.1769   27.6496 O   0  0  0  0  0  0  0  0  0  0  0  0
   11.8631  -16.7222   28.9324 O   0  0  0  0  0  0  0  0  0  0  0  0
  2  1  1  1
  2  3  1  0
  2 13  1  0
  4  3  1  0
  4  5  2  0
  6  5  1  0
  7  6  1  0
  8  7  2  0
  9  8  1  0
 10  9  2  0
 10 11  1  0
 11 12  2  0
 12  7  1  0
 12  4  1  0
 13 14  2  0
 13 17  1  0
 16 15  1  6
 17 16  1  0
 18 19  2  0
 18 16  1  0
 20 21  1  0
 21 22  1  0
 22 23  1  1
 24 22  1  0
 24 25  1  6
 25 18  1  0
 26 24  1  0
 27 26  2  0
 28 26  1  0
M  END
$$$$
