WAI.pdb
     RDKit          3D

 28 29  0  0  1  0  0  0  0  0999 V2000
    7.8309  -17.7744   26.4091 N   0  0  0  0  0  0  0  0  0  0  0  0
    7.2671  -16.9069   25.4148 C   0  0  1  0  0  0  0  0  0  0  0  0
    8.1513  -15.7260   25.1017 C   0  0  0  0  0  0  0  0  0  0  0  0
    8.2661  -14.7609   26.1956 C   0  0  0  0  0  0  0  0  0  0  0  0
    9.2961  -14.6670   27.1005 C   0  0  0  0  0  0  0  0  0  0  0  0
    9.0104  -13.6580   27.9269 N   0  0  0  0  0  0  0  0  0  0  0  0
    7.8361  -13.1030   27.5846 C   0  0  0  0  0  0  0  0  0  0  0  0
    7.1319  -12.0367   28.1427 C   0  0  0  0  0  0  0  0  0  0  0  0
    5.9303  -11.6861   27.5660 C   0  0  0  0  0  0  0  0  0  0  0  0
    5.4395  -12.3627   26.4769 C   0  0  0  0  0  0  0  0  0  0  0  0
    6.1237  -13.4169   25.9158 C   0  0  0  0  0  0  0  0  0  0  0  0
    7.3472  -13.7807   26.4959 C   0  0  0  0  0  0  0  0  0  0  0  0
    6.9681  -17.5979   24.1410 C   0  0  0  0  0  0  0  0  0  0  0  0
    7.7226  -18.5735   23.8453 O   0  0  0  0  0  0  0  0  0  0  0  0
    4.3037  -17.5963   21.5667 C   0  0  0  0  0  0  0  0  0  0  0  0
    5.7273  -17.9124   22.0482 C   0  0  2  0  0  0  0  0  0  0  0  0
    5.9107  -17.2196   23.2789 N   0  0  0  0  0  0  0  0  0  0  0  0
    6.6277  -17.4427   20.9683 C   0  0  0  0  0  0  0  0  0  0  0  0
    6.5470  -18.0025   19.8477 O   0  0  0  0  0  0  0  0  0  0  0  0
    8.1941  -12.1594   20.2558 C   0  0  0  0  0  0  0  0  0  0  0  0
    8.4014  -13.5565   20.8318 C   0  0  0  0  0  0  0  0  0  0  0  0
    8.2457  -14.5303   19.6885 C   0  0  2  0  0  0  0  0  0  0  0  0
    6.8534  -14.3555   19.1269 C   0  0  0  0  0  0  0  0  0  0  0  0
    8.4734  -15.9516   20.1015 C   0  0  2  0  0  0  0  0  0  0  0  0
    7.5732  -16.4003   21.1263 N   0  0  0  0  0  0  0  0  0  0  0  0
    9.8615  -16.0767   20.6091 C   0  0  0  0  0  0  0  0  0  0  0  0
   10.1212  -16.3208   21.8198 O   0  0  0  0  0  0  0  0  0  0  0  0
   10.9366  -15.9261   19.7511 O   0  0  0  0  0  0  0  0  0  0  0  0
  2  1  1  1
  2  3  1  0
  2 13  1  0
  4  3  1  0
  4  5  2  0
  6  5  1  0
  7  6  1  0
  8  7  2  0
  9  8  1  0
 10  9  2  0
 10 11  1  0
 11 12  2  0
 12  7  1  0
 12  4  1  0
 13 14  2  0
 13 17  1  0
 16 15  1  6
 17 16  1  0
 18 19  2  0
 18 16  1  0
 20 21  1  0
 21 22  1  0
 22 23  1  1
 24 22  1  0
 24 25  1  1
 25 18  1  0
 26 24  1  0
 27 26  2  0
 28 26  1  0
M  END
$$$$
