WAI.pdb
     RDKit          3D

 28 29  0  0  1  0  0  0  0  0999 V2000
    7.8330  -17.8189   25.6697 N   0  0  0  0  0  0  0  0  0  0  0  0
    7.4316  -17.1266   24.4785 C   0  0  1  0  0  0  0  0  0  0  0  0
    7.9908  -15.7283   24.3999 C   0  0  0  0  0  0  0  0  0  0  0  0
    7.5698  -14.8556   25.4964 C   0  0  0  0  0  0  0  0  0  0  0  0
    6.2774  -14.5732   25.8687 C   0  0  0  0  0  0  0  0  0  0  0  0
    6.3353  -13.7388   26.9094 N   0  0  0  0  0  0  0  0  0  0  0  0
    7.6163  -13.4769   27.2168 C   0  0  0  0  0  0  0  0  0  0  0  0
    8.1715  -12.6731   28.2118 C   0  0  0  0  0  0  0  0  0  0  0  0
    9.5455  -12.5968   28.2861 C   0  0  0  0  0  0  0  0  0  0  0  0
   10.3450  -13.2887   27.4104 C   0  0  0  0  0  0  0  0  0  0  0  0
    9.8109  -14.0857   26.4235 C   0  0  0  0  0  0  0  0  0  0  0  0
    8.4137  -14.1693   26.3403 C   0  0  0  0  0  0  0  0  0  0  0  0
    7.8117  -17.8359   23.2368 C   0  0  0  0  0  0  0  0  0  0  0  0
    8.9877  -18.3096   23.2026 O   0  0  0  0  0  0  0  0  0  0  0  0
    6.2195  -18.8777   20.0449 C   0  0  0  0  0  0  0  0  0  0  0  0
    7.4386  -18.5520   20.9201 C   0  0  2  0  0  0  0  0  0  0  0  0
    6.9401  -17.9953   22.1326 N   0  0  0  0  0  0  0  0  0  0  0  0
    8.2564  -17.6021   20.1286 C   0  0  0  0  0  0  0  0  0  0  0  0
    8.7438  -18.0047   19.0443 O   0  0  0  0  0  0  0  0  0  0  0  0
    7.1849  -12.1983   20.3640 C   0  0  0  0  0  0  0  0  0  0  0  0
    7.4526  -13.5860   19.7902 C   0  0  0  0  0  0  0  0  0  0  0  0
    8.9084  -13.8936   20.0460 C   0  0  2  0  0  0  0  0  0  0  0  0
    9.7299  -12.9496   19.1984 C   0  0  0  0  0  0  0  0  0  0  0  0
    9.2627  -15.3171   19.7448 C   0  0  2  0  0  0  0  0  0  0  0  0
    8.5200  -16.2680   20.5235 N   0  0  0  0  0  0  0  0  0  0  0  0
   10.7070  -15.5105   20.0216 C   0  0  0  0  0  0  0  0  0  0  0  0
   11.6091  -15.0576   19.2640 O   0  0  0  0  0  0  0  0  0  0  0  0
   11.1171  -16.2086   21.1438 O   0  0  0  0  0  0  0  0  0  0  0  0
  2  1  1  1
  2  3  1  0
  2 13  1  0
  4  3  1  0
  4  5  2  0
  6  5  1  0
  7  6  1  0
  8  7  2  0
  9  8  1  0
 10  9  2  0
 10 11  1  0
 11 12  2  0
 12  7  1  0
 12  4  1  0
 13 14  2  0
 13 17  1  0
 16 15  1  6
 17 16  1  0
 18 19  2  0
 18 16  1  0
 20 21  1  0
 21 22  1  0
 22 23  1  6
 24 22  1  0
 24 25  1  1
 25 18  1  0
 26 24  1  0
 27 26  2  0
 28 26  1  0
M  END
$$$$
