WAI.pdb
     RDKit          3D

 28 29  0  0  1  0  0  0  0  0999 V2000
    6.3659  -17.7416   23.9557 N   0  0  0  0  0  0  0  0  0  0  0  0
    7.4350  -16.7873   24.0294 C   0  0  1  0  0  0  0  0  0  0  0  0
    7.5802  -16.1787   25.4016 C   0  0  0  0  0  0  0  0  0  0  0  0
    6.6634  -15.0681   25.6610 C   0  0  0  0  0  0  0  0  0  0  0  0
    5.3740  -15.1620   26.1269 C   0  0  0  0  0  0  0  0  0  0  0  0
    4.8928  -13.9202   26.2224 N   0  0  0  0  0  0  0  0  0  0  0  0
    5.8262  -13.0354   25.8348 C   0  0  0  0  0  0  0  0  0  0  0  0
    5.7916  -11.6434   25.7616 C   0  0  0  0  0  0  0  0  0  0  0  0
    6.9229  -10.9934   25.3180 C   0  0  0  0  0  0  0  0  0  0  0  0
    8.0496  -11.6908   24.9588 C   0  0  0  0  0  0  0  0  0  0  0  0
    8.0979  -13.0647   25.0259 C   0  0  0  0  0  0  0  0  0  0  0  0
    6.9515  -13.7346   25.4762 C   0  0  0  0  0  0  0  0  0  0  0  0
    8.7473  -17.3521   23.6443 C   0  0  0  0  0  0  0  0  0  0  0  0
    8.9318  -18.5753   23.9239 O   0  0  0  0  0  0  0  0  0  0  0  0
   11.9003  -16.1632   22.0603 C   0  0  0  0  0  0  0  0  0  0  0  0
   11.0910  -17.1066   22.9622 C   0  0  2  0  0  0  0  0  0  0  0  0
    9.7602  -16.6009   23.0006 N   0  0  0  0  0  0  0  0  0  0  0  0
   11.7696  -17.0794   24.2799 C   0  0  0  0  0  0  0  0  0  0  0  0
   12.9143  -17.5873   24.3646 O   0  0  0  0  0  0  0  0  0  0  0  0
   10.2287  -13.6155   28.6036 C   0  0  0  0  0  0  0  0  0  0  0  0
   10.2259  -14.9244   27.8205 C   0  0  0  0  0  0  0  0  0  0  0  0
   11.6650  -15.2448   27.4953 C   0  0  2  0  0  0  0  0  0  0  0  0
   12.2186  -14.0909   26.6911 C   0  0  0  0  0  0  0  0  0  0  0  0
   11.8182  -16.5319   26.7455 C   0  0  2  0  0  0  0  0  0  0  0  0
   11.2027  -16.5144   25.4482 N   0  0  0  0  0  0  0  0  0  0  0  0
   11.1982  -17.6174   27.5440 C   0  0  0  0  0  0  0  0  0  0  0  0
   10.1800  -18.2513   27.1510 O   0  0  0  0  0  0  0  0  0  0  0  0
   11.7296  -17.9749   28.7706 O   0  0  0  0  0  0  0  0  0  0  0  0
  2  1  1  1
  2  3  1  0
  2 13  1  0
  4  3  1  0
  4  5  2  0
  6  5  1  0
  7  6  1  0
  8  7  2  0
  9  8  1  0
 10  9  2  0
 10 11  1  0
 11 12  2  0
 12  7  1  0
 12  4  1  0
 13 14  2  0
 13 17  1  0
 16 15  1  6
 17 16  1  0
 18 19  2  0
 18 16  1  0
 20 21  1  0
 21 22  1  0
 22 23  1  6
 24 22  1  0
 24 25  1  6
 25 18  1  0
 26 24  1  0
 27 26  2  0
 28 26  1  0
M  END
$$$$
