WAI.pdb
     RDKit          3D

 28 29  0  0  1  0  0  0  0  0999 V2000
    6.5390  -18.4476   23.6765 N   0  0  0  0  0  0  0  0  0  0  0  0
    7.3195  -17.2523   23.8219 C   0  0  1  0  0  0  0  0  0  0  0  0
    7.3417  -16.7388   25.2396 C   0  0  0  0  0  0  0  0  0  0  0  0
    6.4997  -15.5625   25.4607 C   0  0  0  0  0  0  0  0  0  0  0  0
    5.2573  -15.5430   26.0475 C   0  0  0  0  0  0  0  0  0  0  0  0
    4.8386  -14.2752   26.0532 N   0  0  0  0  0  0  0  0  0  0  0  0
    5.7668  -13.4830   25.4919 C   0  0  0  0  0  0  0  0  0  0  0  0
    5.7826  -12.1057   25.2747 C   0  0  0  0  0  0  0  0  0  0  0  0
    6.8928  -11.5625   24.6651 C   0  0  0  0  0  0  0  0  0  0  0  0
    7.9510  -12.3491   24.2826 C   0  0  0  0  0  0  0  0  0  0  0  0
    7.9490  -13.7096   24.4906 C   0  0  0  0  0  0  0  0  0  0  0  0
    6.8236  -14.2711   25.1103 C   0  0  0  0  0  0  0  0  0  0  0  0
    8.7217  -17.4148   23.3781 C   0  0  0  0  0  0  0  0  0  0  0  0
    9.2817  -18.5094   23.6888 O   0  0  0  0  0  0  0  0  0  0  0  0
   11.3031  -15.3098   21.7063 C   0  0  0  0  0  0  0  0  0  0  0  0
   10.8462  -16.5062   22.5537 C   0  0  2  0  0  0  0  0  0  0  0  0
    9.4273  -16.4280   22.6482 N   0  0  0  0  0  0  0  0  0  0  0  0
   11.5325  -16.3566   23.8591 C   0  0  0  0  0  0  0  0  0  0  0  0
   12.7833  -16.2531   23.8596 O   0  0  0  0  0  0  0  0  0  0  0  0
   10.3705  -14.3745   29.5634 C   0  0  0  0  0  0  0  0  0  0  0  0
   11.3295  -15.1762   28.6893 C   0  0  0  0  0  0  0  0  0  0  0  0
   10.6626  -15.3440   27.3452 C   0  0  2  0  0  0  0  0  0  0  0  0
    9.3396  -16.0373   27.5758 C   0  0  0  0  0  0  0  0  0  0  0  0
   11.5006  -16.1161   26.3736 C   0  0  2  0  0  0  0  0  0  0  0  0
   10.8602  -16.3235   25.1051 N   0  0  0  0  0  0  0  0  0  0  0  0
   11.8068  -17.4409   26.9664 C   0  0  0  0  0  0  0  0  0  0  0  0
   11.2704  -18.5073   26.5565 O   0  0  0  0  0  0  0  0  0  0  0  0
   12.7095  -17.5490   28.0095 O   0  0  0  0  0  0  0  0  0  0  0  0
  2  1  1  1
  2  3  1  0
  2 13  1  0
  4  3  1  0
  4  5  2  0
  6  5  1  0
  7  6  1  0
  8  7  2  0
  9  8  1  0
 10  9  2  0
 10 11  1  0
 11 12  2  0
 12  7  1  0
 12  4  1  0
 13 14  2  0
 13 17  1  0
 16 15  1  6
 17 16  1  0
 18 19  2  0
 18 16  1  0
 20 21  1  0
 21 22  1  0
 22 23  1  1
 24 22  1  0
 24 25  1  6
 25 18  1  0
 26 24  1  0
 27 26  2  0
 28 26  1  0
M  END
$$$$
