NWD.pdb
     RDKit          3D

 31 32  0  0  1  0  0  0  0  0999 V2000
    9.8174  -15.6158   17.7354 N   0  0  0  0  0  0  0  0  0  0  0  0
    8.7816  -15.7672   18.7193 C   0  0  0  0  0  0  0  0  0  0  0  0
    7.6791  -16.1242   18.3071 O   0  0  0  0  0  0  0  0  0  0  0  0
    9.1060  -15.4938   20.0964 C   0  0  0  0  0  0  0  0  0  0  0  0
    9.5798  -16.6634   20.9319 C   0  0  2  0  0  0  0  0  0  0  0  0
    8.3945  -17.5529   21.0552 N   0  0  0  0  0  0  0  0  0  0  0  0
    9.9671  -16.3045   22.3047 C   0  0  0  0  0  0  0  0  0  0  0  0
   11.0086  -15.5884   22.4612 O   0  0  0  0  0  0  0  0  0  0  0  0
    9.2854  -16.6786   23.4723 N   0  0  0  0  0  0  0  0  0  0  0  0
    9.8041  -16.3372   24.8085 C   0  0  1  0  0  0  0  0  0  0  0  0
    8.7040  -16.4021   25.8397 C   0  0  0  0  0  0  0  0  0  0  0  0
    7.5640  -15.5140   25.5629 C   0  0  0  0  0  0  0  0  0  0  0  0
    6.3980  -15.8859   24.9456 C   0  0  0  0  0  0  0  0  0  0  0  0
    5.6016  -14.8258   24.8707 N   0  0  0  0  0  0  0  0  0  0  0  0
    6.1838  -13.7422   25.4154 C   0  0  0  0  0  0  0  0  0  0  0  0
    5.7447  -12.4472   25.5615 C   0  0  0  0  0  0  0  0  0  0  0  0
    6.5787  -11.5225   26.1767 C   0  0  0  0  0  0  0  0  0  0  0  0
    7.8223  -11.9376   26.6208 C   0  0  0  0  0  0  0  0  0  0  0  0
    8.2522  -13.2379   26.4692 C   0  0  0  0  0  0  0  0  0  0  0  0
    7.4312  -14.1747   25.8567 C   0  0  0  0  0  0  0  0  0  0  0  0
   10.7936  -17.3909   25.1535 C   0  0  0  0  0  0  0  0  0  0  0  0
   10.5807  -18.6104   24.9461 O   0  0  0  0  0  0  0  0  0  0  0  0
   12.0439  -17.0663   25.7422 N   0  0  0  0  0  0  0  0  0  0  0  0
   12.9548  -18.1275   26.2411 C   0  0  1  0  0  0  0  0  0  0  0  0
   14.3609  -17.5840   26.2638 C   0  0  0  0  0  0  0  0  0  0  0  0
   14.7962  -17.2090   24.9188 C   0  0  0  0  0  0  0  0  0  0  0  0
   14.1452  -17.4605   23.8844 O   0  0  0  0  0  0  0  0  0  0  0  0
   12.4736  -18.5311   27.5849 C   0  0  0  0  0  0  0  0  0  0  0  0
   13.0316  -19.4893   28.2213 O   0  0  0  0  0  0  0  0  0  0  0  0
   16.0091  -16.5222   24.6952 O   0  0  0  0  0  0  0  0  0  0  0  0
   11.4320  -17.9169   28.2060 O   0  0  0  0  0  0  0  0  0  0  0  0
  1  2  1  0
  2  3  2  0
  4  2  1  0
  4  5  1  0
  5  7  1  0
  5  6  1  1
  7  8  2  0
  9 10  1  0
  9  7  1  0
 10 11  1  1
 11 12  1  0
 12 13  2  0
 14 13  1  0
 15 14  1  0
 16 15  2  0
 17 16  1  0
 18 19  1  0
 18 17  2  0
 19 20  2  0
 20 15  1  0
 20 12  1  0
 21 22  2  0
 21 10  1  0
 23 21  1  0
 24 28  1  0
 24 23  1  0
 24 25  1  1
 26 25  1  0
 26 27  2  0
 28 31  1  0
 29 28  2  0
 30 26  1  0
M  END
$$$$
