NWD.pdb
     RDKit          3D

 31 32  0  0  1  0  0  0  0  0999 V2000
    6.8577  -17.8404   18.0242 N   0  0  0  0  0  0  0  0  0  0  0  0
    8.0775  -17.1061   17.8332 C   0  0  0  0  0  0  0  0  0  0  0  0
    8.5780  -17.1529   16.7105 O   0  0  0  0  0  0  0  0  0  0  0  0
    8.6170  -16.3793   18.9544 C   0  0  0  0  0  0  0  0  0  0  0  0
    7.8333  -16.4385   20.2478 C   0  0  2  0  0  0  0  0  0  0  0  0
    6.7071  -15.4859   20.0589 N   0  0  0  0  0  0  0  0  0  0  0  0
    8.5775  -15.9644   21.4246 C   0  0  0  0  0  0  0  0  0  0  0  0
    9.3069  -14.9291   21.2900 O   0  0  0  0  0  0  0  0  0  0  0  0
    8.5553  -16.5511   22.6986 N   0  0  0  0  0  0  0  0  0  0  0  0
    9.3064  -15.9709   23.8257 C   0  0  1  0  0  0  0  0  0  0  0  0
    8.5707  -16.1896   25.1253 C   0  0  0  0  0  0  0  0  0  0  0  0
    7.4250  -15.2893   25.3291 C   0  0  0  0  0  0  0  0  0  0  0  0
    6.1065  -15.6633   25.3087 C   0  0  0  0  0  0  0  0  0  0  0  0
    5.3580  -14.5894   25.5332 N   0  0  0  0  0  0  0  0  0  0  0  0
    6.1202  -13.4944   25.7060 C   0  0  0  0  0  0  0  0  0  0  0  0
    5.7899  -12.1836   25.9586 C   0  0  0  0  0  0  0  0  0  0  0  0
    6.8092  -11.2498   26.0926 C   0  0  0  0  0  0  0  0  0  0  0  0
    8.1215  -11.6721   25.9671 C   0  0  0  0  0  0  0  0  0  0  0  0
    8.4412  -12.9882   25.7139 C   0  0  0  0  0  0  0  0  0  0  0  0
    7.4347  -13.9343   25.5772 C   0  0  0  0  0  0  0  0  0  0  0  0
   10.5828  -16.7273   23.9098 C   0  0  0  0  0  0  0  0  0  0  0  0
   10.6462  -17.9669   23.7232 O   0  0  0  0  0  0  0  0  0  0  0  0
   11.8088  -16.0771   24.2090 N   0  0  0  0  0  0  0  0  0  0  0  0
   13.0830  -16.8366   24.2754 C   0  0  1  0  0  0  0  0  0  0  0  0
   14.2298  -15.8598   24.2155 C   0  0  0  0  0  0  0  0  0  0  0  0
   15.4134  -16.4818   23.6225 C   0  0  0  0  0  0  0  0  0  0  0  0
   15.4681  -17.6802   23.2795 O   0  0  0  0  0  0  0  0  0  0  0  0
   13.0657  -17.6254   25.5315 C   0  0  0  0  0  0  0  0  0  0  0  0
   12.4370  -17.2046   26.5621 O   0  0  0  0  0  0  0  0  0  0  0  0
   16.5999  -15.7520   23.3934 O   0  0  0  0  0  0  0  0  0  0  0  0
   13.7047  -18.8187   25.6570 O   0  0  0  0  0  0  0  0  0  0  0  0
  1  2  1  0
  2  3  2  0
  4  2  1  0
  4  5  1  0
  5  7  1  0
  5  6  1  6
  7  8  2  0
  9 10  1  0
  9  7  1  0
 10 11  1  1
 11 12  1  0
 12 13  2  0
 14 13  1  0
 15 14  1  0
 16 15  2  0
 17 16  1  0
 18 19  1  0
 18 17  2  0
 19 20  2  0
 20 15  1  0
 20 12  1  0
 21 22  2  0
 21 10  1  0
 23 21  1  0
 24 28  1  0
 24 23  1  0
 24 25  1  1
 26 25  1  0
 26 27  2  0
 28 31  1  0
 29 28  2  0
 30 26  1  0
M  END
$$$$
