NWD.pdb
     RDKit          3D

 31 32  0  0  1  0  0  0  0  0999 V2000
    6.9896  -12.9494   18.3457 N   0  0  0  0  0  0  0  0  0  0  0  0
    7.9222  -13.9784   18.7131 C   0  0  0  0  0  0  0  0  0  0  0  0
    8.2303  -14.7813   17.8337 O   0  0  0  0  0  0  0  0  0  0  0  0
    8.4207  -13.9938   20.0650 C   0  0  0  0  0  0  0  0  0  0  0  0
    8.7622  -15.3464   20.6518 C   0  0  2  0  0  0  0  0  0  0  0  0
    7.4575  -16.0466   20.7887 N   0  0  0  0  0  0  0  0  0  0  0  0
    9.3393  -15.2877   22.0035 C   0  0  0  0  0  0  0  0  0  0  0  0
   10.2537  -14.4289   22.2233 O   0  0  0  0  0  0  0  0  0  0  0  0
    8.9687  -16.0965   23.0880 N   0  0  0  0  0  0  0  0  0  0  0  0
    9.6185  -15.9638   24.4038 C   0  0  1  0  0  0  0  0  0  0  0  0
    8.6258  -16.2036   25.5150 C   0  0  0  0  0  0  0  0  0  0  0  0
    7.4980  -15.2589   25.5311 C   0  0  0  0  0  0  0  0  0  0  0  0
    6.2014  -15.5629   25.2067 C   0  0  0  0  0  0  0  0  0  0  0  0
    5.4634  -14.4667   25.3387 N   0  0  0  0  0  0  0  0  0  0  0  0
    6.2116  -13.4239   25.7420 C   0  0  0  0  0  0  0  0  0  0  0  0
    5.8846  -12.1145   26.0059 C   0  0  0  0  0  0  0  0  0  0  0  0
    6.8860  -11.2434   26.4151 C   0  0  0  0  0  0  0  0  0  0  0  0
    8.1776  -11.7246   26.5427 C   0  0  0  0  0  0  0  0  0  0  0  0
    8.4942  -13.0388   26.2756 C   0  0  0  0  0  0  0  0  0  0  0  0
    7.5055  -13.9225   25.8656 C   0  0  0  0  0  0  0  0  0  0  0  0
   10.6335  -17.0467   24.4789 C   0  0  0  0  0  0  0  0  0  0  0  0
   10.3596  -18.2464   24.2318 O   0  0  0  0  0  0  0  0  0  0  0  0
   11.9795  -16.7743   24.8383 N   0  0  0  0  0  0  0  0  0  0  0  0
   12.9508  -17.8749   25.0623 C   0  0  1  0  0  0  0  0  0  0  0  0
   14.3465  -17.3196   24.9328 C   0  0  0  0  0  0  0  0  0  0  0  0
   14.5157  -16.6290   23.6547 C   0  0  0  0  0  0  0  0  0  0  0  0
   15.0676  -15.5162   23.5361 O   0  0  0  0  0  0  0  0  0  0  0  0
   12.6803  -18.4401   26.4068 C   0  0  0  0  0  0  0  0  0  0  0  0
   13.3085  -19.4729   26.8230 O   0  0  0  0  0  0  0  0  0  0  0  0
   14.0558  -17.1870   22.4423 O   0  0  0  0  0  0  0  0  0  0  0  0
   11.7669  -17.9026   27.2581 O   0  0  0  0  0  0  0  0  0  0  0  0
  1  2  1  0
  2  3  2  0
  4  2  1  0
  4  5  1  0
  5  7  1  0
  5  6  1  1
  7  8  2  0
  9 10  1  0
  9  7  1  0
 10 11  1  1
 11 12  1  0
 12 13  2  0
 14 13  1  0
 15 14  1  0
 16 15  2  0
 17 16  1  0
 18 19  1  0
 18 17  2  0
 19 20  2  0
 20 15  1  0
 20 12  1  0
 21 22  2  0
 21 10  1  0
 23 21  1  0
 24 28  1  0
 24 23  1  0
 24 25  1  1
 26 25  1  0
 26 27  2  0
 28 31  1  0
 29 28  2  0
 30 26  1  0
M  END
$$$$
