NWD.pdb
     RDKit          3D

 31 32  0  0  1  0  0  0  0  0999 V2000
    8.5840  -13.5423   17.1652 N   0  0  0  0  0  0  0  0  0  0  0  0
    7.6022  -13.9655   18.1247 C   0  0  0  0  0  0  0  0  0  0  0  0
    6.4974  -14.2754   17.6815 O   0  0  0  0  0  0  0  0  0  0  0  0
    7.9786  -13.9954   19.5153 C   0  0  0  0  0  0  0  0  0  0  0  0
    8.7453  -15.2110   19.9896 C   0  0  2  0  0  0  0  0  0  0  0  0
    7.7532  -16.3188   19.9809 N   0  0  0  0  0  0  0  0  0  0  0  0
    9.2357  -15.1113   21.3727 C   0  0  0  0  0  0  0  0  0  0  0  0
   10.1299  -14.2405   21.6257 O   0  0  0  0  0  0  0  0  0  0  0  0
    8.8019  -15.8929   22.4538 N   0  0  0  0  0  0  0  0  0  0  0  0
    9.4180  -15.7715   23.7868 C   0  0  1  0  0  0  0  0  0  0  0  0
    8.4554  -16.2152   24.8612 C   0  0  0  0  0  0  0  0  0  0  0  0
    7.4111  -15.2292   25.1807 C   0  0  0  0  0  0  0  0  0  0  0  0
    6.0609  -15.4632   25.1513 C   0  0  0  0  0  0  0  0  0  0  0  0
    5.4299  -14.3479   25.5003 N   0  0  0  0  0  0  0  0  0  0  0  0
    6.3030  -13.3598   25.7667 C   0  0  0  0  0  0  0  0  0  0  0  0
    6.1127  -12.0554   26.1586 C   0  0  0  0  0  0  0  0  0  0  0  0
    7.2245  -11.2488   26.3645 C   0  0  0  0  0  0  0  0  0  0  0  0
    8.4846  -11.7869   26.1678 C   0  0  0  0  0  0  0  0  0  0  0  0
    8.6638  -13.0954   25.7751 C   0  0  0  0  0  0  0  0  0  0  0  0
    7.5635  -13.9151   25.5650 C   0  0  0  0  0  0  0  0  0  0  0  0
   10.5639  -16.7174   23.8044 C   0  0  0  0  0  0  0  0  0  0  0  0
   10.4498  -17.9219   23.4701 O   0  0  0  0  0  0  0  0  0  0  0  0
   11.8604  -16.3005   24.2052 N   0  0  0  0  0  0  0  0  0  0  0  0
   13.0008  -17.2513   24.2205 C   0  0  1  0  0  0  0  0  0  0  0  0
   14.2633  -16.4948   23.8936 C   0  0  0  0  0  0  0  0  0  0  0  0
   15.4310  -17.3720   23.9711 C   0  0  0  0  0  0  0  0  0  0  0  0
   15.6115  -18.3533   23.2219 O   0  0  0  0  0  0  0  0  0  0  0  0
   13.0390  -17.8784   25.5642 C   0  0  0  0  0  0  0  0  0  0  0  0
   12.5153  -17.2966   26.5751 O   0  0  0  0  0  0  0  0  0  0  0  0
   16.4552  -17.1630   24.9199 O   0  0  0  0  0  0  0  0  0  0  0  0
   13.6212  -19.0851   25.7941 O   0  0  0  0  0  0  0  0  0  0  0  0
  1  2  1  0
  2  3  2  0
  4  2  1  0
  4  5  1  0
  5  7  1  0
  5  6  1  1
  7  8  2  0
  9 10  1  0
  9  7  1  0
 10 11  1  1
 11 12  1  0
 12 13  2  0
 14 13  1  0
 15 14  1  0
 16 15  2  0
 17 16  1  0
 18 19  1  0
 18 17  2  0
 19 20  2  0
 20 15  1  0
 20 12  1  0
 21 22  2  0
 21 10  1  0
 23 21  1  0
 24 28  1  0
 24 23  1  0
 24 25  1  1
 26 25  1  0
 26 27  2  0
 28 31  1  0
 29 28  2  0
 30 26  1  0
M  END
$$$$
