NWD.pdb
     RDKit          3D

 31 32  0  0  1  0  0  0  0  0999 V2000
    7.7168  -17.1867   18.1106 N   0  0  0  0  0  0  0  0  0  0  0  0
    7.8517  -15.7828   18.3836 C   0  0  0  0  0  0  0  0  0  0  0  0
    7.5219  -15.0129   17.4828 O   0  0  0  0  0  0  0  0  0  0  0  0
    8.3558  -15.3858   19.6738 C   0  0  0  0  0  0  0  0  0  0  0  0
    8.7580  -16.4955   20.6211 C   0  0  2  0  0  0  0  0  0  0  0  0
    7.4829  -17.1643   20.9931 N   0  0  0  0  0  0  0  0  0  0  0  0
    9.3560  -16.0249   21.8798 C   0  0  0  0  0  0  0  0  0  0  0  0
   10.2308  -15.1016   21.8144 O   0  0  0  0  0  0  0  0  0  0  0  0
    9.0456  -16.5012   23.1623 N   0  0  0  0  0  0  0  0  0  0  0  0
    9.7914  -16.0516   24.3510 C   0  0  1  0  0  0  0  0  0  0  0  0
    8.9334  -16.1537   25.5884 C   0  0  0  0  0  0  0  0  0  0  0  0
    7.6999  -15.3533   25.5353 C   0  0  0  0  0  0  0  0  0  0  0  0
    6.4495  -15.8375   25.2508 C   0  0  0  0  0  0  0  0  0  0  0  0
    5.5848  -14.8306   25.2965 N   0  0  0  0  0  0  0  0  0  0  0  0
    6.2018  -13.6748   25.6022 C   0  0  0  0  0  0  0  0  0  0  0  0
    5.7193  -12.3964   25.7571 C   0  0  0  0  0  0  0  0  0  0  0  0
    6.6083  -11.3795   26.0808 C   0  0  0  0  0  0  0  0  0  0  0  0
    7.9484  -11.6895   26.2360 C   0  0  0  0  0  0  0  0  0  0  0  0
    8.4211  -12.9741   26.0784 C   0  0  0  0  0  0  0  0  0  0  0  0
    7.5462  -14.0020   25.7549 C   0  0  0  0  0  0  0  0  0  0  0  0
   10.9210  -17.0024   24.5189 C   0  0  0  0  0  0  0  0  0  0  0  0
   10.7997  -18.2360   24.3214 O   0  0  0  0  0  0  0  0  0  0  0  0
   12.2091  -16.5570   24.9160 N   0  0  0  0  0  0  0  0  0  0  0  0
   13.3159  -17.5197   25.1458 C   0  0  1  0  0  0  0  0  0  0  0  0
   14.6270  -16.8059   24.9348 C   0  0  0  0  0  0  0  0  0  0  0  0
   14.7298  -16.2989   23.5667 C   0  0  0  0  0  0  0  0  0  0  0  0
   14.2860  -16.9025   22.5689 O   0  0  0  0  0  0  0  0  0  0  0  0
   13.1659  -18.0495   26.5232 C   0  0  0  0  0  0  0  0  0  0  0  0
   12.2567  -17.6023   27.3028 O   0  0  0  0  0  0  0  0  0  0  0  0
   15.3520  -15.0654   23.2766 O   0  0  0  0  0  0  0  0  0  0  0  0
   13.9705  -19.0228   27.0263 O   0  0  0  0  0  0  0  0  0  0  0  0
  1  2  1  0
  2  3  2  0
  4  2  1  0
  4  5  1  0
  5  7  1  0
  5  6  1  1
  7  8  2  0
  9 10  1  0
  9  7  1  0
 10 11  1  1
 11 12  1  0
 12 13  2  0
 14 13  1  0
 15 14  1  0
 16 15  2  0
 17 16  1  0
 18 19  1  0
 18 17  2  0
 19 20  2  0
 20 15  1  0
 20 12  1  0
 21 22  2  0
 21 10  1  0
 23 21  1  0
 24 28  1  0
 24 23  1  0
 24 25  1  1
 26 25  1  0
 26 27  2  0
 28 31  1  0
 29 28  2  0
 30 26  1  0
M  END
$$$$
