NWD.pdb
     RDKit          3D

 31 32  0  0  1  0  0  0  0  0999 V2000
    7.0221  -14.4050   17.5211 N   0  0  0  0  0  0  0  0  0  0  0  0
    8.0454  -15.3123   17.9608 C   0  0  0  0  0  0  0  0  0  0  0  0
    8.4040  -16.1696   17.1548 O   0  0  0  0  0  0  0  0  0  0  0  0
    8.5686  -15.1536   19.2939 C   0  0  0  0  0  0  0  0  0  0  0  0
    8.7172  -16.4105   20.1237 C   0  0  2  0  0  0  0  0  0  0  0  0
    7.3300  -16.9112   20.3148 N   0  0  0  0  0  0  0  0  0  0  0  0
    9.2590  -16.1811   21.4718 C   0  0  0  0  0  0  0  0  0  0  0  0
   10.2977  -15.4519   21.5795 O   0  0  0  0  0  0  0  0  0  0  0  0
    8.7294  -16.6935   22.6654 N   0  0  0  0  0  0  0  0  0  0  0  0
    9.3816  -16.4484   23.9638 C   0  0  1  0  0  0  0  0  0  0  0  0
    8.4207  -16.7036   25.0994 C   0  0  0  0  0  0  0  0  0  0  0  0
    7.3871  -15.6687   25.2597 C   0  0  0  0  0  0  0  0  0  0  0  0
    6.0470  -15.8412   25.0296 C   0  0  0  0  0  0  0  0  0  0  0  0
    5.4233  -14.6958   25.2805 N   0  0  0  0  0  0  0  0  0  0  0  0
    6.2917  -13.7466   25.6738 C   0  0  0  0  0  0  0  0  0  0  0  0
    6.1056  -12.4322   26.0327 C   0  0  0  0  0  0  0  0  0  0  0  0
    7.2105  -11.6757   26.4017 C   0  0  0  0  0  0  0  0  0  0  0  0
    8.4596  -12.2721   26.3950 C   0  0  0  0  0  0  0  0  0  0  0  0
    8.6346  -13.5901   26.0335 C   0  0  0  0  0  0  0  0  0  0  0  0
    7.5412  -14.3603   25.6621 C   0  0  0  0  0  0  0  0  0  0  0  0
   10.4736  -17.4497   24.0777 C   0  0  0  0  0  0  0  0  0  0  0  0
   10.3484  -18.6331   23.6783 O   0  0  0  0  0  0  0  0  0  0  0  0
   11.7280  -17.1133   24.6510 N   0  0  0  0  0  0  0  0  0  0  0  0
   12.8197  -18.1151   24.7484 C   0  0  1  0  0  0  0  0  0  0  0  0
   14.1421  -17.3925   24.7020 C   0  0  0  0  0  0  0  0  0  0  0  0
   15.2546  -18.3337   24.8277 C   0  0  0  0  0  0  0  0  0  0  0  0
   15.3321  -19.1994   25.7230 O   0  0  0  0  0  0  0  0  0  0  0  0
   12.6210  -18.8682   26.0108 C   0  0  0  0  0  0  0  0  0  0  0  0
   12.9317  -20.1057   26.0925 O   0  0  0  0  0  0  0  0  0  0  0  0
   16.3397  -18.3258   23.9247 O   0  0  0  0  0  0  0  0  0  0  0  0
   12.1075  -18.2972   27.1325 O   0  0  0  0  0  0  0  0  0  0  0  0
  1  2  1  0
  2  3  2  0
  4  2  1  0
  4  5  1  0
  5  7  1  0
  5  6  1  1
  7  8  2  0
  9 10  1  0
  9  7  1  0
 10 11  1  1
 11 12  1  0
 12 13  2  0
 14 13  1  0
 15 14  1  0
 16 15  2  0
 17 16  1  0
 18 19  1  0
 18 17  2  0
 19 20  2  0
 20 15  1  0
 20 12  1  0
 21 22  2  0
 21 10  1  0
 23 21  1  0
 24 28  1  0
 24 23  1  0
 24 25  1  1
 26 25  1  0
 26 27  2  0
 28 31  1  0
 29 28  2  0
 30 26  1  0
M  END
$$$$
