NWD.pdb
     RDKit          3D

 31 32  0  0  1  0  0  0  0  0999 V2000
   10.6210  -16.2666   17.6263 N   0  0  0  0  0  0  0  0  0  0  0  0
    9.4908  -15.8748   18.4217 C   0  0  0  0  0  0  0  0  0  0  0  0
    8.4128  -15.7794   17.8369 O   0  0  0  0  0  0  0  0  0  0  0  0
    9.7000  -15.6263   19.8256 C   0  0  0  0  0  0  0  0  0  0  0  0
    9.7834  -16.8377   20.7289 C   0  0  2  0  0  0  0  0  0  0  0  0
    8.4338  -17.4590   20.6644 N   0  0  0  0  0  0  0  0  0  0  0  0
   10.0195  -16.5175   22.1449 C   0  0  0  0  0  0  0  0  0  0  0  0
   11.0611  -15.8454   22.4373 O   0  0  0  0  0  0  0  0  0  0  0  0
    9.1919  -16.8841   23.2165 N   0  0  0  0  0  0  0  0  0  0  0  0
    9.5753  -16.6110   24.6128 C   0  0  1  0  0  0  0  0  0  0  0  0
    8.3614  -16.6169   25.5096 C   0  0  0  0  0  0  0  0  0  0  0  0
    7.4009  -15.5373   25.2326 C   0  0  0  0  0  0  0  0  0  0  0  0
    6.2220  -15.6784   24.5478 C   0  0  0  0  0  0  0  0  0  0  0  0
    5.6183  -14.4966   24.4959 N   0  0  0  0  0  0  0  0  0  0  0  0
    6.3447  -13.5529   25.1215 C   0  0  0  0  0  0  0  0  0  0  0  0
    6.1209  -12.2103   25.3177 C   0  0  0  0  0  0  0  0  0  0  0  0
    7.0653  -11.4687   26.0158 C   0  0  0  0  0  0  0  0  0  0  0  0
    8.1982  -12.1078   26.4892 C   0  0  0  0  0  0  0  0  0  0  0  0
    8.4123  -13.4538   26.2869 C   0  0  0  0  0  0  0  0  0  0  0  0
    7.4787  -14.2096   25.5914 C   0  0  0  0  0  0  0  0  0  0  0  0
   10.4412  -17.7419   25.0365 C   0  0  0  0  0  0  0  0  0  0  0  0
   10.3680  -18.8806   24.5134 O   0  0  0  0  0  0  0  0  0  0  0  0
   11.4059  -17.5885   26.0665 N   0  0  0  0  0  0  0  0  0  0  0  0
   12.2599  -18.7261   26.4926 C   0  0  1  0  0  0  0  0  0  0  0  0
   13.7057  -18.3223   26.3520 C   0  0  0  0  0  0  0  0  0  0  0  0
   14.5896  -19.3530   26.8955 C   0  0  0  0  0  0  0  0  0  0  0  0
   14.6485  -20.5186   26.4540 O   0  0  0  0  0  0  0  0  0  0  0  0
   11.8905  -19.0607   27.8897 C   0  0  0  0  0  0  0  0  0  0  0  0
   11.2282  -18.2368   28.6087 O   0  0  0  0  0  0  0  0  0  0  0  0
   15.4546  -19.0930   27.9804 O   0  0  0  0  0  0  0  0  0  0  0  0
   12.2278  -20.2404   28.4749 O   0  0  0  0  0  0  0  0  0  0  0  0
  1  2  1  0
  2  3  2  0
  4  2  1  0
  4  5  1  0
  5  7  1  0
  5  6  1  1
  7  8  2  0
  9 10  1  0
  9  7  1  0
 10 11  1  1
 11 12  1  0
 12 13  2  0
 14 13  1  0
 15 14  1  0
 16 15  2  0
 17 16  1  0
 18 19  1  0
 18 17  2  0
 19 20  2  0
 20 15  1  0
 20 12  1  0
 21 22  2  0
 21 10  1  0
 23 21  1  0
 24 28  1  0
 24 23  1  0
 24 25  1  1
 26 25  1  0
 26 27  2  0
 28 31  1  0
 29 28  2  0
 30 26  1  0
M  END
$$$$
