NWD.pdb
     RDKit          3D

 31 32  0  0  1  0  0  0  0  0999 V2000
    6.9069  -17.4545   18.1107 N   0  0  0  0  0  0  0  0  0  0  0  0
    8.1143  -16.6906   17.9618 C   0  0  0  0  0  0  0  0  0  0  0  0
    8.5770  -16.6086   16.8251 O   0  0  0  0  0  0  0  0  0  0  0  0
    8.6860  -16.0854   19.1379 C   0  0  0  0  0  0  0  0  0  0  0  0
    7.9983  -16.3700   20.4557 C   0  0  2  0  0  0  0  0  0  0  0  0
    6.7351  -15.5868   20.4072 N   0  0  0  0  0  0  0  0  0  0  0  0
    8.7338  -15.8881   21.6348 C   0  0  0  0  0  0  0  0  0  0  0  0
    9.5641  -14.9365   21.4702 O   0  0  0  0  0  0  0  0  0  0  0  0
    8.6013  -16.3821   22.9410 N   0  0  0  0  0  0  0  0  0  0  0  0
    9.4466  -15.8849   24.0408 C   0  0  1  0  0  0  0  0  0  0  0  0
    8.7798  -16.1209   25.3740 C   0  0  0  0  0  0  0  0  0  0  0  0
    7.5974  -15.2791   25.6150 C   0  0  0  0  0  0  0  0  0  0  0  0
    6.2996  -15.7193   25.6394 C   0  0  0  0  0  0  0  0  0  0  0  0
    5.5057  -14.6840   25.8873 N   0  0  0  0  0  0  0  0  0  0  0  0
    6.2167  -13.5513   26.0328 C   0  0  0  0  0  0  0  0  0  0  0  0
    5.8291  -12.2581   26.2944 C   0  0  0  0  0  0  0  0  0  0  0  0
    6.8037  -11.2735   26.3927 C   0  0  0  0  0  0  0  0  0  0  0  0
    8.1307  -11.6293   26.2238 C   0  0  0  0  0  0  0  0  0  0  0  0
    8.5081  -12.9283   25.9619 C   0  0  0  0  0  0  0  0  0  0  0  0
    7.5468  -13.9245   25.8605 C   0  0  0  0  0  0  0  0  0  0  0  0
   10.6862  -16.7042   24.0173 C   0  0  0  0  0  0  0  0  0  0  0  0
   10.7933  -17.7462   23.3257 O   0  0  0  0  0  0  0  0  0  0  0  0
   11.8245  -16.3445   24.7855 N   0  0  0  0  0  0  0  0  0  0  0  0
   13.1576  -16.9341   24.5027 C   0  0  1  0  0  0  0  0  0  0  0  0
   14.0122  -15.8914   23.8279 C   0  0  0  0  0  0  0  0  0  0  0  0
   15.3324  -16.4306   23.5029 C   0  0  0  0  0  0  0  0  0  0  0  0
   16.2829  -16.4699   24.3103 O   0  0  0  0  0  0  0  0  0  0  0  0
   13.7243  -17.3927   25.7945 C   0  0  0  0  0  0  0  0  0  0  0  0
   13.4859  -16.7574   26.8781 O   0  0  0  0  0  0  0  0  0  0  0  0
   15.6268  -16.9543   22.2254 O   0  0  0  0  0  0  0  0  0  0  0  0
   14.5141  -18.4941   25.8992 O   0  0  0  0  0  0  0  0  0  0  0  0
  1  2  1  0
  2  3  2  0
  4  2  1  0
  4  5  1  0
  5  7  1  0
  5  6  1  6
  7  8  2  0
  9 10  1  0
  9  7  1  0
 10 11  1  1
 11 12  1  0
 12 13  2  0
 14 13  1  0
 15 14  1  0
 16 15  2  0
 17 16  1  0
 18 19  1  0
 18 17  2  0
 19 20  2  0
 20 15  1  0
 20 12  1  0
 21 22  2  0
 21 10  1  0
 23 21  1  0
 24 28  1  0
 24 23  1  0
 24 25  1  1
 26 25  1  0
 26 27  2  0
 28 31  1  0
 29 28  2  0
 30 26  1  0
M  END
$$$$
