EVM.pdb
     RDKit          3D

 25 24  0  0  1  0  0  0  0  0999 V2000
    9.9409  -17.7233   18.2023 N   0  0  0  0  0  0  0  0  0  0  0  0
   10.0733  -18.1413   19.5884 C   0  0  1  0  0  0  0  0  0  0  0  0
   11.3618  -18.8730   19.7288 C   0  0  0  0  0  0  0  0  0  0  0  0
   11.4295  -20.0888   18.8696 C   0  0  0  0  0  0  0  0  0  0  0  0
   12.4628  -19.9988   17.8322 C   0  0  0  0  0  0  0  0  0  0  0  0
   12.2015  -20.2671   16.6445 O   0  0  0  0  0  0  0  0  0  0  0  0
   10.0546  -16.8905   20.4252 C   0  0  0  0  0  0  0  0  0  0  0  0
   11.1421  -16.3170   20.7001 O   0  0  0  0  0  0  0  0  0  0  0  0
   13.7779  -19.6132   18.1112 O   0  0  0  0  0  0  0  0  0  0  0  0
    7.2652  -13.3079   22.2579 C   0  0  0  0  0  0  0  0  0  0  0  0
    7.5089  -14.4682   21.3236 C   0  0  1  0  0  0  0  0  0  0  0  0
    7.3278  -14.1473   19.8870 C   0  0  0  0  0  0  0  0  0  0  0  0
    8.8003  -15.1147   21.7011 C   0  0  2  0  0  0  0  0  0  0  0  0
    8.8585  -16.3575   20.9003 N   0  0  0  0  0  0  0  0  0  0  0  0
    8.7803  -15.4689   23.1410 C   0  0  0  0  0  0  0  0  0  0  0  0
    7.9418  -16.3014   23.6124 O   0  0  0  0  0  0  0  0  0  0  0  0
    5.6304  -11.9783   26.3178 C   0  0  0  0  0  0  0  0  0  0  0  0
    6.9923  -12.1592   27.4772 S   0  0  0  0  0  0  0  0  0  0  0  0
    7.9830  -13.6516   27.1490 C   0  0  0  0  0  0  0  0  0  0  0  0
    8.4914  -13.6918   25.7561 C   0  0  0  0  0  0  0  0  0  0  0  0
    9.3745  -14.8854   25.5147 C   0  0  2  0  0  0  0  0  0  0  0  0
    9.6794  -14.9108   24.0580 N   0  0  0  0  0  0  0  0  0  0  0  0
    8.6417  -16.1207   25.8689 C   0  0  0  0  0  0  0  0  0  0  0  0
    9.2394  -17.0012   26.8002 O   0  0  0  0  0  0  0  0  0  0  0  0
    7.5279  -16.4266   25.3920 O   0  0  0  0  0  0  0  0  0  0  0  0
  2  1  1  6
  2  3  1  0
  3  4  1  0
  4  5  1  0
  5  9  1  0
  6  5  2  0
  7  8  2  0
  7  2  1  0
 11 10  1  1
 12 11  1  0
 13 14  1  6
 13 11  1  0
 14  7  1  0
 15 13  1  0
 16 15  2  0
 18 19  1  0
 18 17  1  0
 20 19  1  0
 21 20  1  6
 21 22  1  0
 22 15  1  0
 23 21  1  0
 23 24  1  0
 25 23  2  0
M  END
$$$$
