EVM.pdb
     RDKit          3D

 25 24  0  0  1  0  0  0  0  0999 V2000
    9.9483  -17.6092   17.4490 N   0  0  0  0  0  0  0  0  0  0  0  0
    9.9514  -17.8660   18.8799 C   0  0  1  0  0  0  0  0  0  0  0  0
   11.1727  -18.6521   19.2052 C   0  0  0  0  0  0  0  0  0  0  0  0
   10.9696  -19.5826   20.3514 C   0  0  0  0  0  0  0  0  0  0  0  0
   12.1667  -20.3692   20.6682 C   0  0  0  0  0  0  0  0  0  0  0  0
   12.1740  -21.1647   21.6264 O   0  0  0  0  0  0  0  0  0  0  0  0
    9.9590  -16.5255   19.5640 C   0  0  0  0  0  0  0  0  0  0  0  0
   10.9295  -15.7442   19.3773 O   0  0  0  0  0  0  0  0  0  0  0  0
   13.3482  -20.2737   19.9260 O   0  0  0  0  0  0  0  0  0  0  0  0
    7.2951  -12.9136   21.1457 C   0  0  0  0  0  0  0  0  0  0  0  0
    7.7091  -14.1070   20.3192 C   0  0  1  0  0  0  0  0  0  0  0  0
    7.8959  -13.8188   18.8765 C   0  0  0  0  0  0  0  0  0  0  0  0
    8.8418  -14.7901   21.0112 C   0  0  2  0  0  0  0  0  0  0  0  0
    8.9142  -16.1348   20.3983 N   0  0  0  0  0  0  0  0  0  0  0  0
    8.5328  -14.9335   22.4545 C   0  0  0  0  0  0  0  0  0  0  0  0
    7.5282  -15.6009   22.8593 O   0  0  0  0  0  0  0  0  0  0  0  0
    6.8671  -11.3605   28.1575 C   0  0  0  0  0  0  0  0  0  0  0  0
    6.1477  -12.1459   26.7093 S   0  0  0  0  0  0  0  0  0  0  0  0
    6.9729  -13.7155   26.2952 C   0  0  0  0  0  0  0  0  0  0  0  0
    7.5394  -13.7064   24.9244 C   0  0  0  0  0  0  0  0  0  0  0  0
    8.8984  -14.3494   24.8738 C   0  0  2  0  0  0  0  0  0  0  0  0
    9.3259  -14.3466   23.4481 N   0  0  0  0  0  0  0  0  0  0  0  0
    8.7987  -15.7505   25.3378 C   0  0  0  0  0  0  0  0  0  0  0  0
    9.4250  -16.0898   26.5594 O   0  0  0  0  0  0  0  0  0  0  0  0
    8.1931  -16.6464   24.7114 O   0  0  0  0  0  0  0  0  0  0  0  0
  2  1  1  6
  2  3  1  0
  3  4  1  0
  4  5  1  0
  5  9  1  0
  6  5  2  0
  7  8  2  0
  7  2  1  0
 11 10  1  1
 12 11  1  0
 13 14  1  6
 13 11  1  0
 14  7  1  0
 15 13  1  0
 16 15  2  0
 18 19  1  0
 18 17  1  0
 20 19  1  0
 21 20  1  6
 21 22  1  0
 22 15  1  0
 23 21  1  0
 23 24  1  0
 25 23  2  0
M  END
$$$$
