EVM.pdb
     RDKit          3D

 25 24  0  0  1  0  0  0  0  0999 V2000
    7.5300  -18.8987   19.7873 N   0  0  0  0  0  0  0  0  0  0  0  0
    8.7504  -18.9847   20.5725 C   0  0  1  0  0  0  0  0  0  0  0  0
    9.7739  -19.6957   19.7586 C   0  0  0  0  0  0  0  0  0  0  0  0
    9.2826  -20.9982   19.2267 C   0  0  0  0  0  0  0  0  0  0  0  0
   10.2844  -22.0663   19.3154 C   0  0  0  0  0  0  0  0  0  0  0  0
    9.9931  -23.1779   19.7955 O   0  0  0  0  0  0  0  0  0  0  0  0
    9.1723  -17.5730   20.8797 C   0  0  0  0  0  0  0  0  0  0  0  0
   10.2706  -17.1473   20.4327 O   0  0  0  0  0  0  0  0  0  0  0  0
   11.6012  -21.9017   18.8740 O   0  0  0  0  0  0  0  0  0  0  0  0
    7.6661  -13.2734   22.7089 C   0  0  0  0  0  0  0  0  0  0  0  0
    7.4156  -14.6129   22.0594 C   0  0  1  0  0  0  0  0  0  0  0  0
    6.5591  -14.5573   20.8499 C   0  0  0  0  0  0  0  0  0  0  0  0
    8.7229  -15.3188   21.9145 C   0  0  2  0  0  0  0  0  0  0  0  0
    8.3716  -16.7311   21.6481 N   0  0  0  0  0  0  0  0  0  0  0  0
    9.4773  -15.2412   23.1889 C   0  0  0  0  0  0  0  0  0  0  0  0
    9.9979  -14.1525   23.5916 O   0  0  0  0  0  0  0  0  0  0  0  0
   11.0659  -12.8017   27.9189 C   0  0  0  0  0  0  0  0  0  0  0  0
    9.4193  -13.4973   28.1098 S   0  0  0  0  0  0  0  0  0  0  0  0
    9.3404  -15.2373   27.5782 C   0  0  0  0  0  0  0  0  0  0  0  0
    9.0626  -15.3681   26.1270 C   0  0  0  0  0  0  0  0  0  0  0  0
   10.1031  -16.2002   25.4286 C   0  0  2  0  0  0  0  0  0  0  0  0
    9.6571  -16.3559   24.0171 N   0  0  0  0  0  0  0  0  0  0  0  0
   10.1684  -17.5377   26.0572 C   0  0  0  0  0  0  0  0  0  0  0  0
   10.8263  -17.6523   27.3037 O   0  0  0  0  0  0  0  0  0  0  0  0
    9.6753  -18.5672   25.5485 O   0  0  0  0  0  0  0  0  0  0  0  0
  2  1  1  6
  2  3  1  0
  3  4  1  0
  4  5  1  0
  5  9  1  0
  6  5  2  0
  7  8  2  0
  7  2  1  0
 11 10  1  6
 12 11  1  0
 13 14  1  1
 13 11  1  0
 14  7  1  0
 15 13  1  0
 16 15  2  0
 18 19  1  0
 18 17  1  0
 20 19  1  0
 21 20  1  1
 21 22  1  0
 22 15  1  0
 23 21  1  0
 23 24  1  0
 25 23  2  0
M  END
$$$$
