EFY.pdb
     RDKit          3D

 33 34  0  0  1  0  0  0  0  0999 V2000
    8.5607  -17.8633   18.8985 N   0  0  0  0  0  0  0  0  0  0  0  0
    9.9042  -17.7419   19.4009 C   0  0  1  0  0  0  0  0  0  0  0  0
   10.8805  -17.3263   18.3180 C   0  0  0  0  0  0  0  0  0  0  0  0
   10.8077  -18.2310   17.1204 C   0  0  0  0  0  0  0  0  0  0  0  0
   11.8243  -17.7986   16.1339 C   0  0  0  0  0  0  0  0  0  0  0  0
   13.0386  -17.8130   16.4359 O   0  0  0  0  0  0  0  0  0  0  0  0
    9.8964  -16.6178   20.4093 C   0  0  0  0  0  0  0  0  0  0  0  0
   10.8718  -15.8462   20.5286 O   0  0  0  0  0  0  0  0  0  0  0  0
   11.4486  -17.3769   14.8765 O   0  0  0  0  0  0  0  0  0  0  0  0
    8.7408  -16.4986   21.1908 N   0  0  0  0  0  0  0  0  0  0  0  0
    8.7720  -15.5845   22.3807 C   0  0  1  0  0  0  0  0  0  0  0  0
    7.4181  -15.0462   22.6048 C   0  0  0  0  0  0  0  0  0  0  0  0
    7.2857  -14.2307   23.7988 C   0  0  0  0  0  0  0  0  0  0  0  0
    7.6480  -12.8777   23.8151 C   0  0  0  0  0  0  0  0  0  0  0  0
    7.4606  -12.1094   24.9398 C   0  0  0  0  0  0  0  0  0  0  0  0
    6.9153  -12.6110   26.0995 C   0  0  0  0  0  0  0  0  0  0  0  0
    6.5572  -13.9404   26.0902 C   0  0  0  0  0  0  0  0  0  0  0  0
    6.7403  -14.7226   24.9672 C   0  0  0  0  0  0  0  0  0  0  0  0
    9.4752  -16.2820   23.4459 C   0  0  0  0  0  0  0  0  0  0  0  0
    8.9291  -17.3093   24.0071 O   0  0  0  0  0  0  0  0  0  0  0  0
   10.8396  -15.5253   31.6934 O   0  0  0  0  0  0  0  0  0  0  0  0
   10.6243  -15.4178   30.3291 C   0  0  0  0  0  0  0  0  0  0  0  0
   10.7618  -14.2061   29.6911 C   0  0  0  0  0  0  0  0  0  0  0  0
   10.5449  -14.1018   28.3218 C   0  0  0  0  0  0  0  0  0  0  0  0
   10.1895  -15.1827   27.5536 C   0  0  0  0  0  0  0  0  0  0  0  0
    9.9326  -15.1741   26.1073 C   0  0  0  0  0  0  0  0  0  0  0  0
   11.0282  -15.8726   25.3725 C   0  0  2  0  0  0  0  0  0  0  0  0
   10.7343  -15.9494   23.9394 N   0  0  0  0  0  0  0  0  0  0  0  0
   11.2250  -17.2070   25.8991 C   0  0  0  0  0  0  0  0  0  0  0  0
   11.8295  -17.4061   26.9668 O   0  0  0  0  0  0  0  0  0  0  0  0
   10.0600  -16.3947   28.2371 C   0  0  0  0  0  0  0  0  0  0  0  0
   10.2686  -16.5183   29.5811 C   0  0  0  0  0  0  0  0  0  0  0  0
   10.7443  -18.3206   25.2371 O   0  0  0  0  0  0  0  0  0  0  0  0
  2  1  1  6
  2  3  1  0
  3  4  1  0
  4  5  1  0
  5  6  2  0
  5  9  1  0
  7  2  1  0
  7  8  2  0
 10  7  1  0
 11 10  1  0
 11 12  1  1
 12 13  1  0
 13 18  1  0
 13 14  2  0
 14 15  1  0
 15 16  2  0
 17 16  1  0
 18 17  2  0
 19 11  1  0
 20 19  2  0
 22 32  2  0
 22 21  1  0
 23 22  1  0
 24 25  1  0
 24 23  2  0
 25 31  2  0
 26 25  1  0
 27 26  1  1
 27 28  1  0
 28 19  1  0
 29 33  1  0
 29 27  1  0
 30 29  2  0
 31 32  1  0
M  END
$$$$
