EFY.pdb
     RDKit          3D

 33 34  0  0  1  0  0  0  0  0999 V2000
    9.0890  -17.2816   18.9349 N   0  0  0  0  0  0  0  0  0  0  0  0
   10.2829  -17.3962   19.7310 C   0  0  1  0  0  0  0  0  0  0  0  0
   11.5284  -17.0444   18.9414 C   0  0  0  0  0  0  0  0  0  0  0  0
   11.4503  -17.5352   17.5232 C   0  0  0  0  0  0  0  0  0  0  0  0
   11.7706  -18.9810   17.5007 C   0  0  0  0  0  0  0  0  0  0  0  0
   12.8304  -19.3813   16.9691 O   0  0  0  0  0  0  0  0  0  0  0  0
   10.1797  -16.3645   20.8289 C   0  0  0  0  0  0  0  0  0  0  0  0
   11.1328  -15.6012   21.0938 O   0  0  0  0  0  0  0  0  0  0  0  0
   10.9105  -19.9003   18.0620 O   0  0  0  0  0  0  0  0  0  0  0  0
    8.9633  -16.3197   21.5206 N   0  0  0  0  0  0  0  0  0  0  0  0
    8.7976  -15.3043   22.6132 C   0  0  1  0  0  0  0  0  0  0  0  0
    7.3927  -14.8585   22.6416 C   0  0  0  0  0  0  0  0  0  0  0  0
    7.0802  -13.9244   23.7084 C   0  0  0  0  0  0  0  0  0  0  0  0
    6.4136  -14.3267   24.8728 C   0  0  0  0  0  0  0  0  0  0  0  0
    6.1788  -13.4382   25.8954 C   0  0  0  0  0  0  0  0  0  0  0  0
    6.5761  -12.1217   25.8414 C   0  0  0  0  0  0  0  0  0  0  0  0
    7.2317  -11.7197   24.6995 C   0  0  0  0  0  0  0  0  0  0  0  0
    7.4735  -12.6022   23.6654 C   0  0  0  0  0  0  0  0  0  0  0  0
    9.4249  -15.8460   23.8085 C   0  0  0  0  0  0  0  0  0  0  0  0
    9.1935  -17.0690   24.1539 O   0  0  0  0  0  0  0  0  0  0  0  0
   11.4203  -16.8699   32.0981 O   0  0  0  0  0  0  0  0  0  0  0  0
   11.2583  -16.2871   30.8518 C   0  0  0  0  0  0  0  0  0  0  0  0
   10.5354  -15.1245   30.7102 C   0  0  0  0  0  0  0  0  0  0  0  0
   10.3749  -14.5424   29.4579 C   0  0  0  0  0  0  0  0  0  0  0  0
   10.9195  -15.0891   28.3224 C   0  0  0  0  0  0  0  0  0  0  0  0
   10.8015  -14.5563   26.9586 C   0  0  0  0  0  0  0  0  0  0  0  0
   10.6910  -15.6659   25.9662 C   0  0  2  0  0  0  0  0  0  0  0  0
   10.2939  -15.1573   24.6510 N   0  0  0  0  0  0  0  0  0  0  0  0
    9.7328  -16.6553   26.4128 C   0  0  0  0  0  0  0  0  0  0  0  0
    8.5144  -16.4130   26.4559 O   0  0  0  0  0  0  0  0  0  0  0  0
   11.6461  -16.2684   28.5069 C   0  0  0  0  0  0  0  0  0  0  0  0
   11.8156  -16.8560   29.7280 C   0  0  0  0  0  0  0  0  0  0  0  0
   10.1323  -17.9176   26.8084 O   0  0  0  0  0  0  0  0  0  0  0  0
  2  1  1  6
  2  3  1  0
  3  4  1  0
  4  5  1  0
  5  6  2  0
  5  9  1  0
  7  2  1  0
  7  8  2  0
 10  7  1  0
 11 10  1  0
 11 12  1  1
 12 13  1  0
 13 18  1  0
 13 14  2  0
 14 15  1  0
 15 16  2  0
 17 16  1  0
 18 17  2  0
 19 11  1  0
 20 19  2  0
 22 32  2  0
 22 21  1  0
 23 22  1  0
 24 25  1  0
 24 23  2  0
 25 31  2  0
 26 25  1  0
 27 26  1  1
 27 28  1  0
 28 19  1  0
 29 33  1  0
 29 27  1  0
 30 29  2  0
 31 32  1  0
M  END
$$$$
