FLQ.pdb
     RDKit          3D

 29 29  0  0  1  0  0  0  0  0999 V2000
   20.8581  -12.4528  -18.9177 N   0  0  0  0  0  0  0  0  0  0  0  0
   21.5234  -11.2455  -19.2992 C   0  0  1  0  0  0  0  0  0  0  0  0
   20.5494  -10.3646  -20.0651 C   0  0  0  0  0  0  0  0  0  0  0  0
   20.3098  -11.0032  -21.3792 C   0  0  0  0  0  0  0  0  0  0  0  0
   21.2489  -10.9665  -22.3794 C   0  0  0  0  0  0  0  0  0  0  0  0
   21.0287  -11.5632  -23.6112 C   0  0  0  0  0  0  0  0  0  0  0  0
   19.8327  -12.2132  -23.8416 C   0  0  0  0  0  0  0  0  0  0  0  0
   18.8760  -12.2642  -22.8564 C   0  0  0  0  0  0  0  0  0  0  0  0
   19.1126  -11.6660  -21.6399 C   0  0  0  0  0  0  0  0  0  0  0  0
   21.9368  -10.4766  -18.0981 C   0  0  0  0  0  0  0  0  0  0  0  0
   21.1029  -10.2936  -17.1679 O   0  0  0  0  0  0  0  0  0  0  0  0
   27.3071  -10.2319  -16.2882 C   0  0  0  0  0  0  0  0  0  0  0  0
   25.8080  -10.5811  -16.3889 C   0  0  1  0  0  0  0  0  0  0  0  0
   25.5210  -11.3868  -15.1409 C   0  0  0  0  0  0  0  0  0  0  0  0
   25.1082   -9.2764  -16.4642 C   0  0  0  0  0  0  0  0  0  0  0  0
   23.6620   -9.2747  -16.7800 C   0  0  2  0  0  0  0  0  0  0  0  0
   23.2434   -9.9387  -17.9613 N   0  0  0  0  0  0  0  0  0  0  0  0
   23.1787   -7.8463  -16.7328 C   0  0  0  0  0  0  0  0  0  0  0  0
   23.4323   -7.0740  -17.6913 O   0  0  0  0  0  0  0  0  0  0  0  0
   17.7316   -5.9120  -16.6040 N   0  0  0  0  0  0  0  0  0  0  0  0
   18.3308   -4.6650  -16.2565 C   0  0  0  0  0  0  0  0  0  0  0  0
   17.6607   -3.6188  -16.2730 O   0  0  0  0  0  0  0  0  0  0  0  0
   19.7583   -4.6640  -15.8828 C   0  0  0  0  0  0  0  0  0  0  0  0
   20.4392   -5.9863  -15.9615 C   0  0  0  0  0  0  0  0  0  0  0  0
   21.9049   -5.9694  -15.6357 C   0  0  2  0  0  0  0  0  0  0  0  0
   22.4439   -7.3432  -15.6373 N   0  0  0  0  0  0  0  0  0  0  0  0
   22.1898   -5.3923  -14.3073 C   0  0  0  0  0  0  0  0  0  0  0  0
   22.4627   -6.0999  -13.3078 O   0  0  0  0  0  0  0  0  0  0  0  0
   22.1602   -4.0230  -14.1357 O   0  0  0  0  0  0  0  0  0  0  0  0
  2  1  1  1
  3  4  1  0
  3  2  1  0
  4  5  2  0
  5  6  1  0
  7  6  2  0
  8  7  1  0
  9  4  1  0
  9  8  2  0
 10  2  1  0
 10 17  1  0
 11 10  2  0
 13 12  1  1
 14 13  1  0
 15 13  1  0
 16 15  1  6
 16 17  1  0
 18 16  1  0
 19 18  2  0
 20 21  1  0
 21 22  2  0
 21 23  1  0
 23 24  1  0
 25 24  1  1
 25 26  1  0
 25 27  1  0
 26 18  1  0
 27 29  1  0
 28 27  2  0
M  END
$$$$
