FLQ.pdb
     RDKit          3D

 29 29  0  0  1  0  0  0  0  0999 V2000
   26.0551  -22.7918  -16.5759 N   0  0  0  0  0  0  0  0  0  0  0  0
   25.2520  -21.7243  -16.0648 C   0  0  1  0  0  0  0  0  0  0  0  0
   24.1382  -21.4249  -17.0552 C   0  0  0  0  0  0  0  0  0  0  0  0
   24.7616  -20.8367  -18.2624 C   0  0  0  0  0  0  0  0  0  0  0  0
   25.6653  -19.8073  -18.1770 C   0  0  0  0  0  0  0  0  0  0  0  0
   26.2515  -19.2537  -19.3047 C   0  0  0  0  0  0  0  0  0  0  0  0
   25.9193  -19.7492  -20.5498 C   0  0  0  0  0  0  0  0  0  0  0  0
   25.0170  -20.7796  -20.6623 C   0  0  0  0  0  0  0  0  0  0  0  0
   24.4455  -21.3164  -19.5315 C   0  0  0  0  0  0  0  0  0  0  0  0
   24.5946  -22.1283  -14.7962 C   0  0  0  0  0  0  0  0  0  0  0  0
   24.3465  -23.3497  -14.5937 O   0  0  0  0  0  0  0  0  0  0  0  0
   25.6701  -20.1739   -9.7350 C   0  0  0  0  0  0  0  0  0  0  0  0
   25.5155  -20.9221  -11.0750 C   0  0  1  0  0  0  0  0  0  0  0  0
   26.1523  -22.2728  -10.8315 C   0  0  0  0  0  0  0  0  0  0  0  0
   24.0566  -20.9577  -11.3354 C   0  0  0  0  0  0  0  0  0  0  0  0
   23.5856  -21.5677  -12.5993 C   0  0  2  0  0  0  0  0  0  0  0  0
   24.2347  -21.1828  -13.8002 N   0  0  0  0  0  0  0  0  0  0  0  0
   22.0913  -21.3761  -12.6780 C   0  0  0  0  0  0  0  0  0  0  0  0
   21.3860  -21.5741  -11.6568 O   0  0  0  0  0  0  0  0  0  0  0  0
   20.9029  -19.5413  -17.5281 N   0  0  0  0  0  0  0  0  0  0  0  0
   21.2792  -18.5717  -16.5519 C   0  0  0  0  0  0  0  0  0  0  0  0
   22.1119  -17.6917  -16.8276 O   0  0  0  0  0  0  0  0  0  0  0  0
   20.6512  -18.6527  -15.2190 C   0  0  0  0  0  0  0  0  0  0  0  0
   19.6799  -19.7672  -15.0382 C   0  0  0  0  0  0  0  0  0  0  0  0
   20.0002  -20.7173  -13.9202 C   0  0  2  0  0  0  0  0  0  0  0  0
   21.4521  -20.9778  -13.8722 N   0  0  0  0  0  0  0  0  0  0  0  0
   19.3290  -22.0235  -14.0685 C   0  0  0  0  0  0  0  0  0  0  0  0
   19.9605  -23.0882  -14.2733 O   0  0  0  0  0  0  0  0  0  0  0  0
   17.9535  -22.0995  -13.9819 O   0  0  0  0  0  0  0  0  0  0  0  0
  2  1  1  6
  3  4  1  0
  3  2  1  0
  4  5  2  0
  5  6  1  0
  7  6  2  0
  8  7  1  0
  9  4  1  0
  9  8  2  0
 10  2  1  0
 10 17  1  0
 11 10  2  0
 13 12  1  1
 14 13  1  0
 15 13  1  0
 16 15  1  1
 16 17  1  0
 18 16  1  0
 19 18  2  0
 20 21  1  0
 21 22  2  0
 21 23  1  0
 23 24  1  0
 25 24  1  6
 25 26  1  0
 25 27  1  0
 26 18  1  0
 27 29  1  0
 28 27  2  0
M  END
$$$$
