FLQ.pdb
     RDKit          3D

 29 29  0  0  1  0  0  0  0  0999 V2000
   28.3383  -19.9076  -15.6677 N   0  0  0  0  0  0  0  0  0  0  0  0
   27.3665  -19.1368  -14.9554 C   0  0  1  0  0  0  0  0  0  0  0  0
   26.5489  -18.3295  -15.9508 C   0  0  0  0  0  0  0  0  0  0  0  0
   27.3418  -17.1325  -16.3118 C   0  0  0  0  0  0  0  0  0  0  0  0
   27.5256  -16.0976  -15.4291 C   0  0  0  0  0  0  0  0  0  0  0  0
   28.2674  -14.9751  -15.7630 C   0  0  0  0  0  0  0  0  0  0  0  0
   28.8385  -14.8925  -17.0172 C   0  0  0  0  0  0  0  0  0  0  0  0
   28.6694  -15.9153  -17.9193 C   0  0  0  0  0  0  0  0  0  0  0  0
   27.9297  -17.0218  -17.5698 C   0  0  0  0  0  0  0  0  0  0  0  0
   26.4131  -20.0273  -14.2463 C   0  0  0  0  0  0  0  0  0  0  0  0
   25.9845  -21.0605  -14.8320 O   0  0  0  0  0  0  0  0  0  0  0  0
   25.9280  -20.5573   -8.5326 C   0  0  0  0  0  0  0  0  0  0  0  0
   26.3061  -20.7092  -10.0204 C   0  0  1  0  0  0  0  0  0  0  0  0
   26.9210  -22.0881  -10.1172 C   0  0  0  0  0  0  0  0  0  0  0  0
   25.0354  -20.5387  -10.7647 C   0  0  0  0  0  0  0  0  0  0  0  0
   25.0735  -20.6175  -12.2424 C   0  0  2  0  0  0  0  0  0  0  0  0
   25.9663  -19.7538  -12.9268 N   0  0  0  0  0  0  0  0  0  0  0  0
   23.6590  -20.4861  -12.7504 C   0  0  0  0  0  0  0  0  0  0  0  0
   23.1873  -19.3447  -12.9835 O   0  0  0  0  0  0  0  0  0  0  0  0
   18.3524  -23.8546  -16.6796 N   0  0  0  0  0  0  0  0  0  0  0  0
   19.6170  -23.8028  -16.0218 C   0  0  0  0  0  0  0  0  0  0  0  0
   20.4541  -24.7043  -16.1959 O   0  0  0  0  0  0  0  0  0  0  0  0
   19.8898  -22.6536  -15.1372 C   0  0  0  0  0  0  0  0  0  0  0  0
   21.2459  -22.6303  -14.5217 C   0  0  0  0  0  0  0  0  0  0  0  0
   21.5014  -21.4852  -13.5845 C   0  0  2  0  0  0  0  0  0  0  0  0
   22.8393  -21.6134  -12.9749 N   0  0  0  0  0  0  0  0  0  0  0  0
   20.5247  -21.4205  -12.4796 C   0  0  0  0  0  0  0  0  0  0  0  0
   20.8074  -21.7661  -11.3070 O   0  0  0  0  0  0  0  0  0  0  0  0
   19.2448  -20.9650  -12.7237 O   0  0  0  0  0  0  0  0  0  0  0  0
  2  1  1  6
  3  4  1  0
  3  2  1  0
  4  5  2  0
  5  6  1  0
  7  6  2  0
  8  7  1  0
  9  4  1  0
  9  8  2  0
 10  2  1  0
 10 17  1  0
 11 10  2  0
 13 12  1  1
 14 13  1  0
 15 13  1  0
 16 15  1  1
 16 17  1  0
 18 16  1  0
 19 18  2  0
 20 21  1  0
 21 22  2  0
 21 23  1  0
 23 24  1  0
 25 24  1  6
 25 26  1  0
 25 27  1  0
 26 18  1  0
 27 29  1  0
 28 27  2  0
M  END
$$$$
