FLQ.pdb
     RDKit          3D

 29 29  0  0  1  0  0  0  0  0999 V2000
   22.5518  -19.3961  -16.6821 N   0  0  0  0  0  0  0  0  0  0  0  0
   22.8169  -18.4136  -17.6871 C   0  0  1  0  0  0  0  0  0  0  0  0
   21.6382  -18.3553  -18.6454 C   0  0  0  0  0  0  0  0  0  0  0  0
   21.6070  -19.6338  -19.3915 C   0  0  0  0  0  0  0  0  0  0  0  0
   20.6372  -20.5775  -19.1625 C   0  0  0  0  0  0  0  0  0  0  0  0
   20.6042  -21.7757  -19.8588 C   0  0  0  0  0  0  0  0  0  0  0  0
   21.5723  -22.0301  -20.8097 C   0  0  0  0  0  0  0  0  0  0  0  0
   22.5544  -21.1015  -21.0578 C   0  0  0  0  0  0  0  0  0  0  0  0
   22.5708  -19.9176  -20.3565 C   0  0  0  0  0  0  0  0  0  0  0  0
   22.9359  -17.0645  -17.0782 C   0  0  0  0  0  0  0  0  0  0  0  0
   22.2699  -16.7977  -16.0393 O   0  0  0  0  0  0  0  0  0  0  0  0
   27.6585  -14.0813  -16.8714 C   0  0  0  0  0  0  0  0  0  0  0  0
   26.4178  -14.9400  -16.5509 C   0  0  1  0  0  0  0  0  0  0  0  0
   26.4587  -15.1209  -15.0494 C   0  0  0  0  0  0  0  0  0  0  0  0
   25.2627  -14.1589  -17.0543 C   0  0  0  0  0  0  0  0  0  0  0  0
   23.9235  -14.7886  -17.0204 C   0  0  2  0  0  0  0  0  0  0  0  0
   23.7769  -16.0617  -17.6281 N   0  0  0  0  0  0  0  0  0  0  0  0
   22.9275  -13.7892  -17.5544 C   0  0  0  0  0  0  0  0  0  0  0  0
   22.8943  -13.5448  -18.7868 O   0  0  0  0  0  0  0  0  0  0  0  0
   17.1005  -13.0770  -15.6410 N   0  0  0  0  0  0  0  0  0  0  0  0
   17.1707  -12.7639  -17.0309 C   0  0  0  0  0  0  0  0  0  0  0  0
   16.1476  -12.7952  -17.7352 O   0  0  0  0  0  0  0  0  0  0  0  0
   18.4873  -12.4071  -17.5938 C   0  0  0  0  0  0  0  0  0  0  0  0
   19.6420  -12.5681  -16.6669 C   0  0  0  0  0  0  0  0  0  0  0  0
   20.9810  -12.2183  -17.2497 C   0  0  2  0  0  0  0  0  0  0  0  0
   22.0226  -13.1125  -16.7080 N   0  0  0  0  0  0  0  0  0  0  0  0
   21.3946  -10.8346  -16.9447 C   0  0  0  0  0  0  0  0  0  0  0  0
   20.7567   -9.8336  -17.3516 O   0  0  0  0  0  0  0  0  0  0  0  0
   22.5242  -10.6101  -16.1838 O   0  0  0  0  0  0  0  0  0  0  0  0
  2  1  1  1
  3  4  1  0
  3  2  1  0
  4  5  2  0
  5  6  1  0
  7  6  2  0
  8  7  1  0
  9  4  1  0
  9  8  2  0
 10  2  1  0
 10 17  1  0
 11 10  2  0
 13 12  1  1
 14 13  1  0
 15 13  1  0
 16 15  1  6
 16 17  1  0
 18 16  1  0
 19 18  2  0
 20 21  1  0
 21 22  2  0
 21 23  1  0
 23 24  1  0
 25 24  1  1
 25 26  1  0
 25 27  1  0
 26 18  1  0
 27 29  1  0
 28 27  2  0
M  END
$$$$
