FLQ.pdb
     RDKit          3D

 29 29  0  0  1  0  0  0  0  0999 V2000
   25.9247  -18.6589   -8.2722 N   0  0  0  0  0  0  0  0  0  0  0  0
   26.7060  -19.6410   -8.9582 C   0  0  1  0  0  0  0  0  0  0  0  0
   26.8160  -20.8824   -8.0875 C   0  0  0  0  0  0  0  0  0  0  0  0
   27.5079  -20.4907   -6.8386 C   0  0  0  0  0  0  0  0  0  0  0  0
   28.8588  -20.2499   -6.8090 C   0  0  0  0  0  0  0  0  0  0  0  0
   29.5105  -19.8828   -5.6418 C   0  0  0  0  0  0  0  0  0  0  0  0
   28.7837  -19.7550   -4.4750 C   0  0  0  0  0  0  0  0  0  0  0  0
   27.4298  -19.9905   -4.4781 C   0  0  0  0  0  0  0  0  0  0  0  0
   26.8002  -20.3539   -5.6465 C   0  0  0  0  0  0  0  0  0  0  0  0
   26.0309  -20.0608  -10.2123 C   0  0  0  0  0  0  0  0  0  0  0  0
   24.7749  -19.9633  -10.2971 O   0  0  0  0  0  0  0  0  0  0  0  0
   29.2676  -19.6119  -12.7575 C   0  0  0  0  0  0  0  0  0  0  0  0
   28.2668  -19.4412  -13.9188 C   0  0  1  0  0  0  0  0  0  0  0  0
   29.1146  -19.5377  -15.1682 C   0  0  0  0  0  0  0  0  0  0  0  0
   27.2808  -20.5349  -13.7475 C   0  0  0  0  0  0  0  0  0  0  0  0
   26.2894  -20.4189  -12.6543 C   0  0  2  0  0  0  0  0  0  0  0  0
   26.7542  -20.5698  -11.3228 N   0  0  0  0  0  0  0  0  0  0  0  0
   25.1467  -21.3541  -12.9636 C   0  0  0  0  0  0  0  0  0  0  0  0
   25.0840  -22.4687  -12.3864 O   0  0  0  0  0  0  0  0  0  0  0  0
   21.0959  -20.6801   -9.9245 N   0  0  0  0  0  0  0  0  0  0  0  0
   20.2555  -21.3670  -10.8500 C   0  0  0  0  0  0  0  0  0  0  0  0
   19.0910  -21.6684  -10.5384 O   0  0  0  0  0  0  0  0  0  0  0  0
   20.8141  -21.7030  -12.1738 C   0  0  0  0  0  0  0  0  0  0  0  0
   22.2385  -21.3201  -12.3808 C   0  0  0  0  0  0  0  0  0  0  0  0
   22.7668  -21.5542  -13.7669 C   0  0  2  0  0  0  0  0  0  0  0  0
   24.1355  -21.0158  -13.8889 N   0  0  0  0  0  0  0  0  0  0  0  0
   21.9491  -20.9031  -14.8091 C   0  0  0  0  0  0  0  0  0  0  0  0
   21.0051  -21.4895  -15.3916 O   0  0  0  0  0  0  0  0  0  0  0  0
   22.2162  -19.5985  -15.1725 O   0  0  0  0  0  0  0  0  0  0  0  0
  2  1  1  1
  3  4  1  0
  3  2  1  0
  4  5  2  0
  5  6  1  0
  7  6  2  0
  8  7  1  0
  9  4  1  0
  9  8  2  0
 10  2  1  0
 10 17  1  0
 11 10  2  0
 13 12  1  1
 14 13  1  0
 15 13  1  0
 16 15  1  6
 16 17  1  0
 18 16  1  0
 19 18  2  0
 20 21  1  0
 21 22  2  0
 21 23  1  0
 23 24  1  0
 25 24  1  1
 25 26  1  0
 25 27  1  0
 26 18  1  0
 27 29  1  0
 28 27  2  0
M  END
$$$$
