GMR.pdb
     RDKit          3D

 24 23  0  0  1  0  0  0  0  0999 V2000
   21.3919  -21.5075   -7.4732 N   0  0  0  0  0  0  0  0  0  0  0  0
   22.7280  -21.7848   -6.9937 C   0  0  0  0  0  0  0  0  0  0  0  0
   23.7512  -20.9827   -7.7024 C   0  0  0  0  0  0  0  0  0  0  0  0
   23.3853  -20.3723   -8.7391 O   0  0  0  0  0  0  0  0  0  0  0  0
   29.8282  -20.1889   -5.6341 C   0  0  0  0  0  0  0  0  0  0  0  0
   28.3773  -19.6055   -4.7470 S   0  0  0  0  0  0  0  0  0  0  0  0
   27.0852  -19.1372   -5.9577 C   0  0  0  0  0  0  0  0  0  0  0  0
   27.3045  -19.9682   -7.1779 C   0  0  0  0  0  0  0  0  0  0  0  0
   26.1054  -20.1544   -8.0503 C   0  0  2  0  0  0  0  0  0  0  0  0
   25.0929  -20.8635   -7.2914 N   0  0  0  0  0  0  0  0  0  0  0  0
   26.3641  -20.8453   -9.3219 C   0  0  0  0  0  0  0  0  0  0  0  0
   26.4573  -22.0946   -9.4275 O   0  0  0  0  0  0  0  0  0  0  0  0
   25.0891  -24.6634  -14.5330 N   0  0  0  0  0  0  0  0  0  0  0  0
   23.7166  -24.6664  -14.2384 C   0  0  0  0  0  0  0  0  0  0  0  0
   23.0055  -25.7672  -14.2189 N   0  0  0  0  0  0  0  0  0  0  0  0
   23.0472  -23.4613  -13.9466 N   0  0  0  0  0  0  0  0  0  0  0  0
   23.7424  -22.1767  -13.9879 C   0  0  0  0  0  0  0  0  0  0  0  0
   24.9729  -22.2081  -13.1094 C   0  0  0  0  0  0  0  0  0  0  0  0
   24.9791  -21.0491  -12.1419 C   0  0  0  0  0  0  0  0  0  0  0  0
   26.4161  -20.6312  -11.8166 C   0  0  2  0  0  0  0  0  0  0  0  0
   26.5209  -20.0790  -10.5086 N   0  0  0  0  0  0  0  0  0  0  0  0
   26.9337  -19.7454  -12.8867 C   0  0  0  0  0  0  0  0  0  0  0  0
   27.1492  -20.2646  -14.0131 O   0  0  0  0  0  0  0  0  0  0  0  0
   27.1948  -18.4041  -12.7412 O   0  0  0  0  0  0  0  0  0  0  0  0
  2  1  1  0
  3  2  1  0
  3  4  2  0
  6  5  1  0
  7  8  1  0
  7  6  1  0
  9  8  1  1
  9 10  1  0
 10  3  1  0
 11  9  1  0
 12 11  2  0
 14 13  1  0
 14 15  2  0
 16 14  1  0
 17 16  1  0
 18 17  1  0
 19 18  1  0
 20 21  1  0
 20 19  1  6
 21 11  1  0
 22 20  1  0
 23 22  2  0
 24 22  1  0
M  END
$$$$
