GMR.pdb
     RDKit          3D

 24 23  0  0  1  0  0  0  0  0999 V2000
   28.8132  -21.8004  -14.5700 N   0  0  0  0  0  0  0  0  0  0  0  0
   28.4079  -20.6809  -13.7487 C   0  0  0  0  0  0  0  0  0  0  0  0
   27.5924  -21.1081  -12.5890 C   0  0  0  0  0  0  0  0  0  0  0  0
   26.8304  -22.0945  -12.7553 O   0  0  0  0  0  0  0  0  0  0  0  0
   28.8316  -19.4477   -6.7234 C   0  0  0  0  0  0  0  0  0  0  0  0
   27.0620  -19.5002   -6.4103 S   0  0  0  0  0  0  0  0  0  0  0  0
   26.2256  -20.2838   -7.8389 C   0  0  0  0  0  0  0  0  0  0  0  0
   27.1127  -20.0964   -9.0244 C   0  0  0  0  0  0  0  0  0  0  0  0
   26.6319  -20.7280  -10.2907 C   0  0  2  0  0  0  0  0  0  0  0  0
   27.6174  -20.4844  -11.3266 N   0  0  0  0  0  0  0  0  0  0  0  0
   25.3033  -20.2862  -10.7393 C   0  0  0  0  0  0  0  0  0  0  0  0
   25.0479  -19.1096  -11.1012 O   0  0  0  0  0  0  0  0  0  0  0  0
   24.1842  -25.4379  -14.7926 N   0  0  0  0  0  0  0  0  0  0  0  0
   24.1176  -24.3983  -15.7335 C   0  0  0  0  0  0  0  0  0  0  0  0
   24.9158  -24.3390  -16.7713 N   0  0  0  0  0  0  0  0  0  0  0  0
   23.1695  -23.3658  -15.5894 N   0  0  0  0  0  0  0  0  0  0  0  0
   22.0856  -23.4600  -14.6141 C   0  0  0  0  0  0  0  0  0  0  0  0
   22.0940  -22.2624  -13.6906 C   0  0  0  0  0  0  0  0  0  0  0  0
   23.1907  -22.3794  -12.6597 C   0  0  0  0  0  0  0  0  0  0  0  0
   23.1756  -21.1683  -11.7225 C   0  0  2  0  0  0  0  0  0  0  0  0
   24.2353  -21.2233  -10.7734 N   0  0  0  0  0  0  0  0  0  0  0  0
   21.8312  -21.0228  -11.1151 C   0  0  0  0  0  0  0  0  0  0  0  0
   21.7365  -21.1970   -9.8719 O   0  0  0  0  0  0  0  0  0  0  0  0
   20.6843  -20.7127  -11.8057 O   0  0  0  0  0  0  0  0  0  0  0  0
  2  1  1  0
  3  2  1  0
  3  4  2  0
  6  5  1  0
  7  8  1  0
  7  6  1  0
  9  8  1  1
  9 10  1  0
 10  3  1  0
 11  9  1  0
 12 11  2  0
 14 13  1  0
 14 15  2  0
 16 14  1  0
 17 16  1  0
 18 17  1  0
 19 18  1  0
 20 21  1  0
 20 19  1  1
 21 11  1  0
 22 20  1  0
 23 22  2  0
 24 22  1  0
M  END
$$$$
