GMR.pdb
     RDKit          3D

 24 23  0  0  1  0  0  0  0  0999 V2000
   22.3950  -14.2832  -21.8701 N   0  0  0  0  0  0  0  0  0  0  0  0
   22.3145  -12.8574  -21.6409 C   0  0  0  0  0  0  0  0  0  0  0  0
   22.4128  -12.5186  -20.2028 C   0  0  0  0  0  0  0  0  0  0  0  0
   21.5049  -12.9509  -19.4479 O   0  0  0  0  0  0  0  0  0  0  0  0
   27.3719  -10.8894  -14.3766 C   0  0  0  0  0  0  0  0  0  0  0  0
   27.0068  -11.2776  -16.0937 S   0  0  0  0  0  0  0  0  0  0  0  0
   25.1951  -11.2001  -16.3515 C   0  0  0  0  0  0  0  0  0  0  0  0
   24.9400  -11.5390  -17.7824 C   0  0  0  0  0  0  0  0  0  0  0  0
   23.5188  -11.4127  -18.2272 C   0  0  2  0  0  0  0  0  0  0  0  0
   23.4483  -11.7507  -19.6359 N   0  0  0  0  0  0  0  0  0  0  0  0
   22.9085  -10.0965  -17.9893 C   0  0  0  0  0  0  0  0  0  0  0  0
   23.1578   -9.0792  -18.6845 O   0  0  0  0  0  0  0  0  0  0  0  0
   14.9444   -7.3376  -15.3966 N   0  0  0  0  0  0  0  0  0  0  0  0
   15.7703   -6.2031  -15.4342 C   0  0  0  0  0  0  0  0  0  0  0  0
   15.2943   -4.9854  -15.3434 N   0  0  0  0  0  0  0  0  0  0  0  0
   17.1659   -6.3413  -15.5717 N   0  0  0  0  0  0  0  0  0  0  0  0
   17.7940   -7.6575  -15.6620 C   0  0  0  0  0  0  0  0  0  0  0  0
   19.2777   -7.5233  -15.9219 C   0  0  0  0  0  0  0  0  0  0  0  0
   19.8956   -8.8624  -16.2450 C   0  0  0  0  0  0  0  0  0  0  0  0
   21.3813   -8.6995  -16.5793 C   0  0  2  0  0  0  0  0  0  0  0  0
   21.9839   -9.9433  -16.9207 N   0  0  0  0  0  0  0  0  0  0  0  0
   22.0660   -7.9817  -15.4777 C   0  0  0  0  0  0  0  0  0  0  0  0
   22.6321   -8.6802  -14.5965 O   0  0  0  0  0  0  0  0  0  0  0  0
   22.1286   -6.6152  -15.3471 O   0  0  0  0  0  0  0  0  0  0  0  0
  2  1  1  0
  3  2  1  0
  3  4  2  0
  6  5  1  0
  7  8  1  0
  7  6  1  0
  9  8  1  6
  9 10  1  0
 10  3  1  0
 11  9  1  0
 12 11  2  0
 14 13  1  0
 14 15  2  0
 16 14  1  0
 17 16  1  0
 18 17  1  0
 19 18  1  0
 20 21  1  0
 20 19  1  1
 21 11  1  0
 22 20  1  0
 23 22  2  0
 24 22  1  0
M  END
$$$$
