GMR.pdb
     RDKit          3D

 24 23  0  0  1  0  0  0  0  0999 V2000
   27.3564  -16.5807  -15.5638 N   0  0  0  0  0  0  0  0  0  0  0  0
   26.8342  -17.0582  -14.3023 C   0  0  0  0  0  0  0  0  0  0  0  0
   26.7869  -18.5369  -14.2436 C   0  0  0  0  0  0  0  0  0  0  0  0
   26.8772  -19.1579  -15.3334 O   0  0  0  0  0  0  0  0  0  0  0  0
   28.8576  -21.4634   -9.2937 C   0  0  0  0  0  0  0  0  0  0  0  0
   29.9137  -21.4676  -10.7487 S   0  0  0  0  0  0  0  0  0  0  0  0
   28.9669  -20.8185  -12.1759 C   0  0  0  0  0  0  0  0  0  0  0  0
   27.5420  -21.2145  -11.9747 C   0  0  0  0  0  0  0  0  0  0  0  0
   26.5888  -20.7302  -13.0189 C   0  0  2  0  0  0  0  0  0  0  0  0
   26.6483  -19.2814  -13.0563 N   0  0  0  0  0  0  0  0  0  0  0  0
   25.1990  -21.1773  -12.8461 C   0  0  0  0  0  0  0  0  0  0  0  0
   24.6107  -21.2042  -11.7354 O   0  0  0  0  0  0  0  0  0  0  0  0
   18.2834  -22.4446  -12.7301 N   0  0  0  0  0  0  0  0  0  0  0  0
   18.6339  -22.0040  -11.4442 C   0  0  0  0  0  0  0  0  0  0  0  0
   18.1665  -22.5682  -10.3575 N   0  0  0  0  0  0  0  0  0  0  0  0
   19.5189  -20.9201  -11.2784 N   0  0  0  0  0  0  0  0  0  0  0  0
   20.0151  -20.1619  -12.4247 C   0  0  0  0  0  0  0  0  0  0  0  0
   20.7894  -21.0603  -13.3630 C   0  0  0  0  0  0  0  0  0  0  0  0
   22.2687  -20.7647  -13.3002 C   0  0  0  0  0  0  0  0  0  0  0  0
   23.0689  -21.8984  -13.9481 C   0  0  2  0  0  0  0  0  0  0  0  0
   24.4620  -21.6071  -13.9828 N   0  0  0  0  0  0  0  0  0  0  0  0
   22.4897  -22.2257  -15.2729 C   0  0  0  0  0  0  0  0  0  0  0  0
   21.6736  -23.1828  -15.3267 O   0  0  0  0  0  0  0  0  0  0  0  0
   22.7761  -21.5642  -16.4429 O   0  0  0  0  0  0  0  0  0  0  0  0
  2  1  1  0
  3  2  1  0
  3  4  2  0
  6  5  1  0
  7  8  1  0
  7  6  1  0
  9  8  1  1
  9 10  1  0
 10  3  1  0
 11  9  1  0
 12 11  2  0
 14 13  1  0
 14 15  2  0
 16 14  1  0
 17 16  1  0
 18 17  1  0
 19 18  1  0
 20 21  1  0
 20 19  1  6
 21 11  1  0
 22 20  1  0
 23 22  2  0
 24 22  1  0
M  END
$$$$
