GMR.pdb
     RDKit          3D

 24 23  0  0  1  0  0  0  0  0999 V2000
   14.3014  -11.9943  -11.1646 N   0  0  0  0  0  0  0  0  0  0  0  0
   15.0396  -11.2953  -10.1357 C   0  0  0  0  0  0  0  0  0  0  0  0
   14.7863   -9.8367  -10.1628 C   0  0  0  0  0  0  0  0  0  0  0  0
   14.0993   -9.3910  -11.1171 O   0  0  0  0  0  0  0  0  0  0  0  0
   11.9377   -6.1324   -6.0871 C   0  0  0  0  0  0  0  0  0  0  0  0
   13.5349   -5.3088   -6.1411 S   0  0  0  0  0  0  0  0  0  0  0  0
   14.2918   -5.5807   -7.7866 C   0  0  0  0  0  0  0  0  0  0  0  0
   14.5686   -7.0424   -7.9069 C   0  0  0  0  0  0  0  0  0  0  0  0
   15.0273   -7.4989   -9.2540 C   0  0  2  0  0  0  0  0  0  0  0  0
   15.2624   -8.9290   -9.1971 N   0  0  0  0  0  0  0  0  0  0  0  0
   16.2178   -6.8085   -9.7713 C   0  0  0  0  0  0  0  0  0  0  0  0
   17.3633   -6.9264   -9.2672 O   0  0  0  0  0  0  0  0  0  0  0  0
   22.3595   -8.3978  -13.4006 N   0  0  0  0  0  0  0  0  0  0  0  0
   22.3130   -7.0631  -12.9683 C   0  0  0  0  0  0  0  0  0  0  0  0
   23.2726   -6.5216  -12.2586 N   0  0  0  0  0  0  0  0  0  0  0  0
   21.2111   -6.2466  -13.2922 N   0  0  0  0  0  0  0  0  0  0  0  0
   19.8666   -6.5597  -12.8134 C   0  0  0  0  0  0  0  0  0  0  0  0
   18.8567   -5.5938  -13.3914 C   0  0  0  0  0  0  0  0  0  0  0  0
   17.4590   -5.9282  -12.9288 C   0  0  0  0  0  0  0  0  0  0  0  0
   17.1975   -5.3332  -11.5421 C   0  0  2  0  0  0  0  0  0  0  0  0
   16.0893   -5.9565  -10.9017 N   0  0  0  0  0  0  0  0  0  0  0  0
   17.0819   -3.8588  -11.6443 C   0  0  0  0  0  0  0  0  0  0  0  0
   15.9233   -3.3746  -11.7341 O   0  0  0  0  0  0  0  0  0  0  0  0
   18.1416   -2.9840  -11.6481 O   0  0  0  0  0  0  0  0  0  0  0  0
  2  1  1  0
  3  2  1  0
  3  4  2  0
  6  5  1  0
  7  8  1  0
  7  6  1  0
  9  8  1  1
  9 10  1  0
 10  3  1  0
 11  9  1  0
 12 11  2  0
 14 13  1  0
 14 15  2  0
 16 14  1  0
 17 16  1  0
 18 17  1  0
 19 18  1  0
 20 21  1  0
 20 19  1  6
 21 11  1  0
 22 20  1  0
 23 22  2  0
 24 22  1  0
M  END
$$$$
