GMR.pdb
     RDKit          3D

 24 23  0  0  1  0  0  0  0  0999 V2000
   28.2290  -18.3799  -15.2313 N   0  0  0  0  0  0  0  0  0  0  0  0
   27.8305  -18.2674  -13.8455 C   0  0  0  0  0  0  0  0  0  0  0  0
   27.2597  -19.5311  -13.3263 C   0  0  0  0  0  0  0  0  0  0  0  0
   27.5781  -20.5920  -13.9215 O   0  0  0  0  0  0  0  0  0  0  0  0
   25.1687  -19.7325   -7.4142 C   0  0  0  0  0  0  0  0  0  0  0  0
   26.6664  -20.6778   -7.7233 S   0  0  0  0  0  0  0  0  0  0  0  0
   27.0387  -20.6378   -9.5162 C   0  0  0  0  0  0  0  0  0  0  0  0
   25.7399  -20.7783  -10.2378 C   0  0  0  0  0  0  0  0  0  0  0  0
   25.8401  -20.8634  -11.7265 C   0  0  2  0  0  0  0  0  0  0  0  0
   26.3921  -19.6163  -12.2203 N   0  0  0  0  0  0  0  0  0  0  0  0
   24.5788  -21.1695  -12.4171 C   0  0  0  0  0  0  0  0  0  0  0  0
   23.6203  -20.3608  -12.5040 O   0  0  0  0  0  0  0  0  0  0  0  0
   19.7523  -27.0028  -13.9270 N   0  0  0  0  0  0  0  0  0  0  0  0
   19.9262  -26.9905  -15.3199 C   0  0  0  0  0  0  0  0  0  0  0  0
   18.9537  -27.2758  -16.1510 N   0  0  0  0  0  0  0  0  0  0  0  0
   21.1771  -26.6624  -15.8796 N   0  0  0  0  0  0  0  0  0  0  0  0
   22.3202  -26.3192  -15.0366 C   0  0  0  0  0  0  0  0  0  0  0  0
   22.1406  -24.9463  -14.4283 C   0  0  0  0  0  0  0  0  0  0  0  0
   23.4319  -24.1647  -14.4614 C   0  0  0  0  0  0  0  0  0  0  0  0
   23.2552  -22.8098  -13.7696 C   0  0  2  0  0  0  0  0  0  0  0  0
   24.4126  -22.4427  -13.0265 N   0  0  0  0  0  0  0  0  0  0  0  0
   22.0052  -22.8145  -12.9727 C   0  0  0  0  0  0  0  0  0  0  0  0
   22.1187  -22.8489  -11.7194 O   0  0  0  0  0  0  0  0  0  0  0  0
   20.7358  -22.7840  -13.4983 O   0  0  0  0  0  0  0  0  0  0  0  0
  2  1  1  0
  3  2  1  0
  3  4  2  0
  6  5  1  0
  7  8  1  0
  7  6  1  0
  9  8  1  1
  9 10  1  0
 10  3  1  0
 11  9  1  0
 12 11  2  0
 14 13  1  0
 14 15  2  0
 16 14  1  0
 17 16  1  0
 18 17  1  0
 19 18  1  0
 20 21  1  0
 20 19  1  1
 21 11  1  0
 22 20  1  0
 23 22  2  0
 24 22  1  0
M  END
$$$$
