GMR.pdb
     RDKit          3D

 24 23  0  0  1  0  0  0  0  0999 V2000
   13.6654  -11.3564   -9.3876 N   0  0  0  0  0  0  0  0  0  0  0  0
   14.6255  -10.4996   -8.7272 C   0  0  0  0  0  0  0  0  0  0  0  0
   14.6458   -9.1369   -9.3061 C   0  0  0  0  0  0  0  0  0  0  0  0
   14.0274   -8.9632  -10.3871 O   0  0  0  0  0  0  0  0  0  0  0  0
   12.7078   -4.3804   -6.3550 C   0  0  0  0  0  0  0  0  0  0  0  0
   14.0811   -3.4516   -7.0504 S   0  0  0  0  0  0  0  0  0  0  0  0
   14.7091   -4.3312   -8.5291 C   0  0  0  0  0  0  0  0  0  0  0  0
   14.9230   -5.7549   -8.1357 C   0  0  0  0  0  0  0  0  0  0  0  0
   15.2411   -6.6889   -9.2582 C   0  0  2  0  0  0  0  0  0  0  0  0
   15.3077   -8.0370   -8.7270 N   0  0  0  0  0  0  0  0  0  0  0  0
   16.4714   -6.3733   -9.9986 C   0  0  0  0  0  0  0  0  0  0  0  0
   17.6196   -6.4154   -9.4885 O   0  0  0  0  0  0  0  0  0  0  0  0
   18.6894  -11.9580  -15.1093 N   0  0  0  0  0  0  0  0  0  0  0  0
   17.6078  -11.1143  -14.8111 C   0  0  0  0  0  0  0  0  0  0  0  0
   16.4333  -11.2530  -15.3758 N   0  0  0  0  0  0  0  0  0  0  0  0
   17.7539  -10.0717  -13.8744 N   0  0  0  0  0  0  0  0  0  0  0  0
   18.5653   -8.8930  -14.1699 C   0  0  0  0  0  0  0  0  0  0  0  0
   18.5014   -7.9023  -13.0290 C   0  0  0  0  0  0  0  0  0  0  0  0
   17.5822   -6.7514  -13.3601 C   0  0  0  0  0  0  0  0  0  0  0  0
   17.5179   -5.7643  -12.1910 C   0  0  2  0  0  0  0  0  0  0  0  0
   16.3810   -5.9976  -11.3664 N   0  0  0  0  0  0  0  0  0  0  0  0
   17.6154   -4.3763  -12.7024 C   0  0  0  0  0  0  0  0  0  0  0  0
   16.5519   -3.7050  -12.7589 O   0  0  0  0  0  0  0  0  0  0  0  0
   18.7763   -3.7697  -13.1178 O   0  0  0  0  0  0  0  0  0  0  0  0
  2  1  1  0
  3  2  1  0
  3  4  2  0
  6  5  1  0
  7  8  1  0
  7  6  1  0
  9  8  1  1
  9 10  1  0
 10  3  1  0
 11  9  1  0
 12 11  2  0
 14 13  1  0
 14 15  2  0
 16 14  1  0
 17 16  1  0
 18 17  1  0
 19 18  1  0
 20 21  1  0
 20 19  1  6
 21 11  1  0
 22 20  1  0
 23 22  2  0
 24 22  1  0
M  END
$$$$
