GMR.pdb
     RDKit          3D

 24 23  0  0  1  0  0  0  0  0999 V2000
   34.2678  -24.1677  -13.3535 N   0  0  0  0  0  0  0  0  0  0  0  0
   33.0670  -24.2035  -14.1590 C   0  0  0  0  0  0  0  0  0  0  0  0
   31.8701  -23.7889  -13.3922 C   0  0  0  0  0  0  0  0  0  0  0  0
   30.8478  -24.5150  -13.4867 O   0  0  0  0  0  0  0  0  0  0  0  0
   30.6447  -21.0738   -7.3636 C   0  0  0  0  0  0  0  0  0  0  0  0
   32.2158  -21.6483   -8.0222 S   0  0  0  0  0  0  0  0  0  0  0  0
   31.9100  -22.5824   -9.5677 C   0  0  0  0  0  0  0  0  0  0  0  0
   31.1614  -21.6766  -10.4877 C   0  0  0  0  0  0  0  0  0  0  0  0
   30.6638  -22.3105  -11.7463 C   0  0  2  0  0  0  0  0  0  0  0  0
   31.8074  -22.6446  -12.5736 N   0  0  0  0  0  0  0  0  0  0  0  0
   29.7026  -21.5022  -12.5106 C   0  0  0  0  0  0  0  0  0  0  0  0
   30.0384  -20.6842  -13.4043 O   0  0  0  0  0  0  0  0  0  0  0  0
   21.6160  -20.4082  -14.5446 N   0  0  0  0  0  0  0  0  0  0  0  0
   21.5893  -21.1722  -13.3674 C   0  0  0  0  0  0  0  0  0  0  0  0
   20.6238  -22.0177  -13.1014 N   0  0  0  0  0  0  0  0  0  0  0  0
   22.6220  -21.0527  -12.4161 N   0  0  0  0  0  0  0  0  0  0  0  0
   23.7132  -20.0976  -12.5950 C   0  0  0  0  0  0  0  0  0  0  0  0
   24.8465  -20.7235  -13.3767 C   0  0  0  0  0  0  0  0  0  0  0  0
   25.9026  -21.2785  -12.4515 C   0  0  0  0  0  0  0  0  0  0  0  0
   27.3022  -20.9781  -12.9958 C   0  0  2  0  0  0  0  0  0  0  0  0
   28.3137  -21.6365  -12.2407 N   0  0  0  0  0  0  0  0  0  0  0  0
   27.4920  -19.5120  -13.1057 C   0  0  0  0  0  0  0  0  0  0  0  0
   27.6874  -18.8728  -12.0389 O   0  0  0  0  0  0  0  0  0  0  0  0
   27.4709  -18.8010  -14.2815 O   0  0  0  0  0  0  0  0  0  0  0  0
  2  1  1  0
  3  2  1  0
  3  4  2  0
  6  5  1  0
  7  8  1  0
  7  6  1  0
  9  8  1  1
  9 10  1  0
 10  3  1  0
 11  9  1  0
 12 11  2  0
 14 13  1  0
 14 15  2  0
 16 14  1  0
 17 16  1  0
 18 17  1  0
 19 18  1  0
 20 21  1  0
 20 19  1  1
 21 11  1  0
 22 20  1  0
 23 22  2  0
 24 22  1  0
M  END
$$$$
