PCS.pdb
     RDKit          3D

 20 20  0  0  1  0  0  0  0  0999 V2000
    8.3990  -14.6338   20.2706 N   0  0  0  0  0  0  0  0  0  0  0  0
    7.6765  -15.0932   19.1009 C   0  0  0  0  0  0  0  0  0  0  0  0
    6.8307  -16.2096   19.6447 C   0  0  0  0  0  0  0  0  0  0  0  0
    6.6189  -15.8438   21.0960 C   0  0  0  0  0  0  0  0  0  0  0  0
    7.3690  -14.5398   21.2641 C   0  0  1  0  0  0  0  0  0  0  0  0
    7.9666  -14.4457   22.6382 C   0  0  0  0  0  0  0  0  0  0  0  0
    9.1369  -14.8782   22.8853 O   0  0  0  0  0  0  0  0  0  0  0  0
    7.2663  -13.8748   23.7262 N   0  0  0  0  0  0  0  0  0  0  0  0
    7.7735  -13.8086   25.0818 C   0  0  1  0  0  0  0  0  0  0  0  0
    6.9917  -12.8376   25.9003 C   0  0  0  0  0  0  0  0  0  0  0  0
    7.6872  -12.8089   27.5852 S   0  0  0  0  0  0  0  0  0  0  0  0
    7.9273  -15.1377   25.6897 C   0  0  0  0  0  0  0  0  0  0  0  0
    6.9050  -15.8626   25.7628 O   0  0  0  0  0  0  0  0  0  0  0  0
   11.2746  -17.3408   25.6698 O   0  0  0  0  0  0  0  0  0  0  0  0
   10.0450  -17.8910   25.9727 C   0  0  0  0  0  0  0  0  0  0  0  0
    9.2737  -16.9029   26.8210 C   0  0  2  0  0  0  0  0  0  0  0  0
    9.1709  -15.6091   26.1831 N   0  0  0  0  0  0  0  0  0  0  0  0
    9.8454  -16.8079   28.1790 C   0  0  0  0  0  0  0  0  0  0  0  0
   10.1663  -15.7137   28.7049 O   0  0  0  0  0  0  0  0  0  0  0  0
   10.0341  -17.9767   28.9014 O   0  0  0  0  0  0  0  0  0  0  0  0
  2  1  1  0
  3  2  1  0
  4  3  1  0
  4  5  1  0
  5  1  1  0
  5  6  1  1
  7  6  2  0
  8  6  1  0
  9  8  1  0
  9 12  1  0
  9 10  1  1
 11 10  1  0
 12 17  1  0
 13 12  2  0
 15 14  1  0
 16 15  1  6
 16 18  1  0
 17 16  1  0
 18 19  2  0
 18 20  1  0
M  END
$$$$
