PCS.pdb
     RDKit          3D

 20 20  0  0  1  0  0  0  0  0999 V2000
    8.7388  -13.4659   20.1734 N   0  0  0  0  0  0  0  0  0  0  0  0
    8.0324  -13.4138   18.9086 C   0  0  0  0  0  0  0  0  0  0  0  0
    6.9588  -14.4510   19.0798 C   0  0  0  0  0  0  0  0  0  0  0  0
    6.7114  -14.4886   20.5706 C   0  0  0  0  0  0  0  0  0  0  0  0
    7.6732  -13.4641   21.1332 C   0  0  1  0  0  0  0  0  0  0  0  0
    8.1752  -13.8929   22.4816 C   0  0  0  0  0  0  0  0  0  0  0  0
    9.2888  -14.4924   22.6166 O   0  0  0  0  0  0  0  0  0  0  0  0
    7.4428  -13.6557   23.6679 N   0  0  0  0  0  0  0  0  0  0  0  0
    7.8574  -14.0903   24.9864 C   0  0  1  0  0  0  0  0  0  0  0  0
    6.9988  -13.4856   26.0453 C   0  0  0  0  0  0  0  0  0  0  0  0
    5.5774  -12.6728   25.2438 S   0  0  0  0  0  0  0  0  0  0  0  0
    8.0041  -15.5498   25.0766 C   0  0  0  0  0  0  0  0  0  0  0  0
    7.2804  -16.2517   24.3285 O   0  0  0  0  0  0  0  0  0  0  0  0
   11.3257  -17.9757   23.9213 O   0  0  0  0  0  0  0  0  0  0  0  0
   10.5770  -16.8801   24.3028 C   0  0  0  0  0  0  0  0  0  0  0  0
    9.7638  -17.2567   25.5226 C   0  0  2  0  0  0  0  0  0  0  0  0
    8.9203  -16.1687   25.9654 N   0  0  0  0  0  0  0  0  0  0  0  0
   10.6315  -17.7618   26.6051 C   0  0  0  0  0  0  0  0  0  0  0  0
   10.7437  -17.1797   27.7120 O   0  0  0  0  0  0  0  0  0  0  0  0
   11.3508  -18.9276   26.3879 O   0  0  0  0  0  0  0  0  0  0  0  0
  2  1  1  0
  3  2  1  0
  4  3  1  0
  4  5  1  0
  5  1  1  0
  5  6  1  1
  7  6  2  0
  8  6  1  0
  9  8  1  0
  9 12  1  0
  9 10  1  1
 11 10  1  0
 12 17  1  0
 13 12  2  0
 15 14  1  0
 16 15  1  6
 16 18  1  0
 17 16  1  0
 18 19  2  0
 18 20  1  0
M  END
$$$$
