PCS.pdb
     RDKit          3D

 20 20  0  0  1  0  0  0  0  0999 V2000
    6.9672  -14.7507   20.4688 N   0  0  0  0  0  0  0  0  0  0  0  0
    6.5642  -14.3586   19.1327 C   0  0  0  0  0  0  0  0  0  0  0  0
    7.1213  -12.9688   19.0075 C   0  0  0  0  0  0  0  0  0  0  0  0
    8.3188  -12.9629   19.9299 C   0  0  0  0  0  0  0  0  0  0  0  0
    8.3462  -14.3595   20.5128 C   0  0  1  0  0  0  0  0  0  0  0  0
    8.8435  -14.3328   21.9292 C   0  0  0  0  0  0  0  0  0  0  0  0
   10.0794  -14.1977   22.1975 O   0  0  0  0  0  0  0  0  0  0  0  0
    7.9714  -14.4557   23.0357 N   0  0  0  0  0  0  0  0  0  0  0  0
    8.3992  -14.4472   24.4199 C   0  0  1  0  0  0  0  0  0  0  0  0
    7.4816  -13.6249   25.2601 C   0  0  0  0  0  0  0  0  0  0  0  0
    8.1280  -13.5951   26.9644 S   0  0  0  0  0  0  0  0  0  0  0  0
    8.6565  -15.7987   24.9367 C   0  0  0  0  0  0  0  0  0  0  0  0
    7.6748  -16.5736   25.0452 O   0  0  0  0  0  0  0  0  0  0  0  0
   12.4293  -17.5742   25.0649 O   0  0  0  0  0  0  0  0  0  0  0  0
   11.2526  -18.2830   24.9261 C   0  0  0  0  0  0  0  0  0  0  0  0
   10.1804  -17.5968   25.7449 C   0  0  2  0  0  0  0  0  0  0  0  0
    9.9539  -16.2375   25.3063 N   0  0  0  0  0  0  0  0  0  0  0  0
   10.4844  -17.6705   27.1879 C   0  0  0  0  0  0  0  0  0  0  0  0
   10.5409  -16.6535   27.9221 O   0  0  0  0  0  0  0  0  0  0  0  0
   10.7162  -18.9157   27.7530 O   0  0  0  0  0  0  0  0  0  0  0  0
  2  1  1  0
  3  2  1  0
  4  3  1  0
  4  5  1  0
  5  1  1  0
  5  6  1  1
  7  6  2  0
  8  6  1  0
  9  8  1  0
  9 12  1  0
  9 10  1  1
 11 10  1  0
 12 17  1  0
 13 12  2  0
 15 14  1  0
 16 15  1  6
 16 18  1  0
 17 16  1  0
 18 19  2  0
 18 20  1  0
M  END
$$$$
