PCS.pdb
     RDKit          3D

 20 20  0  0  1  0  0  0  0  0999 V2000
    7.0334  -14.5940   20.8228 N   0  0  0  0  0  0  0  0  0  0  0  0
    6.7334  -14.1520   19.4752 C   0  0  0  0  0  0  0  0  0  0  0  0
    7.4623  -12.8415   19.3807 C   0  0  0  0  0  0  0  0  0  0  0  0
    8.6151  -12.9857   20.3477 C   0  0  0  0  0  0  0  0  0  0  0  0
    8.4475  -14.3764   20.9216 C   0  0  1  0  0  0  0  0  0  0  0  0
    8.8895  -14.4145   22.3559 C   0  0  0  0  0  0  0  0  0  0  0  0
   10.1205  -14.3766   22.6735 O   0  0  0  0  0  0  0  0  0  0  0  0
    7.9680  -14.4943   23.4258 N   0  0  0  0  0  0  0  0  0  0  0  0
    8.3414  -14.5683   24.8237 C   0  0  1  0  0  0  0  0  0  0  0  0
    7.4542  -13.7115   25.6621 C   0  0  0  0  0  0  0  0  0  0  0  0
    5.7504  -14.3481   25.5392 S   0  0  0  0  0  0  0  0  0  0  0  0
    8.4796  -15.9531   25.2958 C   0  0  0  0  0  0  0  0  0  0  0  0
    7.5147  -16.7314   25.0971 O   0  0  0  0  0  0  0  0  0  0  0  0
   12.0210  -17.8243   25.7886 O   0  0  0  0  0  0  0  0  0  0  0  0
   10.8463  -18.5390   25.6630 C   0  0  0  0  0  0  0  0  0  0  0  0
    9.7510  -17.7931   26.3942 C   0  0  2  0  0  0  0  0  0  0  0  0
    9.6466  -16.4197   25.9535 N   0  0  0  0  0  0  0  0  0  0  0  0
    9.9236  -17.8946   27.8571 C   0  0  0  0  0  0  0  0  0  0  0  0
    9.9774  -16.8876   28.6052 O   0  0  0  0  0  0  0  0  0  0  0  0
   10.0298  -19.1553   28.4255 O   0  0  0  0  0  0  0  0  0  0  0  0
  2  1  1  0
  3  2  1  0
  4  3  1  0
  4  5  1  0
  5  1  1  0
  5  6  1  1
  7  6  2  0
  8  6  1  0
  9  8  1  0
  9 12  1  0
  9 10  1  1
 11 10  1  0
 12 17  1  0
 13 12  2  0
 15 14  1  0
 16 15  1  6
 16 18  1  0
 17 16  1  0
 18 19  2  0
 18 20  1  0
M  END
$$$$
