PCS.pdb
     RDKit          3D

 20 20  0  0  1  0  0  0  0  0999 V2000
    6.9749  -14.7050   20.8496 N   0  0  0  0  0  0  0  0  0  0  0  0
    6.6185  -14.3493   19.4903 C   0  0  0  0  0  0  0  0  0  0  0  0
    7.2653  -13.0046   19.3137 C   0  0  0  0  0  0  0  0  0  0  0  0
    8.4464  -13.0325   20.2567 C   0  0  0  0  0  0  0  0  0  0  0  0
    8.3753  -14.4002   20.9014 C   0  0  1  0  0  0  0  0  0  0  0  0
    8.8513  -14.3407   22.3241 C   0  0  0  0  0  0  0  0  0  0  0  0
   10.0871  -14.2408   22.6081 O   0  0  0  0  0  0  0  0  0  0  0  0
    7.9583  -14.3920   23.4196 N   0  0  0  0  0  0  0  0  0  0  0  0
    8.3685  -14.4692   24.8069 C   0  0  1  0  0  0  0  0  0  0  0  0
    7.4587  -13.6733   25.6805 C   0  0  0  0  0  0  0  0  0  0  0  0
    5.7833  -14.3834   25.5708 S   0  0  0  0  0  0  0  0  0  0  0  0
    8.5890  -15.8525   25.2516 C   0  0  0  0  0  0  0  0  0  0  0  0
    7.6554  -16.6730   25.0753 O   0  0  0  0  0  0  0  0  0  0  0  0
   12.2694  -17.4619   25.6421 O   0  0  0  0  0  0  0  0  0  0  0  0
   11.1648  -18.2755   25.4859 C   0  0  0  0  0  0  0  0  0  0  0  0
   10.0032  -17.6547   26.2317 C   0  0  2  0  0  0  0  0  0  0  0  0
    9.8002  -16.2722   25.8593 N   0  0  0  0  0  0  0  0  0  0  0  0
   10.1591  -17.8190   27.6907 C   0  0  0  0  0  0  0  0  0  0  0  0
   10.1504  -16.8485   28.4874 O   0  0  0  0  0  0  0  0  0  0  0  0
   10.3212  -19.0991   28.1994 O   0  0  0  0  0  0  0  0  0  0  0  0
  2  1  1  0
  3  2  1  0
  4  3  1  0
  4  5  1  0
  5  1  1  0
  5  6  1  1
  7  6  2  0
  8  6  1  0
  9  8  1  0
  9 12  1  0
  9 10  1  1
 11 10  1  0
 12 17  1  0
 13 12  2  0
 15 14  1  0
 16 15  1  6
 16 18  1  0
 17 16  1  0
 18 19  2  0
 18 20  1  0
M  END
$$$$
