PCS.pdb
     RDKit          3D

 20 20  0  0  1  0  0  0  0  0999 V2000
    6.7977  -14.6258   20.7816 N   0  0  0  0  0  0  0  0  0  0  0  0
    6.5195  -14.2778   19.4021 C   0  0  0  0  0  0  0  0  0  0  0  0
    7.0978  -12.8964   19.2804 C   0  0  0  0  0  0  0  0  0  0  0  0
    8.2078  -12.8653   20.3060 C   0  0  0  0  0  0  0  0  0  0  0  0
    8.1706  -14.2411   20.9361 C   0  0  1  0  0  0  0  0  0  0  0  0
    8.5390  -14.1683   22.3897 C   0  0  0  0  0  0  0  0  0  0  0  0
    9.7526  -14.1105   22.7659 O   0  0  0  0  0  0  0  0  0  0  0  0
    7.5639  -14.1599   23.4140 N   0  0  0  0  0  0  0  0  0  0  0  0
    7.8612  -14.0285   24.8259 C   0  0  1  0  0  0  0  0  0  0  0  0
    6.8855  -13.1224   25.4976 C   0  0  0  0  0  0  0  0  0  0  0  0
    7.3206  -13.0109   27.2644 S   0  0  0  0  0  0  0  0  0  0  0  0
    8.0430  -15.3293   25.4853 C   0  0  0  0  0  0  0  0  0  0  0  0
    7.0210  -16.0367   25.6618 O   0  0  0  0  0  0  0  0  0  0  0  0
   11.5027  -17.4420   25.4357 O   0  0  0  0  0  0  0  0  0  0  0  0
   10.2813  -18.0346   25.6877 C   0  0  0  0  0  0  0  0  0  0  0  0
    9.4570  -17.0910   26.5368 C   0  0  2  0  0  0  0  0  0  0  0  0
    9.3126  -15.7930   25.9158 N   0  0  0  0  0  0  0  0  0  0  0  0
   10.0019  -16.9935   27.9056 C   0  0  0  0  0  0  0  0  0  0  0  0
   10.3018  -15.8974   28.4398 O   0  0  0  0  0  0  0  0  0  0  0  0
   10.1889  -18.1621   28.6287 O   0  0  0  0  0  0  0  0  0  0  0  0
  2  1  1  0
  3  2  1  0
  4  3  1  0
  4  5  1  0
  5  1  1  0
  5  6  1  1
  7  6  2  0
  8  6  1  0
  9  8  1  0
  9 12  1  0
  9 10  1  1
 11 10  1  0
 12 17  1  0
 13 12  2  0
 15 14  1  0
 16 15  1  6
 16 18  1  0
 17 16  1  0
 18 19  2  0
 18 20  1  0
M  END
$$$$
