PCS.pdb
     RDKit          3D

 20 20  0  0  1  0  0  0  0  0999 V2000
    8.5007  -14.9520   20.3753 N   0  0  0  0  0  0  0  0  0  0  0  0
    7.8071  -15.6018   19.2808 C   0  0  0  0  0  0  0  0  0  0  0  0
    7.0287  -16.6855   19.9717 C   0  0  0  0  0  0  0  0  0  0  0  0
    6.7952  -16.1464   21.3645 C   0  0  0  0  0  0  0  0  0  0  0  0
    7.4666  -14.7898   21.3557 C   0  0  1  0  0  0  0  0  0  0  0  0
    8.0571  -14.4822   22.7013 C   0  0  0  0  0  0  0  0  0  0  0  0
    9.2721  -14.7454   22.9702 O   0  0  0  0  0  0  0  0  0  0  0  0
    7.3005  -13.8869   23.7373 N   0  0  0  0  0  0  0  0  0  0  0  0
    7.7907  -13.6584   25.0813 C   0  0  1  0  0  0  0  0  0  0  0  0
    6.9024  -12.7184   25.8239 C   0  0  0  0  0  0  0  0  0  0  0  0
    7.5626  -12.5081   27.5101 S   0  0  0  0  0  0  0  0  0  0  0  0
    8.0876  -14.9103   25.7915 C   0  0  0  0  0  0  0  0  0  0  0  0
    7.1451  -15.7247   25.9478 O   0  0  0  0  0  0  0  0  0  0  0  0
   11.7831  -16.5303   26.0118 O   0  0  0  0  0  0  0  0  0  0  0  0
   10.6612  -17.3035   26.2352 C   0  0  0  0  0  0  0  0  0  0  0  0
    9.6390  -16.4635   26.9702 C   0  0  2  0  0  0  0  0  0  0  0  0
    9.3801  -15.2129   26.2918 N   0  0  0  0  0  0  0  0  0  0  0  0
   10.0319  -16.2595   28.3787 C   0  0  0  0  0  0  0  0  0  0  0  0
   10.0568  -15.1261   28.9186 O   0  0  0  0  0  0  0  0  0  0  0  0
   10.3873  -17.3669   29.1343 O   0  0  0  0  0  0  0  0  0  0  0  0
  2  1  1  0
  3  2  1  0
  4  3  1  0
  4  5  1  0
  5  1  1  0
  5  6  1  1
  7  6  2  0
  8  6  1  0
  9  8  1  0
  9 12  1  0
  9 10  1  1
 11 10  1  0
 12 17  1  0
 13 12  2  0
 15 14  1  0
 16 15  1  6
 16 18  1  0
 17 16  1  0
 18 19  2  0
 18 20  1  0
M  END
$$$$
