PCS.pdb
     RDKit          3D

 20 20  0  0  1  0  0  0  0  0999 V2000
    8.3979  -15.7464   19.0135 N   0  0  0  0  0  0  0  0  0  0  0  0
    7.6678  -16.5237   18.0317 C   0  0  0  0  0  0  0  0  0  0  0  0
    7.3717  -17.8007   18.7661 C   0  0  0  0  0  0  0  0  0  0  0  0
    7.3264  -17.3922   20.2207 C   0  0  0  0  0  0  0  0  0  0  0  0
    7.6051  -15.9045   20.1980 C   0  0  1  0  0  0  0  0  0  0  0  0
    8.3832  -15.4926   21.4141 C   0  0  0  0  0  0  0  0  0  0  0  0
    9.6522  -15.4090   21.3947 O   0  0  0  0  0  0  0  0  0  0  0  0
    7.7527  -15.1770   22.6401 N   0  0  0  0  0  0  0  0  0  0  0  0
    8.4575  -14.8932   23.8737 C   0  0  1  0  0  0  0  0  0  0  0  0
    7.5566  -14.2441   24.8692 C   0  0  0  0  0  0  0  0  0  0  0  0
    6.1503  -15.3588   25.1905 S   0  0  0  0  0  0  0  0  0  0  0  0
    9.1923  -16.0600   24.3821 C   0  0  0  0  0  0  0  0  0  0  0  0
    8.6753  -17.1907   24.2079 O   0  0  0  0  0  0  0  0  0  0  0  0
   13.2975  -18.1520   25.4702 O   0  0  0  0  0  0  0  0  0  0  0  0
   12.6626  -16.9755   25.1248 C   0  0  0  0  0  0  0  0  0  0  0  0
   11.1879  -17.1182   25.4341 C   0  0  2  0  0  0  0  0  0  0  0  0
   10.4396  -15.9426   25.0477 N   0  0  0  0  0  0  0  0  0  0  0  0
   10.9735  -17.4710   26.8517 C   0  0  0  0  0  0  0  0  0  0  0  0
   10.3391  -16.7337   27.6457 O   0  0  0  0  0  0  0  0  0  0  0  0
   11.4948  -18.6668   27.3226 O   0  0  0  0  0  0  0  0  0  0  0  0
  2  1  1  0
  3  2  1  0
  4  3  1  0
  4  5  1  0
  5  1  1  0
  5  6  1  1
  7  6  2  0
  8  6  1  0
  9  8  1  0
  9 12  1  0
  9 10  1  1
 11 10  1  0
 12 17  1  0
 13 12  2  0
 15 14  1  0
 16 15  1  1
 16 18  1  0
 17 16  1  0
 18 19  2  0
 18 20  1  0
M  END
$$$$
