PCS.pdb
     RDKit          3D

 20 20  0  0  1  0  0  0  0  0999 V2000
    6.8948  -14.6583   20.8604 N   0  0  0  0  0  0  0  0  0  0  0  0
    6.5239  -14.2787   19.5114 C   0  0  0  0  0  0  0  0  0  0  0  0
    7.0479  -12.8749   19.4007 C   0  0  0  0  0  0  0  0  0  0  0  0
    8.2153  -12.8361   20.3602 C   0  0  0  0  0  0  0  0  0  0  0  0
    8.2610  -14.2307   20.9468 C   0  0  1  0  0  0  0  0  0  0  0  0
    8.7125  -14.1890   22.3781 C   0  0  0  0  0  0  0  0  0  0  0  0
    9.9461  -14.1451   22.6851 O   0  0  0  0  0  0  0  0  0  0  0  0
    7.7978  -14.1961   23.4566 N   0  0  0  0  0  0  0  0  0  0  0  0
    8.1748  -14.0762   24.8504 C   0  0  1  0  0  0  0  0  0  0  0  0
    7.2379  -13.1774   25.5842 C   0  0  0  0  0  0  0  0  0  0  0  0
    7.8007  -13.0417   27.3128 S   0  0  0  0  0  0  0  0  0  0  0  0
    8.3954  -15.3822   25.4872 C   0  0  0  0  0  0  0  0  0  0  0  0
    7.3892  -16.1056   25.6880 O   0  0  0  0  0  0  0  0  0  0  0  0
   12.0759  -17.1630   25.7541 O   0  0  0  0  0  0  0  0  0  0  0  0
   10.9408  -17.9399   25.8736 C   0  0  0  0  0  0  0  0  0  0  0  0
    9.8584  -17.1092   26.5289 C   0  0  2  0  0  0  0  0  0  0  0  0
    9.6844  -15.8335   25.8705 N   0  0  0  0  0  0  0  0  0  0  0  0
   10.1078  -16.9570   27.9762 C   0  0  0  0  0  0  0  0  0  0  0  0
   10.1646  -15.8367   28.5406 O   0  0  0  0  0  0  0  0  0  0  0  0
   10.2859  -18.0999   28.7414 O   0  0  0  0  0  0  0  0  0  0  0  0
  2  1  1  0
  3  2  1  0
  4  3  1  0
  4  5  1  0
  5  1  1  0
  5  6  1  1
  7  6  2  0
  8  6  1  0
  9  8  1  0
  9 12  1  0
  9 10  1  1
 11 10  1  0
 12 17  1  0
 13 12  2  0
 15 14  1  0
 16 15  1  6
 16 18  1  0
 17 16  1  0
 18 19  2  0
 18 20  1  0
M  END
$$$$
