ATF.pdb
     RDKit          3D

 24 24  0  0  1  0  0  0  0  0999 V2000
   35.5451  -34.3897   -9.3926 C   0  0  0  0  0  0  0  0  0  0  0  0
   35.7001  -35.8799   -9.2022 C   0  0  2  0  0  0  0  0  0  0  0  0
   35.9030  -36.5377  -10.4719 N   0  0  0  0  0  0  0  0  0  0  0  0
   34.5861  -36.4752   -8.4273 C   0  0  0  0  0  0  0  0  0  0  0  0
   33.6214  -36.9376   -9.0758 O   0  0  0  0  0  0  0  0  0  0  0  0
   35.1322  -38.8973   -5.3568 C   0  0  0  0  0  0  0  0  0  0  0  0
   34.0915  -37.8560   -5.0042 C   0  0  1  0  0  0  0  0  0  0  0  0
   34.7383  -36.9312   -4.1637 O   0  0  0  0  0  0  0  0  0  0  0  0
   33.5691  -37.1508   -6.2018 C   0  0  2  0  0  0  0  0  0  0  0  0
   34.5948  -36.5283   -7.0012 N   0  0  0  0  0  0  0  0  0  0  0  0
   32.4992  -36.1631   -5.9104 C   0  0  0  0  0  0  0  0  0  0  0  0
   32.8088  -34.9546   -5.8404 O   0  0  0  0  0  0  0  0  0  0  0  0
   31.1528  -36.5182   -5.7087 N   0  0  0  0  0  0  0  0  0  0  0  0
   30.0036  -35.6582   -5.7353 C   0  0  1  0  0  0  0  0  0  0  0  0
   29.9721  -34.7468   -6.9017 C   0  0  0  0  0  0  0  0  0  0  0  0
   28.7047  -34.0094   -7.0248 C   0  0  0  0  0  0  0  0  0  0  0  0
   28.2274  -33.2563   -5.9506 C   0  0  0  0  0  0  0  0  0  0  0  0
   27.0564  -32.5278   -6.0307 C   0  0  0  0  0  0  0  0  0  0  0  0
   26.3116  -32.5201   -7.1872 C   0  0  0  0  0  0  0  0  0  0  0  0
   26.7661  -33.2559   -8.2553 C   0  0  0  0  0  0  0  0  0  0  0  0
   27.9323  -33.9745   -8.1588 C   0  0  0  0  0  0  0  0  0  0  0  0
   28.7186  -36.3532   -5.4809 C   0  0  0  0  0  0  0  0  0  0  0  0
   27.7790  -35.6683   -4.9568 O   0  0  0  0  0  0  0  0  0  0  0  0
   28.4667  -37.6820   -5.7715 O   0  0  0  0  0  0  0  0  0  0  0  0
  2  4  1  0
  2  3  1  0
  2  1  1  6
  4  5  2  0
  7  6  1  6
  7  9  1  0
  8  7  1  0
  9 11  1  0
  9 10  1  1
 10  4  1  0
 11 12  2  0
 11 13  1  0
 13 14  1  0
 14 22  1  0
 14 15  1  6
 16 15  1  0
 16 21  2  0
 17 16  1  0
 18 17  2  0
 18 19  1  0
 19 20  2  0
 20 21  1  0
 22 23  2  0
 22 24  1  0
M  END
$$$$
