ATF.pdb
     RDKit          3D

 24 24  0  0  1  0  0  0  0  0999 V2000
   10.7451  -10.0411   -8.7975 C   0  0  0  0  0  0  0  0  0  0  0  0
   10.8706  -10.5187  -10.2248 C   0  0  2  0  0  0  0  0  0  0  0  0
   10.3671  -11.8658  -10.3577 N   0  0  0  0  0  0  0  0  0  0  0  0
   12.2461  -10.3730  -10.7565 C   0  0  0  0  0  0  0  0  0  0  0  0
   13.0794  -11.2487  -10.4345 O   0  0  0  0  0  0  0  0  0  0  0  0
   13.1676  -10.8050  -14.1112 C   0  0  0  0  0  0  0  0  0  0  0  0
   13.7190   -9.4326  -13.7885 C   0  0  1  0  0  0  0  0  0  0  0  0
   12.7914   -8.5106  -14.3077 O   0  0  0  0  0  0  0  0  0  0  0  0
   13.8670   -9.2121  -12.3277 C   0  0  2  0  0  0  0  0  0  0  0  0
   12.6237   -9.2867  -11.6015 N   0  0  0  0  0  0  0  0  0  0  0  0
   14.5771   -7.9584  -11.9684 C   0  0  0  0  0  0  0  0  0  0  0  0
   13.8988   -6.9301  -11.7588 O   0  0  0  0  0  0  0  0  0  0  0  0
   15.9762   -7.8682  -11.8514 N   0  0  0  0  0  0  0  0  0  0  0  0
   16.7696   -6.6838  -11.6824 C   0  0  1  0  0  0  0  0  0  0  0  0
   17.3656   -6.5571  -10.3331 C   0  0  0  0  0  0  0  0  0  0  0  0
   16.3642   -6.3391   -9.2771 C   0  0  0  0  0  0  0  0  0  0  0  0
   15.8933   -7.4184   -8.5273 C   0  0  0  0  0  0  0  0  0  0  0  0
   14.9734   -7.2565   -7.5096 C   0  0  0  0  0  0  0  0  0  0  0  0
   14.4839   -6.0094   -7.1970 C   0  0  0  0  0  0  0  0  0  0  0  0
   14.9362   -4.9349   -7.9247 C   0  0  0  0  0  0  0  0  0  0  0  0
   15.8510   -5.1135   -8.9331 C   0  0  0  0  0  0  0  0  0  0  0  0
   17.7251   -6.4296  -12.7876 C   0  0  0  0  0  0  0  0  0  0  0  0
   17.9142   -7.3739  -13.6237 O   0  0  0  0  0  0  0  0  0  0  0  0
   18.4199   -5.2485  -12.9769 O   0  0  0  0  0  0  0  0  0  0  0  0
  2  4  1  0
  2  3  1  0
  2  1  1  1
  4  5  2  0
  7  6  1  1
  7  9  1  0
  8  7  1  0
  9 11  1  0
  9 10  1  1
 10  4  1  0
 11 12  2  0
 11 13  1  0
 13 14  1  0
 14 22  1  0
 14 15  1  1
 16 15  1  0
 16 21  2  0
 17 16  1  0
 18 17  2  0
 18 19  1  0
 19 20  2  0
 20 21  1  0
 22 23  2  0
 22 24  1  0
M  END
$$$$
