ATF.pdb
     RDKit          3D

 24 24  0  0  1  0  0  0  0  0999 V2000
   15.4961  -12.7501  -14.9011 C   0  0  0  0  0  0  0  0  0  0  0  0
   14.8383  -11.5571  -14.2492 C   0  0  2  0  0  0  0  0  0  0  0  0
   14.3521  -10.6340  -15.2479 N   0  0  0  0  0  0  0  0  0  0  0  0
   15.7114  -10.9004  -13.2480 C   0  0  0  0  0  0  0  0  0  0  0  0
   16.1118  -11.6002  -12.2916 O   0  0  0  0  0  0  0  0  0  0  0  0
   19.0604   -9.6742  -13.2659 C   0  0  0  0  0  0  0  0  0  0  0  0
   18.2436   -8.4619  -12.8726 C   0  0  1  0  0  0  0  0  0  0  0  0
   18.1215   -7.6827  -14.0380 O   0  0  0  0  0  0  0  0  0  0  0  0
   16.8912   -8.8268  -12.3807 C   0  0  2  0  0  0  0  0  0  0  0  0
   16.0906   -9.5285  -13.3530 N   0  0  0  0  0  0  0  0  0  0  0  0
   16.1149   -7.6881  -11.8275 C   0  0  0  0  0  0  0  0  0  0  0  0
   15.2396   -7.1603  -12.5464 O   0  0  0  0  0  0  0  0  0  0  0  0
   16.3142   -7.1719  -10.5340 N   0  0  0  0  0  0  0  0  0  0  0  0
   15.6814   -6.0304   -9.9361 C   0  0  1  0  0  0  0  0  0  0  0  0
   14.2064   -6.0360  -10.0632 C   0  0  0  0  0  0  0  0  0  0  0  0
   13.5420   -6.8697   -9.0488 C   0  0  0  0  0  0  0  0  0  0  0  0
   13.1877   -6.3199   -7.8155 C   0  0  0  0  0  0  0  0  0  0  0  0
   12.5397   -7.0581   -6.8443 C   0  0  0  0  0  0  0  0  0  0  0  0
   12.2175   -8.3775   -7.0631 C   0  0  0  0  0  0  0  0  0  0  0  0
   12.5585   -8.9358   -8.2717 C   0  0  0  0  0  0  0  0  0  0  0  0
   13.2026   -8.1877   -9.2263 C   0  0  0  0  0  0  0  0  0  0  0  0
   16.1656   -5.7129   -8.5709 C   0  0  0  0  0  0  0  0  0  0  0  0
   16.9079   -6.5783   -7.9994 O   0  0  0  0  0  0  0  0  0  0  0  0
   15.8736   -4.5517   -7.8779 O   0  0  0  0  0  0  0  0  0  0  0  0
  2  4  1  0
  2  3  1  0
  2  1  1  6
  4  5  2  0
  7  6  1  6
  7  9  1  0
  8  7  1  0
  9 11  1  0
  9 10  1  6
 10  4  1  0
 11 12  2  0
 11 13  1  0
 13 14  1  0
 14 22  1  0
 14 15  1  1
 16 15  1  0
 16 21  2  0
 17 16  1  0
 18 17  2  0
 18 19  1  0
 19 20  2  0
 20 21  1  0
 22 23  2  0
 22 24  1  0
M  END
$$$$
