SHQ.pdb
     RDKit          3D

 26 26  0  0  1  0  0  0  0  0999 V2000
   21.2098  -13.6018  -15.2398 O   0  0  0  0  0  0  0  0  0  0  0  0
   21.9030  -12.4015  -15.1264 C   0  0  0  0  0  0  0  0  0  0  0  0
   21.2091  -11.3302  -15.9478 C   0  0  2  0  0  0  0  0  0  0  0  0
   21.1751  -11.6456  -17.3393 N   0  0  0  0  0  0  0  0  0  0  0  0
   21.9167  -10.0481  -15.7076 C   0  0  0  0  0  0  0  0  0  0  0  0
   21.9554   -9.5965  -14.5578 O   0  0  0  0  0  0  0  0  0  0  0  0
   22.5518   -9.3210  -16.7526 N   0  0  0  0  0  0  0  0  0  0  0  0
   23.2604   -8.0849  -16.5346 C   0  0  1  0  0  0  0  0  0  0  0  0
   24.7105   -8.1655  -16.9141 C   0  0  0  0  0  0  0  0  0  0  0  0
   25.4548   -9.2416  -16.2240 C   0  0  0  0  0  0  0  0  0  0  0  0
   25.0349  -10.1951  -15.3168 C   0  0  0  0  0  0  0  0  0  0  0  0
   26.1216  -10.9096  -15.0014 N   0  0  0  0  0  0  0  0  0  0  0  0
   27.1859  -10.4445  -15.6677 C   0  0  0  0  0  0  0  0  0  0  0  0
   26.7948   -9.4110  -16.4309 N   0  0  0  0  0  0  0  0  0  0  0  0
   22.5816   -6.9262  -17.1590 C   0  0  0  0  0  0  0  0  0  0  0  0
   22.4219   -6.8320  -18.4027 O   0  0  0  0  0  0  0  0  0  0  0  0
   16.4967   -6.2325  -18.4768 N   0  0  0  0  0  0  0  0  0  0  0  0
   17.8625   -5.8183  -18.5112 C   0  0  0  0  0  0  0  0  0  0  0  0
   18.5718   -5.9061  -19.5611 O   0  0  0  0  0  0  0  0  0  0  0  0
   18.5302   -5.2540  -17.3193 C   0  0  0  0  0  0  0  0  0  0  0  0
   19.8325   -5.8736  -16.9730 C   0  0  0  0  0  0  0  0  0  0  0  0
   20.9966   -4.9901  -16.7436 C   0  0  2  0  0  0  0  0  0  0  0  0
   22.1013   -5.9012  -16.3373 N   0  0  0  0  0  0  0  0  0  0  0  0
   20.8832   -3.9124  -15.7874 C   0  0  0  0  0  0  0  0  0  0  0  0
   20.4127   -2.6326  -16.0393 O   0  0  0  0  0  0  0  0  0  0  0  0
   21.2470   -4.1112  -14.5781 O   0  0  0  0  0  0  0  0  0  0  0  0
  2  1  1  0
  2  3  1  0
  3  4  1  6
  5  3  1  0
  5  6  2  0
  7  5  1  0
  8  7  1  0
  8  9  1  6
 10  9  1  0
 10 11  2  0
 12 11  1  0
 13 12  1  0
 14 13  2  0
 14 10  1  0
 15  8  1  0
 16 15  2  0
 17 18  1  0
 18 19  2  0
 18 20  1  0
 20 21  1  0
 22 21  1  1
 22 24  1  0
 22 23  1  0
 23 15  1  0
 24 25  1  0
 26 24  2  0
M  END
$$$$
