SHQ.pdb
     RDKit          3D

 26 26  0  0  1  0  0  0  0  0999 V2000
   28.5108  -20.3153  -18.7158 O   0  0  0  0  0  0  0  0  0  0  0  0
   28.0301  -20.2473  -17.4126 C   0  0  0  0  0  0  0  0  0  0  0  0
   28.2405  -21.5811  -16.7194 C   0  0  2  0  0  0  0  0  0  0  0  0
   28.1543  -22.6843  -17.6205 N   0  0  0  0  0  0  0  0  0  0  0  0
   27.2289  -21.6930  -15.6394 C   0  0  0  0  0  0  0  0  0  0  0  0
   26.2345  -22.4025  -15.8270 O   0  0  0  0  0  0  0  0  0  0  0  0
   27.3629  -21.0135  -14.3966 N   0  0  0  0  0  0  0  0  0  0  0  0
   26.3483  -21.0355  -13.3732 C   0  0  1  0  0  0  0  0  0  0  0  0
   26.8428  -20.5367  -12.0465 C   0  0  0  0  0  0  0  0  0  0  0  0
   25.8428  -20.6229  -10.9597 C   0  0  0  0  0  0  0  0  0  0  0  0
   24.5385  -21.0779  -10.9635 C   0  0  0  0  0  0  0  0  0  0  0  0
   24.0874  -20.9179   -9.7138 N   0  0  0  0  0  0  0  0  0  0  0  0
   25.0466  -20.3888   -8.9437 C   0  0  0  0  0  0  0  0  0  0  0  0
   26.1426  -20.1981   -9.6961 N   0  0  0  0  0  0  0  0  0  0  0  0
   25.1022  -20.3570  -13.7975 C   0  0  0  0  0  0  0  0  0  0  0  0
   25.1032  -19.2042  -14.2998 O   0  0  0  0  0  0  0  0  0  0  0  0
   21.9377  -21.3101  -17.9320 N   0  0  0  0  0  0  0  0  0  0  0  0
   20.7501  -21.0720  -17.1763 C   0  0  0  0  0  0  0  0  0  0  0  0
   19.6420  -20.7852  -17.7267 O   0  0  0  0  0  0  0  0  0  0  0  0
   20.7427  -21.1531  -15.7004 C   0  0  0  0  0  0  0  0  0  0  0  0
   22.0617  -21.4194  -15.0765 C   0  0  0  0  0  0  0  0  0  0  0  0
   22.5843  -20.4507  -14.0883 C   0  0  2  0  0  0  0  0  0  0  0  0
   23.8821  -21.0211  -13.6343 N   0  0  0  0  0  0  0  0  0  0  0  0
   21.7759  -20.1147  -12.9383 C   0  0  0  0  0  0  0  0  0  0  0  0
   20.7789  -19.1528  -12.8839 O   0  0  0  0  0  0  0  0  0  0  0  0
   21.9686  -20.7364  -11.8379 O   0  0  0  0  0  0  0  0  0  0  0  0
  2  1  1  0
  2  3  1  0
  3  4  1  6
  5  3  1  0
  5  6  2  0
  7  5  1  0
  8  7  1  0
  8  9  1  1
 10  9  1  0
 10 11  2  0
 12 11  1  0
 13 12  1  0
 14 13  2  0
 14 10  1  0
 15  8  1  0
 16 15  2  0
 17 18  1  0
 18 19  2  0
 18 20  1  0
 20 21  1  0
 22 21  1  6
 22 24  1  0
 22 23  1  0
 23 15  1  0
 24 25  1  0
 26 24  2  0
M  END
$$$$
