SHQ.pdb
     RDKit          3D

 26 26  0  0  1  0  0  0  0  0999 V2000
   14.4348  -12.9382  -18.5289 O   0  0  0  0  0  0  0  0  0  0  0  0
   15.8228  -12.9743  -18.4497 C   0  0  0  0  0  0  0  0  0  0  0  0
   16.2441  -13.6264  -17.1454 C   0  0  2  0  0  0  0  0  0  0  0  0
   15.1300  -14.0752  -16.3746 N   0  0  0  0  0  0  0  0  0  0  0  0
   17.0548  -12.6401  -16.3889 C   0  0  0  0  0  0  0  0  0  0  0  0
   17.3999  -12.9144  -15.2343 O   0  0  0  0  0  0  0  0  0  0  0  0
   17.4488  -11.3912  -16.9450 N   0  0  0  0  0  0  0  0  0  0  0  0
   18.3357  -10.4746  -16.2736 C   0  0  1  0  0  0  0  0  0  0  0  0
   19.7425  -10.9882  -16.1720 C   0  0  0  0  0  0  0  0  0  0  0  0
   20.6218  -10.1698  -15.3086 C   0  0  0  0  0  0  0  0  0  0  0  0
   20.3719   -9.0082  -14.6040 C   0  0  0  0  0  0  0  0  0  0  0  0
   21.5230   -8.6857  -14.0024 N   0  0  0  0  0  0  0  0  0  0  0  0
   22.4657   -9.5886  -14.3010 C   0  0  0  0  0  0  0  0  0  0  0  0
   21.9282  -10.5168  -15.1093 N   0  0  0  0  0  0  0  0  0  0  0  0
   18.2777   -9.1099  -16.8460 C   0  0  0  0  0  0  0  0  0  0  0  0
   18.2339   -8.9032  -18.0855 O   0  0  0  0  0  0  0  0  0  0  0  0
   16.0074   -6.0717  -19.4621 N   0  0  0  0  0  0  0  0  0  0  0  0
   15.7994   -4.9964  -18.5463 C   0  0  0  0  0  0  0  0  0  0  0  0
   15.2851   -3.8914  -18.9032 O   0  0  0  0  0  0  0  0  0  0  0  0
   16.1681   -5.1129  -17.1197 C   0  0  0  0  0  0  0  0  0  0  0  0
   16.6680   -6.4459  -16.7039 C   0  0  0  0  0  0  0  0  0  0  0  0
   18.1160   -6.6098  -16.4501 C   0  0  2  0  0  0  0  0  0  0  0  0
   18.2710   -8.0131  -15.9781 N   0  0  0  0  0  0  0  0  0  0  0  0
   18.7732   -5.7142  -15.5257 C   0  0  0  0  0  0  0  0  0  0  0  0
   19.3417   -4.4867  -15.8300 O   0  0  0  0  0  0  0  0  0  0  0  0
   18.8690   -6.0484  -14.2954 O   0  0  0  0  0  0  0  0  0  0  0  0
  2  1  1  0
  2  3  1  0
  3  4  1  1
  5  3  1  0
  5  6  2  0
  7  5  1  0
  8  7  1  0
  8  9  1  6
 10  9  1  0
 10 11  2  0
 12 11  1  0
 13 12  1  0
 14 13  2  0
 14 10  1  0
 15  8  1  0
 16 15  2  0
 17 18  1  0
 18 19  2  0
 18 20  1  0
 20 21  1  0
 22 21  1  1
 22 24  1  0
 22 23  1  0
 23 15  1  0
 24 25  1  0
 26 24  2  0
M  END
$$$$
