SHQ.pdb
     RDKit          3D

 26 26  0  0  1  0  0  0  0  0999 V2000
   24.0617  -21.5930   -7.4067 O   0  0  0  0  0  0  0  0  0  0  0  0
   24.0735  -21.1592   -8.7280 C   0  0  0  0  0  0  0  0  0  0  0  0
   25.4582  -20.6520   -9.0876 C   0  0  2  0  0  0  0  0  0  0  0  0
   25.8696  -19.5594   -8.2669 N   0  0  0  0  0  0  0  0  0  0  0  0
   25.4395  -20.2667  -10.5206 C   0  0  0  0  0  0  0  0  0  0  0  0
   24.6088  -19.4349  -10.9021 O   0  0  0  0  0  0  0  0  0  0  0  0
   26.3432  -20.8199  -11.4701 N   0  0  0  0  0  0  0  0  0  0  0  0
   26.3133  -20.4882  -12.8725 C   0  0  1  0  0  0  0  0  0  0  0  0
   27.6120  -20.7718  -13.5699 C   0  0  0  0  0  0  0  0  0  0  0  0
   27.6143  -20.4176  -15.0061 C   0  0  0  0  0  0  0  0  0  0  0  0
   26.6108  -19.9284  -15.8197 C   0  0  0  0  0  0  0  0  0  0  0  0
   27.1517  -19.7987  -17.0369 N   0  0  0  0  0  0  0  0  0  0  0  0
   28.4343  -20.1825  -17.0125 C   0  0  0  0  0  0  0  0  0  0  0  0
   28.7413  -20.5698  -15.7637 N   0  0  0  0  0  0  0  0  0  0  0  0
   25.1576  -21.0945  -13.5725 C   0  0  0  0  0  0  0  0  0  0  0  0
   24.8980  -22.3227  -13.5002 O   0  0  0  0  0  0  0  0  0  0  0  0
   19.9056  -19.7815  -12.1669 N   0  0  0  0  0  0  0  0  0  0  0  0
   19.6406  -20.7343  -13.1966 C   0  0  0  0  0  0  0  0  0  0  0  0
   18.4885  -21.2384  -13.3742 O   0  0  0  0  0  0  0  0  0  0  0  0
   20.6992  -21.1855  -14.1243 C   0  0  0  0  0  0  0  0  0  0  0  0
   22.0169  -20.5286  -13.9456 C   0  0  0  0  0  0  0  0  0  0  0  0
   23.0644  -20.7572  -14.9647 C   0  0  2  0  0  0  0  0  0  0  0  0
   24.3259  -20.2728  -14.3403 N   0  0  0  0  0  0  0  0  0  0  0  0
   22.9138  -20.1621  -16.2730 C   0  0  0  0  0  0  0  0  0  0  0  0
   22.2638  -20.7205  -17.3630 O   0  0  0  0  0  0  0  0  0  0  0  0
   23.4196  -19.0092  -16.4953 O   0  0  0  0  0  0  0  0  0  0  0  0
  2  1  1  0
  2  3  1  0
  3  4  1  1
  5  3  1  0
  5  6  2  0
  7  5  1  0
  8  7  1  0
  8  9  1  6
 10  9  1  0
 10 11  2  0
 12 11  1  0
 13 12  1  0
 14 13  2  0
 14 10  1  0
 15  8  1  0
 16 15  2  0
 17 18  1  0
 18 19  2  0
 18 20  1  0
 20 21  1  0
 22 21  1  1
 22 24  1  0
 22 23  1  0
 23 15  1  0
 24 25  1  0
 26 24  2  0
M  END
$$$$
