SHQ.pdb
     RDKit          3D

 26 26  0  0  1  0  0  0  0  0999 V2000
   15.7475  -13.9995  -13.8892 O   0  0  0  0  0  0  0  0  0  0  0  0
   15.5232  -13.5142  -15.1730 C   0  0  0  0  0  0  0  0  0  0  0  0
   16.8297  -13.4863  -15.9451 C   0  0  2  0  0  0  0  0  0  0  0  0
   17.9098  -14.0623  -15.2114 N   0  0  0  0  0  0  0  0  0  0  0  0
   17.1161  -12.0733  -16.2967 C   0  0  0  0  0  0  0  0  0  0  0  0
   17.2701  -11.7758  -17.4863 O   0  0  0  0  0  0  0  0  0  0  0  0
   17.2193  -11.0495  -15.3141 N   0  0  0  0  0  0  0  0  0  0  0  0
   17.4912   -9.6715  -15.6375 C   0  0  1  0  0  0  0  0  0  0  0  0
   16.3020   -8.7771  -15.4393 C   0  0  0  0  0  0  0  0  0  0  0  0
   15.1950   -9.0278  -16.3880 C   0  0  0  0  0  0  0  0  0  0  0  0
   15.2065   -9.4724  -17.6958 C   0  0  0  0  0  0  0  0  0  0  0  0
   13.9269   -9.5070  -18.0860 N   0  0  0  0  0  0  0  0  0  0  0  0
   13.1311   -9.1070  -17.0861 C   0  0  0  0  0  0  0  0  0  0  0  0
   13.8967   -8.8054  -16.0247 N   0  0  0  0  0  0  0  0  0  0  0  0
   18.6991   -9.1574  -14.9520 C   0  0  0  0  0  0  0  0  0  0  0  0
   18.8487   -9.2367  -13.7060 O   0  0  0  0  0  0  0  0  0  0  0  0
   20.9223  -10.6439  -17.3634 N   0  0  0  0  0  0  0  0  0  0  0  0
   22.0690  -10.8100  -16.5293 C   0  0  0  0  0  0  0  0  0  0  0  0
   22.5947  -11.9465  -16.3173 O   0  0  0  0  0  0  0  0  0  0  0  0
   22.7167   -9.6587  -15.8661 C   0  0  0  0  0  0  0  0  0  0  0  0
   22.0317   -8.3563  -16.0518 C   0  0  0  0  0  0  0  0  0  0  0  0
   20.9448   -7.9901  -15.1177 C   0  0  2  0  0  0  0  0  0  0  0  0
   19.7085   -8.5635  -15.7166 N   0  0  0  0  0  0  0  0  0  0  0  0
   20.7276   -6.5961  -14.8041 C   0  0  0  0  0  0  0  0  0  0  0  0
   21.4636   -5.8263  -13.9164 O   0  0  0  0  0  0  0  0  0  0  0  0
   19.7685   -5.9712  -15.3734 O   0  0  0  0  0  0  0  0  0  0  0  0
  2  1  1  0
  2  3  1  0
  3  4  1  1
  5  3  1  0
  5  6  2  0
  7  5  1  0
  8  7  1  0
  8  9  1  1
 10  9  1  0
 10 11  2  0
 12 11  1  0
 13 12  1  0
 14 13  2  0
 14 10  1  0
 15  8  1  0
 16 15  2  0
 17 18  1  0
 18 19  2  0
 18 20  1  0
 20 21  1  0
 22 21  1  6
 22 24  1  0
 22 23  1  0
 23 15  1  0
 24 25  1  0
 26 24  2  0
M  END
$$$$
