SHQ.pdb
     RDKit          3D

 26 26  0  0  1  0  0  0  0  0999 V2000
   23.0959  -12.1578  -19.7217 O   0  0  0  0  0  0  0  0  0  0  0  0
   22.0956  -11.2841  -19.3091 C   0  0  0  0  0  0  0  0  0  0  0  0
   22.6932   -9.9170  -19.0302 C   0  0  2  0  0  0  0  0  0  0  0  0
   24.0076   -9.9976  -18.4800 N   0  0  0  0  0  0  0  0  0  0  0  0
   21.7728   -9.2007  -18.1126 C   0  0  0  0  0  0  0  0  0  0  0  0
   20.7102   -8.7579  -18.5623 O   0  0  0  0  0  0  0  0  0  0  0  0
   22.0695   -9.0058  -16.7349 N   0  0  0  0  0  0  0  0  0  0  0  0
   21.2184   -8.2584  -15.8436 C   0  0  1  0  0  0  0  0  0  0  0  0
   20.6472   -9.0972  -14.7375 C   0  0  0  0  0  0  0  0  0  0  0  0
   19.4890   -9.9228  -15.1442 C   0  0  0  0  0  0  0  0  0  0  0  0
   18.8159  -10.0082  -16.3475 C   0  0  0  0  0  0  0  0  0  0  0  0
   17.8373  -10.9018  -16.1613 N   0  0  0  0  0  0  0  0  0  0  0  0
   17.8751  -11.3692  -14.9070 C   0  0  0  0  0  0  0  0  0  0  0  0
   18.8911  -10.7755  -14.2597 N   0  0  0  0  0  0  0  0  0  0  0  0
   21.8715   -7.0304  -15.3351 C   0  0  0  0  0  0  0  0  0  0  0  0
   23.0379   -7.0357  -14.8655 O   0  0  0  0  0  0  0  0  0  0  0  0
   19.4508   -1.4297  -16.8124 N   0  0  0  0  0  0  0  0  0  0  0  0
   20.3739   -1.0624  -15.7872 C   0  0  0  0  0  0  0  0  0  0  0  0
   20.5621    0.1461  -15.4451 O   0  0  0  0  0  0  0  0  0  0  0  0
   21.1632   -2.0766  -15.0570 C   0  0  0  0  0  0  0  0  0  0  0  0
   20.9167   -3.4813  -15.4644 C   0  0  0  0  0  0  0  0  0  0  0  0
   21.7030   -4.5534  -14.8159 C   0  0  2  0  0  0  0  0  0  0  0  0
   21.1670   -5.8228  -15.3790 N   0  0  0  0  0  0  0  0  0  0  0  0
   21.7230   -4.6357  -13.3732 C   0  0  0  0  0  0  0  0  0  0  0  0
   20.9102   -5.4325  -12.5814 O   0  0  0  0  0  0  0  0  0  0  0  0
   22.5522   -3.9153  -12.7192 O   0  0  0  0  0  0  0  0  0  0  0  0
  2  1  1  0
  2  3  1  0
  3  4  1  1
  5  3  1  0
  5  6  2  0
  7  5  1  0
  8  7  1  0
  8  9  1  1
 10  9  1  0
 10 11  2  0
 12 11  1  0
 13 12  1  0
 14 13  2  0
 14 10  1  0
 15  8  1  0
 16 15  2  0
 17 18  1  0
 18 19  2  0
 18 20  1  0
 20 21  1  0
 22 21  1  1
 22 24  1  0
 22 23  1  0
 23 15  1  0
 24 25  1  0
 26 24  2  0
M  END
$$$$
