LPW.pdb
     RDKit          3D

 30 32  0  0  1  0  0  0  0  0999 V2000
    7.7646  -12.2910   27.3482 C   0  0  0  0  0  0  0  0  0  0  0  0
    6.8801  -13.2042   26.5353 C   0  0  1  0  0  0  0  0  0  0  0  0
    6.3564  -12.3681   25.3596 C   0  0  0  0  0  0  0  0  0  0  0  0
    7.5636  -14.4278   26.0597 C   0  0  0  0  0  0  0  0  0  0  0  0
    6.6596  -15.3212   25.2162 C   0  0  2  0  0  0  0  0  0  0  0  0
    6.2484  -16.3734   26.1926 N   0  0  0  0  0  0  0  0  0  0  0  0
    7.4471  -16.0613   24.1967 C   0  0  0  0  0  0  0  0  0  0  0  0
    7.8916  -17.2142   24.5689 O   0  0  0  0  0  0  0  0  0  0  0  0
    7.7256  -15.5959   22.8910 N   0  0  0  0  0  0  0  0  0  0  0  0
    7.1671  -14.4556   22.2224 C   0  0  0  0  0  0  0  0  0  0  0  0
    7.0886  -14.8714   20.7653 C   0  0  0  0  0  0  0  0  0  0  0  0
    8.3179  -15.7227   20.6045 C   0  0  0  0  0  0  0  0  0  0  0  0
    8.6507  -16.2472   21.9594 C   0  0  1  0  0  0  0  0  0  0  0  0
   10.0582  -15.9760   22.3412 C   0  0  0  0  0  0  0  0  0  0  0  0
   10.6065  -14.9013   21.9840 O   0  0  0  0  0  0  0  0  0  0  0  0
   10.7558  -16.9377   23.1027 N   0  0  0  0  0  0  0  0  0  0  0  0
   12.0193  -16.6323   23.7780 C   0  0  1  0  0  0  0  0  0  0  0  0
   11.8401  -15.5926   24.8101 C   0  0  0  0  0  0  0  0  0  0  0  0
   11.0243  -16.0480   25.9503 C   0  0  0  0  0  0  0  0  0  0  0  0
   10.5496  -17.3638   26.1484 C   0  0  0  0  0  0  0  0  0  0  0  0
    9.8047  -17.4020   27.2628 N   0  0  0  0  0  0  0  0  0  0  0  0
    9.7429  -16.1980   27.8358 C   0  0  0  0  0  0  0  0  0  0  0  0
    9.1481  -15.6992   28.9753 C   0  0  0  0  0  0  0  0  0  0  0  0
    9.2907  -14.3559   29.3373 C   0  0  0  0  0  0  0  0  0  0  0  0
   10.0352  -13.5418   28.5356 C   0  0  0  0  0  0  0  0  0  0  0  0
   10.6206  -14.0481   27.4053 C   0  0  0  0  0  0  0  0  0  0  0  0
   10.4973  -15.3639   27.0232 C   0  0  0  0  0  0  0  0  0  0  0  0
   12.5697  -17.8698   24.2983 C   0  0  0  0  0  0  0  0  0  0  0  0
   11.8755  -19.0587   24.1451 O   0  0  0  0  0  0  0  0  0  0  0  0
   13.6656  -17.9367   24.8962 O   0  0  0  0  0  0  0  0  0  0  0  0
  2  3  1  6
  2  1  1  0
  4  2  1  0
  5  4  1  0
  5  6  1  1
  7  5  1  0
  8  7  2  0
  9  7  1  0
  9 13  1  0
 10  9  1  0
 11 10  1  0
 11 12  1  0
 12 13  1  0
 13 14  1  1
 14 15  2  0
 16 14  1  0
 17 16  1  0
 17 28  1  0
 17 18  1  1
 19 18  1  0
 20 19  2  0
 21 22  1  0
 21 20  1  0
 22 27  2  0
 23 22  1  0
 23 24  2  0
 24 25  1  0
 25 26  2  0
 27 19  1  0
 27 26  1  0
 28 30  2  0
 28 29  1  0
M  END
$$$$
