LPW.pdb
     RDKit          3D

 30 32  0  0  1  0  0  0  0  0999 V2000
    6.9760  -12.3590   20.7970 C   0  0  0  0  0  0  0  0  0  0  0  0
    7.7427  -13.6441   20.6026 C   0  0  1  0  0  0  0  0  0  0  0  0
    8.7837  -13.7034   21.7286 C   0  0  0  0  0  0  0  0  0  0  0  0
    6.8886  -14.8528   20.5987 C   0  0  0  0  0  0  0  0  0  0  0  0
    7.6775  -16.1346   20.3502 C   0  0  2  0  0  0  0  0  0  0  0  0
    6.5958  -17.1317   20.0951 N   0  0  0  0  0  0  0  0  0  0  0  0
    8.3221  -16.6117   21.6008 C   0  0  0  0  0  0  0  0  0  0  0  0
    7.5129  -16.9582   22.5444 O   0  0  0  0  0  0  0  0  0  0  0  0
    9.7172  -16.7075   21.8097 N   0  0  0  0  0  0  0  0  0  0  0  0
   10.7716  -16.2342   20.9592 C   0  0  0  0  0  0  0  0  0  0  0  0
   11.8849  -17.2501   21.1348 C   0  0  0  0  0  0  0  0  0  0  0  0
   11.7540  -17.6272   22.5847 C   0  0  0  0  0  0  0  0  0  0  0  0
   10.3386  -17.3578   22.9667 C   0  0  1  0  0  0  0  0  0  0  0  0
   10.2313  -16.4997   24.1719 C   0  0  0  0  0  0  0  0  0  0  0  0
    9.8141  -15.3178   24.0622 O   0  0  0  0  0  0  0  0  0  0  0  0
   10.6028  -17.0333   25.4244 N   0  0  0  0  0  0  0  0  0  0  0  0
   10.1841  -16.4228   26.6884 C   0  0  1  0  0  0  0  0  0  0  0  0
    8.7865  -16.7667   27.0152 C   0  0  0  0  0  0  0  0  0  0  0  0
    7.8149  -15.7940   26.4835 C   0  0  0  0  0  0  0  0  0  0  0  0
    6.7058  -16.1030   25.6649 C   0  0  0  0  0  0  0  0  0  0  0  0
    6.0712  -14.9690   25.3337 N   0  0  0  0  0  0  0  0  0  0  0  0
    6.6762  -13.9093   25.8746 C   0  0  0  0  0  0  0  0  0  0  0  0
    6.4340  -12.5519   25.8714 C   0  0  0  0  0  0  0  0  0  0  0  0
    7.2567  -11.6684   26.5773 C   0  0  0  0  0  0  0  0  0  0  0  0
    8.3118  -12.1787   27.2747 C   0  0  0  0  0  0  0  0  0  0  0  0
    8.5432  -13.5289   27.2699 C   0  0  0  0  0  0  0  0  0  0  0  0
    7.7525  -14.4218   26.5845 C   0  0  0  0  0  0  0  0  0  0  0  0
   11.1280  -16.8134   27.7188 C   0  0  0  0  0  0  0  0  0  0  0  0
   11.3319  -15.9987   28.8205 O   0  0  0  0  0  0  0  0  0  0  0  0
   11.7922  -17.8717   27.6769 O   0  0  0  0  0  0  0  0  0  0  0  0
  2  3  1  1
  2  1  1  0
  4  2  1  0
  5  4  1  0
  5  6  1  1
  7  5  1  0
  8  7  2  0
  9  7  1  0
  9 13  1  0
 10  9  1  0
 11 10  1  0
 11 12  1  0
 12 13  1  0
 13 14  1  1
 14 15  2  0
 16 14  1  0
 17 16  1  0
 17 28  1  0
 17 18  1  1
 19 18  1  0
 20 19  2  0
 21 22  1  0
 21 20  1  0
 22 27  2  0
 23 22  1  0
 23 24  2  0
 24 25  1  0
 25 26  2  0
 27 19  1  0
 27 26  1  0
 28 30  2  0
 28 29  1  0
M  END
$$$$
