LPW.pdb
     RDKit          3D

 30 32  0  0  1  0  0  0  0  0999 V2000
    2.7727  -19.3220   21.9535 C   0  0  0  0  0  0  0  0  0  0  0  0
    3.7398  -18.9119   20.8702 C   0  0  1  0  0  0  0  0  0  0  0  0
    2.9605  -17.9969   19.9159 C   0  0  0  0  0  0  0  0  0  0  0  0
    4.9568  -18.2416   21.3803 C   0  0  0  0  0  0  0  0  0  0  0  0
    5.9128  -17.8230   20.2678 C   0  0  2  0  0  0  0  0  0  0  0  0
    6.4899  -19.1299   19.8332 N   0  0  0  0  0  0  0  0  0  0  0  0
    7.0750  -17.0794   20.8187 C   0  0  0  0  0  0  0  0  0  0  0  0
    8.0041  -17.8087   21.3384 O   0  0  0  0  0  0  0  0  0  0  0  0
    7.2191  -15.6729   20.8054 N   0  0  0  0  0  0  0  0  0  0  0  0
    6.2872  -14.6946   20.3222 C   0  0  0  0  0  0  0  0  0  0  0  0
    7.1581  -13.5896   19.7542 C   0  0  0  0  0  0  0  0  0  0  0  0
    8.3346  -13.5903   20.6909 C   0  0  0  0  0  0  0  0  0  0  0  0
    8.4071  -14.9577   21.2797 C   0  0  1  0  0  0  0  0  0  0  0  0
    8.4489  -14.9339   22.7622 C   0  0  0  0  0  0  0  0  0  0  0  0
    8.0378  -13.9195   23.3827 O   0  0  0  0  0  0  0  0  0  0  0  0
    8.9531  -16.0592   23.4485 N   0  0  0  0  0  0  0  0  0  0  0  0
   10.1068  -15.9735   24.3470 C   0  0  1  0  0  0  0  0  0  0  0  0
    9.9969  -14.8151   25.2549 C   0  0  0  0  0  0  0  0  0  0  0  0
    8.6089  -14.5344   25.6644 C   0  0  0  0  0  0  0  0  0  0  0  0
    7.5280  -15.4404   25.5823 C   0  0  0  0  0  0  0  0  0  0  0  0
    6.4079  -14.8311   25.9977 N   0  0  0  0  0  0  0  0  0  0  0  0
    6.6572  -13.5702   26.3577 C   0  0  0  0  0  0  0  0  0  0  0  0
    5.8924  -12.5400   26.8628 C   0  0  0  0  0  0  0  0  0  0  0  0
    6.4628  -11.3026   27.1779 C   0  0  0  0  0  0  0  0  0  0  0  0
    7.8005  -11.1324   26.9745 C   0  0  0  0  0  0  0  0  0  0  0  0
    8.5502  -12.1627   26.4713 C   0  0  0  0  0  0  0  0  0  0  0  0
    8.0173  -13.3899   26.1512 C   0  0  0  0  0  0  0  0  0  0  0  0
   10.2378  -17.2394   25.0439 C   0  0  0  0  0  0  0  0  0  0  0  0
    9.3409  -18.2657   24.7968 O   0  0  0  0  0  0  0  0  0  0  0  0
   11.1364  -17.4732   25.8811 O   0  0  0  0  0  0  0  0  0  0  0  0
  2  3  1  6
  2  1  1  0
  4  2  1  0
  5  4  1  0
  5  6  1  1
  7  5  1  0
  8  7  2  0
  9  7  1  0
  9 13  1  0
 10  9  1  0
 11 10  1  0
 11 12  1  0
 12 13  1  0
 13 14  1  1
 14 15  2  0
 16 14  1  0
 17 16  1  0
 17 28  1  0
 17 18  1  1
 19 18  1  0
 20 19  2  0
 21 22  1  0
 21 20  1  0
 22 27  2  0
 23 22  1  0
 23 24  2  0
 24 25  1  0
 25 26  2  0
 27 19  1  0
 27 26  1  0
 28 30  2  0
 28 29  1  0
M  END
$$$$
