LPW.pdb
     RDKit          3D

 30 32  0  0  1  0  0  0  0  0999 V2000
    3.6476  -16.7288   20.9343 C   0  0  0  0  0  0  0  0  0  0  0  0
    4.8152  -17.5296   21.4562 C   0  0  1  0  0  0  0  0  0  0  0  0
    4.2594  -18.4383   22.5610 C   0  0  0  0  0  0  0  0  0  0  0  0
    5.5108  -18.3176   20.4142 C   0  0  0  0  0  0  0  0  0  0  0  0
    6.3739  -17.4561   19.4978 C   0  0  2  0  0  0  0  0  0  0  0  0
    7.1326  -18.4789   18.7182 N   0  0  0  0  0  0  0  0  0  0  0  0
    7.4210  -16.7415   20.2725 C   0  0  0  0  0  0  0  0  0  0  0  0
    8.3391  -17.4896   20.7851 O   0  0  0  0  0  0  0  0  0  0  0  0
    7.4708  -15.3426   20.4718 N   0  0  0  0  0  0  0  0  0  0  0  0
    6.5124  -14.3575   20.0590 C   0  0  0  0  0  0  0  0  0  0  0  0
    7.3458  -13.1338   19.7271 C   0  0  0  0  0  0  0  0  0  0  0  0
    8.4490  -13.2066   20.7466 C   0  0  0  0  0  0  0  0  0  0  0  0
    8.5706  -14.6397   21.1382 C   0  0  1  0  0  0  0  0  0  0  0  0
    8.5035  -14.8325   22.6074 C   0  0  0  0  0  0  0  0  0  0  0  0
    7.6922  -14.1550   23.2901 O   0  0  0  0  0  0  0  0  0  0  0  0
    9.3583  -15.7793   23.2109 N   0  0  0  0  0  0  0  0  0  0  0  0
   10.0274  -15.5245   24.4888 C   0  0  1  0  0  0  0  0  0  0  0  0
    9.2380  -16.0441   25.6224 C   0  0  0  0  0  0  0  0  0  0  0  0
    7.9409  -15.3619   25.7813 C   0  0  0  0  0  0  0  0  0  0  0  0
    6.6718  -15.9570   25.6053 C   0  0  0  0  0  0  0  0  0  0  0  0
    5.7199  -15.0296   25.7848 N   0  0  0  0  0  0  0  0  0  0  0  0
    6.2593  -13.8430   26.0724 C   0  0  0  0  0  0  0  0  0  0  0  0
    5.7507  -12.5944   26.3612 C   0  0  0  0  0  0  0  0  0  0  0  0
    6.5952  -11.5198   26.6575 C   0  0  0  0  0  0  0  0  0  0  0  0
    7.9424  -11.7316   26.6554 C   0  0  0  0  0  0  0  0  0  0  0  0
    8.4365  -12.9761   26.3661 C   0  0  0  0  0  0  0  0  0  0  0  0
    7.6311  -14.0513   26.0700 C   0  0  0  0  0  0  0  0  0  0  0  0
   11.3674  -16.0767   24.4207 C   0  0  0  0  0  0  0  0  0  0  0  0
   12.2532  -15.8844   25.4682 O   0  0  0  0  0  0  0  0  0  0  0  0
   11.7902  -16.7363   23.4465 O   0  0  0  0  0  0  0  0  0  0  0  0
  2  3  1  1
  2  1  1  0
  4  2  1  0
  5  4  1  0
  5  6  1  6
  7  5  1  0
  8  7  2  0
  9  7  1  0
  9 13  1  0
 10  9  1  0
 11 10  1  0
 11 12  1  0
 12 13  1  0
 13 14  1  1
 14 15  2  0
 16 14  1  0
 17 16  1  0
 17 28  1  0
 17 18  1  1
 19 18  1  0
 20 19  2  0
 21 22  1  0
 21 20  1  0
 22 27  2  0
 23 22  1  0
 23 24  2  0
 24 25  1  0
 25 26  2  0
 27 19  1  0
 27 26  1  0
 28 30  2  0
 28 29  1  0
M  END
$$$$
