LPW.pdb
     RDKit          3D

 30 32  0  0  1  0  0  0  0  0999 V2000
    5.7585  -13.3079   25.3267 C   0  0  0  0  0  0  0  0  0  0  0  0
    6.8764  -14.2969   25.5483 C   0  0  1  0  0  0  0  0  0  0  0  0
    7.5856  -13.8685   26.8401 C   0  0  0  0  0  0  0  0  0  0  0  0
    6.4212  -15.7029   25.6283 C   0  0  0  0  0  0  0  0  0  0  0  0
    6.1521  -16.3171   24.2582 C   0  0  2  0  0  0  0  0  0  0  0  0
    5.9074  -17.7516   24.5931 N   0  0  0  0  0  0  0  0  0  0  0  0
    7.3893  -16.3432   23.4361 C   0  0  0  0  0  0  0  0  0  0  0  0
    8.1326  -17.3874   23.5858 O   0  0  0  0  0  0  0  0  0  0  0  0
    7.7844  -15.3309   22.5315 N   0  0  0  0  0  0  0  0  0  0  0  0
    7.1949  -14.0363   22.3431 C   0  0  0  0  0  0  0  0  0  0  0  0
    7.3575  -13.7580   20.8604 C   0  0  0  0  0  0  0  0  0  0  0  0
    8.6850  -14.3950   20.5547 C   0  0  0  0  0  0  0  0  0  0  0  0
    8.8920  -15.4568   21.5802 C   0  0  1  0  0  0  0  0  0  0  0  0
   10.1970  -15.3272   22.2734 C   0  0  0  0  0  0  0  0  0  0  0  0
   10.7855  -14.2152   22.2947 O   0  0  0  0  0  0  0  0  0  0  0  0
   10.7533  -16.4636   22.8982 N   0  0  0  0  0  0  0  0  0  0  0  0
   11.1409  -16.4668   24.3108 C   0  0  1  0  0  0  0  0  0  0  0  0
   10.0158  -16.0670   25.1784 C   0  0  0  0  0  0  0  0  0  0  0  0
   10.3430  -16.1365   26.6140 C   0  0  0  0  0  0  0  0  0  0  0  0
   10.3514  -17.3106   27.3997 C   0  0  0  0  0  0  0  0  0  0  0  0
   10.6482  -16.9917   28.6680 N   0  0  0  0  0  0  0  0  0  0  0  0
   10.8432  -15.6774   28.7954 C   0  0  0  0  0  0  0  0  0  0  0  0
   11.1829  -14.8477   29.8430 C   0  0  0  0  0  0  0  0  0  0  0  0
   11.3459  -13.4718   29.6528 C   0  0  0  0  0  0  0  0  0  0  0  0
   11.1610  -12.9618   28.4017 C   0  0  0  0  0  0  0  0  0  0  0  0
   10.8227  -13.7955   27.3687 C   0  0  0  0  0  0  0  0  0  0  0  0
   10.6544  -15.1519   27.5253 C   0  0  0  0  0  0  0  0  0  0  0  0
   11.6788  -17.7751   24.6338 C   0  0  0  0  0  0  0  0  0  0  0  0
   11.3712  -18.8687   23.8412 O   0  0  0  0  0  0  0  0  0  0  0  0
   12.4262  -17.9882   25.6129 O   0  0  0  0  0  0  0  0  0  0  0  0
  2  3  1  1
  2  1  1  0
  4  2  1  0
  5  4  1  0
  5  6  1  1
  7  5  1  0
  8  7  2  0
  9  7  1  0
  9 13  1  0
 10  9  1  0
 11 10  1  0
 11 12  1  0
 12 13  1  0
 13 14  1  1
 14 15  2  0
 16 14  1  0
 17 16  1  0
 17 28  1  0
 17 18  1  1
 19 18  1  0
 20 19  2  0
 21 22  1  0
 21 20  1  0
 22 27  2  0
 23 22  1  0
 23 24  2  0
 24 25  1  0
 25 26  2  0
 27 19  1  0
 27 26  1  0
 28 30  2  0
 28 29  1  0
M  END
$$$$
