LPW.pdb
     RDKit          3D

 30 32  0  0  1  0  0  0  0  0999 V2000
    8.3218  -13.3691   19.5350 C   0  0  0  0  0  0  0  0  0  0  0  0
    7.8396  -13.7384   20.9163 C   0  0  1  0  0  0  0  0  0  0  0  0
    7.4293  -12.4263   21.5983 C   0  0  0  0  0  0  0  0  0  0  0  0
    6.7264  -14.7137   20.9180 C   0  0  0  0  0  0  0  0  0  0  0  0
    7.1737  -16.1237   20.5454 C   0  0  2  0  0  0  0  0  0  0  0  0
    5.8959  -16.8933   20.6132 N   0  0  0  0  0  0  0  0  0  0  0  0
    8.0107  -16.7163   21.6204 C   0  0  0  0  0  0  0  0  0  0  0  0
    7.3911  -16.9881   22.7192 O   0  0  0  0  0  0  0  0  0  0  0  0
    9.3933  -16.9921   21.5139 N   0  0  0  0  0  0  0  0  0  0  0  0
   10.2626  -16.7303   20.4026 C   0  0  0  0  0  0  0  0  0  0  0  0
   11.2553  -17.8776   20.4195 C   0  0  0  0  0  0  0  0  0  0  0  0
   11.4307  -18.1329   21.8911 C   0  0  0  0  0  0  0  0  0  0  0  0
   10.1907  -17.6426   22.5573 C   0  0  1  0  0  0  0  0  0  0  0  0
   10.4787  -16.6977   23.6640 C   0  0  0  0  0  0  0  0  0  0  0  0
   11.0188  -15.5891   23.4144 O   0  0  0  0  0  0  0  0  0  0  0  0
   10.1374  -17.0672   24.9825 N   0  0  0  0  0  0  0  0  0  0  0  0
   10.6255  -16.3307   26.1509 C   0  0  1  0  0  0  0  0  0  0  0  0
   10.1725  -14.9263   26.1294 C   0  0  0  0  0  0  0  0  0  0  0  0
    8.7083  -14.7920   26.2337 C   0  0  0  0  0  0  0  0  0  0  0  0
    7.7788  -15.8543   26.1746 C   0  0  0  0  0  0  0  0  0  0  0  0
    6.5353  -15.3589   26.2569 N   0  0  0  0  0  0  0  0  0  0  0  0
    6.5591  -14.0290   26.3692 C   0  0  0  0  0  0  0  0  0  0  0  0
    5.5946  -13.0530   26.5044 C   0  0  0  0  0  0  0  0  0  0  0  0
    5.9426  -11.7045   26.6313 C   0  0  0  0  0  0  0  0  0  0  0  0
    7.2646  -11.3699   26.6187 C   0  0  0  0  0  0  0  0  0  0  0  0
    8.2141  -12.3480   26.4827 C   0  0  0  0  0  0  0  0  0  0  0  0
    7.9023  -13.6818   26.3549 C   0  0  0  0  0  0  0  0  0  0  0  0
   10.2188  -17.0475   27.3450 C   0  0  0  0  0  0  0  0  0  0  0  0
    9.5448  -18.2529   27.2372 O   0  0  0  0  0  0  0  0  0  0  0  0
   10.4434  -16.6356   28.5038 O   0  0  0  0  0  0  0  0  0  0  0  0
  2  3  1  6
  2  1  1  0
  4  2  1  0
  5  4  1  0
  5  6  1  1
  7  5  1  0
  8  7  2  0
  9  7  1  0
  9 13  1  0
 10  9  1  0
 11 10  1  0
 11 12  1  0
 12 13  1  0
 13 14  1  1
 14 15  2  0
 16 14  1  0
 17 16  1  0
 17 28  1  0
 17 18  1  1
 19 18  1  0
 20 19  2  0
 21 22  1  0
 21 20  1  0
 22 27  2  0
 23 22  1  0
 23 24  2  0
 24 25  1  0
 25 26  2  0
 27 19  1  0
 27 26  1  0
 28 30  2  0
 28 29  1  0
M  END
$$$$
