LPW.pdb
     RDKit          3D

 30 32  0  0  1  0  0  0  0  0999 V2000
    6.0874  -11.5364   26.3993 C   0  0  0  0  0  0  0  0  0  0  0  0
    5.6487  -12.9093   25.9527 C   0  0  1  0  0  0  0  0  0  0  0  0
    4.5946  -12.6939   24.8583 C   0  0  0  0  0  0  0  0  0  0  0  0
    6.7578  -13.7610   25.4677 C   0  0  0  0  0  0  0  0  0  0  0  0
    6.2734  -15.0678   24.8477 C   0  0  2  0  0  0  0  0  0  0  0  0
    6.0863  -15.9401   26.0450 N   0  0  0  0  0  0  0  0  0  0  0  0
    7.3633  -15.7291   24.0847 C   0  0  0  0  0  0  0  0  0  0  0  0
    7.9019  -16.7509   24.6602 O   0  0  0  0  0  0  0  0  0  0  0  0
    7.8261  -15.3222   22.8122 N   0  0  0  0  0  0  0  0  0  0  0  0
    7.4724  -14.1391   22.0812 C   0  0  0  0  0  0  0  0  0  0  0  0
    7.4983  -14.5705   20.6267 C   0  0  0  0  0  0  0  0  0  0  0  0
    8.6331  -15.5570   20.6013 C   0  0  0  0  0  0  0  0  0  0  0  0
    8.7626  -16.0902   21.9871 C   0  0  1  0  0  0  0  0  0  0  0  0
   10.1448  -15.9713   22.5123 C   0  0  0  0  0  0  0  0  0  0  0  0
   10.8502  -14.9787   22.1958 O   0  0  0  0  0  0  0  0  0  0  0  0
   10.6409  -16.9828   23.3621 N   0  0  0  0  0  0  0  0  0  0  0  0
   12.0224  -16.9853   23.8491 C   0  0  1  0  0  0  0  0  0  0  0  0
   12.2293  -15.9558   24.8862 C   0  0  0  0  0  0  0  0  0  0  0  0
   11.5511  -16.2734   26.1559 C   0  0  0  0  0  0  0  0  0  0  0  0
   11.0206  -17.5333   26.5122 C   0  0  0  0  0  0  0  0  0  0  0  0
   10.4371  -17.4429   27.7162 N   0  0  0  0  0  0  0  0  0  0  0  0
   10.5373  -16.2037   28.2021 C   0  0  0  0  0  0  0  0  0  0  0  0
   10.1421  -15.5890   29.3713 C   0  0  0  0  0  0  0  0  0  0  0  0
   10.4244  -14.2405   29.6111 C   0  0  0  0  0  0  0  0  0  0  0  0
   11.1035  -13.5389   28.6591 C   0  0  0  0  0  0  0  0  0  0  0  0
   11.4903  -14.1598   27.5008 C   0  0  0  0  0  0  0  0  0  0  0  0
   11.2261  -15.4838   27.2365 C   0  0  0  0  0  0  0  0  0  0  0  0
   12.3457  -18.3266   24.2983 C   0  0  0  0  0  0  0  0  0  0  0  0
   11.4166  -19.3460   24.1703 O   0  0  0  0  0  0  0  0  0  0  0  0
   13.4439  -18.6337   24.8109 O   0  0  0  0  0  0  0  0  0  0  0  0
  2  3  1  6
  2  1  1  0
  4  2  1  0
  5  4  1  0
  5  6  1  1
  7  5  1  0
  8  7  2  0
  9  7  1  0
  9 13  1  0
 10  9  1  0
 11 10  1  0
 11 12  1  0
 12 13  1  0
 13 14  1  1
 14 15  2  0
 16 14  1  0
 17 16  1  0
 17 28  1  0
 17 18  1  1
 19 18  1  0
 20 19  2  0
 21 22  1  0
 21 20  1  0
 22 27  2  0
 23 22  1  0
 23 24  2  0
 24 25  1  0
 25 26  2  0
 27 19  1  0
 27 26  1  0
 28 30  2  0
 28 29  1  0
M  END
$$$$
