LPW.pdb
     RDKit          3D

 30 32  0  0  1  0  0  0  0  0999 V2000
    7.9082  -12.2658   19.9633 C   0  0  0  0  0  0  0  0  0  0  0  0
    8.2715  -13.7123   19.7344 C   0  0  1  0  0  0  0  0  0  0  0  0
    9.2964  -14.0792   20.8161 C   0  0  0  0  0  0  0  0  0  0  0  0
    7.1107  -14.6301   19.7633 C   0  0  0  0  0  0  0  0  0  0  0  0
    7.5005  -16.0857   19.5264 C   0  0  2  0  0  0  0  0  0  0  0  0
    6.1724  -16.7548   19.3919 N   0  0  0  0  0  0  0  0  0  0  0  0
    8.0851  -16.6849   20.7537 C   0  0  0  0  0  0  0  0  0  0  0  0
    7.3472  -16.6158   21.8101 O   0  0  0  0  0  0  0  0  0  0  0  0
    9.3533  -17.3054   20.8295 N   0  0  0  0  0  0  0  0  0  0  0  0
   10.3322  -17.4430   19.7893 C   0  0  0  0  0  0  0  0  0  0  0  0
   10.9911  -18.7819   20.0637 C   0  0  0  0  0  0  0  0  0  0  0  0
   10.9969  -18.8384   21.5665 C   0  0  0  0  0  0  0  0  0  0  0  0
    9.8847  -17.9601   22.0282 C   0  0  1  0  0  0  0  0  0  0  0  0
   10.3334  -16.9536   23.0211 C   0  0  0  0  0  0  0  0  0  0  0  0
   11.0268  -15.9726   22.6468 O   0  0  0  0  0  0  0  0  0  0  0  0
    9.9692  -17.1209   24.3742 N   0  0  0  0  0  0  0  0  0  0  0  0
   10.4499  -16.2248   25.4287 C   0  0  1  0  0  0  0  0  0  0  0  0
    9.9399  -14.8524   25.2424 C   0  0  0  0  0  0  0  0  0  0  0  0
    8.5272  -14.7048   25.6365 C   0  0  0  0  0  0  0  0  0  0  0  0
    7.5718  -15.7447   25.6773 C   0  0  0  0  0  0  0  0  0  0  0  0
    6.3825  -15.2386   26.0348 N   0  0  0  0  0  0  0  0  0  0  0  0
    6.4674  -13.9225   26.2406 C   0  0  0  0  0  0  0  0  0  0  0  0
    5.5764  -12.9460   26.6325 C   0  0  0  0  0  0  0  0  0  0  0  0
    5.9829  -11.6173   26.7917 C   0  0  0  0  0  0  0  0  0  0  0  0
    7.2877  -11.3030   26.5501 C   0  0  0  0  0  0  0  0  0  0  0  0
    8.1638  -12.2813   26.1602 C   0  0  0  0  0  0  0  0  0  0  0  0
    7.7932  -13.5957   25.9943 C   0  0  0  0  0  0  0  0  0  0  0  0
   10.0960  -16.8000   26.7129 C   0  0  0  0  0  0  0  0  0  0  0  0
   10.5912  -16.2476   27.8827 O   0  0  0  0  0  0  0  0  0  0  0  0
    9.3491  -17.7946   26.8381 O   0  0  0  0  0  0  0  0  0  0  0  0
  2  3  1  1
  2  1  1  0
  4  2  1  0
  5  4  1  0
  5  6  1  1
  7  5  1  0
  8  7  2  0
  9  7  1  0
  9 13  1  0
 10  9  1  0
 11 10  1  0
 11 12  1  0
 12 13  1  0
 13 14  1  1
 14 15  2  0
 16 14  1  0
 17 16  1  0
 17 28  1  0
 17 18  1  6
 19 18  1  0
 20 19  2  0
 21 22  1  0
 21 20  1  0
 22 27  2  0
 23 22  1  0
 23 24  2  0
 24 25  1  0
 25 26  2  0
 27 19  1  0
 27 26  1  0
 28 30  2  0
 28 29  1  0
M  END
$$$$
