LPW.pdb
     RDKit          3D

 30 32  0  0  1  0  0  0  0  0999 V2000
    5.5228  -19.1385   24.0752 C   0  0  0  0  0  0  0  0  0  0  0  0
    6.9225  -19.5425   23.6820 C   0  0  1  0  0  0  0  0  0  0  0  0
    7.3921  -20.5590   24.7315 C   0  0  0  0  0  0  0  0  0  0  0  0
    7.0198  -20.1008   22.3147 C   0  0  0  0  0  0  0  0  0  0  0  0
    6.7811  -19.0554   21.2298 C   0  0  2  0  0  0  0  0  0  0  0  0
    6.9840  -19.8422   19.9771 N   0  0  0  0  0  0  0  0  0  0  0  0
    7.8769  -18.0525   21.2090 C   0  0  0  0  0  0  0  0  0  0  0  0
    9.0645  -18.5321   21.0511 O   0  0  0  0  0  0  0  0  0  0  0  0
    7.7021  -16.6560   21.3443 N   0  0  0  0  0  0  0  0  0  0  0  0
    6.5206  -15.9494   21.7493 C   0  0  0  0  0  0  0  0  0  0  0  0
    6.5585  -14.6593   20.9516 C   0  0  0  0  0  0  0  0  0  0  0  0
    8.0306  -14.3575   20.8930 C   0  0  0  0  0  0  0  0  0  0  0  0
    8.7372  -15.6599   21.0542 C   0  0  1  0  0  0  0  0  0  0  0  0
    9.7498  -15.6240   22.1377 C   0  0  0  0  0  0  0  0  0  0  0  0
   10.8085  -14.9622   21.9817 O   0  0  0  0  0  0  0  0  0  0  0  0
    9.5003  -16.3389   23.3285 N   0  0  0  0  0  0  0  0  0  0  0  0
   10.1746  -16.0170   24.5884 C   0  0  1  0  0  0  0  0  0  0  0  0
    9.8683  -14.6412   25.0264 C   0  0  0  0  0  0  0  0  0  0  0  0
    8.4866  -14.4873   25.5163 C   0  0  0  0  0  0  0  0  0  0  0  0
    7.4951  -15.4937   25.5106 C   0  0  0  0  0  0  0  0  0  0  0  0
    6.3482  -14.9871   25.9864 N   0  0  0  0  0  0  0  0  0  0  0  0
    6.4957  -13.7021   26.3161 C   0  0  0  0  0  0  0  0  0  0  0  0
    5.6667  -12.7411   26.8550 C   0  0  0  0  0  0  0  0  0  0  0  0
    6.1329  -11.4497   27.1206 C   0  0  0  0  0  0  0  0  0  0  0  0
    7.4335  -11.1560   26.8342 C   0  0  0  0  0  0  0  0  0  0  0  0
    8.2477  -12.1185   26.2981 C   0  0  0  0  0  0  0  0  0  0  0  0
    7.8174  -13.3963   26.0251 C   0  0  0  0  0  0  0  0  0  0  0  0
    9.8166  -17.0252   25.5684 C   0  0  0  0  0  0  0  0  0  0  0  0
   10.5867  -17.1924   26.7077 O   0  0  0  0  0  0  0  0  0  0  0  0
    8.8262  -17.7787   25.4489 O   0  0  0  0  0  0  0  0  0  0  0  0
  2  3  1  1
  2  1  1  0
  4  2  1  0
  5  4  1  0
  5  6  1  6
  7  5  1  0
  8  7  2  0
  9  7  1  0
  9 13  1  0
 10  9  1  0
 11 10  1  0
 11 12  1  0
 12 13  1  0
 13 14  1  1
 14 15  2  0
 16 14  1  0
 17 16  1  0
 17 28  1  0
 17 18  1  1
 19 18  1  0
 20 19  2  0
 21 22  1  0
 21 20  1  0
 22 27  2  0
 23 22  1  0
 23 24  2  0
 24 25  1  0
 25 26  2  0
 27 19  1  0
 27 26  1  0
 28 30  2  0
 28 29  1  0
M  END
$$$$
