EHR.pdb
     RDKit          3D

 31 31  0  0  1  0  0  0  0  0999 V2000
   11.8996  -20.9627   16.8343 N   0  0  0  0  0  0  0  0  0  0  0  0
   13.1188  -20.4414   17.4851 C   0  0  1  0  0  0  0  0  0  0  0  0
   13.4451  -19.1483   16.7961 C   0  0  0  0  0  0  0  0  0  0  0  0
   12.1982  -18.3614   16.5101 C   0  0  0  0  0  0  0  0  0  0  0  0
   12.5166  -17.0778   15.8316 C   0  0  0  0  0  0  0  0  0  0  0  0
   13.3205  -16.2385   16.2862 O   0  0  0  0  0  0  0  0  0  0  0  0
   12.7989  -20.1508   18.9168 C   0  0  0  0  0  0  0  0  0  0  0  0
   11.6140  -20.1064   19.3040 O   0  0  0  0  0  0  0  0  0  0  0  0
   11.9066  -16.7429   14.6095 O   0  0  0  0  0  0  0  0  0  0  0  0
   13.8617  -19.9187   19.8678 N   0  0  0  0  0  0  0  0  0  0  0  0
   13.5157  -19.6268   21.2113 C   0  0  1  0  0  0  0  0  0  0  0  0
   14.7651  -19.6129   22.1127 C   0  0  0  0  0  0  0  0  0  0  0  0
   15.0531  -21.0292   22.4442 C   0  0  0  0  0  0  0  0  0  0  0  0
   14.2290  -22.1263   22.2249 C   0  0  0  0  0  0  0  0  0  0  0  0
   14.8343  -23.2385   22.6616 N   0  0  0  0  0  0  0  0  0  0  0  0
   16.0240  -22.8627   23.1519 C   0  0  0  0  0  0  0  0  0  0  0  0
   16.1552  -21.5193   23.0189 N   0  0  0  0  0  0  0  0  0  0  0  0
   12.8222  -18.3639   21.4545 C   0  0  0  0  0  0  0  0  0  0  0  0
   13.2850  -17.3534   20.8247 O   0  0  0  0  0  0  0  0  0  0  0  0
    8.0440  -13.7006   18.2207 N   0  0  0  0  0  0  0  0  0  0  0  0
    7.7803  -13.0786   19.4635 C   0  0  0  0  0  0  0  0  0  0  0  0
    7.3288  -11.8699   19.5485 N   0  0  0  0  0  0  0  0  0  0  0  0
    8.0186  -13.8036   20.6863 N   0  0  0  0  0  0  0  0  0  0  0  0
    8.7112  -15.0646   20.6590 C   0  0  0  0  0  0  0  0  0  0  0  0
    8.9492  -15.5527   22.0818 C   0  0  0  0  0  0  0  0  0  0  0  0
    9.6148  -16.9073   22.0310 C   0  0  0  0  0  0  0  0  0  0  0  0
   11.0783  -16.8666   22.3236 C   0  0  2  0  0  0  0  0  0  0  0  0
   11.7232  -18.1483   22.2900 N   0  0  0  0  0  0  0  0  0  0  0  0
   11.2489  -16.2389   23.6619 C   0  0  0  0  0  0  0  0  0  0  0  0
   11.1478  -14.8626   23.7443 O   0  0  0  0  0  0  0  0  0  0  0  0
   11.4776  -16.8875   24.7116 O   0  0  0  0  0  0  0  0  0  0  0  0
  2  1  1  6
  2  3  1  0
  4  3  1  0
  5  4  1  0
  6  5  2  0
  7  8  2  0
  7  2  1  0
  9  5  1  0
 10  7  1  0
 11 10  1  0
 11 12  1  1
 13 17  1  0
 13 12  1  0
 14 13  2  0
 15 14  1  0
 15 16  1  0
 16 17  2  0
 18 11  1  0
 18 19  2  0
 21 20  1  0
 21 22  2  0
 23 24  1  0
 23 21  1  0
 25 26  1  0
 25 24  1  0
 27 26  1  1
 27 28  1  0
 27 29  1  0
 28 18  1  0
 29 30  1  0
 31 29  2  0
M  END
$$$$
