EHR.pdb
     RDKit          3D

 31 31  0  0  1  0  0  0  0  0999 V2000
   12.9678  -16.9591   17.6705 N   0  0  0  0  0  0  0  0  0  0  0  0
   11.8599  -17.6771   18.3330 C   0  0  1  0  0  0  0  0  0  0  0  0
   12.4501  -18.9380   18.8946 C   0  0  0  0  0  0  0  0  0  0  0  0
   12.4946  -20.0209   17.8547 C   0  0  0  0  0  0  0  0  0  0  0  0
   12.9967  -21.2967   18.4287 C   0  0  0  0  0  0  0  0  0  0  0  0
   13.4331  -22.2393   17.7372 O   0  0  0  0  0  0  0  0  0  0  0  0
   11.3669  -16.8358   19.4668 C   0  0  0  0  0  0  0  0  0  0  0  0
   12.1714  -16.3207   20.2690 O   0  0  0  0  0  0  0  0  0  0  0  0
   13.0019  -21.5034   19.8198 O   0  0  0  0  0  0  0  0  0  0  0  0
    9.9508  -16.6104   19.6442 N   0  0  0  0  0  0  0  0  0  0  0  0
    9.5088  -15.9909   20.8404 C   0  0  1  0  0  0  0  0  0  0  0  0
    8.0255  -15.5871   20.7376 C   0  0  0  0  0  0  0  0  0  0  0  0
    7.9461  -14.5699   19.6615 C   0  0  0  0  0  0  0  0  0  0  0  0
    9.0018  -14.0357   18.9329 C   0  0  0  0  0  0  0  0  0  0  0  0
    8.5338  -13.1419   18.0519 N   0  0  0  0  0  0  0  0  0  0  0  0
    7.2035  -13.1030   18.2119 C   0  0  0  0  0  0  0  0  0  0  0  0
    6.8481  -13.9718   19.1910 N   0  0  0  0  0  0  0  0  0  0  0  0
    9.6367  -16.7672   22.0716 C   0  0  0  0  0  0  0  0  0  0  0  0
   10.8237  -17.1344   22.3683 O   0  0  0  0  0  0  0  0  0  0  0  0
    9.6399  -13.3244   29.4637 N   0  0  0  0  0  0  0  0  0  0  0  0
   10.2435  -14.5833   29.6909 C   0  0  0  0  0  0  0  0  0  0  0  0
   10.9559  -14.8278   30.7419 N   0  0  0  0  0  0  0  0  0  0  0  0
   10.0683  -15.6403   28.7265 N   0  0  0  0  0  0  0  0  0  0  0  0
    9.8540  -15.3278   27.3384 C   0  0  0  0  0  0  0  0  0  0  0  0
    9.7855  -16.6137   26.5253 C   0  0  0  0  0  0  0  0  0  0  0  0
    9.4233  -16.2739   25.0992 C   0  0  0  0  0  0  0  0  0  0  0  0
    8.9049  -17.4370   24.3198 C   0  0  2  0  0  0  0  0  0  0  0  0
    8.6136  -17.1443   22.9452 N   0  0  0  0  0  0  0  0  0  0  0  0
    7.6831  -17.9295   25.0119 C   0  0  0  0  0  0  0  0  0  0  0  0
    7.8495  -18.8293   26.0482 O   0  0  0  0  0  0  0  0  0  0  0  0
    6.5188  -17.5740   24.7073 O   0  0  0  0  0  0  0  0  0  0  0  0
  2  1  1  1
  2  3  1  0
  4  3  1  0
  5  4  1  0
  6  5  2  0
  7  8  2  0
  7  2  1  0
  9  5  1  0
 10  7  1  0
 11 10  1  0
 11 12  1  6
 13 17  1  0
 13 12  1  0
 14 13  2  0
 15 14  1  0
 15 16  1  0
 16 17  2  0
 18 11  1  0
 18 19  2  0
 21 20  1  0
 21 22  2  0
 23 24  1  0
 23 21  1  0
 25 26  1  0
 25 24  1  0
 27 26  1  1
 27 28  1  0
 27 29  1  0
 28 18  1  0
 29 30  1  0
 31 29  2  0
M  END
$$$$
