EHR.pdb
     RDKit          3D

 31 31  0  0  1  0  0  0  0  0999 V2000
   13.9674  -16.0014   14.4587 N   0  0  0  0  0  0  0  0  0  0  0  0
   12.7157  -16.6944   14.8256 C   0  0  1  0  0  0  0  0  0  0  0  0
   13.0985  -18.1054   15.1659 C   0  0  0  0  0  0  0  0  0  0  0  0
   12.7470  -19.0431   14.0465 C   0  0  0  0  0  0  0  0  0  0  0  0
   11.2740  -19.1831   13.9053 C   0  0  0  0  0  0  0  0  0  0  0  0
   10.5210  -19.5234   14.8403 O   0  0  0  0  0  0  0  0  0  0  0  0
   12.1604  -16.0426   16.0517 C   0  0  0  0  0  0  0  0  0  0  0  0
   12.8921  -15.8216   17.0374 O   0  0  0  0  0  0  0  0  0  0  0  0
   10.6452  -18.9300   12.6730 O   0  0  0  0  0  0  0  0  0  0  0  0
   10.7678  -15.6610   16.1063 N   0  0  0  0  0  0  0  0  0  0  0  0
   10.2845  -15.0307   17.2806 C   0  0  1  0  0  0  0  0  0  0  0  0
    8.7848  -14.7013   17.1531 C   0  0  0  0  0  0  0  0  0  0  0  0
    8.4220  -13.9406   18.3732 C   0  0  0  0  0  0  0  0  0  0  0  0
    9.2458  -13.6431   19.4520 C   0  0  0  0  0  0  0  0  0  0  0  0
    8.5583  -12.9426   20.3635 N   0  0  0  0  0  0  0  0  0  0  0  0
    7.3173  -12.7933   19.8792 C   0  0  0  0  0  0  0  0  0  0  0  0
    7.2363  -13.4008   18.6692 N   0  0  0  0  0  0  0  0  0  0  0  0
   10.4363  -15.7658   18.5341 C   0  0  0  0  0  0  0  0  0  0  0  0
   10.0674  -16.9884   18.5018 O   0  0  0  0  0  0  0  0  0  0  0  0
   16.8108  -13.9024   22.5159 N   0  0  0  0  0  0  0  0  0  0  0  0
   16.7017  -13.6842   21.1226 C   0  0  0  0  0  0  0  0  0  0  0  0
   17.3843  -12.7720   20.5111 N   0  0  0  0  0  0  0  0  0  0  0  0
   15.8025  -14.4982   20.3436 N   0  0  0  0  0  0  0  0  0  0  0  0
   14.9477  -15.4580   20.9906 C   0  0  0  0  0  0  0  0  0  0  0  0
   13.5024  -15.2268   20.5700 C   0  0  0  0  0  0  0  0  0  0  0  0
   12.6241  -16.2512   21.2481 C   0  0  0  0  0  0  0  0  0  0  0  0
   11.1909  -16.1776   20.8362 C   0  0  2  0  0  0  0  0  0  0  0  0
   10.9351  -15.2803   19.7457 N   0  0  0  0  0  0  0  0  0  0  0  0
   10.4028  -15.7732   22.0320 C   0  0  0  0  0  0  0  0  0  0  0  0
   10.4391  -16.6033   23.1369 O   0  0  0  0  0  0  0  0  0  0  0  0
    9.7126  -14.7268   22.0902 O   0  0  0  0  0  0  0  0  0  0  0  0
  2  1  1  1
  2  3  1  0
  4  3  1  0
  5  4  1  0
  6  5  2  0
  7  8  2  0
  7  2  1  0
  9  5  1  0
 10  7  1  0
 11 10  1  0
 11 12  1  6
 13 17  1  0
 13 12  1  0
 14 13  2  0
 15 14  1  0
 15 16  1  0
 16 17  2  0
 18 11  1  0
 18 19  2  0
 21 20  1  0
 21 22  2  0
 23 24  1  0
 23 21  1  0
 25 26  1  0
 25 24  1  0
 27 26  1  1
 27 28  1  0
 27 29  1  0
 28 18  1  0
 29 30  1  0
 31 29  2  0
M  END
$$$$
