EHR.pdb
     RDKit          3D

 31 31  0  0  1  0  0  0  0  0999 V2000
   12.1769  -16.2577   14.4831 N   0  0  0  0  0  0  0  0  0  0  0  0
   11.1643  -16.9199   15.3303 C   0  0  1  0  0  0  0  0  0  0  0  0
   11.7989  -18.1820   15.8382 C   0  0  0  0  0  0  0  0  0  0  0  0
   13.0139  -18.5364   15.0294 C   0  0  0  0  0  0  0  0  0  0  0  0
   13.6534  -19.7787   15.5366 C   0  0  0  0  0  0  0  0  0  0  0  0
   14.6150  -19.7840   16.3318 O   0  0  0  0  0  0  0  0  0  0  0  0
   10.8736  -16.0301   16.4966 C   0  0  0  0  0  0  0  0  0  0  0  0
   11.7537  -15.2694   16.9469 O   0  0  0  0  0  0  0  0  0  0  0  0
   13.1877  -21.0418   15.1296 O   0  0  0  0  0  0  0  0  0  0  0  0
    9.5675  -16.0427   17.1143 N   0  0  0  0  0  0  0  0  0  0  0  0
    9.3568  -15.2457   18.2677 C   0  0  1  0  0  0  0  0  0  0  0  0
    7.8607  -14.9275   18.4533 C   0  0  0  0  0  0  0  0  0  0  0  0
    7.7729  -14.0091   19.6142 C   0  0  0  0  0  0  0  0  0  0  0  0
    8.0066  -12.6394   19.6195 C   0  0  0  0  0  0  0  0  0  0  0  0
    7.8313  -12.1577   20.8570 N   0  0  0  0  0  0  0  0  0  0  0  0
    7.4917  -13.1981   21.6311 C   0  0  0  0  0  0  0  0  0  0  0  0
    7.4567  -14.3228   20.8738 N   0  0  0  0  0  0  0  0  0  0  0  0
    9.8193  -15.7928   19.5412 C   0  0  0  0  0  0  0  0  0  0  0  0
    9.9148  -17.0658   19.5895 O   0  0  0  0  0  0  0  0  0  0  0  0
    9.7860  -18.9073   27.3473 N   0  0  0  0  0  0  0  0  0  0  0  0
    8.5203  -18.5783   26.8083 C   0  0  0  0  0  0  0  0  0  0  0  0
    7.4283  -19.1333   27.2222 N   0  0  0  0  0  0  0  0  0  0  0  0
    8.4280  -17.5928   25.7604 N   0  0  0  0  0  0  0  0  0  0  0  0
    9.1429  -17.7776   24.5254 C   0  0  0  0  0  0  0  0  0  0  0  0
    8.8215  -16.6375   23.5683 C   0  0  0  0  0  0  0  0  0  0  0  0
    9.5469  -16.8719   22.2647 C   0  0  0  0  0  0  0  0  0  0  0  0
   10.4970  -15.7784   21.9032 C   0  0  2  0  0  0  0  0  0  0  0  0
   10.1630  -15.0816   20.6937 N   0  0  0  0  0  0  0  0  0  0  0  0
   11.8522  -16.3828   21.7922 C   0  0  0  0  0  0  0  0  0  0  0  0
   12.9433  -15.5451   21.9298 O   0  0  0  0  0  0  0  0  0  0  0  0
   12.0557  -17.6032   21.5822 O   0  0  0  0  0  0  0  0  0  0  0  0
  2  1  1  6
  2  3  1  0
  4  3  1  0
  5  4  1  0
  6  5  2  0
  7  8  2  0
  7  2  1  0
  9  5  1  0
 10  7  1  0
 11 10  1  0
 11 12  1  1
 13 17  1  0
 13 12  1  0
 14 13  2  0
 15 14  1  0
 15 16  1  0
 16 17  2  0
 18 11  1  0
 18 19  2  0
 21 20  1  0
 21 22  2  0
 23 24  1  0
 23 21  1  0
 25 26  1  0
 25 24  1  0
 27 26  1  6
 27 28  1  0
 27 29  1  0
 28 18  1  0
 29 30  1  0
 31 29  2  0
M  END
$$$$
