EHR.pdb
     RDKit          3D

 31 31  0  0  1  0  0  0  0  0999 V2000
    9.1470  -18.4361   17.5137 N   0  0  0  0  0  0  0  0  0  0  0  0
   10.4753  -17.8273   17.7301 C   0  0  1  0  0  0  0  0  0  0  0  0
   10.7598  -16.9923   16.5155 C   0  0  0  0  0  0  0  0  0  0  0  0
   10.4632  -17.7554   15.2564 C   0  0  0  0  0  0  0  0  0  0  0  0
   10.7983  -16.9536   14.0505 C   0  0  0  0  0  0  0  0  0  0  0  0
   11.9294  -16.9410   13.5234 O   0  0  0  0  0  0  0  0  0  0  0  0
   10.3897  -16.9248   18.9194 C   0  0  0  0  0  0  0  0  0  0  0  0
   11.3893  -16.2827   19.2997 O   0  0  0  0  0  0  0  0  0  0  0  0
    9.8248  -16.1491   13.4318 O   0  0  0  0  0  0  0  0  0  0  0  0
    9.1455  -16.7869   19.6409 N   0  0  0  0  0  0  0  0  0  0  0  0
    9.1028  -15.9112   20.7550 C   0  0  1  0  0  0  0  0  0  0  0  0
    7.7509  -15.1756   20.8276 C   0  0  0  0  0  0  0  0  0  0  0  0
    7.6343  -14.3973   19.5708 C   0  0  0  0  0  0  0  0  0  0  0  0
    7.9379  -13.0542   19.3847 C   0  0  0  0  0  0  0  0  0  0  0  0
    7.6997  -12.7110   18.1121 N   0  0  0  0  0  0  0  0  0  0  0  0
    7.2519  -13.8124   17.4931 C   0  0  0  0  0  0  0  0  0  0  0  0
    7.2127  -14.8366   18.3815 N   0  0  0  0  0  0  0  0  0  0  0  0
    9.3145  -16.5080   22.0718 C   0  0  0  0  0  0  0  0  0  0  0  0
    8.8253  -17.6775   22.2296 O   0  0  0  0  0  0  0  0  0  0  0  0
   17.5943  -16.0921   23.7307 N   0  0  0  0  0  0  0  0  0  0  0  0
   17.1789  -17.2941   24.3499 C   0  0  0  0  0  0  0  0  0  0  0  0
   18.0186  -18.2016   24.7287 N   0  0  0  0  0  0  0  0  0  0  0  0
   15.7746  -17.5308   24.5728 N   0  0  0  0  0  0  0  0  0  0  0  0
   14.7894  -16.6740   23.9679 C   0  0  0  0  0  0  0  0  0  0  0  0
   13.3926  -17.1437   24.3518 C   0  0  0  0  0  0  0  0  0  0  0  0
   12.3735  -16.2819   23.6451 C   0  0  0  0  0  0  0  0  0  0  0  0
   10.9620  -16.7058   23.8843 C   0  0  2  0  0  0  0  0  0  0  0  0
    9.9855  -15.9435   23.1596 N   0  0  0  0  0  0  0  0  0  0  0  0
   10.7086  -16.6096   25.3475 C   0  0  0  0  0  0  0  0  0  0  0  0
   11.4492  -17.4245   26.1833 O   0  0  0  0  0  0  0  0  0  0  0  0
    9.8651  -15.8338   25.8589 O   0  0  0  0  0  0  0  0  0  0  0  0
  2  1  1  6
  2  3  1  0
  4  3  1  0
  5  4  1  0
  6  5  2  0
  7  8  2  0
  7  2  1  0
  9  5  1  0
 10  7  1  0
 11 10  1  0
 11 12  1  1
 13 17  1  0
 13 12  1  0
 14 13  2  0
 15 14  1  0
 15 16  1  0
 16 17  2  0
 18 11  1  0
 18 19  2  0
 21 20  1  0
 21 22  2  0
 23 24  1  0
 23 21  1  0
 25 26  1  0
 25 24  1  0
 27 26  1  1
 27 28  1  0
 27 29  1  0
 28 18  1  0
 29 30  1  0
 31 29  2  0
M  END
$$$$
