EHR.pdb
     RDKit          3D

 31 31  0  0  1  0  0  0  0  0999 V2000
    9.1965  -17.2148   18.1142 N   0  0  0  0  0  0  0  0  0  0  0  0
    8.9985  -17.9742   19.3656 C   0  0  1  0  0  0  0  0  0  0  0  0
   10.0265  -19.0680   19.3626 C   0  0  0  0  0  0  0  0  0  0  0  0
    9.7276  -20.0844   18.2980 C   0  0  0  0  0  0  0  0  0  0  0  0
   10.6071  -21.2754   18.4300 C   0  0  0  0  0  0  0  0  0  0  0  0
   10.3687  -22.2264   19.2020 O   0  0  0  0  0  0  0  0  0  0  0  0
    9.2770  -17.0617   20.5173 C   0  0  0  0  0  0  0  0  0  0  0  0
   10.4147  -16.5766   20.6794 O   0  0  0  0  0  0  0  0  0  0  0  0
   11.7830  -21.3857   17.6666 O   0  0  0  0  0  0  0  0  0  0  0  0
    8.2285  -16.7322   21.4553 N   0  0  0  0  0  0  0  0  0  0  0  0
    8.5217  -15.8289   22.5079 C   0  0  1  0  0  0  0  0  0  0  0  0
    7.4775  -14.6977   22.5715 C   0  0  0  0  0  0  0  0  0  0  0  0
    7.6211  -13.9293   21.3114 C   0  0  0  0  0  0  0  0  0  0  0  0
    8.1598  -12.6572   21.1615 C   0  0  0  0  0  0  0  0  0  0  0  0
    8.1140  -12.2981   19.8719 N   0  0  0  0  0  0  0  0  0  0  0  0
    7.5568  -13.3199   19.2068 C   0  0  0  0  0  0  0  0  0  0  0  0
    7.2578  -14.3106   20.0836 N   0  0  0  0  0  0  0  0  0  0  0  0
    8.6002  -16.3888   23.8551 C   0  0  0  0  0  0  0  0  0  0  0  0
    7.5084  -16.8656   24.3160 O   0  0  0  0  0  0  0  0  0  0  0  0
   15.2876  -19.5997   23.8041 N   0  0  0  0  0  0  0  0  0  0  0  0
   14.2251  -20.4091   23.3385 C   0  0  0  0  0  0  0  0  0  0  0  0
   14.4185  -21.4163   22.5510 N   0  0  0  0  0  0  0  0  0  0  0  0
   12.8745  -20.1137   23.7464 N   0  0  0  0  0  0  0  0  0  0  0  0
   12.6163  -19.0615   24.6933 C   0  0  0  0  0  0  0  0  0  0  0  0
   11.1578  -19.1071   25.1293 C   0  0  0  0  0  0  0  0  0  0  0  0
   10.9180  -18.0246   26.1546 C   0  0  0  0  0  0  0  0  0  0  0  0
    9.6889  -17.2173   25.8965 C   0  0  2  0  0  0  0  0  0  0  0  0
    9.7262  -16.4571   24.6797 N   0  0  0  0  0  0  0  0  0  0  0  0
    9.4950  -16.3136   27.0628 C   0  0  0  0  0  0  0  0  0  0  0  0
    9.4840  -14.9516   26.8263 O   0  0  0  0  0  0  0  0  0  0  0  0
    9.3419  -16.7193   28.2404 O   0  0  0  0  0  0  0  0  0  0  0  0
  2  1  1  6
  2  3  1  0
  4  3  1  0
  5  4  1  0
  6  5  2  0
  7  8  2  0
  7  2  1  0
  9  5  1  0
 10  7  1  0
 11 10  1  0
 11 12  1  1
 13 17  1  0
 13 12  1  0
 14 13  2  0
 15 14  1  0
 15 16  1  0
 16 17  2  0
 18 11  1  0
 18 19  2  0
 21 20  1  0
 21 22  2  0
 23 24  1  0
 23 21  1  0
 25 26  1  0
 25 24  1  0
 27 26  1  1
 27 28  1  0
 27 29  1  0
 28 18  1  0
 29 30  1  0
 31 29  2  0
M  END
$$$$
