EHR.pdb
     RDKit          3D

 31 31  0  0  1  0  0  0  0  0999 V2000
    9.0508  -18.1883   18.7361 N   0  0  0  0  0  0  0  0  0  0  0  0
   10.3447  -18.2062   19.4484 C   0  0  1  0  0  0  0  0  0  0  0  0
   11.3954  -17.8933   18.4230 C   0  0  0  0  0  0  0  0  0  0  0  0
   10.7847  -17.7243   17.0612 C   0  0  0  0  0  0  0  0  0  0  0  0
   11.8316  -17.5454   16.0213 C   0  0  0  0  0  0  0  0  0  0  0  0
   11.5870  -17.4912   14.7988 O   0  0  0  0  0  0  0  0  0  0  0  0
   10.3340  -17.1127   20.4685 C   0  0  0  0  0  0  0  0  0  0  0  0
   11.4006  -16.7056   20.9709 O   0  0  0  0  0  0  0  0  0  0  0  0
   13.1859  -17.4255   16.3813 O   0  0  0  0  0  0  0  0  0  0  0  0
    9.0852  -16.5155   20.8827 N   0  0  0  0  0  0  0  0  0  0  0  0
    9.0990  -15.6004   21.9654 C   0  0  1  0  0  0  0  0  0  0  0  0
    7.8946  -14.6422   21.8940 C   0  0  0  0  0  0  0  0  0  0  0  0
    7.9991  -13.9410   20.5916 C   0  0  0  0  0  0  0  0  0  0  0  0
    7.0788  -13.9636   19.5506 C   0  0  0  0  0  0  0  0  0  0  0  0
    7.5264  -13.2100   18.5378 N   0  0  0  0  0  0  0  0  0  0  0  0
    8.7110  -12.7133   18.9210 C   0  0  0  0  0  0  0  0  0  0  0  0
    8.9967  -13.1588   20.1699 N   0  0  0  0  0  0  0  0  0  0  0  0
    9.0889  -16.1700   23.3109 C   0  0  0  0  0  0  0  0  0  0  0  0
    7.9420  -16.5234   23.7488 O   0  0  0  0  0  0  0  0  0  0  0  0
   12.2494  -22.3052   24.5749 N   0  0  0  0  0  0  0  0  0  0  0  0
   12.0557  -21.8974   23.2344 C   0  0  0  0  0  0  0  0  0  0  0  0
   11.8694  -22.7443   22.2752 N   0  0  0  0  0  0  0  0  0  0  0  0
   12.0644  -20.4930   22.9101 N   0  0  0  0  0  0  0  0  0  0  0  0
   12.1531  -19.5075   23.9548 C   0  0  0  0  0  0  0  0  0  0  0  0
   10.7676  -19.2354   24.5255 C   0  0  0  0  0  0  0  0  0  0  0  0
   10.8835  -18.2096   25.6276 C   0  0  0  0  0  0  0  0  0  0  0  0
   10.0137  -17.0130   25.4257 C   0  0  2  0  0  0  0  0  0  0  0  0
   10.1842  -16.3663   24.1559 N   0  0  0  0  0  0  0  0  0  0  0  0
   10.3012  -16.0601   26.5320 C   0  0  0  0  0  0  0  0  0  0  0  0
   10.7340  -14.7919   26.1921 O   0  0  0  0  0  0  0  0  0  0  0  0
   10.1725  -16.3444   27.7474 O   0  0  0  0  0  0  0  0  0  0  0  0
  2  1  1  6
  2  3  1  0
  4  3  1  0
  5  4  1  0
  6  5  2  0
  7  8  2  0
  7  2  1  0
  9  5  1  0
 10  7  1  0
 11 10  1  0
 11 12  1  6
 13 17  1  0
 13 12  1  0
 14 13  2  0
 15 14  1  0
 15 16  1  0
 16 17  2  0
 18 11  1  0
 18 19  2  0
 21 20  1  0
 21 22  2  0
 23 24  1  0
 23 21  1  0
 25 26  1  0
 25 24  1  0
 27 26  1  6
 27 28  1  0
 27 29  1  0
 28 18  1  0
 29 30  1  0
 31 29  2  0
M  END
$$$$
