EHR.pdb
     RDKit          3D

 31 31  0  0  1  0  0  0  0  0999 V2000
    9.2547  -19.4858   18.6163 N   0  0  0  0  0  0  0  0  0  0  0  0
    8.1115  -18.8471   19.2998 C   0  0  1  0  0  0  0  0  0  0  0  0
    7.3798  -19.9457   20.0146 C   0  0  0  0  0  0  0  0  0  0  0  0
    8.3147  -21.0599   20.3892 C   0  0  0  0  0  0  0  0  0  0  0  0
    7.8546  -21.7570   21.6188 C   0  0  0  0  0  0  0  0  0  0  0  0
    7.3239  -22.8864   21.6134 O   0  0  0  0  0  0  0  0  0  0  0  0
    8.6476  -17.8911   20.3172 C   0  0  0  0  0  0  0  0  0  0  0  0
    9.7559  -18.0928   20.8528 O   0  0  0  0  0  0  0  0  0  0  0  0
    8.0021  -21.1550   22.8812 O   0  0  0  0  0  0  0  0  0  0  0  0
    7.8854  -16.7217   20.6902 N   0  0  0  0  0  0  0  0  0  0  0  0
    8.4428  -15.8237   21.6352 C   0  0  1  0  0  0  0  0  0  0  0  0
    7.5922  -14.5441   21.7493 C   0  0  0  0  0  0  0  0  0  0  0  0
    7.8444  -13.7668   20.5119 C   0  0  0  0  0  0  0  0  0  0  0  0
    8.6627  -14.1260   19.4479 C   0  0  0  0  0  0  0  0  0  0  0  0
    8.6372  -13.1644   18.5158 N   0  0  0  0  0  0  0  0  0  0  0  0
    7.8184  -12.2063   18.9726 C   0  0  0  0  0  0  0  0  0  0  0  0
    7.3375  -12.5743   20.1863 N   0  0  0  0  0  0  0  0  0  0  0  0
    8.6151  -16.3228   22.9976 C   0  0  0  0  0  0  0  0  0  0  0  0
    7.7460  -17.1757   23.3838 O   0  0  0  0  0  0  0  0  0  0  0  0
   13.2621  -20.7656   27.9420 N   0  0  0  0  0  0  0  0  0  0  0  0
   12.4252  -21.7052   27.2959 C   0  0  0  0  0  0  0  0  0  0  0  0
   12.5320  -22.9780   27.4971 N   0  0  0  0  0  0  0  0  0  0  0  0
   11.4139  -21.2438   26.3782 N   0  0  0  0  0  0  0  0  0  0  0  0
   11.6916  -20.1543   25.4802 C   0  0  0  0  0  0  0  0  0  0  0  0
   10.9361  -18.9107   25.9297 C   0  0  0  0  0  0  0  0  0  0  0  0
   10.6023  -18.0744   24.7174 C   0  0  0  0  0  0  0  0  0  0  0  0
    9.8867  -16.8054   25.0442 C   0  0  2  0  0  0  0  0  0  0  0  0
    9.6147  -15.9713   23.9083 N   0  0  0  0  0  0  0  0  0  0  0  0
   10.7144  -16.0690   26.0377 C   0  0  0  0  0  0  0  0  0  0  0  0
   10.9081  -16.6558   27.2744 O   0  0  0  0  0  0  0  0  0  0  0  0
   11.2420  -14.9526   25.8142 O   0  0  0  0  0  0  0  0  0  0  0  0
  2  1  1  1
  2  3  1  0
  4  3  1  0
  5  4  1  0
  6  5  2  0
  7  8  2  0
  7  2  1  0
  9  5  1  0
 10  7  1  0
 11 10  1  0
 11 12  1  1
 13 17  1  0
 13 12  1  0
 14 13  2  0
 15 14  1  0
 15 16  1  0
 16 17  2  0
 18 11  1  0
 18 19  2  0
 21 20  1  0
 21 22  2  0
 23 24  1  0
 23 21  1  0
 25 26  1  0
 25 24  1  0
 27 26  1  6
 27 28  1  0
 27 29  1  0
 28 18  1  0
 29 30  1  0
 31 29  2  0
M  END
$$$$
