YQY.pdb
     RDKit          3D

 34 35  0  0  1  0  0  0  0  0999 V2000
    7.7618  -12.3432   17.2608 O   0  0  0  0  0  0  0  0  0  0  0  0
    7.8083  -12.9692   18.5170 C   0  0  0  0  0  0  0  0  0  0  0  0
    6.7075  -13.5419   19.0987 C   0  0  0  0  0  0  0  0  0  0  0  0
    6.7393  -14.1594   20.3310 C   0  0  0  0  0  0  0  0  0  0  0  0
    7.9389  -14.1976   21.0017 C   0  0  0  0  0  0  0  0  0  0  0  0
    8.0413  -14.8501   22.3380 C   0  0  0  0  0  0  0  0  0  0  0  0
    8.4961  -16.2737   22.1112 C   0  0  2  0  0  0  0  0  0  0  0  0
    7.5216  -16.9608   21.3038 N   0  0  0  0  0  0  0  0  0  0  0  0
    8.7803  -16.9928   23.3686 C   0  0  0  0  0  0  0  0  0  0  0  0
    8.1249  -18.0209   23.6550 O   0  0  0  0  0  0  0  0  0  0  0  0
    9.0635  -13.6214   20.4249 C   0  0  0  0  0  0  0  0  0  0  0  0
    9.0049  -13.0122   19.1958 C   0  0  0  0  0  0  0  0  0  0  0  0
   11.4953  -21.7083   24.9583 N   0  0  0  0  0  0  0  0  0  0  0  0
   12.2823  -20.5968   25.3435 C   0  0  0  0  0  0  0  0  0  0  0  0
   13.5189  -20.6967   25.1886 O   0  0  0  0  0  0  0  0  0  0  0  0
   11.6792  -19.3894   25.8944 C   0  0  0  0  0  0  0  0  0  0  0  0
   11.0654  -18.5238   24.8474 C   0  0  0  0  0  0  0  0  0  0  0  0
   10.3874  -17.2945   25.3166 C   0  0  2  0  0  0  0  0  0  0  0  0
    9.7778  -16.5346   24.2452 N   0  0  0  0  0  0  0  0  0  0  0  0
   11.3766  -16.4695   26.0988 C   0  0  0  0  0  0  0  0  0  0  0  0
   12.6110  -16.7535   26.1472 O   0  0  0  0  0  0  0  0  0  0  0  0
    6.3959  -11.3385   25.4184 O   0  0  0  0  0  0  0  0  0  0  0  0
    7.0320  -12.3511   26.1279 C   0  0  0  0  0  0  0  0  0  0  0  0
    6.5911  -13.6636   26.0160 C   0  0  0  0  0  0  0  0  0  0  0  0
    7.2265  -14.6609   26.7220 C   0  0  0  0  0  0  0  0  0  0  0  0
    8.2951  -14.3592   27.5367 C   0  0  0  0  0  0  0  0  0  0  0  0
    8.9497  -15.4367   28.2860 C   0  0  0  0  0  0  0  0  0  0  0  0
   10.4349  -15.4180   28.1790 C   0  0  2  0  0  0  0  0  0  0  0  0
   10.8745  -15.3423   26.7920 N   0  0  0  0  0  0  0  0  0  0  0  0
   10.9976  -16.6430   28.7702 C   0  0  0  0  0  0  0  0  0  0  0  0
   10.8046  -17.7391   28.1834 O   0  0  0  0  0  0  0  0  0  0  0  0
    8.7549  -13.0412   27.6628 C   0  0  0  0  0  0  0  0  0  0  0  0
    8.1051  -12.0625   26.9483 C   0  0  0  0  0  0  0  0  0  0  0  0
   11.7385  -16.7019   29.9375 O   0  0  0  0  0  0  0  0  0  0  0  0
  2  1  1  0
  3  2  2  0
  4  3  1  0
  5 11  1  0
  5  4  2  0
  6  5  1  0
  7  6  1  0
  7  8  1  1
  9  7  1  0
  9 10  2  0
 11 12  2  0
 12  2  1  0
 13 14  1  0
 14 15  2  0
 16 17  1  0
 16 14  1  0
 18 17  1  6
 18 19  1  0
 18 20  1  0
 19  9  1  0
 20 29  1  0
 21 20  2  0
 23 22  1  0
 23 24  2  0
 25 24  1  0
 26 25  2  0
 27 26  1  0
 28 27  1  6
 28 30  1  0
 29 28  1  0
 30 31  2  0
 30 34  1  0
 32 33  2  0
 32 26  1  0
 33 23  1  0
M  END
$$$$
