YQY.pdb
     RDKit          3D

 34 35  0  0  1  0  0  0  0  0999 V2000
    7.5482  -12.9801   15.8962 O   0  0  0  0  0  0  0  0  0  0  0  0
    7.4606  -13.4585   17.2136 C   0  0  0  0  0  0  0  0  0  0  0  0
    7.8149  -12.7020   18.2999 C   0  0  0  0  0  0  0  0  0  0  0  0
    7.7338  -13.1592   19.5981 C   0  0  0  0  0  0  0  0  0  0  0  0
    7.2737  -14.4386   19.8028 C   0  0  0  0  0  0  0  0  0  0  0  0
    7.1619  -14.9937   21.1817 C   0  0  0  0  0  0  0  0  0  0  0  0
    8.5634  -15.1116   21.7355 C   0  0  2  0  0  0  0  0  0  0  0  0
    9.4041  -15.7643   20.7657 N   0  0  0  0  0  0  0  0  0  0  0  0
    8.6070  -15.7842   23.0488 C   0  0  0  0  0  0  0  0  0  0  0  0
    7.7997  -15.4456   23.9444 O   0  0  0  0  0  0  0  0  0  0  0  0
    6.9108  -15.2176   18.7116 C   0  0  0  0  0  0  0  0  0  0  0  0
    7.0011  -14.7381   17.4282 C   0  0  0  0  0  0  0  0  0  0  0  0
   11.9318  -21.1520   24.1067 N   0  0  0  0  0  0  0  0  0  0  0  0
   12.4281  -19.9744   23.4984 C   0  0  0  0  0  0  0  0  0  0  0  0
   13.4750  -20.0828   22.8234 O   0  0  0  0  0  0  0  0  0  0  0  0
   11.7495  -18.6931   23.6502 C   0  0  0  0  0  0  0  0  0  0  0  0
   10.4418  -18.8150   24.3553 C   0  0  0  0  0  0  0  0  0  0  0  0
    9.6599  -17.5694   24.5229 C   0  0  2  0  0  0  0  0  0  0  0  0
    9.5447  -16.7991   23.3022 N   0  0  0  0  0  0  0  0  0  0  0  0
   10.2727  -16.7645   25.6399 C   0  0  0  0  0  0  0  0  0  0  0  0
   11.2577  -15.9879   25.4572 O   0  0  0  0  0  0  0  0  0  0  0  0
    6.9282  -11.4618   25.4431 O   0  0  0  0  0  0  0  0  0  0  0  0
    7.4945  -12.4307   26.2641 C   0  0  0  0  0  0  0  0  0  0  0  0
    6.8679  -13.6598   26.4261 C   0  0  0  0  0  0  0  0  0  0  0  0
    7.4352  -14.6142   27.2410 C   0  0  0  0  0  0  0  0  0  0  0  0
    8.6192  -14.3521   27.8937 C   0  0  0  0  0  0  0  0  0  0  0  0
    9.1992  -15.3806   28.7636 C   0  0  0  0  0  0  0  0  0  0  0  0
   10.2366  -16.2115   28.0919 C   0  0  2  0  0  0  0  0  0  0  0  0
    9.7015  -16.9043   26.9273 N   0  0  0  0  0  0  0  0  0  0  0  0
   10.7545  -17.2233   29.0273 C   0  0  0  0  0  0  0  0  0  0  0  0
   10.5399  -18.4382   28.7804 O   0  0  0  0  0  0  0  0  0  0  0  0
    9.2668  -13.1183   27.7429 C   0  0  0  0  0  0  0  0  0  0  0  0
    8.6818  -12.1811   26.9242 C   0  0  0  0  0  0  0  0  0  0  0  0
   11.4742  -16.9560   30.1786 O   0  0  0  0  0  0  0  0  0  0  0  0
  2  1  1  0
  3  2  2  0
  4  3  1  0
  5 11  1  0
  5  4  2  0
  6  5  1  0
  7  6  1  0
  7  8  1  6
  9  7  1  0
  9 10  2  0
 11 12  2  0
 12  2  1  0
 13 14  1  0
 14 15  2  0
 16 17  1  0
 16 14  1  0
 18 17  1  6
 18 19  1  0
 18 20  1  0
 19  9  1  0
 20 29  1  0
 21 20  2  0
 23 22  1  0
 23 24  2  0
 25 24  1  0
 26 25  2  0
 27 26  1  0
 28 27  1  1
 28 30  1  0
 29 28  1  0
 30 31  2  0
 30 34  1  0
 32 33  2  0
 32 26  1  0
 33 23  1  0
M  END
$$$$
