YQY.pdb
     RDKit          3D

 34 35  0  0  1  0  0  0  0  0999 V2000
    8.1144  -12.3516   17.0418 O   0  0  0  0  0  0  0  0  0  0  0  0
    7.9248  -12.9796   18.2836 C   0  0  0  0  0  0  0  0  0  0  0  0
    8.6398  -12.6379   19.4015 C   0  0  0  0  0  0  0  0  0  0  0  0
    8.4637  -13.2461   20.6263 C   0  0  0  0  0  0  0  0  0  0  0  0
    7.5221  -14.2436   20.7207 C   0  0  0  0  0  0  0  0  0  0  0  0
    7.2825  -14.9414   22.0159 C   0  0  0  0  0  0  0  0  0  0  0  0
    8.4951  -15.7988   22.2973 C   0  0  2  0  0  0  0  0  0  0  0  0
    8.7534  -16.6442   21.1606 N   0  0  0  0  0  0  0  0  0  0  0  0
    8.3726  -16.5737   23.5477 C   0  0  0  0  0  0  0  0  0  0  0  0
    7.4292  -17.3864   23.6820 O   0  0  0  0  0  0  0  0  0  0  0  0
    6.7894  -14.6010   19.5960 C   0  0  0  0  0  0  0  0  0  0  0  0
    6.9843  -13.9791   18.3875 C   0  0  0  0  0  0  0  0  0  0  0  0
   12.7286  -18.3356   21.1194 N   0  0  0  0  0  0  0  0  0  0  0  0
   11.4172  -18.6529   21.5467 C   0  0  0  0  0  0  0  0  0  0  0  0
   10.5551  -18.8181   20.6563 O   0  0  0  0  0  0  0  0  0  0  0  0
   11.0861  -18.7830   22.9604 C   0  0  0  0  0  0  0  0  0  0  0  0
   11.3016  -17.5187   23.7202 C   0  0  0  0  0  0  0  0  0  0  0  0
   10.4168  -17.2848   24.8835 C   0  0  2  0  0  0  0  0  0  0  0  0
    9.3035  -16.4077   24.5867 N   0  0  0  0  0  0  0  0  0  0  0  0
   11.2522  -16.7662   26.0256 C   0  0  0  0  0  0  0  0  0  0  0  0
   12.2614  -17.3921   26.4686 O   0  0  0  0  0  0  0  0  0  0  0  0
    6.4567  -11.2652   25.4813 O   0  0  0  0  0  0  0  0  0  0  0  0
    7.1026  -12.2866   26.1691 C   0  0  0  0  0  0  0  0  0  0  0  0
    8.3906  -12.0953   26.6528 C   0  0  0  0  0  0  0  0  0  0  0  0
    9.0235  -13.1119   27.3330 C   0  0  0  0  0  0  0  0  0  0  0  0
    8.3829  -14.3144   27.5334 C   0  0  0  0  0  0  0  0  0  0  0  0
    9.0808  -15.3854   28.2525 C   0  0  0  0  0  0  0  0  0  0  0  0
   10.5510  -15.4002   28.0160 C   0  0  2  0  0  0  0  0  0  0  0  0
   10.8679  -15.5310   26.6000 N   0  0  0  0  0  0  0  0  0  0  0  0
   11.1639  -16.5336   28.7278 C   0  0  0  0  0  0  0  0  0  0  0  0
   11.1791  -17.6601   28.1676 O   0  0  0  0  0  0  0  0  0  0  0  0
    7.0834  -14.5268   27.0533 C   0  0  0  0  0  0  0  0  0  0  0  0
    6.4715  -13.4975   26.3773 C   0  0  0  0  0  0  0  0  0  0  0  0
   11.7405  -16.4730   29.9843 O   0  0  0  0  0  0  0  0  0  0  0  0
  2  1  1  0
  3  2  2  0
  4  3  1  0
  5 11  1  0
  5  4  2  0
  6  5  1  0
  7  6  1  0
  7  8  1  6
  9  7  1  0
  9 10  2  0
 11 12  2  0
 12  2  1  0
 13 14  1  0
 14 15  2  0
 16 17  1  0
 16 14  1  0
 18 17  1  6
 18 19  1  0
 18 20  1  0
 19  9  1  0
 20 29  1  0
 21 20  2  0
 23 22  1  0
 23 24  2  0
 25 24  1  0
 26 25  2  0
 27 26  1  0
 28 27  1  6
 28 30  1  0
 29 28  1  0
 30 31  2  0
 30 34  1  0
 32 33  2  0
 32 26  1  0
 33 23  1  0
M  END
$$$$
