YQY.pdb
     RDKit          3D

 34 35  0  0  1  0  0  0  0  0999 V2000
    8.9253  -11.9051   17.9167 O   0  0  0  0  0  0  0  0  0  0  0  0
    8.4982  -12.7017   18.9916 C   0  0  0  0  0  0  0  0  0  0  0  0
    9.3488  -13.1329   19.9756 C   0  0  0  0  0  0  0  0  0  0  0  0
    8.9428  -13.9151   21.0360 C   0  0  0  0  0  0  0  0  0  0  0  0
    7.6174  -14.2751   21.1006 C   0  0  0  0  0  0  0  0  0  0  0  0
    7.1137  -15.1194   22.2209 C   0  0  0  0  0  0  0  0  0  0  0  0
    7.5966  -16.5305   21.9747 C   0  0  2  0  0  0  0  0  0  0  0  0
    6.6600  -17.2104   21.1179 N   0  0  0  0  0  0  0  0  0  0  0  0
    7.8487  -17.2770   23.2229 C   0  0  0  0  0  0  0  0  0  0  0  0
    6.8848  -17.7603   23.8602 O   0  0  0  0  0  0  0  0  0  0  0  0
    6.7431  -13.8455   20.1104 C   0  0  0  0  0  0  0  0  0  0  0  0
    7.1732  -13.0669   19.0644 C   0  0  0  0  0  0  0  0  0  0  0  0
   10.4593  -22.5566   24.5291 N   0  0  0  0  0  0  0  0  0  0  0  0
   10.7441  -21.3728   23.8076 C   0  0  0  0  0  0  0  0  0  0  0  0
   11.7788  -21.3717   23.1057 O   0  0  0  0  0  0  0  0  0  0  0  0
    9.8707  -20.2078   23.8779 C   0  0  0  0  0  0  0  0  0  0  0  0
   10.2915  -19.2361   24.9271 C   0  0  0  0  0  0  0  0  0  0  0  0
    9.5306  -17.9686   25.0010 C   0  0  2  0  0  0  0  0  0  0  0  0
    9.1582  -17.4498   23.7014 N   0  0  0  0  0  0  0  0  0  0  0  0
   10.3345  -16.9716   25.7952 C   0  0  0  0  0  0  0  0  0  0  0  0
   11.4642  -16.5466   25.4081 O   0  0  0  0  0  0  0  0  0  0  0  0
    6.0627  -12.4357   24.7062 O   0  0  0  0  0  0  0  0  0  0  0  0
    6.9461  -12.9609   25.6430 C   0  0  0  0  0  0  0  0  0  0  0  0
    7.8726  -13.9238   25.2640 C   0  0  0  0  0  0  0  0  0  0  0  0
    8.7441  -14.4390   26.1977 C   0  0  0  0  0  0  0  0  0  0  0  0
    8.6978  -14.0021   27.5029 C   0  0  0  0  0  0  0  0  0  0  0  0
    9.6297  -14.5724   28.4815 C   0  0  0  0  0  0  0  0  0  0  0  0
   10.5070  -15.6353   27.9175 C   0  0  2  0  0  0  0  0  0  0  0  0
    9.7768  -16.5131   27.0125 N   0  0  0  0  0  0  0  0  0  0  0  0
   11.0619  -16.4590   29.0040 C   0  0  0  0  0  0  0  0  0  0  0  0
   10.7080  -17.6634   29.0882 O   0  0  0  0  0  0  0  0  0  0  0  0
    7.7704  -13.0312   27.9049 C   0  0  0  0  0  0  0  0  0  0  0  0
    6.9107  -12.5313   26.9553 C   0  0  0  0  0  0  0  0  0  0  0  0
   11.9595  -16.0218   29.9622 O   0  0  0  0  0  0  0  0  0  0  0  0
  2  1  1  0
  3  2  2  0
  4  3  1  0
  5 11  1  0
  5  4  2  0
  6  5  1  0
  7  6  1  0
  7  8  1  6
  9  7  1  0
  9 10  2  0
 11 12  2  0
 12  2  1  0
 13 14  1  0
 14 15  2  0
 16 17  1  0
 16 14  1  0
 18 17  1  6
 18 19  1  0
 18 20  1  0
 19  9  1  0
 20 29  1  0
 21 20  2  0
 23 22  1  0
 23 24  2  0
 25 24  1  0
 26 25  2  0
 27 26  1  0
 28 27  1  1
 28 30  1  0
 29 28  1  0
 30 31  2  0
 30 34  1  0
 32 33  2  0
 32 26  1  0
 33 23  1  0
M  END
$$$$
