YQY.pdb
     RDKit          3D

 34 35  0  0  1  0  0  0  0  0999 V2000
   12.3642  -13.4049   21.7759 O   0  0  0  0  0  0  0  0  0  0  0  0
   11.4881  -13.5199   20.6843 C   0  0  0  0  0  0  0  0  0  0  0  0
   11.9132  -13.8668   19.4287 C   0  0  0  0  0  0  0  0  0  0  0  0
   11.0641  -13.9832   18.3487 C   0  0  0  0  0  0  0  0  0  0  0  0
    9.7266  -13.7371   18.5514 C   0  0  0  0  0  0  0  0  0  0  0  0
    8.7555  -13.8454   17.4257 C   0  0  0  0  0  0  0  0  0  0  0  0
    8.4851  -15.3159   17.2033 C   0  0  2  0  0  0  0  0  0  0  0  0
    7.5039  -15.4659   16.1601 N   0  0  0  0  0  0  0  0  0  0  0  0
    8.0920  -16.0207   18.4393 C   0  0  0  0  0  0  0  0  0  0  0  0
    6.9035  -15.9670   18.8308 O   0  0  0  0  0  0  0  0  0  0  0  0
    9.2806  -13.3844   19.8187 C   0  0  0  0  0  0  0  0  0  0  0  0
   10.1475  -13.2754   20.8779 C   0  0  0  0  0  0  0  0  0  0  0  0
    8.6943  -20.4239   17.1348 N   0  0  0  0  0  0  0  0  0  0  0  0
    8.9527  -20.4808   18.5252 C   0  0  0  0  0  0  0  0  0  0  0  0
    9.8648  -21.2489   18.9014 O   0  0  0  0  0  0  0  0  0  0  0  0
    8.1917  -19.6797   19.4760 C   0  0  0  0  0  0  0  0  0  0  0  0
    9.0641  -18.8787   20.3811 C   0  0  0  0  0  0  0  0  0  0  0  0
    8.8014  -17.4232   20.4389 C   0  0  2  0  0  0  0  0  0  0  0  0
    9.0379  -16.7500   19.1789 N   0  0  0  0  0  0  0  0  0  0  0  0
    9.6222  -16.8311   21.5555 C   0  0  0  0  0  0  0  0  0  0  0  0
   10.8891  -16.8033   21.5270 O   0  0  0  0  0  0  0  0  0  0  0  0
   11.1243  -13.8228   29.6938 O   0  0  0  0  0  0  0  0  0  0  0  0
   10.5064  -14.2097   28.5097 C   0  0  0  0  0  0  0  0  0  0  0  0
   10.1779  -15.5426   28.2982 C   0  0  0  0  0  0  0  0  0  0  0  0
    9.5660  -15.9178   27.1227 C   0  0  0  0  0  0  0  0  0  0  0  0
    9.2807  -14.9757   26.1595 C   0  0  0  0  0  0  0  0  0  0  0  0
    8.6374  -15.4007   24.9119 C   0  0  0  0  0  0  0  0  0  0  0  0
    9.6017  -15.8376   23.8646 C   0  0  2  0  0  0  0  0  0  0  0  0
    8.9199  -16.2940   22.6607 N   0  0  0  0  0  0  0  0  0  0  0  0
   10.4262  -16.9471   24.3710 C   0  0  0  0  0  0  0  0  0  0  0  0
    9.9376  -18.1065   24.3782 O   0  0  0  0  0  0  0  0  0  0  0  0
    9.6041  -13.6260   26.3543 C   0  0  0  0  0  0  0  0  0  0  0  0
   10.2143  -13.2751   27.5355 C   0  0  0  0  0  0  0  0  0  0  0  0
   11.7197  -16.8307   24.8486 O   0  0  0  0  0  0  0  0  0  0  0  0
  2  1  1  0
  3  2  2  0
  4  3  1  0
  5 11  1  0
  5  4  2  0
  6  5  1  0
  7  6  1  0
  7  8  1  6
  9  7  1  0
  9 10  2  0
 11 12  2  0
 12  2  1  0
 13 14  1  0
 14 15  2  0
 16 17  1  0
 16 14  1  0
 18 17  1  6
 18 19  1  0
 18 20  1  0
 19  9  1  0
 20 29  1  0
 21 20  2  0
 23 22  1  0
 23 24  2  0
 25 24  1  0
 26 25  2  0
 27 26  1  0
 28 27  1  1
 28 30  1  0
 29 28  1  0
 30 31  2  0
 30 34  1  0
 32 33  2  0
 32 26  1  0
 33 23  1  0
M  END
$$$$
