YQY.pdb
     RDKit          3D

 34 35  0  0  1  0  0  0  0  0999 V2000
    4.8903  -10.1507   25.9643 O   0  0  0  0  0  0  0  0  0  0  0  0
    5.6779  -11.3010   25.7949 C   0  0  0  0  0  0  0  0  0  0  0  0
    6.6295  -11.4075   24.8145 C   0  0  0  0  0  0  0  0  0  0  0  0
    7.4094  -12.5306   24.6372 C   0  0  0  0  0  0  0  0  0  0  0  0
    7.2155  -13.5908   25.4910 C   0  0  0  0  0  0  0  0  0  0  0  0
    8.0256  -14.8344   25.3534 C   0  0  0  0  0  0  0  0  0  0  0  0
    7.3481  -15.7018   24.3174 C   0  0  2  0  0  0  0  0  0  0  0  0
    6.0932  -16.1752   24.8413 N   0  0  0  0  0  0  0  0  0  0  0  0
    8.2044  -16.8079   23.8459 C   0  0  0  0  0  0  0  0  0  0  0  0
    8.1151  -17.9336   24.3878 O   0  0  0  0  0  0  0  0  0  0  0  0
    6.2546  -13.4977   26.4897 C   0  0  0  0  0  0  0  0  0  0  0  0
    5.4908  -12.3673   26.6449 C   0  0  0  0  0  0  0  0  0  0  0  0
   12.2284  -16.3884   18.8838 N   0  0  0  0  0  0  0  0  0  0  0  0
   12.8632  -17.3326   19.7256 C   0  0  0  0  0  0  0  0  0  0  0  0
   13.9434  -17.8159   19.3222 O   0  0  0  0  0  0  0  0  0  0  0  0
   12.2853  -17.7233   21.0056 C   0  0  0  0  0  0  0  0  0  0  0  0
   11.0092  -17.0120   21.3016 C   0  0  0  0  0  0  0  0  0  0  0  0
   10.3422  -17.3497   22.5791 C   0  0  2  0  0  0  0  0  0  0  0  0
    9.1170  -16.6092   22.7965 N   0  0  0  0  0  0  0  0  0  0  0  0
   11.3269  -17.1499   23.7023 C   0  0  0  0  0  0  0  0  0  0  0  0
   12.1386  -16.1767   23.7297 O   0  0  0  0  0  0  0  0  0  0  0  0
   12.5552  -17.5964   32.3890 O   0  0  0  0  0  0  0  0  0  0  0  0
   12.0982  -17.6251   31.0760 C   0  0  0  0  0  0  0  0  0  0  0  0
   11.8504  -18.8404   30.4507 C   0  0  0  0  0  0  0  0  0  0  0  0
   11.3979  -18.8603   29.1500 C   0  0  0  0  0  0  0  0  0  0  0  0
   11.1917  -17.6802   28.4707 C   0  0  0  0  0  0  0  0  0  0  0  0
   10.7184  -17.7270   27.0833 C   0  0  0  0  0  0  0  0  0  0  0  0
   11.8186  -17.7941   26.0819 C   0  0  2  0  0  0  0  0  0  0  0  0
   11.3165  -18.1021   24.7494 N   0  0  0  0  0  0  0  0  0  0  0  0
   12.7809  -18.8417   26.4608 C   0  0  0  0  0  0  0  0  0  0  0  0
   13.6076  -18.5976   27.3774 O   0  0  0  0  0  0  0  0  0  0  0  0
   11.4357  -16.4440   29.0843 C   0  0  0  0  0  0  0  0  0  0  0  0
   11.8868  -16.4489   30.3832 C   0  0  0  0  0  0  0  0  0  0  0  0
   12.8609  -20.1001   25.8908 O   0  0  0  0  0  0  0  0  0  0  0  0
  2  1  1  0
  3  2  2  0
  4  3  1  0
  5 11  1  0
  5  4  2  0
  6  5  1  0
  7  6  1  0
  7  8  1  1
  9  7  1  0
  9 10  2  0
 11 12  2  0
 12  2  1  0
 13 14  1  0
 14 15  2  0
 16 17  1  0
 16 14  1  0
 18 17  1  6
 18 19  1  0
 18 20  1  0
 19  9  1  0
 20 29  1  0
 21 20  2  0
 23 22  1  0
 23 24  2  0
 25 24  1  0
 26 25  2  0
 27 26  1  0
 28 27  1  1
 28 30  1  0
 29 28  1  0
 30 31  2  0
 30 34  1  0
 32 33  2  0
 32 26  1  0
 33 23  1  0
M  END
$$$$
