YQY.pdb
     RDKit          3D

 34 35  0  0  1  0  0  0  0  0999 V2000
   11.9824  -21.7473   16.1846 O   0  0  0  0  0  0  0  0  0  0  0  0
   11.7869  -20.5082   16.8160 C   0  0  0  0  0  0  0  0  0  0  0  0
   12.6823  -19.9859   17.7123 C   0  0  0  0  0  0  0  0  0  0  0  0
   12.5027  -18.7710   18.3391 C   0  0  0  0  0  0  0  0  0  0  0  0
   11.3661  -18.0557   18.0439 C   0  0  0  0  0  0  0  0  0  0  0  0
   11.1116  -16.7353   18.6870 C   0  0  0  0  0  0  0  0  0  0  0  0
   10.7136  -17.0011   20.1208 C   0  0  2  0  0  0  0  0  0  0  0  0
    9.6248  -17.9432   20.1447 N   0  0  0  0  0  0  0  0  0  0  0  0
   10.3955  -15.7675   20.8664 C   0  0  0  0  0  0  0  0  0  0  0  0
   11.2585  -14.8655   20.9671 O   0  0  0  0  0  0  0  0  0  0  0  0
   10.4492  -18.5722   17.1373 C   0  0  0  0  0  0  0  0  0  0  0  0
   10.6520  -19.7851   16.5267 C   0  0  0  0  0  0  0  0  0  0  0  0
    7.5649  -13.4361   17.9829 N   0  0  0  0  0  0  0  0  0  0  0  0
    7.3554  -13.9760   19.2743 C   0  0  0  0  0  0  0  0  0  0  0  0
    7.1627  -15.2091   19.3489 O   0  0  0  0  0  0  0  0  0  0  0  0
    7.3650  -13.1337   20.4640 C   0  0  0  0  0  0  0  0  0  0  0  0
    7.3719  -13.9239   21.7280 C   0  0  0  0  0  0  0  0  0  0  0  0
    8.6856  -14.4271   22.1886 C   0  0  2  0  0  0  0  0  0  0  0  0
    9.1351  -15.5968   21.4630 N   0  0  0  0  0  0  0  0  0  0  0  0
    8.6092  -14.6807   23.6722 C   0  0  0  0  0  0  0  0  0  0  0  0
    8.0516  -13.8712   24.4725 O   0  0  0  0  0  0  0  0  0  0  0  0
    5.2736  -20.6777   23.2104 O   0  0  0  0  0  0  0  0  0  0  0  0
    5.8947  -19.6514   23.9136 C   0  0  0  0  0  0  0  0  0  0  0  0
    5.4943  -18.3349   23.7240 C   0  0  0  0  0  0  0  0  0  0  0  0
    6.1144  -17.3241   24.4243 C   0  0  0  0  0  0  0  0  0  0  0  0
    7.1283  -17.6162   25.3094 C   0  0  0  0  0  0  0  0  0  0  0  0
    7.7801  -16.5219   26.0367 C   0  0  0  0  0  0  0  0  0  0  0  0
    9.1641  -16.2371   25.5666 C   0  0  2  0  0  0  0  0  0  0  0  0
    9.1906  -15.8773   24.1551 N   0  0  0  0  0  0  0  0  0  0  0  0
   10.0129  -17.4256   25.7511 C   0  0  0  0  0  0  0  0  0  0  0  0
   10.5221  -17.9661   24.7354 O   0  0  0  0  0  0  0  0  0  0  0  0
    7.5464  -18.9380   25.5147 C   0  0  0  0  0  0  0  0  0  0  0  0
    6.9126  -19.9304   24.8046 C   0  0  0  0  0  0  0  0  0  0  0  0
   10.3115  -18.0158   26.9666 O   0  0  0  0  0  0  0  0  0  0  0  0
  2  1  1  0
  3  2  2  0
  4  3  1  0
  5 11  1  0
  5  4  2  0
  6  5  1  0
  7  6  1  0
  7  8  1  6
  9  7  1  0
  9 10  2  0
 11 12  2  0
 12  2  1  0
 13 14  1  0
 14 15  2  0
 16 17  1  0
 16 14  1  0
 18 17  1  6
 18 19  1  0
 18 20  1  0
 19  9  1  0
 20 29  1  0
 21 20  2  0
 23 22  1  0
 23 24  2  0
 25 24  1  0
 26 25  2  0
 27 26  1  0
 28 27  1  6
 28 30  1  0
 29 28  1  0
 30 31  2  0
 30 34  1  0
 32 33  2  0
 32 26  1  0
 33 23  1  0
M  END
$$$$
