YQY.pdb
     RDKit          3D

 34 35  0  0  1  0  0  0  0  0999 V2000
    7.7804  -12.4209   16.1971 O   0  0  0  0  0  0  0  0  0  0  0  0
    7.8969  -13.0897   17.4265 C   0  0  0  0  0  0  0  0  0  0  0  0
    9.0228  -13.0163   18.2042 C   0  0  0  0  0  0  0  0  0  0  0  0
    9.1503  -13.6677   19.4127 C   0  0  0  0  0  0  0  0  0  0  0  0
    8.0903  -14.4259   19.8507 C   0  0  0  0  0  0  0  0  0  0  0  0
    8.1636  -15.1554   21.1485 C   0  0  0  0  0  0  0  0  0  0  0  0
    8.5372  -16.5873   20.8406 C   0  0  2  0  0  0  0  0  0  0  0  0
    7.4060  -17.2577   20.2538 N   0  0  0  0  0  0  0  0  0  0  0  0
    9.0607  -17.3096   22.0167 C   0  0  0  0  0  0  0  0  0  0  0  0
    8.2690  -17.9231   22.7687 O   0  0  0  0  0  0  0  0  0  0  0  0
    6.9422  -14.5100   19.0734 C   0  0  0  0  0  0  0  0  0  0  0  0
    6.8407  -13.8511   17.8730 C   0  0  0  0  0  0  0  0  0  0  0  0
   14.8077  -19.9143   22.7705 N   0  0  0  0  0  0  0  0  0  0  0  0
   14.4899  -19.4184   24.0574 C   0  0  0  0  0  0  0  0  0  0  0  0
   15.4196  -19.3704   24.8921 O   0  0  0  0  0  0  0  0  0  0  0  0
   13.1406  -18.9818   24.3949 C   0  0  0  0  0  0  0  0  0  0  0  0
   12.3936  -18.4588   23.2157 C   0  0  0  0  0  0  0  0  0  0  0  0
   11.0632  -17.8671   23.4822 C   0  0  2  0  0  0  0  0  0  0  0  0
   10.4368  -17.3148   22.2992 N   0  0  0  0  0  0  0  0  0  0  0  0
   11.2052  -16.8392   24.5751 C   0  0  0  0  0  0  0  0  0  0  0  0
   12.0964  -15.9383   24.5495 O   0  0  0  0  0  0  0  0  0  0  0  0
    6.0717  -10.8785   28.1950 O   0  0  0  0  0  0  0  0  0  0  0  0
    6.6442  -12.0025   27.6096 C   0  0  0  0  0  0  0  0  0  0  0  0
    6.1131  -12.5246   26.4372 C   0  0  0  0  0  0  0  0  0  0  0  0
    6.6859  -13.6381   25.8636 C   0  0  0  0  0  0  0  0  0  0  0  0
    7.7811  -14.2327   26.4496 C   0  0  0  0  0  0  0  0  0  0  0  0
    8.3680  -15.4232   25.8255 C   0  0  0  0  0  0  0  0  0  0  0  0
    9.7509  -15.7186   26.2923 C   0  0  2  0  0  0  0  0  0  0  0  0
   10.2920  -16.9113   25.6541 N   0  0  0  0  0  0  0  0  0  0  0  0
    9.7547  -15.9378   27.7479 C   0  0  0  0  0  0  0  0  0  0  0  0
    9.5610  -17.1025   28.1825 O   0  0  0  0  0  0  0  0  0  0  0  0
    8.3317  -13.7208   27.6325 C   0  0  0  0  0  0  0  0  0  0  0  0
    7.7432  -12.6085   28.1867 C   0  0  0  0  0  0  0  0  0  0  0  0
    9.9588  -14.9592   28.7048 O   0  0  0  0  0  0  0  0  0  0  0  0
  2  1  1  0
  3  2  2  0
  4  3  1  0
  5 11  1  0
  5  4  2  0
  6  5  1  0
  7  6  1  0
  7  8  1  1
  9  7  1  0
  9 10  2  0
 11 12  2  0
 12  2  1  0
 13 14  1  0
 14 15  2  0
 16 17  1  0
 16 14  1  0
 18 17  1  6
 18 19  1  0
 18 20  1  0
 19  9  1  0
 20 29  1  0
 21 20  2  0
 23 22  1  0
 23 24  2  0
 25 24  1  0
 26 25  2  0
 27 26  1  0
 28 27  1  6
 28 30  1  0
 29 28  1  0
 30 31  2  0
 30 34  1  0
 32 33  2  0
 32 26  1  0
 33 23  1  0
M  END
$$$$
