YQY.pdb
     RDKit          3D

 34 35  0  0  1  0  0  0  0  0999 V2000
   16.2057  -18.0605   13.7594 O   0  0  0  0  0  0  0  0  0  0  0  0
   15.5540  -17.7036   14.9511 C   0  0  0  0  0  0  0  0  0  0  0  0
   15.5753  -16.4282   15.4518 C   0  0  0  0  0  0  0  0  0  0  0  0
   14.9400  -16.0644   16.6201 C   0  0  0  0  0  0  0  0  0  0  0  0
   14.2540  -17.0360   17.3098 C   0  0  0  0  0  0  0  0  0  0  0  0
   13.5456  -16.7087   18.5798 C   0  0  0  0  0  0  0  0  0  0  0  0
   12.0630  -16.7197   18.2851 C   0  0  2  0  0  0  0  0  0  0  0  0
   11.7535  -15.6550   17.3664 N   0  0  0  0  0  0  0  0  0  0  0  0
   11.2347  -16.6571   19.5053 C   0  0  0  0  0  0  0  0  0  0  0  0
   10.8476  -15.5457   19.9339 O   0  0  0  0  0  0  0  0  0  0  0  0
   14.2234  -18.3335   16.8148 C   0  0  0  0  0  0  0  0  0  0  0  0
   14.8648  -18.6697   15.6483 C   0  0  0  0  0  0  0  0  0  0  0  0
    7.2219  -20.6294   21.2136 N   0  0  0  0  0  0  0  0  0  0  0  0
    7.4331  -20.0864   22.5034 C   0  0  0  0  0  0  0  0  0  0  0  0
    6.4994  -20.2016   23.3270 O   0  0  0  0  0  0  0  0  0  0  0  0
    8.6827  -19.4242   22.8570 C   0  0  0  0  0  0  0  0  0  0  0  0
    9.6043  -19.2766   21.6947 C   0  0  0  0  0  0  0  0  0  0  0  0
   10.0817  -17.9077   21.3962 C   0  0  2  0  0  0  0  0  0  0  0  0
   10.8775  -17.8313   20.1888 N   0  0  0  0  0  0  0  0  0  0  0  0
   10.8300  -17.3878   22.5966 C   0  0  0  0  0  0  0  0  0  0  0  0
   12.0192  -17.7381   22.8605 O   0  0  0  0  0  0  0  0  0  0  0  0
   11.4461  -14.2602   30.7795 O   0  0  0  0  0  0  0  0  0  0  0  0
   10.9857  -14.6042   29.5133 C   0  0  0  0  0  0  0  0  0  0  0  0
   10.2959  -15.7946   29.3222 C   0  0  0  0  0  0  0  0  0  0  0  0
    9.8431  -16.1282   28.0650 C   0  0  0  0  0  0  0  0  0  0  0  0
   10.0731  -15.2855   27.0003 C   0  0  0  0  0  0  0  0  0  0  0  0
    9.5895  -15.6667   25.6691 C   0  0  0  0  0  0  0  0  0  0  0  0
   10.6757  -16.0802   24.7380 C   0  0  2  0  0  0  0  0  0  0  0  0
   10.1498  -16.4753   23.4380 N   0  0  0  0  0  0  0  0  0  0  0  0
   11.4119  -17.2244   25.3000 C   0  0  0  0  0  0  0  0  0  0  0  0
   12.5889  -17.0430   25.7059 O   0  0  0  0  0  0  0  0  0  0  0  0
   10.7669  -14.0800   27.1728 C   0  0  0  0  0  0  0  0  0  0  0  0
   11.2092  -13.7681   28.4368 C   0  0  0  0  0  0  0  0  0  0  0  0
   10.9171  -18.5103   25.4283 O   0  0  0  0  0  0  0  0  0  0  0  0
  2  1  1  0
  3  2  2  0
  4  3  1  0
  5 11  1  0
  5  4  2  0
  6  5  1  0
  7  6  1  0
  7  8  1  6
  9  7  1  0
  9 10  2  0
 11 12  2  0
 12  2  1  0
 13 14  1  0
 14 15  2  0
 16 17  1  0
 16 14  1  0
 18 17  1  1
 18 19  1  0
 18 20  1  0
 19  9  1  0
 20 29  1  0
 21 20  2  0
 23 22  1  0
 23 24  2  0
 25 24  1  0
 26 25  2  0
 27 26  1  0
 28 27  1  1
 28 30  1  0
 29 28  1  0
 30 31  2  0
 30 34  1  0
 32 33  2  0
 32 26  1  0
 33 23  1  0
M  END
$$$$
