YQY.pdb
     RDKit          3D

 34 35  0  0  1  0  0  0  0  0999 V2000
   14.4812  -19.0084   10.5406 O   0  0  0  0  0  0  0  0  0  0  0  0
   14.3540  -19.5418   11.8334 C   0  0  0  0  0  0  0  0  0  0  0  0
   15.1474  -20.5596   12.2944 C   0  0  0  0  0  0  0  0  0  0  0  0
   15.0331  -21.0924   13.5609 C   0  0  0  0  0  0  0  0  0  0  0  0
   14.0730  -20.5703   14.3952 C   0  0  0  0  0  0  0  0  0  0  0  0
   13.8975  -21.1014   15.7768 C   0  0  0  0  0  0  0  0  0  0  0  0
   13.2714  -22.4719   15.6572 C   0  0  2  0  0  0  0  0  0  0  0  0
   11.9958  -22.3556   14.9993 N   0  0  0  0  0  0  0  0  0  0  0  0
   13.1646  -23.1695   16.9537 C   0  0  0  0  0  0  0  0  0  0  0  0
   12.0540  -23.2411   17.5281 O   0  0  0  0  0  0  0  0  0  0  0  0
   13.2612  -19.5383   13.9420 C   0  0  0  0  0  0  0  0  0  0  0  0
   13.3956  -19.0254   12.6755 C   0  0  0  0  0  0  0  0  0  0  0  0
   15.3981  -28.5808   18.8940 N   0  0  0  0  0  0  0  0  0  0  0  0
   16.3683  -27.6610   18.4295 C   0  0  0  0  0  0  0  0  0  0  0  0
   17.4873  -28.1251   18.1199 O   0  0  0  0  0  0  0  0  0  0  0  0
   16.0767  -26.2373   18.3154 C   0  0  0  0  0  0  0  0  0  0  0  0
   14.6566  -25.9139   18.6328 C   0  0  0  0  0  0  0  0  0  0  0  0
   14.3236  -24.4812   18.7990 C   0  0  2  0  0  0  0  0  0  0  0  0
   14.2962  -23.7527   17.5478 N   0  0  0  0  0  0  0  0  0  0  0  0
   15.2913  -23.8743   19.7820 C   0  0  0  0  0  0  0  0  0  0  0  0
   15.4291  -24.3167   20.9618 O   0  0  0  0  0  0  0  0  0  0  0  0
   11.4110  -18.6988   19.6955 O   0  0  0  0  0  0  0  0  0  0  0  0
   12.5467  -19.3809   20.1180 C   0  0  0  0  0  0  0  0  0  0  0  0
   13.8003  -19.0005   19.6562 C   0  0  0  0  0  0  0  0  0  0  0  0
   14.9203  -19.6811   20.0795 C   0  0  0  0  0  0  0  0  0  0  0  0
   14.7991  -20.7354   20.9572 C   0  0  0  0  0  0  0  0  0  0  0  0
   16.0053  -21.4510   21.3863 C   0  0  0  0  0  0  0  0  0  0  0  0
   16.8359  -21.9481   20.2546 C   0  0  2  0  0  0  0  0  0  0  0  0
   16.0595  -22.7718   19.3373 N   0  0  0  0  0  0  0  0  0  0  0  0
   17.9503  -22.7617   20.7675 C   0  0  0  0  0  0  0  0  0  0  0  0
   17.6875  -23.8488   21.3439 O   0  0  0  0  0  0  0  0  0  0  0  0
   13.5432  -21.1343   21.4346 C   0  0  0  0  0  0  0  0  0  0  0  0
   12.4394  -20.4399   20.9983 C   0  0  0  0  0  0  0  0  0  0  0  0
   19.2915  -22.4352   20.6701 O   0  0  0  0  0  0  0  0  0  0  0  0
  2  1  1  0
  3  2  2  0
  4  3  1  0
  5 11  1  0
  5  4  2  0
  6  5  1  0
  7  6  1  0
  7  8  1  1
  9  7  1  0
  9 10  2  0
 11 12  2  0
 12  2  1  0
 13 14  1  0
 14 15  2  0
 16 17  1  0
 16 14  1  0
 18 17  1  6
 18 19  1  0
 18 20  1  0
 19  9  1  0
 20 29  1  0
 21 20  2  0
 23 22  1  0
 23 24  2  0
 25 24  1  0
 26 25  2  0
 27 26  1  0
 28 27  1  1
 28 30  1  0
 29 28  1  0
 30 31  2  0
 30 34  1  0
 32 33  2  0
 32 26  1  0
 33 23  1  0
M  END
$$$$
