YQY.pdb
     RDKit          3D

 34 35  0  0  1  0  0  0  0  0999 V2000
    4.8045   -9.8214   27.0138 O   0  0  0  0  0  0  0  0  0  0  0  0
    5.5081  -11.0025   26.7271 C   0  0  0  0  0  0  0  0  0  0  0  0
    6.4939  -11.0636   25.7773 C   0  0  0  0  0  0  0  0  0  0  0  0
    7.1922  -12.2162   25.4861 C   0  0  0  0  0  0  0  0  0  0  0  0
    6.8768  -13.3554   26.1885 C   0  0  0  0  0  0  0  0  0  0  0  0
    7.5940  -14.6346   25.9221 C   0  0  0  0  0  0  0  0  0  0  0  0
    6.8125  -15.3778   24.8629 C   0  0  2  0  0  0  0  0  0  0  0  0
    5.9353  -16.3268   25.4981 N   0  0  0  0  0  0  0  0  0  0  0  0
    7.6787  -16.0146   23.8514 C   0  0  0  0  0  0  0  0  0  0  0  0
    7.7636  -17.2634   23.8075 O   0  0  0  0  0  0  0  0  0  0  0  0
    5.8797  -13.3090   27.1545 C   0  0  0  0  0  0  0  0  0  0  0  0
    5.1991  -12.1477   27.4253 C   0  0  0  0  0  0  0  0  0  0  0  0
    8.2772  -13.1917   18.2263 N   0  0  0  0  0  0  0  0  0  0  0  0
    8.6729  -14.5460   18.1151 C   0  0  0  0  0  0  0  0  0  0  0  0
    8.4823  -15.1037   17.0124 O   0  0  0  0  0  0  0  0  0  0  0  0
    9.2767  -15.2586   19.2343 C   0  0  0  0  0  0  0  0  0  0  0  0
    8.7420  -14.8161   20.5536 C   0  0  0  0  0  0  0  0  0  0  0  0
    9.0138  -15.6995   21.7097 C   0  0  2  0  0  0  0  0  0  0  0  0
    8.4075  -15.2333   22.9393 N   0  0  0  0  0  0  0  0  0  0  0  0
   10.5054  -15.8662   21.8463 C   0  0  0  0  0  0  0  0  0  0  0  0
   11.2318  -16.2899   20.8979 O   0  0  0  0  0  0  0  0  0  0  0  0
    9.7094  -15.3335   29.1812 O   0  0  0  0  0  0  0  0  0  0  0  0
   10.3677  -15.7555   28.0313 C   0  0  0  0  0  0  0  0  0  0  0  0
   11.1197  -14.8545   27.2883 C   0  0  0  0  0  0  0  0  0  0  0  0
   11.7687  -15.2803   26.1506 C   0  0  0  0  0  0  0  0  0  0  0  0
   11.6731  -16.5944   25.7499 C   0  0  0  0  0  0  0  0  0  0  0  0
   12.3653  -17.0222   24.5297 C   0  0  0  0  0  0  0  0  0  0  0  0
   12.4166  -15.9713   23.4758 C   0  0  2  0  0  0  0  0  0  0  0  0
   11.0832  -15.5264   23.0929 N   0  0  0  0  0  0  0  0  0  0  0  0
   13.0859  -16.4958   22.2742 C   0  0  0  0  0  0  0  0  0  0  0  0
   12.4506  -16.5098   21.1882 O   0  0  0  0  0  0  0  0  0  0  0  0
   10.9194  -17.5187   26.4861 C   0  0  0  0  0  0  0  0  0  0  0  0
   10.2805  -17.0707   27.6183 C   0  0  0  0  0  0  0  0  0  0  0  0
   14.3798  -16.9840   22.2266 O   0  0  0  0  0  0  0  0  0  0  0  0
  2  1  1  0
  3  2  2  0
  4  3  1  0
  5 11  1  0
  5  4  2  0
  6  5  1  0
  7  6  1  0
  7  8  1  1
  9  7  1  0
  9 10  2  0
 11 12  2  0
 12  2  1  0
 13 14  1  0
 14 15  2  0
 16 17  1  0
 16 14  1  0
 18 17  1  6
 18 19  1  0
 18 20  1  0
 19  9  1  0
 20 29  1  0
 21 20  2  0
 23 22  1  0
 23 24  2  0
 25 24  1  0
 26 25  2  0
 27 26  1  0
 28 27  1  1
 28 30  1  0
 29 28  1  0
 30 31  2  0
 30 34  1  0
 32 33  2  0
 32 26  1  0
 33 23  1  0
M  END
$$$$
