AGD.pdb
     RDKit          3D

 18 17  0  0  1  0  0  0  0  0999 V2000
   18.4395  -11.9861  -16.3619 C   0  0  0  0  0  0  0  0  0  0  0  0
   18.8153  -10.5139  -16.4289 C   0  0  2  0  0  0  0  0  0  0  0  0
   19.7990  -10.2516  -17.4602 N   0  0  0  0  0  0  0  0  0  0  0  0
   19.3048  -10.1319  -15.0847 C   0  0  0  0  0  0  0  0  0  0  0  0
   18.5187  -10.1985  -14.1183 O   0  0  0  0  0  0  0  0  0  0  0  0
   20.6344   -9.6953  -14.8767 N   0  0  0  0  0  0  0  0  0  0  0  0
   21.0556   -9.2110  -13.5695 C   0  0  0  0  0  0  0  0  0  0  0  0
   21.4885   -7.7913  -13.6583 C   0  0  0  0  0  0  0  0  0  0  0  0
   21.8770   -7.1867  -12.6218 O   0  0  0  0  0  0  0  0  0  0  0  0
   21.4882   -7.0680  -14.8702 N   0  0  0  0  0  0  0  0  0  0  0  0
   21.9807   -5.6880  -14.9282 C   0  0  1  0  0  0  0  0  0  0  0  0
   22.5455   -5.3739  -16.2641 C   0  0  0  0  0  0  0  0  0  0  0  0
   23.0319   -3.9972  -16.3469 C   0  0  0  0  0  0  0  0  0  0  0  0
   23.0926   -3.2503  -15.3530 O   0  0  0  0  0  0  0  0  0  0  0  0
   20.8076   -4.7930  -14.6728 C   0  0  0  0  0  0  0  0  0  0  0  0
   21.0190   -3.6136  -13.9309 O   0  0  0  0  0  0  0  0  0  0  0  0
   23.4447   -3.5057  -17.6004 O   0  0  0  0  0  0  0  0  0  0  0  0
   19.6602   -5.0085  -15.0636 O   0  0  0  0  0  0  0  0  0  0  0  0
  2  1  1  1
  2  3  1  0
  4  5  2  0
  4  2  1  0
  6  4  1  0
  7  6  1  0
  8  7  1  0
  8 10  1  0
  9  8  2  0
 11 12  1  6
 11 10  1  0
 12 13  1  0
 13 14  2  0
 13 17  1  0
 15 11  1  0
 16 15  1  0
 18 15  2  0
M  END
$$$$
