AGD.pdb
     RDKit          3D

 18 17  0  0  1  0  0  0  0  0999 V2000
   15.4052  -11.8642  -16.2762 C   0  0  0  0  0  0  0  0  0  0  0  0
   15.8582  -10.4241  -16.0912 C   0  0  2  0  0  0  0  0  0  0  0  0
   16.9237  -10.0688  -17.0068 N   0  0  0  0  0  0  0  0  0  0  0  0
   16.2707  -10.2798  -14.6765 C   0  0  0  0  0  0  0  0  0  0  0  0
   15.4164  -10.4442  -13.7823 O   0  0  0  0  0  0  0  0  0  0  0  0
   17.6027   -9.9606  -14.3218 N   0  0  0  0  0  0  0  0  0  0  0  0
   18.0081   -9.9377  -12.9233 C   0  0  0  0  0  0  0  0  0  0  0  0
   18.7188   -8.6694  -12.6112 C   0  0  0  0  0  0  0  0  0  0  0  0
   19.1088   -8.4410  -11.4337 O   0  0  0  0  0  0  0  0  0  0  0  0
   18.9870   -7.6852  -13.5865 N   0  0  0  0  0  0  0  0  0  0  0  0
   19.7761   -6.4928  -13.2615 C   0  0  1  0  0  0  0  0  0  0  0  0
   21.1583   -6.6015  -13.7907 C   0  0  0  0  0  0  0  0  0  0  0  0
   21.9416   -5.3925  -13.5384 C   0  0  0  0  0  0  0  0  0  0  0  0
   21.4956   -4.4337  -12.8820 O   0  0  0  0  0  0  0  0  0  0  0  0
   19.0963   -5.3271  -13.9108 C   0  0  0  0  0  0  0  0  0  0  0  0
   19.3940   -4.0339  -13.4364 O   0  0  0  0  0  0  0  0  0  0  0  0
   23.2473   -5.3180  -14.0607 O   0  0  0  0  0  0  0  0  0  0  0  0
   18.2887   -5.4100  -14.8363 O   0  0  0  0  0  0  0  0  0  0  0  0
  2  1  1  1
  2  3  1  0
  4  5  2  0
  4  2  1  0
  6  4  1  0
  7  6  1  0
  8  7  1  0
  8 10  1  0
  9  8  2  0
 11 12  1  6
 11 10  1  0
 12 13  1  0
 13 14  2  0
 13 17  1  0
 15 11  1  0
 16 15  1  0
 18 15  2  0
M  END
$$$$
