AGD.pdb
     RDKit          3D

 18 17  0  0  1  0  0  0  0  0999 V2000
   18.0503   -9.7970  -17.5925 C   0  0  0  0  0  0  0  0  0  0  0  0
   19.1146  -10.6777  -16.9563 C   0  0  2  0  0  0  0  0  0  0  0  0
   18.9447  -10.7828  -15.5210 N   0  0  0  0  0  0  0  0  0  0  0  0
   20.4279  -10.0979  -17.3189 C   0  0  0  0  0  0  0  0  0  0  0  0
   21.1169  -10.6691  -18.1881 O   0  0  0  0  0  0  0  0  0  0  0  0
   20.9133   -8.9200  -16.7036 N   0  0  0  0  0  0  0  0  0  0  0  0
   22.2539   -8.4330  -16.9975 C   0  0  0  0  0  0  0  0  0  0  0  0
   22.5036   -7.1474  -16.2935 C   0  0  0  0  0  0  0  0  0  0  0  0
   23.6359   -6.5976  -16.3720 O   0  0  0  0  0  0  0  0  0  0  0  0
   21.5164   -6.4942  -15.5249 N   0  0  0  0  0  0  0  0  0  0  0  0
   21.8110   -5.2423  -14.8206 C   0  0  1  0  0  0  0  0  0  0  0  0
   20.7670   -4.2201  -15.0804 C   0  0  0  0  0  0  0  0  0  0  0  0
   20.9808   -3.0030  -14.2984 C   0  0  0  0  0  0  0  0  0  0  0  0
   22.0951   -2.6926  -13.8387 O   0  0  0  0  0  0  0  0  0  0  0  0
   21.8304   -5.5573  -13.3567 C   0  0  0  0  0  0  0  0  0  0  0  0
   22.1914   -4.5319  -12.4598 O   0  0  0  0  0  0  0  0  0  0  0  0
   19.8808   -2.1562  -14.0609 O   0  0  0  0  0  0  0  0  0  0  0  0
   21.5533   -6.6533  -12.8692 O   0  0  0  0  0  0  0  0  0  0  0  0
  2  1  1  1
  2  3  1  0
  4  5  2  0
  4  2  1  0
  6  4  1  0
  7  6  1  0
  8  7  1  0
  8 10  1  0
  9  8  2  0
 11 12  1  1
 11 10  1  0
 12 13  1  0
 13 14  2  0
 13 17  1  0
 15 11  1  0
 16 15  1  0
 18 15  2  0
M  END
$$$$
