AGD.pdb
     RDKit          3D

 18 17  0  0  1  0  0  0  0  0999 V2000
   12.7773   -9.5516   -9.6009 C   0  0  0  0  0  0  0  0  0  0  0  0
   14.1047   -8.8259   -9.4448 C   0  0  2  0  0  0  0  0  0  0  0  0
   13.9607   -7.3923   -9.6002 N   0  0  0  0  0  0  0  0  0  0  0  0
   15.0320   -9.4023  -10.4450 C   0  0  0  0  0  0  0  0  0  0  0  0
   15.3024  -10.6186  -10.3820 O   0  0  0  0  0  0  0  0  0  0  0  0
   15.6133   -8.6078  -11.4611 N   0  0  0  0  0  0  0  0  0  0  0  0
   16.5435   -9.1953  -12.4152 C   0  0  0  0  0  0  0  0  0  0  0  0
   17.9062   -8.6323  -12.2233 C   0  0  0  0  0  0  0  0  0  0  0  0
   18.8533   -9.0125  -12.9644 O   0  0  0  0  0  0  0  0  0  0  0  0
   18.2023   -7.6716  -11.2327 N   0  0  0  0  0  0  0  0  0  0  0  0
   19.5161   -7.0229  -11.1761 C   0  0  1  0  0  0  0  0  0  0  0  0
   19.7463   -6.1686  -12.3676 C   0  0  0  0  0  0  0  0  0  0  0  0
   21.0130   -5.4420  -12.2882 C   0  0  0  0  0  0  0  0  0  0  0  0
   21.7735   -5.5326  -11.3071 O   0  0  0  0  0  0  0  0  0  0  0  0
   19.5275   -6.1625   -9.9505 C   0  0  0  0  0  0  0  0  0  0  0  0
   18.3821   -6.1581   -9.1294 O   0  0  0  0  0  0  0  0  0  0  0  0
   21.3786   -4.6115  -13.3652 O   0  0  0  0  0  0  0  0  0  0  0  0
   20.4685   -5.4505   -9.5997 O   0  0  0  0  0  0  0  0  0  0  0  0
  2  1  1  6
  2  3  1  0
  4  5  2  0
  4  2  1  0
  6  4  1  0
  7  6  1  0
  8  7  1  0
  8 10  1  0
  9  8  2  0
 11 12  1  6
 11 10  1  0
 12 13  1  0
 13 14  2  0
 13 17  1  0
 15 11  1  0
 16 15  1  0
 18 15  2  0
M  END
$$$$
