AGD.pdb
     RDKit          3D

 18 17  0  0  1  0  0  0  0  0999 V2000
   20.9847  -12.6059  -17.7712 C   0  0  0  0  0  0  0  0  0  0  0  0
   19.7277  -11.8904  -17.3009 C   0  0  2  0  0  0  0  0  0  0  0  0
   19.1670  -11.0432  -18.3343 N   0  0  0  0  0  0  0  0  0  0  0  0
   20.0965  -11.1203  -16.0912 C   0  0  0  0  0  0  0  0  0  0  0  0
   20.3304  -11.7395  -15.0336 O   0  0  0  0  0  0  0  0  0  0  0  0
   20.1867   -9.7085  -16.1103 N   0  0  0  0  0  0  0  0  0  0  0  0
   20.6602   -8.9838  -14.9393 C   0  0  0  0  0  0  0  0  0  0  0  0
   20.7166   -7.5249  -15.2212 C   0  0  0  0  0  0  0  0  0  0  0  0
   20.7287   -7.1155  -16.4141 O   0  0  0  0  0  0  0  0  0  0  0  0
   20.7574   -6.5516  -14.2001 N   0  0  0  0  0  0  0  0  0  0  0  0
   20.7563   -5.1202  -14.5183 C   0  0  1  0  0  0  0  0  0  0  0  0
   19.9407   -4.3530  -13.5444 C   0  0  0  0  0  0  0  0  0  0  0  0
   19.9508   -2.9181  -13.8267 C   0  0  0  0  0  0  0  0  0  0  0  0
   20.5225   -2.0967  -13.0865 O   0  0  0  0  0  0  0  0  0  0  0  0
   22.1767   -4.6526  -14.4391 C   0  0  0  0  0  0  0  0  0  0  0  0
   23.1429   -5.5418  -13.9273 O   0  0  0  0  0  0  0  0  0  0  0  0
   19.2873   -2.4564  -14.9799 O   0  0  0  0  0  0  0  0  0  0  0  0
   22.5717   -3.5403  -14.7892 O   0  0  0  0  0  0  0  0  0  0  0  0
  2  1  1  6
  2  3  1  0
  4  5  2  0
  4  2  1  0
  6  4  1  0
  7  6  1  0
  8  7  1  0
  8 10  1  0
  9  8  2  0
 11 12  1  1
 11 10  1  0
 12 13  1  0
 13 14  2  0
 13 17  1  0
 15 11  1  0
 16 15  1  0
 18 15  2  0
M  END
$$$$
