AGD.pdb
     RDKit          3D

 18 17  0  0  1  0  0  0  0  0999 V2000
   27.3128  -13.0018  -15.6861 C   0  0  0  0  0  0  0  0  0  0  0  0
   27.0864  -11.9486  -16.7597 C   0  0  2  0  0  0  0  0  0  0  0  0
   28.0301  -10.8541  -16.6534 N   0  0  0  0  0  0  0  0  0  0  0  0
   25.6854  -11.4887  -16.6245 C   0  0  0  0  0  0  0  0  0  0  0  0
   24.7653  -12.3218  -16.7508 O   0  0  0  0  0  0  0  0  0  0  0  0
   25.3722  -10.1349  -16.3587 N   0  0  0  0  0  0  0  0  0  0  0  0
   23.9887   -9.7213  -16.1700 C   0  0  0  0  0  0  0  0  0  0  0  0
   23.9224   -8.2750  -15.8311 C   0  0  0  0  0  0  0  0  0  0  0  0
   24.9868   -7.6197  -15.6625 O   0  0  0  0  0  0  0  0  0  0  0  0
   22.7024   -7.5806  -15.6858 N   0  0  0  0  0  0  0  0  0  0  0  0
   22.6789   -6.1362  -15.4344 C   0  0  1  0  0  0  0  0  0  0  0  0
   21.8535   -5.4276  -16.4438 C   0  0  0  0  0  0  0  0  0  0  0  0
   21.9168   -3.9751  -16.2860 C   0  0  0  0  0  0  0  0  0  0  0  0
   22.8595   -3.4078  -15.7040 O   0  0  0  0  0  0  0  0  0  0  0  0
   22.0702   -5.9368  -14.0808 C   0  0  0  0  0  0  0  0  0  0  0  0
   22.4663   -4.8105  -13.3320 O   0  0  0  0  0  0  0  0  0  0  0  0
   20.8689   -3.1965  -16.8146 O   0  0  0  0  0  0  0  0  0  0  0  0
   21.2423   -6.6874  -13.5643 O   0  0  0  0  0  0  0  0  0  0  0  0
  2  1  1  1
  2  3  1  0
  4  5  2  0
  4  2  1  0
  6  4  1  0
  7  6  1  0
  8  7  1  0
  8 10  1  0
  9  8  2  0
 11 12  1  6
 11 10  1  0
 12 13  1  0
 13 14  2  0
 13 17  1  0
 15 11  1  0
 16 15  1  0
 18 15  2  0
M  END
$$$$
