IEM.pdb
     RDKit          3D

 26 25  0  0  1  0  0  0  0  0999 V2000
    7.5104  -12.0328   19.3454 C   0  0  0  0  0  0  0  0  0  0  0  0
    7.2384  -13.4991   19.3011 C   0  0  0  0  0  0  0  0  0  0  0  0
    7.5430  -14.2038   20.6314 C   0  0  2  0  0  0  0  0  0  0  0  0
    8.6413  -13.3271   21.2617 C   0  0  0  0  0  0  0  0  0  0  0  0
    8.1533  -15.5414   20.3439 C   0  0  2  0  0  0  0  0  0  0  0  0
    7.2250  -16.3239   19.5601 N   0  0  0  0  0  0  0  0  0  0  0  0
    8.5836  -16.2531   21.5663 C   0  0  0  0  0  0  0  0  0  0  0  0
    7.7628  -16.6837   22.4122 O   0  0  0  0  0  0  0  0  0  0  0  0
    9.9706  -16.5074   21.8824 N   0  0  0  0  0  0  0  0  0  0  0  0
   10.3882  -17.0984   23.1001 C   0  0  1  0  0  0  0  0  0  0  0  0
   11.6680  -17.8308   23.0075 C   0  0  0  0  0  0  0  0  0  0  0  0
   12.5737  -17.4834   21.8683 C   0  0  0  0  0  0  0  0  0  0  0  0
   13.2306  -18.6237   21.2169 C   0  0  0  0  0  0  0  0  0  0  0  0
   13.4935  -19.7144   21.8318 O   0  0  0  0  0  0  0  0  0  0  0  0
   10.3890  -16.1664   24.2516 C   0  0  0  0  0  0  0  0  0  0  0  0
   10.7457  -14.9652   24.1738 O   0  0  0  0  0  0  0  0  0  0  0  0
   13.5965  -18.5583   19.8849 O   0  0  0  0  0  0  0  0  0  0  0  0
    7.2709  -12.1816   25.7714 C   0  0  0  0  0  0  0  0  0  0  0  0
    8.4095  -12.2674   27.1715 S   0  0  0  0  0  0  0  0  0  0  0  0
    8.4695  -13.9761   27.7764 C   0  0  0  0  0  0  0  0  0  0  0  0
    8.5616  -14.9568   26.6195 C   0  0  0  0  0  0  0  0  0  0  0  0
    9.8792  -15.6998   26.6353 C   0  0  2  0  0  0  0  0  0  0  0  0
    9.9666  -16.6387   25.5170 N   0  0  0  0  0  0  0  0  0  0  0  0
    9.9322  -16.4775   27.8886 C   0  0  0  0  0  0  0  0  0  0  0  0
    9.9225  -17.8576   27.8287 O   0  0  0  0  0  0  0  0  0  0  0  0
    9.9859  -15.9335   29.0183 O   0  0  0  0  0  0  0  0  0  0  0  0
  1  2  1  0
  2  3  1  0
  3  4  1  1
  5  3  1  0
  5  6  1  1
  7  8  2  0
  7  5  1  0
  9  7  1  0
 10  9  1  0
 10 11  1  6
 12 13  1  0
 12 11  1  0
 13 14  2  0
 15 23  1  0
 15 10  1  0
 16 15  2  0
 17 13  1  0
 19 18  1  0
 20 19  1  0
 20 21  1  0
 22 21  1  6
 22 24  1  0
 22 23  1  0
 24 25  1  0
 26 24  2  0
M  END
$$$$
