IEM.pdb
     RDKit          3D

 26 25  0  0  1  0  0  0  0  0999 V2000
    6.1552  -13.6018   19.0916 C   0  0  0  0  0  0  0  0  0  0  0  0
    7.4779  -14.2149   19.4088 C   0  0  0  0  0  0  0  0  0  0  0  0
    8.3890  -13.2829   20.2214 C   0  0  2  0  0  0  0  0  0  0  0  0
    8.8282  -12.2218   19.1952 C   0  0  0  0  0  0  0  0  0  0  0  0
    9.6158  -14.0389   20.6309 C   0  0  2  0  0  0  0  0  0  0  0  0
   10.1199  -14.7713   19.4917 N   0  0  0  0  0  0  0  0  0  0  0  0
    9.3883  -14.9177   21.7980 C   0  0  0  0  0  0  0  0  0  0  0  0
    8.7197  -14.5468   22.7930 O   0  0  0  0  0  0  0  0  0  0  0  0
    9.9128  -16.2614   21.8859 N   0  0  0  0  0  0  0  0  0  0  0  0
    9.8090  -17.0548   23.0548 C   0  0  1  0  0  0  0  0  0  0  0  0
   10.4377  -18.3867   22.9377 C   0  0  0  0  0  0  0  0  0  0  0  0
    9.5550  -19.5265   22.5371 C   0  0  0  0  0  0  0  0  0  0  0  0
   10.0461  -20.3385   21.4165 C   0  0  0  0  0  0  0  0  0  0  0  0
    9.3720  -20.5167   20.3438 O   0  0  0  0  0  0  0  0  0  0  0  0
   10.2467  -16.3650   24.2905 C   0  0  0  0  0  0  0  0  0  0  0  0
   11.3412  -15.7596   24.3986 O   0  0  0  0  0  0  0  0  0  0  0  0
   11.2830  -20.9532   21.4818 O   0  0  0  0  0  0  0  0  0  0  0  0
    6.2357  -12.6274   26.2510 C   0  0  0  0  0  0  0  0  0  0  0  0
    7.7328  -12.1784   27.1569 S   0  0  0  0  0  0  0  0  0  0  0  0
    9.0695  -13.3075   26.6796 C   0  0  0  0  0  0  0  0  0  0  0  0
    8.7618  -14.7281   27.1225 C   0  0  0  0  0  0  0  0  0  0  0  0
    9.8228  -15.6933   26.6418 C   0  0  2  0  0  0  0  0  0  0  0  0
    9.3964  -16.3782   25.4217 N   0  0  0  0  0  0  0  0  0  0  0  0
   10.0040  -16.7104   27.6959 C   0  0  0  0  0  0  0  0  0  0  0  0
   10.6305  -16.3574   28.8754 O   0  0  0  0  0  0  0  0  0  0  0  0
    9.6098  -17.8948   27.5655 O   0  0  0  0  0  0  0  0  0  0  0  0
  1  2  1  0
  2  3  1  0
  3  4  1  6
  5  3  1  0
  5  6  1  6
  7  8  2  0
  7  5  1  0
  9  7  1  0
 10  9  1  0
 10 11  1  6
 12 13  1  0
 12 11  1  0
 13 14  2  0
 15 23  1  0
 15 10  1  0
 16 15  2  0
 17 13  1  0
 19 18  1  0
 20 19  1  0
 20 21  1  0
 22 21  1  1
 22 24  1  0
 22 23  1  0
 24 25  1  0
 26 24  2  0
M  END
$$$$
