IEM.pdb
     RDKit          3D

 26 25  0  0  1  0  0  0  0  0999 V2000
    7.7971  -12.0583   21.4217 C   0  0  0  0  0  0  0  0  0  0  0  0
    7.5361  -13.5211   21.2875 C   0  0  0  0  0  0  0  0  0  0  0  0
    8.2224  -14.1404   20.0609 C   0  0  2  0  0  0  0  0  0  0  0  0
    7.5008  -13.4803   18.8711 C   0  0  0  0  0  0  0  0  0  0  0  0
    7.9065  -15.6041   20.0150 C   0  0  2  0  0  0  0  0  0  0  0  0
    6.4721  -15.7773   20.0406 N   0  0  0  0  0  0  0  0  0  0  0  0
    8.5765  -16.3720   21.0862 C   0  0  0  0  0  0  0  0  0  0  0  0
    8.0476  -16.5520   22.2098 O   0  0  0  0  0  0  0  0  0  0  0  0
    9.8821  -16.9709   20.9270 N   0  0  0  0  0  0  0  0  0  0  0  0
   10.5536  -17.6465   21.9755 C   0  0  1  0  0  0  0  0  0  0  0  0
   11.7123  -18.4485   21.5316 C   0  0  0  0  0  0  0  0  0  0  0  0
   12.4282  -19.2498   22.5729 C   0  0  0  0  0  0  0  0  0  0  0  0
   13.1622  -20.4189   22.0722 C   0  0  0  0  0  0  0  0  0  0  0  0
   14.4371  -20.5107   22.1267 O   0  0  0  0  0  0  0  0  0  0  0  0
   10.9139  -16.7754   23.1183 C   0  0  0  0  0  0  0  0  0  0  0  0
   11.6291  -15.7492   23.0121 O   0  0  0  0  0  0  0  0  0  0  0  0
   12.4862  -21.4869   21.5113 O   0  0  0  0  0  0  0  0  0  0  0  0
    9.5551  -12.5869   29.2847 C   0  0  0  0  0  0  0  0  0  0  0  0
    8.8925  -13.6734   28.0025 S   0  0  0  0  0  0  0  0  0  0  0  0
   10.2431  -14.6787   27.3283 C   0  0  0  0  0  0  0  0  0  0  0  0
    9.7683  -15.4939   26.1371 C   0  0  0  0  0  0  0  0  0  0  0  0
   10.8928  -16.3241   25.5587 C   0  0  2  0  0  0  0  0  0  0  0  0
   10.4335  -17.1026   24.4086 N   0  0  0  0  0  0  0  0  0  0  0  0
   11.3266  -17.2698   26.6055 C   0  0  0  0  0  0  0  0  0  0  0  0
   12.3032  -16.8836   27.5028 O   0  0  0  0  0  0  0  0  0  0  0  0
   10.8417  -18.4221   26.7166 O   0  0  0  0  0  0  0  0  0  0  0  0
  1  2  1  0
  2  3  1  0
  3  4  1  6
  5  3  1  0
  5  6  1  1
  7  8  2  0
  7  5  1  0
  9  7  1  0
 10  9  1  0
 10 11  1  6
 12 13  1  0
 12 11  1  0
 13 14  2  0
 15 23  1  0
 15 10  1  0
 16 15  2  0
 17 13  1  0
 19 18  1  0
 20 19  1  0
 20 21  1  0
 22 21  1  1
 22 24  1  0
 22 23  1  0
 24 25  1  0
 26 24  2  0
M  END
$$$$
