IEM.pdb
     RDKit          3D

 26 25  0  0  1  0  0  0  0  0999 V2000
    7.4207  -11.9291   18.8801 C   0  0  0  0  0  0  0  0  0  0  0  0
    7.5351  -13.4166   18.8847 C   0  0  0  0  0  0  0  0  0  0  0  0
    7.7383  -13.9959   20.2926 C   0  0  2  0  0  0  0  0  0  0  0  0
    9.1111  -13.4414   20.7170 C   0  0  0  0  0  0  0  0  0  0  0  0
    7.8730  -15.4844   20.1906 C   0  0  2  0  0  0  0  0  0  0  0  0
    6.6049  -16.0453   19.7836 N   0  0  0  0  0  0  0  0  0  0  0  0
    8.3792  -16.1037   21.4342 C   0  0  0  0  0  0  0  0  0  0  0  0
    7.6448  -16.2893   22.4346 O   0  0  0  0  0  0  0  0  0  0  0  0
    9.7472  -16.5406   21.5959 N   0  0  0  0  0  0  0  0  0  0  0  0
   10.2478  -17.0746   22.8087 C   0  0  1  0  0  0  0  0  0  0  0  0
   11.5074  -17.8323   22.6597 C   0  0  0  0  0  0  0  0  0  0  0  0
   12.1072  -18.4123   23.9017 C   0  0  0  0  0  0  0  0  0  0  0  0
   13.3656  -19.1444   23.7096 C   0  0  0  0  0  0  0  0  0  0  0  0
   14.4028  -18.9381   24.4297 O   0  0  0  0  0  0  0  0  0  0  0  0
   10.3476  -16.0841   23.9058 C   0  0  0  0  0  0  0  0  0  0  0  0
   11.0530  -15.0475   23.8449 O   0  0  0  0  0  0  0  0  0  0  0  0
   13.4770  -20.1052   22.7213 O   0  0  0  0  0  0  0  0  0  0  0  0
    6.4320  -11.6050   26.0325 C   0  0  0  0  0  0  0  0  0  0  0  0
    6.5854  -12.7630   27.4105 S   0  0  0  0  0  0  0  0  0  0  0  0
    8.2098  -13.5653   27.3261 C   0  0  0  0  0  0  0  0  0  0  0  0
    8.2405  -14.6100   26.2232 C   0  0  0  0  0  0  0  0  0  0  0  0
    9.6013  -15.2637   26.1260 C   0  0  2  0  0  0  0  0  0  0  0  0
    9.6133  -16.3020   25.0958 N   0  0  0  0  0  0  0  0  0  0  0  0
    9.8751  -15.9078   27.4255 C   0  0  0  0  0  0  0  0  0  0  0  0
   10.2146  -15.1232   28.5107 O   0  0  0  0  0  0  0  0  0  0  0  0
    9.8126  -17.1505   27.5890 O   0  0  0  0  0  0  0  0  0  0  0  0
  1  2  1  0
  2  3  1  0
  3  4  1  6
  5  3  1  0
  5  6  1  1
  7  8  2  0
  7  5  1  0
  9  7  1  0
 10  9  1  0
 10 11  1  6
 12 13  1  0
 12 11  1  0
 13 14  2  0
 15 23  1  0
 15 10  1  0
 16 15  2  0
 17 13  1  0
 19 18  1  0
 20 19  1  0
 20 21  1  0
 22 21  1  1
 22 24  1  0
 22 23  1  0
 24 25  1  0
 26 24  2  0
M  END
$$$$
