IEM.pdb
     RDKit          3D

 26 25  0  0  1  0  0  0  0  0999 V2000
    7.5261  -12.0473   18.9108 C   0  0  0  0  0  0  0  0  0  0  0  0
    7.7089  -13.5269   18.9695 C   0  0  0  0  0  0  0  0  0  0  0  0
    7.7946  -14.0618   20.4067 C   0  0  2  0  0  0  0  0  0  0  0  0
    9.1073  -13.4577   20.9396 C   0  0  0  0  0  0  0  0  0  0  0  0
    7.9760  -15.5481   20.3618 C   0  0  2  0  0  0  0  0  0  0  0  0
    6.7904  -16.1504   19.7963 N   0  0  0  0  0  0  0  0  0  0  0  0
    8.3173  -16.1270   21.6788 C   0  0  0  0  0  0  0  0  0  0  0  0
    7.5119  -16.1184   22.6409 O   0  0  0  0  0  0  0  0  0  0  0  0
    9.5936  -16.7432   21.9611 N   0  0  0  0  0  0  0  0  0  0  0  0
    9.9656  -17.1892   23.2531 C   0  0  1  0  0  0  0  0  0  0  0  0
   11.0820  -18.1568   23.2591 C   0  0  0  0  0  0  0  0  0  0  0  0
   11.5106  -18.6980   24.5866 C   0  0  0  0  0  0  0  0  0  0  0  0
   12.6667  -19.6027   24.5534 C   0  0  0  0  0  0  0  0  0  0  0  0
   13.1737  -20.1164   25.6097 O   0  0  0  0  0  0  0  0  0  0  0  0
   10.2037  -16.0939   24.2219 C   0  0  0  0  0  0  0  0  0  0  0  0
   11.0802  -15.2084   24.0688 O   0  0  0  0  0  0  0  0  0  0  0  0
   13.2622  -19.9397   23.3517 O   0  0  0  0  0  0  0  0  0  0  0  0
    6.2064  -11.5566   26.0928 C   0  0  0  0  0  0  0  0  0  0  0  0
    6.7999  -12.1581   27.6896 S   0  0  0  0  0  0  0  0  0  0  0  0
    8.3887  -12.9987   27.4474 C   0  0  0  0  0  0  0  0  0  0  0  0
    8.2338  -14.1911   26.5185 C   0  0  0  0  0  0  0  0  0  0  0  0
    9.5594  -14.8832   26.2903 C   0  0  2  0  0  0  0  0  0  0  0  0
    9.4076  -16.0260   25.3900 N   0  0  0  0  0  0  0  0  0  0  0  0
   10.0229  -15.3904   27.5966 C   0  0  0  0  0  0  0  0  0  0  0  0
   10.5954  -14.5137   28.4977 O   0  0  0  0  0  0  0  0  0  0  0  0
    9.9187  -16.5965   27.9275 O   0  0  0  0  0  0  0  0  0  0  0  0
  1  2  1  0
  2  3  1  0
  3  4  1  6
  5  3  1  0
  5  6  1  1
  7  8  2  0
  7  5  1  0
  9  7  1  0
 10  9  1  0
 10 11  1  6
 12 13  1  0
 12 11  1  0
 13 14  2  0
 15 23  1  0
 15 10  1  0
 16 15  2  0
 17 13  1  0
 19 18  1  0
 20 19  1  0
 20 21  1  0
 22 21  1  1
 22 24  1  0
 22 23  1  0
 24 25  1  0
 26 24  2  0
M  END
$$$$
