IEM.pdb
     RDKit          3D

 26 25  0  0  1  0  0  0  0  0999 V2000
    7.4045  -11.9411   18.7992 C   0  0  0  0  0  0  0  0  0  0  0  0
    7.6666  -13.4050   18.6791 C   0  0  0  0  0  0  0  0  0  0  0  0
    7.8486  -14.0931   20.0401 C   0  0  2  0  0  0  0  0  0  0  0  0
    9.1041  -13.4170   20.6220 C   0  0  0  0  0  0  0  0  0  0  0  0
    8.1855  -15.5352   19.8140 C   0  0  2  0  0  0  0  0  0  0  0  0
    7.0871  -16.1730   19.1247 N   0  0  0  0  0  0  0  0  0  0  0  0
    8.5447  -16.2452   21.0602 C   0  0  0  0  0  0  0  0  0  0  0  0
    7.7117  -16.4500   21.9759 O   0  0  0  0  0  0  0  0  0  0  0  0
    9.8714  -16.7553   21.3213 N   0  0  0  0  0  0  0  0  0  0  0  0
   10.2433  -17.3402   22.5566 C   0  0  1  0  0  0  0  0  0  0  0  0
   11.4718  -18.1585   22.4911 C   0  0  0  0  0  0  0  0  0  0  0  0
   12.6028  -17.6289   21.6670 C   0  0  0  0  0  0  0  0  0  0  0  0
   13.1197  -18.5474   20.6445 C   0  0  0  0  0  0  0  0  0  0  0  0
   13.2827  -19.7984   20.8571 O   0  0  0  0  0  0  0  0  0  0  0  0
   10.3014  -16.3800   23.6832 C   0  0  0  0  0  0  0  0  0  0  0  0
   10.9746  -15.3207   23.6602 O   0  0  0  0  0  0  0  0  0  0  0  0
   13.4560  -18.0825   19.3863 O   0  0  0  0  0  0  0  0  0  0  0  0
    6.5559  -11.6179   28.0949 C   0  0  0  0  0  0  0  0  0  0  0  0
    6.5344  -12.9266   26.8497 S   0  0  0  0  0  0  0  0  0  0  0  0
    8.0492  -13.9117   27.0060 C   0  0  0  0  0  0  0  0  0  0  0  0
    8.1564  -14.9222   25.8764 C   0  0  0  0  0  0  0  0  0  0  0  0
    9.4880  -15.6395   25.9080 C   0  0  2  0  0  0  0  0  0  0  0  0
    9.5626  -16.6556   24.8584 N   0  0  0  0  0  0  0  0  0  0  0  0
    9.5901  -16.3228   27.2122 C   0  0  0  0  0  0  0  0  0  0  0  0
    9.6769  -17.7010   27.2482 O   0  0  0  0  0  0  0  0  0  0  0  0
    9.6012  -15.6995   28.3014 O   0  0  0  0  0  0  0  0  0  0  0  0
  1  2  1  0
  2  3  1  0
  3  4  1  6
  5  3  1  0
  5  6  1  1
  7  8  2  0
  7  5  1  0
  9  7  1  0
 10  9  1  0
 10 11  1  6
 12 13  1  0
 12 11  1  0
 13 14  2  0
 15 23  1  0
 15 10  1  0
 16 15  2  0
 17 13  1  0
 19 18  1  0
 20 19  1  0
 20 21  1  0
 22 21  1  1
 22 24  1  0
 22 23  1  0
 24 25  1  0
 26 24  2  0
M  END
$$$$
