IEM.pdb
     RDKit          3D

 26 25  0  0  1  0  0  0  0  0999 V2000
    5.8563  -11.4365   26.3707 C   0  0  0  0  0  0  0  0  0  0  0  0
    5.6068  -12.7817   25.7756 C   0  0  0  0  0  0  0  0  0  0  0  0
    6.8973  -13.5824   25.5464 C   0  0  2  0  0  0  0  0  0  0  0  0
    7.6054  -12.8112   24.4169 C   0  0  0  0  0  0  0  0  0  0  0  0
    6.5411  -14.9334   25.0059 C   0  0  2  0  0  0  0  0  0  0  0  0
    5.6538  -15.5938   25.9360 N   0  0  0  0  0  0  0  0  0  0  0  0
    7.7266  -15.7586   24.6902 C   0  0  0  0  0  0  0  0  0  0  0  0
    8.3037  -16.4579   25.5576 O   0  0  0  0  0  0  0  0  0  0  0  0
    8.3106  -15.8251   23.3699 N   0  0  0  0  0  0  0  0  0  0  0  0
    9.4785  -16.5725   23.0802 C   0  0  1  0  0  0  0  0  0  0  0  0
    9.9494  -16.4396   21.6860 C   0  0  0  0  0  0  0  0  0  0  0  0
   11.2256  -17.1329   21.3265 C   0  0  0  0  0  0  0  0  0  0  0  0
   11.0890  -18.2559   20.3903 C   0  0  0  0  0  0  0  0  0  0  0  0
   11.9015  -19.2440   20.3719 O   0  0  0  0  0  0  0  0  0  0  0  0
   10.5855  -16.3545   24.0402 C   0  0  0  0  0  0  0  0  0  0  0  0
   11.2967  -15.3202   24.0584 O   0  0  0  0  0  0  0  0  0  0  0  0
   10.0535  -18.2865   19.4743 O   0  0  0  0  0  0  0  0  0  0  0  0
    9.2939  -14.0914   28.6532 C   0  0  0  0  0  0  0  0  0  0  0  0
   10.9194  -14.4868   29.3354 S   0  0  0  0  0  0  0  0  0  0  0  0
   11.6254  -15.8746   28.4053 C   0  0  0  0  0  0  0  0  0  0  0  0
   10.9166  -16.0491   27.0726 C   0  0  0  0  0  0  0  0  0  0  0  0
   11.6649  -17.0111   26.1764 C   0  0  2  0  0  0  0  0  0  0  0  0
   10.8709  -17.3569   24.9976 N   0  0  0  0  0  0  0  0  0  0  0  0
   11.8945  -18.2469   26.9499 C   0  0  0  0  0  0  0  0  0  0  0  0
   12.8310  -18.2447   27.9654 O   0  0  0  0  0  0  0  0  0  0  0  0
   11.2694  -19.3112   26.7224 O   0  0  0  0  0  0  0  0  0  0  0  0
  1  2  1  0
  2  3  1  0
  3  4  1  6
  5  3  1  0
  5  6  1  1
  7  8  2  0
  7  5  1  0
  9  7  1  0
 10  9  1  0
 10 11  1  6
 12 13  1  0
 12 11  1  0
 13 14  2  0
 15 23  1  0
 15 10  1  0
 16 15  2  0
 17 13  1  0
 19 18  1  0
 20 19  1  0
 20 21  1  0
 22 21  1  1
 22 24  1  0
 22 23  1  0
 24 25  1  0
 26 24  2  0
M  END
$$$$
