IEM.pdb
     RDKit          3D

 26 25  0  0  1  0  0  0  0  0999 V2000
    7.2783  -11.7602   18.9877 C   0  0  0  0  0  0  0  0  0  0  0  0
    7.6554  -13.1889   18.7817 C   0  0  0  0  0  0  0  0  0  0  0  0
    7.7031  -13.9892   20.0918 C   0  0  2  0  0  0  0  0  0  0  0  0
    8.8066  -13.2866   20.9046 C   0  0  0  0  0  0  0  0  0  0  0  0
    8.1846  -15.3766   19.7961 C   0  0  2  0  0  0  0  0  0  0  0  0
    7.1921  -16.0596   18.9981 N   0  0  0  0  0  0  0  0  0  0  0  0
    8.5346  -16.1370   21.0149 C   0  0  0  0  0  0  0  0  0  0  0  0
    7.6737  -16.4682   21.8656 O   0  0  0  0  0  0  0  0  0  0  0  0
    9.8834  -16.5556   21.3216 N   0  0  0  0  0  0  0  0  0  0  0  0
   10.2446  -17.1493   22.5559 C   0  0  1  0  0  0  0  0  0  0  0  0
   11.5446  -17.8510   22.5302 C   0  0  0  0  0  0  0  0  0  0  0  0
   11.9935  -18.5051   23.7988 C   0  0  0  0  0  0  0  0  0  0  0  0
   13.2520  -19.2564   23.7078 C   0  0  0  0  0  0  0  0  0  0  0  0
   14.3364  -18.8587   24.2580 O   0  0  0  0  0  0  0  0  0  0  0  0
   10.1577  -16.2295   23.7138 C   0  0  0  0  0  0  0  0  0  0  0  0
   10.7834  -15.1437   23.7880 O   0  0  0  0  0  0  0  0  0  0  0  0
   13.3112  -20.4479   23.0085 O   0  0  0  0  0  0  0  0  0  0  0  0
    6.9396  -11.2357   26.2669 C   0  0  0  0  0  0  0  0  0  0  0  0
    6.3923  -12.8340   26.9069 S   0  0  0  0  0  0  0  0  0  0  0  0
    7.8322  -13.9236   27.0763 C   0  0  0  0  0  0  0  0  0  0  0  0
    7.9619  -14.8402   25.8714 C   0  0  0  0  0  0  0  0  0  0  0  0
    9.2280  -15.6649   25.9446 C   0  0  2  0  0  0  0  0  0  0  0  0
    9.3274  -16.5775   24.8058 N   0  0  0  0  0  0  0  0  0  0  0  0
    9.1547  -16.4773   27.1747 C   0  0  0  0  0  0  0  0  0  0  0  0
    9.0260  -17.8489   27.0723 O   0  0  0  0  0  0  0  0  0  0  0  0
    9.2045  -15.9706   28.3218 O   0  0  0  0  0  0  0  0  0  0  0  0
  1  2  1  0
  2  3  1  0
  3  4  1  1
  5  3  1  0
  5  6  1  1
  7  8  2  0
  7  5  1  0
  9  7  1  0
 10  9  1  0
 10 11  1  6
 12 13  1  0
 12 11  1  0
 13 14  2  0
 15 23  1  0
 15 10  1  0
 16 15  2  0
 17 13  1  0
 19 18  1  0
 20 19  1  0
 20 21  1  0
 22 21  1  6
 22 24  1  0
 22 23  1  0
 24 25  1  0
 26 24  2  0
M  END
$$$$
