IEM.pdb
     RDKit          3D

 26 25  0  0  1  0  0  0  0  0999 V2000
    6.8032  -11.9208   19.3415 C   0  0  0  0  0  0  0  0  0  0  0  0
    7.3230  -13.3027   19.1268 C   0  0  0  0  0  0  0  0  0  0  0  0
    7.6440  -14.0312   20.4403 C   0  0  2  0  0  0  0  0  0  0  0  0
    8.8552  -13.2586   20.9955 C   0  0  0  0  0  0  0  0  0  0  0  0
    8.1099  -15.4195   20.1244 C   0  0  2  0  0  0  0  0  0  0  0  0
    7.0528  -16.1261   19.4378 N   0  0  0  0  0  0  0  0  0  0  0  0
    8.5833  -16.1537   21.3173 C   0  0  0  0  0  0  0  0  0  0  0  0
    7.7907  -16.6688   22.1425 O   0  0  0  0  0  0  0  0  0  0  0  0
    9.9834  -16.3353   21.6258 N   0  0  0  0  0  0  0  0  0  0  0  0
   10.4362  -17.0057   22.7886 C   0  0  1  0  0  0  0  0  0  0  0  0
   11.7128  -17.7277   22.6101 C   0  0  0  0  0  0  0  0  0  0  0  0
   11.8016  -18.6866   21.4650 C   0  0  0  0  0  0  0  0  0  0  0  0
   13.1063  -19.3370   21.2893 C   0  0  0  0  0  0  0  0  0  0  0  0
   14.2119  -18.6952   21.3413 O   0  0  0  0  0  0  0  0  0  0  0  0
   10.4703  -16.1529   23.9994 C   0  0  0  0  0  0  0  0  0  0  0  0
   10.8725  -14.9637   24.0014 O   0  0  0  0  0  0  0  0  0  0  0  0
   13.1887  -20.6976   21.0564 O   0  0  0  0  0  0  0  0  0  0  0  0
    7.4034  -11.3590   26.0608 C   0  0  0  0  0  0  0  0  0  0  0  0
    6.8015  -12.9114   26.7619 S   0  0  0  0  0  0  0  0  0  0  0  0
    8.2221  -13.9647   27.1640 C   0  0  0  0  0  0  0  0  0  0  0  0
    8.5198  -14.9287   26.0279 C   0  0  0  0  0  0  0  0  0  0  0  0
    9.7274  -15.7851   26.3388 C   0  0  2  0  0  0  0  0  0  0  0  0
   10.0279  -16.6919   25.2310 N   0  0  0  0  0  0  0  0  0  0  0  0
    9.3949  -16.6041   27.5208 C   0  0  0  0  0  0  0  0  0  0  0  0
    9.2852  -17.9744   27.3846 O   0  0  0  0  0  0  0  0  0  0  0  0
    9.2052  -16.1042   28.6562 O   0  0  0  0  0  0  0  0  0  0  0  0
  1  2  1  0
  2  3  1  0
  3  4  1  6
  5  3  1  0
  5  6  1  1
  7  8  2  0
  7  5  1  0
  9  7  1  0
 10  9  1  0
 10 11  1  6
 12 13  1  0
 12 11  1  0
 13 14  2  0
 15 23  1  0
 15 10  1  0
 16 15  2  0
 17 13  1  0
 19 18  1  0
 20 19  1  0
 20 21  1  0
 22 21  1  6
 22 24  1  0
 22 23  1  0
 24 25  1  0
 26 24  2  0
M  END
$$$$
