FYC.pdb
     RDKit          3D

 30 31  0  0  1  0  0  0  0  0999 V2000
    6.1864  -18.5944   25.8506 N   0  0  0  0  0  0  0  0  0  0  0  0
    6.3173  -17.1673   25.7281 C   0  0  1  0  0  0  0  0  0  0  0  0
    7.2241  -16.6023   26.8235 C   0  0  0  0  0  0  0  0  0  0  0  0
    7.1513  -15.1400   26.9065 C   0  0  0  0  0  0  0  0  0  0  0  0
    8.1751  -14.4483   27.4974 C   0  0  0  0  0  0  0  0  0  0  0  0
    8.1772  -13.0744   27.6122 C   0  0  0  0  0  0  0  0  0  0  0  0
    7.1137  -12.3518   27.1178 C   0  0  0  0  0  0  0  0  0  0  0  0
    6.0861  -13.0341   26.5257 C   0  0  0  0  0  0  0  0  0  0  0  0
    6.0873  -14.4106   26.4123 C   0  0  0  0  0  0  0  0  0  0  0  0
    6.9727  -16.8466   24.4392 C   0  0  0  0  0  0  0  0  0  0  0  0
    7.7029  -17.7175   23.9058 O   0  0  0  0  0  0  0  0  0  0  0  0
    8.6960  -13.2952   16.5398 O   0  0  0  0  0  0  0  0  0  0  0  0
    8.2499  -13.4967   17.8303 C   0  0  0  0  0  0  0  0  0  0  0  0
    8.5641  -12.6018   18.8419 C   0  0  0  0  0  0  0  0  0  0  0  0
    8.1263  -12.7882   20.1374 C   0  0  0  0  0  0  0  0  0  0  0  0
    7.3607  -13.8685   20.4790 C   0  0  0  0  0  0  0  0  0  0  0  0
    6.8548  -14.1488   21.8053 C   0  0  0  0  0  0  0  0  0  0  0  0
    7.4236  -15.3498   22.4932 C   0  0  2  0  0  0  0  0  0  0  0  0
    6.8318  -15.6229   23.7666 N   0  0  0  0  0  0  0  0  0  0  0  0
    8.9104  -15.3687   22.5374 C   0  0  0  0  0  0  0  0  0  0  0  0
    9.6164  -15.1975   21.5026 O   0  0  0  0  0  0  0  0  0  0  0  0
    7.0473  -14.7662   19.4571 C   0  0  0  0  0  0  0  0  0  0  0  0
    7.4746  -14.5913   18.1747 C   0  0  0  0  0  0  0  0  0  0  0  0
    9.6335  -15.5794   23.7445 N   0  0  0  0  0  0  0  0  0  0  0  0
   11.0586  -15.5173   23.7913 C   0  0  1  0  0  0  0  0  0  0  0  0
   11.4451  -14.9479   25.1647 C   0  0  0  0  0  0  0  0  0  0  0  0
   11.0943  -16.1624   26.4639 S   0  0  0  0  0  0  0  0  0  0  0  0
   11.7420  -16.7842   23.5259 C   0  0  0  0  0  0  0  0  0  0  0  0
   11.1292  -17.8734   23.3974 O   0  0  0  0  0  0  0  0  0  0  0  0
   13.1236  -16.8290   23.4038 O   0  0  0  0  0  0  0  0  0  0  0  0
  2  1  1  1
  3  2  1  0
  3  4  1  0
  4  5  2  0
  5  6  1  0
  7  6  2  0
  8  7  1  0
  9  4  1  0
  9  8  2  0
 10 19  1  0
 10  2  1  0
 11 10  2  0
 13 12  1  0
 14 13  2  0
 15 14  1  0
 16 22  1  0
 16 15  2  0
 18 17  1  1
 17 16  1  0
 18 19  1  0
 20 18  1  0
 21 20  2  0
 22 23  2  0
 23 13  1  0
 24 20  1  0
 25 24  1  0
 25 28  1  0
 26 27  1  0
 25 26  1  1
 28 30  1  0
 29 28  2  0
M  END
$$$$
