FYC.pdb
     RDKit          3D

 30 31  0  0  1  0  0  0  0  0999 V2000
    5.9847  -18.5053   25.5452 N   0  0  0  0  0  0  0  0  0  0  0  0
    6.1544  -17.0773   25.5163 C   0  0  1  0  0  0  0  0  0  0  0  0
    6.9385  -16.5919   26.7373 C   0  0  0  0  0  0  0  0  0  0  0  0
    7.0236  -15.1292   26.7983 C   0  0  0  0  0  0  0  0  0  0  0  0
    8.2175  -14.5378   27.1151 C   0  0  0  0  0  0  0  0  0  0  0  0
    8.3743  -13.1702   27.1918 C   0  0  0  0  0  0  0  0  0  0  0  0
    7.2962  -12.3499   26.9425 C   0  0  0  0  0  0  0  0  0  0  0  0
    6.0990  -12.9316   26.6251 C   0  0  0  0  0  0  0  0  0  0  0  0
    5.9455  -14.3021   26.5492 C   0  0  0  0  0  0  0  0  0  0  0  0
    6.9601  -16.7060   24.3302 C   0  0  0  0  0  0  0  0  0  0  0  0
    7.8053  -17.5282   23.8993 O   0  0  0  0  0  0  0  0  0  0  0  0
    9.0582  -13.2584   16.4949 O   0  0  0  0  0  0  0  0  0  0  0  0
    8.5524  -13.4379   17.7665 C   0  0  0  0  0  0  0  0  0  0  0  0
    8.8124  -12.5210   18.7738 C   0  0  0  0  0  0  0  0  0  0  0  0
    8.3146  -12.6852   20.0506 C   0  0  0  0  0  0  0  0  0  0  0  0
    7.5405  -13.7640   20.3768 C   0  0  0  0  0  0  0  0  0  0  0  0
    6.9738  -14.0221   21.6829 C   0  0  0  0  0  0  0  0  0  0  0  0
    7.5330  -15.1914   22.4306 C   0  0  2  0  0  0  0  0  0  0  0  0
    6.8419  -15.4851   23.6481 N   0  0  0  0  0  0  0  0  0  0  0  0
    9.0091  -15.1404   22.6085 C   0  0  0  0  0  0  0  0  0  0  0  0
    9.7882  -14.8032   21.6717 O   0  0  0  0  0  0  0  0  0  0  0  0
    7.2818  -14.6839   19.3593 C   0  0  0  0  0  0  0  0  0  0  0  0
    7.7686  -14.5310   18.0954 C   0  0  0  0  0  0  0  0  0  0  0  0
    9.6388  -15.4664   23.8420 N   0  0  0  0  0  0  0  0  0  0  0  0
   11.0571  -15.4307   23.9979 C   0  0  1  0  0  0  0  0  0  0  0  0
   11.3511  -15.4736   25.5051 C   0  0  0  0  0  0  0  0  0  0  0  0
   10.4912  -14.1177   26.3465 S   0  0  0  0  0  0  0  0  0  0  0  0
   11.7848  -16.4790   23.2809 C   0  0  0  0  0  0  0  0  0  0  0  0
   11.2134  -17.3205   22.5433 O   0  0  0  0  0  0  0  0  0  0  0  0
   13.1639  -16.5837   23.3925 O   0  0  0  0  0  0  0  0  0  0  0  0
  2  1  1  1
  3  2  1  0
  3  4  1  0
  4  5  2  0
  5  6  1  0
  7  6  2  0
  8  7  1  0
  9  4  1  0
  9  8  2  0
 10 19  1  0
 10  2  1  0
 11 10  2  0
 13 12  1  0
 14 13  2  0
 15 14  1  0
 16 22  1  0
 16 15  2  0
 18 17  1  1
 17 16  1  0
 18 19  1  0
 20 18  1  0
 21 20  2  0
 22 23  2  0
 23 13  1  0
 24 20  1  0
 25 24  1  0
 25 28  1  0
 26 27  1  0
 25 26  1  1
 28 30  1  0
 29 28  2  0
M  END
$$$$
