FYC.pdb
     RDKit          3D

 30 31  0  0  1  0  0  0  0  0999 V2000
    6.4921  -18.3857   26.1819 N   0  0  0  0  0  0  0  0  0  0  0  0
    6.5177  -16.9553   26.0345 C   0  0  1  0  0  0  0  0  0  0  0  0
    7.3420  -16.3026   27.1462 C   0  0  0  0  0  0  0  0  0  0  0  0
    7.2616  -14.8387   27.1120 C   0  0  0  0  0  0  0  0  0  0  0  0
    8.4159  -14.1028   27.0699 C   0  0  0  0  0  0  0  0  0  0  0  0
    8.4199  -12.7245   27.0361 C   0  0  0  0  0  0  0  0  0  0  0  0
    7.2226  -12.0434   27.0445 C   0  0  0  0  0  0  0  0  0  0  0  0
    6.0640  -12.7701   27.0864 C   0  0  0  0  0  0  0  0  0  0  0  0
    6.0637  -14.1508   27.1201 C   0  0  0  0  0  0  0  0  0  0  0  0
    7.1890  -16.6083   24.7607 C   0  0  0  0  0  0  0  0  0  0  0  0
    8.1811  -17.2888   24.4019 O   0  0  0  0  0  0  0  0  0  0  0  0
    8.8768  -13.2594   16.7454 O   0  0  0  0  0  0  0  0  0  0  0  0
    8.3657  -13.4720   18.0097 C   0  0  0  0  0  0  0  0  0  0  0  0
    8.5322  -12.5307   19.0142 C   0  0  0  0  0  0  0  0  0  0  0  0
    8.0276  -12.7273   20.2837 C   0  0  0  0  0  0  0  0  0  0  0  0
    7.3391  -13.8641   20.6052 C   0  0  0  0  0  0  0  0  0  0  0  0
    6.7732  -14.1598   21.9036 C   0  0  0  0  0  0  0  0  0  0  0  0
    7.4577  -15.2260   22.6996 C   0  0  2  0  0  0  0  0  0  0  0  0
    6.7875  -15.5598   23.9185 N   0  0  0  0  0  0  0  0  0  0  0  0
    8.9136  -14.9895   22.8934 C   0  0  0  0  0  0  0  0  0  0  0  0
    9.3525  -14.1280   23.7080 O   0  0  0  0  0  0  0  0  0  0  0  0
    7.1744  -14.8084   19.5905 C   0  0  0  0  0  0  0  0  0  0  0  0
    7.6687  -14.6238   18.3338 C   0  0  0  0  0  0  0  0  0  0  0  0
    9.9048  -15.7164   22.1769 N   0  0  0  0  0  0  0  0  0  0  0  0
   11.2950  -15.4158   22.2964 C   0  0  1  0  0  0  0  0  0  0  0  0
   11.6470  -15.4740   23.7905 C   0  0  0  0  0  0  0  0  0  0  0  0
   11.1798  -17.0847   24.4785 S   0  0  0  0  0  0  0  0  0  0  0  0
   12.1825  -16.2683   21.5040 C   0  0  0  0  0  0  0  0  0  0  0  0
   11.7639  -17.2349   20.8192 O   0  0  0  0  0  0  0  0  0  0  0  0
   13.5501  -16.0344   21.4801 O   0  0  0  0  0  0  0  0  0  0  0  0
  2  1  1  1
  3  2  1  0
  3  4  1  0
  4  5  2  0
  5  6  1  0
  7  6  2  0
  8  7  1  0
  9  4  1  0
  9  8  2  0
 10 19  1  0
 10  2  1  0
 11 10  2  0
 13 12  1  0
 14 13  2  0
 15 14  1  0
 16 22  1  0
 16 15  2  0
 18 17  1  1
 17 16  1  0
 18 19  1  0
 20 18  1  0
 21 20  2  0
 22 23  2  0
 23 13  1  0
 24 20  1  0
 25 24  1  0
 25 28  1  0
 26 27  1  0
 25 26  1  1
 28 30  1  0
 29 28  2  0
M  END
$$$$
