FYC.pdb
     RDKit          3D

 30 31  0  0  1  0  0  0  0  0999 V2000
    9.2639  -16.7697   19.4325 N   0  0  0  0  0  0  0  0  0  0  0  0
   10.0004  -16.2561   20.5561 C   0  0  1  0  0  0  0  0  0  0  0  0
    9.0860  -15.4754   21.5025 C   0  0  0  0  0  0  0  0  0  0  0  0
    8.4269  -14.3481   20.8353 C   0  0  0  0  0  0  0  0  0  0  0  0
    7.3054  -14.5747   20.0826 C   0  0  0  0  0  0  0  0  0  0  0  0
    6.6322  -13.5662   19.4265 C   0  0  0  0  0  0  0  0  0  0  0  0
    7.0927  -12.2714   19.5211 C   0  0  0  0  0  0  0  0  0  0  0  0
    8.2126  -12.0351   20.2709 C   0  0  0  0  0  0  0  0  0  0  0  0
    8.8846  -13.0479   20.9269 C   0  0  0  0  0  0  0  0  0  0  0  0
   10.5432  -17.3881   21.3419 C   0  0  0  0  0  0  0  0  0  0  0  0
   11.0913  -17.1433   22.4445 O   0  0  0  0  0  0  0  0  0  0  0  0
   12.3477  -25.2985   24.7532 O   0  0  0  0  0  0  0  0  0  0  0  0
   11.8763  -24.2789   23.9512 C   0  0  0  0  0  0  0  0  0  0  0  0
   12.1429  -24.2599   22.5905 C   0  0  0  0  0  0  0  0  0  0  0  0
   11.6793  -23.2481   21.7743 C   0  0  0  0  0  0  0  0  0  0  0  0
   10.9341  -22.2172   22.2760 C   0  0  0  0  0  0  0  0  0  0  0  0
   10.4042  -21.1151   21.5028 C   0  0  0  0  0  0  0  0  0  0  0  0
   11.1028  -19.8006   21.6543 C   0  0  2  0  0  0  0  0  0  0  0  0
   10.4860  -18.7298   20.9339 N   0  0  0  0  0  0  0  0  0  0  0  0
   12.5714  -19.8713   21.4277 C   0  0  0  0  0  0  0  0  0  0  0  0
   13.3427  -20.5013   22.2066 O   0  0  0  0  0  0  0  0  0  0  0  0
   10.6686  -22.2411   23.6462 C   0  0  0  0  0  0  0  0  0  0  0  0
   11.1218  -23.2355   24.4608 C   0  0  0  0  0  0  0  0  0  0  0  0
   13.2024  -19.2366   20.3216 N   0  0  0  0  0  0  0  0  0  0  0  0
   14.6077  -19.3386   20.0939 C   0  0  1  0  0  0  0  0  0  0  0  0
   14.8552  -19.0035   18.6153 C   0  0  0  0  0  0  0  0  0  0  0  0
   14.2608  -17.3311   18.2474 S   0  0  0  0  0  0  0  0  0  0  0  0
   15.4383  -18.5164   20.9750 C   0  0  0  0  0  0  0  0  0  0  0  0
   16.6941  -18.5448   20.9472 O   0  0  0  0  0  0  0  0  0  0  0  0
   14.8554  -17.6559   21.8944 O   0  0  0  0  0  0  0  0  0  0  0  0
  2  1  1  6
  3  2  1  0
  3  4  1  0
  4  5  2  0
  5  6  1  0
  7  6  2  0
  8  7  1  0
  9  4  1  0
  9  8  2  0
 10 19  1  0
 10  2  1  0
 11 10  2  0
 13 12  1  0
 14 13  2  0
 15 14  1  0
 16 22  1  0
 16 15  2  0
 18 17  1  6
 17 16  1  0
 18 19  1  0
 20 18  1  0
 21 20  2  0
 22 23  2  0
 23 13  1  0
 24 20  1  0
 25 24  1  0
 25 28  1  0
 26 27  1  0
 25 26  1  6
 28 30  1  0
 29 28  2  0
M  END
$$$$
