FYC.pdb
     RDKit          3D

 30 31  0  0  1  0  0  0  0  0999 V2000
    5.8473  -17.7509   24.5091 N   0  0  0  0  0  0  0  0  0  0  0  0
    6.3746  -16.4227   24.6714 C   0  0  1  0  0  0  0  0  0  0  0  0
    6.6570  -16.1193   26.1444 C   0  0  0  0  0  0  0  0  0  0  0  0
    6.9914  -14.7091   26.3677 C   0  0  0  0  0  0  0  0  0  0  0  0
    8.2714  -14.3687   26.7164 C   0  0  0  0  0  0  0  0  0  0  0  0
    8.6604  -13.0655   26.9425 C   0  0  0  0  0  0  0  0  0  0  0  0
    7.7365  -12.0515   26.8170 C   0  0  0  0  0  0  0  0  0  0  0  0
    6.4551  -12.3818   26.4690 C   0  0  0  0  0  0  0  0  0  0  0  0
    6.0688  -13.6885   26.2432 C   0  0  0  0  0  0  0  0  0  0  0  0
    7.6754  -16.3254   23.9700 C   0  0  0  0  0  0  0  0  0  0  0  0
    8.2992  -17.3847   23.7157 O   0  0  0  0  0  0  0  0  0  0  0  0
    6.9774  -14.2954   16.6516 O   0  0  0  0  0  0  0  0  0  0  0  0
    7.5548  -14.1911   17.9009 C   0  0  0  0  0  0  0  0  0  0  0  0
    8.3222  -15.2225   18.4207 C   0  0  0  0  0  0  0  0  0  0  0  0
    8.9066  -15.1345   19.6679 C   0  0  0  0  0  0  0  0  0  0  0  0
    8.7525  -14.0212   20.4467 C   0  0  0  0  0  0  0  0  0  0  0  0
    9.3249  -13.8356   21.7626 C   0  0  0  0  0  0  0  0  0  0  0  0
    9.3590  -15.0410   22.6483 C   0  0  2  0  0  0  0  0  0  0  0  0
    8.2644  -15.1172   23.5661 N   0  0  0  0  0  0  0  0  0  0  0  0
   10.6741  -15.2658   23.3064 C   0  0  0  0  0  0  0  0  0  0  0  0
   11.7130  -15.5622   22.6497 O   0  0  0  0  0  0  0  0  0  0  0  0
    7.9792  -12.9860   19.9188 C   0  0  0  0  0  0  0  0  0  0  0  0
    7.3978  -13.0629   18.6884 C   0  0  0  0  0  0  0  0  0  0  0  0
   10.8484  -15.1613   24.7146 N   0  0  0  0  0  0  0  0  0  0  0  0
   11.5187  -16.1706   25.4691 C   0  0  1  0  0  0  0  0  0  0  0  0
   10.4572  -16.8834   26.3206 C   0  0  0  0  0  0  0  0  0  0  0  0
   11.2286  -18.1891   27.3135 S   0  0  0  0  0  0  0  0  0  0  0  0
   12.2954  -17.1234   24.6747 C   0  0  0  0  0  0  0  0  0  0  0  0
   11.8023  -17.7732   23.7191 O   0  0  0  0  0  0  0  0  0  0  0  0
   13.6358  -17.3486   24.9546 O   0  0  0  0  0  0  0  0  0  0  0  0
  2  1  1  1
  3  2  1  0
  3  4  1  0
  4  5  2  0
  5  6  1  0
  7  6  2  0
  8  7  1  0
  9  4  1  0
  9  8  2  0
 10 19  1  0
 10  2  1  0
 11 10  2  0
 13 12  1  0
 14 13  2  0
 15 14  1  0
 16 22  1  0
 16 15  2  0
 18 17  1  1
 17 16  1  0
 18 19  1  0
 20 18  1  0
 21 20  2  0
 22 23  2  0
 23 13  1  0
 24 20  1  0
 25 24  1  0
 25 28  1  0
 26 27  1  0
 25 26  1  6
 28 30  1  0
 29 28  2  0
M  END
$$$$
