FYC.pdb
     RDKit          3D

 30 31  0  0  1  0  0  0  0  0999 V2000
    5.8562  -17.9257   24.2676 N   0  0  0  0  0  0  0  0  0  0  0  0
    6.4049  -16.6317   24.5726 C   0  0  1  0  0  0  0  0  0  0  0  0
    6.4606  -16.4004   26.0841 C   0  0  0  0  0  0  0  0  0  0  0  0
    6.8779  -15.0361   26.4232 C   0  0  0  0  0  0  0  0  0  0  0  0
    5.9848  -14.0066   26.2882 C   0  0  0  0  0  0  0  0  0  0  0  0
    6.3043  -12.6992   26.5870 C   0  0  0  0  0  0  0  0  0  0  0  0
    7.5693  -12.3980   27.0412 C   0  0  0  0  0  0  0  0  0  0  0  0
    8.4686  -13.4199   27.1794 C   0  0  0  0  0  0  0  0  0  0  0  0
    8.1452  -14.7287   26.8791 C   0  0  0  0  0  0  0  0  0  0  0  0
    7.8040  -16.5694   24.0906 C   0  0  0  0  0  0  0  0  0  0  0  0
    8.4467  -17.6419   23.9778 O   0  0  0  0  0  0  0  0  0  0  0  0
    7.2586  -13.8607   17.5345 O   0  0  0  0  0  0  0  0  0  0  0  0
    7.9496  -13.9208   18.7278 C   0  0  0  0  0  0  0  0  0  0  0  0
    7.7726  -12.9525   19.7045 C   0  0  0  0  0  0  0  0  0  0  0  0
    8.4554  -12.9974   20.9030 C   0  0  0  0  0  0  0  0  0  0  0  0
    9.3393  -14.0037   21.1786 C   0  0  0  0  0  0  0  0  0  0  0  0
   10.0992  -14.1371   22.4027 C   0  0  0  0  0  0  0  0  0  0  0  0
    9.8039  -15.3415   23.2400 C   0  0  2  0  0  0  0  0  0  0  0  0
    8.4672  -15.3810   23.7479 N   0  0  0  0  0  0  0  0  0  0  0  0
   10.8231  -15.6071   24.2907 C   0  0  0  0  0  0  0  0  0  0  0  0
   12.0247  -15.2319   24.1724 O   0  0  0  0  0  0  0  0  0  0  0  0
    9.5139  -14.9758   20.1922 C   0  0  0  0  0  0  0  0  0  0  0  0
    8.8445  -14.9405   19.0054 C   0  0  0  0  0  0  0  0  0  0  0  0
   10.5127  -16.2984   25.4949 N   0  0  0  0  0  0  0  0  0  0  0  0
   11.4540  -16.4170   26.5612 C   0  0  1  0  0  0  0  0  0  0  0  0
   11.6859  -15.0063   27.1233 C   0  0  0  0  0  0  0  0  0  0  0  0
   10.4673  -14.6421   28.4149 S   0  0  0  0  0  0  0  0  0  0  0  0
   11.0774  -17.3583   27.6169 C   0  0  0  0  0  0  0  0  0  0  0  0
    9.9729  -17.9570   27.6318 O   0  0  0  0  0  0  0  0  0  0  0  0
   11.9468  -17.6297   28.6638 O   0  0  0  0  0  0  0  0  0  0  0  0
  2  1  1  1
  3  2  1  0
  3  4  1  0
  4  5  2  0
  5  6  1  0
  7  6  2  0
  8  7  1  0
  9  4  1  0
  9  8  2  0
 10 19  1  0
 10  2  1  0
 11 10  2  0
 13 12  1  0
 14 13  2  0
 15 14  1  0
 16 22  1  0
 16 15  2  0
 18 17  1  1
 17 16  1  0
 18 19  1  0
 20 18  1  0
 21 20  2  0
 22 23  2  0
 23 13  1  0
 24 20  1  0
 25 24  1  0
 25 28  1  0
 26 27  1  0
 25 26  1  1
 28 30  1  0
 29 28  2  0
M  END
$$$$
