FYC.pdb
     RDKit          3D

 30 31  0  0  1  0  0  0  0  0999 V2000
    7.9747  -16.1097   26.2545 N   0  0  0  0  0  0  0  0  0  0  0  0
    6.8055  -16.3787   25.4613 C   0  0  1  0  0  0  0  0  0  0  0  0
    6.0338  -15.0911   25.1650 C   0  0  0  0  0  0  0  0  0  0  0  0
    6.5075  -13.9608   25.9704 C   0  0  0  0  0  0  0  0  0  0  0  0
    7.8185  -13.9185   26.3642 C   0  0  0  0  0  0  0  0  0  0  0  0
    8.3360  -12.8894   27.1217 C   0  0  0  0  0  0  0  0  0  0  0  0
    7.5147  -11.8529   27.5072 C   0  0  0  0  0  0  0  0  0  0  0  0
    6.2032  -11.8863   27.1185 C   0  0  0  0  0  0  0  0  0  0  0  0
    5.6881  -12.9189   26.3596 C   0  0  0  0  0  0  0  0  0  0  0  0
    7.2215  -16.9254   24.1492 C   0  0  0  0  0  0  0  0  0  0  0  0
    6.4093  -17.6420   23.5144 O   0  0  0  0  0  0  0  0  0  0  0  0
    7.9510  -12.7820   16.8173 O   0  0  0  0  0  0  0  0  0  0  0  0
    7.8903  -13.3051   18.0931 C   0  0  0  0  0  0  0  0  0  0  0  0
    8.1345  -12.5101   19.2026 C   0  0  0  0  0  0  0  0  0  0  0  0
    8.0781  -13.0171   20.4851 C   0  0  0  0  0  0  0  0  0  0  0  0
    7.7774  -14.3308   20.7160 C   0  0  0  0  0  0  0  0  0  0  0  0
    7.6936  -14.9527   22.0197 C   0  0  0  0  0  0  0  0  0  0  0  0
    8.6442  -16.0782   22.2813 C   0  0  2  0  0  0  0  0  0  0  0  0
    8.4747  -16.6947   23.5609 N   0  0  0  0  0  0  0  0  0  0  0  0
   10.0646  -15.7446   21.9907 C   0  0  0  0  0  0  0  0  0  0  0  0
   10.5742  -15.9121   20.8458 O   0  0  0  0  0  0  0  0  0  0  0  0
    7.5324  -15.1267   19.5957 C   0  0  0  0  0  0  0  0  0  0  0  0
    7.5857  -14.6359   18.3253 C   0  0  0  0  0  0  0  0  0  0  0  0
   10.9401  -15.2159   22.9798 N   0  0  0  0  0  0  0  0  0  0  0  0
   12.0720  -15.9450   23.4534 C   0  0  1  0  0  0  0  0  0  0  0  0
   11.5508  -17.0152   24.4244 C   0  0  0  0  0  0  0  0  0  0  0  0
   11.1211  -16.2580   26.0143 S   0  0  0  0  0  0  0  0  0  0  0  0
   12.9101  -16.5339   22.4079 C   0  0  0  0  0  0  0  0  0  0  0  0
   14.1629  -16.4387   22.4066 O   0  0  0  0  0  0  0  0  0  0  0  0
   12.3380  -17.2348   21.3557 O   0  0  0  0  0  0  0  0  0  0  0  0
  2  1  1  1
  3  2  1  0
  3  4  1  0
  4  5  2  0
  5  6  1  0
  7  6  2  0
  8  7  1  0
  9  4  1  0
  9  8  2  0
 10 19  1  0
 10  2  1  0
 11 10  2  0
 13 12  1  0
 14 13  2  0
 15 14  1  0
 16 22  1  0
 16 15  2  0
 18 17  1  1
 17 16  1  0
 18 19  1  0
 20 18  1  0
 21 20  2  0
 22 23  2  0
 23 13  1  0
 24 20  1  0
 25 24  1  0
 25 28  1  0
 26 27  1  0
 25 26  1  1
 28 30  1  0
 29 28  2  0
M  END
$$$$
