FYC.pdb
     RDKit          3D

 30 31  0  0  1  0  0  0  0  0999 V2000
    7.3604  -16.0247   19.9351 N   0  0  0  0  0  0  0  0  0  0  0  0
    7.7463  -15.4015   21.1726 C   0  0  1  0  0  0  0  0  0  0  0  0
    6.5188  -14.9617   21.9731 C   0  0  0  0  0  0  0  0  0  0  0  0
    6.8815  -14.3349   23.2483 C   0  0  0  0  0  0  0  0  0  0  0  0
    6.5299  -14.9465   24.4221 C   0  0  0  0  0  0  0  0  0  0  0  0
    6.8357  -14.4181   25.6583 C   0  0  0  0  0  0  0  0  0  0  0  0
    7.5229  -13.2267   25.7343 C   0  0  0  0  0  0  0  0  0  0  0  0
    7.8785  -12.6081   24.5668 C   0  0  0  0  0  0  0  0  0  0  0  0
    7.5704  -13.1404   23.3301 C   0  0  0  0  0  0  0  0  0  0  0  0
    8.4596  -16.3896   22.0144 C   0  0  0  0  0  0  0  0  0  0  0  0
    7.9242  -17.5084   22.2084 O   0  0  0  0  0  0  0  0  0  0  0  0
   12.5317  -19.6604   17.8087 O   0  0  0  0  0  0  0  0  0  0  0  0
   12.3544  -19.1081   19.0611 C   0  0  0  0  0  0  0  0  0  0  0  0
   11.9256  -19.8828   20.1283 C   0  0  0  0  0  0  0  0  0  0  0  0
   11.7432  -19.3466   21.3870 C   0  0  0  0  0  0  0  0  0  0  0  0
   11.9788  -18.0228   21.6351 C   0  0  0  0  0  0  0  0  0  0  0  0
   11.8178  -17.3708   22.9167 C   0  0  0  0  0  0  0  0  0  0  0  0
   10.4115  -17.1445   23.3750 C   0  0  2  0  0  0  0  0  0  0  0  0
    9.7061  -16.1580   22.6163 N   0  0  0  0  0  0  0  0  0  0  0  0
   10.2841  -16.9366   24.8425 C   0  0  0  0  0  0  0  0  0  0  0  0
   10.7028  -15.8885   25.4122 O   0  0  0  0  0  0  0  0  0  0  0  0
   12.4102  -17.2475   20.5575 C   0  0  0  0  0  0  0  0  0  0  0  0
   12.5934  -17.7672   19.3108 C   0  0  0  0  0  0  0  0  0  0  0  0
    9.6833  -17.9011   25.6987 N   0  0  0  0  0  0  0  0  0  0  0  0
    9.6871  -17.7565   27.1186 C   0  0  1  0  0  0  0  0  0  0  0  0
    8.3295  -18.2598   27.6316 C   0  0  0  0  0  0  0  0  0  0  0  0
    8.2518  -20.0673   27.5184 S   0  0  0  0  0  0  0  0  0  0  0  0
   10.7973  -18.4189   27.8049 C   0  0  0  0  0  0  0  0  0  0  0  0
   11.5374  -19.2641   27.2421 O   0  0  0  0  0  0  0  0  0  0  0  0
   11.0792  -18.1308   29.1327 O   0  0  0  0  0  0  0  0  0  0  0  0
  2  1  1  6
  3  2  1  0
  3  4  1  0
  4  5  2  0
  5  6  1  0
  7  6  2  0
  8  7  1  0
  9  4  1  0
  9  8  2  0
 10 19  1  0
 10  2  1  0
 11 10  2  0
 13 12  1  0
 14 13  2  0
 15 14  1  0
 16 22  1  0
 16 15  2  0
 18 17  1  6
 17 16  1  0
 18 19  1  0
 20 18  1  0
 21 20  2  0
 22 23  2  0
 23 13  1  0
 24 20  1  0
 25 24  1  0
 25 28  1  0
 26 27  1  0
 25 26  1  1
 28 30  1  0
 29 28  2  0
M  END
$$$$
