FYC.pdb
     RDKit          3D

 30 31  0  0  1  0  0  0  0  0999 V2000
    5.7349  -17.7662   24.2649 N   0  0  0  0  0  0  0  0  0  0  0  0
    6.3110  -16.4851   24.5741 C   0  0  1  0  0  0  0  0  0  0  0  0
    6.3183  -16.2355   26.0837 C   0  0  0  0  0  0  0  0  0  0  0  0
    6.5878  -14.8324   26.4143 C   0  0  0  0  0  0  0  0  0  0  0  0
    7.7213  -14.5119   27.1130 C   0  0  0  0  0  0  0  0  0  0  0  0
    8.0415  -13.2166   27.4598 C   0  0  0  0  0  0  0  0  0  0  0  0
    7.1978  -12.1900   27.0966 C   0  0  0  0  0  0  0  0  0  0  0  0
    6.0629  -12.5003   26.3982 C   0  0  0  0  0  0  0  0  0  0  0  0
    5.7452  -13.7992   26.0524 C   0  0  0  0  0  0  0  0  0  0  0  0
    7.7280  -16.4708   24.1434 C   0  0  0  0  0  0  0  0  0  0  0  0
    8.3463  -17.5617   24.0826 O   0  0  0  0  0  0  0  0  0  0  0  0
    7.1244  -14.2597   17.5091 O   0  0  0  0  0  0  0  0  0  0  0  0
    7.8374  -14.2355   18.6906 C   0  0  0  0  0  0  0  0  0  0  0  0
    7.6599  -13.2131   19.6104 C   0  0  0  0  0  0  0  0  0  0  0  0
    8.3646  -13.1737   20.7965 C   0  0  0  0  0  0  0  0  0  0  0  0
    9.2715  -14.1460   21.1154 C   0  0  0  0  0  0  0  0  0  0  0  0
   10.0553  -14.1920   22.3308 C   0  0  0  0  0  0  0  0  0  0  0  0
    9.7635  -15.3220   23.2672 C   0  0  2  0  0  0  0  0  0  0  0  0
    8.4340  -15.3090   23.7950 N   0  0  0  0  0  0  0  0  0  0  0  0
   10.7958  -15.5100   24.3218 C   0  0  0  0  0  0  0  0  0  0  0  0
   12.0071  -15.7420   24.0436 O   0  0  0  0  0  0  0  0  0  0  0  0
    9.4464  -15.1728   20.1862 C   0  0  0  0  0  0  0  0  0  0  0  0
    8.7556  -15.2210   19.0122 C   0  0  0  0  0  0  0  0  0  0  0  0
   10.4882  -15.4403   25.7092 N   0  0  0  0  0  0  0  0  0  0  0  0
   11.4697  -15.6953   26.7136 C   0  0  1  0  0  0  0  0  0  0  0  0
   11.3171  -14.6066   27.7866 C   0  0  0  0  0  0  0  0  0  0  0  0
    9.6425  -13.9143   27.7382 S   0  0  0  0  0  0  0  0  0  0  0  0
   11.4205  -17.0353   27.3004 C   0  0  0  0  0  0  0  0  0  0  0  0
   12.2375  -17.4268   28.1709 O   0  0  0  0  0  0  0  0  0  0  0  0
   10.4472  -17.9429   26.9073 O   0  0  0  0  0  0  0  0  0  0  0  0
  2  1  1  1
  3  2  1  0
  3  4  1  0
  4  5  2  0
  5  6  1  0
  7  6  2  0
  8  7  1  0
  9  4  1  0
  9  8  2  0
 10 19  1  0
 10  2  1  0
 11 10  2  0
 13 12  1  0
 14 13  2  0
 15 14  1  0
 16 22  1  0
 16 15  2  0
 18 17  1  1
 17 16  1  0
 18 19  1  0
 20 18  1  0
 21 20  2  0
 22 23  2  0
 23 13  1  0
 24 20  1  0
 25 24  1  0
 25 28  1  0
 26 27  1  0
 25 26  1  1
 28 30  1  0
 29 28  2  0
M  END
$$$$
