PCA.pdb
     RDKit          3D

 19 19  0  0  1  0  0  0  0  0999 V2000
   23.1621  -14.7524  -18.1050 N   0  0  0  0  0  0  0  0  0  0  0  0
   23.0149  -16.1748  -18.4454 C   0  0  0  0  0  0  0  0  0  0  0  0
   23.4689  -16.8222  -17.1561 C   0  0  0  0  0  0  0  0  0  0  0  0
   22.8213  -15.9281  -16.1105 C   0  0  0  0  0  0  0  0  0  0  0  0
   22.5356  -14.6205  -16.8213 C   0  0  1  0  0  0  0  0  0  0  0  0
   23.0170  -13.4651  -16.0435 C   0  0  0  0  0  0  0  0  0  0  0  0
   22.5068  -13.3316  -14.8791 O   0  0  0  0  0  0  0  0  0  0  0  0
   23.9730  -12.5363  -16.4987 N   0  0  0  0  0  0  0  0  0  0  0  0
   24.3546  -11.4333  -15.6658 C   0  0  1  0  0  0  0  0  0  0  0  0
   25.8448  -11.1667  -15.6986 C   0  0  0  0  0  0  0  0  0  0  0  0
   26.3002   -9.6868  -14.8044 S   0  0  0  0  0  0  0  0  0  0  0  0
   23.6221  -10.2263  -16.1923 C   0  0  0  0  0  0  0  0  0  0  0  0
   23.5838   -9.9395  -17.4165 O   0  0  0  0  0  0  0  0  0  0  0  0
   21.1051   -7.8802  -14.8153 C   0  0  0  0  0  0  0  0  0  0  0  0
   22.1607   -8.2229  -15.8395 C   0  0  2  0  0  0  0  0  0  0  0  0
   22.9315   -9.3457  -15.3118 N   0  0  0  0  0  0  0  0  0  0  0  0
   23.0459   -7.0651  -16.1402 C   0  0  0  0  0  0  0  0  0  0  0  0
   24.2192   -7.0609  -15.6929 O   0  0  0  0  0  0  0  0  0  0  0  0
   22.6354   -5.9781  -16.8985 O   0  0  0  0  0  0  0  0  0  0  0  0
  1  5  1  0
  1  2  1  0
  3  2  1  0
  4  3  1  0
  4  5  1  0
  6  7  2  0
  5  6  1  1
  8  6  1  0
  9 12  1  0
  9  8  1  0
  9 10  1  6
 11 10  1  0
 12 16  1  0
 13 12  2  0
 15 14  1  1
 15 17  1  0
 16 15  1  0
 17 18  2  0
 17 19  1  0
M  END
$$$$
