PCA.pdb
     RDKit          3D

 19 19  0  0  1  0  0  0  0  0999 V2000
   24.3784  -10.9132  -15.9308 N   0  0  0  0  0  0  0  0  0  0  0  0
   24.9811  -12.1948  -16.3249 C   0  0  0  0  0  0  0  0  0  0  0  0
   23.7452  -12.9896  -16.6833 C   0  0  0  0  0  0  0  0  0  0  0  0
   22.9121  -11.9571  -17.4263 C   0  0  0  0  0  0  0  0  0  0  0  0
   23.4493  -10.6117  -16.9812 C   0  0  1  0  0  0  0  0  0  0  0  0
   22.3634   -9.7049  -16.5688 C   0  0  0  0  0  0  0  0  0  0  0  0
   21.4997   -9.4310  -17.4705 O   0  0  0  0  0  0  0  0  0  0  0  0
   22.2327   -9.1458  -15.2826 N   0  0  0  0  0  0  0  0  0  0  0  0
   21.1073   -8.3128  -14.9737 C   0  0  1  0  0  0  0  0  0  0  0  0
   20.4015   -8.7352  -13.7023 C   0  0  0  0  0  0  0  0  0  0  0  0
   21.5399   -9.1578  -12.3898 S   0  0  0  0  0  0  0  0  0  0  0  0
   21.6435   -6.9149  -14.8036 C   0  0  0  0  0  0  0  0  0  0  0  0
   22.7753   -6.6808  -14.3070 O   0  0  0  0  0  0  0  0  0  0  0  0
   20.5967   -3.5565  -16.0384 C   0  0  0  0  0  0  0  0  0  0  0  0
   21.4664   -4.4452  -15.1814 C   0  0  2  0  0  0  0  0  0  0  0  0
   20.8792   -5.7824  -15.2044 N   0  0  0  0  0  0  0  0  0  0  0  0
   21.5817   -3.9393  -13.7867 C   0  0  0  0  0  0  0  0  0  0  0  0
   20.9068   -4.4869  -12.8805 O   0  0  0  0  0  0  0  0  0  0  0  0
   22.4066   -2.8810  -13.4335 O   0  0  0  0  0  0  0  0  0  0  0  0
  1  5  1  0
  1  2  1  0
  3  2  1  0
  4  3  1  0
  4  5  1  0
  6  7  2  0
  5  6  1  1
  8  6  1  0
  9 12  1  0
  9  8  1  0
  9 10  1  1
 11 10  1  0
 12 16  1  0
 13 12  2  0
 15 14  1  6
 15 17  1  0
 16 15  1  0
 17 18  2  0
 17 19  1  0
M  END
$$$$
