PCA.pdb
     RDKit          3D

 19 19  0  0  1  0  0  0  0  0999 V2000
   23.7584  -10.2817  -16.2707 N   0  0  0  0  0  0  0  0  0  0  0  0
   24.4955  -11.5475  -16.3957 C   0  0  0  0  0  0  0  0  0  0  0  0
   23.9495  -12.0637  -17.7084 C   0  0  0  0  0  0  0  0  0  0  0  0
   23.9024  -10.7973  -18.5488 C   0  0  0  0  0  0  0  0  0  0  0  0
   23.8955   -9.6546  -17.5535 C   0  0  1  0  0  0  0  0  0  0  0  0
   22.8303   -8.6817  -17.8537 C   0  0  0  0  0  0  0  0  0  0  0  0
   22.9705   -8.0272  -18.9427 O   0  0  0  0  0  0  0  0  0  0  0  0
   21.7091   -8.4445  -17.0348 N   0  0  0  0  0  0  0  0  0  0  0  0
   20.6723   -7.5584  -17.4773 C   0  0  1  0  0  0  0  0  0  0  0  0
   19.3422   -8.2603  -17.6539 C   0  0  0  0  0  0  0  0  0  0  0  0
   18.9301   -9.3146  -16.2698 S   0  0  0  0  0  0  0  0  0  0  0  0
   20.5367   -6.4956  -16.4178 C   0  0  0  0  0  0  0  0  0  0  0  0
   19.7473   -5.5230  -16.5330 O   0  0  0  0  0  0  0  0  0  0  0  0
   21.2706   -6.1572  -12.8615 C   0  0  0  0  0  0  0  0  0  0  0  0
   21.1928   -5.4959  -14.2170 C   0  0  2  0  0  0  0  0  0  0  0  0
   21.3089   -6.5487  -15.2227 N   0  0  0  0  0  0  0  0  0  0  0  0
   22.2523   -4.4670  -14.3998 C   0  0  0  0  0  0  0  0  0  0  0  0
   23.2829   -4.7610  -15.0541 O   0  0  0  0  0  0  0  0  0  0  0  0
   22.1574   -3.1850  -13.8778 O   0  0  0  0  0  0  0  0  0  0  0  0
  1  5  1  0
  1  2  1  0
  3  2  1  0
  4  3  1  0
  4  5  1  0
  6  7  2  0
  5  6  1  6
  8  6  1  0
  9 12  1  0
  9  8  1  0
  9 10  1  1
 11 10  1  0
 12 16  1  0
 13 12  2  0
 15 14  1  1
 15 17  1  0
 16 15  1  0
 17 18  2  0
 17 19  1  0
M  END
$$$$
