PCA.pdb
     RDKit          3D

 19 19  0  0  1  0  0  0  0  0999 V2000
   20.9245  -12.9650  -18.2802 N   0  0  0  0  0  0  0  0  0  0  0  0
   19.7357  -13.5897  -18.8782 C   0  0  0  0  0  0  0  0  0  0  0  0
   18.6376  -12.7438  -18.2729 C   0  0  0  0  0  0  0  0  0  0  0  0
   19.2347  -11.3478  -18.3554 C   0  0  0  0  0  0  0  0  0  0  0  0
   20.7308  -11.5572  -18.4755 C   0  0  1  0  0  0  0  0  0  0  0  0
   21.4733  -10.7189  -17.5177 C   0  0  0  0  0  0  0  0  0  0  0  0
   21.4502  -11.1154  -16.3027 O   0  0  0  0  0  0  0  0  0  0  0  0
   22.1797   -9.5488  -17.8581 N   0  0  0  0  0  0  0  0  0  0  0  0
   22.8579   -8.7991  -16.8412 C   0  0  1  0  0  0  0  0  0  0  0  0
   24.3388   -8.6481  -17.1188 C   0  0  0  0  0  0  0  0  0  0  0  0
   25.1338   -7.4929  -16.0094 S   0  0  0  0  0  0  0  0  0  0  0  0
   22.2157   -7.4362  -16.8145 C   0  0  0  0  0  0  0  0  0  0  0  0
   21.9469   -6.7949  -17.8628 O   0  0  0  0  0  0  0  0  0  0  0  0
   19.8225   -5.5910  -15.4630 C   0  0  0  0  0  0  0  0  0  0  0  0
   21.3234   -5.4573  -15.5650 C   0  0  2  0  0  0  0  0  0  0  0  0
   21.8808   -6.8073  -15.5817 N   0  0  0  0  0  0  0  0  0  0  0  0
   21.8922   -4.6613  -14.4437 C   0  0  0  0  0  0  0  0  0  0  0  0
   22.4335   -5.2604  -13.4822 O   0  0  0  0  0  0  0  0  0  0  0  0
   21.8540   -3.2748  -14.4071 O   0  0  0  0  0  0  0  0  0  0  0  0
  1  5  1  0
  1  2  1  0
  3  2  1  0
  4  3  1  0
  4  5  1  0
  6  7  2  0
  5  6  1  1
  8  6  1  0
  9 12  1  0
  9  8  1  0
  9 10  1  6
 11 10  1  0
 12 16  1  0
 13 12  2  0
 15 14  1  1
 15 17  1  0
 16 15  1  0
 17 18  2  0
 17 19  1  0
M  END
$$$$
