PCA.pdb
     RDKit          3D

 19 19  0  0  1  0  0  0  0  0999 V2000
   24.1381  -10.5308  -19.2675 N   0  0  0  0  0  0  0  0  0  0  0  0
   24.4419  -11.4847  -20.3440 C   0  0  0  0  0  0  0  0  0  0  0  0
   23.5478  -12.6415  -19.9567 C   0  0  0  0  0  0  0  0  0  0  0  0
   22.2772  -11.9260  -19.5255 C   0  0  0  0  0  0  0  0  0  0  0  0
   22.7057  -10.5104  -19.1951 C   0  0  1  0  0  0  0  0  0  0  0  0
   22.1852  -10.0790  -17.8857 C   0  0  0  0  0  0  0  0  0  0  0  0
   20.9161  -10.1436  -17.7470 O   0  0  0  0  0  0  0  0  0  0  0  0
   22.9824   -9.6170  -16.8204 N   0  0  0  0  0  0  0  0  0  0  0  0
   22.3743   -9.2603  -15.5718 C   0  0  1  0  0  0  0  0  0  0  0  0
   23.0505   -9.9159  -14.3862 C   0  0  0  0  0  0  0  0  0  0  0  0
   22.9676  -11.7010  -14.4456 S   0  0  0  0  0  0  0  0  0  0  0  0
   22.4965   -7.7635  -15.4486 C   0  0  0  0  0  0  0  0  0  0  0  0
   23.5904   -7.1601  -15.5958 O   0  0  0  0  0  0  0  0  0  0  0  0
   20.1301   -4.9032  -15.1414 C   0  0  0  0  0  0  0  0  0  0  0  0
   21.5016   -5.5138  -14.9768 C   0  0  2  0  0  0  0  0  0  0  0  0
   21.3604   -6.9565  -15.1558 N   0  0  0  0  0  0  0  0  0  0  0  0
   22.0994   -5.1987  -13.6510 C   0  0  0  0  0  0  0  0  0  0  0  0
   22.0498   -6.0596  -12.7383 O   0  0  0  0  0  0  0  0  0  0  0  0
   22.7157   -3.9878  -13.3696 O   0  0  0  0  0  0  0  0  0  0  0  0
  1  5  1  0
  1  2  1  0
  3  2  1  0
  4  3  1  0
  4  5  1  0
  6  7  2  0
  5  6  1  1
  8  6  1  0
  9 12  1  0
  9  8  1  0
  9 10  1  1
 11 10  1  0
 12 16  1  0
 13 12  2  0
 15 14  1  1
 15 17  1  0
 16 15  1  0
 17 18  2  0
 17 19  1  0
M  END
$$$$
