PCA.pdb
     RDKit          3D

 19 19  0  0  1  0  0  0  0  0999 V2000
   24.3895  -24.4126  -14.4575 N   0  0  0  0  0  0  0  0  0  0  0  0
   23.6822  -25.6982  -14.3689 C   0  0  0  0  0  0  0  0  0  0  0  0
   22.7836  -25.4446  -13.1789 C   0  0  0  0  0  0  0  0  0  0  0  0
   22.3241  -24.0171  -13.4308 C   0  0  0  0  0  0  0  0  0  0  0  0
   23.3547  -23.4231  -14.3698 C   0  0  1  0  0  0  0  0  0  0  0  0
   23.8285  -22.1115  -13.8936 C   0  0  0  0  0  0  0  0  0  0  0  0
   22.9384  -21.1975  -13.8152 O   0  0  0  0  0  0  0  0  0  0  0  0
   25.1597  -21.8238  -13.5344 N   0  0  0  0  0  0  0  0  0  0  0  0
   25.5130  -20.5087  -13.0850 C   0  0  1  0  0  0  0  0  0  0  0  0
   26.5418  -20.5295  -11.9741 C   0  0  0  0  0  0  0  0  0  0  0  0
   25.8936  -21.1959  -10.4467 S   0  0  0  0  0  0  0  0  0  0  0  0
   26.0847  -19.7881  -14.2785 C   0  0  0  0  0  0  0  0  0  0  0  0
   27.0149  -20.2680  -14.9763 O   0  0  0  0  0  0  0  0  0  0  0  0
   25.3457  -16.5577  -16.0319 C   0  0  0  0  0  0  0  0  0  0  0  0
   26.1069  -17.8516  -15.8669 C   0  0  2  0  0  0  0  0  0  0  0  0
   25.5878  -18.5132  -14.6727 N   0  0  0  0  0  0  0  0  0  0  0  0
   27.5739  -17.6280  -15.7556 C   0  0  0  0  0  0  0  0  0  0  0  0
   28.1017  -17.5926  -14.6168 O   0  0  0  0  0  0  0  0  0  0  0  0
   28.3968  -17.4549  -16.8592 O   0  0  0  0  0  0  0  0  0  0  0  0
  1  5  1  0
  1  2  1  0
  3  2  1  0
  4  3  1  0
  4  5  1  0
  6  7  2  0
  5  6  1  1
  8  6  1  0
  9 12  1  0
  9  8  1  0
  9 10  1  1
 11 10  1  0
 12 16  1  0
 13 12  2  0
 15 14  1  1
 15 17  1  0
 16 15  1  0
 17 18  2  0
 17 19  1  0
M  END
$$$$
