PCA.pdb
     RDKit          3D

 19 19  0  0  1  0  0  0  0  0999 V2000
   20.4731   -8.9841  -17.5799 N   0  0  0  0  0  0  0  0  0  0  0  0
   20.4454  -10.3666  -18.0788 C   0  0  0  0  0  0  0  0  0  0  0  0
   20.4022  -11.1356  -16.7770 C   0  0  0  0  0  0  0  0  0  0  0  0
   19.4308  -10.3048  -15.9534 C   0  0  0  0  0  0  0  0  0  0  0  0
   19.4297   -8.9328  -16.5969 C   0  0  1  0  0  0  0  0  0  0  0  0
   19.6105   -7.8657  -15.5969 C   0  0  0  0  0  0  0  0  0  0  0  0
   18.6963   -7.7812  -14.7075 O   0  0  0  0  0  0  0  0  0  0  0  0
   20.6962   -6.9688  -15.5710 N   0  0  0  0  0  0  0  0  0  0  0  0
   20.8043   -6.0037  -14.5160 C   0  0  1  0  0  0  0  0  0  0  0  0
   22.1374   -6.0692  -13.8008 C   0  0  0  0  0  0  0  0  0  0  0  0
   22.4055   -4.6754  -12.7134 S   0  0  0  0  0  0  0  0  0  0  0  0
   20.6506   -4.6491  -15.1579 C   0  0  0  0  0  0  0  0  0  0  0  0
   21.3943   -4.2560  -16.0932 O   0  0  0  0  0  0  0  0  0  0  0  0
   18.1167   -1.9272  -15.0571 C   0  0  0  0  0  0  0  0  0  0  0  0
   19.5139   -2.4248  -15.3417 C   0  0  2  0  0  0  0  0  0  0  0  0
   19.6408   -3.7430  -14.7256 N   0  0  0  0  0  0  0  0  0  0  0  0
   20.5554   -1.4949  -14.8267 C   0  0  0  0  0  0  0  0  0  0  0  0
   21.0967   -1.7366  -13.7199 O   0  0  0  0  0  0  0  0  0  0  0  0
   20.9628   -0.3617  -15.5160 O   0  0  0  0  0  0  0  0  0  0  0  0
  1  5  1  0
  1  2  1  0
  3  2  1  0
  4  3  1  0
  4  5  1  0
  6  7  2  0
  5  6  1  1
  8  6  1  0
  9 12  1  0
  9  8  1  0
  9 10  1  6
 11 10  1  0
 12 16  1  0
 13 12  2  0
 15 14  1  1
 15 17  1  0
 16 15  1  0
 17 18  2  0
 17 19  1  0
M  END
$$$$
