AIN.pdb
     RDKit          3D

 22 21  0  0  1  0  0  0  0  0999 V2000
   27.4239  -18.9612  -15.8579 C   0  0  0  0  0  0  0  0  0  0  0  0
   27.8842  -19.9880  -14.8324 C   0  0  2  0  0  0  0  0  0  0  0  0
   28.6744  -20.9975  -15.4672 N   0  0  0  0  0  0  0  0  0  0  0  0
   26.6585  -20.5828  -14.2031 C   0  0  0  0  0  0  0  0  0  0  0  0
   26.1249  -21.5905  -14.7461 O   0  0  0  0  0  0  0  0  0  0  0  0
   26.3833  -20.6919   -8.9430 C   0  0  0  0  0  0  0  0  0  0  0  0
   26.1646  -21.1167  -10.3842 C   0  0  0  0  0  0  0  0  0  0  0  0
   24.9802  -20.4849  -10.9976 C   0  0  2  0  0  0  0  0  0  0  0  0
   23.6704  -20.9306  -10.3836 C   0  0  0  0  0  0  0  0  0  0  0  0
   24.8795  -20.7614  -12.4766 C   0  0  2  0  0  0  0  0  0  0  0  0
   26.0749  -20.0621  -13.0266 N   0  0  0  0  0  0  0  0  0  0  0  0
   23.6768  -20.2657  -13.1340 C   0  0  0  0  0  0  0  0  0  0  0  0
   23.3692  -19.0374  -13.0678 O   0  0  0  0  0  0  0  0  0  0  0  0
   19.4413  -19.9377  -16.1856 N   0  0  0  0  0  0  0  0  0  0  0  0
   20.2197  -21.0728  -16.5372 C   0  0  0  0  0  0  0  0  0  0  0  0
   19.8822  -21.7339  -17.5324 O   0  0  0  0  0  0  0  0  0  0  0  0
   21.3682  -21.4118  -15.7265 C   0  0  0  0  0  0  0  0  0  0  0  0
   21.5956  -20.5398  -14.5129 C   0  0  2  0  0  0  0  0  0  0  0  0
   22.7956  -21.0880  -13.8758 N   0  0  0  0  0  0  0  0  0  0  0  0
   20.4606  -20.5928  -13.5977 C   0  0  0  0  0  0  0  0  0  0  0  0
   19.4454  -19.6289  -13.7432 O   0  0  0  0  0  0  0  0  0  0  0  0
   20.2725  -21.4110  -12.6737 O   0  0  0  0  0  0  0  0  0  0  0  0
  2  1  1  6
  2  3  1  0
  2  4  1  0
  4  5  2  0
  6  7  1  0
  7  8  1  0
  8 10  1  0
  8  9  1  1
 10 12  1  0
 11  4  1  0
 10 11  1  6
 12 19  1  0
 12 13  2  0
 14 15  1  0
 15 17  1  0
 16 15  2  0
 18 17  1  6
 18 20  1  0
 19 18  1  0
 20 22  2  0
 20 21  1  0
M  END
$$$$
