AIN.pdb
     RDKit          3D

 22 21  0  0  1  0  0  0  0  0999 V2000
   27.4668  -18.5220  -15.4205 C   0  0  0  0  0  0  0  0  0  0  0  0
   28.0160  -19.7373  -14.6861 C   0  0  2  0  0  0  0  0  0  0  0  0
   28.6085  -20.6482  -15.6166 N   0  0  0  0  0  0  0  0  0  0  0  0
   26.8739  -20.3821  -13.9569 C   0  0  0  0  0  0  0  0  0  0  0  0
   26.2555  -21.3315  -14.5148 O   0  0  0  0  0  0  0  0  0  0  0  0
   27.0209  -20.2801   -8.6290 C   0  0  0  0  0  0  0  0  0  0  0  0
   26.7241  -20.8599  -10.0005 C   0  0  0  0  0  0  0  0  0  0  0  0
   25.4666  -20.3507  -10.5814 C   0  0  2  0  0  0  0  0  0  0  0  0
   24.2256  -20.8699   -9.8875 C   0  0  0  0  0  0  0  0  0  0  0  0
   25.3223  -20.6997  -12.0413 C   0  0  2  0  0  0  0  0  0  0  0  0
   26.4602  -19.9713  -12.6701 N   0  0  0  0  0  0  0  0  0  0  0  0
   24.0725  -20.2916  -12.6704 C   0  0  0  0  0  0  0  0  0  0  0  0
   23.7198  -19.0737  -12.6666 O   0  0  0  0  0  0  0  0  0  0  0  0
   19.6705  -20.3544  -15.5086 N   0  0  0  0  0  0  0  0  0  0  0  0
   20.5137  -21.4415  -15.8628 C   0  0  0  0  0  0  0  0  0  0  0  0
   20.1957  -22.1408  -16.8381 O   0  0  0  0  0  0  0  0  0  0  0  0
   21.7025  -21.6894  -15.0776 C   0  0  0  0  0  0  0  0  0  0  0  0
   21.9480  -20.7285  -13.9368 C   0  0  2  0  0  0  0  0  0  0  0  0
   23.1919  -21.1917  -13.3166 N   0  0  0  0  0  0  0  0  0  0  0  0
   20.8541  -20.7552  -12.9719 C   0  0  0  0  0  0  0  0  0  0  0  0
   19.8849  -19.7369  -13.0393 O   0  0  0  0  0  0  0  0  0  0  0  0
   20.6654  -21.5940  -12.0665 O   0  0  0  0  0  0  0  0  0  0  0  0
  2  1  1  6
  2  3  1  0
  2  4  1  0
  4  5  2  0
  6  7  1  0
  7  8  1  0
  8 10  1  0
  8  9  1  1
 10 12  1  0
 11  4  1  0
 10 11  1  6
 12 19  1  0
 12 13  2  0
 14 15  1  0
 15 17  1  0
 16 15  2  0
 18 17  1  6
 18 20  1  0
 19 18  1  0
 20 22  2  0
 20 21  1  0
M  END
$$$$
