AIN.pdb
     RDKit          3D

 22 21  0  0  1  0  0  0  0  0999 V2000
   20.8095  -20.0251  -16.5985 C   0  0  0  0  0  0  0  0  0  0  0  0
   22.2029  -20.0046  -15.9854 C   0  0  2  0  0  0  0  0  0  0  0  0
   22.2399  -20.8333  -14.8199 N   0  0  0  0  0  0  0  0  0  0  0  0
   22.5273  -18.5803  -15.6416 C   0  0  0  0  0  0  0  0  0  0  0  0
   21.8759  -18.0145  -14.7192 O   0  0  0  0  0  0  0  0  0  0  0  0
   27.1755  -14.9706  -14.9466 C   0  0  0  0  0  0  0  0  0  0  0  0
   25.6761  -15.0456  -15.1739 C   0  0  0  0  0  0  0  0  0  0  0  0
   25.2239  -16.3851  -15.5973 C   0  0  2  0  0  0  0  0  0  0  0  0
   25.9281  -16.8984  -16.8349 C   0  0  0  0  0  0  0  0  0  0  0  0
   23.7458  -16.4286  -15.8927 C   0  0  2  0  0  0  0  0  0  0  0  0
   23.5323  -17.8438  -16.3074 N   0  0  0  0  0  0  0  0  0  0  0  0
   23.2831  -15.5345  -16.9467 C   0  0  0  0  0  0  0  0  0  0  0  0
   23.5518  -15.7808  -18.1610 O   0  0  0  0  0  0  0  0  0  0  0  0
   19.2477  -11.7945  -18.6548 N   0  0  0  0  0  0  0  0  0  0  0  0
   20.5102  -11.5624  -18.0464 C   0  0  0  0  0  0  0  0  0  0  0  0
   21.0952  -10.4950  -18.2911 O   0  0  0  0  0  0  0  0  0  0  0  0
   21.0613  -12.5729  -17.1710 C   0  0  0  0  0  0  0  0  0  0  0  0
   22.0647  -13.5114  -17.8014 C   0  0  2  0  0  0  0  0  0  0  0  0
   22.5195  -14.3679  -16.7033 N   0  0  0  0  0  0  0  0  0  0  0  0
   23.1875  -12.7815  -18.3801 C   0  0  0  0  0  0  0  0  0  0  0  0
   23.1851  -12.5524  -19.7687 O   0  0  0  0  0  0  0  0  0  0  0  0
   24.1802  -12.3214  -17.7787 O   0  0  0  0  0  0  0  0  0  0  0  0
  2  1  1  1
  2  3  1  0
  2  4  1  0
  4  5  2  0
  6  7  1  0
  7  8  1  0
  8 10  1  0
  8  9  1  6
 10 12  1  0
 11  4  1  0
 10 11  1  6
 12 19  1  0
 12 13  2  0
 14 15  1  0
 15 17  1  0
 16 15  2  0
 18 17  1  1
 18 20  1  0
 19 18  1  0
 20 22  2  0
 20 21  1  0
M  END
$$$$
