AIN.pdb
     RDKit          3D

 22 21  0  0  1  0  0  0  0  0999 V2000
   27.7346  -18.9456  -15.2103 C   0  0  0  0  0  0  0  0  0  0  0  0
   28.3973  -19.9284  -14.2549 C   0  0  2  0  0  0  0  0  0  0  0  0
   29.2352  -20.8321  -14.9815 N   0  0  0  0  0  0  0  0  0  0  0  0
   27.3075  -20.6678  -13.5354 C   0  0  0  0  0  0  0  0  0  0  0  0
   26.9525  -21.7997  -13.9691 O   0  0  0  0  0  0  0  0  0  0  0  0
   26.6636  -19.9778   -8.2175 C   0  0  0  0  0  0  0  0  0  0  0  0
   26.6753  -20.6948   -9.5558 C   0  0  0  0  0  0  0  0  0  0  0  0
   25.4859  -20.3994  -10.3780 C   0  0  2  0  0  0  0  0  0  0  0  0
   24.1952  -20.9230   -9.7855 C   0  0  0  0  0  0  0  0  0  0  0  0
   25.5874  -20.9756  -11.7679 C   0  0  2  0  0  0  0  0  0  0  0  0
   26.6604  -20.1505  -12.3911 N   0  0  0  0  0  0  0  0  0  0  0  0
   24.3775  -20.8973  -12.5768 C   0  0  0  0  0  0  0  0  0  0  0  0
   23.9332  -19.7733  -12.9598 O   0  0  0  0  0  0  0  0  0  0  0  0
   23.7854  -25.0912  -15.0638 N   0  0  0  0  0  0  0  0  0  0  0  0
   23.2986  -23.7726  -15.2693 C   0  0  0  0  0  0  0  0  0  0  0  0
   23.8059  -23.0912  -16.1747 O   0  0  0  0  0  0  0  0  0  0  0  0
   22.2372  -23.2785  -14.4204 C   0  0  0  0  0  0  0  0  0  0  0  0
   22.4506  -21.9002  -13.8375 C   0  0  2  0  0  0  0  0  0  0  0  0
   23.6366  -22.0312  -12.9874 N   0  0  0  0  0  0  0  0  0  0  0  0
   21.3006  -21.4706  -13.0490 C   0  0  0  0  0  0  0  0  0  0  0  0
   21.3457  -21.6557  -11.6546 O   0  0  0  0  0  0  0  0  0  0  0  0
   20.2500  -20.9437  -13.4702 O   0  0  0  0  0  0  0  0  0  0  0  0
  2  1  1  6
  2  3  1  0
  2  4  1  0
  4  5  2  0
  6  7  1  0
  7  8  1  0
  8 10  1  0
  8  9  1  1
 10 12  1  0
 11  4  1  0
 10 11  1  6
 12 19  1  0
 12 13  2  0
 14 15  1  0
 15 17  1  0
 16 15  2  0
 18 17  1  1
 18 20  1  0
 19 18  1  0
 20 22  2  0
 20 21  1  0
M  END
$$$$
