AIN.pdb
     RDKit          3D

 22 21  0  0  1  0  0  0  0  0999 V2000
   22.0410  -13.6187  -19.1311 C   0  0  0  0  0  0  0  0  0  0  0  0
   22.1646  -12.1294  -19.4220 C   0  0  2  0  0  0  0  0  0  0  0  0
   23.5362  -11.7814  -19.6329 N   0  0  0  0  0  0  0  0  0  0  0  0
   21.5976  -11.3881  -18.2468 C   0  0  0  0  0  0  0  0  0  0  0  0
   20.3756  -11.5391  -17.9654 O   0  0  0  0  0  0  0  0  0  0  0  0
   22.9710   -9.8853  -12.6843 C   0  0  0  0  0  0  0  0  0  0  0  0
   22.1037   -9.5400  -13.8817 C   0  0  0  0  0  0  0  0  0  0  0  0
   22.5715  -10.1689  -15.1322 C   0  0  2  0  0  0  0  0  0  0  0  0
   23.9819   -9.7762  -15.5164 C   0  0  0  0  0  0  0  0  0  0  0  0
   21.6936   -9.8320  -16.3112 C   0  0  2  0  0  0  0  0  0  0  0  0
   22.3742  -10.5266  -17.4403 N   0  0  0  0  0  0  0  0  0  0  0  0
   21.5608   -8.4133  -16.6181 C   0  0  0  0  0  0  0  0  0  0  0  0
   22.5328   -7.7712  -17.1186 O   0  0  0  0  0  0  0  0  0  0  0  0
   19.6397   -3.7301  -17.7388 N   0  0  0  0  0  0  0  0  0  0  0  0
   19.1124   -4.8518  -18.4328 C   0  0  0  0  0  0  0  0  0  0  0  0
   18.3923   -4.6472  -19.4233 O   0  0  0  0  0  0  0  0  0  0  0  0
   19.4332   -6.1805  -17.9608 C   0  0  0  0  0  0  0  0  0  0  0  0
   20.2949   -6.2465  -16.7207 C   0  0  2  0  0  0  0  0  0  0  0  0
   20.3757   -7.6725  -16.3946 N   0  0  0  0  0  0  0  0  0  0  0  0
   19.6989   -5.5019  -15.6166 C   0  0  0  0  0  0  0  0  0  0  0  0
   20.1574   -4.1934  -15.3747 O   0  0  0  0  0  0  0  0  0  0  0  0
   18.8063   -5.8930  -14.8362 O   0  0  0  0  0  0  0  0  0  0  0  0
  2  1  1  1
  2  3  1  0
  2  4  1  0
  4  5  2  0
  6  7  1  0
  7  8  1  0
  8 10  1  0
  8  9  1  6
 10 12  1  0
 11  4  1  0
 10 11  1  6
 12 19  1  0
 12 13  2  0
 14 15  1  0
 15 17  1  0
 16 15  2  0
 18 17  1  6
 18 20  1  0
 19 18  1  0
 20 22  2  0
 20 21  1  0
M  END
$$$$
