AIN.pdb
     RDKit          3D

 22 21  0  0  1  0  0  0  0  0999 V2000
   20.9696  -12.9075  -18.8296 C   0  0  0  0  0  0  0  0  0  0  0  0
   22.0922  -13.5576  -18.0327 C   0  0  2  0  0  0  0  0  0  0  0  0
   21.6138  -14.7382  -17.3816 N   0  0  0  0  0  0  0  0  0  0  0  0
   22.5795  -12.5522  -17.0308 C   0  0  0  0  0  0  0  0  0  0  0  0
   21.8681  -12.3130  -16.0149 O   0  0  0  0  0  0  0  0  0  0  0  0
   27.7207  -12.0429  -15.8179 C   0  0  0  0  0  0  0  0  0  0  0  0
   26.2088  -12.0030  -15.6840 C   0  0  0  0  0  0  0  0  0  0  0  0
   25.6183  -10.7502  -16.1937 C   0  0  2  0  0  0  0  0  0  0  0  0
   26.0250   -9.5243  -15.4044 C   0  0  0  0  0  0  0  0  0  0  0  0
   24.1106  -10.7816  -16.1952 C   0  0  2  0  0  0  0  0  0  0  0  0
   23.8026  -11.8604  -17.1760 N   0  0  0  0  0  0  0  0  0  0  0  0
   23.4509   -9.5472  -16.6021 C   0  0  0  0  0  0  0  0  0  0  0  0
   23.6278   -9.0789  -17.7670 O   0  0  0  0  0  0  0  0  0  0  0  0
   20.1885   -5.5257  -16.8935 N   0  0  0  0  0  0  0  0  0  0  0  0
   19.8076   -6.8546  -17.2207 C   0  0  0  0  0  0  0  0  0  0  0  0
   18.7260   -7.0313  -17.8039 O   0  0  0  0  0  0  0  0  0  0  0  0
   20.6899   -7.9432  -16.8633 C   0  0  0  0  0  0  0  0  0  0  0  0
   21.9887   -7.5451  -16.2003 C   0  0  2  0  0  0  0  0  0  0  0  0
   22.5878   -8.8072  -15.7592 N   0  0  0  0  0  0  0  0  0  0  0  0
   21.7579   -6.6626  -15.0617 C   0  0  0  0  0  0  0  0  0  0  0  0
   21.5682   -7.2481  -13.7960 O   0  0  0  0  0  0  0  0  0  0  0  0
   21.7057   -5.4152  -15.0709 O   0  0  0  0  0  0  0  0  0  0  0  0
  2  1  1  1
  2  3  1  0
  2  4  1  0
  4  5  2  0
  6  7  1  0
  7  8  1  0
  8 10  1  0
  8  9  1  1
 10 12  1  0
 11  4  1  0
 10 11  1  6
 12 19  1  0
 12 13  2  0
 14 15  1  0
 15 17  1  0
 16 15  2  0
 18 17  1  1
 18 20  1  0
 19 18  1  0
 20 22  2  0
 20 21  1  0
M  END
$$$$
