AIN.pdb
     RDKit          3D

 22 21  0  0  1  0  0  0  0  0999 V2000
   15.1495  -12.1493  -11.3887 C   0  0  0  0  0  0  0  0  0  0  0  0
   14.2668  -11.1815  -10.6126 C   0  0  2  0  0  0  0  0  0  0  0  0
   12.8954  -11.3675  -10.9752 N   0  0  0  0  0  0  0  0  0  0  0  0
   14.7236   -9.7894  -10.9373 C   0  0  0  0  0  0  0  0  0  0  0  0
   14.4545   -9.3115  -12.0750 O   0  0  0  0  0  0  0  0  0  0  0  0
   14.3779   -4.6906  -10.1767 C   0  0  0  0  0  0  0  0  0  0  0  0
   15.3197   -5.3815   -9.2067 C   0  0  0  0  0  0  0  0  0  0  0  0
   15.1129   -6.8414   -9.1440 C   0  0  2  0  0  0  0  0  0  0  0  0
   15.7662   -7.4943   -7.9448 C   0  0  0  0  0  0  0  0  0  0  0  0
   15.6424   -7.5523  -10.3640 C   0  0  2  0  0  0  0  0  0  0  0  0
   15.4437   -8.9891  -10.0225 N   0  0  0  0  0  0  0  0  0  0  0  0
   17.0455   -7.3133  -10.6782 C   0  0  0  0  0  0  0  0  0  0  0  0
   17.9582   -7.9190  -10.0398 O   0  0  0  0  0  0  0  0  0  0  0  0
   21.4071   -6.6501  -13.2426 N   0  0  0  0  0  0  0  0  0  0  0  0
   20.5135   -7.7510  -13.3287 C   0  0  0  0  0  0  0  0  0  0  0  0
   20.8675   -8.7484  -13.9777 O   0  0  0  0  0  0  0  0  0  0  0  0
   19.2336   -7.6670  -12.6607 C   0  0  0  0  0  0  0  0  0  0  0  0
   18.8934   -6.3221  -12.0604 C   0  0  2  0  0  0  0  0  0  0  0  0
   17.4798   -6.4231  -11.6891 N   0  0  0  0  0  0  0  0  0  0  0  0
   19.0945   -5.2427  -13.0211 C   0  0  0  0  0  0  0  0  0  0  0  0
   18.0717   -4.9846  -13.9528 O   0  0  0  0  0  0  0  0  0  0  0  0
   20.0910   -4.4975  -13.1228 O   0  0  0  0  0  0  0  0  0  0  0  0
  2  1  1  6
  2  3  1  0
  2  4  1  0
  4  5  2  0
  6  7  1  0
  7  8  1  0
  8 10  1  0
  8  9  1  1
 10 12  1  0
 11  4  1  0
 10 11  1  1
 12 19  1  0
 12 13  2  0
 14 15  1  0
 15 17  1  0
 16 15  2  0
 18 17  1  6
 18 20  1  0
 19 18  1  0
 20 22  2  0
 20 21  1  0
M  END
$$$$
