AIN.pdb
     RDKit          3D

 22 21  0  0  1  0  0  0  0  0999 V2000
   27.5774  -19.3948  -15.8523 C   0  0  0  0  0  0  0  0  0  0  0  0
   28.0205  -20.4736  -14.8735 C   0  0  2  0  0  0  0  0  0  0  0  0
   28.5437  -21.5989  -15.5853 N   0  0  0  0  0  0  0  0  0  0  0  0
   26.8244  -20.8645  -14.0559 C   0  0  0  0  0  0  0  0  0  0  0  0
   26.0036  -21.6943  -14.5384 O   0  0  0  0  0  0  0  0  0  0  0  0
   27.2756  -20.3213   -8.7576 C   0  0  0  0  0  0  0  0  0  0  0  0
   26.8481  -20.9717  -10.0613 C   0  0  0  0  0  0  0  0  0  0  0  0
   25.6214  -20.3771  -10.6266 C   0  0  2  0  0  0  0  0  0  0  0  0
   24.3715  -20.7033   -9.8377 C   0  0  0  0  0  0  0  0  0  0  0  0
   25.3649  -20.8219  -12.0446 C   0  0  2  0  0  0  0  0  0  0  0  0
   26.5770  -20.3425  -12.7666 N   0  0  0  0  0  0  0  0  0  0  0  0
   24.1706  -20.2734  -12.6750 C   0  0  0  0  0  0  0  0  0  0  0  0
   24.0361  -19.0203  -12.8136 O   0  0  0  0  0  0  0  0  0  0  0  0
   20.6771  -20.1307  -16.9707 N   0  0  0  0  0  0  0  0  0  0  0  0
   20.5240  -20.9431  -15.8155 C   0  0  0  0  0  0  0  0  0  0  0  0
   19.3826  -21.3242  -15.5098 O   0  0  0  0  0  0  0  0  0  0  0  0
   21.6970  -21.2921  -15.0451 C   0  0  0  0  0  0  0  0  0  0  0  0
   21.9335  -20.4688  -13.7997 C   0  0  2  0  0  0  0  0  0  0  0  0
   23.1109  -21.0708  -13.1691 N   0  0  0  0  0  0  0  0  0  0  0  0
   20.7869  -20.5222  -12.8991 C   0  0  0  0  0  0  0  0  0  0  0  0
   19.7933  -19.5342  -13.0305 O   0  0  0  0  0  0  0  0  0  0  0  0
   20.5714  -21.3603  -11.9992 O   0  0  0  0  0  0  0  0  0  0  0  0
  2  1  1  6
  2  3  1  0
  2  4  1  0
  4  5  2  0
  6  7  1  0
  7  8  1  0
  8 10  1  0
  8  9  1  1
 10 12  1  0
 11  4  1  0
 10 11  1  6
 12 19  1  0
 12 13  2  0
 14 15  1  0
 15 17  1  0
 16 15  2  0
 18 17  1  6
 18 20  1  0
 19 18  1  0
 20 22  2  0
 20 21  1  0
M  END
$$$$
