AIN.pdb
     RDKit          3D

 22 21  0  0  1  0  0  0  0  0999 V2000
   22.9752  -12.2819  -21.2549 C   0  0  0  0  0  0  0  0  0  0  0  0
   23.7507  -13.0421  -20.1878 C   0  0  2  0  0  0  0  0  0  0  0  0
   23.2264  -14.3657  -20.0476 N   0  0  0  0  0  0  0  0  0  0  0  0
   23.6258  -12.2765  -18.9032 C   0  0  0  0  0  0  0  0  0  0  0  0
   22.6397  -12.5109  -18.1497 O   0  0  0  0  0  0  0  0  0  0  0  0
   27.9422  -11.7867  -16.0537 C   0  0  0  0  0  0  0  0  0  0  0  0
   26.4886  -11.8994  -16.4773 C   0  0  0  0  0  0  0  0  0  0  0  0
   25.8405  -10.5872  -16.6674 C   0  0  2  0  0  0  0  0  0  0  0  0
   25.8083   -9.7407  -15.4130 C   0  0  0  0  0  0  0  0  0  0  0  0
   24.4141  -10.7112  -17.1408 C   0  0  2  0  0  0  0  0  0  0  0  0
   24.5663  -11.3024  -18.5002 N   0  0  0  0  0  0  0  0  0  0  0  0
   23.6650   -9.4640  -17.2306 C   0  0  0  0  0  0  0  0  0  0  0  0
   24.1193   -8.4895  -17.9025 O   0  0  0  0  0  0  0  0  0  0  0  0
   19.7768   -5.9510  -16.7291 N   0  0  0  0  0  0  0  0  0  0  0  0
   19.2883   -7.2713  -16.5391 C   0  0  0  0  0  0  0  0  0  0  0  0
   18.0632   -7.4356  -16.4224 O   0  0  0  0  0  0  0  0  0  0  0  0
   20.2320   -8.3660  -16.4891 C   0  0  0  0  0  0  0  0  0  0  0  0
   21.6716   -8.0054  -16.7763 C   0  0  2  0  0  0  0  0  0  0  0  0
   22.4142   -9.2562  -16.6019 N   0  0  0  0  0  0  0  0  0  0  0  0
   22.1607   -6.9867  -15.8536 C   0  0  0  0  0  0  0  0  0  0  0  0
   22.0114   -5.6353  -16.2173 O   0  0  0  0  0  0  0  0  0  0  0  0
   22.7122   -7.1702  -14.7486 O   0  0  0  0  0  0  0  0  0  0  0  0
  2  1  1  6
  2  3  1  0
  2  4  1  0
  4  5  2  0
  6  7  1  0
  7  8  1  0
  8 10  1  0
  8  9  1  1
 10 12  1  0
 11  4  1  0
 10 11  1  6
 12 19  1  0
 12 13  2  0
 14 15  1  0
 15 17  1  0
 16 15  2  0
 18 17  1  1
 18 20  1  0
 19 18  1  0
 20 22  2  0
 20 21  1  0
M  END
$$$$
