AIN.pdb
     RDKit          3D

 22 21  0  0  1  0  0  0  0  0999 V2000
   18.9028  -12.5560  -18.0488 C   0  0  0  0  0  0  0  0  0  0  0  0
   19.6996  -11.3137  -18.4228 C   0  0  2  0  0  0  0  0  0  0  0  0
   20.5960  -11.6092  -19.4978 N   0  0  0  0  0  0  0  0  0  0  0  0
   20.4525  -10.8721  -17.2021 C   0  0  0  0  0  0  0  0  0  0  0  0
   19.8040  -10.6057  -16.1515 O   0  0  0  0  0  0  0  0  0  0  0  0
   25.0812  -13.0298  -15.8060 C   0  0  0  0  0  0  0  0  0  0  0  0
   23.7388  -12.3269  -15.7101 C   0  0  0  0  0  0  0  0  0  0  0  0
   23.8348  -10.8698  -15.9238 C   0  0  2  0  0  0  0  0  0  0  0  0
   24.6605  -10.1573  -14.8742 C   0  0  0  0  0  0  0  0  0  0  0  0
   22.4846  -10.1985  -15.9394 C   0  0  2  0  0  0  0  0  0  0  0  0
   21.8590  -10.7412  -17.1781 N   0  0  0  0  0  0  0  0  0  0  0  0
   22.5010   -8.7422  -15.9968 C   0  0  0  0  0  0  0  0  0  0  0  0
   23.1015   -8.1439  -16.9397 O   0  0  0  0  0  0  0  0  0  0  0  0
   21.5140   -3.7080  -15.3008 N   0  0  0  0  0  0  0  0  0  0  0  0
   20.4871   -4.5598  -15.7886 C   0  0  0  0  0  0  0  0  0  0  0  0
   19.4694   -4.0390  -16.2726 O   0  0  0  0  0  0  0  0  0  0  0  0
   20.6666   -5.9921  -15.7023 C   0  0  0  0  0  0  0  0  0  0  0  0
   21.9746   -6.4550  -15.1026 C   0  0  2  0  0  0  0  0  0  0  0  0
   21.8643   -7.9147  -15.0414 N   0  0  0  0  0  0  0  0  0  0  0  0
   22.1755   -5.9005  -13.7682 C   0  0  0  0  0  0  0  0  0  0  0  0
   21.9844   -6.7487  -12.6614 O   0  0  0  0  0  0  0  0  0  0  0  0
   22.5053   -4.7320  -13.4772 O   0  0  0  0  0  0  0  0  0  0  0  0
  2  1  1  1
  2  3  1  0
  2  4  1  0
  4  5  2  0
  6  7  1  0
  7  8  1  0
  8 10  1  0
  8  9  1  1
 10 12  1  0
 11  4  1  0
 10 11  1  6
 12 19  1  0
 12 13  2  0
 14 15  1  0
 15 17  1  0
 16 15  2  0
 18 17  1  1
 18 20  1  0
 19 18  1  0
 20 22  2  0
 20 21  1  0
M  END
$$$$
