VWP.pdb
     RDKit          3D

 29 31  0  0  1  0  0  0  0  0999 V2000
    8.2782  -15.1939   19.0329 C   0  0  0  0  0  0  0  0  0  0  0  0
    8.5663  -14.7661   20.4327 C   0  0  1  0  0  0  0  0  0  0  0  0
    7.2491  -14.6049   21.1931 C   0  0  0  0  0  0  0  0  0  0  0  0
    9.4275  -15.7246   21.2177 C   0  0  2  0  0  0  0  0  0  0  0  0
    8.7293  -17.0201   21.1771 N   0  0  0  0  0  0  0  0  0  0  0  0
    9.6062  -15.2950   22.6399 C   0  0  0  0  0  0  0  0  0  0  0  0
   10.2082  -14.2420   22.8330 O   0  0  0  0  0  0  0  0  0  0  0  0
    9.0965  -16.0840   23.6725 N   0  0  0  0  0  0  0  0  0  0  0  0
    9.1926  -15.6580   25.0626 C   0  0  1  0  0  0  0  0  0  0  0  0
    7.9681  -16.1176   25.8272 C   0  0  0  0  0  0  0  0  0  0  0  0
    6.8889  -15.1277   25.8337 C   0  0  0  0  0  0  0  0  0  0  0  0
    5.5191  -15.4055   25.7470 C   0  0  0  0  0  0  0  0  0  0  0  0
    4.8485  -14.2663   25.7796 N   0  0  0  0  0  0  0  0  0  0  0  0
    5.6860  -13.2033   25.8852 C   0  0  0  0  0  0  0  0  0  0  0  0
    5.4680  -11.8411   25.9540 C   0  0  0  0  0  0  0  0  0  0  0  0
    6.5330  -10.9732   26.0595 C   0  0  0  0  0  0  0  0  0  0  0  0
    7.7990  -11.4939   26.0940 C   0  0  0  0  0  0  0  0  0  0  0  0
    8.0163  -12.8464   26.0259 C   0  0  0  0  0  0  0  0  0  0  0  0
    6.9606  -13.7598   25.9178 C   0  0  0  0  0  0  0  0  0  0  0  0
   10.3929  -16.1943   25.7086 C   0  0  0  0  0  0  0  0  0  0  0  0
   11.1984  -16.8881   25.0440 O   0  0  0  0  0  0  0  0  0  0  0  0
   10.6826  -15.9555   27.0689 N   0  0  0  0  0  0  0  0  0  0  0  0
    9.9073  -15.2315   28.0402 C   0  0  0  0  0  0  0  0  0  0  0  0
   10.9718  -14.4466   28.7928 C   0  0  0  0  0  0  0  0  0  0  0  0
   12.2434  -15.2332   28.6147 C   0  0  0  0  0  0  0  0  0  0  0  0
   11.8702  -16.4305   27.7957 C   0  0  1  0  0  0  0  0  0  0  0  0
   11.4678  -17.6106   28.5899 C   0  0  0  0  0  0  0  0  0  0  0  0
   12.3287  -18.2450   29.2344 O   0  0  0  0  0  0  0  0  0  0  0  0
   10.1573  -18.0616   28.6592 O   0  0  0  0  0  0  0  0  0  0  0  0
  2  3  1  1
  2  1  1  0
  4  2  1  0
  4  5  1  1
  6  8  1  0
  6  4  1  0
  7  6  2  0
  9  8  1  0
  9 10  1  1
 10 11  1  0
 11 12  2  0
 11 19  1  0
 12 13  1  0
 13 14  1  0
 14 15  2  0
 16 15  1  0
 17 16  2  0
 18 19  2  0
 18 17  1  0
 19 14  1  0
 20 21  2  0
 20  9  1  0
 22 20  1  0
 23 22  1  0
 24 23  1  0
 25 24  1  0
 25 26  1  0
 26 22  1  0
 27 29  1  0
 26 27  1  1
 28 27  2  0
M  END
$$$$
