VWP.pdb
     RDKit          3D

 29 31  0  0  1  0  0  0  0  0999 V2000
    6.6847  -22.8924   22.5802 C   0  0  0  0  0  0  0  0  0  0  0  0
    6.9418  -21.4427   22.8206 C   0  0  1  0  0  0  0  0  0  0  0  0
    7.4066  -20.7892   21.5182 C   0  0  0  0  0  0  0  0  0  0  0  0
    5.7462  -20.6663   23.3148 C   0  0  2  0  0  0  0  0  0  0  0  0
    4.6872  -20.8762   22.3140 N   0  0  0  0  0  0  0  0  0  0  0  0
    6.0318  -19.2032   23.4442 C   0  0  0  0  0  0  0  0  0  0  0  0
    5.8636  -18.5115   22.4433 O   0  0  0  0  0  0  0  0  0  0  0  0
    6.4682  -18.6865   24.6653 N   0  0  0  0  0  0  0  0  0  0  0  0
    6.8912  -17.2975   24.7865 C   0  0  1  0  0  0  0  0  0  0  0  0
    6.9283  -16.8968   26.2472 C   0  0  0  0  0  0  0  0  0  0  0  0
    7.0493  -15.4507   26.4440 C   0  0  0  0  0  0  0  0  0  0  0  0
    6.0645  -14.4975   26.1567 C   0  0  0  0  0  0  0  0  0  0  0  0
    6.5296  -13.2971   26.4588 N   0  0  0  0  0  0  0  0  0  0  0  0
    7.7952  -13.3660   26.9447 C   0  0  0  0  0  0  0  0  0  0  0  0
    8.6832  -12.4051   27.3874 C   0  0  0  0  0  0  0  0  0  0  0  0
    9.9332  -12.7711   27.8370 C   0  0  0  0  0  0  0  0  0  0  0  0
   10.2659  -14.0994   27.8327 C   0  0  0  0  0  0  0  0  0  0  0  0
    9.3846  -15.0542   27.3936 C   0  0  0  0  0  0  0  0  0  0  0  0
    8.1062  -14.7219   26.9290 C   0  0  0  0  0  0  0  0  0  0  0  0
    8.2140  -17.0835   24.1948 C   0  0  0  0  0  0  0  0  0  0  0  0
    9.0656  -18.0030   24.2289 O   0  0  0  0  0  0  0  0  0  0  0  0
    8.5714  -15.8658   23.5778 N   0  0  0  0  0  0  0  0  0  0  0  0
    8.0494  -14.5475   23.8197 C   0  0  0  0  0  0  0  0  0  0  0  0
    7.9307  -13.9771   22.4138 C   0  0  0  0  0  0  0  0  0  0  0  0
    8.9355  -14.7395   21.5913 C   0  0  0  0  0  0  0  0  0  0  0  0
    9.5978  -15.6924   22.5383 C   0  0  1  0  0  0  0  0  0  0  0  0
   10.8116  -15.1579   23.1912 C   0  0  0  0  0  0  0  0  0  0  0  0
   11.8224  -14.9034   22.5037 O   0  0  0  0  0  0  0  0  0  0  0  0
   10.8906  -14.9188   24.5558 O   0  0  0  0  0  0  0  0  0  0  0  0
  2  3  1  6
  2  1  1  0
  4  2  1  0
  4  5  1  6
  6  8  1  0
  6  4  1  0
  7  6  2  0
  9  8  1  0
  9 10  1  1
 10 11  1  0
 11 12  2  0
 11 19  1  0
 12 13  1  0
 13 14  1  0
 14 15  2  0
 16 15  1  0
 17 16  2  0
 18 19  2  0
 18 17  1  0
 19 14  1  0
 20 21  2  0
 20  9  1  0
 22 20  1  0
 23 22  1  0
 24 23  1  0
 25 24  1  0
 25 26  1  0
 26 22  1  0
 27 29  1  0
 26 27  1  1
 28 27  2  0
M  END
$$$$
