VWP.pdb
     RDKit          3D

 29 31  0  0  1  0  0  0  0  0999 V2000
    8.4845  -15.3804   18.9966 C   0  0  0  0  0  0  0  0  0  0  0  0
    8.6560  -14.9210   20.4055 C   0  0  1  0  0  0  0  0  0  0  0  0
    7.2844  -14.8215   21.0750 C   0  0  0  0  0  0  0  0  0  0  0  0
    9.5123  -15.8225   21.2602 C   0  0  2  0  0  0  0  0  0  0  0  0
    8.8688  -17.1460   21.2210 N   0  0  0  0  0  0  0  0  0  0  0  0
    9.5997  -15.3486   22.6769 C   0  0  0  0  0  0  0  0  0  0  0  0
   10.1513  -14.2684   22.8706 O   0  0  0  0  0  0  0  0  0  0  0  0
    9.0659  -16.1287   23.7040 N   0  0  0  0  0  0  0  0  0  0  0  0
    9.1560  -15.7053   25.0952 C   0  0  1  0  0  0  0  0  0  0  0  0
    7.9484  -16.2022   25.8634 C   0  0  0  0  0  0  0  0  0  0  0  0
    6.8519  -15.2322   25.9015 C   0  0  0  0  0  0  0  0  0  0  0  0
    5.4855  -15.5352   25.8542 C   0  0  0  0  0  0  0  0  0  0  0  0
    4.7953  -14.4085   25.9068 N   0  0  0  0  0  0  0  0  0  0  0  0
    5.6159  -13.3303   25.9888 C   0  0  0  0  0  0  0  0  0  0  0  0
    5.3750  -11.9724   26.0648 C   0  0  0  0  0  0  0  0  0  0  0  0
    6.4265  -11.0851   26.1401 C   0  0  0  0  0  0  0  0  0  0  0  0
    7.7023  -11.5824   26.1377 C   0  0  0  0  0  0  0  0  0  0  0  0
    7.9423  -12.9307   26.0626 C   0  0  0  0  0  0  0  0  0  0  0  0
    6.9008  -13.8633   25.9844 C   0  0  0  0  0  0  0  0  0  0  0  0
   10.3739  -16.2096   25.7340 C   0  0  0  0  0  0  0  0  0  0  0  0
   11.1902  -16.8877   25.0663 O   0  0  0  0  0  0  0  0  0  0  0  0
   10.6689  -15.9568   27.0906 N   0  0  0  0  0  0  0  0  0  0  0  0
    9.9166  -15.1902   28.0471 C   0  0  0  0  0  0  0  0  0  0  0  0
   11.0056  -14.4285   28.7886 C   0  0  0  0  0  0  0  0  0  0  0  0
   12.2502  -15.2605   28.6274 C   0  0  0  0  0  0  0  0  0  0  0  0
   11.8384  -16.4587   27.8286 C   0  0  1  0  0  0  0  0  0  0  0  0
   11.3949  -17.6104   28.6423 C   0  0  0  0  0  0  0  0  0  0  0  0
   10.1764  -17.8645   28.7419 O   0  0  0  0  0  0  0  0  0  0  0  0
   12.2778  -18.4421   29.3163 O   0  0  0  0  0  0  0  0  0  0  0  0
  2  3  1  1
  2  1  1  0
  4  2  1  0
  4  5  1  1
  6  8  1  0
  6  4  1  0
  7  6  2  0
  9  8  1  0
  9 10  1  1
 10 11  1  0
 11 12  2  0
 11 19  1  0
 12 13  1  0
 13 14  1  0
 14 15  2  0
 16 15  1  0
 17 16  2  0
 18 19  2  0
 18 17  1  0
 19 14  1  0
 20 21  2  0
 20  9  1  0
 22 20  1  0
 23 22  1  0
 24 23  1  0
 25 24  1  0
 25 26  1  0
 26 22  1  0
 27 29  1  0
 26 27  1  1
 28 27  2  0
M  END
$$$$
