VWP.pdb
     RDKit          3D

 29 31  0  0  1  0  0  0  0  0999 V2000
    8.3117  -15.0845   19.0450 C   0  0  0  0  0  0  0  0  0  0  0  0
    8.5417  -14.6701   20.4595 C   0  0  1  0  0  0  0  0  0  0  0  0
    7.1993  -14.5947   21.1886 C   0  0  0  0  0  0  0  0  0  0  0  0
    9.4335  -15.5969   21.2483 C   0  0  2  0  0  0  0  0  0  0  0  0
    8.8019  -16.9246   21.1742 N   0  0  0  0  0  0  0  0  0  0  0  0
    9.5618  -15.1812   22.6801 C   0  0  0  0  0  0  0  0  0  0  0  0
   10.0697  -14.0845   22.8991 O   0  0  0  0  0  0  0  0  0  0  0  0
    9.1120  -16.0305   23.6924 N   0  0  0  0  0  0  0  0  0  0  0  0
    9.1749  -15.6318   25.0924 C   0  0  1  0  0  0  0  0  0  0  0  0
    7.9404  -16.1203   25.8222 C   0  0  0  0  0  0  0  0  0  0  0  0
    6.8486  -15.1442   25.8227 C   0  0  0  0  0  0  0  0  0  0  0  0
    5.4832  -15.4394   25.7253 C   0  0  0  0  0  0  0  0  0  0  0  0
    4.7978  -14.3090   25.7552 N   0  0  0  0  0  0  0  0  0  0  0  0
    5.6208  -13.2355   25.8693 C   0  0  0  0  0  0  0  0  0  0  0  0
    5.3849  -11.8764   25.9394 C   0  0  0  0  0  0  0  0  0  0  0  0
    6.4378  -10.9952   26.0547 C   0  0  0  0  0  0  0  0  0  0  0  0
    7.7101  -11.4997   26.0974 C   0  0  0  0  0  0  0  0  0  0  0  0
    7.9453  -12.8492   26.0282 C   0  0  0  0  0  0  0  0  0  0  0  0
    6.9021  -13.7757   25.9103 C   0  0  0  0  0  0  0  0  0  0  0  0
   10.3679  -16.1679   25.7521 C   0  0  0  0  0  0  0  0  0  0  0  0
   11.1904  -16.8462   25.0924 O   0  0  0  0  0  0  0  0  0  0  0  0
   10.6316  -15.9458   27.1205 N   0  0  0  0  0  0  0  0  0  0  0  0
    9.8213  -15.2642   28.0938 C   0  0  0  0  0  0  0  0  0  0  0  0
   10.8509  -14.4613   28.8756 C   0  0  0  0  0  0  0  0  0  0  0  0
   12.1484  -15.2052   28.7010 C   0  0  0  0  0  0  0  0  0  0  0  0
   11.8234  -16.3978   27.8552 C   0  0  1  0  0  0  0  0  0  0  0  0
   11.4468  -17.6043   28.6219 C   0  0  0  0  0  0  0  0  0  0  0  0
   10.2484  -17.9497   28.6821 O   0  0  0  0  0  0  0  0  0  0  0  0
   12.3725  -18.3904   29.2931 O   0  0  0  0  0  0  0  0  0  0  0  0
  2  3  1  1
  2  1  1  0
  4  2  1  0
  4  5  1  1
  6  8  1  0
  6  4  1  0
  7  6  2  0
  9  8  1  0
  9 10  1  1
 10 11  1  0
 11 12  2  0
 11 19  1  0
 12 13  1  0
 13 14  1  0
 14 15  2  0
 16 15  1  0
 17 16  2  0
 18 19  2  0
 18 17  1  0
 19 14  1  0
 20 21  2  0
 20  9  1  0
 22 20  1  0
 23 22  1  0
 24 23  1  0
 25 24  1  0
 25 26  1  0
 26 22  1  0
 27 29  1  0
 26 27  1  1
 28 27  2  0
M  END
$$$$
