VWP.pdb
     RDKit          3D

 29 31  0  0  1  0  0  0  0  0999 V2000
    6.7872  -22.5289   22.5648 C   0  0  0  0  0  0  0  0  0  0  0  0
    7.0428  -21.0592   22.5753 C   0  0  1  0  0  0  0  0  0  0  0  0
    6.7087  -20.4782   21.2005 C   0  0  0  0  0  0  0  0  0  0  0  0
    6.2432  -20.2900   23.5980 C   0  0  2  0  0  0  0  0  0  0  0  0
    4.8467  -20.7230   23.4268 N   0  0  0  0  0  0  0  0  0  0  0  0
    6.3381  -18.8101   23.3985 C   0  0  0  0  0  0  0  0  0  0  0  0
    5.5638  -18.3056   22.5894 O   0  0  0  0  0  0  0  0  0  0  0  0
    7.2781  -18.0714   24.1191 N   0  0  0  0  0  0  0  0  0  0  0  0
    7.5442  -16.6752   23.7983 C   0  0  1  0  0  0  0  0  0  0  0  0
    8.1457  -15.9769   25.0008 C   0  0  0  0  0  0  0  0  0  0  0  0
    7.2268  -15.0291   25.6347 C   0  0  0  0  0  0  0  0  0  0  0  0
    5.9215  -15.3088   26.0579 C   0  0  0  0  0  0  0  0  0  0  0  0
    5.3964  -14.2126   26.5787 N   0  0  0  0  0  0  0  0  0  0  0  0
    6.2742  -13.1780   26.5396 C   0  0  0  0  0  0  0  0  0  0  0  0
    6.1920  -11.8626   26.9528 C   0  0  0  0  0  0  0  0  0  0  0  0
    7.2650  -11.0147   26.7839 C   0  0  0  0  0  0  0  0  0  0  0  0
    8.4019  -11.5080   26.2016 C   0  0  0  0  0  0  0  0  0  0  0  0
    8.4845  -12.8142   25.7913 C   0  0  0  0  0  0  0  0  0  0  0  0
    7.4159  -13.7058   25.9454 C   0  0  0  0  0  0  0  0  0  0  0  0
    8.4585  -16.5486   22.6609 C   0  0  0  0  0  0  0  0  0  0  0  0
    9.1642  -17.5271   22.3195 O   0  0  0  0  0  0  0  0  0  0  0  0
    8.5762  -15.3515   21.9231 N   0  0  0  0  0  0  0  0  0  0  0  0
    8.0981  -14.0372   22.2587 C   0  0  0  0  0  0  0  0  0  0  0  0
    7.5560  -13.5342   20.9286 C   0  0  0  0  0  0  0  0  0  0  0  0
    8.3069  -14.3076   19.8774 C   0  0  0  0  0  0  0  0  0  0  0  0
    9.2502  -15.1998   20.6242 C   0  0  1  0  0  0  0  0  0  0  0  0
   10.5803  -14.6058   20.8758 C   0  0  0  0  0  0  0  0  0  0  0  0
   10.8530  -14.1572   22.0088 O   0  0  0  0  0  0  0  0  0  0  0  0
   11.5633  -14.5174   19.9004 O   0  0  0  0  0  0  0  0  0  0  0  0
  2  3  1  6
  2  1  1  0
  4  2  1  0
  4  5  1  6
  6  8  1  0
  6  4  1  0
  7  6  2  0
  9  8  1  0
  9 10  1  1
 10 11  1  0
 11 12  2  0
 11 19  1  0
 12 13  1  0
 13 14  1  0
 14 15  2  0
 16 15  1  0
 17 16  2  0
 18 19  2  0
 18 17  1  0
 19 14  1  0
 20 21  2  0
 20  9  1  0
 22 20  1  0
 23 22  1  0
 24 23  1  0
 25 24  1  0
 25 26  1  0
 26 22  1  0
 27 29  1  0
 26 27  1  1
 28 27  2  0
M  END
$$$$
