VWP.pdb
     RDKit          3D

 29 31  0  0  1  0  0  0  0  0999 V2000
    6.6427  -20.1876   20.2834 C   0  0  0  0  0  0  0  0  0  0  0  0
    5.4149  -20.5611   21.0440 C   0  0  1  0  0  0  0  0  0  0  0  0
    5.1850  -22.0684   20.9237 C   0  0  0  0  0  0  0  0  0  0  0  0
    5.4610  -20.2264   22.5145 C   0  0  2  0  0  0  0  0  0  0  0  0
    4.1481  -20.6124   23.0573 N   0  0  0  0  0  0  0  0  0  0  0  0
    5.6966  -18.7691   22.7592 C   0  0  0  0  0  0  0  0  0  0  0  0
    4.8669  -17.9859   22.3043 O   0  0  0  0  0  0  0  0  0  0  0  0
    6.8212  -18.3587   23.4771 N   0  0  0  0  0  0  0  0  0  0  0  0
    7.2274  -16.9597   23.5041 C   0  0  1  0  0  0  0  0  0  0  0  0
    7.7737  -16.6091   24.8730 C   0  0  0  0  0  0  0  0  0  0  0  0
    7.0710  -15.4894   25.5033 C   0  0  0  0  0  0  0  0  0  0  0  0
    5.7122  -15.4578   25.8402 C   0  0  0  0  0  0  0  0  0  0  0  0
    5.4339  -14.2862   26.3865 N   0  0  0  0  0  0  0  0  0  0  0  0
    6.5358  -13.4958   26.4475 C   0  0  0  0  0  0  0  0  0  0  0  0
    6.7464  -12.2157   26.9217 C   0  0  0  0  0  0  0  0  0  0  0  0
    8.0006  -11.6492   26.8544 C   0  0  0  0  0  0  0  0  0  0  0  0
    9.0206  -12.3833   26.3105 C   0  0  0  0  0  0  0  0  0  0  0  0
    8.8124  -13.6547   25.8398 C   0  0  0  0  0  0  0  0  0  0  0  0
    7.5528  -14.2641   25.8903 C   0  0  0  0  0  0  0  0  0  0  0  0
    8.2470  -16.6752   22.4915 C   0  0  0  0  0  0  0  0  0  0  0  0
    8.9466  -17.6101   22.0350 O   0  0  0  0  0  0  0  0  0  0  0  0
    8.4744  -15.3714   22.0021 N   0  0  0  0  0  0  0  0  0  0  0  0
    8.0197  -14.1169   22.5389 C   0  0  0  0  0  0  0  0  0  0  0  0
    7.6151  -13.3504   21.2880 C   0  0  0  0  0  0  0  0  0  0  0  0
    8.4244  -13.9576   20.1728 C   0  0  0  0  0  0  0  0  0  0  0  0
    9.2641  -15.0209   20.8114 C   0  0  1  0  0  0  0  0  0  0  0  0
   10.5892  -14.5557   21.2730 C   0  0  0  0  0  0  0  0  0  0  0  0
   11.4657  -14.2562   20.4356 O   0  0  0  0  0  0  0  0  0  0  0  0
   10.9192  -14.4314   22.6151 O   0  0  0  0  0  0  0  0  0  0  0  0
  2  3  1  1
  2  1  1  0
  4  2  1  0
  4  5  1  6
  6  8  1  0
  6  4  1  0
  7  6  2  0
  9  8  1  0
  9 10  1  1
 10 11  1  0
 11 12  2  0
 11 19  1  0
 12 13  1  0
 13 14  1  0
 14 15  2  0
 16 15  1  0
 17 16  2  0
 18 19  2  0
 18 17  1  0
 19 14  1  0
 20 21  2  0
 20  9  1  0
 22 20  1  0
 23 22  1  0
 24 23  1  0
 25 24  1  0
 25 26  1  0
 26 22  1  0
 27 29  1  0
 26 27  1  1
 28 27  2  0
M  END
$$$$
