VWP.pdb
     RDKit          3D

 29 31  0  0  1  0  0  0  0  0999 V2000
    6.9413  -18.4894   18.8169 C   0  0  0  0  0  0  0  0  0  0  0  0
    7.8273  -17.9489   19.8886 C   0  0  1  0  0  0  0  0  0  0  0  0
    9.0358  -17.2647   19.2478 C   0  0  0  0  0  0  0  0  0  0  0  0
    7.1685  -16.9430   20.8001 C   0  0  2  0  0  0  0  0  0  0  0  0
    6.7378  -15.8342   19.9328 N   0  0  0  0  0  0  0  0  0  0  0  0
    8.1036  -16.4267   21.8480 C   0  0  0  0  0  0  0  0  0  0  0  0
    8.8096  -15.4691   21.5426 O   0  0  0  0  0  0  0  0  0  0  0  0
    8.1418  -17.0340   23.1043 N   0  0  0  0  0  0  0  0  0  0  0  0
    9.1079  -16.6175   24.1123 C   0  0  1  0  0  0  0  0  0  0  0  0
    8.4366  -16.5436   25.4685 C   0  0  0  0  0  0  0  0  0  0  0  0
    7.4488  -15.4665   25.5634 C   0  0  0  0  0  0  0  0  0  0  0  0
    6.0667  -15.6015   25.3832 C   0  0  0  0  0  0  0  0  0  0  0  0
    5.4970  -14.4187   25.5411 N   0  0  0  0  0  0  0  0  0  0  0  0
    6.4170  -13.4614   25.8237 C   0  0  0  0  0  0  0  0  0  0  0  0
    6.3150  -12.1055   26.0664 C   0  0  0  0  0  0  0  0  0  0  0  0
    7.4443  -11.3621   26.3321 C   0  0  0  0  0  0  0  0  0  0  0  0
    8.6565  -11.9987   26.3487 C   0  0  0  0  0  0  0  0  0  0  0  0
    8.7586  -13.3452   26.1081 C   0  0  0  0  0  0  0  0  0  0  0  0
    7.6347  -14.1340   25.8341 C   0  0  0  0  0  0  0  0  0  0  0  0
   10.2418  -17.5419   24.1862 C   0  0  0  0  0  0  0  0  0  0  0  0
   10.1075  -18.7225   23.7862 O   0  0  0  0  0  0  0  0  0  0  0  0
   11.4976  -17.1489   24.6958 N   0  0  0  0  0  0  0  0  0  0  0  0
   11.8851  -15.8816   25.2548 C   0  0  0  0  0  0  0  0  0  0  0  0
   13.2697  -15.6687   24.6604 C   0  0  0  0  0  0  0  0  0  0  0  0
   13.7809  -17.0492   24.3439 C   0  0  0  0  0  0  0  0  0  0  0  0
   12.7003  -17.9924   24.7751 C   0  0  1  0  0  0  0  0  0  0  0  0
   12.8252  -18.4653   26.1702 C   0  0  0  0  0  0  0  0  0  0  0  0
   12.1057  -17.9648   27.0596 O   0  0  0  0  0  0  0  0  0  0  0  0
   13.7180  -19.4560   26.5534 O   0  0  0  0  0  0  0  0  0  0  0  0
  2  3  1  6
  2  1  1  0
  4  2  1  0
  4  5  1  6
  6  8  1  0
  6  4  1  0
  7  6  2  0
  9  8  1  0
  9 10  1  1
 10 11  1  0
 11 12  2  0
 11 19  1  0
 12 13  1  0
 13 14  1  0
 14 15  2  0
 16 15  1  0
 17 16  2  0
 18 19  2  0
 18 17  1  0
 19 14  1  0
 20 21  2  0
 20  9  1  0
 22 20  1  0
 23 22  1  0
 24 23  1  0
 25 24  1  0
 25 26  1  0
 26 22  1  0
 27 29  1  0
 26 27  1  1
 28 27  2  0
M  END
$$$$
