VWP.pdb
     RDKit          3D

 29 31  0  0  1  0  0  0  0  0999 V2000
    8.9896  -13.5756   17.6192 C   0  0  0  0  0  0  0  0  0  0  0  0
    9.2063  -13.3252   19.0738 C   0  0  1  0  0  0  0  0  0  0  0  0
    7.8672  -12.9943   19.7346 C   0  0  0  0  0  0  0  0  0  0  0  0
    9.8086  -14.4850   19.8279 C   0  0  2  0  0  0  0  0  0  0  0  0
    9.0713  -15.6800   19.3857 N   0  0  0  0  0  0  0  0  0  0  0  0
    9.6734  -14.3316   21.3102 C   0  0  0  0  0  0  0  0  0  0  0  0
   10.2771  -13.3977   21.8316 O   0  0  0  0  0  0  0  0  0  0  0  0
    8.8868  -15.2308   22.0322 N   0  0  0  0  0  0  0  0  0  0  0  0
    8.6413  -15.0411   23.4558 C   0  0  1  0  0  0  0  0  0  0  0  0
    7.1747  -15.2697   23.7597 C   0  0  0  0  0  0  0  0  0  0  0  0
    6.7925  -14.8394   25.1063 C   0  0  0  0  0  0  0  0  0  0  0  0
    6.5107  -15.6821   26.1886 C   0  0  0  0  0  0  0  0  0  0  0  0
    6.2000  -14.9409   27.2386 N   0  0  0  0  0  0  0  0  0  0  0  0
    6.2514  -13.6175   26.9412 C   0  0  0  0  0  0  0  0  0  0  0  0
    6.0160  -12.4790   27.6871 C   0  0  0  0  0  0  0  0  0  0  0  0
    6.1466  -11.2340   27.1114 C   0  0  0  0  0  0  0  0  0  0  0  0
    6.5124  -11.1585   25.7940 C   0  0  0  0  0  0  0  0  0  0  0  0
    6.7466  -12.2885   25.0527 C   0  0  0  0  0  0  0  0  0  0  0  0
    6.6239  -13.5708   25.6017 C   0  0  0  0  0  0  0  0  0  0  0  0
    9.4492  -15.9537   24.2682 C   0  0  0  0  0  0  0  0  0  0  0  0
    9.9433  -16.9797   23.7438 O   0  0  0  0  0  0  0  0  0  0  0  0
    9.6978  -15.7186   25.6372 N   0  0  0  0  0  0  0  0  0  0  0  0
    9.0507  -14.7874   26.5220 C   0  0  0  0  0  0  0  0  0  0  0  0
   10.2175  -14.2302   27.3245 C   0  0  0  0  0  0  0  0  0  0  0  0
   11.2802  -15.2955   27.2694 C   0  0  0  0  0  0  0  0  0  0  0  0
   10.6928  -16.4155   26.4669 C   0  0  1  0  0  0  0  0  0  0  0  0
    9.9765  -17.4297   27.2693 C   0  0  0  0  0  0  0  0  0  0  0  0
    8.7339  -17.5197   27.1855 O   0  0  0  0  0  0  0  0  0  0  0  0
   10.6237  -18.3055   28.1292 O   0  0  0  0  0  0  0  0  0  0  0  0
  2  3  1  1
  2  1  1  0
  4  2  1  0
  4  5  1  6
  6  8  1  0
  6  4  1  0
  7  6  2  0
  9  8  1  0
  9 10  1  6
 10 11  1  0
 11 12  2  0
 11 19  1  0
 12 13  1  0
 13 14  1  0
 14 15  2  0
 16 15  1  0
 17 16  2  0
 18 19  2  0
 18 17  1  0
 19 14  1  0
 20 21  2  0
 20  9  1  0
 22 20  1  0
 23 22  1  0
 24 23  1  0
 25 24  1  0
 25 26  1  0
 26 22  1  0
 27 29  1  0
 26 27  1  1
 28 27  2  0
M  END
$$$$
