PSA.pdb
     RDKit          3D

 19 19  0  0  1  0  0  0  0  0999 V2000
   20.3275  -10.2211  -18.8343 N   0  0  0  0  0  0  0  0  0  0  0  0
   20.0680  -11.3314  -19.7369 C   0  0  0  0  0  0  0  0  0  0  0  0
   19.6545  -12.4204  -18.7809 C   0  0  0  0  0  0  0  0  0  0  0  0
   18.8482  -11.6884  -17.7279 C   0  0  0  0  0  0  0  0  0  0  0  0
   19.1459  -10.2558  -17.9947 C   0  0  1  0  0  0  0  0  0  0  0  0
   19.3070   -9.4263  -16.7886 C   0  0  0  0  0  0  0  0  0  0  0  0
   18.3363   -9.3721  -15.9894 O   0  0  0  0  0  0  0  0  0  0  0  0
   22.8230   -8.3721  -14.9006 O   0  0  0  0  0  0  0  0  0  0  0  0
   21.5619   -8.4564  -14.3588 C   0  0  0  0  0  0  0  0  0  0  0  0
   20.4928   -7.8941  -15.2742 C   0  0  2  0  0  0  0  0  0  0  0  0
   20.4603   -8.6946  -16.4670 N   0  0  0  0  0  0  0  0  0  0  0  0
   20.7471   -6.4660  -15.5928 C   0  0  0  0  0  0  0  0  0  0  0  0
   21.6464   -6.1622  -16.4431 O   0  0  0  0  0  0  0  0  0  0  0  0
   19.0924   -3.1716  -14.8360 C   0  0  0  0  0  0  0  0  0  0  0  0
   20.2633   -4.0117  -15.2971 C   0  0  2  0  0  0  0  0  0  0  0  0
   20.0409   -5.4018  -15.0010 N   0  0  0  0  0  0  0  0  0  0  0  0
   21.4739   -3.4928  -14.5676 C   0  0  0  0  0  0  0  0  0  0  0  0
   21.9690   -4.2027  -13.6581 O   0  0  0  0  0  0  0  0  0  0  0  0
   22.0380   -2.2754  -14.8742 O   0  0  0  0  0  0  0  0  0  0  0  0
  1  5  1  0
  2  1  1  0
  2  3  1  0
  3  4  1  0
  5  6  1  1
  5  4  1  0
  6  7  2  0
  8  9  1  0
 10  9  1  1
 11 10  1  0
 11  6  1  0
 12 16  1  0
 12 10  1  0
 13 12  2  0
 15 16  1  0
 15 14  1  1
 17 19  1  0
 17 15  1  0
 18 17  2  0
M  END
$$$$
