IRL.pdb
     RDKit          3D

 28 27  0  0  1  0  0  0  0  0999 V2000
   18.8713  -18.8501  -16.3440 C   0  0  0  0  0  0  0  0  0  0  0  0
   19.8506  -19.5312  -17.2797 C   0  0  0  0  0  0  0  0  0  0  0  0
   20.8838  -20.2231  -16.4062 C   0  0  2  0  0  0  0  0  0  0  0  0
   21.5544  -19.2705  -15.4745 C   0  0  0  0  0  0  0  0  0  0  0  0
   21.9559  -20.8853  -17.2771 C   0  0  2  0  0  0  0  0  0  0  0  0
   21.2368  -21.9575  -17.9896 N   0  0  0  0  0  0  0  0  0  0  0  0
   22.9239  -21.5226  -16.3616 C   0  0  0  0  0  0  0  0  0  0  0  0
   22.4951  -22.4754  -15.6288 O   0  0  0  0  0  0  0  0  0  0  0  0
   29.4229  -23.0480  -17.8070 N   0  0  0  0  0  0  0  0  0  0  0  0
   29.2126  -21.6616  -17.5729 C   0  0  0  0  0  0  0  0  0  0  0  0
   29.2893  -20.8404  -18.5512 N   0  0  0  0  0  0  0  0  0  0  0  0
   28.9215  -21.2485  -16.2423 N   0  0  0  0  0  0  0  0  0  0  0  0
   28.8987  -22.2428  -15.1904 C   0  0  0  0  0  0  0  0  0  0  0  0
   27.4922  -22.3323  -14.5877 C   0  0  0  0  0  0  0  0  0  0  0  0
   26.5558  -21.8883  -15.6756 C   0  0  0  0  0  0  0  0  0  0  0  0
   25.1002  -21.8631  -15.2448 C   0  0  2  0  0  0  0  0  0  0  0  0
   24.2837  -21.1881  -16.2125 N   0  0  0  0  0  0  0  0  0  0  0  0
   24.9567  -21.3211  -13.8709 C   0  0  0  0  0  0  0  0  0  0  0  0
   25.3282  -20.1568  -13.6350 O   0  0  0  0  0  0  0  0  0  0  0  0
   29.0420  -19.8540  -18.4122 C   0  0  0  0  0  0  0  0  0  0  0  0
   26.6065  -19.4700   -9.3179 C   0  0  1  0  0  0  0  0  0  0  0  0
   25.4063  -20.4003   -9.5573 C   0  0  0  0  0  0  0  0  0  0  0  0
   25.3838  -21.4185   -8.4643 C   0  0  0  0  0  0  0  0  0  0  0  0
   25.5253  -20.9880  -10.9379 C   0  0  2  0  0  0  0  0  0  0  0  0
   24.2470  -21.5768  -11.4514 N   0  0  0  0  0  0  0  0  0  0  0  0
   24.4037  -22.0943  -12.8053 C   0  0  0  0  0  0  0  0  0  0  0  0
   23.0773  -20.6771  -11.3563 O   0  0  0  0  0  0  0  0  0  0  0  0
   23.1488  -19.5414  -11.9261 O   0  0  0  0  0  0  0  0  0  0  0  0
  1  2  1  0
  3  2  1  0
  3  5  1  0
  3  4  1  1
  5  6  1  6
  7  8  2  0
  7  5  1  0
 10 12  1  0
 10  9  1  0
 11 10  2  0
 12 13  1  0
 13 14  1  0
 14 15  1  0
 16 15  1  6
 16 17  1  0
 17  7  1  0
 18 19  2  0
 18 16  1  0
 21 22  1  1
 21 20  1  0
 24 23  1  1
 23 21  1  0
 24 25  1  0
 25 18  1  0
 26 24  1  0
 27 26  2  0
 28 26  1  0
M  END
$$$$
