IRL.pdb
     RDKit          3D

 28 27  0  0  1  0  0  0  0  0999 V2000
   22.7583  -22.4993  -14.8091 C   0  0  0  0  0  0  0  0  0  0  0  0
   24.2344  -22.4913  -15.1546 C   0  0  0  0  0  0  0  0  0  0  0  0
   24.5288  -23.8078  -15.8541 C   0  0  2  0  0  0  0  0  0  0  0  0
   24.1233  -24.9815  -15.0275 C   0  0  0  0  0  0  0  0  0  0  0  0
   26.0256  -23.9230  -16.1584 C   0  0  2  0  0  0  0  0  0  0  0  0
   26.2862  -22.8402  -17.1248 N   0  0  0  0  0  0  0  0  0  0  0  0
   26.2273  -25.2088  -16.8565 C   0  0  0  0  0  0  0  0  0  0  0  0
   25.7842  -25.3018  -18.0496 O   0  0  0  0  0  0  0  0  0  0  0  0
   32.8780  -30.5516  -17.4589 N   0  0  0  0  0  0  0  0  0  0  0  0
   32.1057  -30.9506  -18.5839 C   0  0  0  0  0  0  0  0  0  0  0  0
   32.6126  -31.7542  -19.4409 N   0  0  0  0  0  0  0  0  0  0  0  0
   30.7865  -30.4297  -18.7034 N   0  0  0  0  0  0  0  0  0  0  0  0
   30.3422  -29.4271  -17.7584 C   0  0  0  0  0  0  0  0  0  0  0  0
   28.8597  -29.1134  -17.9892 C   0  0  0  0  0  0  0  0  0  0  0  0
   28.5475  -27.9482  -17.0933 C   0  0  0  0  0  0  0  0  0  0  0  0
   27.1000  -27.4974  -17.1733 C   0  0  2  0  0  0  0  0  0  0  0  0
   26.8655  -26.3531  -16.3401 N   0  0  0  0  0  0  0  0  0  0  0  0
   26.1717  -28.6232  -16.9041 C   0  0  0  0  0  0  0  0  0  0  0  0
   25.7650  -28.8112  -15.7429 O   0  0  0  0  0  0  0  0  0  0  0  0
   32.0411  -32.0973  -20.2215 C   0  0  0  0  0  0  0  0  0  0  0  0
   24.3447  -33.0352  -14.8303 C   0  0  1  0  0  0  0  0  0  0  0  0
   24.5522  -32.6366  -16.3004 C   0  0  0  0  0  0  0  0  0  0  0  0
   25.5823  -33.5462  -16.8865 C   0  0  0  0  0  0  0  0  0  0  0  0
   24.9235  -31.1788  -16.3524 C   0  0  2  0  0  0  0  0  0  0  0  0
   24.7554  -30.5650  -17.7086 N   0  0  0  0  0  0  0  0  0  0  0  0
   25.7271  -29.5025  -17.9377 C   0  0  0  0  0  0  0  0  0  0  0  0
   23.3819  -30.1047  -18.0060 O   0  0  0  0  0  0  0  0  0  0  0  0
   22.8530  -30.4718  -19.1038 O   0  0  0  0  0  0  0  0  0  0  0  0
  1  2  1  0
  3  2  1  0
  3  5  1  0
  3  4  1  1
  5  6  1  6
  7  8  2  0
  7  5  1  0
 10 12  1  0
 10  9  1  0
 11 10  2  0
 12 13  1  0
 13 14  1  0
 14 15  1  0
 16 15  1  1
 16 17  1  0
 17  7  1  0
 18 19  2  0
 18 16  1  0
 21 22  1  1
 21 20  1  0
 24 23  1  6
 23 21  1  0
 24 25  1  0
 25 18  1  0
 26 24  1  0
 27 26  2  0
 28 26  1  0
M  END
$$$$
