IRL.pdb
     RDKit          3D

 28 27  0  0  1  0  0  0  0  0999 V2000
   23.0169  -14.1010  -15.4239 C   0  0  0  0  0  0  0  0  0  0  0  0
   22.4409  -15.3132  -16.1288 C   0  0  0  0  0  0  0  0  0  0  0  0
   23.0913  -16.5356  -15.5026 C   0  0  2  0  0  0  0  0  0  0  0  0
   24.5689  -16.5476  -15.7070 C   0  0  0  0  0  0  0  0  0  0  0  0
   22.5076  -17.8155  -16.1087 C   0  0  2  0  0  0  0  0  0  0  0  0
   21.0713  -17.7529  -15.7807 N   0  0  0  0  0  0  0  0  0  0  0  0
   23.0908  -18.9509  -15.3658 C   0  0  0  0  0  0  0  0  0  0  0  0
   22.8659  -19.0054  -14.1108 O   0  0  0  0  0  0  0  0  0  0  0  0
   22.3922  -26.1387  -14.6180 N   0  0  0  0  0  0  0  0  0  0  0  0
   22.4539  -25.2574  -15.7319 C   0  0  0  0  0  0  0  0  0  0  0  0
   21.5625  -25.3372  -16.6464 N   0  0  0  0  0  0  0  0  0  0  0  0
   23.5193  -24.3147  -15.7757 N   0  0  0  0  0  0  0  0  0  0  0  0
   24.5491  -24.3752  -14.7599 C   0  0  0  0  0  0  0  0  0  0  0  0
   25.5638  -23.2473  -14.9779 C   0  0  0  0  0  0  0  0  0  0  0  0
   24.8552  -22.2207  -15.8155 C   0  0  0  0  0  0  0  0  0  0  0  0
   24.4756  -20.9702  -15.0428 C   0  0  2  0  0  0  0  0  0  0  0  0
   23.8743  -19.9910  -15.9020 N   0  0  0  0  0  0  0  0  0  0  0  0
   25.6285  -20.4472  -14.2686 C   0  0  0  0  0  0  0  0  0  0  0  0
   26.4229  -19.6618  -14.8175 O   0  0  0  0  0  0  0  0  0  0  0  0
   21.6276  -24.7393  -17.4782 C   0  0  0  0  0  0  0  0  0  0  0  0
   25.6610  -18.9261   -9.9338 C   0  0  2  0  0  0  0  0  0  0  0  0
   25.7136  -20.4599  -10.0221 C   0  0  0  0  0  0  0  0  0  0  0  0
   25.6042  -21.0081   -8.6367 C   0  0  0  0  0  0  0  0  0  0  0  0
   26.9779  -20.8543  -10.7375 C   0  0  2  0  0  0  0  0  0  0  0  0
   27.0330  -20.3871  -12.1598 N   0  0  0  0  0  0  0  0  0  0  0  0
   25.8581  -20.8166  -12.9085 C   0  0  0  0  0  0  0  0  0  0  0  0
   28.2789  -20.7423  -12.8727 O   0  0  0  0  0  0  0  0  0  0  0  0
   28.2854  -21.8059  -13.5715 O   0  0  0  0  0  0  0  0  0  0  0  0
  1  2  1  0
  3  2  1  0
  3  5  1  0
  3  4  1  6
  5  6  1  1
  7  8  2  0
  7  5  1  0
 10 12  1  0
 10  9  1  0
 11 10  2  0
 12 13  1  0
 13 14  1  0
 14 15  1  0
 16 15  1  6
 16 17  1  0
 17  7  1  0
 18 19  2  0
 18 16  1  0
 21 22  1  6
 21 20  1  0
 24 23  1  1
 23 21  1  0
 24 25  1  0
 25 18  1  0
 26 24  1  0
 27 26  2  0
 28 26  1  0
M  END
$$$$
