IRL.pdb
     RDKit          3D

 28 27  0  0  1  0  0  0  0  0999 V2000
   15.2346  -26.0212   -6.6151 C   0  0  0  0  0  0  0  0  0  0  0  0
   15.9874  -24.8132   -6.0933 C   0  0  0  0  0  0  0  0  0  0  0  0
   16.8348  -24.2936   -7.2427 C   0  0  2  0  0  0  0  0  0  0  0  0
   16.0180  -24.0278   -8.4623 C   0  0  0  0  0  0  0  0  0  0  0  0
   17.9233  -25.3103   -7.6003 C   0  0  2  0  0  0  0  0  0  0  0  0
   18.8568  -25.2623   -6.4599 N   0  0  0  0  0  0  0  0  0  0  0  0
   18.6319  -24.7863   -8.7855 C   0  0  0  0  0  0  0  0  0  0  0  0
   19.3765  -23.7638   -8.6165 O   0  0  0  0  0  0  0  0  0  0  0  0
   22.3259  -24.8650  -15.8781 N   0  0  0  0  0  0  0  0  0  0  0  0
   23.0522  -25.8168  -15.1116 C   0  0  0  0  0  0  0  0  0  0  0  0
   24.3310  -25.8150  -15.1556 N   0  0  0  0  0  0  0  0  0  0  0  0
   22.3106  -26.7383  -14.3199 N   0  0  0  0  0  0  0  0  0  0  0  0
   20.8828  -26.5471  -14.1772 C   0  0  0  0  0  0  0  0  0  0  0  0
   20.6059  -25.3314  -13.2856 C   0  0  0  0  0  0  0  0  0  0  0  0
   19.7719  -25.8456  -12.1464 C   0  0  0  0  0  0  0  0  0  0  0  0
   19.4229  -24.7780  -11.1251 C   0  0  2  0  0  0  0  0  0  0  0  0
   18.5738  -25.3027  -10.0944 N   0  0  0  0  0  0  0  0  0  0  0  0
   18.8732  -23.5663  -11.7821 C   0  0  0  0  0  0  0  0  0  0  0  0
   17.6808  -23.5566  -12.1391 O   0  0  0  0  0  0  0  0  0  0  0  0
   24.8607  -26.5528  -14.6775 C   0  0  0  0  0  0  0  0  0  0  0  0
   20.9837  -18.1504  -13.9913 C   0  0  1  0  0  0  0  0  0  0  0  0
   19.7374  -18.9175  -13.5206 C   0  0  0  0  0  0  0  0  0  0  0  0
   18.8878  -17.9794  -12.7269 C   0  0  0  0  0  0  0  0  0  0  0  0
   20.1855  -20.1333  -12.7546 C   0  0  2  0  0  0  0  0  0  0  0  0
   19.1701  -21.2345  -12.7296 N   0  0  0  0  0  0  0  0  0  0  0  0
   19.6701  -22.4055  -12.0195 C   0  0  0  0  0  0  0  0  0  0  0  0
   18.6357  -21.6043  -14.0580 O   0  0  0  0  0  0  0  0  0  0  0  0
   19.3425  -22.3617  -14.7970 O   0  0  0  0  0  0  0  0  0  0  0  0
  1  2  1  0
  3  2  1  0
  3  5  1  0
  3  4  1  6
  5  6  1  1
  7  8  2  0
  7  5  1  0
 10 12  1  0
 10  9  1  0
 11 10  2  0
 12 13  1  0
 13 14  1  0
 14 15  1  0
 16 15  1  6
 16 17  1  0
 17  7  1  0
 18 19  2  0
 18 16  1  0
 21 22  1  1
 21 20  1  0
 24 23  1  1
 23 21  1  0
 24 25  1  0
 25 18  1  0
 26 24  1  0
 27 26  2  0
 28 26  1  0
M  END
$$$$
