LLA.pdb
     RDKit          3D

 22 21  0  0  1  0  0  0  0  0999 V2000
    8.6376  -12.6888   18.6226 C   0  0  0  0  0  0  0  0  0  0  0  0
    8.1238  -13.6825   19.6464 C   0  0  2  0  0  0  0  0  0  0  0  0
    6.6394  -13.3520   19.8471 C   0  0  0  0  0  0  0  0  0  0  0  0
    8.7809  -13.4758   20.9947 C   0  0  0  0  0  0  0  0  0  0  0  0
    8.7708  -14.8025   21.7094 C   0  0  2  0  0  0  0  0  0  0  0  0
    7.4768  -15.4044   21.6299 N   0  0  0  0  0  0  0  0  0  0  0  0
    9.2012  -14.6763   23.1292 C   0  0  0  0  0  0  0  0  0  0  0  0
   10.3558  -14.2962   23.4516 O   0  0  0  0  0  0  0  0  0  0  0  0
    5.5956  -12.6591   26.4076 C   0  0  0  0  0  0  0  0  0  0  0  0
    6.9592  -13.0235   25.8548 C   0  0  1  0  0  0  0  0  0  0  0  0
    7.9943  -12.0547   26.3727 C   0  0  0  0  0  0  0  0  0  0  0  0
    7.2643  -14.4562   26.2304 C   0  0  0  0  0  0  0  0  0  0  0  0
    8.5579  -14.8621   25.5706 C   0  0  2  0  0  0  0  0  0  0  0  0
    8.2983  -14.9888   24.1510 N   0  0  0  0  0  0  0  0  0  0  0  0
    8.9941  -16.2231   26.0475 C   0  0  0  0  0  0  0  0  0  0  0  0
    9.0095  -16.5362   27.2662 O   0  0  0  0  0  0  0  0  0  0  0  0
    9.5344  -19.5475   24.5159 C   0  0  0  0  0  0  0  0  0  0  0  0
    9.9267  -18.5190   25.5543 C   0  0  2  0  0  0  0  0  0  0  0  0
    9.4115  -17.2206   25.1192 N   0  0  0  0  0  0  0  0  0  0  0  0
   11.4079  -18.4842   25.6717 C   0  0  0  0  0  0  0  0  0  0  0  0
   12.1641  -17.3991   25.2772 O   0  0  0  0  0  0  0  0  0  0  0  0
   11.9972  -19.4818   26.1490 O   0  0  0  0  0  0  0  0  0  0  0  0
  2  1  1  6
  2  3  1  0
  4  2  1  0
  5  4  1  0
  5  7  1  0
  5  6  1  1
  7  8  2  0
 10  9  1  1
 10 11  1  0
 13 12  1  1
 12 10  1  0
 14  7  1  0
 14 13  1  0
 15 13  1  0
 15 19  1  0
 16 15  2  0
 18 19  1  0
 18 17  1  6
 20 18  1  0
 21 20  1  0
 22 20  2  0
M  END
$$$$
