LLA.pdb
     RDKit          3D

 22 21  0  0  1  0  0  0  0  0999 V2000
    8.1696  -13.0258   18.4013 C   0  0  0  0  0  0  0  0  0  0  0  0
    7.8894  -14.0059   19.5240 C   0  0  2  0  0  0  0  0  0  0  0  0
    7.1167  -13.2175   20.5891 C   0  0  0  0  0  0  0  0  0  0  0  0
    9.1696  -14.4609   20.1921 C   0  0  0  0  0  0  0  0  0  0  0  0
    8.7912  -15.4464   21.2678 C   0  0  2  0  0  0  0  0  0  0  0  0
    7.4147  -15.8127   21.1497 N   0  0  0  0  0  0  0  0  0  0  0  0
    9.0765  -14.9222   22.6320 C   0  0  0  0  0  0  0  0  0  0  0  0
   10.2245  -14.5479   22.9832 O   0  0  0  0  0  0  0  0  0  0  0  0
    8.0473  -11.6187   26.2231 C   0  0  0  0  0  0  0  0  0  0  0  0
    6.9750  -12.6769   26.3912 C   0  0  1  0  0  0  0  0  0  0  0  0
    5.6770  -12.0258   26.8030 C   0  0  0  0  0  0  0  0  0  0  0  0
    6.8531  -13.4493   25.0968 C   0  0  0  0  0  0  0  0  0  0  0  0
    8.1309  -14.2175   24.8720 C   0  0  2  0  0  0  0  0  0  0  0  0
    8.0387  -14.8379   23.5662 N   0  0  0  0  0  0  0  0  0  0  0  0
    8.2593  -15.3395   25.8693 C   0  0  0  0  0  0  0  0  0  0  0  0
    8.5710  -15.1388   27.0718 O   0  0  0  0  0  0  0  0  0  0  0  0
    7.2833  -18.9535   25.8215 C   0  0  0  0  0  0  0  0  0  0  0  0
    8.0172  -17.7873   26.4471 C   0  0  2  0  0  0  0  0  0  0  0  0
    8.0284  -16.6905   25.4789 N   0  0  0  0  0  0  0  0  0  0  0  0
    9.4030  -18.2061   26.7830 C   0  0  0  0  0  0  0  0  0  0  0  0
    9.6894  -19.1044   27.7909 O   0  0  0  0  0  0  0  0  0  0  0  0
   10.3536  -17.7240   26.1239 O   0  0  0  0  0  0  0  0  0  0  0  0
  2  1  1  6
  2  3  1  0
  4  2  1  0
  5  4  1  0
  5  7  1  0
  5  6  1  1
  7  8  2  0
 10  9  1  6
 10 11  1  0
 13 12  1  1
 12 10  1  0
 14  7  1  0
 14 13  1  0
 15 13  1  0
 15 19  1  0
 16 15  2  0
 18 19  1  0
 18 17  1  6
 20 18  1  0
 21 20  1  0
 22 20  2  0
M  END
$$$$
