LLA.pdb
     RDKit          3D

 22 21  0  0  1  0  0  0  0  0999 V2000
    8.6961  -14.4137   18.9843 C   0  0  0  0  0  0  0  0  0  0  0  0
    7.6858  -13.6360   19.8053 C   0  0  2  0  0  0  0  0  0  0  0  0
    7.5761  -12.2568   19.1428 C   0  0  0  0  0  0  0  0  0  0  0  0
    8.1929  -13.3827   21.2093 C   0  0  0  0  0  0  0  0  0  0  0  0
    8.3905  -14.7246   21.8662 C   0  0  2  0  0  0  0  0  0  0  0  0
    7.1700  -15.4684   21.8629 N   0  0  0  0  0  0  0  0  0  0  0  0
    8.9197  -14.5964   23.2520 C   0  0  0  0  0  0  0  0  0  0  0  0
   10.0641  -14.1356   23.4960 O   0  0  0  0  0  0  0  0  0  0  0  0
    5.6992  -12.4301   26.6988 C   0  0  0  0  0  0  0  0  0  0  0  0
    6.9849  -12.9003   26.0480 C   0  0  1  0  0  0  0  0  0  0  0  0
    8.1227  -11.9963   26.4560 C   0  0  0  0  0  0  0  0  0  0  0  0
    7.2212  -14.3430   26.4350 C   0  0  0  0  0  0  0  0  0  0  0  0
    8.4605  -14.8340   25.7302 C   0  0  2  0  0  0  0  0  0  0  0  0
    8.1253  -14.9995   24.3306 N   0  0  0  0  0  0  0  0  0  0  0  0
    8.8567  -16.1961   26.2379 C   0  0  0  0  0  0  0  0  0  0  0  0
    8.9557  -16.4542   27.4655 O   0  0  0  0  0  0  0  0  0  0  0  0
    9.6263  -19.4974   24.5953 C   0  0  0  0  0  0  0  0  0  0  0  0
    9.6135  -18.5642   25.7864 C   0  0  2  0  0  0  0  0  0  0  0  0
    9.1380  -17.2580   25.3299 N   0  0  0  0  0  0  0  0  0  0  0  0
   10.9891  -18.4590   26.3390 C   0  0  0  0  0  0  0  0  0  0  0  0
   11.5435  -19.4248   27.1542 O   0  0  0  0  0  0  0  0  0  0  0  0
   11.6766  -17.4509   26.0537 O   0  0  0  0  0  0  0  0  0  0  0  0
  2  1  1  6
  2  3  1  0
  4  2  1  0
  5  4  1  0
  5  7  1  0
  5  6  1  1
  7  8  2  0
 10  9  1  1
 10 11  1  0
 13 12  1  1
 12 10  1  0
 14  7  1  0
 14 13  1  0
 15 13  1  0
 15 19  1  0
 16 15  2  0
 18 19  1  0
 18 17  1  6
 20 18  1  0
 21 20  1  0
 22 20  2  0
M  END
$$$$
