LLA.pdb
     RDKit          3D

 22 21  0  0  1  0  0  0  0  0999 V2000
    7.9806  -14.5768   17.7292 C   0  0  0  0  0  0  0  0  0  0  0  0
    7.5305  -13.7752   18.9353 C   0  0  2  0  0  0  0  0  0  0  0  0
    7.3283  -12.3391   18.4357 C   0  0  0  0  0  0  0  0  0  0  0  0
    8.6186  -13.6998   19.9855 C   0  0  0  0  0  0  0  0  0  0  0  0
    8.4456  -14.8852   20.8999 C   0  0  2  0  0  0  0  0  0  0  0  0
    7.1023  -15.3703   20.8423 N   0  0  0  0  0  0  0  0  0  0  0  0
    8.8264  -14.5687   22.3041 C   0  0  0  0  0  0  0  0  0  0  0  0
    9.9833  -14.1895   22.6190 O   0  0  0  0  0  0  0  0  0  0  0  0
    8.2093  -12.4514   26.8333 C   0  0  0  0  0  0  0  0  0  0  0  0
    7.0985  -13.4790   26.7432 C   0  0  1  0  0  0  0  0  0  0  0  0
    5.8609  -12.9528   27.4287 C   0  0  0  0  0  0  0  0  0  0  0  0
    6.8614  -13.8058   25.2858 C   0  0  0  0  0  0  0  0  0  0  0  0
    8.1058  -14.4493   24.7280 C   0  0  2  0  0  0  0  0  0  0  0  0
    7.8721  -14.6935   23.3193 N   0  0  0  0  0  0  0  0  0  0  0  0
    8.3378  -15.7963   25.3617 C   0  0  0  0  0  0  0  0  0  0  0  0
    7.3909  -16.5497   25.7071 O   0  0  0  0  0  0  0  0  0  0  0  0
   11.0918  -18.1916   25.3483 C   0  0  0  0  0  0  0  0  0  0  0  0
    9.9215  -17.6153   26.1151 C   0  0  2  0  0  0  0  0  0  0  0  0
    9.6604  -16.2725   25.5962 N   0  0  0  0  0  0  0  0  0  0  0  0
   10.2631  -17.5629   27.5605 C   0  0  0  0  0  0  0  0  0  0  0  0
   10.4147  -16.3773   28.2507 O   0  0  0  0  0  0  0  0  0  0  0  0
   10.4207  -18.6402   28.1810 O   0  0  0  0  0  0  0  0  0  0  0  0
  2  1  1  6
  2  3  1  0
  4  2  1  0
  5  4  1  0
  5  7  1  0
  5  6  1  1
  7  8  2  0
 10  9  1  6
 10 11  1  0
 13 12  1  1
 12 10  1  0
 14  7  1  0
 14 13  1  0
 15 13  1  0
 15 19  1  0
 16 15  2  0
 18 19  1  0
 18 17  1  6
 20 18  1  0
 21 20  1  0
 22 20  2  0
M  END
$$$$
