LLA.pdb
     RDKit          3D

 22 21  0  0  1  0  0  0  0  0999 V2000
    8.2849  -14.9481   18.1336 C   0  0  0  0  0  0  0  0  0  0  0  0
    7.6270  -13.9879   19.1057 C   0  0  2  0  0  0  0  0  0  0  0  0
    7.4939  -12.6554   18.3575 C   0  0  0  0  0  0  0  0  0  0  0  0
    8.5206  -13.7081   20.2955 C   0  0  0  0  0  0  0  0  0  0  0  0
    8.5334  -14.9485   21.1513 C   0  0  2  0  0  0  0  0  0  0  0  0
    7.2607  -15.5978   21.1113 N   0  0  0  0  0  0  0  0  0  0  0  0
    8.9249  -14.6540   22.5574 C   0  0  0  0  0  0  0  0  0  0  0  0
   10.0883  -14.2943   22.8713 O   0  0  0  0  0  0  0  0  0  0  0  0
    7.8145  -11.8798   26.6590 C   0  0  0  0  0  0  0  0  0  0  0  0
    6.8735  -13.0680   26.6847 C   0  0  1  0  0  0  0  0  0  0  0  0
    5.5341  -12.6451   27.2375 C   0  0  0  0  0  0  0  0  0  0  0  0
    6.7728  -13.6332   25.2856 C   0  0  0  0  0  0  0  0  0  0  0  0
    8.1014  -14.2428   24.9157 C   0  0  2  0  0  0  0  0  0  0  0  0
    7.9736  -14.7780   23.5756 N   0  0  0  0  0  0  0  0  0  0  0  0
    8.4190  -15.4108   25.8129 C   0  0  0  0  0  0  0  0  0  0  0  0
    8.3948  -15.3215   27.0679 O   0  0  0  0  0  0  0  0  0  0  0  0
    8.6861  -19.0833   25.3495 C   0  0  0  0  0  0  0  0  0  0  0  0
    9.0772  -17.8326   26.1061 C   0  0  2  0  0  0  0  0  0  0  0  0
    8.7638  -16.6792   25.2622 N   0  0  0  0  0  0  0  0  0  0  0  0
   10.5309  -17.8810   26.4111 C   0  0  0  0  0  0  0  0  0  0  0  0
   11.4411  -17.0041   25.8567 O   0  0  0  0  0  0  0  0  0  0  0  0
   10.9502  -18.7547   27.2056 O   0  0  0  0  0  0  0  0  0  0  0  0
  2  1  1  6
  2  3  1  0
  4  2  1  0
  5  4  1  0
  5  7  1  0
  5  6  1  1
  7  8  2  0
 10  9  1  6
 10 11  1  0
 13 12  1  1
 12 10  1  0
 14  7  1  0
 14 13  1  0
 15 13  1  0
 15 19  1  0
 16 15  2  0
 18 19  1  0
 18 17  1  6
 20 18  1  0
 21 20  1  0
 22 20  2  0
M  END
$$$$
