LLA.pdb
     RDKit          3D

 22 21  0  0  1  0  0  0  0  0999 V2000
   13.5580  -17.4036   15.6318 C   0  0  0  0  0  0  0  0  0  0  0  0
   12.5061  -16.3294   15.4330 C   0  0  2  0  0  0  0  0  0  0  0  0
   12.9822  -15.4882   14.2419 C   0  0  0  0  0  0  0  0  0  0  0  0
   12.4527  -15.3836   16.6140 C   0  0  0  0  0  0  0  0  0  0  0  0
   12.0122  -16.1836   17.8129 C   0  0  2  0  0  0  0  0  0  0  0  0
   10.8580  -16.9652   17.4967 N   0  0  0  0  0  0  0  0  0  0  0  0
   11.7488  -15.3191   18.9962 C   0  0  0  0  0  0  0  0  0  0  0  0
   12.6362  -14.5898   19.5083 O   0  0  0  0  0  0  0  0  0  0  0  0
    6.9825  -13.0078   18.8954 C   0  0  0  0  0  0  0  0  0  0  0  0
    8.4510  -13.2909   19.1428 C   0  0  1  0  0  0  0  0  0  0  0  0
    9.2121  -11.9906   19.2345 C   0  0  0  0  0  0  0  0  0  0  0  0
    8.5760  -14.1274   20.3964 C   0  0  0  0  0  0  0  0  0  0  0  0
   10.0348  -14.4274   20.6319 C   0  0  2  0  0  0  0  0  0  0  0  0
   10.4724  -15.3085   19.5685 N   0  0  0  0  0  0  0  0  0  0  0  0
   10.2203  -15.1877   21.9194 C   0  0  0  0  0  0  0  0  0  0  0  0
    9.8422  -14.7329   23.0301 O   0  0  0  0  0  0  0  0  0  0  0  0
   11.0156  -18.6725   22.8803 C   0  0  0  0  0  0  0  0  0  0  0  0
   11.1255  -17.1906   23.1658 C   0  0  2  0  0  0  0  0  0  0  0  0
   10.8413  -16.4705   21.9243 N   0  0  0  0  0  0  0  0  0  0  0  0
   12.4983  -16.8866   23.6472 C   0  0  0  0  0  0  0  0  0  0  0  0
   13.0089  -17.3979   24.8230 O   0  0  0  0  0  0  0  0  0  0  0  0
   13.2249  -16.1339   22.9573 O   0  0  0  0  0  0  0  0  0  0  0  0
  2  1  1  1
  2  3  1  0
  4  2  1  0
  5  4  1  0
  5  7  1  0
  5  6  1  6
  7  8  2  0
 10  9  1  1
 10 11  1  0
 13 12  1  6
 12 10  1  0
 14  7  1  0
 14 13  1  0
 15 13  1  0
 15 19  1  0
 16 15  2  0
 18 19  1  0
 18 17  1  6
 20 18  1  0
 21 20  1  0
 22 20  2  0
M  END
$$$$
