LLA.pdb
     RDKit          3D

 22 21  0  0  1  0  0  0  0  0999 V2000
    6.7965  -17.6680   20.3280 C   0  0  0  0  0  0  0  0  0  0  0  0
    8.2742  -17.9658   20.4930 C   0  0  2  0  0  0  0  0  0  0  0  0
    8.3931  -19.4942   20.5467 C   0  0  0  0  0  0  0  0  0  0  0  0
    8.7939  -17.4623   21.8229 C   0  0  0  0  0  0  0  0  0  0  0  0
    8.5991  -15.9680   21.8465 C   0  0  2  0  0  0  0  0  0  0  0  0
    9.2799  -15.3568   20.7484 N   0  0  0  0  0  0  0  0  0  0  0  0
    9.0415  -15.3666   23.1348 C   0  0  0  0  0  0  0  0  0  0  0  0
   10.2090  -14.9333   23.3100 O   0  0  0  0  0  0  0  0  0  0  0  0
    5.5830  -12.3940   26.3162 C   0  0  0  0  0  0  0  0  0  0  0  0
    6.8853  -12.8616   25.6971 C   0  0  1  0  0  0  0  0  0  0  0  0
    8.0039  -11.9320   26.1006 C   0  0  0  0  0  0  0  0  0  0  0  0
    7.1352  -14.2911   26.1227 C   0  0  0  0  0  0  0  0  0  0  0  0
    8.4352  -14.7543   25.5151 C   0  0  2  0  0  0  0  0  0  0  0  0
    8.1355  -15.2741   24.1966 N   0  0  0  0  0  0  0  0  0  0  0  0
    9.0126  -15.9005   26.3044 C   0  0  0  0  0  0  0  0  0  0  0  0
    9.3217  -15.7927   27.5195 O   0  0  0  0  0  0  0  0  0  0  0  0
    9.4118  -19.5674   25.7682 C   0  0  0  0  0  0  0  0  0  0  0  0
    9.8724  -18.2742   26.4049 C   0  0  2  0  0  0  0  0  0  0  0  0
    9.2325  -17.1684   25.6920 N   0  0  0  0  0  0  0  0  0  0  0  0
   11.3521  -18.1795   26.3023 C   0  0  0  0  0  0  0  0  0  0  0  0
   12.2047  -19.0192   26.9897 O   0  0  0  0  0  0  0  0  0  0  0  0
   11.8486  -17.3000   25.5604 O   0  0  0  0  0  0  0  0  0  0  0  0
  2  1  1  1
  2  3  1  0
  4  2  1  0
  5  4  1  0
  5  7  1  0
  5  6  1  6
  7  8  2  0
 10  9  1  1
 10 11  1  0
 13 12  1  1
 12 10  1  0
 14  7  1  0
 14 13  1  0
 15 13  1  0
 15 19  1  0
 16 15  2  0
 18 19  1  0
 18 17  1  6
 20 18  1  0
 21 20  1  0
 22 20  2  0
M  END
$$$$
