LLA.pdb
     RDKit          3D

 22 21  0  0  1  0  0  0  0  0999 V2000
    5.7250  -20.8086   24.8631 C   0  0  0  0  0  0  0  0  0  0  0  0
    5.4883  -19.8094   23.7471 C   0  0  2  0  0  0  0  0  0  0  0  0
    5.0501  -20.6330   22.5295 C   0  0  0  0  0  0  0  0  0  0  0  0
    6.7739  -19.1204   23.3411 C   0  0  0  0  0  0  0  0  0  0  0  0
    6.4272  -17.7017   22.9693 C   0  0  2  0  0  0  0  0  0  0  0  0
    6.2330  -17.5871   21.5579 N   0  0  0  0  0  0  0  0  0  0  0  0
    7.4584  -16.7336   23.4345 C   0  0  0  0  0  0  0  0  0  0  0  0
    8.4841  -16.4655   22.7582 O   0  0  0  0  0  0  0  0  0  0  0  0
    5.8317  -12.6377   26.4922 C   0  0  0  0  0  0  0  0  0  0  0  0
    6.7345  -13.3774   25.5250 C   0  0  1  0  0  0  0  0  0  0  0  0
    7.5899  -12.3896   24.7696 C   0  0  0  0  0  0  0  0  0  0  0  0
    7.5552  -14.3812   26.3035 C   0  0  0  0  0  0  0  0  0  0  0  0
    8.2843  -15.2685   25.3265 C   0  0  2  0  0  0  0  0  0  0  0  0
    7.2921  -16.0922   24.6665 N   0  0  0  0  0  0  0  0  0  0  0  0
    9.2079  -16.2122   26.0521 C   0  0  0  0  0  0  0  0  0  0  0  0
    8.7937  -17.0274   26.9167 O   0  0  0  0  0  0  0  0  0  0  0  0
   12.8489  -17.0819   25.6590 C   0  0  0  0  0  0  0  0  0  0  0  0
   11.5046  -17.2259   26.3387 C   0  0  2  0  0  0  0  0  0  0  0  0
   10.6068  -16.2147   25.7799 N   0  0  0  0  0  0  0  0  0  0  0  0
   11.6735  -17.0278   27.8019 C   0  0  0  0  0  0  0  0  0  0  0  0
   12.3720  -17.9106   28.6004 O   0  0  0  0  0  0  0  0  0  0  0  0
   11.1605  -16.0166   28.3353 O   0  0  0  0  0  0  0  0  0  0  0  0
  2  1  1  1
  2  3  1  0
  4  2  1  0
  5  4  1  0
  5  7  1  0
  5  6  1  6
  7  8  2  0
 10  9  1  1
 10 11  1  0
 13 12  1  1
 12 10  1  0
 14  7  1  0
 14 13  1  0
 15 13  1  0
 15 19  1  0
 16 15  2  0
 18 19  1  0
 18 17  1  6
 20 18  1  0
 21 20  1  0
 22 20  2  0
M  END
$$$$
