DVK.pdb
     RDKit          3D

 25 24  0  0  1  0  0  0  0  0999 V2000
   18.3318  -12.4746  -17.5822 N   0  0  0  0  0  0  0  0  0  0  0  0
   19.1558  -11.3524  -17.9883 C   0  0  1  0  0  0  0  0  0  0  0  0
   18.2513  -10.3956  -18.7338 C   0  0  0  0  0  0  0  0  0  0  0  0
   18.1136  -10.9311  -20.1049 C   0  0  0  0  0  0  0  0  0  0  0  0
   19.0527  -11.5606  -20.6171 O   0  0  0  0  0  0  0  0  0  0  0  0
   19.6852  -10.7352  -16.7195 C   0  0  0  0  0  0  0  0  0  0  0  0
   18.9562  -10.5588  -15.7114 O   0  0  0  0  0  0  0  0  0  0  0  0
   16.9440  -10.7299  -20.8080 O   0  0  0  0  0  0  0  0  0  0  0  0
   22.5692  -12.0601  -14.9642 C   0  0  0  0  0  0  0  0  0  0  0  0
   22.8514  -10.6132  -15.1403 C   0  0  2  0  0  0  0  0  0  0  0  0
   23.7361  -10.0436  -14.0596 C   0  0  0  0  0  0  0  0  0  0  0  0
   21.6094   -9.7777  -15.3586 C   0  0  2  0  0  0  0  0  0  0  0  0
   21.0362  -10.3239  -16.6061 N   0  0  0  0  0  0  0  0  0  0  0  0
   21.9079   -8.3302  -15.5633 C   0  0  0  0  0  0  0  0  0  0  0  0
   22.7313   -7.9629  -16.4743 O   0  0  0  0  0  0  0  0  0  0  0  0
   21.3415   -7.2708  -14.8154 N   0  0  0  0  0  0  0  0  0  0  0  0
   21.7794   -5.8784  -14.9953 C   0  0  1  0  0  0  0  0  0  0  0  0
   20.7080   -5.0251  -15.5845 C   0  0  0  0  0  0  0  0  0  0  0  0
   20.2506   -5.4194  -16.9448 C   0  0  0  0  0  0  0  0  0  0  0  0
   19.1330   -4.6096  -17.5061 C   0  0  0  0  0  0  0  0  0  0  0  0
   18.6087   -5.1593  -18.8158 C   0  0  0  0  0  0  0  0  0  0  0  0
   17.4299   -4.4041  -19.2231 N   0  0  0  0  0  0  0  0  0  0  0  0
   22.2836   -5.3261  -13.7115 C   0  0  0  0  0  0  0  0  0  0  0  0
   22.1321   -5.9764  -12.4919 O   0  0  0  0  0  0  0  0  0  0  0  0
   22.8739   -4.2175  -13.7419 O   0  0  0  0  0  0  0  0  0  0  0  0
  2  1  1  1
  3  4  1  0
  3  2  1  0
  4  8  1  0
  5  4  2  0
  6  2  1  0
  6  7  2  0
 10  9  1  1
 10 12  1  0
 11 10  1  0
 12 13  1  6
 13  6  1  0
 14 12  1  0
 15 14  2  0
 16 14  1  0
 17 16  1  0
 17 23  1  0
 17 18  1  1
 19 18  1  0
 20 19  1  0
 20 21  1  0
 22 21  1  0
 23 24  1  0
 25 23  2  0
M  END
$$$$
