DVK.pdb
     RDKit          3D

 25 24  0  0  1  0  0  0  0  0999 V2000
   28.0294  -18.9086  -18.2944 N   0  0  0  0  0  0  0  0  0  0  0  0
   27.2860  -18.2973  -17.2097 C   0  0  1  0  0  0  0  0  0  0  0  0
   26.0299  -17.7127  -17.8180 C   0  0  0  0  0  0  0  0  0  0  0  0
   26.4500  -16.5164  -18.5784 C   0  0  0  0  0  0  0  0  0  0  0  0
   27.1706  -15.6639  -18.0358 O   0  0  0  0  0  0  0  0  0  0  0  0
   26.9647  -19.4051  -16.2399 C   0  0  0  0  0  0  0  0  0  0  0  0
   26.6001  -20.5433  -16.6276 O   0  0  0  0  0  0  0  0  0  0  0  0
   26.0407  -16.3531  -19.8855 O   0  0  0  0  0  0  0  0  0  0  0  0
   29.2426  -20.3622  -13.3886 C   0  0  0  0  0  0  0  0  0  0  0  0
   27.8852  -20.1240  -12.8362 C   0  0  2  0  0  0  0  0  0  0  0  0
   27.6089  -20.9079  -11.5775 C   0  0  0  0  0  0  0  0  0  0  0  0
   26.7811  -20.2805  -13.8583 C   0  0  2  0  0  0  0  0  0  0  0  0
   27.0598  -19.2116  -14.8396 N   0  0  0  0  0  0  0  0  0  0  0  0
   25.4205  -20.0615  -13.2864 C   0  0  0  0  0  0  0  0  0  0  0  0
   25.0503  -18.8867  -12.9318 O   0  0  0  0  0  0  0  0  0  0  0  0
   24.4502  -21.0726  -13.0896 N   0  0  0  0  0  0  0  0  0  0  0  0
   23.1664  -20.7924  -12.4290 C   0  0  1  0  0  0  0  0  0  0  0  0
   22.0569  -21.6181  -12.9862 C   0  0  0  0  0  0  0  0  0  0  0  0
   20.7256  -21.4128  -12.3532 C   0  0  0  0  0  0  0  0  0  0  0  0
   19.6164  -22.2377  -12.9093 C   0  0  0  0  0  0  0  0  0  0  0  0
   18.2831  -21.9495  -12.2523 C   0  0  0  0  0  0  0  0  0  0  0  0
   17.2632  -22.8252  -12.8172 N   0  0  0  0  0  0  0  0  0  0  0  0
   23.2958  -20.9591  -10.9583 C   0  0  0  0  0  0  0  0  0  0  0  0
   22.5601  -20.2171  -10.0410 O   0  0  0  0  0  0  0  0  0  0  0  0
   24.1122  -21.8152  -10.5349 O   0  0  0  0  0  0  0  0  0  0  0  0
  2  1  1  6
  3  4  1  0
  3  2  1  0
  4  8  1  0
  5  4  2  0
  6  2  1  0
  6  7  2  0
 10  9  1  6
 10 12  1  0
 11 10  1  0
 12 13  1  6
 13  6  1  0
 14 12  1  0
 15 14  2  0
 16 14  1  0
 17 16  1  0
 17 23  1  0
 17 18  1  6
 19 18  1  0
 20 19  1  0
 20 21  1  0
 22 21  1  0
 23 24  1  0
 25 23  2  0
M  END
$$$$
