DVK.pdb
     RDKit          3D

 25 24  0  0  1  0  0  0  0  0999 V2000
   21.3737  -14.3900  -17.1636 N   0  0  0  0  0  0  0  0  0  0  0  0
   21.4464  -13.0347  -17.6744 C   0  0  1  0  0  0  0  0  0  0  0  0
   20.0261  -12.6034  -17.9680 C   0  0  0  0  0  0  0  0  0  0  0  0
   19.5807  -13.3942  -19.1351 C   0  0  0  0  0  0  0  0  0  0  0  0
   18.4129  -13.8115  -19.1863 O   0  0  0  0  0  0  0  0  0  0  0  0
   22.0600  -12.2018  -16.5785 C   0  0  0  0  0  0  0  0  0  0  0  0
   21.7235  -12.3342  -15.3751 O   0  0  0  0  0  0  0  0  0  0  0  0
   20.4629  -13.6642  -20.1606 O   0  0  0  0  0  0  0  0  0  0  0  0
   25.5902  -12.0747  -15.9110 C   0  0  0  0  0  0  0  0  0  0  0  0
   25.1817  -10.6541  -16.0502 C   0  0  2  0  0  0  0  0  0  0  0  0
   26.0439   -9.7062  -15.2544 C   0  0  0  0  0  0  0  0  0  0  0  0
   23.7067  -10.4231  -15.8065 C   0  0  2  0  0  0  0  0  0  0  0  0
   23.0493  -11.2268  -16.8577 N   0  0  0  0  0  0  0  0  0  0  0  0
   23.3037   -8.9962  -15.9736 C   0  0  0  0  0  0  0  0  0  0  0  0
   23.3520   -8.4422  -17.1285 O   0  0  0  0  0  0  0  0  0  0  0  0
   22.8487   -8.1538  -14.9316 N   0  0  0  0  0  0  0  0  0  0  0  0
   22.3863   -6.7825  -15.1937 C   0  0  1  0  0  0  0  0  0  0  0  0
   20.9974   -6.7527  -15.7353 C   0  0  0  0  0  0  0  0  0  0  0  0
   20.4416   -5.3974  -15.9988 C   0  0  0  0  0  0  0  0  0  0  0  0
   19.0505   -5.3665  -16.5316 C   0  0  0  0  0  0  0  0  0  0  0  0
   18.5690   -3.9639  -16.8371 C   0  0  0  0  0  0  0  0  0  0  0  0
   17.2539   -4.0269  -17.4635 N   0  0  0  0  0  0  0  0  0  0  0  0
   22.5214   -5.9498  -13.9706 C   0  0  0  0  0  0  0  0  0  0  0  0
   22.7792   -4.5839  -14.0049 O   0  0  0  0  0  0  0  0  0  0  0  0
   22.3942   -6.5183  -12.8574 O   0  0  0  0  0  0  0  0  0  0  0  0
  2  1  1  1
  3  4  1  0
  3  2  1  0
  4  8  1  0
  5  4  2  0
  6  2  1  0
  6  7  2  0
 10  9  1  1
 10 12  1  0
 11 10  1  0
 12 13  1  6
 13  6  1  0
 14 12  1  0
 15 14  2  0
 16 14  1  0
 17 16  1  0
 17 23  1  0
 17 18  1  1
 19 18  1  0
 20 19  1  0
 20 21  1  0
 22 21  1  0
 23 24  1  0
 25 23  2  0
M  END
$$$$
