DVK.pdb
     RDKit          3D

 25 24  0  0  1  0  0  0  0  0999 V2000
   28.9677  -21.1602  -16.3616 N   0  0  0  0  0  0  0  0  0  0  0  0
   27.9707  -20.2807  -15.7823 C   0  0  1  0  0  0  0  0  0  0  0  0
   27.1708  -19.7115  -16.9337 C   0  0  0  0  0  0  0  0  0  0  0  0
   28.0773  -18.8000  -17.6638 C   0  0  0  0  0  0  0  0  0  0  0  0
   28.7630  -17.9792  -17.0340 O   0  0  0  0  0  0  0  0  0  0  0  0
   27.1150  -21.1414  -14.8889 C   0  0  0  0  0  0  0  0  0  0  0  0
   26.7433  -22.2917  -15.2315 O   0  0  0  0  0  0  0  0  0  0  0  0
   28.1578  -18.8656  -19.0393 O   0  0  0  0  0  0  0  0  0  0  0  0
   25.6634  -21.7761  -10.2116 C   0  0  0  0  0  0  0  0  0  0  0  0
   26.2401  -20.9834  -11.3267 C   0  0  2  0  0  0  0  0  0  0  0  0
   25.9715  -19.5040  -11.2062 C   0  0  0  0  0  0  0  0  0  0  0  0
   25.8819  -21.5175  -12.6958 C   0  0  2  0  0  0  0  0  0  0  0  0
   26.6891  -20.6893  -13.6156 N   0  0  0  0  0  0  0  0  0  0  0  0
   24.4394  -21.3391  -13.0332 C   0  0  0  0  0  0  0  0  0  0  0  0
   23.9885  -20.1819  -13.3502 O   0  0  0  0  0  0  0  0  0  0  0  0
   23.4735  -22.3732  -13.0404 N   0  0  0  0  0  0  0  0  0  0  0  0
   22.0717  -22.1176  -13.4046 C   0  0  1  0  0  0  0  0  0  0  0  0
   21.2808  -23.3773  -13.5095 C   0  0  0  0  0  0  0  0  0  0  0  0
   19.8743  -23.2140  -13.9681 C   0  0  0  0  0  0  0  0  0  0  0  0
   19.0978  -24.4766  -14.1197 C   0  0  0  0  0  0  0  0  0  0  0  0
   17.7220  -24.2533  -14.7111 C   0  0  0  0  0  0  0  0  0  0  0  0
   16.9793  -25.5080  -14.7019 N   0  0  0  0  0  0  0  0  0  0  0  0
   21.4581  -21.1566  -12.4519 C   0  0  0  0  0  0  0  0  0  0  0  0
   20.6482  -20.1000  -12.8530 O   0  0  0  0  0  0  0  0  0  0  0  0
   21.6892  -21.3167  -11.2274 O   0  0  0  0  0  0  0  0  0  0  0  0
  2  1  1  6
  3  4  1  0
  3  2  1  0
  4  8  1  0
  5  4  2  0
  6  2  1  0
  6  7  2  0
 10  9  1  1
 10 12  1  0
 11 10  1  0
 12 13  1  6
 13  6  1  0
 14 12  1  0
 15 14  2  0
 16 14  1  0
 17 16  1  0
 17 23  1  0
 17 18  1  1
 19 18  1  0
 20 19  1  0
 20 21  1  0
 22 21  1  0
 23 24  1  0
 25 23  2  0
M  END
$$$$
