DVK.pdb
     RDKit          3D

 25 24  0  0  1  0  0  0  0  0999 V2000
   28.2680  -22.0124  -15.9087 N   0  0  0  0  0  0  0  0  0  0  0  0
   27.5583  -20.8451  -15.4222 C   0  0  1  0  0  0  0  0  0  0  0  0
   26.9616  -20.1624  -16.6335 C   0  0  0  0  0  0  0  0  0  0  0  0
   28.0750  -19.4672  -17.3138 C   0  0  0  0  0  0  0  0  0  0  0  0
   28.7440  -20.0673  -18.1699 O   0  0  0  0  0  0  0  0  0  0  0  0
   26.4868  -21.3575  -14.4946 C   0  0  0  0  0  0  0  0  0  0  0  0
   25.7965  -22.3703  -14.7712 O   0  0  0  0  0  0  0  0  0  0  0  0
   28.3651  -18.1568  -16.9954 O   0  0  0  0  0  0  0  0  0  0  0  0
   26.9969  -21.2466  -10.5885 C   0  0  0  0  0  0  0  0  0  0  0  0
   25.6695  -20.7046  -10.9739 C   0  0  2  0  0  0  0  0  0  0  0  0
   24.6261  -20.8637   -9.8963 C   0  0  0  0  0  0  0  0  0  0  0  0
   25.1813  -21.2007  -12.3168 C   0  0  2  0  0  0  0  0  0  0  0  0
   26.2083  -20.7164  -13.2623 N   0  0  0  0  0  0  0  0  0  0  0  0
   23.8618  -20.6242  -12.7078 C   0  0  0  0  0  0  0  0  0  0  0  0
   23.7375  -19.3618  -12.8923 O   0  0  0  0  0  0  0  0  0  0  0  0
   22.6765  -21.3710  -12.9072 N   0  0  0  0  0  0  0  0  0  0  0  0
   21.3938  -20.7177  -13.2083 C   0  0  1  0  0  0  0  0  0  0  0  0
   20.6756  -21.3831  -14.3329 C   0  0  0  0  0  0  0  0  0  0  0  0
   19.3093  -20.8651  -14.6160 C   0  0  0  0  0  0  0  0  0  0  0  0
   18.5771  -21.5533  -15.7161 C   0  0  0  0  0  0  0  0  0  0  0  0
   17.2239  -20.9354  -15.9982 C   0  0  0  0  0  0  0  0  0  0  0  0
   16.5869  -21.6430  -17.1025 N   0  0  0  0  0  0  0  0  0  0  0  0
   20.5546  -20.6399  -11.9846 C   0  0  0  0  0  0  0  0  0  0  0  0
   19.7194  -19.5648  -11.7021 O   0  0  0  0  0  0  0  0  0  0  0  0
   20.6106  -21.5978  -11.1736 O   0  0  0  0  0  0  0  0  0  0  0  0
  2  1  1  6
  3  4  1  0
  3  2  1  0
  4  8  1  0
  5  4  2  0
  6  2  1  0
  6  7  2  0
 10  9  1  1
 10 12  1  0
 11 10  1  0
 12 13  1  6
 13  6  1  0
 14 12  1  0
 15 14  2  0
 16 14  1  0
 17 16  1  0
 17 23  1  0
 17 18  1  6
 19 18  1  0
 20 19  1  0
 20 21  1  0
 22 21  1  0
 23 24  1  0
 25 23  2  0
M  END
$$$$
