DVK.pdb
     RDKit          3D

 25 24  0  0  1  0  0  0  0  0999 V2000
   18.6216  -25.8872   -9.3058 N   0  0  0  0  0  0  0  0  0  0  0  0
   18.2771  -24.7634   -8.4563 C   0  0  1  0  0  0  0  0  0  0  0  0
   17.4868  -23.7974   -9.3117 C   0  0  0  0  0  0  0  0  0  0  0  0
   18.4577  -23.1507  -10.2200 C   0  0  0  0  0  0  0  0  0  0  0  0
   18.4251  -23.4013  -11.4352 O   0  0  0  0  0  0  0  0  0  0  0  0
   17.4378  -25.3214   -7.3360 C   0  0  0  0  0  0  0  0  0  0  0  0
   16.4454  -26.0608   -7.5533 O   0  0  0  0  0  0  0  0  0  0  0  0
   19.3938  -22.2728   -9.7144 O   0  0  0  0  0  0  0  0  0  0  0  0
   18.6134  -27.5280   -4.6971 C   0  0  0  0  0  0  0  0  0  0  0  0
   18.0552  -26.3205   -4.0378 C   0  0  2  0  0  0  0  0  0  0  0  0
   17.6165  -26.5679   -2.6159 C   0  0  0  0  0  0  0  0  0  0  0  0
   16.9843  -25.6285   -4.8517 C   0  0  2  0  0  0  0  0  0  0  0  0
   17.7319  -25.0356   -5.9799 N   0  0  0  0  0  0  0  0  0  0  0  0
   16.2989  -24.5338   -4.1045 C   0  0  0  0  0  0  0  0  0  0  0  0
   16.9421  -23.4748   -3.7761 O   0  0  0  0  0  0  0  0  0  0  0  0
   14.9414  -24.5495   -3.7054 N   0  0  0  0  0  0  0  0  0  0  0  0
   14.3587  -23.4604   -2.9072 C   0  0  1  0  0  0  0  0  0  0  0  0
   12.9542  -23.1605   -3.3080 C   0  0  0  0  0  0  0  0  0  0  0  0
   12.8009  -22.2017   -4.4360 C   0  0  0  0  0  0  0  0  0  0  0  0
   11.3988  -21.9241   -4.8565 C   0  0  0  0  0  0  0  0  0  0  0  0
   11.3170  -21.0437   -6.0856 C   0  0  0  0  0  0  0  0  0  0  0  0
    9.9183  -20.7903   -6.4100 N   0  0  0  0  0  0  0  0  0  0  0  0
   14.4669  -23.7682   -1.4577 C   0  0  0  0  0  0  0  0  0  0  0  0
   14.6320  -22.7908   -0.4827 O   0  0  0  0  0  0  0  0  0  0  0  0
   14.4045  -24.9734   -1.1081 O   0  0  0  0  0  0  0  0  0  0  0  0
  2  1  1  6
  3  4  1  0
  3  2  1  0
  4  8  1  0
  5  4  2  0
  6  2  1  0
  6  7  2  0
 10  9  1  6
 10 12  1  0
 11 10  1  0
 12 13  1  6
 13  6  1  0
 14 12  1  0
 15 14  2  0
 16 14  1  0
 17 16  1  0
 17 23  1  0
 17 18  1  6
 19 18  1  0
 20 19  1  0
 20 21  1  0
 22 21  1  0
 23 24  1  0
 25 23  2  0
M  END
$$$$
