DVK.pdb
     RDKit          3D

 25 24  0  0  1  0  0  0  0  0999 V2000
   18.8212  -11.3845  -15.5649 N   0  0  0  0  0  0  0  0  0  0  0  0
   17.9425  -10.3053  -15.1569 C   0  0  1  0  0  0  0  0  0  0  0  0
   16.5314  -10.8484  -15.2122 C   0  0  0  0  0  0  0  0  0  0  0  0
   16.1877  -10.9775  -16.6443 C   0  0  0  0  0  0  0  0  0  0  0  0
   16.3412  -10.0079  -17.4040 O   0  0  0  0  0  0  0  0  0  0  0  0
   18.3399   -9.9457  -13.7484 C   0  0  0  0  0  0  0  0  0  0  0  0
   18.6074  -10.8221  -12.8886 O   0  0  0  0  0  0  0  0  0  0  0  0
   15.6993  -12.1726  -17.1299 O   0  0  0  0  0  0  0  0  0  0  0  0
   20.1742   -6.3835  -13.0003 C   0  0  0  0  0  0  0  0  0  0  0  0
   20.1713   -7.5786  -12.1195 C   0  0  2  0  0  0  0  0  0  0  0  0
   21.2190   -8.5969  -12.4946 C   0  0  0  0  0  0  0  0  0  0  0  0
   18.8037   -8.2035  -11.9536 C   0  0  2  0  0  0  0  0  0  0  0  0
   18.4302   -8.5956  -13.3284 N   0  0  0  0  0  0  0  0  0  0  0  0
   17.7832   -7.2461  -11.4357 C   0  0  0  0  0  0  0  0  0  0  0  0
   17.3504   -6.2974  -12.1810 O   0  0  0  0  0  0  0  0  0  0  0  0
   17.2165   -7.2861  -10.1396 N   0  0  0  0  0  0  0  0  0  0  0  0
   16.1878   -6.3238   -9.7168 C   0  0  1  0  0  0  0  0  0  0  0  0
   15.1745   -6.9452   -8.8166 C   0  0  0  0  0  0  0  0  0  0  0  0
   14.3431   -8.0159   -9.4308 C   0  0  0  0  0  0  0  0  0  0  0  0
   13.2946   -8.6003   -8.5481 C   0  0  0  0  0  0  0  0  0  0  0  0
   12.4584   -9.6524   -9.2455 C   0  0  0  0  0  0  0  0  0  0  0  0
   11.4032  -10.1082   -8.3485 N   0  0  0  0  0  0  0  0  0  0  0  0
   16.8208   -5.1307   -9.0976 C   0  0  0  0  0  0  0  0  0  0  0  0
   16.2800   -3.8526   -9.1821 O   0  0  0  0  0  0  0  0  0  0  0  0
   17.8961   -5.2972   -8.4695 O   0  0  0  0  0  0  0  0  0  0  0  0
  2  1  1  1
  3  4  1  0
  3  2  1  0
  4  8  1  0
  5  4  2  0
  6  2  1  0
  6  7  2  0
 10  9  1  6
 10 12  1  0
 11 10  1  0
 12 13  1  6
 13  6  1  0
 14 12  1  0
 15 14  2  0
 16 14  1  0
 17 16  1  0
 17 23  1  0
 17 18  1  1
 19 18  1  0
 20 19  1  0
 20 21  1  0
 22 21  1  0
 23 24  1  0
 25 23  2  0
M  END
$$$$
