DVK.pdb
     RDKit          3D

 25 24  0  0  1  0  0  0  0  0999 V2000
   27.9602  -21.3545  -16.4828 N   0  0  0  0  0  0  0  0  0  0  0  0
   27.4685  -20.2771  -15.6459 C   0  0  1  0  0  0  0  0  0  0  0  0
   26.6365  -19.3797  -16.5358 C   0  0  0  0  0  0  0  0  0  0  0  0
   27.5893  -18.6173  -17.3705 C   0  0  0  0  0  0  0  0  0  0  0  0
   28.8045  -18.8580  -17.2934 O   0  0  0  0  0  0  0  0  0  0  0  0
   26.6282  -20.9233  -14.5747 C   0  0  0  0  0  0  0  0  0  0  0  0
   26.1125  -22.0586  -14.7286 O   0  0  0  0  0  0  0  0  0  0  0  0
   27.1248  -17.6438  -18.2303 O   0  0  0  0  0  0  0  0  0  0  0  0
   27.4713  -20.9602  -10.9054 C   0  0  0  0  0  0  0  0  0  0  0  0
   26.0769  -20.4625  -11.0153 C   0  0  2  0  0  0  0  0  0  0  0  0
   25.2119  -20.8517   -9.8425 C   0  0  0  0  0  0  0  0  0  0  0  0
   25.4216  -20.7887  -12.3391 C   0  0  2  0  0  0  0  0  0  0  0  0
   26.3808  -20.2756  -13.3391 N   0  0  0  0  0  0  0  0  0  0  0  0
   24.1146  -20.0949  -12.5304 C   0  0  0  0  0  0  0  0  0  0  0  0
   24.0666  -18.9597  -13.1237 O   0  0  0  0  0  0  0  0  0  0  0  0
   22.8610  -20.5926  -12.1025 N   0  0  0  0  0  0  0  0  0  0  0  0
   21.6245  -20.3149  -12.8488 C   0  0  1  0  0  0  0  0  0  0  0  0
   21.7413  -20.6899  -14.2872 C   0  0  0  0  0  0  0  0  0  0  0  0
   20.5560  -20.3735  -15.1298 C   0  0  0  0  0  0  0  0  0  0  0  0
   20.6789  -20.7312  -16.5710 C   0  0  0  0  0  0  0  0  0  0  0  0
   19.4575  -20.3460  -17.3786 C   0  0  0  0  0  0  0  0  0  0  0  0
   19.7099  -20.5983  -18.7923 N   0  0  0  0  0  0  0  0  0  0  0  0
   20.4673  -20.9797  -12.1957 C   0  0  0  0  0  0  0  0  0  0  0  0
   19.3663  -20.2844  -11.7082 O   0  0  0  0  0  0  0  0  0  0  0  0
   20.4962  -22.2308  -12.0846 O   0  0  0  0  0  0  0  0  0  0  0  0
  2  1  1  6
  3  4  1  0
  3  2  1  0
  4  8  1  0
  5  4  2  0
  6  2  1  0
  6  7  2  0
 10  9  1  1
 10 12  1  0
 11 10  1  0
 12 13  1  6
 13  6  1  0
 14 12  1  0
 15 14  2  0
 16 14  1  0
 17 16  1  0
 17 23  1  0
 17 18  1  6
 19 18  1  0
 20 19  1  0
 20 21  1  0
 22 21  1  0
 23 24  1  0
 25 23  2  0
M  END
$$$$
