DVK.pdb
     RDKit          3D

 25 24  0  0  1  0  0  0  0  0999 V2000
   19.1565  -14.5824  -16.1236 N   0  0  0  0  0  0  0  0  0  0  0  0
   19.2734  -13.2920  -16.7751 C   0  0  1  0  0  0  0  0  0  0  0  0
   17.8772  -12.7136  -16.8486 C   0  0  0  0  0  0  0  0  0  0  0  0
   17.1178  -13.5691  -17.7852 C   0  0  0  0  0  0  0  0  0  0  0  0
   17.6486  -13.9477  -18.8413 O   0  0  0  0  0  0  0  0  0  0  0  0
   20.1711  -12.4558  -15.8998 C   0  0  0  0  0  0  0  0  0  0  0  0
   19.9694  -12.3327  -14.6657 O   0  0  0  0  0  0  0  0  0  0  0  0
   15.8250  -13.9427  -17.4820 O   0  0  0  0  0  0  0  0  0  0  0  0
   23.8680  -12.7398  -15.7236 C   0  0  0  0  0  0  0  0  0  0  0  0
   23.5607  -11.3191  -16.0259 C   0  0  2  0  0  0  0  0  0  0  0  0
   24.6109  -10.3622  -15.5193 C   0  0  0  0  0  0  0  0  0  0  0  0
   22.1655  -10.9024  -15.6159 C   0  0  2  0  0  0  0  0  0  0  0  0
   21.2889  -11.7673  -16.4324 N   0  0  0  0  0  0  0  0  0  0  0  0
   21.8638   -9.4768  -15.9370 C   0  0  0  0  0  0  0  0  0  0  0  0
   21.4951   -9.1449  -17.1189 O   0  0  0  0  0  0  0  0  0  0  0  0
   21.9463   -8.4029  -15.0192 N   0  0  0  0  0  0  0  0  0  0  0  0
   21.5210   -7.0427  -15.3823 C   0  0  1  0  0  0  0  0  0  0  0  0
   20.1199   -7.0101  -15.8911 C   0  0  0  0  0  0  0  0  0  0  0  0
   19.6252   -5.6735  -16.3200 C   0  0  0  0  0  0  0  0  0  0  0  0
   18.2200   -5.6372  -16.8141 C   0  0  0  0  0  0  0  0  0  0  0  0
   17.8427   -4.3001  -17.4159 C   0  0  0  0  0  0  0  0  0  0  0  0
   16.4802   -4.3657  -17.9308 N   0  0  0  0  0  0  0  0  0  0  0  0
   21.7151   -6.1181  -14.2356 C   0  0  0  0  0  0  0  0  0  0  0  0
   22.0208   -4.7703  -14.3884 O   0  0  0  0  0  0  0  0  0  0  0  0
   21.5945   -6.5880  -13.0767 O   0  0  0  0  0  0  0  0  0  0  0  0
  2  1  1  1
  3  4  1  0
  3  2  1  0
  4  8  1  0
  5  4  2  0
  6  2  1  0
  6  7  2  0
 10  9  1  1
 10 12  1  0
 11 10  1  0
 12 13  1  6
 13  6  1  0
 14 12  1  0
 15 14  2  0
 16 14  1  0
 17 16  1  0
 17 23  1  0
 17 18  1  1
 19 18  1  0
 20 19  1  0
 20 21  1  0
 22 21  1  0
 23 24  1  0
 25 23  2  0
M  END
$$$$
