DVK.pdb
     RDKit          3D

 25 24  0  0  1  0  0  0  0  0999 V2000
   18.9746  -11.3585  -15.3372 N   0  0  0  0  0  0  0  0  0  0  0  0
   17.9976  -10.3314  -15.0313 C   0  0  1  0  0  0  0  0  0  0  0  0
   16.6581  -11.0255  -14.9151 C   0  0  0  0  0  0  0  0  0  0  0  0
   16.2340  -11.3517  -16.2933 C   0  0  0  0  0  0  0  0  0  0  0  0
   16.0449  -12.5354  -16.6153 O   0  0  0  0  0  0  0  0  0  0  0  0
   18.4193   -9.7238  -13.7183 C   0  0  0  0  0  0  0  0  0  0  0  0
   18.6471  -10.4275  -12.7026 O   0  0  0  0  0  0  0  0  0  0  0  0
   16.0501  -10.3412  -17.2141 O   0  0  0  0  0  0  0  0  0  0  0  0
   21.3638   -7.6294  -13.1573 C   0  0  0  0  0  0  0  0  0  0  0  0
   20.1879   -6.8396  -12.7126 C   0  0  2  0  0  0  0  0  0  0  0  0
   20.5268   -5.8029  -11.6706 C   0  0  0  0  0  0  0  0  0  0  0  0
   19.0069   -7.6922  -12.3044 C   0  0  2  0  0  0  0  0  0  0  0  0
   18.5787   -8.3238  -13.5697 N   0  0  0  0  0  0  0  0  0  0  0  0
   17.8703   -6.8933  -11.7603 C   0  0  0  0  0  0  0  0  0  0  0  0
   17.1741   -6.1483  -12.5369 O   0  0  0  0  0  0  0  0  0  0  0  0
   17.4638   -6.8785  -10.4049 N   0  0  0  0  0  0  0  0  0  0  0  0
   16.2973   -6.1028   -9.9572 C   0  0  1  0  0  0  0  0  0  0  0  0
   15.5404   -6.8003   -8.8784 C   0  0  0  0  0  0  0  0  0  0  0  0
   14.3519   -6.0721   -8.3563 C   0  0  0  0  0  0  0  0  0  0  0  0
   13.5869   -6.7745   -7.2879 C   0  0  0  0  0  0  0  0  0  0  0  0
   12.2925   -6.0734   -6.9340 C   0  0  0  0  0  0  0  0  0  0  0  0
   11.4951   -6.9331   -6.0673 N   0  0  0  0  0  0  0  0  0  0  0  0
   16.7128   -4.7365   -9.5473 C   0  0  0  0  0  0  0  0  0  0  0  0
   15.9428   -3.6036   -9.7859 O   0  0  0  0  0  0  0  0  0  0  0  0
   17.8148   -4.6111   -8.9570 O   0  0  0  0  0  0  0  0  0  0  0  0
  2  1  1  1
  3  4  1  0
  3  2  1  0
  4  8  1  0
  5  4  2  0
  6  2  1  0
  6  7  2  0
 10  9  1  1
 10 12  1  0
 11 10  1  0
 12 13  1  6
 13  6  1  0
 14 12  1  0
 15 14  2  0
 16 14  1  0
 17 16  1  0
 17 23  1  0
 17 18  1  1
 19 18  1  0
 20 19  1  0
 20 21  1  0
 22 21  1  0
 23 24  1  0
 25 23  2  0
M  END
$$$$
