DVK.pdb
     RDKit          3D

 25 24  0  0  1  0  0  0  0  0999 V2000
   28.0306  -21.8297  -16.0559 N   0  0  0  0  0  0  0  0  0  0  0  0
   27.2869  -20.7249  -15.4822 C   0  0  1  0  0  0  0  0  0  0  0  0
   26.5237  -20.0779  -16.6173 C   0  0  0  0  0  0  0  0  0  0  0  0
   27.4902  -19.2228  -17.3386 C   0  0  0  0  0  0  0  0  0  0  0  0
   28.6852  -19.2264  -17.0032 O   0  0  0  0  0  0  0  0  0  0  0  0
   26.3539  -21.3267  -14.4632 C   0  0  0  0  0  0  0  0  0  0  0  0
   25.8574  -22.4715  -14.6104 O   0  0  0  0  0  0  0  0  0  0  0  0
   27.0611  -18.4264  -18.3799 O   0  0  0  0  0  0  0  0  0  0  0  0
   27.0620  -21.0436  -10.6895 C   0  0  0  0  0  0  0  0  0  0  0  0
   25.6609  -20.6330  -10.9594 C   0  0  2  0  0  0  0  0  0  0  0  0
   24.7354  -20.8724   -9.7926 C   0  0  0  0  0  0  0  0  0  0  0  0
   25.1057  -21.1923  -12.2505 C   0  0  2  0  0  0  0  0  0  0  0  0
   25.9928  -20.6245  -13.2868 N   0  0  0  0  0  0  0  0  0  0  0  0
   23.7070  -20.7507  -12.5245 C   0  0  0  0  0  0  0  0  0  0  0  0
   23.4458  -19.5094  -12.7084 O   0  0  0  0  0  0  0  0  0  0  0  0
   22.5859  -21.6102  -12.6077 N   0  0  0  0  0  0  0  0  0  0  0  0
   21.2369  -21.0947  -12.8858 C   0  0  1  0  0  0  0  0  0  0  0  0
   20.3904  -22.0941  -13.5984 C   0  0  0  0  0  0  0  0  0  0  0  0
   19.0398  -21.6172  -14.0028 C   0  0  0  0  0  0  0  0  0  0  0  0
   18.1755  -22.6294  -14.6725 C   0  0  0  0  0  0  0  0  0  0  0  0
   16.9102  -22.0318  -15.2509 C   0  0  0  0  0  0  0  0  0  0  0  0
   16.1590  -23.0673  -15.9504 N   0  0  0  0  0  0  0  0  0  0  0  0
   20.5968  -20.6211  -11.6315 C   0  0  0  0  0  0  0  0  0  0  0  0
   19.7925  -19.4887  -11.5684 O   0  0  0  0  0  0  0  0  0  0  0  0
   20.7989  -21.2842  -10.5836 O   0  0  0  0  0  0  0  0  0  0  0  0
  2  1  1  6
  3  4  1  0
  3  2  1  0
  4  8  1  0
  5  4  2  0
  6  2  1  0
  6  7  2  0
 10  9  1  1
 10 12  1  0
 11 10  1  0
 12 13  1  6
 13  6  1  0
 14 12  1  0
 15 14  2  0
 16 14  1  0
 17 16  1  0
 17 23  1  0
 17 18  1  1
 19 18  1  0
 20 19  1  0
 20 21  1  0
 22 21  1  0
 23 24  1  0
 25 23  2  0
M  END
$$$$
