DVK.pdb
     RDKit          3D

 25 24  0  0  1  0  0  0  0  0999 V2000
   14.9051  -11.3728  -15.2471 N   0  0  0  0  0  0  0  0  0  0  0  0
   16.2963  -11.2004  -15.6185 C   0  0  1  0  0  0  0  0  0  0  0  0
   16.6160  -12.2853  -16.6236 C   0  0  0  0  0  0  0  0  0  0  0  0
   16.6961  -13.5507  -15.8634 C   0  0  0  0  0  0  0  0  0  0  0  0
   15.9451  -14.4942  -16.1576 O   0  0  0  0  0  0  0  0  0  0  0  0
   16.4029   -9.8293  -16.2347 C   0  0  0  0  0  0  0  0  0  0  0  0
   15.4658   -9.3261  -16.9035 O   0  0  0  0  0  0  0  0  0  0  0  0
   17.6036  -13.6779  -14.8324 O   0  0  0  0  0  0  0  0  0  0  0  0
   15.1975   -7.1924  -16.2555 C   0  0  0  0  0  0  0  0  0  0  0  0
   16.5616   -6.9504  -15.7217 C   0  0  2  0  0  0  0  0  0  0  0  0
   16.8582   -5.4904  -15.4860 C   0  0  0  0  0  0  0  0  0  0  0  0
   17.6519   -7.6314  -16.5191 C   0  0  2  0  0  0  0  0  0  0  0  0
   17.5714   -9.0419  -16.0866 N   0  0  0  0  0  0  0  0  0  0  0  0
   19.0153   -7.1124  -16.2059 C   0  0  0  0  0  0  0  0  0  0  0  0
   19.5467   -7.3412  -15.0622 O   0  0  0  0  0  0  0  0  0  0  0  0
   19.8199   -6.3574  -17.0920 N   0  0  0  0  0  0  0  0  0  0  0  0
   21.2287   -6.0601  -16.7923 C   0  0  1  0  0  0  0  0  0  0  0  0
   22.1356   -6.4599  -17.9063 C   0  0  0  0  0  0  0  0  0  0  0  0
   23.5715   -6.1164  -17.7179 C   0  0  0  0  0  0  0  0  0  0  0  0
   24.4903   -6.5866  -18.7924 C   0  0  0  0  0  0  0  0  0  0  0  0
   25.9437   -6.2798  -18.4990 C   0  0  0  0  0  0  0  0  0  0  0  0
   26.7468   -6.5494  -19.6857 N   0  0  0  0  0  0  0  0  0  0  0  0
   21.3889   -4.6268  -16.4355 C   0  0  0  0  0  0  0  0  0  0  0  0
   22.3160   -4.1739  -15.5034 O   0  0  0  0  0  0  0  0  0  0  0  0
   20.6456   -3.7929  -17.0105 O   0  0  0  0  0  0  0  0  0  0  0  0
  2  1  1  6
  3  4  1  0
  3  2  1  0
  4  8  1  0
  5  4  2  0
  6  2  1  0
  6  7  2  0
 10  9  1  6
 10 12  1  0
 11 10  1  0
 12 13  1  1
 13  6  1  0
 14 12  1  0
 15 14  2  0
 16 14  1  0
 17 16  1  0
 17 23  1  0
 17 18  1  6
 19 18  1  0
 20 19  1  0
 20 21  1  0
 22 21  1  0
 23 24  1  0
 25 23  2  0
M  END
$$$$
