AQF.pdb
     RDKit          3D

 26 26  0  0  1  0  0  0  0  0999 V2000
    7.3906  -12.4863   19.2102 C   0  0  0  0  0  0  0  0  0  0  0  0
    8.6960  -13.0968   19.6731 C   0  0  2  0  0  0  0  0  0  0  0  0
    9.3114  -13.7801   18.5565 N   0  0  0  0  0  0  0  0  0  0  0  0
    8.3690  -14.0314   20.7901 C   0  0  0  0  0  0  0  0  0  0  0  0
    7.8047  -13.5392   21.7660 O   0  0  0  0  0  0  0  0  0  0  0  0
    8.3591  -20.3114   20.5289 N   0  0  0  0  0  0  0  0  0  0  0  0
    7.8900  -19.4293   19.5207 C   0  0  0  0  0  0  0  0  0  0  0  0
    7.5566  -19.8598   18.4091 O   0  0  0  0  0  0  0  0  0  0  0  0
    7.8263  -17.9695   19.8839 C   0  0  0  0  0  0  0  0  0  0  0  0
    8.2837  -17.8084   21.3119 C   0  0  0  0  0  0  0  0  0  0  0  0
    8.3645  -16.3634   21.7407 C   0  0  2  0  0  0  0  0  0  0  0  0
    8.6801  -15.4057   20.7506 N   0  0  0  0  0  0  0  0  0  0  0  0
    8.8894  -16.1351   23.0886 C   0  0  0  0  0  0  0  0  0  0  0  0
   10.0956  -15.8133   23.3189 O   0  0  0  0  0  0  0  0  0  0  0  0
    8.0841  -16.2552   24.2736 N   0  0  0  0  0  0  0  0  0  0  0  0
    8.6088  -16.0443   25.6100 C   0  0  1  0  0  0  0  0  0  0  0  0
    7.4523  -15.6154   26.4740 C   0  0  0  0  0  0  0  0  0  0  0  0
    7.0938  -14.1893   26.3346 C   0  0  0  0  0  0  0  0  0  0  0  0
    7.9985  -13.1593   26.4738 C   0  0  0  0  0  0  0  0  0  0  0  0
    7.6170  -11.8222   26.3329 C   0  0  0  0  0  0  0  0  0  0  0  0
    6.3166  -11.5098   26.0497 C   0  0  0  0  0  0  0  0  0  0  0  0
    5.3983  -12.5182   25.9068 C   0  0  0  0  0  0  0  0  0  0  0  0
    5.7765  -13.8330   26.0460 C   0  0  0  0  0  0  0  0  0  0  0  0
    9.3363  -17.2025   26.1242 C   0  0  0  0  0  0  0  0  0  0  0  0
    9.2073  -18.3477   25.6141 O   0  0  0  0  0  0  0  0  0  0  0  0
   10.2036  -17.0923   27.1991 O   0  0  0  0  0  0  0  0  0  0  0  0
  2  1  1  6
  3  2  1  0
  4  5  2  0
  4  2  1  0
  6  7  1  0
  7  9  1  0
  8  7  2  0
  9 10  1  0
 11 10  1  6
 11 12  1  0
 12  4  1  0
 13 11  1  0
 14 13  2  0
 15 13  1  0
 16 24  1  0
 16 15  1  0
 17 18  1  0
 16 17  1  1
 18 19  2  0
 19 20  1  0
 21 20  2  0
 22 21  1  0
 23 18  1  0
 23 22  2  0
 24 26  1  0
 25 24  2  0
M  END
$$$$
