AQF.pdb
     RDKit          3D

 26 26  0  0  1  0  0  0  0  0999 V2000
    7.8817  -12.0590   19.8937 C   0  0  0  0  0  0  0  0  0  0  0  0
    8.4040  -13.3374   19.2741 C   0  0  2  0  0  0  0  0  0  0  0  0
    7.7412  -13.5436   18.0051 N   0  0  0  0  0  0  0  0  0  0  0  0
    8.1186  -14.4390   20.2402 C   0  0  0  0  0  0  0  0  0  0  0  0
    7.0524  -15.0338   20.0904 O   0  0  0  0  0  0  0  0  0  0  0  0
    9.8245  -19.6191   20.4242 N   0  0  0  0  0  0  0  0  0  0  0  0
   10.3350  -18.5310   19.6692 C   0  0  0  0  0  0  0  0  0  0  0  0
   11.0362  -18.7296   18.6687 O   0  0  0  0  0  0  0  0  0  0  0  0
    9.9759  -17.1516   20.1542 C   0  0  0  0  0  0  0  0  0  0  0  0
    9.2103  -17.2801   21.4471 C   0  0  0  0  0  0  0  0  0  0  0  0
    8.9220  -15.9458   22.0912 C   0  0  2  0  0  0  0  0  0  0  0  0
    9.0072  -14.7953   21.2749 N   0  0  0  0  0  0  0  0  0  0  0  0
    9.3497  -15.8142   23.4856 C   0  0  0  0  0  0  0  0  0  0  0  0
   10.4990  -15.3935   23.8227 O   0  0  0  0  0  0  0  0  0  0  0  0
    8.5047  -16.1503   24.5992 N   0  0  0  0  0  0  0  0  0  0  0  0
    8.9441  -16.0609   25.9793 C   0  0  1  0  0  0  0  0  0  0  0  0
    7.7565  -15.6149   26.7909 C   0  0  0  0  0  0  0  0  0  0  0  0
    7.3617  -14.2108   26.5577 C   0  0  0  0  0  0  0  0  0  0  0  0
    6.1744  -13.8420   25.9636 C   0  0  0  0  0  0  0  0  0  0  0  0
    5.8392  -12.5002   25.7623 C   0  0  0  0  0  0  0  0  0  0  0  0
    6.6997  -11.5149   26.1590 C   0  0  0  0  0  0  0  0  0  0  0  0
    7.8874  -11.8580   26.7526 C   0  0  0  0  0  0  0  0  0  0  0  0
    8.2146  -13.1790   26.9494 C   0  0  0  0  0  0  0  0  0  0  0  0
    9.5619  -17.2947   26.4601 C   0  0  0  0  0  0  0  0  0  0  0  0
   10.0757  -17.3765   27.6079 O   0  0  0  0  0  0  0  0  0  0  0  0
    9.6098  -18.4336   25.6724 O   0  0  0  0  0  0  0  0  0  0  0  0
  2  1  1  1
  3  2  1  0
  4  5  2  0
  4  2  1  0
  6  7  1  0
  7  9  1  0
  8  7  2  0
  9 10  1  0
 11 10  1  6
 11 12  1  0
 12  4  1  0
 13 11  1  0
 14 13  2  0
 15 13  1  0
 16 24  1  0
 16 15  1  0
 17 18  1  0
 16 17  1  1
 18 19  2  0
 19 20  1  0
 21 20  2  0
 22 21  1  0
 23 18  1  0
 23 22  2  0
 24 26  1  0
 25 24  2  0
M  END
$$$$
