AQF.pdb
     RDKit          3D

 26 26  0  0  1  0  0  0  0  0999 V2000
    7.3635  -18.4351   19.0297 C   0  0  0  0  0  0  0  0  0  0  0  0
    8.5087  -18.6736   19.9902 C   0  0  2  0  0  0  0  0  0  0  0  0
    7.9967  -19.3395   21.1679 N   0  0  0  0  0  0  0  0  0  0  0  0
    9.0940  -17.3386   20.3118 C   0  0  0  0  0  0  0  0  0  0  0  0
    9.6724  -16.7606   19.3930 O   0  0  0  0  0  0  0  0  0  0  0  0
    8.9648  -12.8154   18.7951 N   0  0  0  0  0  0  0  0  0  0  0  0
    7.7168  -13.2735   19.2926 C   0  0  0  0  0  0  0  0  0  0  0  0
    6.6564  -12.9219   18.7598 O   0  0  0  0  0  0  0  0  0  0  0  0
    7.7669  -14.1937   20.4832 C   0  0  0  0  0  0  0  0  0  0  0  0
    9.2058  -14.3593   20.9035 C   0  0  0  0  0  0  0  0  0  0  0  0
    9.3916  -15.4407   21.9400 C   0  0  2  0  0  0  0  0  0  0  0  0
    9.0011  -16.7531   21.5908 N   0  0  0  0  0  0  0  0  0  0  0  0
    9.1839  -15.0242   23.3285 C   0  0  0  0  0  0  0  0  0  0  0  0
    9.4991  -13.8739   23.7631 O   0  0  0  0  0  0  0  0  0  0  0  0
    8.6033  -15.8824   24.3253 N   0  0  0  0  0  0  0  0  0  0  0  0
    9.0960  -15.9560   25.6882 C   0  0  1  0  0  0  0  0  0  0  0  0
    7.9320  -15.6505   26.5938 C   0  0  0  0  0  0  0  0  0  0  0  0
    7.4710  -14.2488   26.5286 C   0  0  0  0  0  0  0  0  0  0  0  0
    8.2115  -13.1812   26.9875 C   0  0  0  0  0  0  0  0  0  0  0  0
    7.7375  -11.8690   26.9058 C   0  0  0  0  0  0  0  0  0  0  0  0
    6.5095  -11.6197   26.3595 C   0  0  0  0  0  0  0  0  0  0  0  0
    5.7544  -12.6665   25.8961 C   0  0  0  0  0  0  0  0  0  0  0  0
    6.2233  -13.9567   25.9777 C   0  0  0  0  0  0  0  0  0  0  0  0
    9.7618  -17.2226   25.9842 C   0  0  0  0  0  0  0  0  0  0  0  0
   10.2666  -17.4590   27.1145 O   0  0  0  0  0  0  0  0  0  0  0  0
    9.8674  -18.2234   25.0319 O   0  0  0  0  0  0  0  0  0  0  0  0
  2  1  1  6
  3  2  1  0
  4  5  2  0
  4  2  1  0
  6  7  1  0
  7  9  1  0
  8  7  2  0
  9 10  1  0
 11 10  1  6
 11 12  1  0
 12  4  1  0
 13 11  1  0
 14 13  2  0
 15 13  1  0
 16 24  1  0
 16 15  1  0
 17 18  1  0
 16 17  1  1
 18 19  2  0
 19 20  1  0
 21 20  2  0
 22 21  1  0
 23 18  1  0
 23 22  2  0
 24 26  1  0
 25 24  2  0
M  END
$$$$
