AQF.pdb
     RDKit          3D

 26 26  0  0  1  0  0  0  0  0999 V2000
    6.8909  -13.2153   19.1575 C   0  0  0  0  0  0  0  0  0  0  0  0
    8.3862  -13.4503   19.1493 C   0  0  2  0  0  0  0  0  0  0  0  0
    8.7671  -13.9755   17.8564 N   0  0  0  0  0  0  0  0  0  0  0  0
    8.6832  -14.4103   20.2531 C   0  0  0  0  0  0  0  0  0  0  0  0
    8.2462  -14.1160   21.3646 O   0  0  0  0  0  0  0  0  0  0  0  0
   11.5043  -19.0759   18.6113 N   0  0  0  0  0  0  0  0  0  0  0  0
   10.1047  -19.0943   18.3757 C   0  0  0  0  0  0  0  0  0  0  0  0
    9.6446  -19.5908   17.3394 O   0  0  0  0  0  0  0  0  0  0  0  0
    9.2369  -18.4843   19.4443 C   0  0  0  0  0  0  0  0  0  0  0  0
   10.1260  -17.9438   20.5360 C   0  0  0  0  0  0  0  0  0  0  0  0
    9.6886  -16.5854   21.0277 C   0  0  2  0  0  0  0  0  0  0  0  0
    9.4217  -15.5947   20.0559 N   0  0  0  0  0  0  0  0  0  0  0  0
   10.2941  -16.1466   22.2867 C   0  0  0  0  0  0  0  0  0  0  0  0
   11.4122  -15.5485   22.3483 O   0  0  0  0  0  0  0  0  0  0  0  0
    9.6755  -16.3544   23.5678 N   0  0  0  0  0  0  0  0  0  0  0  0
   10.2876  -15.9412   24.8169 C   0  0  1  0  0  0  0  0  0  0  0  0
    9.1837  -15.4110   25.6935 C   0  0  0  0  0  0  0  0  0  0  0  0
    9.6357  -14.9678   27.0280 C   0  0  0  0  0  0  0  0  0  0  0  0
    9.7781  -13.6440   27.3832 C   0  0  0  0  0  0  0  0  0  0  0  0
   10.2083  -13.2676   28.6585 C   0  0  0  0  0  0  0  0  0  0  0  0
   10.5000  -14.2244   29.5904 C   0  0  0  0  0  0  0  0  0  0  0  0
   10.3658  -15.5485   29.2596 C   0  0  0  0  0  0  0  0  0  0  0  0
    9.9422  -15.9159   28.0040 C   0  0  0  0  0  0  0  0  0  0  0  0
   11.0822  -16.9987   25.4376 C   0  0  0  0  0  0  0  0  0  0  0  0
   10.7080  -18.2022   25.4292 O   0  0  0  0  0  0  0  0  0  0  0  0
   12.2869  -16.7242   26.0646 O   0  0  0  0  0  0  0  0  0  0  0  0
  2  1  1  6
  3  2  1  0
  4  5  2  0
  4  2  1  0
  6  7  1  0
  7  9  1  0
  8  7  2  0
  9 10  1  0
 11 10  1  6
 11 12  1  0
 12  4  1  0
 13 11  1  0
 14 13  2  0
 15 13  1  0
 16 24  1  0
 16 15  1  0
 17 18  1  0
 16 17  1  1
 18 19  2  0
 19 20  1  0
 21 20  2  0
 22 21  1  0
 23 18  1  0
 23 22  2  0
 24 26  1  0
 25 24  2  0
M  END
$$$$
