AQF.pdb
     RDKit          3D

 26 26  0  0  1  0  0  0  0  0999 V2000
    8.4637  -20.0894   21.8684 C   0  0  0  0  0  0  0  0  0  0  0  0
    8.4250  -19.1455   20.6858 C   0  0  2  0  0  0  0  0  0  0  0  0
    9.1577  -19.7421   19.5905 N   0  0  0  0  0  0  0  0  0  0  0  0
    9.0364  -17.8594   21.1336 C   0  0  0  0  0  0  0  0  0  0  0  0
   10.2379  -17.8884   21.3956 O   0  0  0  0  0  0  0  0  0  0  0  0
    7.4877  -12.1062   19.5184 N   0  0  0  0  0  0  0  0  0  0  0  0
    7.6933  -13.2427   18.6933 C   0  0  0  0  0  0  0  0  0  0  0  0
    7.4456  -13.1971   17.4814 O   0  0  0  0  0  0  0  0  0  0  0  0
    8.2201  -14.4783   19.3734 C   0  0  0  0  0  0  0  0  0  0  0  0
    8.3412  -14.2001   20.8507 C   0  0  0  0  0  0  0  0  0  0  0  0
    8.8053  -15.4026   21.6362 C   0  0  2  0  0  0  0  0  0  0  0  0
    8.2972  -16.6655   21.2567 N   0  0  0  0  0  0  0  0  0  0  0  0
    9.0353  -15.1715   23.0638 C   0  0  0  0  0  0  0  0  0  0  0  0
    9.6140  -14.1358   23.5153 O   0  0  0  0  0  0  0  0  0  0  0  0
    8.6255  -16.0987   24.0834 N   0  0  0  0  0  0  0  0  0  0  0  0
    8.8794  -15.8826   25.4957 C   0  0  1  0  0  0  0  0  0  0  0  0
    7.5733  -15.4654   26.1187 C   0  0  0  0  0  0  0  0  0  0  0  0
    7.4215  -14.0047   26.2763 C   0  0  0  0  0  0  0  0  0  0  0  0
    8.4220  -13.1811   26.7449 C   0  0  0  0  0  0  0  0  0  0  0  0
    8.2365  -11.8022   26.8780 C   0  0  0  0  0  0  0  0  0  0  0  0
    7.0378  -11.2390   26.5393 C   0  0  0  0  0  0  0  0  0  0  0  0
    6.0273  -12.0390   26.0707 C   0  0  0  0  0  0  0  0  0  0  0  0
    6.2126  -13.3953   25.9407 C   0  0  0  0  0  0  0  0  0  0  0  0
    9.5050  -17.0335   26.1432 C   0  0  0  0  0  0  0  0  0  0  0  0
    9.7986  -17.0273   27.3688 O   0  0  0  0  0  0  0  0  0  0  0  0
    9.8036  -18.1868   25.4358 O   0  0  0  0  0  0  0  0  0  0  0  0
  2  1  1  1
  3  2  1  0
  4  5  2  0
  4  2  1  0
  6  7  1  0
  7  9  1  0
  8  7  2  0
  9 10  1  0
 11 10  1  1
 11 12  1  0
 12  4  1  0
 13 11  1  0
 14 13  2  0
 15 13  1  0
 16 24  1  0
 16 15  1  0
 17 18  1  0
 16 17  1  1
 18 19  2  0
 19 20  1  0
 21 20  2  0
 22 21  1  0
 23 18  1  0
 23 22  2  0
 24 26  1  0
 25 24  2  0
M  END
$$$$
