AQF.pdb
     RDKit          3D

 26 26  0  0  1  0  0  0  0  0999 V2000
    5.9959  -18.4791   19.8952 C   0  0  0  0  0  0  0  0  0  0  0  0
    6.1598  -17.1573   20.6143 C   0  0  2  0  0  0  0  0  0  0  0  0
    6.3383  -16.1119   19.6305 N   0  0  0  0  0  0  0  0  0  0  0  0
    7.3464  -17.2918   21.5098 C   0  0  0  0  0  0  0  0  0  0  0  0
    7.3259  -18.2295   22.3057 O   0  0  0  0  0  0  0  0  0  0  0  0
   13.1209  -18.3398   19.8578 N   0  0  0  0  0  0  0  0  0  0  0  0
   12.4553  -17.0863   19.8759 C   0  0  0  0  0  0  0  0  0  0  0  0
   13.0407  -16.0545   19.5227 O   0  0  0  0  0  0  0  0  0  0  0  0
   11.0236  -17.0942   20.3420 C   0  0  0  0  0  0  0  0  0  0  0  0
   10.9330  -16.3181   21.6319 C   0  0  0  0  0  0  0  0  0  0  0  0
    9.5830  -16.4422   22.2956 C   0  0  2  0  0  0  0  0  0  0  0  0
    8.4412  -16.4050   21.4637 N   0  0  0  0  0  0  0  0  0  0  0  0
    9.4723  -15.8226   23.6178 C   0  0  0  0  0  0  0  0  0  0  0  0
    9.3266  -14.5732   23.7893 O   0  0  0  0  0  0  0  0  0  0  0  0
    9.5186  -16.5752   24.8419 N   0  0  0  0  0  0  0  0  0  0  0  0
    9.2325  -15.9916   26.1393 C   0  0  1  0  0  0  0  0  0  0  0  0
    7.7934  -15.5482   26.1144 C   0  0  0  0  0  0  0  0  0  0  0  0
    7.6114  -14.0884   26.2467 C   0  0  0  0  0  0  0  0  0  0  0  0
    8.6271  -13.2219   26.5874 C   0  0  0  0  0  0  0  0  0  0  0  0
    8.4117  -11.8457   26.7010 C   0  0  0  0  0  0  0  0  0  0  0  0
    7.1673  -11.3284   26.4716 C   0  0  0  0  0  0  0  0  0  0  0  0
    6.1407  -12.1716   26.1312 C   0  0  0  0  0  0  0  0  0  0  0  0
    6.3555  -13.5253   26.0201 C   0  0  0  0  0  0  0  0  0  0  0  0
    9.5593  -16.8845   27.2488 C   0  0  0  0  0  0  0  0  0  0  0  0
    9.4503  -16.5186   28.4498 O   0  0  0  0  0  0  0  0  0  0  0  0
   10.0047  -18.1779   27.0284 O   0  0  0  0  0  0  0  0  0  0  0  0
  2  1  1  6
  3  2  1  0
  4  5  2  0
  4  2  1  0
  6  7  1  0
  7  9  1  0
  8  7  2  0
  9 10  1  0
 11 10  1  6
 11 12  1  0
 12  4  1  0
 13 11  1  0
 14 13  2  0
 15 13  1  0
 16 24  1  0
 16 15  1  0
 17 18  1  0
 16 17  1  6
 18 19  2  0
 19 20  1  0
 21 20  2  0
 22 21  1  0
 23 18  1  0
 23 22  2  0
 24 26  1  0
 25 24  2  0
M  END
$$$$
