AQF.pdb
     RDKit          3D

 26 26  0  0  1  0  0  0  0  0999 V2000
    6.9854  -12.9057   19.3107 C   0  0  0  0  0  0  0  0  0  0  0  0
    8.3390  -13.0359   19.9755 C   0  0  2  0  0  0  0  0  0  0  0  0
    9.3106  -13.4288   18.9785 N   0  0  0  0  0  0  0  0  0  0  0  0
    8.1991  -14.0582   21.0541 C   0  0  0  0  0  0  0  0  0  0  0  0
    7.3260  -13.8485   21.8949 O   0  0  0  0  0  0  0  0  0  0  0  0
    9.6917  -20.2219   21.5090 N   0  0  0  0  0  0  0  0  0  0  0  0
   10.7443  -19.3933   21.0396 C   0  0  0  0  0  0  0  0  0  0  0  0
   11.8204  -19.8842   20.6748 O   0  0  0  0  0  0  0  0  0  0  0  0
   10.4719  -17.9127   21.0154 C   0  0  0  0  0  0  0  0  0  0  0  0
    9.0814  -17.6703   21.5468 C   0  0  0  0  0  0  0  0  0  0  0  0
    8.8875  -16.2632   22.0573 C   0  0  2  0  0  0  0  0  0  0  0  0
    9.0113  -15.2081   21.1253 N   0  0  0  0  0  0  0  0  0  0  0  0
    9.3644  -16.0164   23.4197 C   0  0  0  0  0  0  0  0  0  0  0  0
   10.5199  -15.5590   23.6788 O   0  0  0  0  0  0  0  0  0  0  0  0
    8.5652  -16.2705   24.5875 N   0  0  0  0  0  0  0  0  0  0  0  0
    9.0596  -16.0838   25.9389 C   0  0  1  0  0  0  0  0  0  0  0  0
    7.8959  -15.6149   26.7721 C   0  0  0  0  0  0  0  0  0  0  0  0
    7.5438  -14.1950   26.5685 C   0  0  0  0  0  0  0  0  0  0  0  0
    6.3007  -13.7707   26.1520 C   0  0  0  0  0  0  0  0  0  0  0  0
    6.0089  -12.4157   25.9724 C   0  0  0  0  0  0  0  0  0  0  0  0
    6.9698  -11.4732   26.2113 C   0  0  0  0  0  0  0  0  0  0  0  0
    8.2145  -11.8718   26.6265 C   0  0  0  0  0  0  0  0  0  0  0  0
    8.4988  -13.2057   26.8025 C   0  0  0  0  0  0  0  0  0  0  0  0
    9.7288  -17.2699   26.4683 C   0  0  0  0  0  0  0  0  0  0  0  0
    9.6357  -18.3926   25.9033 O   0  0  0  0  0  0  0  0  0  0  0  0
   10.4985  -17.2125   27.6190 O   0  0  0  0  0  0  0  0  0  0  0  0
  2  1  1  6
  3  2  1  0
  4  5  2  0
  4  2  1  0
  6  7  1  0
  7  9  1  0
  8  7  2  0
  9 10  1  0
 11 10  1  6
 11 12  1  0
 12  4  1  0
 13 11  1  0
 14 13  2  0
 15 13  1  0
 16 24  1  0
 16 15  1  0
 17 18  1  0
 16 17  1  1
 18 19  2  0
 19 20  1  0
 21 20  2  0
 22 21  1  0
 23 18  1  0
 23 22  2  0
 24 26  1  0
 25 24  2  0
M  END
$$$$
