AQF.pdb
     RDKit          3D

 26 26  0  0  1  0  0  0  0  0999 V2000
    8.4981  -14.0647   16.7342 C   0  0  0  0  0  0  0  0  0  0  0  0
    8.8316  -15.4863   16.3354 C   0  0  2  0  0  0  0  0  0  0  0  0
    7.7552  -16.0050   15.5201 N   0  0  0  0  0  0  0  0  0  0  0  0
    9.0033  -16.2648   17.5973 C   0  0  0  0  0  0  0  0  0  0  0  0
    7.9722  -16.6576   18.1409 O   0  0  0  0  0  0  0  0  0  0  0  0
   13.5610  -20.2846   18.4509 N   0  0  0  0  0  0  0  0  0  0  0  0
   12.9070  -19.4701   17.4898 C   0  0  0  0  0  0  0  0  0  0  0  0
   13.4879  -19.1263   16.4523 O   0  0  0  0  0  0  0  0  0  0  0  0
   11.4933  -19.0615   17.8082 C   0  0  0  0  0  0  0  0  0  0  0  0
   11.4626  -18.4767   19.1980 C   0  0  0  0  0  0  0  0  0  0  0  0
   10.5180  -17.3057   19.3191 C   0  0  2  0  0  0  0  0  0  0  0  0
   10.2675  -16.5463   18.1539 N   0  0  0  0  0  0  0  0  0  0  0  0
   10.5680  -16.5856   20.5932 C   0  0  0  0  0  0  0  0  0  0  0  0
   11.4257  -15.6853   20.8489 O   0  0  0  0  0  0  0  0  0  0  0  0
    9.6486  -16.8344   21.6702 N   0  0  0  0  0  0  0  0  0  0  0  0
    9.6880  -16.1084   22.9260 C   0  0  1  0  0  0  0  0  0  0  0  0
    8.3127  -15.5357   23.1464 C   0  0  0  0  0  0  0  0  0  0  0  0
    7.9180  -14.5187   22.1505 C   0  0  0  0  0  0  0  0  0  0  0  0
    8.3908  -13.2244   22.1550 C   0  0  0  0  0  0  0  0  0  0  0  0
    7.9916  -12.2930   21.1925 C   0  0  0  0  0  0  0  0  0  0  0  0
    7.1099  -12.6582   20.2137 C   0  0  0  0  0  0  0  0  0  0  0  0
    6.6258  -13.9411   20.1891 C   0  0  0  0  0  0  0  0  0  0  0  0
    7.0203  -14.8555   21.1375 C   0  0  0  0  0  0  0  0  0  0  0  0
   10.1775  -16.9211   24.0373 C   0  0  0  0  0  0  0  0  0  0  0  0
   10.3141  -18.1699   23.9368 O   0  0  0  0  0  0  0  0  0  0  0  0
   10.5146  -16.3525   25.2550 O   0  0  0  0  0  0  0  0  0  0  0  0
  2  1  1  1
  3  2  1  0
  4  5  2  0
  4  2  1  0
  6  7  1  0
  7  9  1  0
  8  7  2  0
  9 10  1  0
 11 10  1  6
 11 12  1  0
 12  4  1  0
 13 11  1  0
 14 13  2  0
 15 13  1  0
 16 24  1  0
 16 15  1  0
 17 18  1  0
 16 17  1  1
 18 19  2  0
 19 20  1  0
 21 20  2  0
 22 21  1  0
 23 18  1  0
 23 22  2  0
 24 26  1  0
 25 24  2  0
M  END
$$$$
