AQF.pdb
     RDKit          3D

 26 26  0  0  1  0  0  0  0  0999 V2000
    5.6166  -19.0577   23.7053 C   0  0  0  0  0  0  0  0  0  0  0  0
    5.6190  -18.8407   22.2073 C   0  0  2  0  0  0  0  0  0  0  0  0
    5.7956  -20.1186   21.5528 N   0  0  0  0  0  0  0  0  0  0  0  0
    6.7357  -17.8976   21.9046 C   0  0  0  0  0  0  0  0  0  0  0  0
    7.8436  -18.4022   21.7285 O   0  0  0  0  0  0  0  0  0  0  0  0
    9.6863  -12.8583   18.7065 N   0  0  0  0  0  0  0  0  0  0  0  0
    8.4620  -12.7430   19.4154 C   0  0  0  0  0  0  0  0  0  0  0  0
    7.4878  -12.1740   18.9062 O   0  0  0  0  0  0  0  0  0  0  0  0
    8.4272  -13.3444   20.7953 C   0  0  0  0  0  0  0  0  0  0  0  0
    7.2639  -14.3008   20.8744 C   0  0  0  0  0  0  0  0  0  0  0  0
    7.5737  -15.5325   21.6900 C   0  0  2  0  0  0  0  0  0  0  0  0
    6.5541  -16.5023   21.8203 N   0  0  0  0  0  0  0  0  0  0  0  0
    8.4508  -15.3197   22.8433 C   0  0  0  0  0  0  0  0  0  0  0  0
    9.5142  -14.6286   22.7888 O   0  0  0  0  0  0  0  0  0  0  0  0
    8.1853  -15.8754   24.1424 N   0  0  0  0  0  0  0  0  0  0  0  0
    9.0236  -15.6170   25.2984 C   0  0  1  0  0  0  0  0  0  0  0  0
    8.1026  -15.3089   26.4495 C   0  0  0  0  0  0  0  0  0  0  0  0
    7.4493  -13.9872   26.3600 C   0  0  0  0  0  0  0  0  0  0  0  0
    6.1109  -13.8164   26.0803 C   0  0  0  0  0  0  0  0  0  0  0  0
    5.5321  -12.5465   26.0056 C   0  0  0  0  0  0  0  0  0  0  0  0
    6.2988  -11.4338   26.2125 C   0  0  0  0  0  0  0  0  0  0  0  0
    7.6334  -11.5791   26.4923 C   0  0  0  0  0  0  0  0  0  0  0  0
    8.2003  -12.8298   26.5652 C   0  0  0  0  0  0  0  0  0  0  0  0
    9.9691  -16.6979   25.5678 C   0  0  0  0  0  0  0  0  0  0  0  0
    9.9278  -17.7886   24.9378 O   0  0  0  0  0  0  0  0  0  0  0  0
   10.9569  -16.5707   26.5311 O   0  0  0  0  0  0  0  0  0  0  0  0
  2  1  1  1
  3  2  1  0
  4  5  2  0
  4  2  1  0
  6  7  1  0
  7  9  1  0
  8  7  2  0
  9 10  1  0
 11 10  1  1
 11 12  1  0
 12  4  1  0
 13 11  1  0
 14 13  2  0
 15 13  1  0
 16 24  1  0
 16 15  1  0
 17 18  1  0
 16 17  1  1
 18 19  2  0
 19 20  1  0
 21 20  2  0
 22 21  1  0
 23 18  1  0
 23 22  2  0
 24 26  1  0
 25 24  2  0
M  END
$$$$
