VCV.pdb
     RDKit          3D

 21 20  0  0  1  0  0  0  0  0999 V2000
   13.9593  -12.4974  -12.8482 C   0  0  0  0  0  0  0  0  0  0  0  0
   14.4635  -11.3533  -12.0270 C   0  0  2  0  0  0  0  0  0  0  0  0
   13.9167  -10.0745  -12.5683 C   0  0  0  0  0  0  0  0  0  0  0  0
   15.9674  -11.3403  -11.8955 C   0  0  2  0  0  0  0  0  0  0  0  0
   16.3780  -12.6052  -11.3663 N   0  0  0  0  0  0  0  0  0  0  0  0
   16.4545  -10.1904  -11.1113 C   0  0  0  0  0  0  0  0  0  0  0  0
   16.4971  -10.3586   -9.8454 O   0  0  0  0  0  0  0  0  0  0  0  0
   16.8577   -8.9623  -11.6918 N   0  0  0  0  0  0  0  0  0  0  0  0
   17.3476   -7.9176  -10.7916 C   0  0  1  0  0  0  0  0  0  0  0  0
   18.6089   -7.3935  -11.4960 C   0  0  0  0  0  0  0  0  0  0  0  0
   20.0500   -8.2580  -10.8570 S   0  0  0  0  0  0  0  0  0  0  0  0
   16.3915   -6.8090  -10.6943 C   0  0  0  0  0  0  0  0  0  0  0  0
   15.9332   -6.3354  -11.7910 O   0  0  0  0  0  0  0  0  0  0  0  0
   13.1231   -6.5612   -8.4143 C   0  0  0  0  0  0  0  0  0  0  0  0
   13.9556   -5.3249   -8.3310 C   0  0  1  0  0  0  0  0  0  0  0  0
   14.6704   -5.2885   -7.0191 C   0  0  0  0  0  0  0  0  0  0  0  0
   14.8897   -5.1642   -9.5102 C   0  0  2  0  0  0  0  0  0  0  0  0
   15.9080   -6.1951   -9.5305 N   0  0  0  0  0  0  0  0  0  0  0  0
   15.5635   -3.8577   -9.4318 C   0  0  0  0  0  0  0  0  0  0  0  0
   14.9147   -2.7011   -9.8134 O   0  0  0  0  0  0  0  0  0  0  0  0
   16.7349   -3.7808   -9.0173 O   0  0  0  0  0  0  0  0  0  0  0  0
  2  3  1  6
  2  1  1  0
  4  6  1  0
  4  2  1  0
  4  5  1  1
  6  8  1  0
  7  6  2  0
  8  9  1  0
  9 12  1  0
 10 11  1  0
  9 10  1  6
 12 18  1  0
 12 13  2  0
 15 14  1  6
 16 15  1  0
 17 15  1  0
 17 19  1  0
 17 18  1  1
 19 20  1  0
 21 19  2  0
M  END
$$$$
