VCV.pdb
     RDKit          3D

 21 20  0  0  1  0  0  0  0  0999 V2000
   18.9640  -19.7755  -15.7258 C   0  0  0  0  0  0  0  0  0  0  0  0
   19.3141  -18.3496  -15.4396 C   0  0  2  0  0  0  0  0  0  0  0  0
   18.2874  -17.4542  -16.0491 C   0  0  0  0  0  0  0  0  0  0  0  0
   20.7224  -17.9948  -15.8519 C   0  0  2  0  0  0  0  0  0  0  0  0
   21.6145  -18.9295  -15.2361 N   0  0  0  0  0  0  0  0  0  0  0  0
   21.0564  -16.5877  -15.5632 C   0  0  0  0  0  0  0  0  0  0  0  0
   21.1485  -16.2805  -14.3264 O   0  0  0  0  0  0  0  0  0  0  0  0
   21.2681  -15.6120  -16.5686 N   0  0  0  0  0  0  0  0  0  0  0  0
   21.5888  -14.2519  -16.1340 C   0  0  1  0  0  0  0  0  0  0  0  0
   22.6630  -13.7950  -17.1335 C   0  0  0  0  0  0  0  0  0  0  0  0
   23.0909  -12.0800  -16.8046 S   0  0  0  0  0  0  0  0  0  0  0  0
   20.4314  -13.3617  -16.2772 C   0  0  0  0  0  0  0  0  0  0  0  0
   19.7743  -13.4302  -17.3730 O   0  0  0  0  0  0  0  0  0  0  0  0
   16.6454  -10.7801  -14.5318 C   0  0  0  0  0  0  0  0  0  0  0  0
   17.7757  -11.7505  -14.4353 C   0  0  1  0  0  0  0  0  0  0  0  0
   17.2366  -13.1404  -14.3308 C   0  0  0  0  0  0  0  0  0  0  0  0
   18.7808  -11.5961  -15.5555 C   0  0  2  0  0  0  0  0  0  0  0  0
   19.9464  -12.4315  -15.3473 N   0  0  0  0  0  0  0  0  0  0  0  0
   19.2290  -10.1958  -15.6271 C   0  0  0  0  0  0  0  0  0  0  0  0
   18.7292   -9.3392  -16.5866 O   0  0  0  0  0  0  0  0  0  0  0  0
   20.0704   -9.7650  -14.8168 O   0  0  0  0  0  0  0  0  0  0  0  0
  2  3  1  6
  2  1  1  0
  4  6  1  0
  4  2  1  0
  4  5  1  1
  6  8  1  0
  7  6  2  0
  8  9  1  0
  9 12  1  0
 10 11  1  0
  9 10  1  6
 12 18  1  0
 12 13  2  0
 15 14  1  6
 16 15  1  0
 17 15  1  0
 17 19  1  0
 17 18  1  1
 19 20  1  0
 21 19  2  0
M  END
$$$$
