VCV.pdb
     RDKit          3D

 21 20  0  0  1  0  0  0  0  0999 V2000
   23.8883  -13.9715  -15.5360 C   0  0  0  0  0  0  0  0  0  0  0  0
   23.4793  -12.5866  -15.9266 C   0  0  2  0  0  0  0  0  0  0  0  0
   23.6291  -11.6754  -14.7542 C   0  0  0  0  0  0  0  0  0  0  0  0
   22.1018  -12.5308  -16.5419 C   0  0  2  0  0  0  0  0  0  0  0  0
   22.0421  -13.5072  -17.5868 N   0  0  0  0  0  0  0  0  0  0  0  0
   21.7380  -11.1727  -16.9867 C   0  0  0  0  0  0  0  0  0  0  0  0
   22.4363  -10.6956  -17.9444 O   0  0  0  0  0  0  0  0  0  0  0  0
   20.6870  -10.4166  -16.4112 N   0  0  0  0  0  0  0  0  0  0  0  0
   20.4809   -9.0563  -16.9103 C   0  0  1  0  0  0  0  0  0  0  0  0
   19.1140   -9.1290  -17.6087 C   0  0  0  0  0  0  0  0  0  0  0  0
   19.3111   -9.8926  -19.2244 S   0  0  0  0  0  0  0  0  0  0  0  0
   20.3731   -8.0961  -15.8062 C   0  0  0  0  0  0  0  0  0  0  0  0
   19.9473   -8.5414  -14.6848 O   0  0  0  0  0  0  0  0  0  0  0  0
   22.3962   -4.3873  -15.6954 C   0  0  0  0  0  0  0  0  0  0  0  0
   21.9702   -5.1373  -14.4770 C   0  0  1  0  0  0  0  0  0  0  0  0
   21.9578   -4.2169  -13.2996 C   0  0  0  0  0  0  0  0  0  0  0  0
   20.6572   -5.8653  -14.6635 C   0  0  2  0  0  0  0  0  0  0  0  0
   20.6851   -6.7296  -15.8264 N   0  0  0  0  0  0  0  0  0  0  0  0
   19.5722   -4.8875  -14.8469 C   0  0  0  0  0  0  0  0  0  0  0  0
   19.0016   -4.2498  -13.7643 O   0  0  0  0  0  0  0  0  0  0  0  0
   19.1539   -4.6225  -15.9892 O   0  0  0  0  0  0  0  0  0  0  0  0
  2  3  1  1
  2  1  1  0
  4  6  1  0
  4  2  1  0
  4  5  1  6
  6  8  1  0
  7  6  2  0
  8  9  1  0
  9 12  1  0
 10 11  1  0
  9 10  1  1
 12 18  1  0
 12 13  2  0
 15 14  1  6
 16 15  1  0
 17 15  1  0
 17 19  1  0
 17 18  1  6
 19 20  1  0
 21 19  2  0
M  END
$$$$
