VCV.pdb
     RDKit          3D

 21 20  0  0  1  0  0  0  0  0999 V2000
   15.3595  -15.8211  -17.0097 C   0  0  0  0  0  0  0  0  0  0  0  0
   16.1335  -14.6186  -17.4487 C   0  0  2  0  0  0  0  0  0  0  0  0
   16.7417  -14.8808  -18.7861 C   0  0  0  0  0  0  0  0  0  0  0  0
   17.1429  -14.1613  -16.4236 C   0  0  2  0  0  0  0  0  0  0  0  0
   16.5110  -14.1784  -15.1394 N   0  0  0  0  0  0  0  0  0  0  0  0
   17.7420  -12.8578  -16.7652 C   0  0  0  0  0  0  0  0  0  0  0  0
   18.4925  -12.8447  -17.7992 O   0  0  0  0  0  0  0  0  0  0  0  0
   17.5209  -11.6752  -16.0167 N   0  0  0  0  0  0  0  0  0  0  0  0
   18.2228  -10.4639  -16.4433 C   0  0  1  0  0  0  0  0  0  0  0  0
   17.1033   -9.4178  -16.5606 C   0  0  0  0  0  0  0  0  0  0  0  0
   16.0928   -9.4584  -15.0740 S   0  0  0  0  0  0  0  0  0  0  0  0
   19.1633  -10.0051  -15.4150 C   0  0  0  0  0  0  0  0  0  0  0  0
   18.8350  -10.2018  -14.1940 O   0  0  0  0  0  0  0  0  0  0  0  0
   22.6411  -11.0804  -14.4749 C   0  0  0  0  0  0  0  0  0  0  0  0
   22.6571   -9.6025  -14.6848 C   0  0  1  0  0  0  0  0  0  0  0  0
   23.2970   -9.2889  -15.9984 C   0  0  0  0  0  0  0  0  0  0  0  0
   21.2899   -8.9722  -14.5354 C   0  0  2  0  0  0  0  0  0  0  0  0
   20.3979   -9.3692  -15.6063 N   0  0  0  0  0  0  0  0  0  0  0  0
   21.4163   -7.5059  -14.5659 C   0  0  0  0  0  0  0  0  0  0  0  0
   20.9220   -6.7732  -15.6256 O   0  0  0  0  0  0  0  0  0  0  0  0
   21.9747   -6.9056  -13.6290 O   0  0  0  0  0  0  0  0  0  0  0  0
  2  3  1  6
  2  1  1  0
  4  6  1  0
  4  2  1  0
  4  5  1  1
  6  8  1  0
  7  6  2  0
  8  9  1  0
  9 12  1  0
 10 11  1  0
  9 10  1  1
 12 18  1  0
 12 13  2  0
 15 14  1  6
 16 15  1  0
 17 15  1  0
 17 19  1  0
 17 18  1  6
 19 20  1  0
 21 19  2  0
M  END
$$$$
