VCV.pdb
     RDKit          3D

 21 20  0  0  1  0  0  0  0  0999 V2000
   26.0749  -19.1173  -16.2179 C   0  0  0  0  0  0  0  0  0  0  0  0
   27.2135  -18.9152  -15.2689 C   0  0  2  0  0  0  0  0  0  0  0  0
   28.2953  -18.1438  -15.9485 C   0  0  0  0  0  0  0  0  0  0  0  0
   27.7063  -20.2044  -14.6572 C   0  0  2  0  0  0  0  0  0  0  0  0
   28.1634  -21.0522  -15.7160 N   0  0  0  0  0  0  0  0  0  0  0  0
   26.6955  -20.8399  -13.7917 C   0  0  0  0  0  0  0  0  0  0  0  0
   26.0163  -21.7801  -14.3278 O   0  0  0  0  0  0  0  0  0  0  0  0
   26.4656  -20.4575  -12.4469 N   0  0  0  0  0  0  0  0  0  0  0  0
   25.3714  -21.1180  -11.7338 C   0  0  1  0  0  0  0  0  0  0  0  0
   25.5212  -20.6124  -10.2904 C   0  0  0  0  0  0  0  0  0  0  0  0
   24.1425  -21.2114   -9.3040 S   0  0  0  0  0  0  0  0  0  0  0  0
   24.0661  -20.6731  -12.2346 C   0  0  0  0  0  0  0  0  0  0  0  0
   23.8999  -19.4143  -12.3935 O   0  0  0  0  0  0  0  0  0  0  0  0
   20.0978  -21.0858  -15.0118 C   0  0  0  0  0  0  0  0  0  0  0  0
   21.4041  -21.5514  -14.4594 C   0  0  1  0  0  0  0  0  0  0  0  0
   22.4876  -21.3073  -15.4593 C   0  0  0  0  0  0  0  0  0  0  0  0
   21.7151  -20.9566  -13.1036 C   0  0  2  0  0  0  0  0  0  0  0  0
   22.9606  -21.4681  -12.5679 N   0  0  0  0  0  0  0  0  0  0  0  0
   20.6383  -21.2935  -12.1580 C   0  0  0  0  0  0  0  0  0  0  0  0
   19.7367  -20.3363  -11.7396 O   0  0  0  0  0  0  0  0  0  0  0  0
   20.5280  -22.4543  -11.7217 O   0  0  0  0  0  0  0  0  0  0  0  0
  2  3  1  6
  2  1  1  0
  4  6  1  0
  4  2  1  0
  4  5  1  6
  6  8  1  0
  7  6  2  0
  8  9  1  0
  9 12  1  0
 10 11  1  0
  9 10  1  1
 12 18  1  0
 12 13  2  0
 15 14  1  6
 16 15  1  0
 17 15  1  0
 17 19  1  0
 17 18  1  1
 19 20  1  0
 21 19  2  0
M  END
$$$$
