VCV.pdb
     RDKit          3D

 21 20  0  0  1  0  0  0  0  0999 V2000
   17.3342   -9.9340  -17.5118 C   0  0  0  0  0  0  0  0  0  0  0  0
   18.7020  -10.4539  -17.8226 C   0  0  2  0  0  0  0  0  0  0  0  0
   18.5989  -11.5538  -18.8260 C   0  0  0  0  0  0  0  0  0  0  0  0
   19.4741  -10.8546  -16.5888 C   0  0  2  0  0  0  0  0  0  0  0  0
   18.8304  -11.9960  -16.0129 N   0  0  0  0  0  0  0  0  0  0  0  0
   19.6431   -9.7367  -15.6420 C   0  0  0  0  0  0  0  0  0  0  0  0
   19.2153   -9.9431  -14.4559 O   0  0  0  0  0  0  0  0  0  0  0  0
   20.2375   -8.4989  -15.9915 N   0  0  0  0  0  0  0  0  0  0  0  0
   20.4067   -7.5063  -14.9295 C   0  0  1  0  0  0  0  0  0  0  0  0
   21.4193   -8.1620  -13.9776 C   0  0  0  0  0  0  0  0  0  0  0  0
   21.8937   -6.9808  -12.7078 S   0  0  0  0  0  0  0  0  0  0  0  0
   21.0076   -6.2719  -15.4469 C   0  0  0  0  0  0  0  0  0  0  0  0
   22.1311   -6.3778  -16.0500 O   0  0  0  0  0  0  0  0  0  0  0  0
   19.2386   -3.7019  -17.8180 C   0  0  0  0  0  0  0  0  0  0  0  0
   19.9401   -2.9955  -16.7055 C   0  0  1  0  0  0  0  0  0  0  0  0
   18.9384   -2.5106  -15.7081 C   0  0  0  0  0  0  0  0  0  0  0  0
   21.0345   -3.8295  -16.0766 C   0  0  2  0  0  0  0  0  0  0  0  0
   20.4952   -4.9698  -15.3632 N   0  0  0  0  0  0  0  0  0  0  0  0
   21.7925   -3.0079  -15.1188 C   0  0  0  0  0  0  0  0  0  0  0  0
   22.7782   -2.1438  -15.5499 O   0  0  0  0  0  0  0  0  0  0  0  0
   21.5512   -3.0839  -13.8997 O   0  0  0  0  0  0  0  0  0  0  0  0
  2  3  1  6
  2  1  1  0
  4  6  1  0
  4  2  1  0
  4  5  1  1
  6  8  1  0
  7  6  2  0
  8  9  1  0
  9 12  1  0
 10 11  1  0
  9 10  1  1
 12 18  1  0
 12 13  2  0
 15 14  1  6
 16 15  1  0
 17 15  1  0
 17 19  1  0
 17 18  1  1
 19 20  1  0
 21 19  2  0
M  END
$$$$
