VCV.pdb
     RDKit          3D

 21 20  0  0  1  0  0  0  0  0999 V2000
   23.4208  -12.8841  -14.6982 C   0  0  0  0  0  0  0  0  0  0  0  0
   23.6652  -12.9689  -16.1716 C   0  0  2  0  0  0  0  0  0  0  0  0
   24.9517  -13.6828  -16.4212 C   0  0  0  0  0  0  0  0  0  0  0  0
   23.5953  -11.6263  -16.8584 C   0  0  2  0  0  0  0  0  0  0  0  0
   24.7014  -10.8381  -16.4069 N   0  0  0  0  0  0  0  0  0  0  0  0
   22.2899  -10.9658  -16.6729 C   0  0  0  0  0  0  0  0  0  0  0  0
   21.2967  -11.5251  -17.2504 O   0  0  0  0  0  0  0  0  0  0  0  0
   22.1120   -9.7854  -15.9097 N   0  0  0  0  0  0  0  0  0  0  0  0
   20.7577   -9.2390  -15.8151 C   0  0  1  0  0  0  0  0  0  0  0  0
   20.3368   -9.5594  -14.3722 C   0  0  0  0  0  0  0  0  0  0  0  0
   21.6403   -9.0474  -13.2446 S   0  0  0  0  0  0  0  0  0  0  0  0
   20.7614   -7.7802  -15.9707 C   0  0  0  0  0  0  0  0  0  0  0  0
   21.8525   -7.1674  -15.7039 O   0  0  0  0  0  0  0  0  0  0  0  0
   18.1057   -5.6211  -18.4267 C   0  0  0  0  0  0  0  0  0  0  0  0
   19.4563   -5.1421  -18.0087 C   0  0  1  0  0  0  0  0  0  0  0  0
   19.5637   -3.6709  -18.2487 C   0  0  0  0  0  0  0  0  0  0  0  0
   19.8044   -5.5295  -16.5883 C   0  0  2  0  0  0  0  0  0  0  0  0
   19.7018   -6.9605  -16.3837 N   0  0  0  0  0  0  0  0  0  0  0  0
   18.8787   -4.8669  -15.6550 C   0  0  0  0  0  0  0  0  0  0  0  0
   19.1382   -3.5974  -15.1803 O   0  0  0  0  0  0  0  0  0  0  0  0
   17.8436   -5.4485  -15.2804 O   0  0  0  0  0  0  0  0  0  0  0  0
  2  3  1  1
  2  1  1  0
  4  6  1  0
  4  2  1  0
  4  5  1  1
  6  8  1  0
  7  6  2  0
  8  9  1  0
  9 12  1  0
 10 11  1  0
  9 10  1  1
 12 18  1  0
 12 13  2  0
 15 14  1  1
 16 15  1  0
 17 15  1  0
 17 19  1  0
 17 18  1  6
 19 20  1  0
 21 19  2  0
M  END
$$$$
