VCV.pdb
     RDKit          3D

 21 20  0  0  1  0  0  0  0  0999 V2000
   16.1610  -15.1689  -16.4698 C   0  0  0  0  0  0  0  0  0  0  0  0
   17.2965  -14.1964  -16.5220 C   0  0  2  0  0  0  0  0  0  0  0  0
   16.9649  -13.0009  -15.6924 C   0  0  0  0  0  0  0  0  0  0  0  0
   17.7019  -13.8393  -17.9317 C   0  0  2  0  0  0  0  0  0  0  0  0
   18.0457  -15.0491  -18.6150 N   0  0  0  0  0  0  0  0  0  0  0  0
   18.7674  -12.8206  -17.9706 C   0  0  0  0  0  0  0  0  0  0  0  0
   19.9624  -13.2616  -17.8702 O   0  0  0  0  0  0  0  0  0  0  0  0
   18.5179  -11.4327  -18.1093 N   0  0  0  0  0  0  0  0  0  0  0  0
   19.6763  -10.5415  -18.1828 C   0  0  1  0  0  0  0  0  0  0  0  0
   19.2389   -9.4590  -19.1821 C   0  0  0  0  0  0  0  0  0  0  0  0
   20.5009   -8.1810  -19.2651 S   0  0  0  0  0  0  0  0  0  0  0  0
   19.9277   -9.8896  -16.8927 C   0  0  0  0  0  0  0  0  0  0  0  0
   18.9066   -9.5074  -16.2230 O   0  0  0  0  0  0  0  0  0  0  0  0
   22.3548  -11.1273  -13.9922 C   0  0  0  0  0  0  0  0  0  0  0  0
   22.5156   -9.6648  -14.2448 C   0  0  1  0  0  0  0  0  0  0  0  0
   23.8119   -9.4159  -14.9456 C   0  0  0  0  0  0  0  0  0  0  0  0
   21.3337   -9.0597  -14.9699 C   0  0  2  0  0  0  0  0  0  0  0  0
   21.1672   -9.6305  -16.2914 N   0  0  0  0  0  0  0  0  0  0  0  0
   21.5368   -7.6095  -15.1207 C   0  0  0  0  0  0  0  0  0  0  0  0
   21.3733   -6.7552  -14.0494 O   0  0  0  0  0  0  0  0  0  0  0  0
   21.8609   -7.1337  -16.2246 O   0  0  0  0  0  0  0  0  0  0  0  0
  2  3  1  1
  2  1  1  0
  4  6  1  0
  4  2  1  0
  4  5  1  1
  6  8  1  0
  7  6  2  0
  8  9  1  0
  9 12  1  0
 10 11  1  0
  9 10  1  6
 12 18  1  0
 12 13  2  0
 15 14  1  6
 16 15  1  0
 17 15  1  0
 17 19  1  0
 17 18  1  6
 19 20  1  0
 21 19  2  0
M  END
$$$$
