THV.pdb
     RDKit          3D

 25 25  0  0  1  0  0  0  0  0999 V2000
   25.6833  -35.6167   -9.2656 C   0  0  0  0  0  0  0  0  0  0  0  0
   26.0765  -34.2631   -9.8218 C   0  0  1  0  0  0  0  0  0  0  0  0
   25.7807  -34.2411  -11.1873 O   0  0  0  0  0  0  0  0  0  0  0  0
   25.1940  -33.2438   -9.1382 C   0  0  2  0  0  0  0  0  0  0  0  0
   25.4165  -31.9760   -9.7690 N   0  0  0  0  0  0  0  0  0  0  0  0
   25.3535  -33.2245   -7.6814 C   0  0  0  0  0  0  0  0  0  0  0  0
   26.4441  -32.8247   -7.1967 O   0  0  0  0  0  0  0  0  0  0  0  0
   24.3581  -33.6284   -6.7489 N   0  0  0  0  0  0  0  0  0  0  0  0
   24.5640  -33.5225   -5.3183 C   0  0  1  0  0  0  0  0  0  0  0  0
   23.2755  -33.7521   -4.5507 C   0  0  0  0  0  0  0  0  0  0  0  0
   23.5379  -33.6124   -3.0948 C   0  0  0  0  0  0  0  0  0  0  0  0
   24.6353  -33.0672   -2.4961 C   0  0  0  0  0  0  0  0  0  0  0  0
   24.4521  -33.1479   -1.1508 N   0  0  0  0  0  0  0  0  0  0  0  0
   23.2693  -33.7294   -0.9294 C   0  0  0  0  0  0  0  0  0  0  0  0
   22.7001  -34.0185   -2.1240 N   0  0  0  0  0  0  0  0  0  0  0  0
   25.6071  -34.5115   -4.9265 C   0  0  0  0  0  0  0  0  0  0  0  0
   25.5873  -35.6856   -5.3728 O   0  0  0  0  0  0  0  0  0  0  0  0
   29.4157  -33.4866   -4.3849 C   0  0  0  0  0  0  0  0  0  0  0  0
   28.9535  -34.9039   -4.5459 C   0  0  1  0  0  0  0  0  0  0  0  0
   30.0393  -35.8882   -4.2547 C   0  0  0  0  0  0  0  0  0  0  0  0
   27.6772  -35.1767   -3.7739 C   0  0  2  0  0  0  0  0  0  0  0  0
   26.6634  -34.1817   -4.0400 N   0  0  0  0  0  0  0  0  0  0  0  0
   27.9188  -35.2071   -2.3206 C   0  0  0  0  0  0  0  0  0  0  0  0
   27.7361  -34.0640   -1.5566 O   0  0  0  0  0  0  0  0  0  0  0  0
   28.2964  -36.2596   -1.7219 O   0  0  0  0  0  0  0  0  0  0  0  0
  2  1  1  1
  2  3  1  0
  4  2  1  0
  4  5  1  6
  6  7  2  0
  6  4  1  0
  8  6  1  0
  9 16  1  0
  9  8  1  0
  9 10  1  1
 11 12  2  0
 11 10  1  0
 13 12  1  0
 14 15  2  0
 14 13  1  0
 15 11  1  0
 16 22  1  0
 17 16  2  0
 19 18  1  1
 19 20  1  0
 21 19  1  0
 21 23  1  0
 21 22  1  1
 23 25  2  0
 23 24  1  0
M  END
$$$$
