THV.pdb
     RDKit          3D

 25 25  0  0  1  0  0  0  0  0999 V2000
   25.2979  -21.8054  -16.4987 C   0  0  0  0  0  0  0  0  0  0  0  0
   26.4589  -20.8317  -16.4808 C   0  0  1  0  0  0  0  0  0  0  0  0
   27.5262  -21.4003  -17.1808 O   0  0  0  0  0  0  0  0  0  0  0  0
   26.0047  -19.6060  -17.2402 C   0  0  2  0  0  0  0  0  0  0  0  0
   27.1402  -18.7477  -17.4093 N   0  0  0  0  0  0  0  0  0  0  0  0
   24.8416  -18.9493  -16.6366 C   0  0  0  0  0  0  0  0  0  0  0  0
   25.0047  -18.2724  -15.5882 O   0  0  0  0  0  0  0  0  0  0  0  0
   23.5154  -19.0140  -17.1470 N   0  0  0  0  0  0  0  0  0  0  0  0
   22.4279  -18.2699  -16.5438 C   0  0  1  0  0  0  0  0  0  0  0  0
   21.4602  -17.7494  -17.5902 C   0  0  0  0  0  0  0  0  0  0  0  0
   20.3624  -17.0060  -16.9193 C   0  0  0  0  0  0  0  0  0  0  0  0
   19.1711  -17.5016  -16.4774 C   0  0  0  0  0  0  0  0  0  0  0  0
   18.4750  -16.4699  -15.9288 N   0  0  0  0  0  0  0  0  0  0  0  0
   19.2223  -15.3667  -16.0319 C   0  0  0  0  0  0  0  0  0  0  0  0
   20.3876  -15.6901  -16.6418 N   0  0  0  0  0  0  0  0  0  0  0  0
   21.7390  -19.1639  -15.5713 C   0  0  0  0  0  0  0  0  0  0  0  0
   21.5857  -20.3873  -15.8117 O   0  0  0  0  0  0  0  0  0  0  0  0
   20.5640  -17.8657  -11.6356 C   0  0  0  0  0  0  0  0  0  0  0  0
   21.0271  -19.2544  -11.9602 C   0  0  1  0  0  0  0  0  0  0  0  0
   20.5536  -20.2562  -10.9579 C   0  0  0  0  0  0  0  0  0  0  0  0
   20.7040  -19.6415  -13.3903 C   0  0  2  0  0  0  0  0  0  0  0  0
   21.2271  -18.6849  -14.3388 N   0  0  0  0  0  0  0  0  0  0  0  0
   19.2507  -19.7529  -13.6063 C   0  0  0  0  0  0  0  0  0  0  0  0
   18.5567  -20.8602  -13.1414 O   0  0  0  0  0  0  0  0  0  0  0  0
   18.5889  -18.8579  -14.2145 O   0  0  0  0  0  0  0  0  0  0  0  0
  2  1  1  6
  2  3  1  0
  4  2  1  0
  4  5  1  1
  6  7  2  0
  6  4  1  0
  8  6  1  0
  9 16  1  0
  9  8  1  0
  9 10  1  6
 11 12  2  0
 11 10  1  0
 13 12  1  0
 14 15  2  0
 14 13  1  0
 15 11  1  0
 16 22  1  0
 17 16  2  0
 19 18  1  1
 19 20  1  0
 21 19  1  0
 21 23  1  0
 21 22  1  6
 23 25  2  0
 23 24  1  0
M  END
$$$$
