THV.pdb
     RDKit          3D

 25 25  0  0  1  0  0  0  0  0999 V2000
   25.1389  -10.4785  -15.5760 C   0  0  0  0  0  0  0  0  0  0  0  0
   24.8175  -11.3512  -16.7723 C   0  0  1  0  0  0  0  0  0  0  0  0
   25.6713  -12.4573  -16.7573 O   0  0  0  0  0  0  0  0  0  0  0  0
   23.4048  -11.8513  -16.5735 C   0  0  2  0  0  0  0  0  0  0  0  0
   23.1199  -12.7910  -17.6177 N   0  0  0  0  0  0  0  0  0  0  0  0
   22.4204  -10.7720  -16.4534 C   0  0  0  0  0  0  0  0  0  0  0  0
   22.0030  -10.2138  -17.5014 O   0  0  0  0  0  0  0  0  0  0  0  0
   21.8856  -10.2919  -15.2259 N   0  0  0  0  0  0  0  0  0  0  0  0
   20.9683   -9.1710  -15.1791 C   0  0  1  0  0  0  0  0  0  0  0  0
   19.7844   -9.4563  -14.2740 C   0  0  0  0  0  0  0  0  0  0  0  0
   18.7895  -10.2795  -15.0092 C   0  0  0  0  0  0  0  0  0  0  0  0
   18.8663  -10.7241  -16.2963 C   0  0  0  0  0  0  0  0  0  0  0  0
   17.7379  -11.4391  -16.5520 N   0  0  0  0  0  0  0  0  0  0  0  0
   16.9862  -11.4332  -15.4470 C   0  0  0  0  0  0  0  0  0  0  0  0
   17.6287  -10.7198  -14.4917 N   0  0  0  0  0  0  0  0  0  0  0  0
   21.7240   -7.9738  -14.7150 C   0  0  0  0  0  0  0  0  0  0  0  0
   22.4962   -8.0379  -13.7263 O   0  0  0  0  0  0  0  0  0  0  0  0
   23.8636   -5.5016  -16.9352 C   0  0  0  0  0  0  0  0  0  0  0  0
   22.9295   -4.7569  -16.0290 C   0  0  1  0  0  0  0  0  0  0  0  0
   21.8265   -4.0873  -16.7822 C   0  0  0  0  0  0  0  0  0  0  0  0
   22.4333   -5.6237  -14.8880 C   0  0  2  0  0  0  0  0  0  0  0  0
   21.6114   -6.7153  -15.3584 N   0  0  0  0  0  0  0  0  0  0  0  0
   21.6462   -4.8431  -13.9172 C   0  0  0  0  0  0  0  0  0  0  0  0
   22.2742   -3.9423  -13.0698 O   0  0  0  0  0  0  0  0  0  0  0  0
   20.3871   -4.9615  -13.8195 O   0  0  0  0  0  0  0  0  0  0  0  0
  2  1  1  1
  2  3  1  0
  4  2  1  0
  4  5  1  6
  6  7  2  0
  6  4  1  0
  8  6  1  0
  9 16  1  0
  9  8  1  0
  9 10  1  1
 11 12  2  0
 11 10  1  0
 13 12  1  0
 14 15  2  0
 14 13  1  0
 15 11  1  0
 16 22  1  0
 17 16  2  0
 19 18  1  6
 19 20  1  0
 21 19  1  0
 21 23  1  0
 21 22  1  6
 23 25  2  0
 23 24  1  0
M  END
$$$$
