THV.pdb
     RDKit          3D

 25 25  0  0  1  0  0  0  0  0999 V2000
   43.0928   -6.9552   -5.5176 C   0  0  0  0  0  0  0  0  0  0  0  0
   43.8605   -8.1691   -6.0006 C   0  0  1  0  0  0  0  0  0  0  0  0
   44.8433   -8.4776   -5.0565 O   0  0  0  0  0  0  0  0  0  0  0  0
   42.8751   -9.3150   -6.0379 C   0  0  2  0  0  0  0  0  0  0  0  0
   43.6100  -10.5186   -6.2947 N   0  0  0  0  0  0  0  0  0  0  0  0
   41.7573   -9.0873   -6.9581 C   0  0  0  0  0  0  0  0  0  0  0  0
   41.9363   -9.2830   -8.1885 O   0  0  0  0  0  0  0  0  0  0  0  0
   40.4592   -8.6546   -6.5695 N   0  0  0  0  0  0  0  0  0  0  0  0
   39.4133   -8.4086   -7.5419 C   0  0  1  0  0  0  0  0  0  0  0  0
   38.0561   -8.8478   -7.0247 C   0  0  0  0  0  0  0  0  0  0  0  0
   37.8925  -10.3076   -7.2490 C   0  0  0  0  0  0  0  0  0  0  0  0
   38.7485  -11.1511   -7.8938 C   0  0  0  0  0  0  0  0  0  0  0  0
   38.2001  -12.3954   -7.8633 N   0  0  0  0  0  0  0  0  0  0  0  0
   37.0342  -12.3168   -7.2146 C   0  0  0  0  0  0  0  0  0  0  0  0
   36.8383  -11.0321   -6.8330 N   0  0  0  0  0  0  0  0  0  0  0  0
   39.4192   -6.9554   -7.8702 C   0  0  0  0  0  0  0  0  0  0  0  0
   39.3990   -6.0860   -6.9637 O   0  0  0  0  0  0  0  0  0  0  0  0
   42.0566   -5.1851   -9.8854 C   0  0  0  0  0  0  0  0  0  0  0  0
   40.7178   -4.7682  -10.4168 C   0  0  1  0  0  0  0  0  0  0  0  0
   40.4605   -5.3090  -11.7857 C   0  0  0  0  0  0  0  0  0  0  0  0
   39.5996   -5.0661   -9.4368 C   0  0  2  0  0  0  0  0  0  0  0  0
   39.4478   -6.4848   -9.2075 N   0  0  0  0  0  0  0  0  0  0  0  0
   38.3083   -4.5381   -9.9113 C   0  0  0  0  0  0  0  0  0  0  0  0
   38.0313   -3.1820   -9.8222 O   0  0  0  0  0  0  0  0  0  0  0  0
   37.4157   -5.2883  -10.4106 O   0  0  0  0  0  0  0  0  0  0  0  0
  2  1  1  1
  2  3  1  0
  4  2  1  0
  4  5  1  6
  6  7  2  0
  6  4  1  0
  8  6  1  0
  9 16  1  0
  9  8  1  0
  9 10  1  1
 11 12  2  0
 11 10  1  0
 13 12  1  0
 14 15  2  0
 14 13  1  0
 15 11  1  0
 16 22  1  0
 17 16  2  0
 19 18  1  1
 19 20  1  0
 21 19  1  0
 21 23  1  0
 21 22  1  6
 23 25  2  0
 23 24  1  0
M  END
$$$$
