THV.pdb
     RDKit          3D

 25 25  0  0  1  0  0  0  0  0999 V2000
   22.6952  -10.8958  -14.3592 C   0  0  0  0  0  0  0  0  0  0  0  0
   22.6095  -11.8238  -15.5540 C   0  0  1  0  0  0  0  0  0  0  0  0
   23.1999  -13.0433  -15.2125 O   0  0  0  0  0  0  0  0  0  0  0  0
   21.1390  -12.0721  -15.8018 C   0  0  2  0  0  0  0  0  0  0  0  0
   21.0278  -13.0963  -16.7985 N   0  0  0  0  0  0  0  0  0  0  0  0
   20.3900  -10.8508  -16.1111 C   0  0  0  0  0  0  0  0  0  0  0  0
   20.6827  -10.2084  -17.1531 O   0  0  0  0  0  0  0  0  0  0  0  0
   19.3374  -10.3189  -15.3158 N   0  0  0  0  0  0  0  0  0  0  0  0
   18.6904   -9.0647  -15.6451 C   0  0  1  0  0  0  0  0  0  0  0  0
   17.1935   -9.1292  -15.4051 C   0  0  0  0  0  0  0  0  0  0  0  0
   16.5746   -7.8388  -15.8049 C   0  0  0  0  0  0  0  0  0  0  0  0
   16.4457   -7.3333  -17.0650 C   0  0  0  0  0  0  0  0  0  0  0  0
   15.8196   -6.1302  -16.9630 N   0  0  0  0  0  0  0  0  0  0  0  0
   15.5701   -5.9030  -15.6698 C   0  0  0  0  0  0  0  0  0  0  0  0
   16.0331   -6.9527  -14.9500 N   0  0  0  0  0  0  0  0  0  0  0  0
   19.3205   -7.9904  -14.8275 C   0  0  0  0  0  0  0  0  0  0  0  0
   19.5200   -8.1451  -13.5970 O   0  0  0  0  0  0  0  0  0  0  0  0
   22.6238   -6.7086  -14.6297 C   0  0  0  0  0  0  0  0  0  0  0  0
   21.7672   -5.5009  -14.8664 C   0  0  1  0  0  0  0  0  0  0  0  0
   21.9566   -4.9341  -16.2358 C   0  0  0  0  0  0  0  0  0  0  0  0
   20.3131   -5.7593  -14.5226 C   0  0  2  0  0  0  0  0  0  0  0  0
   19.7225   -6.7526  -15.3903 N   0  0  0  0  0  0  0  0  0  0  0  0
   19.5069   -4.5297  -14.6186 C   0  0  0  0  0  0  0  0  0  0  0  0
   19.6336   -3.5330  -13.6622 O   0  0  0  0  0  0  0  0  0  0  0  0
   18.6806   -4.3372  -15.5615 O   0  0  0  0  0  0  0  0  0  0  0  0
  2  1  1  1
  2  3  1  0
  4  2  1  0
  4  5  1  6
  6  7  2  0
  6  4  1  0
  8  6  1  0
  9 16  1  0
  9  8  1  0
  9 10  1  1
 11 12  2  0
 11 10  1  0
 13 12  1  0
 14 15  2  0
 14 13  1  0
 15 11  1  0
 16 22  1  0
 17 16  2  0
 19 18  1  6
 19 20  1  0
 21 19  1  0
 21 23  1  0
 21 22  1  6
 23 25  2  0
 23 24  1  0
M  END
$$$$
