THV.pdb
     RDKit          3D

 25 25  0  0  1  0  0  0  0  0999 V2000
   26.4517  -16.8527  -15.3024 C   0  0  0  0  0  0  0  0  0  0  0  0
   25.0148  -16.4971  -15.6263 C   0  0  1  0  0  0  0  0  0  0  0  0
   24.9258  -16.2061  -16.9901 O   0  0  0  0  0  0  0  0  0  0  0  0
   24.1936  -17.7383  -15.3609 C   0  0  2  0  0  0  0  0  0  0  0  0
   24.6713  -18.7751  -16.2278 N   0  0  0  0  0  0  0  0  0  0  0  0
   22.7490  -17.5053  -15.4446 C   0  0  0  0  0  0  0  0  0  0  0  0
   22.1090  -18.0086  -16.4043 O   0  0  0  0  0  0  0  0  0  0  0  0
   21.9931  -16.7419  -14.5123 N   0  0  0  0  0  0  0  0  0  0  0  0
   20.5628  -16.5588  -14.6568 C   0  0  1  0  0  0  0  0  0  0  0  0
   19.8243  -16.9019  -13.3764 C   0  0  0  0  0  0  0  0  0  0  0  0
   19.6111  -18.3709  -13.3093 C   0  0  0  0  0  0  0  0  0  0  0  0
   19.9992  -19.3101  -14.2189 C   0  0  0  0  0  0  0  0  0  0  0  0
   19.5976  -20.5234  -13.7536 N   0  0  0  0  0  0  0  0  0  0  0  0
   18.9774  -20.3327  -12.5852 C   0  0  0  0  0  0  0  0  0  0  0  0
   18.9822  -19.0076  -12.3052 N   0  0  0  0  0  0  0  0  0  0  0  0
   20.3154  -15.1456  -15.0584 C   0  0  0  0  0  0  0  0  0  0  0  0
   20.8054  -14.1910  -14.4053 O   0  0  0  0  0  0  0  0  0  0  0  0
   21.1362  -13.6160  -18.4637 C   0  0  0  0  0  0  0  0  0  0  0  0
   19.7217  -13.2816  -18.0951 C   0  0  1  0  0  0  0  0  0  0  0  0
   18.7301  -14.0204  -18.9337 C   0  0  0  0  0  0  0  0  0  0  0  0
   19.4725  -13.4285  -16.6066 C   0  0  2  0  0  0  0  0  0  0  0  0
   19.5232  -14.8100  -16.1855 N   0  0  0  0  0  0  0  0  0  0  0  0
   18.1607  -12.8797  -16.2201 C   0  0  0  0  0  0  0  0  0  0  0  0
   17.9807  -11.5090  -16.1083 O   0  0  0  0  0  0  0  0  0  0  0  0
   17.1629  -13.6247  -15.9788 O   0  0  0  0  0  0  0  0  0  0  0  0
  2  1  1  6
  2  3  1  0
  4  2  1  0
  4  5  1  6
  6  7  2  0
  6  4  1  0
  8  6  1  0
  9 16  1  0
  9  8  1  0
  9 10  1  1
 11 12  2  0
 11 10  1  0
 13 12  1  0
 14 15  2  0
 14 13  1  0
 15 11  1  0
 16 22  1  0
 17 16  2  0
 19 18  1  1
 19 20  1  0
 21 19  1  0
 21 23  1  0
 21 22  1  6
 23 25  2  0
 23 24  1  0
M  END
$$$$
