THV.pdb
     RDKit          3D

 25 25  0  0  1  0  0  0  0  0999 V2000
   19.7268  -15.3689  -19.2729 C   0  0  0  0  0  0  0  0  0  0  0  0
   18.6270  -15.3993  -18.2310 C   0  0  1  0  0  0  0  0  0  0  0  0
   18.4270  -16.7244  -17.8349 O   0  0  0  0  0  0  0  0  0  0  0  0
   19.1437  -14.6298  -17.0368 C   0  0  2  0  0  0  0  0  0  0  0  0
   18.5116  -15.1602  -15.8648 N   0  0  0  0  0  0  0  0  0  0  0  0
   19.0123  -13.1774  -17.1834 C   0  0  0  0  0  0  0  0  0  0  0  0
   19.6471  -12.6018  -18.1053 O   0  0  0  0  0  0  0  0  0  0  0  0
   18.2105  -12.3455  -16.3536 N   0  0  0  0  0  0  0  0  0  0  0  0
   18.1281  -10.9134  -16.5599 C   0  0  1  0  0  0  0  0  0  0  0  0
   16.6910  -10.4275  -16.5312 C   0  0  0  0  0  0  0  0  0  0  0  0
   15.9890  -10.8933  -17.7552 C   0  0  0  0  0  0  0  0  0  0  0  0
   14.8785  -11.6817  -17.8279 C   0  0  0  0  0  0  0  0  0  0  0  0
   14.5834  -11.8554  -19.1442 N   0  0  0  0  0  0  0  0  0  0  0  0
   15.4922  -11.1887  -19.8624 C   0  0  0  0  0  0  0  0  0  0  0  0
   16.3620  -10.5931  -19.0121 N   0  0  0  0  0  0  0  0  0  0  0  0
   18.9427  -10.2464  -15.5057 C   0  0  0  0  0  0  0  0  0  0  0  0
   18.7408  -10.4774  -14.2876 O   0  0  0  0  0  0  0  0  0  0  0  0
   23.1327   -8.5316  -13.8978 C   0  0  0  0  0  0  0  0  0  0  0  0
   22.2631   -9.1548  -14.9484 C   0  0  1  0  0  0  0  0  0  0  0  0
   22.5169  -10.6199  -15.0950 C   0  0  0  0  0  0  0  0  0  0  0  0
   20.7982   -8.8197  -14.7459 C   0  0  2  0  0  0  0  0  0  0  0  0
   19.9757   -9.3274  -15.8201 N   0  0  0  0  0  0  0  0  0  0  0  0
   20.5831   -7.3649  -14.6527 C   0  0  0  0  0  0  0  0  0  0  0  0
   20.7252   -6.7127  -13.4368 O   0  0  0  0  0  0  0  0  0  0  0  0
   20.2653   -6.6644  -15.6612 O   0  0  0  0  0  0  0  0  0  0  0  0
  2  1  1  6
  2  3  1  0
  4  2  1  0
  4  5  1  1
  6  7  2  0
  6  4  1  0
  8  6  1  0
  9 16  1  0
  9  8  1  0
  9 10  1  1
 11 12  2  0
 11 10  1  0
 13 12  1  0
 14 15  2  0
 14 13  1  0
 15 11  1  0
 16 22  1  0
 17 16  2  0
 19 18  1  1
 19 20  1  0
 21 19  1  0
 21 23  1  0
 21 22  1  6
 23 25  2  0
 23 24  1  0
M  END
$$$$
