THV.pdb
     RDKit          3D

 25 25  0  0  1  0  0  0  0  0999 V2000
   19.8591  -15.2653  -15.0779 C   0  0  0  0  0  0  0  0  0  0  0  0
   20.2557  -16.1954  -16.2065 C   0  0  1  0  0  0  0  0  0  0  0  0
   19.5208  -17.3778  -16.0866 O   0  0  0  0  0  0  0  0  0  0  0  0
   19.8383  -15.5164  -17.4910 C   0  0  2  0  0  0  0  0  0  0  0  0
   20.1402  -16.4036  -18.5756 N   0  0  0  0  0  0  0  0  0  0  0  0
   20.3995  -14.1710  -17.6433 C   0  0  0  0  0  0  0  0  0  0  0  0
   21.6063  -14.0528  -17.9806 O   0  0  0  0  0  0  0  0  0  0  0  0
   19.6797  -12.9615  -17.4374 N   0  0  0  0  0  0  0  0  0  0  0  0
   20.2757  -11.6653  -17.6922 C   0  0  1  0  0  0  0  0  0  0  0  0
   19.3069  -10.7348  -18.3978 C   0  0  0  0  0  0  0  0  0  0  0  0
   18.0617  -10.6195  -17.5952 C   0  0  0  0  0  0  0  0  0  0  0  0
   17.2463  -11.6290  -17.1754 C   0  0  0  0  0  0  0  0  0  0  0  0
   16.2262  -11.0677  -16.4723 N   0  0  0  0  0  0  0  0  0  0  0  0
   16.4117   -9.7442  -16.4612 C   0  0  0  0  0  0  0  0  0  0  0  0
   17.5418   -9.4609  -17.1518 N   0  0  0  0  0  0  0  0  0  0  0  0
   20.7168  -11.0947  -16.3886 C   0  0  0  0  0  0  0  0  0  0  0  0
   20.1526  -11.4200  -15.3145 O   0  0  0  0  0  0  0  0  0  0  0  0
   23.9594  -11.4184  -14.6476 C   0  0  0  0  0  0  0  0  0  0  0  0
   23.6472   -9.9532  -14.7120 C   0  0  1  0  0  0  0  0  0  0  0  0
   24.5564   -9.2229  -15.6460 C   0  0  0  0  0  0  0  0  0  0  0  0
   22.1780   -9.6968  -14.9860 C   0  0  2  0  0  0  0  0  0  0  0  0
   21.7841  -10.1657  -16.2950 N   0  0  0  0  0  0  0  0  0  0  0  0
   21.8523   -8.2625  -14.8963 C   0  0  0  0  0  0  0  0  0  0  0  0
   21.7772   -7.6377  -13.6602 O   0  0  0  0  0  0  0  0  0  0  0  0
   21.6318   -7.5555  -15.9260 O   0  0  0  0  0  0  0  0  0  0  0  0
  2  1  1  1
  2  3  1  0
  4  2  1  0
  4  5  1  6
  6  7  2  0
  6  4  1  0
  8  6  1  0
  9 16  1  0
  9  8  1  0
  9 10  1  1
 11 12  2  0
 11 10  1  0
 13 12  1  0
 14 15  2  0
 14 13  1  0
 15 11  1  0
 16 22  1  0
 17 16  2  0
 19 18  1  6
 19 20  1  0
 21 19  1  0
 21 23  1  0
 21 22  1  6
 23 25  2  0
 23 24  1  0
M  END
$$$$
