THV.pdb
     RDKit          3D

 25 25  0  0  1  0  0  0  0  0999 V2000
   17.2914   -6.2329  -18.0346 C   0  0  0  0  0  0  0  0  0  0  0  0
   16.2898   -7.2472  -17.5206 C   0  0  1  0  0  0  0  0  0  0  0  0
   15.2048   -7.2851  -18.4004 O   0  0  0  0  0  0  0  0  0  0  0  0
   16.9761   -8.5933  -17.5702 C   0  0  2  0  0  0  0  0  0  0  0  0
   15.9982   -9.5968  -17.2678 N   0  0  0  0  0  0  0  0  0  0  0  0
   18.1804   -8.6598  -16.7375 C   0  0  0  0  0  0  0  0  0  0  0  0
   18.0543   -8.6195  -15.4858 O   0  0  0  0  0  0  0  0  0  0  0  0
   19.5084   -8.7685  -17.2354 N   0  0  0  0  0  0  0  0  0  0  0  0
   20.6571   -8.7756  -16.3518 C   0  0  1  0  0  0  0  0  0  0  0  0
   21.7812   -9.6315  -16.9051 C   0  0  0  0  0  0  0  0  0  0  0  0
   21.4075  -11.0656  -16.7964 C   0  0  0  0  0  0  0  0  0  0  0  0
   20.2901  -11.5925  -16.2186 C   0  0  0  0  0  0  0  0  0  0  0  0
   20.3595  -12.9446  -16.3476 N   0  0  0  0  0  0  0  0  0  0  0  0
   21.4936  -13.2404  -16.9899 C   0  0  0  0  0  0  0  0  0  0  0  0
   22.1448  -12.0863  -17.2696 N   0  0  0  0  0  0  0  0  0  0  0  0
   21.0998   -7.3665  -16.1571 C   0  0  0  0  0  0  0  0  0  0  0  0
   21.5266   -6.6822  -17.1202 O   0  0  0  0  0  0  0  0  0  0  0  0
   19.1766   -4.8256  -13.9260 C   0  0  0  0  0  0  0  0  0  0  0  0
   20.2706   -4.4104  -14.8635 C   0  0  1  0  0  0  0  0  0  0  0  0
   20.6425   -2.9730  -14.6958 C   0  0  0  0  0  0  0  0  0  0  0  0
   21.4613   -5.3471  -14.7979 C   0  0  2  0  0  0  0  0  0  0  0  0
   21.0623   -6.7330  -14.8890 N   0  0  0  0  0  0  0  0  0  0  0  0
   22.2214   -5.1706  -13.5478 C   0  0  0  0  0  0  0  0  0  0  0  0
   23.1013   -4.1076  -13.4078 O   0  0  0  0  0  0  0  0  0  0  0  0
   22.1035   -5.9684  -12.5688 O   0  0  0  0  0  0  0  0  0  0  0  0
  2  1  1  6
  2  3  1  0
  4  2  1  0
  4  5  1  1
  6  7  2  0
  6  4  1  0
  8  6  1  0
  9 16  1  0
  9  8  1  0
  9 10  1  6
 11 12  2  0
 11 10  1  0
 13 12  1  0
 14 15  2  0
 14 13  1  0
 15 11  1  0
 16 22  1  0
 17 16  2  0
 19 18  1  1
 19 20  1  0
 21 19  1  0
 21 23  1  0
 21 22  1  1
 23 25  2  0
 23 24  1  0
M  END
$$$$
