THV.pdb
     RDKit          3D

 25 25  0  0  1  0  0  0  0  0999 V2000
   28.4288  -20.3675  -13.6454 C   0  0  0  0  0  0  0  0  0  0  0  0
   28.0596  -19.4354  -14.7817 C   0  0  1  0  0  0  0  0  0  0  0  0
   28.8441  -19.7568  -15.8925 O   0  0  0  0  0  0  0  0  0  0  0  0
   26.6182  -19.7298  -15.1292 C   0  0  2  0  0  0  0  0  0  0  0  0
   26.2603  -18.9116  -16.2505 N   0  0  0  0  0  0  0  0  0  0  0  0
   25.7106  -19.6086  -13.9848 C   0  0  0  0  0  0  0  0  0  0  0  0
   25.2657  -18.4707  -13.6825 O   0  0  0  0  0  0  0  0  0  0  0  0
   25.2808  -20.6920  -13.1693 N   0  0  0  0  0  0  0  0  0  0  0  0
   24.3573  -20.5002  -12.0691 C   0  0  1  0  0  0  0  0  0  0  0  0
   23.0818  -21.2981  -12.2658 C   0  0  0  0  0  0  0  0  0  0  0  0
   22.2452  -20.6415  -13.3036 C   0  0  0  0  0  0  0  0  0  0  0  0
   21.2774  -19.6987  -13.1177 C   0  0  0  0  0  0  0  0  0  0  0  0
   20.7728  -19.3813  -14.3402 N   0  0  0  0  0  0  0  0  0  0  0  0
   21.4164  -20.1128  -15.2550 C   0  0  0  0  0  0  0  0  0  0  0  0
   22.3259  -20.8921  -14.6226 N   0  0  0  0  0  0  0  0  0  0  0  0
   25.0495  -20.8941  -10.8100 C   0  0  0  0  0  0  0  0  0  0  0  0
   25.7011  -21.9655  -10.7365 O   0  0  0  0  0  0  0  0  0  0  0  0
   26.8789  -19.8033   -6.3701 C   0  0  0  0  0  0  0  0  0  0  0  0
   26.2125  -19.3535   -7.6357 C   0  0  1  0  0  0  0  0  0  0  0  0
   27.0483  -18.3770   -8.3975 C   0  0  0  0  0  0  0  0  0  0  0  0
   25.7440  -20.5240   -8.4783 C   0  0  2  0  0  0  0  0  0  0  0  0
   25.0085  -20.0888   -9.6436 N   0  0  0  0  0  0  0  0  0  0  0  0
   24.8817  -21.4363   -7.7067 C   0  0  0  0  0  0  0  0  0  0  0  0
   25.4343  -22.2971   -6.7700 O   0  0  0  0  0  0  0  0  0  0  0  0
   23.6237  -21.4701   -7.8652 O   0  0  0  0  0  0  0  0  0  0  0  0
  2  1  1  1
  2  3  1  0
  4  2  1  0
  4  5  1  6
  6  7  2  0
  6  4  1  0
  8  6  1  0
  9 16  1  0
  9  8  1  0
  9 10  1  6
 11 12  2  0
 11 10  1  0
 13 12  1  0
 14 15  2  0
 14 13  1  0
 15 11  1  0
 16 22  1  0
 17 16  2  0
 19 18  1  1
 19 20  1  0
 21 19  1  0
 21 23  1  0
 21 22  1  6
 23 25  2  0
 23 24  1  0
M  END
$$$$
