THV.pdb
     RDKit          3D

 25 25  0  0  1  0  0  0  0  0999 V2000
   20.8139  -18.6399  -19.9115 C   0  0  0  0  0  0  0  0  0  0  0  0
   21.7708  -19.1895  -20.9499 C   0  0  1  0  0  0  0  0  0  0  0  0
   21.4000  -18.6931  -22.2024 O   0  0  0  0  0  0  0  0  0  0  0  0
   23.1359  -18.6332  -20.6147 C   0  0  2  0  0  0  0  0  0  0  0  0
   24.0477  -19.0611  -21.6347 N   0  0  0  0  0  0  0  0  0  0  0  0
   23.5707  -18.9493  -19.2511 C   0  0  0  0  0  0  0  0  0  0  0  0
   23.5871  -20.1533  -18.8845 O   0  0  0  0  0  0  0  0  0  0  0  0
   23.9846  -17.9895  -18.2864 N   0  0  0  0  0  0  0  0  0  0  0  0
   24.3093  -18.3659  -16.9252 C   0  0  1  0  0  0  0  0  0  0  0  0
   25.2926  -17.3956  -16.2974 C   0  0  0  0  0  0  0  0  0  0  0  0
   26.6418  -17.6160  -16.8797 C   0  0  0  0  0  0  0  0  0  0  0  0
   26.9959  -18.5162  -17.8411 C   0  0  0  0  0  0  0  0  0  0  0  0
   28.3289  -18.3714  -18.0686 N   0  0  0  0  0  0  0  0  0  0  0  0
   28.7822  -17.4044  -17.2650 C   0  0  0  0  0  0  0  0  0  0  0  0
   27.7470  -16.9342  -16.5291 N   0  0  0  0  0  0  0  0  0  0  0  0
   23.0406  -18.4254  -16.1464 C   0  0  0  0  0  0  0  0  0  0  0  0
   22.2270  -17.4684  -16.1589 O   0  0  0  0  0  0  0  0  0  0  0  0
   19.1939  -20.6421  -14.4241 C   0  0  0  0  0  0  0  0  0  0  0  0
   20.4578  -20.5613  -15.2269 C   0  0  1  0  0  0  0  0  0  0  0  0
   20.1894  -20.3733  -16.6847 C   0  0  0  0  0  0  0  0  0  0  0  0
   21.4261  -19.5406  -14.6613 C   0  0  2  0  0  0  0  0  0  0  0  0
   22.6908  -19.5525  -15.3603 N   0  0  0  0  0  0  0  0  0  0  0  0
   21.6908  -19.7791  -13.2315 C   0  0  0  0  0  0  0  0  0  0  0  0
   20.7898  -19.3444  -12.2707 O   0  0  0  0  0  0  0  0  0  0  0  0
   22.7332  -20.3800  -12.8299 O   0  0  0  0  0  0  0  0  0  0  0  0
  2  1  1  1
  2  3  1  0
  4  2  1  0
  4  5  1  6
  6  7  2  0
  6  4  1  0
  8  6  1  0
  9 16  1  0
  9  8  1  0
  9 10  1  1
 11 12  2  0
 11 10  1  0
 13 12  1  0
 14 15  2  0
 14 13  1  0
 15 11  1  0
 16 22  1  0
 17 16  2  0
 19 18  1  1
 19 20  1  0
 21 19  1  0
 21 23  1  0
 21 22  1  6
 23 25  2  0
 23 24  1  0
M  END
$$$$
