LLS.pdb
     RDKit          3D

 23 22  0  0  1  0  0  0  0  0999 V2000
   19.1501  -11.6685  -20.5072 C   0  0  0  0  0  0  0  0  0  0  0  0
   18.2257  -11.7645  -19.3350 C   0  0  2  0  0  0  0  0  0  0  0  0
   16.9121  -11.1222  -19.7278 C   0  0  0  0  0  0  0  0  0  0  0  0
   18.7325  -11.1119  -18.0948 C   0  0  0  0  0  0  0  0  0  0  0  0
   20.1307  -11.5494  -17.7228 C   0  0  2  0  0  0  0  0  0  0  0  0
   20.0634  -12.8901  -17.1911 N   0  0  0  0  0  0  0  0  0  0  0  0
   20.7094  -10.6668  -16.6808 C   0  0  0  0  0  0  0  0  0  0  0  0
   20.1725  -10.5162  -15.5481 O   0  0  0  0  0  0  0  0  0  0  0  0
   24.2047  -11.1047  -14.0037 C   0  0  0  0  0  0  0  0  0  0  0  0
   24.5281  -10.6304  -15.3967 C   0  0  2  0  0  0  0  0  0  0  0  0
   26.0639  -10.5352  -15.4699 C   0  0  0  0  0  0  0  0  0  0  0  0
   23.9835   -9.3025  -15.7337 C   0  0  0  0  0  0  0  0  0  0  0  0
   22.5141   -9.1349  -15.8646 C   0  0  2  0  0  0  0  0  0  0  0  0
   21.9180   -9.9267  -16.8930 N   0  0  0  0  0  0  0  0  0  0  0  0
   22.0999   -7.7022  -15.9367 C   0  0  0  0  0  0  0  0  0  0  0  0
   22.1194   -7.0584  -17.0180 O   0  0  0  0  0  0  0  0  0  0  0  0
   19.4376   -4.1063  -14.3858 O   0  0  0  0  0  0  0  0  0  0  0  0
   19.8510   -5.4357  -14.3376 C   0  0  0  0  0  0  0  0  0  0  0  0
   21.2730   -5.5826  -14.8320 C   0  0  2  0  0  0  0  0  0  0  0  0
   21.6639   -6.9994  -14.7849 N   0  0  0  0  0  0  0  0  0  0  0  0
   22.2186   -4.7340  -14.1114 C   0  0  0  0  0  0  0  0  0  0  0  0
   22.4954   -3.4541  -14.5443 O   0  0  0  0  0  0  0  0  0  0  0  0
   22.7996   -5.1521  -13.0827 O   0  0  0  0  0  0  0  0  0  0  0  0
  2  1  1  6
  2  3  1  0
  4  5  1  0
  4  2  1  0
  5  7  1  0
  5  6  1  1
  7  8  2  0
 10  9  1  1
 11 10  1  0
 12 10  1  0
 13 12  1  6
 14 13  1  0
 14  7  1  0
 15 13  1  0
 15 16  2  0
 17 18  1  0
 19 18  1  1
 19 20  1  0
 19 21  1  0
 20 15  1  0
 21 22  1  0
 23 21  2  0
M  END
$$$$
