LLS.pdb
     RDKit          3D

 23 22  0  0  1  0  0  0  0  0999 V2000
   27.4342  -15.4932  -15.1581 C   0  0  0  0  0  0  0  0  0  0  0  0
   26.8253  -16.1550  -16.3536 C   0  0  2  0  0  0  0  0  0  0  0  0
   25.9237  -15.1456  -17.0321 C   0  0  0  0  0  0  0  0  0  0  0  0
   26.0351  -17.3801  -16.0447 C   0  0  0  0  0  0  0  0  0  0  0  0
   26.7918  -18.3762  -15.1964 C   0  0  2  0  0  0  0  0  0  0  0  0
   27.7836  -19.0209  -16.0244 N   0  0  0  0  0  0  0  0  0  0  0  0
   25.8863  -19.4215  -14.6604 C   0  0  0  0  0  0  0  0  0  0  0  0
   25.5120  -20.4102  -15.3505 O   0  0  0  0  0  0  0  0  0  0  0  0
   26.4524  -22.2176  -10.9547 C   0  0  0  0  0  0  0  0  0  0  0  0
   25.9097  -20.8349  -10.7026 C   0  0  2  0  0  0  0  0  0  0  0  0
   25.7300  -20.7179   -9.1772 C   0  0  0  0  0  0  0  0  0  0  0  0
   24.6011  -20.5671  -11.3267 C   0  0  0  0  0  0  0  0  0  0  0  0
   24.5232  -20.3952  -12.7994 C   0  0  2  0  0  0  0  0  0  0  0  0
   25.3770  -19.3765  -13.3218 N   0  0  0  0  0  0  0  0  0  0  0  0
   23.1197  -20.2706  -13.2932 C   0  0  0  0  0  0  0  0  0  0  0  0
   22.4637  -19.2036  -13.1690 O   0  0  0  0  0  0  0  0  0  0  0  0
   21.0983  -23.4209  -15.4405 O   0  0  0  0  0  0  0  0  0  0  0  0
   20.9480  -22.0608  -15.7012 C   0  0  0  0  0  0  0  0  0  0  0  0
   21.0839  -21.2448  -14.4349 C   0  0  2  0  0  0  0  0  0  0  0  0
   22.4597  -21.3535  -13.9275 N   0  0  0  0  0  0  0  0  0  0  0  0
   20.0996  -21.6024  -13.4167 C   0  0  0  0  0  0  0  0  0  0  0  0
   20.4944  -22.0982  -12.1917 O   0  0  0  0  0  0  0  0  0  0  0  0
   18.8731  -21.4659  -13.6352 O   0  0  0  0  0  0  0  0  0  0  0  0
  2  1  1  1
  2  3  1  0
  4  5  1  0
  4  2  1  0
  5  7  1  0
  5  6  1  6
  7  8  2  0
 10  9  1  1
 11 10  1  0
 12 10  1  0
 13 12  1  1
 14 13  1  0
 14  7  1  0
 15 13  1  0
 15 16  2  0
 17 18  1  0
 19 18  1  6
 19 20  1  0
 19 21  1  0
 20 15  1  0
 21 22  1  0
 23 21  2  0
M  END
$$$$
