LLS.pdb
     RDKit          3D

 23 22  0  0  1  0  0  0  0  0999 V2000
   22.1851  -10.9042  -20.6491 C   0  0  0  0  0  0  0  0  0  0  0  0
   20.7128  -11.0846  -20.4555 C   0  0  2  0  0  0  0  0  0  0  0  0
   20.0106  -10.4717  -21.6487 C   0  0  0  0  0  0  0  0  0  0  0  0
   20.1748  -10.4706  -19.2087 C   0  0  0  0  0  0  0  0  0  0  0  0
   20.9237  -10.8962  -17.9667 C   0  0  2  0  0  0  0  0  0  0  0  0
   20.5361  -12.2483  -17.6406 N   0  0  0  0  0  0  0  0  0  0  0  0
   20.5867  -10.0272  -16.8130 C   0  0  0  0  0  0  0  0  0  0  0  0
   19.4209   -9.9633  -16.3328 O   0  0  0  0  0  0  0  0  0  0  0  0
   20.4334   -9.5222  -12.1715 C   0  0  0  0  0  0  0  0  0  0  0  0
   21.6980   -9.7015  -12.9705 C   0  0  2  0  0  0  0  0  0  0  0  0
   22.8361   -9.8463  -11.9426 C   0  0  0  0  0  0  0  0  0  0  0  0
   22.0338   -8.5663  -13.8492 C   0  0  0  0  0  0  0  0  0  0  0  0
   21.2322   -8.3407  -15.0784 C   0  0  2  0  0  0  0  0  0  0  0  0
   21.5648   -9.2025  -16.1677 N   0  0  0  0  0  0  0  0  0  0  0  0
   21.1856   -6.9041  -15.4824 C   0  0  0  0  0  0  0  0  0  0  0  0
   22.2324   -6.2431  -15.7088 O   0  0  0  0  0  0  0  0  0  0  0  0
   18.1209   -5.4043  -17.6012 O   0  0  0  0  0  0  0  0  0  0  0  0
   19.3623   -4.7796  -17.5053 C   0  0  0  0  0  0  0  0  0  0  0  0
   19.8851   -4.8207  -16.0865 C   0  0  2  0  0  0  0  0  0  0  0  0
   19.9541   -6.2168  -15.6302 N   0  0  0  0  0  0  0  0  0  0  0  0
   19.1127   -3.9869  -15.1690 C   0  0  0  0  0  0  0  0  0  0  0  0
   18.5114   -4.5299  -14.0528 O   0  0  0  0  0  0  0  0  0  0  0  0
   18.9799   -2.7583  -15.3772 O   0  0  0  0  0  0  0  0  0  0  0  0
  2  1  1  6
  2  3  1  0
  4  5  1  0
  4  2  1  0
  5  7  1  0
  5  6  1  1
  7  8  2  0
 10  9  1  1
 11 10  1  0
 12 10  1  0
 13 12  1  1
 14 13  1  0
 14  7  1  0
 15 13  1  0
 15 16  2  0
 17 18  1  0
 19 18  1  6
 19 20  1  0
 19 21  1  0
 20 15  1  0
 21 22  1  0
 23 21  2  0
M  END
$$$$
