LLS.pdb
     RDKit          3D

 23 22  0  0  1  0  0  0  0  0999 V2000
   19.3192  -14.6316  -20.0063 C   0  0  0  0  0  0  0  0  0  0  0  0
   20.6984  -14.1100  -19.7539 C   0  0  2  0  0  0  0  0  0  0  0  0
   21.2674  -13.6469  -21.0783 C   0  0  0  0  0  0  0  0  0  0  0  0
   21.6307  -15.1008  -19.1458 C   0  0  0  0  0  0  0  0  0  0  0  0
   21.0656  -15.7687  -17.9132 C   0  0  2  0  0  0  0  0  0  0  0  0
   20.8694  -14.7614  -16.8975 N   0  0  0  0  0  0  0  0  0  0  0  0
   22.0009  -16.7884  -17.3792 C   0  0  0  0  0  0  0  0  0  0  0  0
   22.3297  -17.8145  -18.0371 O   0  0  0  0  0  0  0  0  0  0  0  0
   26.5069  -16.8157  -16.8156 C   0  0  0  0  0  0  0  0  0  0  0  0
   25.6193  -16.0879  -15.8397 C   0  0  2  0  0  0  0  0  0  0  0  0
   26.5626  -15.3177  -14.8965 C   0  0  0  0  0  0  0  0  0  0  0  0
   24.7760  -16.9647  -15.0069 C   0  0  0  0  0  0  0  0  0  0  0  0
   23.5752  -17.5979  -15.6083 C   0  0  2  0  0  0  0  0  0  0  0  0
   22.5929  -16.6742  -16.0792 N   0  0  0  0  0  0  0  0  0  0  0  0
   22.9873  -18.6617  -14.7412 C   0  0  0  0  0  0  0  0  0  0  0  0
   23.6961  -19.5625  -14.2213 O   0  0  0  0  0  0  0  0  0  0  0  0
   19.3955  -20.0754  -11.8633 O   0  0  0  0  0  0  0  0  0  0  0  0
   19.9623  -19.1228  -12.7070 C   0  0  0  0  0  0  0  0  0  0  0  0
   20.9999  -19.7464  -13.6139 C   0  0  2  0  0  0  0  0  0  0  0  0
   21.5975  -18.7052  -14.4630 N   0  0  0  0  0  0  0  0  0  0  0  0
   20.4742  -20.8564  -14.4046 C   0  0  0  0  0  0  0  0  0  0  0  0
   20.2832  -22.1007  -13.8412 O   0  0  0  0  0  0  0  0  0  0  0  0
   20.1851  -20.7010  -15.6142 O   0  0  0  0  0  0  0  0  0  0  0  0
  2  1  1  6
  2  3  1  0
  4  5  1  0
  4  2  1  0
  5  7  1  0
  5  6  1  1
  7  8  2  0
 10  9  1  6
 11 10  1  0
 12 10  1  0
 13 12  1  1
 14 13  1  0
 14  7  1  0
 15 13  1  0
 15 16  2  0
 17 18  1  0
 19 18  1  6
 19 20  1  0
 19 21  1  0
 20 15  1  0
 21 22  1  0
 23 21  2  0
M  END
$$$$
