LLS.pdb
     RDKit          3D

 23 22  0  0  1  0  0  0  0  0999 V2000
   21.9816  -20.3733  -19.0807 C   0  0  0  0  0  0  0  0  0  0  0  0
   22.6981  -20.2248  -17.7759 C   0  0  2  0  0  0  0  0  0  0  0  0
   21.9499  -21.0391  -16.7418 C   0  0  0  0  0  0  0  0  0  0  0  0
   22.8163  -18.8197  -17.2936 C   0  0  0  0  0  0  0  0  0  0  0  0
   23.9959  -18.6054  -16.3733 C   0  0  2  0  0  0  0  0  0  0  0  0
   23.7005  -19.2212  -15.1011 N   0  0  0  0  0  0  0  0  0  0  0  0
   24.2406  -17.1609  -16.1424 C   0  0  0  0  0  0  0  0  0  0  0  0
   23.5302  -16.4719  -15.3583 O   0  0  0  0  0  0  0  0  0  0  0  0
   28.7383  -12.9228  -16.3929 C   0  0  0  0  0  0  0  0  0  0  0  0
   27.2650  -13.2267  -16.3105 C   0  0  2  0  0  0  0  0  0  0  0  0
   26.8093  -12.7583  -14.9156 C   0  0  0  0  0  0  0  0  0  0  0  0
   26.9266  -14.6565  -16.4323 C   0  0  0  0  0  0  0  0  0  0  0  0
   25.5064  -15.0516  -16.6096 C   0  0  2  0  0  0  0  0  0  0  0  0
   25.3012  -16.4527  -16.7956 N   0  0  0  0  0  0  0  0  0  0  0  0
   24.8026  -14.2312  -17.6395 C   0  0  0  0  0  0  0  0  0  0  0  0
   24.9607  -14.4329  -18.8717 O   0  0  0  0  0  0  0  0  0  0  0  0
   21.0285  -13.0073  -17.3506 O   0  0  0  0  0  0  0  0  0  0  0  0
   21.8638  -11.9355  -17.6572 C   0  0  0  0  0  0  0  0  0  0  0  0
   23.1610  -12.4136  -18.2709 C   0  0  2  0  0  0  0  0  0  0  0  0
   23.9200  -13.1832  -17.2740 N   0  0  0  0  0  0  0  0  0  0  0  0
   23.9568  -11.3295  -18.8409 C   0  0  0  0  0  0  0  0  0  0  0  0
   23.4801  -10.5780  -19.8946 O   0  0  0  0  0  0  0  0  0  0  0  0
   25.0919  -11.0589  -18.3836 O   0  0  0  0  0  0  0  0  0  0  0  0
  2  1  1  6
  2  3  1  0
  4  5  1  0
  4  2  1  0
  5  7  1  0
  5  6  1  1
  7  8  2  0
 10  9  1  1
 11 10  1  0
 12 10  1  0
 13 12  1  6
 14 13  1  0
 14  7  1  0
 15 13  1  0
 15 16  2  0
 17 18  1  0
 19 18  1  1
 19 20  1  0
 19 21  1  0
 20 15  1  0
 21 22  1  0
 23 21  2  0
M  END
$$$$
