LLS.pdb
     RDKit          3D

 23 22  0  0  1  0  0  0  0  0999 V2000
   27.3023  -15.8578  -15.3082 C   0  0  0  0  0  0  0  0  0  0  0  0
   26.8588  -16.6456  -16.5000 C   0  0  2  0  0  0  0  0  0  0  0  0
   25.9296  -15.7700  -17.3138 C   0  0  0  0  0  0  0  0  0  0  0  0
   26.1599  -17.9202  -16.1716 C   0  0  0  0  0  0  0  0  0  0  0  0
   26.9428  -18.7991  -15.2234 C   0  0  2  0  0  0  0  0  0  0  0  0
   27.9009  -19.5592  -15.9910 N   0  0  0  0  0  0  0  0  0  0  0  0
   26.0530  -19.7536  -14.5185 C   0  0  0  0  0  0  0  0  0  0  0  0
   25.6595  -20.8292  -15.0496 O   0  0  0  0  0  0  0  0  0  0  0  0
   25.6095  -20.9313   -8.8137 C   0  0  0  0  0  0  0  0  0  0  0  0
   25.3890  -21.3090  -10.2555 C   0  0  2  0  0  0  0  0  0  0  0  0
   26.7904  -21.4762  -10.8726 C   0  0  0  0  0  0  0  0  0  0  0  0
   24.6703  -20.2970  -11.0510 C   0  0  0  0  0  0  0  0  0  0  0  0
   24.6744  -20.4038  -12.5319 C   0  0  2  0  0  0  0  0  0  0  0  0
   25.5816  -19.5159  -13.1863 N   0  0  0  0  0  0  0  0  0  0  0  0
   23.3026  -20.3511  -13.1189 C   0  0  0  0  0  0  0  0  0  0  0  0
   22.7169  -19.2597  -13.3424 O   0  0  0  0  0  0  0  0  0  0  0  0
   19.7123  -22.6682  -15.4249 O   0  0  0  0  0  0  0  0  0  0  0  0
   21.0047  -22.6710  -14.9052 C   0  0  0  0  0  0  0  0  0  0  0  0
   21.2172  -21.5044  -13.9662 C   0  0  2  0  0  0  0  0  0  0  0  0
   22.5948  -21.5335  -13.4528 N   0  0  0  0  0  0  0  0  0  0  0  0
   20.2358  -21.4551  -12.8854 C   0  0  0  0  0  0  0  0  0  0  0  0
   18.9430  -21.0355  -13.1200 O   0  0  0  0  0  0  0  0  0  0  0  0
   20.5485  -21.7936  -11.7200 O   0  0  0  0  0  0  0  0  0  0  0  0
  2  1  1  1
  2  3  1  0
  4  5  1  0
  4  2  1  0
  5  7  1  0
  5  6  1  6
  7  8  2  0
 10  9  1  1
 11 10  1  0
 12 10  1  0
 13 12  1  1
 14 13  1  0
 14  7  1  0
 15 13  1  0
 15 16  2  0
 17 18  1  0
 19 18  1  1
 19 20  1  0
 19 21  1  0
 20 15  1  0
 21 22  1  0
 23 21  2  0
M  END
$$$$
