WQH.pdb
     RDKit          3D

 34 36  0  0  1  0  0  0  0  0999 V2000
   20.2899  -27.2563  -15.7211 N   0  0  0  0  0  0  0  0  0  0  0  0
   21.3715  -27.5197  -14.7669 C   0  0  1  0  0  0  0  0  0  0  0  0
   21.4111  -26.3323  -13.8306 C   0  0  0  0  0  0  0  0  0  0  0  0
   21.8442  -25.1202  -14.5637 C   0  0  0  0  0  0  0  0  0  0  0  0
   21.0971  -23.9794  -14.7900 C   0  0  0  0  0  0  0  0  0  0  0  0
   21.8661  -23.1072  -15.5016 N   0  0  0  0  0  0  0  0  0  0  0  0
   23.0634  -23.6314  -15.7407 C   0  0  0  0  0  0  0  0  0  0  0  0
   24.1874  -23.1914  -16.3961 C   0  0  0  0  0  0  0  0  0  0  0  0
   25.2857  -24.0169  -16.4570 C   0  0  0  0  0  0  0  0  0  0  0  0
   25.3002  -25.2793  -15.8802 C   0  0  0  0  0  0  0  0  0  0  0  0
   24.1663  -25.7152  -15.2227 C   0  0  0  0  0  0  0  0  0  0  0  0
   23.0605  -24.8968  -15.1554 C   0  0  0  0  0  0  0  0  0  0  0  0
   21.1223  -28.7862  -14.0386 C   0  0  0  0  0  0  0  0  0  0  0  0
   19.9410  -29.2570  -13.9302 O   0  0  0  0  0  0  0  0  0  0  0  0
   25.4919  -33.0777  -11.8457 N   0  0  0  0  0  0  0  0  0  0  0  0
   24.2235  -33.6221  -11.5547 C   0  0  0  0  0  0  0  0  0  0  0  0
   24.1928  -34.7551  -11.0280 O   0  0  0  0  0  0  0  0  0  0  0  0
   22.9973  -32.8845  -11.8611 C   0  0  0  0  0  0  0  0  0  0  0  0
   23.1999  -31.5348  -12.4826 C   0  0  0  0  0  0  0  0  0  0  0  0
   21.9048  -30.8403  -12.7711 C   0  0  2  0  0  0  0  0  0  0  0  0
   22.1505  -29.5456  -13.4263 N   0  0  0  0  0  0  0  0  0  0  0  0
   21.0164  -30.6577  -11.6003 C   0  0  0  0  0  0  0  0  0  0  0  0
   21.1837  -29.8045  -10.6948 O   0  0  0  0  0  0  0  0  0  0  0  0
   19.8490  -31.4745  -11.4024 N   0  0  0  0  0  0  0  0  0  0  0  0
   18.9873  -31.3845  -10.2564 C   0  0  1  0  0  0  0  0  0  0  0  0
   17.5582  -31.4863  -10.7474 C   0  0  0  0  0  0  0  0  0  0  0  0
   16.6055  -31.4217   -9.6182 C   0  0  0  0  0  0  0  0  0  0  0  0
   16.1413  -30.2494   -9.0383 C   0  0  0  0  0  0  0  0  0  0  0  0
   15.2942  -30.5907   -8.0427 N   0  0  0  0  0  0  0  0  0  0  0  0
   15.2217  -31.9404   -7.9910 C   0  0  0  0  0  0  0  0  0  0  0  0
   16.0202  -32.4213   -8.9496 N   0  0  0  0  0  0  0  0  0  0  0  0
   19.3259  -32.2508   -9.1503 C   0  0  0  0  0  0  0  0  0  0  0  0
   18.7260  -32.1705   -8.0584 O   0  0  0  0  0  0  0  0  0  0  0  0
   20.3202  -33.1938   -9.2632 O   0  0  0  0  0  0  0  0  0  0  0  0
  2  3  1  0
  2  1  1  6
  3  4  1  0
  4  5  2  0
  5  6  1  0
  7  8  2  0
  7  6  1  0
  9  8  1  0
 10  9  2  0
 11 10  1  0
 11 12  2  0
 12  4  1  0
 12  7  1  0
 13 21  1  0
 13  2  1  0
 14 13  2  0
 16 15  1  0
 17 16  2  0
 18 16  1  0
 19 18  1  0
 20 19  1  1
 20 21  1  0
 22 20  1  0
 22 23  2  0
 24 22  1  0
 25 24  1  0
 25 32  1  0
 25 26  1  6
 27 26  1  0
 28 27  2  0
 29 30  1  0
 29 28  1  0
 30 31  2  0
 31 27  1  0
 32 34  1  0
 33 32  2  0
M  END
$$$$
