WQH.pdb
     RDKit          3D

 34 36  0  0  1  0  0  0  0  0999 V2000
   11.9275   -7.4667  -11.7797 N   0  0  0  0  0  0  0  0  0  0  0  0
   13.1806   -7.0336  -11.1536 C   0  0  1  0  0  0  0  0  0  0  0  0
   13.5616   -8.1180  -10.1701 C   0  0  0  0  0  0  0  0  0  0  0  0
   12.5899   -8.1560   -9.0527 C   0  0  0  0  0  0  0  0  0  0  0  0
   12.4529   -7.2214   -8.0435 C   0  0  0  0  0  0  0  0  0  0  0  0
   11.4457   -7.6335   -7.2223 N   0  0  0  0  0  0  0  0  0  0  0  0
   10.9337   -8.7809   -7.6545 C   0  0  0  0  0  0  0  0  0  0  0  0
    9.9301   -9.6080   -7.2125 C   0  0  0  0  0  0  0  0  0  0  0  0
    9.6538  -10.7535   -7.9217 C   0  0  0  0  0  0  0  0  0  0  0  0
   10.3523  -11.1049   -9.0685 C   0  0  0  0  0  0  0  0  0  0  0  0
   11.3603  -10.2684   -9.5071 C   0  0  0  0  0  0  0  0  0  0  0  0
   11.6455   -9.1185   -8.8047 C   0  0  0  0  0  0  0  0  0  0  0  0
   14.2292   -6.8300  -12.1809 C   0  0  0  0  0  0  0  0  0  0  0  0
   14.2765   -7.5662  -13.2224 O   0  0  0  0  0  0  0  0  0  0  0  0
   17.1603   -1.4361  -13.8528 N   0  0  0  0  0  0  0  0  0  0  0  0
   17.6741   -2.4333  -14.7080 C   0  0  0  0  0  0  0  0  0  0  0  0
   18.3811   -2.0572  -15.6677 O   0  0  0  0  0  0  0  0  0  0  0  0
   17.3856   -3.8489  -14.4755 C   0  0  0  0  0  0  0  0  0  0  0  0
   16.4732   -4.1355  -13.3203 C   0  0  0  0  0  0  0  0  0  0  0  0
   16.2356   -5.6021  -13.1322 C   0  0  2  0  0  0  0  0  0  0  0  0
   15.2285   -5.8296  -12.0835 N   0  0  0  0  0  0  0  0  0  0  0  0
   17.4496   -6.4037  -12.8543 C   0  0  0  0  0  0  0  0  0  0  0  0
   17.9886   -6.5283  -11.7273 O   0  0  0  0  0  0  0  0  0  0  0  0
   18.1308   -7.1290  -13.8930 N   0  0  0  0  0  0  0  0  0  0  0  0
   19.3253   -7.9003  -13.6871 C   0  0  1  0  0  0  0  0  0  0  0  0
   19.3583   -8.9861  -14.7424 C   0  0  0  0  0  0  0  0  0  0  0  0
   20.5619   -9.8321  -14.5927 C   0  0  0  0  0  0  0  0  0  0  0  0
   21.5175   -9.6830  -13.5973 C   0  0  0  0  0  0  0  0  0  0  0  0
   22.4605  -10.6316  -13.7873 N   0  0  0  0  0  0  0  0  0  0  0  0
   22.1149  -11.3626  -14.8715 C   0  0  0  0  0  0  0  0  0  0  0  0
   20.9670  -10.8636  -15.3417 N   0  0  0  0  0  0  0  0  0  0  0  0
   20.5445   -7.1378  -13.5437 C   0  0  0  0  0  0  0  0  0  0  0  0
   21.2916   -7.2919  -12.5553 O   0  0  0  0  0  0  0  0  0  0  0  0
   20.9238   -6.2168  -14.4915 O   0  0  0  0  0  0  0  0  0  0  0  0
  2  3  1  0
  2  1  1  6
  3  4  1  0
  4  5  2  0
  5  6  1  0
  7  8  2  0
  7  6  1  0
  9  8  1  0
 10  9  2  0
 11 10  1  0
 11 12  2  0
 12  4  1  0
 12  7  1  0
 13 21  1  0
 13  2  1  0
 14 13  2  0
 16 15  1  0
 17 16  2  0
 18 16  1  0
 19 18  1  0
 20 19  1  1
 20 21  1  0
 22 20  1  0
 22 23  2  0
 24 22  1  0
 25 24  1  0
 25 32  1  0
 25 26  1  6
 27 26  1  0
 28 27  2  0
 29 30  1  0
 29 28  1  0
 30 31  2  0
 31 27  1  0
 32 34  1  0
 33 32  2  0
M  END
$$$$
