WQH.pdb
     RDKit          3D

 34 36  0  0  1  0  0  0  0  0999 V2000
   23.8708  -20.5225  -18.2745 N   0  0  0  0  0  0  0  0  0  0  0  0
   23.8159  -19.5813  -17.1516 C   0  0  1  0  0  0  0  0  0  0  0  0
   22.8461  -18.4931  -17.5558 C   0  0  0  0  0  0  0  0  0  0  0  0
   23.3126  -17.8304  -18.7958 C   0  0  0  0  0  0  0  0  0  0  0  0
   24.5656  -17.2941  -19.0258 C   0  0  0  0  0  0  0  0  0  0  0  0
   24.5787  -16.7822  -20.2893 N   0  0  0  0  0  0  0  0  0  0  0  0
   23.4007  -16.9638  -20.8765 C   0  0  0  0  0  0  0  0  0  0  0  0
   22.8882  -16.6490  -22.1113 C   0  0  0  0  0  0  0  0  0  0  0  0
   21.5880  -16.9942  -22.3975 C   0  0  0  0  0  0  0  0  0  0  0  0
   20.7740  -17.6493  -21.4839 C   0  0  0  0  0  0  0  0  0  0  0  0
   21.2962  -17.9627  -20.2440 C   0  0  0  0  0  0  0  0  0  0  0  0
   22.5971  -17.6219  -19.9465 C   0  0  0  0  0  0  0  0  0  0  0  0
   23.3807  -20.2745  -15.9160 C   0  0  0  0  0  0  0  0  0  0  0  0
   22.5131  -21.2094  -15.9613 O   0  0  0  0  0  0  0  0  0  0  0  0
   26.2235  -20.7928  -10.1608 N   0  0  0  0  0  0  0  0  0  0  0  0
   24.9237  -21.3153   -9.9954 C   0  0  0  0  0  0  0  0  0  0  0  0
   24.6710  -21.8934   -8.9165 O   0  0  0  0  0  0  0  0  0  0  0  0
   23.9174  -21.1831  -11.0495 C   0  0  0  0  0  0  0  0  0  0  0  0
   24.4001  -20.5498  -12.3203 C   0  0  0  0  0  0  0  0  0  0  0  0
   23.3573  -20.5626  -13.3951 C   0  0  2  0  0  0  0  0  0  0  0  0
   23.8833  -19.9575  -14.6292 N   0  0  0  0  0  0  0  0  0  0  0  0
   22.0694  -19.9304  -13.0273 C   0  0  0  0  0  0  0  0  0  0  0  0
   21.8938  -18.6992  -12.8563 O   0  0  0  0  0  0  0  0  0  0  0  0
   20.8750  -20.7073  -12.8299 N   0  0  0  0  0  0  0  0  0  0  0  0
   19.5431  -20.1830  -12.9531 C   0  0  1  0  0  0  0  0  0  0  0  0
   19.4785  -19.3922  -14.2431 C   0  0  0  0  0  0  0  0  0  0  0  0
   19.3884  -17.9416  -13.9697 C   0  0  0  0  0  0  0  0  0  0  0  0
   19.2580  -17.3789  -12.7078 C   0  0  0  0  0  0  0  0  0  0  0  0
   19.2068  -16.0374  -12.8592 N   0  0  0  0  0  0  0  0  0  0  0  0
   19.3019  -15.7551  -14.1786 C   0  0  0  0  0  0  0  0  0  0  0  0
   19.4105  -16.9177  -14.8300 N   0  0  0  0  0  0  0  0  0  0  0  0
   18.4754  -21.1370  -12.7565 C   0  0  0  0  0  0  0  0  0  0  0  0
   17.4717  -20.8524  -12.0707 O   0  0  0  0  0  0  0  0  0  0  0  0
   18.5283  -22.3906  -13.3188 O   0  0  0  0  0  0  0  0  0  0  0  0
  2  3  1  0
  2  1  1  6
  3  4  1  0
  4  5  2  0
  5  6  1  0
  7  8  2  0
  7  6  1  0
  9  8  1  0
 10  9  2  0
 11 10  1  0
 11 12  2  0
 12  4  1  0
 12  7  1  0
 13 21  1  0
 13  2  1  0
 14 13  2  0
 16 15  1  0
 17 16  2  0
 18 16  1  0
 19 18  1  0
 20 19  1  1
 20 21  1  0
 22 20  1  0
 22 23  2  0
 24 22  1  0
 25 24  1  0
 25 32  1  0
 25 26  1  6
 27 26  1  0
 28 27  2  0
 29 30  1  0
 29 28  1  0
 30 31  2  0
 31 27  1  0
 32 34  1  0
 33 32  2  0
M  END
$$$$
