WQH.pdb
     RDKit          3D

 34 36  0  0  1  0  0  0  0  0999 V2000
   16.4437  -13.8160  -18.2942 N   0  0  0  0  0  0  0  0  0  0  0  0
   15.9026  -13.1557  -17.1021 C   0  0  1  0  0  0  0  0  0  0  0  0
   16.5764  -13.8049  -15.9135 C   0  0  0  0  0  0  0  0  0  0  0  0
   16.0655  -15.1830  -15.7288 C   0  0  0  0  0  0  0  0  0  0  0  0
   14.8209  -15.5464  -15.2495 C   0  0  0  0  0  0  0  0  0  0  0  0
   14.7560  -16.9081  -15.2373 N   0  0  0  0  0  0  0  0  0  0  0  0
   15.8928  -17.4317  -15.6834 C   0  0  0  0  0  0  0  0  0  0  0  0
   16.3472  -18.7142  -15.8712 C   0  0  0  0  0  0  0  0  0  0  0  0
   17.6169  -18.9025  -16.3650 C   0  0  0  0  0  0  0  0  0  0  0  0
   18.4568  -17.8435  -16.6807 C   0  0  0  0  0  0  0  0  0  0  0  0
   17.9932  -16.5564  -16.4892 C   0  0  0  0  0  0  0  0  0  0  0  0
   16.7232  -16.3561  -15.9952 C   0  0  0  0  0  0  0  0  0  0  0  0
   16.1645  -11.6978  -17.1541 C   0  0  0  0  0  0  0  0  0  0  0  0
   17.2562  -11.2461  -17.6368 O   0  0  0  0  0  0  0  0  0  0  0  0
   11.8678   -6.8916  -16.6111 N   0  0  0  0  0  0  0  0  0  0  0  0
   13.1255   -6.2654  -16.7379 C   0  0  0  0  0  0  0  0  0  0  0  0
   13.1453   -5.0158  -16.7497 O   0  0  0  0  0  0  0  0  0  0  0  0
   14.3531   -7.0537  -16.8518 C   0  0  0  0  0  0  0  0  0  0  0  0
   14.1683   -8.5405  -16.7842 C   0  0  0  0  0  0  0  0  0  0  0  0
   15.4704   -9.2790  -16.8290 C   0  0  2  0  0  0  0  0  0  0  0  0
   15.2460  -10.7262  -16.6839 N   0  0  0  0  0  0  0  0  0  0  0  0
   16.4854   -8.8209  -15.8526 C   0  0  0  0  0  0  0  0  0  0  0  0
   16.5172   -9.1456  -14.6403 O   0  0  0  0  0  0  0  0  0  0  0  0
   17.5535   -7.9353  -16.2316 N   0  0  0  0  0  0  0  0  0  0  0  0
   18.4928   -7.3635  -15.3071 C   0  0  1  0  0  0  0  0  0  0  0  0
   19.7439   -7.0093  -16.0837 C   0  0  0  0  0  0  0  0  0  0  0  0
   20.7588   -6.3963  -15.1999 C   0  0  0  0  0  0  0  0  0  0  0  0
   21.3066   -7.0052  -14.0795 C   0  0  0  0  0  0  0  0  0  0  0  0
   22.1905   -6.1417  -13.5332 N   0  0  0  0  0  0  0  0  0  0  0  0
   22.2045   -5.0168  -14.2840 C   0  0  0  0  0  0  0  0  0  0  0  0
   21.3339   -5.1916  -15.2837 N   0  0  0  0  0  0  0  0  0  0  0  0
   17.9740   -6.3167  -14.4564 C   0  0  0  0  0  0  0  0  0  0  0  0
   17.2533   -5.4069  -14.9164 O   0  0  0  0  0  0  0  0  0  0  0  0
   18.2560   -6.2874  -13.1110 O   0  0  0  0  0  0  0  0  0  0  0  0
  2  3  1  0
  2  1  1  6
  3  4  1  0
  4  5  2  0
  5  6  1  0
  7  8  2  0
  7  6  1  0
  9  8  1  0
 10  9  2  0
 11 10  1  0
 11 12  2  0
 12  4  1  0
 12  7  1  0
 13 21  1  0
 13  2  1  0
 14 13  2  0
 16 15  1  0
 17 16  2  0
 18 16  1  0
 19 18  1  0
 20 19  1  1
 20 21  1  0
 22 20  1  0
 22 23  2  0
 24 22  1  0
 25 24  1  0
 25 32  1  0
 25 26  1  6
 27 26  1  0
 28 27  2  0
 29 30  1  0
 29 28  1  0
 30 31  2  0
 31 27  1  0
 32 34  1  0
 33 32  2  0
M  END
$$$$
