WQH.pdb
     RDKit          3D

 34 36  0  0  1  0  0  0  0  0999 V2000
   27.3016  -22.0545  -14.9217 N   0  0  0  0  0  0  0  0  0  0  0  0
   26.4470  -21.2870  -14.0105 C   0  0  1  0  0  0  0  0  0  0  0  0
   27.0856  -19.9222  -13.8768 C   0  0  0  0  0  0  0  0  0  0  0  0
   28.3221  -20.0159  -13.0665 C   0  0  0  0  0  0  0  0  0  0  0  0
   29.5879  -19.6036  -13.4385 C   0  0  0  0  0  0  0  0  0  0  0  0
   30.4374  -19.8697  -12.4060 N   0  0  0  0  0  0  0  0  0  0  0  0
   29.7802  -20.4296  -11.3959 C   0  0  0  0  0  0  0  0  0  0  0  0
   30.1441  -20.8837  -10.1518 C   0  0  0  0  0  0  0  0  0  0  0  0
   29.1791  -21.4245   -9.3346 C   0  0  0  0  0  0  0  0  0  0  0  0
   27.8501  -21.5285   -9.7211 C   0  0  0  0  0  0  0  0  0  0  0  0
   27.4914  -21.0698  -10.9738 C   0  0  0  0  0  0  0  0  0  0  0  0
   28.4495  -20.5262  -11.8005 C   0  0  0  0  0  0  0  0  0  0  0  0
   25.0677  -21.1986  -14.5455 C   0  0  0  0  0  0  0  0  0  0  0  0
   24.8545  -20.8209  -15.7458 O   0  0  0  0  0  0  0  0  0  0  0  0
   20.6302  -25.3362  -14.3726 N   0  0  0  0  0  0  0  0  0  0  0  0
   21.9547  -25.2050  -14.8397 C   0  0  0  0  0  0  0  0  0  0  0  0
   22.5157  -26.2357  -15.2700 O   0  0  0  0  0  0  0  0  0  0  0  0
   22.6383  -23.9114  -14.8171 C   0  0  0  0  0  0  0  0  0  0  0  0
   21.8743  -22.7942  -14.1713 C   0  0  0  0  0  0  0  0  0  0  0  0
   22.5536  -21.4697  -14.3358 C   0  0  2  0  0  0  0  0  0  0  0  0
   23.9166  -21.5186  -13.7830 N   0  0  0  0  0  0  0  0  0  0  0  0
   21.8180  -20.3133  -13.7745 C   0  0  0  0  0  0  0  0  0  0  0  0
   21.7582  -20.0202  -12.5552 O   0  0  0  0  0  0  0  0  0  0  0  0
   21.0875  -19.4021  -14.6142 N   0  0  0  0  0  0  0  0  0  0  0  0
   20.3049  -18.3028  -14.1210 C   0  0  1  0  0  0  0  0  0  0  0  0
   20.5160  -17.1320  -15.0581 C   0  0  0  0  0  0  0  0  0  0  0  0
   19.7318  -15.9570  -14.6209 C   0  0  0  0  0  0  0  0  0  0  0  0
   18.9439  -15.9094  -13.4794 C   0  0  0  0  0  0  0  0  0  0  0  0
   18.3867  -14.6803  -13.4154 N   0  0  0  0  0  0  0  0  0  0  0  0
   18.8079  -13.9671  -14.4847 C   0  0  0  0  0  0  0  0  0  0  0  0
   19.6180  -14.7559  -15.1984 N   0  0  0  0  0  0  0  0  0  0  0  0
   18.9268  -18.6070  -13.8096 C   0  0  0  0  0  0  0  0  0  0  0  0
   18.4037  -18.2201  -12.7440 O   0  0  0  0  0  0  0  0  0  0  0  0
   18.1444  -19.3325  -14.6767 O   0  0  0  0  0  0  0  0  0  0  0  0
  2  3  1  0
  2  1  1  6
  3  4  1  0
  4  5  2  0
  5  6  1  0
  7  8  2  0
  7  6  1  0
  9  8  1  0
 10  9  2  0
 11 10  1  0
 11 12  2  0
 12  4  1  0
 12  7  1  0
 13 21  1  0
 13  2  1  0
 14 13  2  0
 16 15  1  0
 17 16  2  0
 18 16  1  0
 19 18  1  0
 20 19  1  1
 20 21  1  0
 22 20  1  0
 22 23  2  0
 24 22  1  0
 25 24  1  0
 25 32  1  0
 25 26  1  6
 27 26  1  0
 28 27  2  0
 29 30  1  0
 29 28  1  0
 30 31  2  0
 31 27  1  0
 32 34  1  0
 33 32  2  0
M  END
$$$$
