WQH.pdb
     RDKit          3D

 34 36  0  0  1  0  0  0  0  0999 V2000
   25.7163  -18.7895   -9.2195 N   0  0  0  0  0  0  0  0  0  0  0  0
   26.6578  -19.8085   -9.6938 C   0  0  1  0  0  0  0  0  0  0  0  0
   26.6333  -20.9204   -8.6684 C   0  0  0  0  0  0  0  0  0  0  0  0
   27.0471  -20.4009   -7.3443 C   0  0  0  0  0  0  0  0  0  0  0  0
   26.2505  -19.7365   -6.4307 C   0  0  0  0  0  0  0  0  0  0  0  0
   27.0184  -19.4319   -5.3462 N   0  0  0  0  0  0  0  0  0  0  0  0
   28.2618  -19.8669   -5.5201 C   0  0  0  0  0  0  0  0  0  0  0  0
   29.4057  -19.8244   -4.7610 C   0  0  0  0  0  0  0  0  0  0  0  0
   30.5553  -20.3894   -5.2615 C   0  0  0  0  0  0  0  0  0  0  0  0
   30.6024  -21.0014   -6.5064 C   0  0  0  0  0  0  0  0  0  0  0  0
   29.4482  -21.0404   -7.2644 C   0  0  0  0  0  0  0  0  0  0  0  0
   28.2910  -20.4777   -6.7730 C   0  0  0  0  0  0  0  0  0  0  0  0
   26.2635  -20.2917  -11.0383 C   0  0  0  0  0  0  0  0  0  0  0  0
   25.0388  -20.3003  -11.3973 O   0  0  0  0  0  0  0  0  0  0  0  0
   30.1623  -22.1029  -15.9393 N   0  0  0  0  0  0  0  0  0  0  0  0
   28.8503  -22.0995  -16.4576 C   0  0  0  0  0  0  0  0  0  0  0  0
   28.7099  -22.3918  -17.6647 O   0  0  0  0  0  0  0  0  0  0  0  0
   27.7050  -21.7649  -15.6105 C   0  0  0  0  0  0  0  0  0  0  0  0
   28.0375  -21.4267  -14.1878 C   0  0  0  0  0  0  0  0  0  0  0  0
   26.8237  -21.0608  -13.3905 C   0  0  2  0  0  0  0  0  0  0  0  0
   27.1934  -20.7665  -11.9968 N   0  0  0  0  0  0  0  0  0  0  0  0
   25.7262  -22.0545  -13.4269 C   0  0  0  0  0  0  0  0  0  0  0  0
   25.5721  -22.9886  -12.6023 O   0  0  0  0  0  0  0  0  0  0  0  0
   24.7135  -22.0255  -14.4480 N   0  0  0  0  0  0  0  0  0  0  0  0
   23.3064  -22.1612  -14.1917 C   0  0  1  0  0  0  0  0  0  0  0  0
   22.9753  -21.3085  -12.9847 C   0  0  0  0  0  0  0  0  0  0  0  0
   21.5475  -21.4377  -12.6220 C   0  0  0  0  0  0  0  0  0  0  0  0
   20.6156  -22.1892  -13.3242 C   0  0  0  0  0  0  0  0  0  0  0  0
   19.4269  -22.0625  -12.6948 N   0  0  0  0  0  0  0  0  0  0  0  0
   19.5976  -21.2543  -11.6238 C   0  0  0  0  0  0  0  0  0  0  0  0
   20.8836  -20.8889  -11.5987 N   0  0  0  0  0  0  0  0  0  0  0  0
   22.4424  -21.9785  -15.3357 C   0  0  0  0  0  0  0  0  0  0  0  0
   22.6764  -21.0978  -16.1891 O   0  0  0  0  0  0  0  0  0  0  0  0
   21.3333  -22.7691  -15.5236 O   0  0  0  0  0  0  0  0  0  0  0  0
  2  3  1  0
  2  1  1  1
  3  4  1  0
  4  5  2  0
  5  6  1  0
  7  8  2  0
  7  6  1  0
  9  8  1  0
 10  9  2  0
 11 10  1  0
 11 12  2  0
 12  4  1  0
 12  7  1  0
 13 21  1  0
 13  2  1  0
 14 13  2  0
 16 15  1  0
 17 16  2  0
 18 16  1  0
 19 18  1  0
 20 19  1  6
 20 21  1  0
 22 20  1  0
 22 23  2  0
 24 22  1  0
 25 24  1  0
 25 32  1  0
 25 26  1  1
 27 26  1  0
 28 27  2  0
 29 30  1  0
 29 28  1  0
 30 31  2  0
 31 27  1  0
 32 34  1  0
 33 32  2  0
M  END
$$$$
