WQH.pdb
     RDKit          3D

 34 36  0  0  1  0  0  0  0  0999 V2000
   27.0744  -22.7016  -12.1881 N   0  0  0  0  0  0  0  0  0  0  0  0
   26.1160  -21.6772  -11.7616 C   0  0  1  0  0  0  0  0  0  0  0  0
   26.8984  -20.3887  -11.6361 C   0  0  0  0  0  0  0  0  0  0  0  0
   27.8765  -20.4929  -10.5285 C   0  0  0  0  0  0  0  0  0  0  0  0
   29.2281  -20.7599  -10.6411 C   0  0  0  0  0  0  0  0  0  0  0  0
   29.7612  -20.7683   -9.3864 N   0  0  0  0  0  0  0  0  0  0  0  0
   28.8213  -20.5210   -8.4804 C   0  0  0  0  0  0  0  0  0  0  0  0
   28.8154  -20.4184   -7.1107 C   0  0  0  0  0  0  0  0  0  0  0  0
   27.6292  -20.1442   -6.4711 C   0  0  0  0  0  0  0  0  0  0  0  0
   26.4367  -19.9674   -7.1590 C   0  0  0  0  0  0  0  0  0  0  0  0
   26.4501  -20.0721   -8.5364 C   0  0  0  0  0  0  0  0  0  0  0  0
   27.6325  -20.3462   -9.1875 C   0  0  0  0  0  0  0  0  0  0  0  0
   25.0140  -21.5578  -12.7454 C   0  0  0  0  0  0  0  0  0  0  0  0
   25.2596  -21.3608  -13.9822 O   0  0  0  0  0  0  0  0  0  0  0  0
   23.4507  -25.4408  -15.5891 N   0  0  0  0  0  0  0  0  0  0  0  0
   22.4800  -24.5620  -15.0643 C   0  0  0  0  0  0  0  0  0  0  0  0
   21.5000  -24.2901  -15.7909 O   0  0  0  0  0  0  0  0  0  0  0  0
   22.6221  -23.9945  -13.7230 C   0  0  0  0  0  0  0  0  0  0  0  0
   21.7634  -22.7982  -13.4393 C   0  0  0  0  0  0  0  0  0  0  0  0
   22.5566  -21.5295  -13.3767 C   0  0  2  0  0  0  0  0  0  0  0  0
   23.6443  -21.6510  -12.3930 N   0  0  0  0  0  0  0  0  0  0  0  0
   21.7643  -20.3067  -13.1109 C   0  0  0  0  0  0  0  0  0  0  0  0
   22.0850  -19.4019  -12.3019 O   0  0  0  0  0  0  0  0  0  0  0  0
   20.5190  -20.0515  -13.7841 N   0  0  0  0  0  0  0  0  0  0  0  0
   19.8483  -18.7810  -13.7838 C   0  0  1  0  0  0  0  0  0  0  0  0
   20.8782  -17.7180  -14.1047 C   0  0  0  0  0  0  0  0  0  0  0  0
   20.2523  -16.3801  -14.1759 C   0  0  0  0  0  0  0  0  0  0  0  0
   19.5225  -15.7904  -13.1533 C   0  0  0  0  0  0  0  0  0  0  0  0
   19.1128  -14.5781  -13.5868 N   0  0  0  0  0  0  0  0  0  0  0  0
   19.5686  -14.4020  -14.8480 C   0  0  0  0  0  0  0  0  0  0  0  0
   20.2531  -15.5005  -15.1835 N   0  0  0  0  0  0  0  0  0  0  0  0
   18.6298  -18.7174  -14.5582 C   0  0  0  0  0  0  0  0  0  0  0  0
   18.5903  -19.1269  -15.7369 O   0  0  0  0  0  0  0  0  0  0  0  0
   17.4719  -18.2043  -14.0228 O   0  0  0  0  0  0  0  0  0  0  0  0
  2  3  1  0
  2  1  1  6
  3  4  1  0
  4  5  2  0
  5  6  1  0
  7  8  2  0
  7  6  1  0
  9  8  1  0
 10  9  2  0
 11 10  1  0
 11 12  2  0
 12  4  1  0
 12  7  1  0
 13 21  1  0
 13  2  1  0
 14 13  2  0
 16 15  1  0
 17 16  2  0
 18 16  1  0
 19 18  1  0
 20 19  1  1
 20 21  1  0
 22 20  1  0
 22 23  2  0
 24 22  1  0
 25 24  1  0
 25 32  1  0
 25 26  1  6
 27 26  1  0
 28 27  2  0
 29 30  1  0
 29 28  1  0
 30 31  2  0
 31 27  1  0
 32 34  1  0
 33 32  2  0
M  END
$$$$
