WQH.pdb
     RDKit          3D

 34 36  0  0  1  0  0  0  0  0999 V2000
   26.2059  -22.2203  -13.6554 N   0  0  0  0  0  0  0  0  0  0  0  0
   25.6716  -21.4202  -12.5490 C   0  0  1  0  0  0  0  0  0  0  0  0
   26.4418  -20.1183  -12.5549 C   0  0  0  0  0  0  0  0  0  0  0  0
   27.7972  -20.3262  -11.9945 C   0  0  0  0  0  0  0  0  0  0  0  0
   28.9981  -20.2067  -12.6685 C   0  0  0  0  0  0  0  0  0  0  0  0
   30.0032  -20.4816  -11.7893 N   0  0  0  0  0  0  0  0  0  0  0  0
   29.5066  -20.7697  -10.5910 C   0  0  0  0  0  0  0  0  0  0  0  0
   30.0615  -21.1101   -9.3815 C   0  0  0  0  0  0  0  0  0  0  0  0
   29.2287  -21.3494   -8.3135 C   0  0  0  0  0  0  0  0  0  0  0  0
   27.8472  -21.2597   -8.4128 C   0  0  0  0  0  0  0  0  0  0  0  0
   27.2961  -20.9170   -9.6322 C   0  0  0  0  0  0  0  0  0  0  0  0
   28.1206  -20.6750  -10.7087 C   0  0  0  0  0  0  0  0  0  0  0  0
   24.2168  -21.1991  -12.7254 C   0  0  0  0  0  0  0  0  0  0  0  0
   23.6943  -21.1805  -13.8897 O   0  0  0  0  0  0  0  0  0  0  0  0
   19.7295  -21.9758   -8.1412 N   0  0  0  0  0  0  0  0  0  0  0  0
   19.0172  -21.7282   -9.3332 C   0  0  0  0  0  0  0  0  0  0  0  0
   17.7705  -21.8004   -9.2818 O   0  0  0  0  0  0  0  0  0  0  0  0
   19.7166  -21.4017  -10.5765 C   0  0  0  0  0  0  0  0  0  0  0  0
   21.2123  -21.3566  -10.4773 C   0  0  0  0  0  0  0  0  0  0  0  0
   21.8616  -21.0539  -11.7924 C   0  0  2  0  0  0  0  0  0  0  0  0
   23.3246  -20.9976  -11.6427 N   0  0  0  0  0  0  0  0  0  0  0  0
   21.3716  -19.8299  -12.4671 C   0  0  0  0  0  0  0  0  0  0  0  0
   21.6213  -18.6556  -12.1000 O   0  0  0  0  0  0  0  0  0  0  0  0
   20.5404  -19.8940  -13.6392 N   0  0  0  0  0  0  0  0  0  0  0  0
   20.1403  -18.7475  -14.4072 C   0  0  1  0  0  0  0  0  0  0  0  0
   21.3960  -17.9993  -14.8032 C   0  0  0  0  0  0  0  0  0  0  0  0
   21.0804  -16.8898  -15.7287 C   0  0  0  0  0  0  0  0  0  0  0  0
   19.8030  -16.5458  -16.1481 C   0  0  0  0  0  0  0  0  0  0  0  0
   19.9150  -15.4903  -16.9838 N   0  0  0  0  0  0  0  0  0  0  0  0
   21.2251  -15.1722  -17.0928 C   0  0  0  0  0  0  0  0  0  0  0  0
   21.9101  -16.0287  -16.3279 N   0  0  0  0  0  0  0  0  0  0  0  0
   19.2094  -19.0088  -15.4813 C   0  0  0  0  0  0  0  0  0  0  0  0
   18.9529  -20.1751  -15.8457 O   0  0  0  0  0  0  0  0  0  0  0  0
   18.5740  -17.9817  -16.1384 O   0  0  0  0  0  0  0  0  0  0  0  0
  2  3  1  0
  2  1  1  6
  3  4  1  0
  4  5  2  0
  5  6  1  0
  7  8  2  0
  7  6  1  0
  9  8  1  0
 10  9  2  0
 11 10  1  0
 11 12  2  0
 12  4  1  0
 12  7  1  0
 13 21  1  0
 13  2  1  0
 14 13  2  0
 16 15  1  0
 17 16  2  0
 18 16  1  0
 19 18  1  0
 20 19  1  1
 20 21  1  0
 22 20  1  0
 22 23  2  0
 24 22  1  0
 25 24  1  0
 25 32  1  0
 25 26  1  6
 27 26  1  0
 28 27  2  0
 29 30  1  0
 29 28  1  0
 30 31  2  0
 31 27  1  0
 32 34  1  0
 33 32  2  0
M  END
$$$$
