EYW.pdb
     RDKit          3D

 36 38  0  0  1  0  0  0  0  0999 V2000
   21.7875  -22.5868  -15.1477 N   0  0  0  0  0  0  0  0  0  0  0  0
   20.5944  -22.0573  -14.4820 C   0  0  1  0  0  0  0  0  0  0  0  0
   19.4861  -22.1919  -15.5088 C   0  0  0  0  0  0  0  0  0  0  0  0
   19.9515  -22.7070  -16.8250 C   0  0  0  0  0  0  0  0  0  0  0  0
   18.9088  -23.5702  -17.4293 C   0  0  0  0  0  0  0  0  0  0  0  0
   19.1251  -24.0453  -18.5807 O   0  0  0  0  0  0  0  0  0  0  0  0
   20.3334  -22.8809  -13.2883 C   0  0  0  0  0  0  0  0  0  0  0  0
   20.9995  -23.9469  -13.1338 O   0  0  0  0  0  0  0  0  0  0  0  0
   17.7081  -23.8974  -16.8241 O   0  0  0  0  0  0  0  0  0  0  0  0
   16.9578  -25.3868   -5.2802 O   0  0  0  0  0  0  0  0  0  0  0  0
   17.3307  -24.7198   -6.4616 C   0  0  0  0  0  0  0  0  0  0  0  0
   18.6497  -24.4132   -6.7063 C   0  0  0  0  0  0  0  0  0  0  0  0
   19.0135  -23.7635   -7.8546 C   0  0  0  0  0  0  0  0  0  0  0  0
   18.1109  -23.3818   -8.8209 C   0  0  0  0  0  0  0  0  0  0  0  0
   18.5114  -22.6997  -10.0403 C   0  0  0  0  0  0  0  0  0  0  0  0
   19.2524  -23.4827  -11.0780 C   0  0  2  0  0  0  0  0  0  0  0  0
   19.3926  -22.5880  -12.2743 N   0  0  0  0  0  0  0  0  0  0  0  0
   18.6349  -24.7426  -11.5151 C   0  0  0  0  0  0  0  0  0  0  0  0
   17.6574  -24.7333  -12.3533 O   0  0  0  0  0  0  0  0  0  0  0  0
   16.7733  -23.6969   -8.5669 C   0  0  0  0  0  0  0  0  0  0  0  0
   16.3976  -24.3540   -7.4057 C   0  0  0  0  0  0  0  0  0  0  0  0
   19.0110  -26.0453  -11.1059 N   0  0  0  0  0  0  0  0  0  0  0  0
   18.3283  -27.2355  -11.5462 C   0  0  1  0  0  0  0  0  0  0  0  0
   19.2079  -28.4606  -11.4803 C   0  0  0  0  0  0  0  0  0  0  0  0
   20.2720  -28.3124  -12.4984 C   0  0  0  0  0  0  0  0  0  0  0  0
   20.9773  -27.1329  -12.7226 C   0  0  0  0  0  0  0  0  0  0  0  0
   21.8697  -27.2793  -13.6969 N   0  0  0  0  0  0  0  0  0  0  0  0
   21.7789  -28.5519  -14.1417 C   0  0  0  0  0  0  0  0  0  0  0  0
   22.4746  -29.2458  -15.1342 C   0  0  0  0  0  0  0  0  0  0  0  0
   22.1637  -30.5691  -15.3652 C   0  0  0  0  0  0  0  0  0  0  0  0
   21.1769  -31.2026  -14.6253 C   0  0  0  0  0  0  0  0  0  0  0  0
   20.4728  -30.5183  -13.6278 C   0  0  0  0  0  0  0  0  0  0  0  0
   20.7892  -29.2040  -13.4052 C   0  0  0  0  0  0  0  0  0  0  0  0
   17.0571  -27.4327  -10.8498 C   0  0  0  0  0  0  0  0  0  0  0  0
   16.9539  -27.2656   -9.6299 O   0  0  0  0  0  0  0  0  0  0  0  0
   15.9116  -27.8156  -11.5405 O   0  0  0  0  0  0  0  0  0  0  0  0
  2  1  1  6
  3  2  1  0
  4  5  1  0
  4  3  1  0
  5  6  2  0
  7  2  1  0
  8  7  2  0
  9  5  1  0
 10 11  1  0
 11 12  2  0
 12 13  1  0
 14 15  1  0
 14 13  2  0
 16 15  1  1
 16 17  1  0
 17  7  1  0
 18 19  2  0
 18 16  1  0
 20 14  1  0
 21 20  2  0
 21 11  1  0
 22 18  1  0
 23 22  1  0
 23 24  1  1
 24 25  1  0
 25 26  2  0
 25 33  1  0
 26 27  1  0
 27 28  1  0
 28 29  2  0
 29 30  1  0
 31 30  2  0
 32 31  1  0
 33 32  2  0
 33 28  1  0
 34 23  1  0
 35 34  2  0
 36 34  1  0
M  END
$$$$
