EYW.pdb
     RDKit          3D

 36 38  0  0  1  0  0  0  0  0999 V2000
   26.9947  -19.2473  -17.0752 N   0  0  0  0  0  0  0  0  0  0  0  0
   27.1217  -20.3269  -16.0927 C   0  0  1  0  0  0  0  0  0  0  0  0
   28.6118  -20.4411  -15.8333 C   0  0  0  0  0  0  0  0  0  0  0  0
   29.3641  -21.0797  -16.9471 C   0  0  0  0  0  0  0  0  0  0  0  0
   28.8965  -22.4730  -17.1415 C   0  0  0  0  0  0  0  0  0  0  0  0
   29.0392  -23.2864  -16.1842 O   0  0  0  0  0  0  0  0  0  0  0  0
   26.3870  -19.9293  -14.8789 C   0  0  0  0  0  0  0  0  0  0  0  0
   26.1384  -18.7003  -14.6999 O   0  0  0  0  0  0  0  0  0  0  0  0
   28.3118  -22.9540  -18.2999 O   0  0  0  0  0  0  0  0  0  0  0  0
   20.6004  -22.7433  -16.8306 O   0  0  0  0  0  0  0  0  0  0  0  0
   21.4158  -21.9671  -15.9867 C   0  0  0  0  0  0  0  0  0  0  0  0
   21.3399  -22.1042  -14.6195 C   0  0  0  0  0  0  0  0  0  0  0  0
   22.1318  -21.3490  -13.7976 C   0  0  0  0  0  0  0  0  0  0  0  0
   23.0368  -20.4246  -14.2668 C   0  0  0  0  0  0  0  0  0  0  0  0
   23.8783  -19.6347  -13.3832 C   0  0  0  0  0  0  0  0  0  0  0  0
   25.0614  -20.2991  -12.7524 C   0  0  2  0  0  0  0  0  0  0  0  0
   25.9191  -20.8068  -13.8739 N   0  0  0  0  0  0  0  0  0  0  0  0
   24.7785  -21.4200  -11.8451 C   0  0  0  0  0  0  0  0  0  0  0  0
   23.8628  -22.2780  -12.1343 O   0  0  0  0  0  0  0  0  0  0  0  0
   23.1099  -20.2908  -15.6560 C   0  0  0  0  0  0  0  0  0  0  0  0
   22.3103  -21.0517  -16.4944 C   0  0  0  0  0  0  0  0  0  0  0  0
   25.4346  -21.6910  -10.6195 N   0  0  0  0  0  0  0  0  0  0  0  0
   25.0098  -21.1337   -9.3603 C   0  0  1  0  0  0  0  0  0  0  0  0
   25.7272  -19.8473   -9.0296 C   0  0  0  0  0  0  0  0  0  0  0  0
   27.0766  -20.1940   -8.5296 C   0  0  0  0  0  0  0  0  0  0  0  0
   28.0340  -20.8740   -9.2779 C   0  0  0  0  0  0  0  0  0  0  0  0
   29.1524  -21.0569   -8.5831 N   0  0  0  0  0  0  0  0  0  0  0  0
   28.9660  -20.5068   -7.3631 C   0  0  0  0  0  0  0  0  0  0  0  0
   29.8012  -20.4025   -6.2486 C   0  0  0  0  0  0  0  0  0  0  0  0
   29.3307  -19.7651   -5.1201 C   0  0  0  0  0  0  0  0  0  0  0  0
   28.0496  -19.2355   -5.0901 C   0  0  0  0  0  0  0  0  0  0  0  0
   27.2031  -19.3333   -6.2005 C   0  0  0  0  0  0  0  0  0  0  0  0
   27.6797  -19.9678   -7.3173 C   0  0  0  0  0  0  0  0  0  0  0  0
   23.5563  -20.9887   -9.2827 C   0  0  0  0  0  0  0  0  0  0  0  0
   22.9254  -20.3305  -10.1164 O   0  0  0  0  0  0  0  0  0  0  0  0
   22.8278  -21.5923   -8.2625 O   0  0  0  0  0  0  0  0  0  0  0  0
  2  1  1  6
  3  2  1  0
  4  5  1  0
  4  3  1  0
  5  6  2  0
  7  2  1  0
  8  7  2  0
  9  5  1  0
 10 11  1  0
 11 12  2  0
 12 13  1  0
 14 15  1  0
 14 13  2  0
 16 15  1  6
 16 17  1  0
 17  7  1  0
 18 19  2  0
 18 16  1  0
 20 14  1  0
 21 20  2  0
 21 11  1  0
 22 18  1  0
 23 22  1  0
 23 24  1  6
 24 25  1  0
 25 26  2  0
 25 33  1  0
 26 27  1  0
 27 28  1  0
 28 29  2  0
 29 30  1  0
 31 30  2  0
 32 31  1  0
 33 32  2  0
 33 28  1  0
 34 23  1  0
 35 34  2  0
 36 34  1  0
M  END
$$$$
