EYW.pdb
     RDKit          3D

 36 38  0  0  1  0  0  0  0  0999 V2000
   26.5315  -22.1618  -17.4503 N   0  0  0  0  0  0  0  0  0  0  0  0
   26.3962  -20.9965  -16.5725 C   0  0  1  0  0  0  0  0  0  0  0  0
   25.4462  -20.0682  -17.3048 C   0  0  0  0  0  0  0  0  0  0  0  0
   26.0037  -19.5222  -18.5718 C   0  0  0  0  0  0  0  0  0  0  0  0
   27.1874  -18.6778  -18.2827 C   0  0  0  0  0  0  0  0  0  0  0  0
   27.0670  -17.7619  -17.4197 O   0  0  0  0  0  0  0  0  0  0  0  0
   25.8311  -21.4529  -15.2905 C   0  0  0  0  0  0  0  0  0  0  0  0
   24.7572  -22.1242  -15.3098 O   0  0  0  0  0  0  0  0  0  0  0  0
   28.4227  -18.8174  -18.8905 O   0  0  0  0  0  0  0  0  0  0  0  0
   25.5809  -19.3541   -6.6628 O   0  0  0  0  0  0  0  0  0  0  0  0
   25.8651  -19.9423   -7.9089 C   0  0  0  0  0  0  0  0  0  0  0  0
   25.1377  -21.0213   -8.3562 C   0  0  0  0  0  0  0  0  0  0  0  0
   25.4139  -21.5951   -9.5677 C   0  0  0  0  0  0  0  0  0  0  0  0
   26.4109  -21.1454  -10.4028 C   0  0  0  0  0  0  0  0  0  0  0  0
   26.6886  -21.7584  -11.6912 C   0  0  0  0  0  0  0  0  0  0  0  0
   25.6590  -21.6348  -12.7699 C   0  0  2  0  0  0  0  0  0  0  0  0
   26.3856  -21.2115  -14.0125 N   0  0  0  0  0  0  0  0  0  0  0  0
   24.5662  -20.6824  -12.5284 C   0  0  0  0  0  0  0  0  0  0  0  0
   24.8074  -19.4201  -12.4468 O   0  0  0  0  0  0  0  0  0  0  0  0
   27.1454  -20.0488   -9.9433 C   0  0  0  0  0  0  0  0  0  0  0  0
   26.8717  -19.4633   -8.7171 C   0  0  0  0  0  0  0  0  0  0  0  0
   23.1957  -21.0033  -12.3708 N   0  0  0  0  0  0  0  0  0  0  0  0
   22.1891  -20.0208  -12.0577 C   0  0  1  0  0  0  0  0  0  0  0  0
   22.1937  -18.8639  -13.0274 C   0  0  0  0  0  0  0  0  0  0  0  0
   21.5251  -19.3091  -14.2707 C   0  0  0  0  0  0  0  0  0  0  0  0
   20.2604  -19.8902  -14.3103 C   0  0  0  0  0  0  0  0  0  0  0  0
   19.9067  -20.1977  -15.5542 N   0  0  0  0  0  0  0  0  0  0  0  0
   20.9224  -19.8313  -16.3666 C   0  0  0  0  0  0  0  0  0  0  0  0
   21.0856  -19.9113  -17.7513 C   0  0  0  0  0  0  0  0  0  0  0  0
   22.2528  -19.4389  -18.3134 C   0  0  0  0  0  0  0  0  0  0  0  0
   23.2493  -18.8931  -17.5188 C   0  0  0  0  0  0  0  0  0  0  0  0
   23.0976  -18.8070  -16.1300 C   0  0  0  0  0  0  0  0  0  0  0  0
   21.9343  -19.2783  -15.5808 C   0  0  0  0  0  0  0  0  0  0  0  0
   20.8604  -20.6164  -11.9180 C   0  0  0  0  0  0  0  0  0  0  0  0
   19.9142  -19.9840  -11.4370 O   0  0  0  0  0  0  0  0  0  0  0  0
   20.6126  -21.9232  -12.3263 O   0  0  0  0  0  0  0  0  0  0  0  0
  2  1  1  6
  3  2  1  0
  4  5  1  0
  4  3  1  0
  5  6  2  0
  7  2  1  0
  8  7  2  0
  9  5  1  0
 10 11  1  0
 11 12  2  0
 12 13  1  0
 14 15  1  0
 14 13  2  0
 16 15  1  1
 16 17  1  0
 17  7  1  0
 18 19  2  0
 18 16  1  0
 20 14  1  0
 21 20  2  0
 21 11  1  0
 22 18  1  0
 23 22  1  0
 23 24  1  6
 24 25  1  0
 25 26  2  0
 25 33  1  0
 26 27  1  0
 27 28  1  0
 28 29  2  0
 29 30  1  0
 31 30  2  0
 32 31  1  0
 33 32  2  0
 33 28  1  0
 34 23  1  0
 35 34  2  0
 36 34  1  0
M  END
$$$$
