EYW.pdb
     RDKit          3D

 36 38  0  0  1  0  0  0  0  0999 V2000
   27.8522  -18.5477  -18.5770 N   0  0  0  0  0  0  0  0  0  0  0  0
   27.8569  -19.6950  -17.6656 C   0  0  1  0  0  0  0  0  0  0  0  0
   29.1583  -20.4170  -17.9587 C   0  0  0  0  0  0  0  0  0  0  0  0
   29.3150  -20.8089  -19.3856 C   0  0  0  0  0  0  0  0  0  0  0  0
   30.7129  -20.5814  -19.8235 C   0  0  0  0  0  0  0  0  0  0  0  0
   30.9049  -20.1454  -20.9945 O   0  0  0  0  0  0  0  0  0  0  0  0
   27.8180  -19.1823  -16.2848 C   0  0  0  0  0  0  0  0  0  0  0  0
   28.0594  -17.9543  -16.0905 O   0  0  0  0  0  0  0  0  0  0  0  0
   31.8313  -20.8120  -19.0419 O   0  0  0  0  0  0  0  0  0  0  0  0
   20.9164  -20.5273  -14.6033 O   0  0  0  0  0  0  0  0  0  0  0  0
   22.2070  -19.9821  -14.4743 C   0  0  0  0  0  0  0  0  0  0  0  0
   22.7063  -19.6496  -13.2359 C   0  0  0  0  0  0  0  0  0  0  0  0
   23.9612  -19.1183  -13.1092 C   0  0  0  0  0  0  0  0  0  0  0  0
   24.7913  -18.8860  -14.1821 C   0  0  0  0  0  0  0  0  0  0  0  0
   26.1255  -18.3290  -14.0332 C   0  0  0  0  0  0  0  0  0  0  0  0
   27.2658  -19.2729  -13.8144 C   0  0  2  0  0  0  0  0  0  0  0  0
   27.5274  -19.9449  -15.1301 N   0  0  0  0  0  0  0  0  0  0  0  0
   27.0698  -20.3144  -12.7963 C   0  0  0  0  0  0  0  0  0  0  0  0
   26.4489  -21.4040  -13.0891 O   0  0  0  0  0  0  0  0  0  0  0  0
   24.2788  -19.2267  -15.4368 C   0  0  0  0  0  0  0  0  0  0  0  0
   23.0085  -19.7644  -15.5725 C   0  0  0  0  0  0  0  0  0  0  0  0
   27.5129  -20.2648  -11.4519 N   0  0  0  0  0  0  0  0  0  0  0  0
   27.1482  -21.2515  -10.4671 C   0  0  1  0  0  0  0  0  0  0  0  0
   28.1294  -21.3102   -9.3213 C   0  0  0  0  0  0  0  0  0  0  0  0
   27.4199  -20.8897   -8.0922 C   0  0  0  0  0  0  0  0  0  0  0  0
   26.0385  -20.9533   -7.9294 C   0  0  0  0  0  0  0  0  0  0  0  0
   25.6704  -20.5082   -6.7321 N   0  0  0  0  0  0  0  0  0  0  0  0
   26.7917  -20.1394   -6.0746 C   0  0  0  0  0  0  0  0  0  0  0  0
   26.9946  -19.6165   -4.7955 C   0  0  0  0  0  0  0  0  0  0  0  0
   28.2814  -19.3386   -4.3852 C   0  0  0  0  0  0  0  0  0  0  0  0
   29.3577  -19.5737   -5.2271 C   0  0  0  0  0  0  0  0  0  0  0  0
   29.1675  -20.0976   -6.5110 C   0  0  0  0  0  0  0  0  0  0  0  0
   27.8856  -20.3711   -6.9094 C   0  0  0  0  0  0  0  0  0  0  0  0
   25.7706  -21.0868  -10.0038 C   0  0  0  0  0  0  0  0  0  0  0  0
   25.2115  -19.9850  -10.0123 O   0  0  0  0  0  0  0  0  0  0  0  0
   25.0354  -22.1716   -9.5363 O   0  0  0  0  0  0  0  0  0  0  0  0
  2  1  1  6
  3  2  1  0
  4  5  1  0
  4  3  1  0
  5  6  2  0
  7  2  1  0
  8  7  2  0
  9  5  1  0
 10 11  1  0
 11 12  2  0
 12 13  1  0
 14 15  1  0
 14 13  2  0
 16 15  1  6
 16 17  1  0
 17  7  1  0
 18 19  2  0
 18 16  1  0
 20 14  1  0
 21 20  2  0
 21 11  1  0
 22 18  1  0
 23 22  1  0
 23 24  1  1
 24 25  1  0
 25 26  2  0
 25 33  1  0
 26 27  1  0
 27 28  1  0
 28 29  2  0
 29 30  1  0
 31 30  2  0
 32 31  1  0
 33 32  2  0
 33 28  1  0
 34 23  1  0
 35 34  2  0
 36 34  1  0
M  END
$$$$
