EYW.pdb
     RDKit          3D

 36 38  0  0  1  0  0  0  0  0999 V2000
   28.2970  -19.8800  -17.7625 N   0  0  0  0  0  0  0  0  0  0  0  0
   27.4293  -20.6808  -16.8950 C   0  0  1  0  0  0  0  0  0  0  0  0
   28.3520  -21.2274  -15.8224 C   0  0  0  0  0  0  0  0  0  0  0  0
   28.2472  -22.7004  -15.6392 C   0  0  0  0  0  0  0  0  0  0  0  0
   28.9150  -23.4001  -16.7627 C   0  0  0  0  0  0  0  0  0  0  0  0
   30.1411  -23.1661  -16.9633 O   0  0  0  0  0  0  0  0  0  0  0  0
   26.4024  -19.7896  -16.3271 C   0  0  0  0  0  0  0  0  0  0  0  0
   26.7790  -18.8146  -15.6117 O   0  0  0  0  0  0  0  0  0  0  0  0
   28.2932  -24.2960  -17.6145 O   0  0  0  0  0  0  0  0  0  0  0  0
   20.3670  -19.7062  -21.1927 O   0  0  0  0  0  0  0  0  0  0  0  0
   21.1735  -19.2734  -20.1241 C   0  0  0  0  0  0  0  0  0  0  0  0
   22.5456  -19.3169  -20.2199 C   0  0  0  0  0  0  0  0  0  0  0  0
   23.3312  -18.8972  -19.1808 C   0  0  0  0  0  0  0  0  0  0  0  0
   22.8190  -18.4139  -17.9984 C   0  0  0  0  0  0  0  0  0  0  0  0
   23.6646  -17.9632  -16.9054 C   0  0  0  0  0  0  0  0  0  0  0  0
   24.0565  -18.9574  -15.8580 C   0  0  2  0  0  0  0  0  0  0  0  0
   25.0063  -19.9184  -16.5102 N   0  0  0  0  0  0  0  0  0  0  0  0
   22.9668  -19.7306  -15.2463 C   0  0  0  0  0  0  0  0  0  0  0  0
   22.5467  -20.8153  -15.7990 O   0  0  0  0  0  0  0  0  0  0  0  0
   21.4251  -18.3714  -17.9077 C   0  0  0  0  0  0  0  0  0  0  0  0
   20.6234  -18.7955  -18.9558 C   0  0  0  0  0  0  0  0  0  0  0  0
   22.2849  -19.4115  -14.0465 N   0  0  0  0  0  0  0  0  0  0  0  0
   21.1529  -20.1603  -13.5626 C   0  0  1  0  0  0  0  0  0  0  0  0
   20.7458  -19.7500  -12.1680 C   0  0  0  0  0  0  0  0  0  0  0  0
   19.6370  -20.6319  -11.7393 C   0  0  0  0  0  0  0  0  0  0  0  0
   19.8165  -21.8443  -11.0784 C   0  0  0  0  0  0  0  0  0  0  0  0
   18.6526  -22.4310  -10.8169 N   0  0  0  0  0  0  0  0  0  0  0  0
   17.6773  -21.6277  -11.2958 C   0  0  0  0  0  0  0  0  0  0  0  0
   16.2856  -21.7436  -11.2897 C   0  0  0  0  0  0  0  0  0  0  0  0
   15.5304  -20.7399  -11.8584 C   0  0  0  0  0  0  0  0  0  0  0  0
   16.1408  -19.6327  -12.4277 C   0  0  0  0  0  0  0  0  0  0  0  0
   17.5346  -19.5047  -12.4399 C   0  0  0  0  0  0  0  0  0  0  0  0
   18.2763  -20.5067  -11.8718 C   0  0  0  0  0  0  0  0  0  0  0  0
   20.0277  -20.1261  -14.4967 C   0  0  0  0  0  0  0  0  0  0  0  0
   19.6883  -19.0824  -15.0642 O   0  0  0  0  0  0  0  0  0  0  0  0
   19.2967  -21.2747  -14.7830 O   0  0  0  0  0  0  0  0  0  0  0  0
  2  1  1  6
  3  2  1  0
  4  5  1  0
  4  3  1  0
  5  6  2  0
  7  2  1  0
  8  7  2  0
  9  5  1  0
 10 11  1  0
 11 12  2  0
 12 13  1  0
 14 15  1  0
 14 13  2  0
 16 15  1  6
 16 17  1  0
 17  7  1  0
 18 19  2  0
 18 16  1  0
 20 14  1  0
 21 20  2  0
 21 11  1  0
 22 18  1  0
 23 22  1  0
 23 24  1  1
 24 25  1  0
 25 26  2  0
 25 33  1  0
 26 27  1  0
 27 28  1  0
 28 29  2  0
 29 30  1  0
 31 30  2  0
 32 31  1  0
 33 32  2  0
 33 28  1  0
 34 23  1  0
 35 34  2  0
 36 34  1  0
M  END
$$$$
