EYW.pdb
     RDKit          3D

 36 38  0  0  1  0  0  0  0  0999 V2000
   25.2745  -18.2803  -18.0143 N   0  0  0  0  0  0  0  0  0  0  0  0
   26.1907  -18.7649  -16.9787 C   0  0  1  0  0  0  0  0  0  0  0  0
   27.2201  -17.6616  -16.8251 C   0  0  0  0  0  0  0  0  0  0  0  0
   28.2288  -17.6302  -17.9186 C   0  0  0  0  0  0  0  0  0  0  0  0
   29.0243  -18.8811  -17.9110 C   0  0  0  0  0  0  0  0  0  0  0  0
   28.8027  -19.7314  -18.8199 O   0  0  0  0  0  0  0  0  0  0  0  0
   25.4171  -18.9638  -15.7405 C   0  0  0  0  0  0  0  0  0  0  0  0
   24.7757  -17.9803  -15.2657 O   0  0  0  0  0  0  0  0  0  0  0  0
   29.9978  -19.1905  -16.9775 O   0  0  0  0  0  0  0  0  0  0  0  0
   19.3435  -22.0207  -10.1414 O   0  0  0  0  0  0  0  0  0  0  0  0
   20.3245  -21.7972  -11.1249 C   0  0  0  0  0  0  0  0  0  0  0  0
   21.3422  -22.7031  -11.3177 C   0  0  0  0  0  0  0  0  0  0  0  0
   22.2975  -22.4863  -12.2734 C   0  0  0  0  0  0  0  0  0  0  0  0
   22.3078  -21.3775  -13.0885 C   0  0  0  0  0  0  0  0  0  0  0  0
   23.3237  -21.1632  -14.1057 C   0  0  0  0  0  0  0  0  0  0  0  0
   24.4709  -20.2593  -13.7803 C   0  0  2  0  0  0  0  0  0  0  0  0
   25.3166  -20.1742  -15.0167 N   0  0  0  0  0  0  0  0  0  0  0  0
   25.3312  -20.6673  -12.6609 C   0  0  0  0  0  0  0  0  0  0  0  0
   26.1368  -21.6641  -12.7874 O   0  0  0  0  0  0  0  0  0  0  0  0
   21.2712  -20.4618  -12.8884 C   0  0  0  0  0  0  0  0  0  0  0  0
   20.3008  -20.6745  -11.9218 C   0  0  0  0  0  0  0  0  0  0  0  0
   25.3898  -20.0567  -11.3843 N   0  0  0  0  0  0  0  0  0  0  0  0
   26.1836  -20.5767  -10.2998 C   0  0  1  0  0  0  0  0  0  0  0  0
   27.4949  -19.8451  -10.1448 C   0  0  0  0  0  0  0  0  0  0  0  0
   28.2291  -20.4604   -9.0164 C   0  0  0  0  0  0  0  0  0  0  0  0
   28.9283  -21.6613   -9.1040 C   0  0  0  0  0  0  0  0  0  0  0  0
   29.4887  -21.9821   -7.9420 N   0  0  0  0  0  0  0  0  0  0  0  0
   29.1763  -21.0081   -7.0590 C   0  0  0  0  0  0  0  0  0  0  0  0
   29.5016  -20.8292   -5.7127 C   0  0  0  0  0  0  0  0  0  0  0  0
   29.0368  -19.7084   -5.0576 C   0  0  0  0  0  0  0  0  0  0  0  0
   28.2591  -18.7730   -5.7229 C   0  0  0  0  0  0  0  0  0  0  0  0
   27.9265  -18.9406   -7.0721 C   0  0  0  0  0  0  0  0  0  0  0  0
   28.3935  -20.0569   -7.7145 C   0  0  0  0  0  0  0  0  0  0  0  0
   25.4341  -20.6344   -9.0449 C   0  0  0  0  0  0  0  0  0  0  0  0
   24.5968  -19.7750   -8.7502 O   0  0  0  0  0  0  0  0  0  0  0  0
   25.6368  -21.6665   -8.1341 O   0  0  0  0  0  0  0  0  0  0  0  0
  2  1  1  6
  3  2  1  0
  4  5  1  0
  4  3  1  0
  5  6  2  0
  7  2  1  0
  8  7  2  0
  9  5  1  0
 10 11  1  0
 11 12  2  0
 12 13  1  0
 14 15  1  0
 14 13  2  0
 16 15  1  6
 16 17  1  0
 17  7  1  0
 18 19  2  0
 18 16  1  0
 20 14  1  0
 21 20  2  0
 21 11  1  0
 22 18  1  0
 23 22  1  0
 23 24  1  1
 24 25  1  0
 25 26  2  0
 25 33  1  0
 26 27  1  0
 27 28  1  0
 28 29  2  0
 29 30  1  0
 31 30  2  0
 32 31  1  0
 33 32  2  0
 33 28  1  0
 34 23  1  0
 35 34  2  0
 36 34  1  0
M  END
$$$$
