EYW.pdb
     RDKit          3D

 36 38  0  0  1  0  0  0  0  0999 V2000
   26.0546  -19.4923  -16.3571 N   0  0  0  0  0  0  0  0  0  0  0  0
   26.6041  -20.3945  -15.3417 C   0  0  1  0  0  0  0  0  0  0  0  0
   28.0792  -20.0479  -15.2732 C   0  0  0  0  0  0  0  0  0  0  0  0
   28.8645  -20.5500  -16.4330 C   0  0  0  0  0  0  0  0  0  0  0  0
   28.8318  -22.0317  -16.4645 C   0  0  0  0  0  0  0  0  0  0  0  0
   28.7943  -22.6011  -17.5927 O   0  0  0  0  0  0  0  0  0  0  0  0
   25.9202  -20.1181  -14.0661 C   0  0  0  0  0  0  0  0  0  0  0  0
   25.7186  -18.9112  -13.7392 O   0  0  0  0  0  0  0  0  0  0  0  0
   28.8390  -22.8444  -15.3446 O   0  0  0  0  0  0  0  0  0  0  0  0
   19.6040  -18.8155  -15.3549 O   0  0  0  0  0  0  0  0  0  0  0  0
   20.5415  -19.4114  -14.4915 C   0  0  0  0  0  0  0  0  0  0  0  0
   21.2608  -20.5140  -14.8921 C   0  0  0  0  0  0  0  0  0  0  0  0
   22.1723  -21.0951  -14.0527 C   0  0  0  0  0  0  0  0  0  0  0  0
   22.4285  -20.6302  -12.7830 C   0  0  0  0  0  0  0  0  0  0  0  0
   23.4056  -21.2515  -11.9044 C   0  0  0  0  0  0  0  0  0  0  0  0
   24.7894  -20.6831  -11.8711 C   0  0  2  0  0  0  0  0  0  0  0  0
   25.4538  -21.0915  -13.1529 N   0  0  0  0  0  0  0  0  0  0  0  0
   25.6457  -21.1048  -10.7537 C   0  0  0  0  0  0  0  0  0  0  0  0
   25.6300  -22.3258  -10.3449 O   0  0  0  0  0  0  0  0  0  0  0  0
   21.6957  -19.5097  -12.3825 C   0  0  0  0  0  0  0  0  0  0  0  0
   20.7704  -18.9166  -13.2271 C   0  0  0  0  0  0  0  0  0  0  0  0
   26.5452  -20.2827  -10.0319 N   0  0  0  0  0  0  0  0  0  0  0  0
   27.0521  -20.6278   -8.7279 C   0  0  1  0  0  0  0  0  0  0  0  0
   28.1027  -19.6577   -8.2441 C   0  0  0  0  0  0  0  0  0  0  0  0
   28.5702  -20.1172   -6.9170 C   0  0  0  0  0  0  0  0  0  0  0  0
   29.1593  -21.3572   -6.6847 C   0  0  0  0  0  0  0  0  0  0  0  0
   29.4779  -21.5103   -5.4032 N   0  0  0  0  0  0  0  0  0  0  0  0
   29.1096  -20.3825   -4.7566 C   0  0  0  0  0  0  0  0  0  0  0  0
   29.2123  -19.9981   -3.4179 C   0  0  0  0  0  0  0  0  0  0  0  0
   28.7475  -18.7550   -3.0436 C   0  0  0  0  0  0  0  0  0  0  0  0
   28.1870  -17.8991   -3.9794 C   0  0  0  0  0  0  0  0  0  0  0  0
   28.0786  -18.2726   -5.3240 C   0  0  0  0  0  0  0  0  0  0  0  0
   28.5437  -19.5092   -5.6863 C   0  0  0  0  0  0  0  0  0  0  0  0
   25.9803  -20.8112   -7.7494 C   0  0  0  0  0  0  0  0  0  0  0  0
   25.0679  -19.9873   -7.6257 O   0  0  0  0  0  0  0  0  0  0  0  0
   25.9486  -21.9276   -6.9197 O   0  0  0  0  0  0  0  0  0  0  0  0
  2  1  1  6
  3  2  1  0
  4  5  1  0
  4  3  1  0
  5  6  2  0
  7  2  1  0
  8  7  2  0
  9  5  1  0
 10 11  1  0
 11 12  2  0
 12 13  1  0
 14 15  1  0
 14 13  2  0
 16 15  1  1
 16 17  1  0
 17  7  1  0
 18 19  2  0
 18 16  1  0
 20 14  1  0
 21 20  2  0
 21 11  1  0
 22 18  1  0
 23 22  1  0
 23 24  1  1
 24 25  1  0
 25 26  2  0
 25 33  1  0
 26 27  1  0
 27 28  1  0
 28 29  2  0
 29 30  1  0
 31 30  2  0
 32 31  1  0
 33 32  2  0
 33 28  1  0
 34 23  1  0
 35 34  2  0
 36 34  1  0
M  END
$$$$
