EYW.pdb
     RDKit          3D

 36 38  0  0  1  0  0  0  0  0999 V2000
   16.5387   -9.4659  -21.0636 N   0  0  0  0  0  0  0  0  0  0  0  0
   17.0430   -9.7411  -19.7157 C   0  0  1  0  0  0  0  0  0  0  0  0
   17.7048  -11.1019  -19.8201 C   0  0  0  0  0  0  0  0  0  0  0  0
   16.7386  -12.2291  -19.9199 C   0  0  0  0  0  0  0  0  0  0  0  0
   16.4628  -12.5361  -21.3438 C   0  0  0  0  0  0  0  0  0  0  0  0
   17.4209  -12.9466  -22.0592 O   0  0  0  0  0  0  0  0  0  0  0  0
   18.0139   -8.6890  -19.3671 C   0  0  0  0  0  0  0  0  0  0  0  0
   18.6640   -8.1346  -20.3021 O   0  0  0  0  0  0  0  0  0  0  0  0
   15.2273  -12.4062  -21.9532 O   0  0  0  0  0  0  0  0  0  0  0  0
   21.7871   -1.6525  -15.3414 O   0  0  0  0  0  0  0  0  0  0  0  0
   21.0095   -2.7340  -15.7945 C   0  0  0  0  0  0  0  0  0  0  0  0
   20.7385   -3.7978  -14.9649 C   0  0  0  0  0  0  0  0  0  0  0  0
   19.9831   -4.8509  -15.4048 C   0  0  0  0  0  0  0  0  0  0  0  0
   19.4540   -4.9187  -16.6734 C   0  0  0  0  0  0  0  0  0  0  0  0
   18.6460   -6.0391  -17.1256 C   0  0  0  0  0  0  0  0  0  0  0  0
   19.3320   -7.1671  -17.8300 C   0  0  2  0  0  0  0  0  0  0  0  0
   18.2940   -8.2256  -18.0610 N   0  0  0  0  0  0  0  0  0  0  0  0
   20.4696   -7.7821  -17.1320 C   0  0  0  0  0  0  0  0  0  0  0  0
   20.3035   -8.8460  -16.4257 O   0  0  0  0  0  0  0  0  0  0  0  0
   19.7320   -3.8348  -17.5107 C   0  0  0  0  0  0  0  0  0  0  0  0
   20.4969   -2.7654  -17.0721 C   0  0  0  0  0  0  0  0  0  0  0  0
   21.8091   -7.3221  -17.1474 N   0  0  0  0  0  0  0  0  0  0  0  0
   22.8765   -7.9861  -16.4430 C   0  0  1  0  0  0  0  0  0  0  0  0
   23.2568   -9.3000  -17.0817 C   0  0  0  0  0  0  0  0  0  0  0  0
   24.3573   -9.8907  -16.2875 C   0  0  0  0  0  0  0  0  0  0  0  0
   24.1654  -10.6861  -15.1608 C   0  0  0  0  0  0  0  0  0  0  0  0
   25.3243  -11.0775  -14.6403 N   0  0  0  0  0  0  0  0  0  0  0  0
   26.3087  -10.5541  -15.4037 C   0  0  0  0  0  0  0  0  0  0  0  0
   27.7000  -10.6461  -15.3251 C   0  0  0  0  0  0  0  0  0  0  0  0
   28.4656   -9.9975  -16.2708 C   0  0  0  0  0  0  0  0  0  0  0  0
   27.8661   -9.2653  -17.2842 C   0  0  0  0  0  0  0  0  0  0  0  0
   26.4728   -9.1657  -17.3740 C   0  0  0  0  0  0  0  0  0  0  0  0
   25.7206   -9.8141  -16.4303 C   0  0  0  0  0  0  0  0  0  0  0  0
   24.0346   -7.1144  -16.2461 C   0  0  0  0  0  0  0  0  0  0  0  0
   24.5260   -6.4695  -17.1784 O   0  0  0  0  0  0  0  0  0  0  0  0
   24.6262   -6.9778  -14.9942 O   0  0  0  0  0  0  0  0  0  0  0  0
  2  1  1  6
  3  2  1  0
  4  5  1  0
  4  3  1  0
  5  6  2  0
  7  2  1  0
  8  7  2  0
  9  5  1  0
 10 11  1  0
 11 12  2  0
 12 13  1  0
 14 15  1  0
 14 13  2  0
 16 15  1  1
 16 17  1  0
 17  7  1  0
 18 19  2  0
 18 16  1  0
 20 14  1  0
 21 20  2  0
 21 11  1  0
 22 18  1  0
 23 22  1  0
 23 24  1  6
 24 25  1  0
 25 26  2  0
 25 33  1  0
 26 27  1  0
 27 28  1  0
 28 29  2  0
 29 30  1  0
 31 30  2  0
 32 31  1  0
 33 32  2  0
 33 28  1  0
 34 23  1  0
 35 34  2  0
 36 34  1  0
M  END
$$$$
