EYW.pdb
     RDKit          3D

 36 38  0  0  1  0  0  0  0  0999 V2000
   25.5194  -19.0313  -20.9744 N   0  0  0  0  0  0  0  0  0  0  0  0
   25.5538  -19.8889  -19.7868 C   0  0  1  0  0  0  0  0  0  0  0  0
   26.8949  -19.6003  -19.1395 C   0  0  0  0  0  0  0  0  0  0  0  0
   28.0301  -20.3279  -19.7690 C   0  0  0  0  0  0  0  0  0  0  0  0
   28.9256  -19.3699  -20.4604 C   0  0  0  0  0  0  0  0  0  0  0  0
   28.7335  -18.1347  -20.2710 O   0  0  0  0  0  0  0  0  0  0  0  0
   24.4329  -19.5032  -18.9117 C   0  0  0  0  0  0  0  0  0  0  0  0
   24.3473  -18.2961  -18.5379 O   0  0  0  0  0  0  0  0  0  0  0  0
   29.9629  -19.7280  -21.3033 O   0  0  0  0  0  0  0  0  0  0  0  0
   16.3525  -19.5161  -14.9894 O   0  0  0  0  0  0  0  0  0  0  0  0
   17.5122  -19.7058  -15.7633 C   0  0  0  0  0  0  0  0  0  0  0  0
   18.1016  -18.6457  -16.4132 C   0  0  0  0  0  0  0  0  0  0  0  0
   19.2290  -18.8292  -17.1671 C   0  0  0  0  0  0  0  0  0  0  0  0
   19.8378  -20.0534  -17.3239 C   0  0  0  0  0  0  0  0  0  0  0  0
   21.0401  -20.2333  -18.1207 C   0  0  0  0  0  0  0  0  0  0  0  0
   22.3556  -19.8674  -17.5086 C   0  0  2  0  0  0  0  0  0  0  0  0
   23.4189  -20.3689  -18.4409 N   0  0  0  0  0  0  0  0  0  0  0  0
   22.6279  -20.4043  -16.1681 C   0  0  0  0  0  0  0  0  0  0  0  0
   22.9740  -21.6355  -16.0166 O   0  0  0  0  0  0  0  0  0  0  0  0
   19.2350  -21.1256  -16.6607 C   0  0  0  0  0  0  0  0  0  0  0  0
   18.0927  -20.9473  -15.8961 C   0  0  0  0  0  0  0  0  0  0  0  0
   22.5574  -19.6870  -14.9488 N   0  0  0  0  0  0  0  0  0  0  0  0
   22.7844  -20.2974  -13.6633 C   0  0  1  0  0  0  0  0  0  0  0  0
   23.3503  -19.3248  -12.6570 C   0  0  0  0  0  0  0  0  0  0  0  0
   23.5901  -20.0622  -11.3961 C   0  0  0  0  0  0  0  0  0  0  0  0
   24.8020  -20.6609  -11.0619 C   0  0  0  0  0  0  0  0  0  0  0  0
   24.7370  -21.2584   -9.8762 N   0  0  0  0  0  0  0  0  0  0  0  0
   23.4872  -21.0729   -9.3970 C   0  0  0  0  0  0  0  0  0  0  0  0
   22.8749  -21.4723   -8.2070 C   0  0  0  0  0  0  0  0  0  0  0  0
   21.5600  -21.1222   -7.9837 C   0  0  0  0  0  0  0  0  0  0  0  0
   20.8554  -20.3859   -8.9238 C   0  0  0  0  0  0  0  0  0  0  0  0
   21.4579  -19.9795  -10.1201 C   0  0  0  0  0  0  0  0  0  0  0  0
   22.7647  -20.3315  -10.3326 C   0  0  0  0  0  0  0  0  0  0  0  0
   21.5939  -20.9810  -13.1585 C   0  0  0  0  0  0  0  0  0  0  0  0
   20.4871  -20.4318  -13.1473 O   0  0  0  0  0  0  0  0  0  0  0  0
   21.6651  -22.2826  -12.6721 O   0  0  0  0  0  0  0  0  0  0  0  0
  2  1  1  6
  3  2  1  0
  4  5  1  0
  4  3  1  0
  5  6  2  0
  7  2  1  0
  8  7  2  0
  9  5  1  0
 10 11  1  0
 11 12  2  0
 12 13  1  0
 14 15  1  0
 14 13  2  0
 16 15  1  6
 16 17  1  0
 17  7  1  0
 18 19  2  0
 18 16  1  0
 20 14  1  0
 21 20  2  0
 21 11  1  0
 22 18  1  0
 23 22  1  0
 23 24  1  1
 24 25  1  0
 25 26  2  0
 25 33  1  0
 26 27  1  0
 27 28  1  0
 28 29  2  0
 29 30  1  0
 31 30  2  0
 32 31  1  0
 33 32  2  0
 33 28  1  0
 34 23  1  0
 35 34  2  0
 36 34  1  0
M  END
$$$$
