EYW.pdb
     RDKit          3D

 36 38  0  0  1  0  0  0  0  0999 V2000
   23.7799  -18.4461  -16.2428 N   0  0  0  0  0  0  0  0  0  0  0  0
   24.6466  -19.0736  -15.2418 C   0  0  1  0  0  0  0  0  0  0  0  0
   25.8259  -18.1297  -15.1043 C   0  0  0  0  0  0  0  0  0  0  0  0
   26.6374  -18.0041  -16.3452 C   0  0  0  0  0  0  0  0  0  0  0  0
   27.4853  -19.2074  -16.5206 C   0  0  0  0  0  0  0  0  0  0  0  0
   27.7468  -19.9039  -15.4984 O   0  0  0  0  0  0  0  0  0  0  0  0
   23.8874  -19.1830  -13.9837 C   0  0  0  0  0  0  0  0  0  0  0  0
   23.1753  -18.2001  -13.6218 O   0  0  0  0  0  0  0  0  0  0  0  0
   28.0161  -19.6287  -17.7271 O   0  0  0  0  0  0  0  0  0  0  0  0
   17.5567  -20.0730  -15.3154 O   0  0  0  0  0  0  0  0  0  0  0  0
   18.6638  -20.3799  -14.5032 C   0  0  0  0  0  0  0  0  0  0  0  0
   18.6143  -20.1721  -13.1438 C   0  0  0  0  0  0  0  0  0  0  0  0
   19.6909  -20.4693  -12.3528 C   0  0  0  0  0  0  0  0  0  0  0  0
   20.8676  -20.9843  -12.8469 C   0  0  0  0  0  0  0  0  0  0  0  0
   22.0010  -21.3037  -11.9947 C   0  0  0  0  0  0  0  0  0  0  0  0
   23.0852  -20.2829  -11.8477 C   0  0  2  0  0  0  0  0  0  0  0  0
   23.8739  -20.3053  -13.1238 N   0  0  0  0  0  0  0  0  0  0  0  0
   24.0169  -20.4716  -10.7270 C   0  0  0  0  0  0  0  0  0  0  0  0
   23.5802  -20.5163   -9.5164 O   0  0  0  0  0  0  0  0  0  0  0  0
   20.9113  -21.1939  -14.2279 C   0  0  0  0  0  0  0  0  0  0  0  0
   19.8250  -20.8945  -15.0351 C   0  0  0  0  0  0  0  0  0  0  0  0
   25.4216  -20.6254  -10.8230 N   0  0  0  0  0  0  0  0  0  0  0  0
   26.2704  -20.8292   -9.6765 C   0  0  1  0  0  0  0  0  0  0  0  0
   27.2396  -19.6907   -9.4690 C   0  0  0  0  0  0  0  0  0  0  0  0
   28.2022  -20.0974   -8.4207 C   0  0  0  0  0  0  0  0  0  0  0  0
   29.0802  -21.1712   -8.5431 C   0  0  0  0  0  0  0  0  0  0  0  0
   29.8266  -21.3141   -7.4524 N   0  0  0  0  0  0  0  0  0  0  0  0
   29.4641  -20.3448   -6.5836 C   0  0  0  0  0  0  0  0  0  0  0  0
   29.9181  -20.0215   -5.3030 C   0  0  0  0  0  0  0  0  0  0  0  0
   29.3533  -18.9486   -4.6464 C   0  0  0  0  0  0  0  0  0  0  0  0
   28.3508  -18.2016   -5.2458 C   0  0  0  0  0  0  0  0  0  0  0  0
   27.8873  -18.5152   -6.5288 C   0  0  0  0  0  0  0  0  0  0  0  0
   28.4551  -19.5825   -7.1734 C   0  0  0  0  0  0  0  0  0  0  0  0
   25.5031  -21.1259   -8.4670 C   0  0  0  0  0  0  0  0  0  0  0  0
   24.4469  -20.5389   -8.2094 O   0  0  0  0  0  0  0  0  0  0  0  0
   25.9365  -22.0871   -7.5592 O   0  0  0  0  0  0  0  0  0  0  0  0
  2  1  1  6
  3  2  1  0
  4  5  1  0
  4  3  1  0
  5  6  2  0
  7  2  1  0
  8  7  2  0
  9  5  1  0
 10 11  1  0
 11 12  2  0
 12 13  1  0
 14 15  1  0
 14 13  2  0
 16 15  1  6
 16 17  1  0
 17  7  1  0
 18 19  2  0
 18 16  1  0
 20 14  1  0
 21 20  2  0
 21 11  1  0
 22 18  1  0
 23 22  1  0
 23 24  1  1
 24 25  1  0
 25 26  2  0
 25 33  1  0
 26 27  1  0
 27 28  1  0
 28 29  2  0
 29 30  1  0
 31 30  2  0
 32 31  1  0
 33 32  2  0
 33 28  1  0
 34 23  1  0
 35 34  2  0
 36 34  1  0
M  END
$$$$
