EYW.pdb
     RDKit          3D

 36 38  0  0  1  0  0  0  0  0999 V2000
   27.8428  -22.7303  -18.0534 N   0  0  0  0  0  0  0  0  0  0  0  0
   28.3236  -22.7396  -16.6694 C   0  0  1  0  0  0  0  0  0  0  0  0
   29.7495  -22.2292  -16.7513 C   0  0  0  0  0  0  0  0  0  0  0  0
   30.7037  -23.2144  -17.3284 C   0  0  0  0  0  0  0  0  0  0  0  0
   30.7374  -23.0830  -18.8047 C   0  0  0  0  0  0  0  0  0  0  0  0
   30.4304  -24.0945  -19.4981 O   0  0  0  0  0  0  0  0  0  0  0  0
   27.4666  -21.8363  -15.8815 C   0  0  0  0  0  0  0  0  0  0  0  0
   26.9767  -20.8182  -16.4539 O   0  0  0  0  0  0  0  0  0  0  0  0
   31.0822  -21.9288  -19.4857 O   0  0  0  0  0  0  0  0  0  0  0  0
   22.8576  -26.6443  -14.4857 O   0  0  0  0  0  0  0  0  0  0  0  0
   23.3459  -25.3248  -14.4919 C   0  0  0  0  0  0  0  0  0  0  0  0
   23.3363  -24.5690  -13.3420 C   0  0  0  0  0  0  0  0  0  0  0  0
   23.8100  -23.2850  -13.3471 C   0  0  0  0  0  0  0  0  0  0  0  0
   24.3171  -22.6750  -14.4717 C   0  0  0  0  0  0  0  0  0  0  0  0
   24.8251  -21.3132  -14.4617 C   0  0  0  0  0  0  0  0  0  0  0  0
   26.1673  -21.0634  -13.8491 C   0  0  2  0  0  0  0  0  0  0  0  0
   27.1278  -22.0015  -14.5187 N   0  0  0  0  0  0  0  0  0  0  0  0
   26.2720  -21.2566  -12.3961 C   0  0  0  0  0  0  0  0  0  0  0  0
   26.4049  -22.4389  -11.9034 O   0  0  0  0  0  0  0  0  0  0  0  0
   24.3250  -23.4480  -15.6359 C   0  0  0  0  0  0  0  0  0  0  0  0
   23.8460  -24.7488  -15.6382 C   0  0  0  0  0  0  0  0  0  0  0  0
   26.2491  -20.2379  -11.4124 N   0  0  0  0  0  0  0  0  0  0  0  0
   26.2396  -20.5113   -9.9975 C   0  0  1  0  0  0  0  0  0  0  0  0
   26.9506  -19.4442   -9.2009 C   0  0  0  0  0  0  0  0  0  0  0  0
   26.8471  -19.8007   -7.7681 C   0  0  0  0  0  0  0  0  0  0  0  0
   25.6445  -20.0485   -7.1115 C   0  0  0  0  0  0  0  0  0  0  0  0
   25.8428  -20.3408   -5.8300 N   0  0  0  0  0  0  0  0  0  0  0  0
   27.1744  -20.2939   -5.6051 C   0  0  0  0  0  0  0  0  0  0  0  0
   27.9356  -20.5200   -4.4563 C   0  0  0  0  0  0  0  0  0  0  0  0
   29.3076  -20.4049   -4.5322 C   0  0  0  0  0  0  0  0  0  0  0  0
   29.9234  -20.0702   -5.7285 C   0  0  0  0  0  0  0  0  0  0  0  0
   29.1716  -19.8413   -6.8868 C   0  0  0  0  0  0  0  0  0  0  0  0
   27.8093  -19.9588   -6.8017 C   0  0  0  0  0  0  0  0  0  0  0  0
   24.8904  -20.7671   -9.4934 C   0  0  0  0  0  0  0  0  0  0  0  0
   23.8970  -20.2387  -10.0038 O   0  0  0  0  0  0  0  0  0  0  0  0
   24.6761  -21.6214   -8.4164 O   0  0  0  0  0  0  0  0  0  0  0  0
  2  1  1  6
  3  2  1  0
  4  5  1  0
  4  3  1  0
  5  6  2  0
  7  2  1  0
  8  7  2  0
  9  5  1  0
 10 11  1  0
 11 12  2  0
 12 13  1  0
 14 15  1  0
 14 13  2  0
 16 15  1  6
 16 17  1  0
 17  7  1  0
 18 19  2  0
 18 16  1  0
 20 14  1  0
 21 20  2  0
 21 11  1  0
 22 18  1  0
 23 22  1  0
 23 24  1  1
 24 25  1  0
 25 26  2  0
 25 33  1  0
 26 27  1  0
 27 28  1  0
 28 29  2  0
 29 30  1  0
 31 30  2  0
 32 31  1  0
 33 32  2  0
 33 28  1  0
 34 23  1  0
 35 34  2  0
 36 34  1  0
M  END
$$$$
