EYW.pdb
     RDKit          3D

 36 38  0  0  1  0  0  0  0  0999 V2000
   27.4870  -21.6865  -17.1605 N   0  0  0  0  0  0  0  0  0  0  0  0
   28.6045  -20.8086  -16.8039 C   0  0  1  0  0  0  0  0  0  0  0  0
   28.6792  -19.7986  -17.9330 C   0  0  0  0  0  0  0  0  0  0  0  0
   28.8398  -20.4169  -19.2769 C   0  0  0  0  0  0  0  0  0  0  0  0
   30.2352  -20.2493  -19.7488 C   0  0  0  0  0  0  0  0  0  0  0  0
   30.6434  -19.0776  -19.9912 O   0  0  0  0  0  0  0  0  0  0  0  0
   28.2872  -20.1642  -15.5173 C   0  0  0  0  0  0  0  0  0  0  0  0
   29.1471  -19.3899  -15.0024 O   0  0  0  0  0  0  0  0  0  0  0  0
   31.1307  -21.2857  -19.9455 O   0  0  0  0  0  0  0  0  0  0  0  0
   26.9009  -14.3902  -17.3686 O   0  0  0  0  0  0  0  0  0  0  0  0
   26.6306  -15.4364  -16.4676 C   0  0  0  0  0  0  0  0  0  0  0  0
   27.2158  -15.4570  -15.2223 C   0  0  0  0  0  0  0  0  0  0  0  0
   26.9545  -16.4746  -14.3453 C   0  0  0  0  0  0  0  0  0  0  0  0
   26.1099  -17.5211  -14.6378 C   0  0  0  0  0  0  0  0  0  0  0  0
   25.8341  -18.5916  -13.6940 C   0  0  0  0  0  0  0  0  0  0  0  0
   26.8890  -19.6297  -13.4739 C   0  0  2  0  0  0  0  0  0  0  0  0
   27.0874  -20.3275  -14.7872 N   0  0  0  0  0  0  0  0  0  0  0  0
   26.6068  -20.6458  -12.4505 C   0  0  0  0  0  0  0  0  0  0  0  0
   25.8642  -21.6610  -12.7268 O   0  0  0  0  0  0  0  0  0  0  0  0
   25.5180  -17.4939  -15.9034 C   0  0  0  0  0  0  0  0  0  0  0  0
   25.7788  -16.4668  -16.7970 C   0  0  0  0  0  0  0  0  0  0  0  0
   27.0863  -20.6474  -11.1178 N   0  0  0  0  0  0  0  0  0  0  0  0
   26.5479  -21.5013  -10.0895 C   0  0  1  0  0  0  0  0  0  0  0  0
   27.5431  -21.7717   -8.9871 C   0  0  0  0  0  0  0  0  0  0  0  0
   27.4776  -20.6460   -8.0283 C   0  0  0  0  0  0  0  0  0  0  0  0
   26.7619  -19.4727   -8.2517 C   0  0  0  0  0  0  0  0  0  0  0  0
   26.8804  -18.6303   -7.2302 N   0  0  0  0  0  0  0  0  0  0  0  0
   27.6738  -19.2199   -6.3089 C   0  0  0  0  0  0  0  0  0  0  0  0
   28.1208  -18.7980   -5.0548 C   0  0  0  0  0  0  0  0  0  0  0  0
   28.9325  -19.6360   -4.3198 C   0  0  0  0  0  0  0  0  0  0  0  0
   29.3001  -20.8776   -4.8157 C   0  0  0  0  0  0  0  0  0  0  0  0
   28.8585  -21.3119   -6.0709 C   0  0  0  0  0  0  0  0  0  0  0  0
   28.0519  -20.4727   -6.7934 C   0  0  0  0  0  0  0  0  0  0  0  0
   25.2734  -21.0050   -9.5706 C   0  0  0  0  0  0  0  0  0  0  0  0
   24.9667  -19.8102   -9.6404 O   0  0  0  0  0  0  0  0  0  0  0  0
   24.3548  -21.8660   -8.9786 O   0  0  0  0  0  0  0  0  0  0  0  0
  2  1  1  6
  3  2  1  0
  4  5  1  0
  4  3  1  0
  5  6  2  0
  7  2  1  0
  8  7  2  0
  9  5  1  0
 10 11  1  0
 11 12  2  0
 12 13  1  0
 14 15  1  0
 14 13  2  0
 16 15  1  6
 16 17  1  0
 17  7  1  0
 18 19  2  0
 18 16  1  0
 20 14  1  0
 21 20  2  0
 21 11  1  0
 22 18  1  0
 23 22  1  0
 23 24  1  1
 24 25  1  0
 25 26  2  0
 25 33  1  0
 26 27  1  0
 27 28  1  0
 28 29  2  0
 29 30  1  0
 31 30  2  0
 32 31  1  0
 33 32  2  0
 33 28  1  0
 34 23  1  0
 35 34  2  0
 36 34  1  0
M  END
$$$$
