EYW.pdb
     RDKit          3D

 36 38  0  0  1  0  0  0  0  0999 V2000
   19.1051  -14.0047  -24.9560 N   0  0  0  0  0  0  0  0  0  0  0  0
   18.7658  -15.3017  -24.3648 C   0  0  1  0  0  0  0  0  0  0  0  0
   20.0634  -15.8031  -23.7602 C   0  0  0  0  0  0  0  0  0  0  0  0
   21.0673  -16.2304  -24.7721 C   0  0  0  0  0  0  0  0  0  0  0  0
   22.3233  -16.6393  -24.0991 C   0  0  0  0  0  0  0  0  0  0  0  0
   22.5830  -17.8745  -24.0263 O   0  0  0  0  0  0  0  0  0  0  0  0
   17.7357  -15.0795  -23.3351 C   0  0  0  0  0  0  0  0  0  0  0  0
   17.5848  -13.9088  -22.8758 O   0  0  0  0  0  0  0  0  0  0  0  0
   23.2392  -15.7652  -23.5407 O   0  0  0  0  0  0  0  0  0  0  0  0
   12.2006  -18.8618  -26.1709 O   0  0  0  0  0  0  0  0  0  0  0  0
   12.8107  -17.9617  -25.2779 C   0  0  0  0  0  0  0  0  0  0  0  0
   12.3264  -17.8073  -23.9992 C   0  0  0  0  0  0  0  0  0  0  0  0
   12.9184  -16.9314  -23.1300 C   0  0  0  0  0  0  0  0  0  0  0  0
   14.0112  -16.1642  -23.4633 C   0  0  0  0  0  0  0  0  0  0  0  0
   14.6359  -15.2437  -22.5279 C   0  0  0  0  0  0  0  0  0  0  0  0
   15.8421  -15.7102  -21.7753 C   0  0  2  0  0  0  0  0  0  0  0  0
   16.8777  -16.0680  -22.8003 N   0  0  0  0  0  0  0  0  0  0  0  0
   15.6553  -16.8656  -20.8866 C   0  0  0  0  0  0  0  0  0  0  0  0
   15.7160  -18.0641  -21.3538 O   0  0  0  0  0  0  0  0  0  0  0  0
   14.4988  -16.3264  -24.7629 C   0  0  0  0  0  0  0  0  0  0  0  0
   13.9038  -17.2110  -25.6487 C   0  0  0  0  0  0  0  0  0  0  0  0
   15.4073  -16.8183  -19.4930 N   0  0  0  0  0  0  0  0  0  0  0  0
   15.1771  -17.9959  -18.6950 C   0  0  1  0  0  0  0  0  0  0  0  0
   16.2019  -18.1567  -17.5983 C   0  0  0  0  0  0  0  0  0  0  0  0
   17.5353  -18.2595  -18.2327 C   0  0  0  0  0  0  0  0  0  0  0  0
   18.3452  -17.1655  -18.5260 C   0  0  0  0  0  0  0  0  0  0  0  0
   19.4843  -17.5446  -19.0968 N   0  0  0  0  0  0  0  0  0  0  0  0
   19.4587  -18.8918  -19.1968 C   0  0  0  0  0  0  0  0  0  0  0  0
   20.3837  -19.8082  -19.7020 C   0  0  0  0  0  0  0  0  0  0  0  0
   20.0800  -21.1526  -19.6625 C   0  0  0  0  0  0  0  0  0  0  0  0
   18.8766  -21.5898  -19.1303 C   0  0  0  0  0  0  0  0  0  0  0  0
   17.9415  -20.6815  -18.6207 C   0  0  0  0  0  0  0  0  0  0  0  0
   18.2525  -19.3480  -18.6637 C   0  0  0  0  0  0  0  0  0  0  0  0
   13.8084  -18.0568  -18.1823 C   0  0  0  0  0  0  0  0  0  0  0  0
   13.3946  -19.0375  -17.5549 O   0  0  0  0  0  0  0  0  0  0  0  0
   12.9192  -17.0055  -18.3820 O   0  0  0  0  0  0  0  0  0  0  0  0
  2  1  1  1
  3  2  1  0
  4  5  1  0
  4  3  1  0
  5  6  2  0
  7  2  1  0
  8  7  2  0
  9  5  1  0
 10 11  1  0
 11 12  2  0
 12 13  1  0
 14 15  1  0
 14 13  2  0
 16 15  1  6
 16 17  1  0
 17  7  1  0
 18 19  2  0
 18 16  1  0
 20 14  1  0
 21 20  2  0
 21 11  1  0
 22 18  1  0
 23 22  1  0
 23 24  1  1
 24 25  1  0
 25 26  2  0
 25 33  1  0
 26 27  1  0
 27 28  1  0
 28 29  2  0
 29 30  1  0
 31 30  2  0
 32 31  1  0
 33 32  2  0
 33 28  1  0
 34 23  1  0
 35 34  2  0
 36 34  1  0
M  END
$$$$
