EYW.pdb
     RDKit          3D

 36 38  0  0  1  0  0  0  0  0999 V2000
   27.7100  -19.5906  -16.9265 N   0  0  0  0  0  0  0  0  0  0  0  0
   28.3542  -18.7006  -15.9571 C   0  0  1  0  0  0  0  0  0  0  0  0
   28.4684  -17.3675  -16.6717 C   0  0  0  0  0  0  0  0  0  0  0  0
   29.5573  -17.3251  -17.6850 C   0  0  0  0  0  0  0  0  0  0  0  0
   29.0983  -17.9485  -18.9492 C   0  0  0  0  0  0  0  0  0  0  0  0
   28.0140  -17.5388  -19.4539 O   0  0  0  0  0  0  0  0  0  0  0  0
   27.4843  -18.6096  -14.7713 C   0  0  0  0  0  0  0  0  0  0  0  0
   26.6828  -17.6327  -14.6849 O   0  0  0  0  0  0  0  0  0  0  0  0
   29.7716  -18.9521  -19.6233 O   0  0  0  0  0  0  0  0  0  0  0  0
   19.9898  -21.2518  -11.6785 O   0  0  0  0  0  0  0  0  0  0  0  0
   21.2666  -20.9972  -12.2120 C   0  0  0  0  0  0  0  0  0  0  0  0
   21.7376  -19.7085  -12.3165 C   0  0  0  0  0  0  0  0  0  0  0  0
   22.9790  -19.4594  -12.8362 C   0  0  0  0  0  0  0  0  0  0  0  0
   23.8223  -20.4530  -13.2783 C   0  0  0  0  0  0  0  0  0  0  0  0
   25.1421  -20.1757  -13.8205 C   0  0  0  0  0  0  0  0  0  0  0  0
   26.2100  -19.7124  -12.8803 C   0  0  2  0  0  0  0  0  0  0  0  0
   27.4545  -19.5297  -13.6982 N   0  0  0  0  0  0  0  0  0  0  0  0
   26.5252  -20.6030  -11.7546 C   0  0  0  0  0  0  0  0  0  0  0  0
   26.9454  -21.8013  -11.9690 O   0  0  0  0  0  0  0  0  0  0  0  0
   23.3385  -21.7595  -13.1685 C   0  0  0  0  0  0  0  0  0  0  0  0
   22.0821  -22.0190  -12.6440 C   0  0  0  0  0  0  0  0  0  0  0  0
   26.4224  -20.2820  -10.3790 N   0  0  0  0  0  0  0  0  0  0  0  0
   26.3838  -21.2795   -9.3397 C   0  0  1  0  0  0  0  0  0  0  0  0
   27.7058  -21.4152   -8.6236 C   0  0  0  0  0  0  0  0  0  0  0  0
   27.7543  -20.3885   -7.5585 C   0  0  0  0  0  0  0  0  0  0  0  0
   27.1800  -19.1247   -7.6676 C   0  0  0  0  0  0  0  0  0  0  0  0
   27.3780  -18.4054   -6.5674 N   0  0  0  0  0  0  0  0  0  0  0  0
   28.0853  -19.1692   -5.7059 C   0  0  0  0  0  0  0  0  0  0  0  0
   28.5585  -18.9260   -4.4145 C   0  0  0  0  0  0  0  0  0  0  0  0
   29.2585  -19.9192   -3.7629 C   0  0  0  0  0  0  0  0  0  0  0  0
   29.4900  -21.1403   -4.3776 C   0  0  0  0  0  0  0  0  0  0  0  0
   29.0208  -21.3963   -5.6713 C   0  0  0  0  0  0  0  0  0  0  0  0
   28.3258  -20.4036   -6.3104 C   0  0  0  0  0  0  0  0  0  0  0  0
   25.2742  -21.0665   -8.4106 C   0  0  0  0  0  0  0  0  0  0  0  0
   25.0300  -21.8641   -7.4992 O   0  0  0  0  0  0  0  0  0  0  0  0
   24.4506  -19.9504   -8.5193 O   0  0  0  0  0  0  0  0  0  0  0  0
  2  1  1  6
  3  2  1  0
  4  5  1  0
  4  3  1  0
  5  6  2  0
  7  2  1  0
  8  7  2  0
  9  5  1  0
 10 11  1  0
 11 12  2  0
 12 13  1  0
 14 15  1  0
 14 13  2  0
 16 15  1  6
 16 17  1  0
 17  7  1  0
 18 19  2  0
 18 16  1  0
 20 14  1  0
 21 20  2  0
 21 11  1  0
 22 18  1  0
 23 22  1  0
 23 24  1  1
 24 25  1  0
 25 26  2  0
 25 33  1  0
 26 27  1  0
 27 28  1  0
 28 29  2  0
 29 30  1  0
 31 30  2  0
 32 31  1  0
 33 32  2  0
 33 28  1  0
 34 23  1  0
 35 34  2  0
 36 34  1  0
M  END
$$$$
