LLG.pdb
     RDKit          3D

 21 20  0  0  1  0  0  0  0  0999 V2000
    8.5764  -14.7139   18.6081 C   0  0  0  0  0  0  0  0  0  0  0  0
    7.8258  -13.7479   19.4861 C   0  0  2  0  0  0  0  0  0  0  0  0
    7.7672  -12.4278   18.7394 C   0  0  0  0  0  0  0  0  0  0  0  0
    8.4249  -13.5594   20.8473 C   0  0  0  0  0  0  0  0  0  0  0  0
    8.4365  -14.8493   21.5998 C   0  0  2  0  0  0  0  0  0  0  0  0
    7.1296  -15.4483   21.5638 N   0  0  0  0  0  0  0  0  0  0  0  0
    8.8926  -14.6904   23.0030 C   0  0  0  0  0  0  0  0  0  0  0  0
   10.0600  -14.2818   23.2118 O   0  0  0  0  0  0  0  0  0  0  0  0
    5.6974  -12.2776   26.6511 C   0  0  0  0  0  0  0  0  0  0  0  0
    6.9695  -12.6942   25.8435 C   0  0  1  0  0  0  0  0  0  0  0  0
    8.0489  -11.8186   26.5109 C   0  0  0  0  0  0  0  0  0  0  0  0
    7.2608  -14.1244   26.0964 C   0  0  0  0  0  0  0  0  0  0  0  0
    8.4521  -14.7599   25.5071 C   0  0  2  0  0  0  0  0  0  0  0  0
    8.0559  -14.9841   24.0744 N   0  0  0  0  0  0  0  0  0  0  0  0
    8.8645  -16.0805   25.9756 C   0  0  0  0  0  0  0  0  0  0  0  0
    8.9908  -16.3172   27.2275 O   0  0  0  0  0  0  0  0  0  0  0  0
    9.1473  -17.1908   25.1198 N   0  0  0  0  0  0  0  0  0  0  0  0
    9.5537  -18.4410   25.7073 C   0  0  0  0  0  0  0  0  0  0  0  0
   11.0227  -18.5768   25.7951 C   0  0  0  0  0  0  0  0  0  0  0  0
   11.6632  -19.5851   25.1012 O   0  0  0  0  0  0  0  0  0  0  0  0
   11.7190  -17.7996   26.4860 O   0  0  0  0  0  0  0  0  0  0  0  0
  2  1  1  6
  3  2  1  0
  4  2  1  0
  5  4  1  0
  5  7  1  0
  5  6  1  1
  7  8  2  0
  7 14  1  0
 10  9  1  1
 10 12  1  0
 11 10  1  0
 13 12  1  1
 13 15  1  0
 14 13  1  0
 15 16  2  0
 17 15  1  0
 17 18  1  0
 19 18  1  0
 19 20  1  0
 21 19  2  0
M  END
$$$$
