LLG.pdb
     RDKit          3D

 21 20  0  0  1  0  0  0  0  0999 V2000
    6.8293  -20.4259   20.0218 C   0  0  0  0  0  0  0  0  0  0  0  0
    6.3019  -19.6901   21.2251 C   0  0  2  0  0  0  0  0  0  0  0  0
    4.8391  -19.3908   20.9522 C   0  0  0  0  0  0  0  0  0  0  0  0
    7.0471  -18.4314   21.5528 C   0  0  0  0  0  0  0  0  0  0  0  0
    6.5110  -17.8131   22.8021 C   0  0  2  0  0  0  0  0  0  0  0  0
    5.0773  -17.7283   22.7295 N   0  0  0  0  0  0  0  0  0  0  0  0
    7.0936  -16.4761   23.0759 C   0  0  0  0  0  0  0  0  0  0  0  0
    7.7160  -15.8931   22.1560 O   0  0  0  0  0  0  0  0  0  0  0  0
    6.6502  -11.5182   25.2478 C   0  0  0  0  0  0  0  0  0  0  0  0
    6.9017  -12.6644   26.2809 C   0  0  1  0  0  0  0  0  0  0  0  0
    5.8171  -12.3623   27.3343 C   0  0  0  0  0  0  0  0  0  0  0  0
    6.6231  -13.9696   25.6382 C   0  0  0  0  0  0  0  0  0  0  0  0
    7.5554  -14.5264   24.6427 C   0  0  2  0  0  0  0  0  0  0  0  0
    6.9612  -15.8691   24.3201 N   0  0  0  0  0  0  0  0  0  0  0  0
    8.9287  -14.8281   25.0383 C   0  0  0  0  0  0  0  0  0  0  0  0
    9.7402  -13.8862   25.3441 O   0  0  0  0  0  0  0  0  0  0  0  0
    9.4743  -16.1472   25.1264 N   0  0  0  0  0  0  0  0  0  0  0  0
   10.8425  -16.3117   25.5435 C   0  0  0  0  0  0  0  0  0  0  0  0
   11.7345  -16.6938   24.4287 C   0  0  0  0  0  0  0  0  0  0  0  0
   12.8314  -15.9108   24.1257 O   0  0  0  0  0  0  0  0  0  0  0  0
   11.5292  -17.7172   23.7381 O   0  0  0  0  0  0  0  0  0  0  0  0
  2  1  1  6
  3  2  1  0
  4  2  1  0
  5  4  1  0
  5  7  1  0
  5  6  1  6
  7  8  2  0
  7 14  1  0
 10  9  1  6
 10 12  1  0
 11 10  1  0
 13 12  1  1
 13 15  1  0
 14 13  1  0
 15 16  2  0
 17 15  1  0
 17 18  1  0
 19 18  1  0
 19 20  1  0
 21 19  2  0
M  END
$$$$
