LLG.pdb
     RDKit          3D

 21 20  0  0  1  0  0  0  0  0999 V2000
    7.8669  -12.4592   27.3127 C   0  0  0  0  0  0  0  0  0  0  0  0
    6.9492  -12.7577   26.1567 C   0  0  2  0  0  0  0  0  0  0  0  0
    5.8556  -11.7054   26.1792 C   0  0  0  0  0  0  0  0  0  0  0  0
    6.3582  -14.1352   26.1792 C   0  0  0  0  0  0  0  0  0  0  0  0
    7.4049  -15.1611   25.8925 C   0  0  2  0  0  0  0  0  0  0  0  0
    8.6622  -14.7474   26.4548 N   0  0  0  0  0  0  0  0  0  0  0  0
    7.5546  -15.4377   24.4422 C   0  0  0  0  0  0  0  0  0  0  0  0
    6.6269  -16.0363   23.8468 O   0  0  0  0  0  0  0  0  0  0  0  0
    7.8146  -12.2139   20.4108 C   0  0  0  0  0  0  0  0  0  0  0  0
    7.5722  -13.4890   21.2822 C   0  0  1  0  0  0  0  0  0  0  0  0
    6.8059  -14.3883   20.2916 C   0  0  0  0  0  0  0  0  0  0  0  0
    8.8764  -14.1089   21.6125 C   0  0  0  0  0  0  0  0  0  0  0  0
    8.9322  -15.4083   22.3044 C   0  0  2  0  0  0  0  0  0  0  0  0
    8.6925  -15.0483   23.7441 N   0  0  0  0  0  0  0  0  0  0  0  0
   10.1878  -16.1544   22.3259 C   0  0  0  0  0  0  0  0  0  0  0  0
   10.7886  -16.4498   21.2345 O   0  0  0  0  0  0  0  0  0  0  0  0
   10.8435  -16.6009   23.5158 N   0  0  0  0  0  0  0  0  0  0  0  0
   12.0986  -17.2976   23.4034 C   0  0  0  0  0  0  0  0  0  0  0  0
   11.9542  -18.7591   23.5693 C   0  0  0  0  0  0  0  0  0  0  0  0
   10.9433  -19.4300   22.9089 O   0  0  0  0  0  0  0  0  0  0  0  0
   12.7265  -19.4218   24.2978 O   0  0  0  0  0  0  0  0  0  0  0  0
  2  1  1  1
  3  2  1  0
  4  2  1  0
  5  4  1  0
  5  7  1  0
  5  6  1  6
  7  8  2  0
  7 14  1  0
 10  9  1  6
 10 12  1  0
 11 10  1  0
 13 12  1  6
 13 15  1  0
 14 13  1  0
 15 16  2  0
 17 15  1  0
 17 18  1  0
 19 18  1  0
 19 20  1  0
 21 19  2  0
M  END
$$$$
