LLG.pdb
     RDKit          3D

 21 20  0  0  1  0  0  0  0  0999 V2000
    7.9244  -19.3244   20.2895 C   0  0  0  0  0  0  0  0  0  0  0  0
    8.5243  -18.0594   19.7350 C   0  0  2  0  0  0  0  0  0  0  0  0
    9.5958  -18.4772   18.7444 C   0  0  0  0  0  0  0  0  0  0  0  0
    9.0937  -17.1408   20.7738 C   0  0  0  0  0  0  0  0  0  0  0  0
    8.0368  -16.7235   21.7428 C   0  0  2  0  0  0  0  0  0  0  0  0
    6.8313  -16.3846   21.0357 N   0  0  0  0  0  0  0  0  0  0  0  0
    8.4635  -15.5940   22.6055 C   0  0  0  0  0  0  0  0  0  0  0  0
    9.4530  -14.9091   22.2514 O   0  0  0  0  0  0  0  0  0  0  0  0
    7.5301  -11.5229   26.0113 C   0  0  0  0  0  0  0  0  0  0  0  0
    7.2172  -12.9183   26.6430 C   0  0  1  0  0  0  0  0  0  0  0  0
    5.8181  -12.6699   27.2415 C   0  0  0  0  0  0  0  0  0  0  0  0
    7.1263  -13.9315   25.5662 C   0  0  0  0  0  0  0  0  0  0  0  0
    8.3247  -14.3194   24.8022 C   0  0  2  0  0  0  0  0  0  0  0  0
    7.7915  -15.2885   23.7841 N   0  0  0  0  0  0  0  0  0  0  0  0
    9.3935  -15.0557   25.4723 C   0  0  0  0  0  0  0  0  0  0  0  0
   10.3175  -14.4326   26.1027 O   0  0  0  0  0  0  0  0  0  0  0  0
    9.5029  -16.4814   25.4954 N   0  0  0  0  0  0  0  0  0  0  0  0
   10.6078  -17.0870   26.1922 C   0  0  0  0  0  0  0  0  0  0  0  0
   10.2801  -17.4240   27.5935 C   0  0  0  0  0  0  0  0  0  0  0  0
   10.6878  -18.6326   28.1239 O   0  0  0  0  0  0  0  0  0  0  0  0
    9.6365  -16.6422   28.3289 O   0  0  0  0  0  0  0  0  0  0  0  0
  2  1  1  1
  3  2  1  0
  4  2  1  0
  5  4  1  0
  5  7  1  0
  5  6  1  6
  7  8  2  0
  7 14  1  0
 10  9  1  6
 10 12  1  0
 11 10  1  0
 13 12  1  1
 13 15  1  0
 14 13  1  0
 15 16  2  0
 17 15  1  0
 17 18  1  0
 19 18  1  0
 19 20  1  0
 21 19  2  0
M  END
$$$$
