LLG.pdb
     RDKit          3D

 21 20  0  0  1  0  0  0  0  0999 V2000
    4.8193  -19.5134   21.4678 C   0  0  0  0  0  0  0  0  0  0  0  0
    3.9717  -18.4389   22.0958 C   0  0  2  0  0  0  0  0  0  0  0  0
    2.8915  -18.0856   21.0896 C   0  0  0  0  0  0  0  0  0  0  0  0
    4.7333  -17.2146   22.5059 C   0  0  0  0  0  0  0  0  0  0  0  0
    5.9483  -17.5891   23.2894 C   0  0  2  0  0  0  0  0  0  0  0  0
    5.5597  -18.1825   24.5405 N   0  0  0  0  0  0  0  0  0  0  0  0
    6.8564  -16.4391   23.5239 C   0  0  0  0  0  0  0  0  0  0  0  0
    7.3630  -15.8628   22.5317 O   0  0  0  0  0  0  0  0  0  0  0  0
    5.9849  -12.4186   27.3322 C   0  0  0  0  0  0  0  0  0  0  0  0
    6.3769  -13.0792   25.9705 C   0  0  1  0  0  0  0  0  0  0  0  0
    7.0476  -11.8956   25.2449 C   0  0  0  0  0  0  0  0  0  0  0  0
    7.3759  -14.1450   26.2154 C   0  0  0  0  0  0  0  0  0  0  0  0
    8.0408  -14.8196   25.0871 C   0  0  2  0  0  0  0  0  0  0  0  0
    7.1493  -15.9978   24.8098 N   0  0  0  0  0  0  0  0  0  0  0  0
    9.3627  -15.4090   25.2838 C   0  0  0  0  0  0  0  0  0  0  0  0
   10.3298  -14.7027   25.7366 O   0  0  0  0  0  0  0  0  0  0  0  0
    9.6890  -16.7741   25.0096 N   0  0  0  0  0  0  0  0  0  0  0  0
   11.0389  -17.2271   25.2235 C   0  0  0  0  0  0  0  0  0  0  0  0
   11.1905  -18.6820   25.0120 C   0  0  0  0  0  0  0  0  0  0  0  0
   12.2278  -19.3614   25.6207 O   0  0  0  0  0  0  0  0  0  0  0  0
   10.4009  -19.3314   24.2901 O   0  0  0  0  0  0  0  0  0  0  0  0
  2  1  1  6
  3  2  1  0
  4  2  1  0
  5  4  1  0
  5  7  1  0
  5  6  1  1
  7  8  2  0
  7 14  1  0
 10  9  1  1
 10 12  1  0
 11 10  1  0
 13 12  1  1
 13 15  1  0
 14 13  1  0
 15 16  2  0
 17 15  1  0
 17 18  1  0
 19 18  1  0
 19 20  1  0
 21 19  2  0
M  END
$$$$
