LLG.pdb
     RDKit          3D

 21 20  0  0  1  0  0  0  0  0999 V2000
    8.3764  -14.6364   18.5521 C   0  0  0  0  0  0  0  0  0  0  0  0
    7.6258  -13.6183   19.3691 C   0  0  2  0  0  0  0  0  0  0  0  0
    7.6212  -12.3282   18.5694 C   0  0  0  0  0  0  0  0  0  0  0  0
    8.1910  -13.3896   20.7386 C   0  0  0  0  0  0  0  0  0  0  0  0
    8.2128  -14.6634   21.5178 C   0  0  2  0  0  0  0  0  0  0  0  0
    6.8980  -15.2455   21.5404 N   0  0  0  0  0  0  0  0  0  0  0  0
    8.7200  -14.4811   22.9005 C   0  0  0  0  0  0  0  0  0  0  0  0
    9.8530  -13.9675   23.0610 O   0  0  0  0  0  0  0  0  0  0  0  0
    5.5186  -12.3497   26.6226 C   0  0  0  0  0  0  0  0  0  0  0  0
    6.8124  -12.6713   25.8061 C   0  0  1  0  0  0  0  0  0  0  0  0
    7.8238  -11.7039   26.4531 C   0  0  0  0  0  0  0  0  0  0  0  0
    7.2208  -14.0703   26.0709 C   0  0  0  0  0  0  0  0  0  0  0  0
    8.4159  -14.6356   25.4210 C   0  0  2  0  0  0  0  0  0  0  0  0
    7.9675  -14.8663   24.0048 N   0  0  0  0  0  0  0  0  0  0  0  0
    8.9183  -15.9369   25.8542 C   0  0  0  0  0  0  0  0  0  0  0  0
    8.2133  -16.6864   26.6161 O   0  0  0  0  0  0  0  0  0  0  0  0
   10.1872  -16.4800   25.4797 N   0  0  0  0  0  0  0  0  0  0  0  0
   10.5481  -17.7957   25.9399 C   0  0  0  0  0  0  0  0  0  0  0  0
   11.9143  -18.1855   25.5323 C   0  0  0  0  0  0  0  0  0  0  0  0
   12.4335  -19.3994   25.9386 O   0  0  0  0  0  0  0  0  0  0  0  0
   12.6294  -17.4444   24.8212 O   0  0  0  0  0  0  0  0  0  0  0  0
  2  1  1  6
  3  2  1  0
  4  2  1  0
  5  4  1  0
  5  7  1  0
  5  6  1  1
  7  8  2  0
  7 14  1  0
 10  9  1  1
 10 12  1  0
 11 10  1  0
 13 12  1  1
 13 15  1  0
 14 13  1  0
 15 16  2  0
 17 15  1  0
 17 18  1  0
 19 18  1  0
 19 20  1  0
 21 19  2  0
M  END
$$$$
