LLG.pdb
     RDKit          3D

 21 20  0  0  1  0  0  0  0  0999 V2000
    6.3530  -19.6365   21.6547 C   0  0  0  0  0  0  0  0  0  0  0  0
    7.3800  -18.6233   21.2233 C   0  0  2  0  0  0  0  0  0  0  0  0
    8.4425  -19.3772   20.4444 C   0  0  0  0  0  0  0  0  0  0  0  0
    7.9978  -17.8537   22.3516 C   0  0  0  0  0  0  0  0  0  0  0  0
    7.7879  -16.3870   22.1646 C   0  0  2  0  0  0  0  0  0  0  0  0
    8.2982  -15.9794   20.8833 N   0  0  0  0  0  0  0  0  0  0  0  0
    8.4023  -15.5773   23.2458 C   0  0  0  0  0  0  0  0  0  0  0  0
    9.5526  -15.1104   23.0660 O   0  0  0  0  0  0  0  0  0  0  0  0
    5.4046  -12.1707   26.5581 C   0  0  0  0  0  0  0  0  0  0  0  0
    6.5666  -12.6573   25.6322 C   0  0  1  0  0  0  0  0  0  0  0  0
    7.5750  -11.5008   25.7832 C   0  0  0  0  0  0  0  0  0  0  0  0
    7.1464  -13.9008   26.1905 C   0  0  0  0  0  0  0  0  0  0  0  0
    8.3224  -14.5255   25.5603 C   0  0  2  0  0  0  0  0  0  0  0  0
    7.7304  -15.3325   24.4386 N   0  0  0  0  0  0  0  0  0  0  0  0
    9.1123  -15.4919   26.3188 C   0  0  0  0  0  0  0  0  0  0  0  0
    9.7206  -15.1391   27.3888 O   0  0  0  0  0  0  0  0  0  0  0  0
    9.2697  -16.8675   25.9606 N   0  0  0  0  0  0  0  0  0  0  0  0
   10.0638  -17.7232   26.8035 C   0  0  0  0  0  0  0  0  0  0  0  0
   11.3107  -18.1691   26.1471 C   0  0  0  0  0  0  0  0  0  0  0  0
   12.2054  -17.2346   25.6628 O   0  0  0  0  0  0  0  0  0  0  0  0
   11.5902  -19.3814   26.0117 O   0  0  0  0  0  0  0  0  0  0  0  0
  2  1  1  1
  3  2  1  0
  4  2  1  0
  5  4  1  0
  5  7  1  0
  5  6  1  6
  7  8  2  0
  7 14  1  0
 10  9  1  1
 10 12  1  0
 11 10  1  0
 13 12  1  1
 13 15  1  0
 14 13  1  0
 15 16  2  0
 17 15  1  0
 17 18  1  0
 19 18  1  0
 19 20  1  0
 21 19  2  0
M  END
$$$$
