LLG.pdb
     RDKit          3D

 21 20  0  0  1  0  0  0  0  0999 V2000
    7.8296  -12.0529   19.6550 C   0  0  0  0  0  0  0  0  0  0  0  0
    8.3098  -13.4443   19.9726 C   0  0  2  0  0  0  0  0  0  0  0  0
    8.8048  -14.0475   18.6707 C   0  0  0  0  0  0  0  0  0  0  0  0
    7.2732  -14.3248   20.6030 C   0  0  0  0  0  0  0  0  0  0  0  0
    7.9144  -15.3342   21.4976 C   0  0  2  0  0  0  0  0  0  0  0  0
    6.9625  -16.3548   21.8447 N   0  0  0  0  0  0  0  0  0  0  0  0
    8.4921  -14.7293   22.7233 C   0  0  0  0  0  0  0  0  0  0  0  0
    9.5209  -14.0200   22.6147 O   0  0  0  0  0  0  0  0  0  0  0  0
    5.5269  -12.2418   26.7599 C   0  0  0  0  0  0  0  0  0  0  0  0
    6.6934  -12.4852   25.7479 C   0  0  1  0  0  0  0  0  0  0  0  0
    7.7392  -11.4671   26.2447 C   0  0  0  0  0  0  0  0  0  0  0  0
    7.2132  -13.8610   25.9250 C   0  0  0  0  0  0  0  0  0  0  0  0
    8.4374  -14.2926   25.2285 C   0  0  2  0  0  0  0  0  0  0  0  0
    7.9171  -14.9349   23.9728 N   0  0  0  0  0  0  0  0  0  0  0  0
    9.2808  -15.3203   25.8336 C   0  0  0  0  0  0  0  0  0  0  0  0
    9.6551  -15.2201   27.0539 O   0  0  0  0  0  0  0  0  0  0  0  0
    9.7436  -16.4907   25.1545 N   0  0  0  0  0  0  0  0  0  0  0  0
   10.5608  -17.4367   25.8689 C   0  0  0  0  0  0  0  0  0  0  0  0
   10.9955  -18.5665   25.0210 C   0  0  0  0  0  0  0  0  0  0  0  0
   10.9953  -19.8500   25.5317 O   0  0  0  0  0  0  0  0  0  0  0  0
   11.3698  -18.4005   23.8384 O   0  0  0  0  0  0  0  0  0  0  0  0
  2  1  1  6
  3  2  1  0
  4  2  1  0
  5  4  1  0
  5  7  1  0
  5  6  1  1
  7  8  2  0
  7 14  1  0
 10  9  1  1
 10 12  1  0
 11 10  1  0
 13 12  1  1
 13 15  1  0
 14 13  1  0
 15 16  2  0
 17 15  1  0
 17 18  1  0
 19 18  1  0
 19 20  1  0
 21 19  2  0
M  END
$$$$
