LLG.pdb
     RDKit          3D

 21 20  0  0  1  0  0  0  0  0999 V2000
    5.7343  -16.4574   19.8861 C   0  0  0  0  0  0  0  0  0  0  0  0
    6.8034  -17.4146   20.3426 C   0  0  2  0  0  0  0  0  0  0  0  0
    6.2042  -18.8077   20.2782 C   0  0  0  0  0  0  0  0  0  0  0  0
    7.3385  -17.1319   21.7140 C   0  0  0  0  0  0  0  0  0  0  0  0
    7.8018  -15.7159   21.8160 C   0  0  2  0  0  0  0  0  0  0  0  0
    8.8296  -15.4661   20.8416 N   0  0  0  0  0  0  0  0  0  0  0  0
    8.2840  -15.3669   23.1754 C   0  0  0  0  0  0  0  0  0  0  0  0
    9.5150  -15.4264   23.4089 O   0  0  0  0  0  0  0  0  0  0  0  0
    5.4880  -11.5364   26.2619 C   0  0  0  0  0  0  0  0  0  0  0  0
    6.6861  -12.2396   25.5448 C   0  0  1  0  0  0  0  0  0  0  0  0
    7.8819  -11.4510   26.1153 C   0  0  0  0  0  0  0  0  0  0  0  0
    6.7608  -13.6503   25.9902 C   0  0  0  0  0  0  0  0  0  0  0  0
    7.8595  -14.5202   25.5359 C   0  0  2  0  0  0  0  0  0  0  0  0
    7.4030  -14.9803   24.1795 N   0  0  0  0  0  0  0  0  0  0  0  0
    8.1381  -15.7583   26.2592 C   0  0  0  0  0  0  0  0  0  0  0  0
    8.5506  -15.7259   27.4708 O   0  0  0  0  0  0  0  0  0  0  0  0
    7.9768  -17.0694   25.7112 N   0  0  0  0  0  0  0  0  0  0  0  0
    8.2828  -18.2126   26.5313 C   0  0  0  0  0  0  0  0  0  0  0  0
    9.7347  -18.3848   26.7474 C   0  0  0  0  0  0  0  0  0  0  0  0
   10.1979  -19.4540   27.4894 O   0  0  0  0  0  0  0  0  0  0  0  0
   10.5734  -17.5847   26.2754 O   0  0  0  0  0  0  0  0  0  0  0  0
  2  1  1  1
  3  2  1  0
  4  2  1  0
  5  4  1  0
  5  7  1  0
  5  6  1  6
  7  8  2  0
  7 14  1  0
 10  9  1  1
 10 12  1  0
 11 10  1  0
 13 12  1  1
 13 15  1  0
 14 13  1  0
 15 16  2  0
 17 15  1  0
 17 18  1  0
 19 18  1  0
 19 20  1  0
 21 19  2  0
M  END
$$$$
