LLG.pdb
     RDKit          3D

 21 20  0  0  1  0  0  0  0  0999 V2000
    8.3663  -14.6751   18.7573 C   0  0  0  0  0  0  0  0  0  0  0  0
    7.6628  -13.7421   19.7070 C   0  0  2  0  0  0  0  0  0  0  0  0
    7.4574  -12.4328   18.9672 C   0  0  0  0  0  0  0  0  0  0  0  0
    8.3908  -13.5122   20.9971 C   0  0  0  0  0  0  0  0  0  0  0  0
    8.4686  -14.7757   21.7893 C   0  0  2  0  0  0  0  0  0  0  0  0
    7.1887  -15.4314   21.7912 N   0  0  0  0  0  0  0  0  0  0  0  0
    8.9359  -14.5527   23.1800 C   0  0  0  0  0  0  0  0  0  0  0  0
   10.0436  -13.9916   23.3580 O   0  0  0  0  0  0  0  0  0  0  0  0
    5.4726  -12.4699   26.8126 C   0  0  0  0  0  0  0  0  0  0  0  0
    6.8067  -12.7144   26.0350 C   0  0  1  0  0  0  0  0  0  0  0  0
    7.7630  -11.7542   26.7702 C   0  0  0  0  0  0  0  0  0  0  0  0
    7.2448  -14.1135   26.2465 C   0  0  0  0  0  0  0  0  0  0  0  0
    8.5231  -14.5886   25.6895 C   0  0  2  0  0  0  0  0  0  0  0  0
    8.1740  -14.9512   24.2730 N   0  0  0  0  0  0  0  0  0  0  0  0
    9.1329  -15.8010   26.2297 C   0  0  0  0  0  0  0  0  0  0  0  0
    9.2405  -15.9678   27.4946 O   0  0  0  0  0  0  0  0  0  0  0  0
    9.6394  -16.8758   25.4338 N   0  0  0  0  0  0  0  0  0  0  0  0
   10.2008  -18.0279   26.0902 C   0  0  0  0  0  0  0  0  0  0  0  0
   10.6547  -19.0609   25.1357 C   0  0  0  0  0  0  0  0  0  0  0  0
   10.4331  -20.3964   25.4103 O   0  0  0  0  0  0  0  0  0  0  0  0
   11.2419  -18.7654   24.0707 O   0  0  0  0  0  0  0  0  0  0  0  0
  2  1  1  6
  3  2  1  0
  4  2  1  0
  5  4  1  0
  5  7  1  0
  5  6  1  1
  7  8  2  0
  7 14  1  0
 10  9  1  1
 10 12  1  0
 11 10  1  0
 13 12  1  1
 13 15  1  0
 14 13  1  0
 15 16  2  0
 17 15  1  0
 17 18  1  0
 19 18  1  0
 19 20  1  0
 21 19  2  0
M  END
$$$$
