LLG.pdb
     RDKit          3D

 21 20  0  0  1  0  0  0  0  0999 V2000
    8.5087  -14.7729   18.6054 C   0  0  0  0  0  0  0  0  0  0  0  0
    7.6035  -13.9474   19.4810 C   0  0  2  0  0  0  0  0  0  0  0  0
    7.2946  -12.6725   18.7175 C   0  0  0  0  0  0  0  0  0  0  0  0
    8.1734  -13.6307   20.8309 C   0  0  0  0  0  0  0  0  0  0  0  0
    8.3581  -14.8789   21.6297 C   0  0  2  0  0  0  0  0  0  0  0  0
    7.1568  -15.6684   21.5881 N   0  0  0  0  0  0  0  0  0  0  0  0
    8.7486  -14.6075   23.0354 C   0  0  0  0  0  0  0  0  0  0  0  0
    9.8268  -14.0045   23.2528 O   0  0  0  0  0  0  0  0  0  0  0  0
    5.2814  -12.4375   26.5595 C   0  0  0  0  0  0  0  0  0  0  0  0
    6.6347  -12.7367   25.8362 C   0  0  1  0  0  0  0  0  0  0  0  0
    7.5998  -11.8194   26.6136 C   0  0  0  0  0  0  0  0  0  0  0  0
    7.0042  -14.1535   26.0600 C   0  0  0  0  0  0  0  0  0  0  0  0
    8.2718  -14.6875   25.5325 C   0  0  2  0  0  0  0  0  0  0  0  0
    7.9474  -15.0066   24.0998 N   0  0  0  0  0  0  0  0  0  0  0  0
    8.7990  -15.9400   26.0680 C   0  0  0  0  0  0  0  0  0  0  0  0
    8.8846  -16.1228   27.3324 O   0  0  0  0  0  0  0  0  0  0  0  0
    9.2437  -17.0387   25.2678 N   0  0  0  0  0  0  0  0  0  0  0  0
    9.6572  -18.2551   25.9178 C   0  0  0  0  0  0  0  0  0  0  0  0
   11.1259  -18.4187   25.9365 C   0  0  0  0  0  0  0  0  0  0  0  0
   11.6831  -19.5737   26.4500 O   0  0  0  0  0  0  0  0  0  0  0  0
   11.8957  -17.5352   25.4971 O   0  0  0  0  0  0  0  0  0  0  0  0
  2  1  1  6
  3  2  1  0
  4  2  1  0
  5  4  1  0
  5  7  1  0
  5  6  1  1
  7  8  2  0
  7 14  1  0
 10  9  1  1
 10 12  1  0
 11 10  1  0
 13 12  1  1
 13 15  1  0
 14 13  1  0
 15 16  2  0
 17 15  1  0
 17 18  1  0
 19 18  1  0
 19 20  1  0
 21 19  2  0
M  END
$$$$
