TNW.pdb
     RDKit          3D

 30 31  0  0  1  0  0  0  0  0999 V2000
   24.8464  -16.3874  -15.3799 C   0  0  0  0  0  0  0  0  0  0  0  0
   24.9171  -16.7599  -16.8467 C   0  0  1  0  0  0  0  0  0  0  0  0
   24.5069  -15.7315  -17.6662 O   0  0  0  0  0  0  0  0  0  0  0  0
   26.3212  -17.2365  -17.2200 C   0  0  2  0  0  0  0  0  0  0  0  0
   26.2555  -17.5856  -18.6265 N   0  0  0  0  0  0  0  0  0  0  0  0
   26.6991  -18.4416  -16.4274 C   0  0  0  0  0  0  0  0  0  0  0  0
   26.1081  -19.5491  -16.6689 O   0  0  0  0  0  0  0  0  0  0  0  0
   30.1674  -20.7309  -11.9414 N   0  0  0  0  0  0  0  0  0  0  0  0
   29.4866  -20.8622  -13.1912 C   0  0  0  0  0  0  0  0  0  0  0  0
   29.0923  -22.0164  -13.4896 O   0  0  0  0  0  0  0  0  0  0  0  0
   29.2587  -19.7101  -14.0814 C   0  0  0  0  0  0  0  0  0  0  0  0
   27.8178  -19.5832  -14.5567 C   0  0  2  0  0  0  0  0  0  0  0  0
   27.6742  -18.4290  -15.4244 N   0  0  0  0  0  0  0  0  0  0  0  0
   26.9478  -19.4754  -13.3608 C   0  0  0  0  0  0  0  0  0  0  0  0
   27.2359  -18.7098  -12.4238 O   0  0  0  0  0  0  0  0  0  0  0  0
   25.7326  -20.2416  -13.2161 N   0  0  0  0  0  0  0  0  0  0  0  0
   25.5191  -21.1606  -12.1410 C   0  0  1  0  0  0  0  0  0  0  0  0
   26.6639  -21.1871  -11.1524 C   0  0  0  0  0  0  0  0  0  0  0  0
   26.2220  -20.7878   -9.7915 C   0  0  0  0  0  0  0  0  0  0  0  0
   24.9208  -20.5959   -9.3836 C   0  0  0  0  0  0  0  0  0  0  0  0
   24.9304  -20.2433   -8.0944 N   0  0  0  0  0  0  0  0  0  0  0  0
   26.1788  -20.1887   -7.6139 C   0  0  0  0  0  0  0  0  0  0  0  0
   26.7324  -19.8873   -6.3879 C   0  0  0  0  0  0  0  0  0  0  0  0
   28.0881  -19.9092   -6.1619 C   0  0  0  0  0  0  0  0  0  0  0  0
   28.9067  -20.2526   -7.2315 C   0  0  0  0  0  0  0  0  0  0  0  0
   28.3428  -20.5530   -8.4563 C   0  0  0  0  0  0  0  0  0  0  0  0
   26.9995  -20.5328   -8.6855 C   0  0  0  0  0  0  0  0  0  0  0  0
   24.2747  -20.7859  -11.4240 C   0  0  0  0  0  0  0  0  0  0  0  0
   23.6170  -21.6747  -10.5756 O   0  0  0  0  0  0  0  0  0  0  0  0
   23.8188  -19.6273  -11.6026 O   0  0  0  0  0  0  0  0  0  0  0  0
  2  1  1  1
  2  4  1  0
  3  2  1  0
  4  6  1  0
  4  5  1  6
  6  7  2  0
  9  8  1  0
 10  9  2  0
 11  9  1  0
 12 11  1  1
 12 14  1  0
 13  6  1  0
 13 12  1  0
 14 15  2  0
 16 17  1  0
 16 14  1  0
 17 28  1  0
 17 18  1  1
 19 27  1  0
 19 18  1  0
 20 19  2  0
 21 20  1  0
 21 22  1  0
 22 27  2  0
 23 22  1  0
 23 24  2  0
 24 25  1  0
 25 26  2  0
 27 26  1  0
 28 30  2  0
 28 29  1  0
M  END
$$$$
