TNW.pdb
     RDKit          3D

 30 31  0  0  1  0  0  0  0  0999 V2000
   32.5164  -28.9871  -19.6658 C   0  0  0  0  0  0  0  0  0  0  0  0
   33.8765  -29.6024  -19.4081 C   0  0  1  0  0  0  0  0  0  0  0  0
   34.8942  -28.6798  -19.5103 O   0  0  0  0  0  0  0  0  0  0  0  0
   33.9061  -30.3087  -18.0522 C   0  0  2  0  0  0  0  0  0  0  0  0
   35.2054  -30.9489  -17.9721 N   0  0  0  0  0  0  0  0  0  0  0  0
   32.8372  -31.3451  -17.9720 C   0  0  0  0  0  0  0  0  0  0  0  0
   32.9265  -32.3822  -18.7139 O   0  0  0  0  0  0  0  0  0  0  0  0
   27.9158  -33.2904  -14.6755 N   0  0  0  0  0  0  0  0  0  0  0  0
   28.8752  -33.2664  -15.7347 C   0  0  0  0  0  0  0  0  0  0  0  0
   28.8971  -34.2720  -16.4863 O   0  0  0  0  0  0  0  0  0  0  0  0
   29.7883  -32.1273  -15.9359 C   0  0  0  0  0  0  0  0  0  0  0  0
   30.7523  -32.3175  -17.0989 C   0  0  2  0  0  0  0  0  0  0  0  0
   31.7308  -31.2461  -17.1216 N   0  0  0  0  0  0  0  0  0  0  0  0
   29.9592  -32.3553  -18.3512 C   0  0  0  0  0  0  0  0  0  0  0  0
   29.5488  -31.3086  -18.8834 O   0  0  0  0  0  0  0  0  0  0  0  0
   29.6216  -33.5914  -19.0167 N   0  0  0  0  0  0  0  0  0  0  0  0
   28.9013  -33.6352  -20.2516 C   0  0  1  0  0  0  0  0  0  0  0  0
   29.5615  -32.8282  -21.3478 C   0  0  0  0  0  0  0  0  0  0  0  0
   28.7254  -32.7837  -22.5749 C   0  0  0  0  0  0  0  0  0  0  0  0
   27.4959  -32.1760  -22.6984 C   0  0  0  0  0  0  0  0  0  0  0  0
   27.0620  -32.3522  -23.9503 N   0  0  0  0  0  0  0  0  0  0  0  0
   27.9429  -33.0511  -24.6769 C   0  0  0  0  0  0  0  0  0  0  0  0
   27.9865  -33.4953  -25.9812 C   0  0  0  0  0  0  0  0  0  0  0  0
   29.0445  -34.2148  -26.4836 C   0  0  0  0  0  0  0  0  0  0  0  0
   30.0967  -34.4891  -25.6177 C   0  0  0  0  0  0  0  0  0  0  0  0
   30.0441  -34.0397  -24.3124 C   0  0  0  0  0  0  0  0  0  0  0  0
   28.9975  -33.3261  -23.8096 C   0  0  0  0  0  0  0  0  0  0  0  0
   28.7889  -35.0468  -20.6965 C   0  0  0  0  0  0  0  0  0  0  0  0
   29.3769  -36.0922  -19.9869 O   0  0  0  0  0  0  0  0  0  0  0  0
   28.1392  -35.2825  -21.7474 O   0  0  0  0  0  0  0  0  0  0  0  0
  2  1  1  1
  2  4  1  0
  3  2  1  0
  4  6  1  0
  4  5  1  6
  6  7  2  0
  9  8  1  0
 10  9  2  0
 11  9  1  0
 12 11  1  1
 12 14  1  0
 13  6  1  0
 13 12  1  0
 14 15  2  0
 16 17  1  0
 16 14  1  0
 17 28  1  0
 17 18  1  6
 19 27  1  0
 19 18  1  0
 20 19  2  0
 21 20  1  0
 21 22  1  0
 22 27  2  0
 23 22  1  0
 23 24  2  0
 24 25  1  0
 25 26  2  0
 27 26  1  0
 28 30  2  0
 28 29  1  0
M  END
$$$$
