TNW.pdb
     RDKit          3D

 30 31  0  0  1  0  0  0  0  0999 V2000
   26.6402  -15.2411  -13.7337 C   0  0  0  0  0  0  0  0  0  0  0  0
   26.4369  -16.6784  -14.1675 C   0  0  1  0  0  0  0  0  0  0  0  0
   25.1068  -16.9834  -14.3546 O   0  0  0  0  0  0  0  0  0  0  0  0
   27.2561  -16.9897  -15.4205 C   0  0  2  0  0  0  0  0  0  0  0  0
   26.6631  -16.1994  -16.4827 N   0  0  0  0  0  0  0  0  0  0  0  0
   27.1626  -18.4366  -15.7680 C   0  0  0  0  0  0  0  0  0  0  0  0
   26.3700  -18.7963  -16.7041 O   0  0  0  0  0  0  0  0  0  0  0  0
   28.0609  -23.4577  -16.6081 N   0  0  0  0  0  0  0  0  0  0  0  0
   29.2208  -22.8305  -16.0566 C   0  0  0  0  0  0  0  0  0  0  0  0
   30.2933  -23.4786  -16.1370 O   0  0  0  0  0  0  0  0  0  0  0  0
   29.1644  -21.4986  -15.4285 C   0  0  0  0  0  0  0  0  0  0  0  0
   27.8216  -20.8012  -15.5986 C   0  0  2  0  0  0  0  0  0  0  0  0
   27.9013  -19.4332  -15.1212 N   0  0  0  0  0  0  0  0  0  0  0  0
   26.8029  -21.5785  -14.8525 C   0  0  0  0  0  0  0  0  0  0  0  0
   26.4713  -22.7202  -15.2181 O   0  0  0  0  0  0  0  0  0  0  0  0
   26.1458  -21.0631  -13.6747 N   0  0  0  0  0  0  0  0  0  0  0  0
   25.1631  -21.8059  -12.9477 C   0  0  1  0  0  0  0  0  0  0  0  0
   25.7018  -22.3961  -11.6632 C   0  0  0  0  0  0  0  0  0  0  0  0
   26.1787  -21.3407  -10.7329 C   0  0  0  0  0  0  0  0  0  0  0  0
   25.3876  -20.4603  -10.0290 C   0  0  0  0  0  0  0  0  0  0  0  0
   26.1818  -19.6665   -9.3039 N   0  0  0  0  0  0  0  0  0  0  0  0
   27.4725  -19.9713   -9.4866 C   0  0  0  0  0  0  0  0  0  0  0  0
   28.6628  -19.4793   -8.9950 C   0  0  0  0  0  0  0  0  0  0  0  0
   29.8841  -19.9936   -9.3603 C   0  0  0  0  0  0  0  0  0  0  0  0
   29.8858  -21.0508  -10.2626 C   0  0  0  0  0  0  0  0  0  0  0  0
   28.6881  -21.5371  -10.7498 C   0  0  0  0  0  0  0  0  0  0  0  0
   27.4748  -21.0308  -10.3907 C   0  0  0  0  0  0  0  0  0  0  0  0
   24.0228  -20.9125  -12.6240 C   0  0  0  0  0  0  0  0  0  0  0  0
   24.0880  -19.5342  -12.8193 O   0  0  0  0  0  0  0  0  0  0  0  0
   22.9775  -21.4370  -12.1610 O   0  0  0  0  0  0  0  0  0  0  0  0
  2  1  1  6
  2  4  1  0
  3  2  1  0
  4  6  1  0
  4  5  1  6
  6  7  2  0
  9  8  1  0
 10  9  2  0
 11  9  1  0
 12 11  1  1
 12 14  1  0
 13  6  1  0
 13 12  1  0
 14 15  2  0
 16 17  1  0
 16 14  1  0
 17 28  1  0
 17 18  1  1
 19 27  1  0
 19 18  1  0
 20 19  2  0
 21 20  1  0
 21 22  1  0
 22 27  2  0
 23 22  1  0
 23 24  2  0
 24 25  1  0
 25 26  2  0
 27 26  1  0
 28 30  2  0
 28 29  1  0
M  END
$$$$
