TNW.pdb
     RDKit          3D

 30 31  0  0  1  0  0  0  0  0999 V2000
   27.8952  -18.1971  -16.5147 C   0  0  0  0  0  0  0  0  0  0  0  0
   26.7695  -18.9190  -15.8027 C   0  0  1  0  0  0  0  0  0  0  0  0
   25.8727  -19.4831  -16.6829 O   0  0  0  0  0  0  0  0  0  0  0  0
   27.3212  -19.9634  -14.8318 C   0  0  2  0  0  0  0  0  0  0  0  0
   27.9266  -20.9882  -15.6610 N   0  0  0  0  0  0  0  0  0  0  0  0
   26.2233  -20.5655  -14.0222 C   0  0  0  0  0  0  0  0  0  0  0  0
   25.6675  -21.6390  -14.4381 O   0  0  0  0  0  0  0  0  0  0  0  0
   26.6415  -22.2141  -10.6578 N   0  0  0  0  0  0  0  0  0  0  0  0
   25.8835  -21.2362   -9.9422 C   0  0  0  0  0  0  0  0  0  0  0  0
   26.1529  -21.1090   -8.7224 O   0  0  0  0  0  0  0  0  0  0  0  0
   24.8440  -20.4217  -10.5962 C   0  0  0  0  0  0  0  0  0  0  0  0
   24.7073  -20.6922  -12.0883 C   0  0  2  0  0  0  0  0  0  0  0  0
   25.7625  -20.0169  -12.8206 N   0  0  0  0  0  0  0  0  0  0  0  0
   23.3659  -20.2288  -12.5178 C   0  0  0  0  0  0  0  0  0  0  0  0
   23.0430  -19.0305  -12.4343 O   0  0  0  0  0  0  0  0  0  0  0  0
   22.3701  -21.1285  -13.0506 N   0  0  0  0  0  0  0  0  0  0  0  0
   21.0564  -20.6998  -13.4198 C   0  0  1  0  0  0  0  0  0  0  0  0
   21.0576  -19.7299  -14.5809 C   0  0  0  0  0  0  0  0  0  0  0  0
   21.8921  -20.2236  -15.7064 C   0  0  0  0  0  0  0  0  0  0  0  0
   22.2234  -21.5365  -15.9570 C   0  0  0  0  0  0  0  0  0  0  0  0
   22.9848  -21.5774  -17.0547 N   0  0  0  0  0  0  0  0  0  0  0  0
   23.1822  -20.3518  -17.5561 C   0  0  0  0  0  0  0  0  0  0  0  0
   23.8682  -19.8480  -18.6405 C   0  0  0  0  0  0  0  0  0  0  0  0
   23.9076  -18.5055  -18.9335 C   0  0  0  0  0  0  0  0  0  0  0  0
   23.2186  -17.6478  -18.0840 C   0  0  0  0  0  0  0  0  0  0  0  0
   22.5340  -18.1619  -16.9999 C   0  0  0  0  0  0  0  0  0  0  0  0
   22.4919  -19.4919  -16.7052 C   0  0  0  0  0  0  0  0  0  0  0  0
   20.2453  -21.8872  -13.7876 C   0  0  0  0  0  0  0  0  0  0  0  0
   18.8734  -21.8003  -14.0168 O   0  0  0  0  0  0  0  0  0  0  0  0
   20.8348  -22.9936  -13.8896 O   0  0  0  0  0  0  0  0  0  0  0  0
  2  1  1  6
  2  4  1  0
  3  2  1  0
  4  6  1  0
  4  5  1  6
  6  7  2  0
  9  8  1  0
 10  9  2  0
 11  9  1  0
 12 11  1  1
 12 14  1  0
 13  6  1  0
 13 12  1  0
 14 15  2  0
 16 17  1  0
 16 14  1  0
 17 28  1  0
 17 18  1  6
 19 27  1  0
 19 18  1  0
 20 19  2  0
 21 20  1  0
 21 22  1  0
 22 27  2  0
 23 22  1  0
 23 24  2  0
 24 25  1  0
 25 26  2  0
 27 26  1  0
 28 30  2  0
 28 29  1  0
M  END
$$$$
