TNW.pdb
     RDKit          3D

 30 31  0  0  1  0  0  0  0  0999 V2000
   29.2603  -23.1154  -16.8274 C   0  0  0  0  0  0  0  0  0  0  0  0
   28.2136  -22.4380  -15.9667 C   0  0  1  0  0  0  0  0  0  0  0  0
   28.5860  -22.3795  -14.6419 O   0  0  0  0  0  0  0  0  0  0  0  0
   27.8808  -21.0473  -16.5084 C   0  0  2  0  0  0  0  0  0  0  0  0
   29.1383  -20.3245  -16.5314 N   0  0  0  0  0  0  0  0  0  0  0  0
   26.9217  -20.3446  -15.6086 C   0  0  0  0  0  0  0  0  0  0  0  0
   27.3680  -19.4588  -14.8023 O   0  0  0  0  0  0  0  0  0  0  0  0
   21.0770  -19.0886  -14.2760 N   0  0  0  0  0  0  0  0  0  0  0  0
   22.4691  -18.7897  -14.4009 C   0  0  0  0  0  0  0  0  0  0  0  0
   22.8931  -17.8255  -13.7174 O   0  0  0  0  0  0  0  0  0  0  0  0
   23.3591  -19.5673  -15.2813 C   0  0  0  0  0  0  0  0  0  0  0  0
   24.7003  -19.9066  -14.6453 C   0  0  2  0  0  0  0  0  0  0  0  0
   25.5466  -20.6020  -15.5971 N   0  0  0  0  0  0  0  0  0  0  0  0
   24.4417  -20.7342  -13.4425 C   0  0  0  0  0  0  0  0  0  0  0  0
   24.3093  -21.9681  -13.5280 O   0  0  0  0  0  0  0  0  0  0  0  0
   24.3300  -20.1647  -12.1204 N   0  0  0  0  0  0  0  0  0  0  0  0
   24.0936  -20.9563  -10.9528 C   0  0  1  0  0  0  0  0  0  0  0  0
   24.6611  -20.3356   -9.6952 C   0  0  0  0  0  0  0  0  0  0  0  0
   26.1242  -20.5665   -9.5823 C   0  0  0  0  0  0  0  0  0  0  0  0
   26.9006  -21.2986  -10.4527 C   0  0  0  0  0  0  0  0  0  0  0  0
   28.1630  -21.2750  -10.0140 N   0  0  0  0  0  0  0  0  0  0  0  0
   28.2735  -20.5603   -8.8874 C   0  0  0  0  0  0  0  0  0  0  0  0
   29.3165  -20.2289   -8.0491 C   0  0  0  0  0  0  0  0  0  0  0  0
   29.1464  -19.4567   -6.9247 C   0  0  0  0  0  0  0  0  0  0  0  0
   27.8602  -19.0076   -6.6490 C   0  0  0  0  0  0  0  0  0  0  0  0
   26.8213  -19.3449   -7.4949 C   0  0  0  0  0  0  0  0  0  0  0  0
   26.9848  -20.1100   -8.6108 C   0  0  0  0  0  0  0  0  0  0  0  0
   22.6308  -21.1387  -10.7797 C   0  0  0  0  0  0  0  0  0  0  0  0
   22.1039  -22.1483   -9.9765 O   0  0  0  0  0  0  0  0  0  0  0  0
   21.8635  -20.3471  -11.3854 O   0  0  0  0  0  0  0  0  0  0  0  0
  2  1  1  6
  2  4  1  0
  3  2  1  0
  4  6  1  0
  4  5  1  1
  6  7  2  0
  9  8  1  0
 10  9  2  0
 11  9  1  0
 12 11  1  6
 12 14  1  0
 13  6  1  0
 13 12  1  0
 14 15  2  0
 16 17  1  0
 16 14  1  0
 17 28  1  0
 17 18  1  1
 19 27  1  0
 19 18  1  0
 20 19  2  0
 21 20  1  0
 21 22  1  0
 22 27  2  0
 23 22  1  0
 23 24  2  0
 24 25  1  0
 25 26  2  0
 27 26  1  0
 28 30  2  0
 28 29  1  0
M  END
$$$$
