TNW.pdb
     RDKit          3D

 30 31  0  0  1  0  0  0  0  0999 V2000
   27.3760  -18.4978  -18.0848 C   0  0  0  0  0  0  0  0  0  0  0  0
   26.4939  -19.7119  -17.8773 C   0  0  1  0  0  0  0  0  0  0  0  0
   25.2514  -19.5580  -18.4517 O   0  0  0  0  0  0  0  0  0  0  0  0
   27.1835  -20.9787  -18.3850 C   0  0  2  0  0  0  0  0  0  0  0  0
   27.2463  -20.8394  -19.8276 N   0  0  0  0  0  0  0  0  0  0  0  0
   26.3865  -22.1902  -18.0383 C   0  0  0  0  0  0  0  0  0  0  0  0
   25.2861  -22.4016  -18.6535 O   0  0  0  0  0  0  0  0  0  0  0  0
   24.6264  -26.7586  -16.6149 N   0  0  0  0  0  0  0  0  0  0  0  0
   25.9157  -26.6113  -16.0159 C   0  0  0  0  0  0  0  0  0  0  0  0
   26.3817  -27.6280  -15.4450 O   0  0  0  0  0  0  0  0  0  0  0  0
   26.6587  -25.3395  -16.0639 C   0  0  0  0  0  0  0  0  0  0  0  0
   25.8827  -24.2051  -16.7189 C   0  0  2  0  0  0  0  0  0  0  0  0
   26.7790  -23.1186  -17.0682 N   0  0  0  0  0  0  0  0  0  0  0  0
   24.8330  -23.7598  -15.7710 C   0  0  0  0  0  0  0  0  0  0  0  0
   23.8395  -24.4694  -15.5330 O   0  0  0  0  0  0  0  0  0  0  0  0
   24.9016  -22.4947  -15.0786 N   0  0  0  0  0  0  0  0  0  0  0  0
   23.9532  -22.1044  -14.0815 C   0  0  1  0  0  0  0  0  0  0  0  0
   24.4374  -20.9546  -13.2258 C   0  0  0  0  0  0  0  0  0  0  0  0
   24.7735  -19.7635  -14.0475 C   0  0  0  0  0  0  0  0  0  0  0  0
   23.8839  -18.8220  -14.5151 C   0  0  0  0  0  0  0  0  0  0  0  0
   24.5651  -17.9081  -15.2132 N   0  0  0  0  0  0  0  0  0  0  0  0
   25.8736  -18.1901  -15.2377 C   0  0  0  0  0  0  0  0  0  0  0  0
   26.9827  -17.5933  -15.7982 C   0  0  0  0  0  0  0  0  0  0  0  0
   28.2493  -18.1103  -15.6642 C   0  0  0  0  0  0  0  0  0  0  0  0
   28.3844  -19.2819  -14.9287 C   0  0  0  0  0  0  0  0  0  0  0  0
   27.2673  -19.8728  -14.3707 C   0  0  0  0  0  0  0  0  0  0  0  0
   26.0095  -19.3642  -14.5007 C   0  0  0  0  0  0  0  0  0  0  0  0
   22.6872  -21.7072  -14.7469 C   0  0  0  0  0  0  0  0  0  0  0  0
   22.5757  -21.6326  -16.1341 O   0  0  0  0  0  0  0  0  0  0  0  0
   21.6995  -21.4345  -14.0174 O   0  0  0  0  0  0  0  0  0  0  0  0
  2  1  1  6
  2  4  1  0
  3  2  1  0
  4  6  1  0
  4  5  1  6
  6  7  2  0
  9  8  1  0
 10  9  2  0
 11  9  1  0
 12 11  1  1
 12 14  1  0
 13  6  1  0
 13 12  1  0
 14 15  2  0
 16 17  1  0
 16 14  1  0
 17 28  1  0
 17 18  1  6
 19 27  1  0
 19 18  1  0
 20 19  2  0
 21 20  1  0
 21 22  1  0
 22 27  2  0
 23 22  1  0
 23 24  2  0
 24 25  1  0
 25 26  2  0
 27 26  1  0
 28 30  2  0
 28 29  1  0
M  END
$$$$
