TNW.pdb
     RDKit          3D

 30 31  0  0  1  0  0  0  0  0999 V2000
   30.7456  -23.7139  -17.3921 C   0  0  0  0  0  0  0  0  0  0  0  0
   29.5904  -22.9323  -16.8007 C   0  0  1  0  0  0  0  0  0  0  0  0
   29.9845  -21.7037  -16.3186 O   0  0  0  0  0  0  0  0  0  0  0  0
   28.4548  -22.7889  -17.8146 C   0  0  2  0  0  0  0  0  0  0  0  0
   28.9458  -21.8722  -18.8259 N   0  0  0  0  0  0  0  0  0  0  0  0
   27.2401  -22.2120  -17.1705 C   0  0  0  0  0  0  0  0  0  0  0  0
   27.2345  -20.9708  -16.8646 O   0  0  0  0  0  0  0  0  0  0  0  0
   23.0708  -23.3986  -19.1007 N   0  0  0  0  0  0  0  0  0  0  0  0
   23.3195  -22.4583  -18.0534 C   0  0  0  0  0  0  0  0  0  0  0  0
   23.2295  -21.2450  -18.3640 O   0  0  0  0  0  0  0  0  0  0  0  0
   23.6625  -22.8856  -16.6853 C   0  0  0  0  0  0  0  0  0  0  0  0
   24.9877  -22.3258  -16.1866 C   0  0  2  0  0  0  0  0  0  0  0  0
   26.0940  -22.9596  -16.8794 N   0  0  0  0  0  0  0  0  0  0  0  0
   25.0608  -22.5541  -14.7233 C   0  0  0  0  0  0  0  0  0  0  0  0
   25.6632  -23.5369  -14.2559 O   0  0  0  0  0  0  0  0  0  0  0  0
   24.4461  -21.6619  -13.7690 N   0  0  0  0  0  0  0  0  0  0  0  0
   24.6398  -21.7843  -12.3571 C   0  0  1  0  0  0  0  0  0  0  0  0
   26.0795  -21.5793  -11.9399 C   0  0  0  0  0  0  0  0  0  0  0  0
   26.1796  -21.0754  -10.5461 C   0  0  0  0  0  0  0  0  0  0  0  0
   25.1250  -20.7826   -9.7104 C   0  0  0  0  0  0  0  0  0  0  0  0
   25.6173  -20.3564   -8.5431 N   0  0  0  0  0  0  0  0  0  0  0  0
   26.9560  -20.3484   -8.5533 C   0  0  0  0  0  0  0  0  0  0  0  0
   27.9295  -20.0093   -7.6380 C   0  0  0  0  0  0  0  0  0  0  0  0
   29.2724  -20.0988   -7.9175 C   0  0  0  0  0  0  0  0  0  0  0  0
   29.6310  -20.5524   -9.1815 C   0  0  0  0  0  0  0  0  0  0  0  0
   28.6484  -20.8899  -10.0921 C   0  0  0  0  0  0  0  0  0  0  0  0
   27.3159  -20.8030   -9.8198 C   0  0  0  0  0  0  0  0  0  0  0  0
   23.7921  -20.7824  -11.6637 C   0  0  0  0  0  0  0  0  0  0  0  0
   23.5787  -20.8239  -10.2871 O   0  0  0  0  0  0  0  0  0  0  0  0
   23.2613  -19.8786  -12.3591 O   0  0  0  0  0  0  0  0  0  0  0  0
  2  1  1  6
  2  4  1  0
  3  2  1  0
  4  6  1  0
  4  5  1  6
  6  7  2  0
  9  8  1  0
 10  9  2  0
 11  9  1  0
 12 11  1  6
 12 14  1  0
 13  6  1  0
 13 12  1  0
 14 15  2  0
 16 17  1  0
 16 14  1  0
 17 28  1  0
 17 18  1  6
 19 27  1  0
 19 18  1  0
 20 19  2  0
 21 20  1  0
 21 22  1  0
 22 27  2  0
 23 22  1  0
 23 24  2  0
 24 25  1  0
 25 26  2  0
 27 26  1  0
 28 30  2  0
 28 29  1  0
M  END
$$$$
