LKH.pdb
     RDKit          3D

 28 28  0  0  1  0  0  0  0  0999 V2000
   18.0376  -14.2809  -17.8878 C   0  0  0  0  0  0  0  0  0  0  0  0
   19.0976  -14.8281  -16.9749 C   0  0  2  0  0  0  0  0  0  0  0  0
   18.5517  -15.9269  -16.0636 C   0  0  0  0  0  0  0  0  0  0  0  0
   19.7277  -13.7087  -16.1331 C   0  0  0  0  0  0  0  0  0  0  0  0
   20.3098  -12.7248  -17.1137 C   0  0  2  0  0  0  0  0  0  0  0  0
   21.4657  -13.3069  -17.7229 N   0  0  0  0  0  0  0  0  0  0  0  0
   20.5857  -11.4028  -16.5005 C   0  0  0  0  0  0  0  0  0  0  0  0
   21.1244  -11.2446  -15.3977 O   0  0  0  0  0  0  0  0  0  0  0  0
   20.2053  -10.2574  -17.2305 N   0  0  0  0  0  0  0  0  0  0  0  0
   20.3371   -8.8928  -16.7409 C   0  0  1  0  0  0  0  0  0  0  0  0
   20.5104   -7.9095  -17.8310 C   0  0  0  0  0  0  0  0  0  0  0  0
   20.7379   -6.5385  -17.2786 C   0  0  0  0  0  0  0  0  0  0  0  0
   20.9566   -5.4775  -18.3424 C   0  0  0  0  0  0  0  0  0  0  0  0
   21.2797   -4.1776  -17.6667 C   0  0  0  0  0  0  0  0  0  0  0  0
   21.4941   -3.1152  -18.6537 N   0  0  0  0  0  0  0  0  0  0  0  0
   19.2119   -8.6159  -15.8629 C   0  0  0  0  0  0  0  0  0  0  0  0
   17.9941   -8.8684  -16.0776 O   0  0  0  0  0  0  0  0  0  0  0  0
   19.4716   -7.9797  -14.5890 N   0  0  0  0  0  0  0  0  0  0  0  0
   18.3776   -7.7479  -13.6557 C   0  0  1  0  0  0  0  0  0  0  0  0
   18.9054   -8.1608  -12.2964 C   0  0  0  0  0  0  0  0  0  0  0  0
   17.8061   -7.9755  -11.3158 C   0  0  0  0  0  0  0  0  0  0  0  0
   16.4798   -7.6450  -11.6184 C   0  0  0  0  0  0  0  0  0  0  0  0
   15.7587   -7.5583  -10.4900 N   0  0  0  0  0  0  0  0  0  0  0  0
   16.6100   -7.8285   -9.4880 C   0  0  0  0  0  0  0  0  0  0  0  0
   17.8303   -8.0776   -9.9735 N   0  0  0  0  0  0  0  0  0  0  0  0
   18.0467   -6.3050  -13.6970 C   0  0  0  0  0  0  0  0  0  0  0  0
   18.9264   -5.4307  -13.8350 O   0  0  0  0  0  0  0  0  0  0  0  0
   16.7347   -5.8754  -13.5824 O   0  0  0  0  0  0  0  0  0  0  0  0
  2  1  1  1
  3  2  1  0
  4  2  1  0
  5  4  1  0
  5  6  1  1
  7  5  1  0
  7  8  2  0
  9  7  1  0
 10  9  1  0
 10 11  1  6
 11 12  1  0
 12 13  1  0
 13 14  1  0
 14 15  1  0
 16 10  1  0
 17 16  2  0
 18 16  1  0
 19 18  1  0
 19 20  1  1
 20 21  1  0
 21 22  2  0
 22 23  1  0
 24 23  1  0
 25 21  1  0
 25 24  2  0
 26 28  1  0
 26 19  1  0
 27 26  2  0
M  END
$$$$
