LKH.pdb
     RDKit          3D

 28 28  0  0  1  0  0  0  0  0999 V2000
   25.8887  -20.2456   -7.2141 C   0  0  0  0  0  0  0  0  0  0  0  0
   27.2159  -20.3388   -7.9113 C   0  0  2  0  0  0  0  0  0  0  0  0
   28.3297  -19.6703   -7.1062 C   0  0  0  0  0  0  0  0  0  0  0  0
   27.1407  -19.7263   -9.3178 C   0  0  0  0  0  0  0  0  0  0  0  0
   26.0873  -20.5074  -10.0585 C   0  0  2  0  0  0  0  0  0  0  0  0
   26.4125  -21.8990   -9.9953 N   0  0  0  0  0  0  0  0  0  0  0  0
   25.8890  -20.0246  -11.4468 C   0  0  0  0  0  0  0  0  0  0  0  0
   25.5613  -18.8686  -11.7427 O   0  0  0  0  0  0  0  0  0  0  0  0
   26.0896  -20.9518  -12.4907 N   0  0  0  0  0  0  0  0  0  0  0  0
   25.9805  -20.6284  -13.9058 C   0  0  1  0  0  0  0  0  0  0  0  0
   26.9811  -21.3368  -14.7318 C   0  0  0  0  0  0  0  0  0  0  0  0
   26.9249  -20.8692  -16.1513 C   0  0  0  0  0  0  0  0  0  0  0  0
   27.9180  -21.5646  -17.0654 C   0  0  0  0  0  0  0  0  0  0  0  0
   27.8793  -20.9022  -18.4110 C   0  0  0  0  0  0  0  0  0  0  0  0
   28.9859  -21.3659  -19.2532 N   0  0  0  0  0  0  0  0  0  0  0  0
   24.6039  -20.8517  -14.3167 C   0  0  0  0  0  0  0  0  0  0  0  0
   23.7722  -21.6497  -13.8026 O   0  0  0  0  0  0  0  0  0  0  0  0
   24.0875  -20.0949  -15.4372 N   0  0  0  0  0  0  0  0  0  0  0  0
   22.6982  -19.6571  -15.4403 C   0  0  1  0  0  0  0  0  0  0  0  0
   22.5616  -18.7219  -14.2556 C   0  0  0  0  0  0  0  0  0  0  0  0
   21.1617  -18.2278  -14.2363 C   0  0  0  0  0  0  0  0  0  0  0  0
   20.1533  -18.5750  -15.1433 C   0  0  0  0  0  0  0  0  0  0  0  0
   19.0127  -17.9427  -14.8269 N   0  0  0  0  0  0  0  0  0  0  0  0
   19.2899  -17.2069  -13.7391 C   0  0  0  0  0  0  0  0  0  0  0  0
   20.5675  -17.3725  -13.3828 N   0  0  0  0  0  0  0  0  0  0  0  0
   22.4485  -18.9557  -16.7204 C   0  0  0  0  0  0  0  0  0  0  0  0
   21.4162  -19.1574  -17.3920 O   0  0  0  0  0  0  0  0  0  0  0  0
   23.3637  -18.0430  -17.2186 O   0  0  0  0  0  0  0  0  0  0  0  0
  2  1  1  1
  3  2  1  0
  4  2  1  0
  5  4  1  0
  5  6  1  6
  7  5  1  0
  7  8  2  0
  9  7  1  0
 10  9  1  0
 10 11  1  6
 11 12  1  0
 12 13  1  0
 13 14  1  0
 14 15  1  0
 16 10  1  0
 17 16  2  0
 18 16  1  0
 19 18  1  0
 19 20  1  1
 20 21  1  0
 21 22  2  0
 22 23  1  0
 24 23  1  0
 25 21  1  0
 25 24  2  0
 26 28  1  0
 26 19  1  0
 27 26  2  0
M  END
$$$$
