LKH.pdb
     RDKit          3D

 28 28  0  0  1  0  0  0  0  0999 V2000
   16.9546  -15.0515  -18.9170 C   0  0  0  0  0  0  0  0  0  0  0  0
   17.2355  -15.4386  -17.4931 C   0  0  2  0  0  0  0  0  0  0  0  0
   15.9903  -15.9858  -16.7961 C   0  0  0  0  0  0  0  0  0  0  0  0
   17.8030  -14.2498  -16.7034 C   0  0  0  0  0  0  0  0  0  0  0  0
   19.0912  -13.8710  -17.3856 C   0  0  2  0  0  0  0  0  0  0  0  0
   20.0520  -14.9085  -17.1699 N   0  0  0  0  0  0  0  0  0  0  0  0
   19.5842  -12.5343  -16.9732 C   0  0  0  0  0  0  0  0  0  0  0  0
   20.1956  -12.3110  -15.9209 O   0  0  0  0  0  0  0  0  0  0  0  0
   19.3343  -11.4538  -17.8449 N   0  0  0  0  0  0  0  0  0  0  0  0
   19.6517  -10.0660  -17.5411 C   0  0  1  0  0  0  0  0  0  0  0  0
   19.7275   -9.2199  -18.7509 C   0  0  0  0  0  0  0  0  0  0  0  0
   20.1948   -7.8415  -18.4067 C   0  0  0  0  0  0  0  0  0  0  0  0
   20.1994   -6.8838  -19.5848 C   0  0  0  0  0  0  0  0  0  0  0  0
   20.7730   -5.5720  -19.1367 C   0  0  0  0  0  0  0  0  0  0  0  0
   21.3120   -4.8217  -20.2748 N   0  0  0  0  0  0  0  0  0  0  0  0
   18.7067   -9.5933  -16.5425 C   0  0  0  0  0  0  0  0  0  0  0  0
   17.4492   -9.6979  -16.5695 O   0  0  0  0  0  0  0  0  0  0  0  0
   19.2223   -8.9212  -15.3688 N   0  0  0  0  0  0  0  0  0  0  0  0
   18.3022   -8.3848  -14.3752 C   0  0  1  0  0  0  0  0  0  0  0  0
   18.5232   -9.2120  -13.1247 C   0  0  0  0  0  0  0  0  0  0  0  0
   17.6588   -8.6475  -12.0577 C   0  0  0  0  0  0  0  0  0  0  0  0
   16.2611   -8.7125  -12.0099 C   0  0  0  0  0  0  0  0  0  0  0  0
   15.8099   -8.0985  -10.9052 N   0  0  0  0  0  0  0  0  0  0  0  0
   16.8998   -7.6511  -10.2621 C   0  0  0  0  0  0  0  0  0  0  0  0
   18.0034   -7.9749  -10.9434 N   0  0  0  0  0  0  0  0  0  0  0  0
   18.6519   -6.9624  -14.1570 C   0  0  0  0  0  0  0  0  0  0  0  0
   19.7468   -6.4891  -14.5240 O   0  0  0  0  0  0  0  0  0  0  0  0
   17.7643   -6.1024  -13.5314 O   0  0  0  0  0  0  0  0  0  0  0  0
  2  1  1  6
  3  2  1  0
  4  2  1  0
  5  4  1  0
  5  6  1  1
  7  5  1  0
  7  8  2  0
  9  7  1  0
 10  9  1  0
 10 11  1  6
 11 12  1  0
 12 13  1  0
 13 14  1  0
 14 15  1  0
 16 10  1  0
 17 16  2  0
 18 16  1  0
 19 18  1  0
 19 20  1  1
 20 21  1  0
 21 22  2  0
 22 23  1  0
 24 23  1  0
 25 21  1  0
 25 24  2  0
 26 28  1  0
 26 19  1  0
 27 26  2  0
M  END
$$$$
