LKH.pdb
     RDKit          3D

 28 28  0  0  1  0  0  0  0  0999 V2000
   15.3827   -9.5011  -18.8860 C   0  0  0  0  0  0  0  0  0  0  0  0
   14.8221   -9.2600  -17.5135 C   0  0  2  0  0  0  0  0  0  0  0  0
   13.7036   -8.2187  -17.5306 C   0  0  0  0  0  0  0  0  0  0  0  0
   15.9276   -8.8313  -16.5371 C   0  0  0  0  0  0  0  0  0  0  0  0
   16.8507  -10.0140  -16.4049 C   0  0  2  0  0  0  0  0  0  0  0  0
   16.1191  -11.1133  -15.8550 N   0  0  0  0  0  0  0  0  0  0  0  0
   18.0786   -9.6967  -15.6357 C   0  0  0  0  0  0  0  0  0  0  0  0
   18.1108   -9.5356  -14.4093 O   0  0  0  0  0  0  0  0  0  0  0  0
   19.2830   -9.5726  -16.3594 N   0  0  0  0  0  0  0  0  0  0  0  0
   20.5572   -9.1887  -15.7694 C   0  0  1  0  0  0  0  0  0  0  0  0
   21.6980   -9.9376  -16.3379 C   0  0  0  0  0  0  0  0  0  0  0  0
   22.9664   -9.5968  -15.6226 C   0  0  0  0  0  0  0  0  0  0  0  0
   24.2026  -10.2377  -16.2279 C   0  0  0  0  0  0  0  0  0  0  0  0
   25.3692   -9.9869  -15.3186 C   0  0  0  0  0  0  0  0  0  0  0  0
   26.6244  -10.3991  -15.9538 N   0  0  0  0  0  0  0  0  0  0  0  0
   20.6852   -7.7439  -15.8682 C   0  0  0  0  0  0  0  0  0  0  0  0
   20.6205   -7.0401  -16.9138 O   0  0  0  0  0  0  0  0  0  0  0  0
   20.9133   -6.9875  -14.6554 N   0  0  0  0  0  0  0  0  0  0  0  0
   21.1253   -5.5481  -14.7255 C   0  0  1  0  0  0  0  0  0  0  0  0
   19.9044   -4.9231  -14.0806 C   0  0  0  0  0  0  0  0  0  0  0  0
   18.8528   -4.8193  -15.1235 C   0  0  0  0  0  0  0  0  0  0  0  0
   18.9577   -4.1205  -16.3321 C   0  0  0  0  0  0  0  0  0  0  0  0
   17.8192   -4.2397  -17.0324 N   0  0  0  0  0  0  0  0  0  0  0  0
   17.0050   -5.0001  -16.2836 C   0  0  0  0  0  0  0  0  0  0  0  0
   17.6147   -5.3481  -15.1462 N   0  0  0  0  0  0  0  0  0  0  0  0
   22.3606   -5.2362  -13.9707 C   0  0  0  0  0  0  0  0  0  0  0  0
   23.0451   -6.1282  -13.4293 O   0  0  0  0  0  0  0  0  0  0  0  0
   22.8004   -3.9290  -13.8404 O   0  0  0  0  0  0  0  0  0  0  0  0
  2  1  1  6
  3  2  1  0
  4  2  1  0
  5  4  1  0
  5  6  1  1
  7  5  1  0
  7  8  2  0
  9  7  1  0
 10  9  1  0
 10 11  1  6
 11 12  1  0
 12 13  1  0
 13 14  1  0
 14 15  1  0
 16 10  1  0
 17 16  2  0
 18 16  1  0
 19 18  1  0
 19 20  1  1
 20 21  1  0
 21 22  2  0
 22 23  1  0
 24 23  1  0
 25 21  1  0
 25 24  2  0
 26 28  1  0
 26 19  1  0
 27 26  2  0
M  END
$$$$
