LKH.pdb
     RDKit          3D

 28 28  0  0  1  0  0  0  0  0999 V2000
   21.7449  -16.1564  -19.8503 C   0  0  0  0  0  0  0  0  0  0  0  0
   22.5776  -16.9382  -20.8259 C   0  0  2  0  0  0  0  0  0  0  0  0
   21.8370  -17.1793  -22.1409 C   0  0  0  0  0  0  0  0  0  0  0  0
   23.0230  -18.2764  -20.2178 C   0  0  0  0  0  0  0  0  0  0  0  0
   23.6914  -17.9402  -18.9107 C   0  0  2  0  0  0  0  0  0  0  0  0
   24.7596  -17.0219  -19.1595 N   0  0  0  0  0  0  0  0  0  0  0  0
   24.1299  -19.1462  -18.1668 C   0  0  0  0  0  0  0  0  0  0  0  0
   23.3908  -20.0971  -17.8828 O   0  0  0  0  0  0  0  0  0  0  0  0
   25.4797  -19.2027  -17.7613 N   0  0  0  0  0  0  0  0  0  0  0  0
   26.0936  -20.3541  -17.1158 C   0  0  1  0  0  0  0  0  0  0  0  0
   27.4567  -20.6297  -17.6169 C   0  0  0  0  0  0  0  0  0  0  0  0
   27.7040  -22.1023  -17.7011 C   0  0  0  0  0  0  0  0  0  0  0  0
   29.0421  -22.5329  -17.1274 C   0  0  0  0  0  0  0  0  0  0  0  0
   29.2294  -23.9981  -17.3897 C   0  0  0  0  0  0  0  0  0  0  0  0
   30.5139  -24.4637  -16.8586 N   0  0  0  0  0  0  0  0  0  0  0  0
   26.0161  -20.1615  -15.6769 C   0  0  0  0  0  0  0  0  0  0  0  0
   26.5701  -19.2549  -14.9956 O   0  0  0  0  0  0  0  0  0  0  0  0
   25.2254  -21.0909  -14.8985 N   0  0  0  0  0  0  0  0  0  0  0  0
   25.2233  -21.0036  -13.4445 C   0  0  1  0  0  0  0  0  0  0  0  0
   23.8429  -20.5050  -13.0668 C   0  0  0  0  0  0  0  0  0  0  0  0
   23.7423  -20.5489  -11.5861 C   0  0  0  0  0  0  0  0  0  0  0  0
   24.7897  -20.8187  -10.6973 C   0  0  0  0  0  0  0  0  0  0  0  0
   24.3420  -20.7767   -9.4329 N   0  0  0  0  0  0  0  0  0  0  0  0
   23.0343  -20.4857   -9.5155 C   0  0  0  0  0  0  0  0  0  0  0  0
   22.6716  -20.3489  -10.7947 N   0  0  0  0  0  0  0  0  0  0  0  0
   25.4780  -22.3610  -12.9101 C   0  0  0  0  0  0  0  0  0  0  0  0
   24.9097  -23.3699  -13.3755 O   0  0  0  0  0  0  0  0  0  0  0  0
   26.3655  -22.5559  -11.8644 O   0  0  0  0  0  0  0  0  0  0  0  0
  2  1  1  1
  3  2  1  0
  4  2  1  0
  5  4  1  0
  5  6  1  6
  7  5  1  0
  7  8  2  0
  9  7  1  0
 10  9  1  0
 10 11  1  6
 11 12  1  0
 12 13  1  0
 13 14  1  0
 14 15  1  0
 16 10  1  0
 17 16  2  0
 18 16  1  0
 19 18  1  0
 19 20  1  1
 20 21  1  0
 21 22  2  0
 22 23  1  0
 24 23  1  0
 25 21  1  0
 25 24  2  0
 26 28  1  0
 26 19  1  0
 27 26  2  0
M  END
$$$$
