LKH.pdb
     RDKit          3D

 28 28  0  0  1  0  0  0  0  0999 V2000
   24.6053  -17.6047  -19.0736 C   0  0  0  0  0  0  0  0  0  0  0  0
   23.6553  -18.7551  -19.2474 C   0  0  2  0  0  0  0  0  0  0  0  0
   23.9581  -19.5568  -20.5129 C   0  0  0  0  0  0  0  0  0  0  0  0
   22.1995  -18.2659  -19.2682 C   0  0  0  0  0  0  0  0  0  0  0  0
   21.9388  -17.6706  -17.9095 C   0  0  2  0  0  0  0  0  0  0  0  0
   22.1733  -18.6700  -16.9133 N   0  0  0  0  0  0  0  0  0  0  0  0
   20.5929  -17.0564  -17.8039 C   0  0  0  0  0  0  0  0  0  0  0  0
   20.1221  -16.2628  -18.6284 O   0  0  0  0  0  0  0  0  0  0  0  0
   19.8063  -17.4066  -16.6866 N   0  0  0  0  0  0  0  0  0  0  0  0
   18.5057  -16.8259  -16.3862 C   0  0  1  0  0  0  0  0  0  0  0  0
   17.7364  -17.6240  -15.4081 C   0  0  0  0  0  0  0  0  0  0  0  0
   17.8272  -19.0829  -15.7245 C   0  0  0  0  0  0  0  0  0  0  0  0
   17.1430  -19.9751  -14.7041 C   0  0  0  0  0  0  0  0  0  0  0  0
   17.2471  -21.3995  -15.1633 C   0  0  0  0  0  0  0  0  0  0  0  0
   16.7602  -22.3181  -14.1300 N   0  0  0  0  0  0  0  0  0  0  0  0
   18.7076  -15.4400  -15.9960 C   0  0  0  0  0  0  0  0  0  0  0  0
   19.7395  -14.9352  -15.4733 O   0  0  0  0  0  0  0  0  0  0  0  0
   17.6298  -14.4986  -16.2131 N   0  0  0  0  0  0  0  0  0  0  0  0
   17.8898  -13.0671  -16.1425 C   0  0  1  0  0  0  0  0  0  0  0  0
   18.8410  -12.7675  -17.2837 C   0  0  0  0  0  0  0  0  0  0  0  0
   19.1964  -11.3282  -17.2022 C   0  0  0  0  0  0  0  0  0  0  0  0
   18.7785  -10.4317  -16.2114 C   0  0  0  0  0  0  0  0  0  0  0  0
   19.2880   -9.2133  -16.4494 N   0  0  0  0  0  0  0  0  0  0  0  0
   20.0165   -9.3321  -17.5705 C   0  0  0  0  0  0  0  0  0  0  0  0
   19.9657  -10.5888  -18.0232 N   0  0  0  0  0  0  0  0  0  0  0  0
   16.5971  -12.3644  -16.3113 C   0  0  0  0  0  0  0  0  0  0  0  0
   15.7520  -12.7321  -17.1527 O   0  0  0  0  0  0  0  0  0  0  0  0
   16.2817  -11.2639  -15.5313 O   0  0  0  0  0  0  0  0  0  0  0  0
  2  1  1  6
  3  2  1  0
  4  2  1  0
  5  4  1  0
  5  6  1  1
  7  5  1  0
  7  8  2  0
  9  7  1  0
 10  9  1  0
 10 11  1  1
 11 12  1  0
 12 13  1  0
 13 14  1  0
 14 15  1  0
 16 10  1  0
 17 16  2  0
 18 16  1  0
 19 18  1  0
 19 20  1  6
 20 21  1  0
 21 22  2  0
 22 23  1  0
 24 23  1  0
 25 21  1  0
 25 24  2  0
 26 28  1  0
 26 19  1  0
 27 26  2  0
M  END
$$$$
