LKH.pdb
     RDKit          3D

 28 28  0  0  1  0  0  0  0  0999 V2000
   24.8438  -21.7529   -8.4361 C   0  0  0  0  0  0  0  0  0  0  0  0
   25.8642  -20.6684   -8.2385 C   0  0  2  0  0  0  0  0  0  0  0  0
   25.4344  -19.6721   -7.1622 C   0  0  0  0  0  0  0  0  0  0  0  0
   26.1449  -19.9326   -9.5571 C   0  0  0  0  0  0  0  0  0  0  0  0
   26.5785  -20.9875  -10.5408 C   0  0  2  0  0  0  0  0  0  0  0  0
   27.9578  -21.2921  -10.3153 N   0  0  0  0  0  0  0  0  0  0  0  0
   26.2944  -20.6088  -11.9465 C   0  0  0  0  0  0  0  0  0  0  0  0
   26.9818  -19.8213  -12.6088 O   0  0  0  0  0  0  0  0  0  0  0  0
   25.1644  -21.1900  -12.5588 N   0  0  0  0  0  0  0  0  0  0  0  0
   24.8732  -21.1112  -13.9829 C   0  0  1  0  0  0  0  0  0  0  0  0
   25.7551  -21.9767  -14.7945 C   0  0  0  0  0  0  0  0  0  0  0  0
   26.3242  -21.2191  -15.9515 C   0  0  0  0  0  0  0  0  0  0  0  0
   26.2597  -21.9720  -17.2684 C   0  0  0  0  0  0  0  0  0  0  0  0
   26.9857  -21.1773  -18.3134 C   0  0  0  0  0  0  0  0  0  0  0  0
   26.8572  -21.8068  -19.6310 N   0  0  0  0  0  0  0  0  0  0  0  0
   23.4540  -21.3654  -14.1698 C   0  0  0  0  0  0  0  0  0  0  0  0
   22.7129  -22.1135  -13.4741 O   0  0  0  0  0  0  0  0  0  0  0  0
   22.7741  -20.7072  -15.2651 N   0  0  0  0  0  0  0  0  0  0  0  0
   21.5287  -19.9917  -15.0227 C   0  0  1  0  0  0  0  0  0  0  0  0
   21.8573  -18.9402  -13.9818 C   0  0  0  0  0  0  0  0  0  0  0  0
   20.6143  -18.1736  -13.7142 C   0  0  0  0  0  0  0  0  0  0  0  0
   19.3703  -18.3841  -14.3209 C   0  0  0  0  0  0  0  0  0  0  0  0
   18.4714  -17.5104  -13.8419 N   0  0  0  0  0  0  0  0  0  0  0  0
   19.1309  -16.7580  -12.9471 C   0  0  0  0  0  0  0  0  0  0  0  0
   20.4068  -17.1481  -12.8667 N   0  0  0  0  0  0  0  0  0  0  0  0
   21.1037  -19.3786  -16.3019 C   0  0  0  0  0  0  0  0  0  0  0  0
   21.9194  -18.8400  -17.0778 O   0  0  0  0  0  0  0  0  0  0  0  0
   19.7716  -19.3837  -16.6821 O   0  0  0  0  0  0  0  0  0  0  0  0
  2  1  1  6
  3  2  1  0
  4  2  1  0
  5  4  1  0
  5  6  1  6
  7  5  1  0
  7  8  2  0
  9  7  1  0
 10  9  1  0
 10 11  1  6
 11 12  1  0
 12 13  1  0
 13 14  1  0
 14 15  1  0
 16 10  1  0
 17 16  2  0
 18 16  1  0
 19 18  1  0
 19 20  1  1
 20 21  1  0
 21 22  2  0
 22 23  1  0
 24 23  1  0
 25 21  1  0
 25 24  2  0
 26 28  1  0
 26 19  1  0
 27 26  2  0
M  END
$$$$
