HGY.pdb
     RDKit          3D

 27 28  0  0  1  0  0  0  0  0999 V2000
   20.9446  -14.5569  -18.6231 N   0  0  0  0  0  0  0  0  0  0  0  0
   21.8173  -13.9336  -19.5658 C   0  0  1  0  0  0  0  0  0  0  0  0
   21.1242  -13.9453  -20.9291 C   0  0  0  0  0  0  0  0  0  0  0  0
   20.8645  -15.3492  -21.3418 C   0  0  0  0  0  0  0  0  0  0  0  0
   21.3682  -16.0599  -22.4109 C   0  0  0  0  0  0  0  0  0  0  0  0
   20.8603  -17.3208  -22.4095 N   0  0  0  0  0  0  0  0  0  0  0  0
   20.0377  -17.3966  -21.3367 C   0  0  0  0  0  0  0  0  0  0  0  0
   20.0422  -16.2114  -20.6974 N   0  0  0  0  0  0  0  0  0  0  0  0
   22.2145  -12.5636  -19.1804 C   0  0  0  0  0  0  0  0  0  0  0  0
   22.9961  -11.8726  -19.8784 O   0  0  0  0  0  0  0  0  0  0  0  0
   21.7017  -11.9907  -17.9772 N   0  0  0  0  0  0  0  0  0  0  0  0
   22.1205  -10.6698  -17.6206 C   0  0  0  0  0  0  0  0  0  0  0  0
   21.5385  -10.1424  -16.3698 C   0  0  0  0  0  0  0  0  0  0  0  0
   20.5616  -10.7566  -15.8233 O   0  0  0  0  0  0  0  0  0  0  0  0
   24.0765   -2.9610  -15.7538 O   0  0  0  0  0  0  0  0  0  0  0  0
   23.6824   -4.1822  -15.2329 C   0  0  0  0  0  0  0  0  0  0  0  0
   24.2480   -5.3505  -15.6738 C   0  0  0  0  0  0  0  0  0  0  0  0
   23.8350   -6.5384  -15.1377 C   0  0  0  0  0  0  0  0  0  0  0  0
   22.8571   -6.6203  -14.1551 C   0  0  0  0  0  0  0  0  0  0  0  0
   22.3827   -7.8812  -13.5623 C   0  0  0  0  0  0  0  0  0  0  0  0
   21.3569   -8.5428  -14.4246 C   0  0  2  0  0  0  0  0  0  0  0  0
   21.9679   -8.9809  -15.6869 N   0  0  0  0  0  0  0  0  0  0  0  0
   20.1867   -7.6817  -14.6918 C   0  0  0  0  0  0  0  0  0  0  0  0
   19.2580   -7.4757  -13.7024 O   0  0  0  0  0  0  0  0  0  0  0  0
   22.2888   -5.4208  -13.7144 C   0  0  0  0  0  0  0  0  0  0  0  0
   22.7125   -4.2393  -14.2605 C   0  0  0  0  0  0  0  0  0  0  0  0
   20.0192   -7.1304  -15.8154 O   0  0  0  0  0  0  0  0  0  0  0  0
  2  1  1  1
  2  3  1  0
  4  3  1  0
  4  8  1  0
  5  4  2  0
  6  5  1  0
  6  7  1  0
  7  8  2  0
  9  2  1  0
 10  9  2  0
 11  9  1  0
 12 11  1  0
 13 22  1  0
 13 12  1  0
 14 13  2  0
 16 15  1  0
 17 16  2  0
 18 17  1  0
 19 25  1  0
 19 18  2  0
 21 20  1  1
 20 19  1  0
 21 23  1  0
 21 22  1  0
 23 24  1  0
 25 26  2  0
 26 16  1  0
 27 23  2  0
M  END
$$$$
