HGY.pdb
     RDKit          3D

 27 28  0  0  1  0  0  0  0  0999 V2000
   19.1732  -12.9811  -15.9667 N   0  0  0  0  0  0  0  0  0  0  0  0
   18.1445  -12.5210  -16.8435 C   0  0  1  0  0  0  0  0  0  0  0  0
   16.7976  -12.9299  -16.2452 C   0  0  0  0  0  0  0  0  0  0  0  0
   16.7458  -14.4084  -16.1034 C   0  0  0  0  0  0  0  0  0  0  0  0
   16.9174  -15.1915  -14.9814 C   0  0  0  0  0  0  0  0  0  0  0  0
   16.7852  -16.5045  -15.3083 N   0  0  0  0  0  0  0  0  0  0  0  0
   16.5306  -16.5400  -16.6377 C   0  0  0  0  0  0  0  0  0  0  0  0
   16.5075  -15.2800  -17.1125 N   0  0  0  0  0  0  0  0  0  0  0  0
   18.1969  -11.0662  -17.0965 C   0  0  0  0  0  0  0  0  0  0  0  0
   17.3333  -10.4767  -17.7910 O   0  0  0  0  0  0  0  0  0  0  0  0
   19.2580  -10.2895  -16.5403 N   0  0  0  0  0  0  0  0  0  0  0  0
   19.2037   -8.8664  -16.6782 C   0  0  0  0  0  0  0  0  0  0  0  0
   19.5656   -8.1035  -15.4665 C   0  0  0  0  0  0  0  0  0  0  0  0
   18.9927   -8.3751  -14.3582 O   0  0  0  0  0  0  0  0  0  0  0  0
   26.1921   -6.0737  -17.6070 O   0  0  0  0  0  0  0  0  0  0  0  0
   25.2161   -6.2315  -16.6372 C   0  0  0  0  0  0  0  0  0  0  0  0
   24.8019   -5.1687  -15.8766 C   0  0  0  0  0  0  0  0  0  0  0  0
   23.8362   -5.3604  -14.9280 C   0  0  0  0  0  0  0  0  0  0  0  0
   23.2467   -6.5957  -14.6940 C   0  0  0  0  0  0  0  0  0  0  0  0
   22.2116   -6.8396  -13.6764 C   0  0  0  0  0  0  0  0  0  0  0  0
   20.8648   -6.3900  -14.1428 C   0  0  2  0  0  0  0  0  0  0  0  0
   20.5194   -7.0612  -15.4034 N   0  0  0  0  0  0  0  0  0  0  0  0
   20.7684   -4.9241  -14.2979 C   0  0  0  0  0  0  0  0  0  0  0  0
   20.8970   -4.1170  -13.1953 O   0  0  0  0  0  0  0  0  0  0  0  0
   23.6785   -7.6710  -15.4771 C   0  0  0  0  0  0  0  0  0  0  0  0
   24.6460   -7.4638  -16.4229 C   0  0  0  0  0  0  0  0  0  0  0  0
   20.5672   -4.3944  -15.4263 O   0  0  0  0  0  0  0  0  0  0  0  0
  2  1  1  1
  2  3  1  0
  4  3  1  0
  4  8  1  0
  5  4  2  0
  6  5  1  0
  6  7  1  0
  7  8  2  0
  9  2  1  0
 10  9  2  0
 11  9  1  0
 12 11  1  0
 13 22  1  0
 13 12  1  0
 14 13  2  0
 16 15  1  0
 17 16  2  0
 18 17  1  0
 19 25  1  0
 19 18  2  0
 21 20  1  6
 20 19  1  0
 21 23  1  0
 21 22  1  0
 23 24  1  0
 25 26  2  0
 26 16  1  0
 27 23  2  0
M  END
$$$$
