HGY.pdb
     RDKit          3D

 27 28  0  0  1  0  0  0  0  0999 V2000
   22.8244  -11.9749  -20.6985 N   0  0  0  0  0  0  0  0  0  0  0  0
   23.4432  -12.2598  -19.4436 C   0  0  1  0  0  0  0  0  0  0  0  0
   24.7809  -12.9465  -19.7228 C   0  0  0  0  0  0  0  0  0  0  0  0
   24.5436  -14.2132  -20.4630 C   0  0  0  0  0  0  0  0  0  0  0  0
   23.8992  -15.3627  -20.0565 C   0  0  0  0  0  0  0  0  0  0  0  0
   23.9128  -16.2806  -21.0592 N   0  0  0  0  0  0  0  0  0  0  0  0
   24.5675  -15.7019  -22.0936 C   0  0  0  0  0  0  0  0  0  0  0  0
   24.9451  -14.4606  -21.7328 N   0  0  0  0  0  0  0  0  0  0  0  0
   23.6236  -11.0644  -18.5940 C   0  0  0  0  0  0  0  0  0  0  0  0
   24.1306  -11.1291  -17.4476 O   0  0  0  0  0  0  0  0  0  0  0  0
   23.2134   -9.7849  -19.0773 N   0  0  0  0  0  0  0  0  0  0  0  0
   23.3931   -8.6476  -18.2279 C   0  0  0  0  0  0  0  0  0  0  0  0
   22.1543   -8.1049  -17.6343 C   0  0  0  0  0  0  0  0  0  0  0  0
   21.0676   -8.1428  -18.3035 O   0  0  0  0  0  0  0  0  0  0  0  0
   18.3423  -12.8335  -16.4850 O   0  0  0  0  0  0  0  0  0  0  0  0
   18.8484  -11.6254  -16.0352 C   0  0  0  0  0  0  0  0  0  0  0  0
   20.0481  -11.5677  -15.3742 C   0  0  0  0  0  0  0  0  0  0  0  0
   20.5178  -10.3581  -14.9439 C   0  0  0  0  0  0  0  0  0  0  0  0
   19.8296   -9.1690  -15.1461 C   0  0  0  0  0  0  0  0  0  0  0  0
   20.3010   -7.8516  -14.6894 C   0  0  0  0  0  0  0  0  0  0  0  0
   20.7677   -7.0081  -15.8314 C   0  0  2  0  0  0  0  0  0  0  0  0
   22.0420   -7.5240  -16.3498 N   0  0  0  0  0  0  0  0  0  0  0  0
   20.8975   -5.5798  -15.4776 C   0  0  0  0  0  0  0  0  0  0  0  0
   19.7765   -4.8598  -15.1475 O   0  0  0  0  0  0  0  0  0  0  0  0
   18.6072   -9.2425  -15.8218 C   0  0  0  0  0  0  0  0  0  0  0  0
   18.1499  -10.4606  -16.2468 C   0  0  0  0  0  0  0  0  0  0  0  0
   22.0207   -5.0029  -15.4740 O   0  0  0  0  0  0  0  0  0  0  0  0
  2  1  1  6
  2  3  1  0
  4  3  1  0
  4  8  1  0
  5  4  2  0
  6  5  1  0
  6  7  1  0
  7  8  2  0
  9  2  1  0
 10  9  2  0
 11  9  1  0
 12 11  1  0
 13 22  1  0
 13 12  1  0
 14 13  2  0
 16 15  1  0
 17 16  2  0
 18 17  1  0
 19 25  1  0
 19 18  2  0
 21 20  1  1
 20 19  1  0
 21 23  1  0
 21 22  1  0
 23 24  1  0
 25 26  2  0
 26 16  1  0
 27 23  2  0
M  END
$$$$
