HGY.pdb
     RDKit          3D

 27 28  0  0  1  0  0  0  0  0999 V2000
   20.7458  -17.8196  -19.6398 N   0  0  0  0  0  0  0  0  0  0  0  0
   20.2704  -16.9334  -18.6262 C   0  0  1  0  0  0  0  0  0  0  0  0
   18.7426  -16.9158  -18.6943 C   0  0  0  0  0  0  0  0  0  0  0  0
   18.3108  -16.4121  -20.0241 C   0  0  0  0  0  0  0  0  0  0  0  0
   17.4843  -16.9965  -20.9608 C   0  0  0  0  0  0  0  0  0  0  0  0
   17.3594  -16.1810  -22.0413 N   0  0  0  0  0  0  0  0  0  0  0  0
   18.1099  -15.0853  -21.7776 C   0  0  0  0  0  0  0  0  0  0  0  0
   18.6800  -15.2268  -20.5658 N   0  0  0  0  0  0  0  0  0  0  0  0
   20.7405  -17.2868  -17.2707 C   0  0  0  0  0  0  0  0  0  0  0  0
   20.4015  -16.6335  -16.2538 O   0  0  0  0  0  0  0  0  0  0  0  0
   21.6097  -18.4056  -17.0930 N   0  0  0  0  0  0  0  0  0  0  0  0
   22.0787  -18.6996  -15.7735 C   0  0  0  0  0  0  0  0  0  0  0  0
   21.2621  -19.6716  -15.0187 C   0  0  0  0  0  0  0  0  0  0  0  0
   20.1813  -20.1173  -15.5320 O   0  0  0  0  0  0  0  0  0  0  0  0
   18.5696  -25.9868   -9.4928 O   0  0  0  0  0  0  0  0  0  0  0  0
   19.2941  -24.9864  -10.1193 C   0  0  0  0  0  0  0  0  0  0  0  0
   20.0108  -25.2455  -11.2589 C   0  0  0  0  0  0  0  0  0  0  0  0
   20.7148  -24.2343  -11.8513 C   0  0  0  0  0  0  0  0  0  0  0  0
   20.7398  -22.9402  -11.3481 C   0  0  0  0  0  0  0  0  0  0  0  0
   21.4929  -21.8305  -11.9546 C   0  0  0  0  0  0  0  0  0  0  0  0
   20.7374  -21.2042  -13.0818 C   0  0  2  0  0  0  0  0  0  0  0  0
   21.5651  -20.1808  -13.7346 N   0  0  0  0  0  0  0  0  0  0  0  0
   19.4450  -20.6270  -12.6590 C   0  0  0  0  0  0  0  0  0  0  0  0
   19.4153  -19.3785  -12.0898 O   0  0  0  0  0  0  0  0  0  0  0  0
   20.0041  -22.6900  -10.1852 C   0  0  0  0  0  0  0  0  0  0  0  0
   19.3042  -23.7124   -9.6035 C   0  0  0  0  0  0  0  0  0  0  0  0
   18.3625  -21.2598  -12.8078 O   0  0  0  0  0  0  0  0  0  0  0  0
  2  1  1  6
  2  3  1  0
  4  3  1  0
  4  8  1  0
  5  4  2  0
  6  5  1  0
  6  7  1  0
  7  8  2  0
  9  2  1  0
 10  9  2  0
 11  9  1  0
 12 11  1  0
 13 22  1  0
 13 12  1  0
 14 13  2  0
 16 15  1  0
 17 16  2  0
 18 17  1  0
 19 25  1  0
 19 18  2  0
 21 20  1  1
 20 19  1  0
 21 23  1  0
 21 22  1  0
 23 24  1  0
 25 26  2  0
 26 16  1  0
 27 23  2  0
M  END
$$$$
