HGY.pdb
     RDKit          3D

 27 28  0  0  1  0  0  0  0  0999 V2000
   21.3993  -10.8542  -19.4330 N   0  0  0  0  0  0  0  0  0  0  0  0
   21.1140  -11.3165  -18.1125 C   0  0  1  0  0  0  0  0  0  0  0  0
   21.6320  -12.7506  -17.9931 C   0  0  0  0  0  0  0  0  0  0  0  0
   20.7355  -13.6663  -18.7457 C   0  0  0  0  0  0  0  0  0  0  0  0
   21.0191  -14.5003  -19.8067 C   0  0  0  0  0  0  0  0  0  0  0  0
   19.8950  -15.1627  -20.1886 N   0  0  0  0  0  0  0  0  0  0  0  0
   18.9080  -14.7405  -19.3634 C   0  0  0  0  0  0  0  0  0  0  0  0
   19.4155  -13.8421  -18.4981 N   0  0  0  0  0  0  0  0  0  0  0  0
   21.6801  -10.4544  -17.0543 C   0  0  0  0  0  0  0  0  0  0  0  0
   22.8512  -10.0062  -17.1121 O   0  0  0  0  0  0  0  0  0  0  0  0
   20.8827  -10.1097  -15.9211 N   0  0  0  0  0  0  0  0  0  0  0  0
   21.4773   -9.3210  -14.8859 C   0  0  0  0  0  0  0  0  0  0  0  0
   21.3485   -7.8596  -15.0570 C   0  0  0  0  0  0  0  0  0  0  0  0
   21.0084   -7.3874  -16.1935 O   0  0  0  0  0  0  0  0  0  0  0  0
   17.3616   -6.3167   -9.4505 O   0  0  0  0  0  0  0  0  0  0  0  0
   17.9836   -6.0560  -10.6601 C   0  0  0  0  0  0  0  0  0  0  0  0
   18.1805   -7.0540  -11.5792 C   0  0  0  0  0  0  0  0  0  0  0  0
   18.7980   -6.7614  -12.7633 C   0  0  0  0  0  0  0  0  0  0  0  0
   19.2418   -5.4853  -13.0846 C   0  0  0  0  0  0  0  0  0  0  0  0
   19.9174   -5.1367  -14.3449 C   0  0  0  0  0  0  0  0  0  0  0  0
   21.3771   -5.4533  -14.2925 C   0  0  2  0  0  0  0  0  0  0  0  0
   21.5718   -6.8896  -14.0524 N   0  0  0  0  0  0  0  0  0  0  0  0
   22.1028   -4.6599  -13.2795 C   0  0  0  0  0  0  0  0  0  0  0  0
   22.1981   -3.2987  -13.4270 O   0  0  0  0  0  0  0  0  0  0  0  0
   19.0344   -4.4769  -12.1380 C   0  0  0  0  0  0  0  0  0  0  0  0
   18.4146   -4.7850  -10.9571 C   0  0  0  0  0  0  0  0  0  0  0  0
   22.6418   -5.2081  -12.2778 O   0  0  0  0  0  0  0  0  0  0  0  0
  2  1  1  6
  2  3  1  0
  4  3  1  0
  4  8  1  0
  5  4  2  0
  6  5  1  0
  6  7  1  0
  7  8  2  0
  9  2  1  0
 10  9  2  0
 11  9  1  0
 12 11  1  0
 13 22  1  0
 13 12  1  0
 14 13  2  0
 16 15  1  0
 17 16  2  0
 18 17  1  0
 19 25  1  0
 19 18  2  0
 21 20  1  1
 20 19  1  0
 21 23  1  0
 21 22  1  0
 23 24  1  0
 25 26  2  0
 26 16  1  0
 27 23  2  0
M  END
$$$$
