HGY.pdb
     RDKit          3D

 27 28  0  0  1  0  0  0  0  0999 V2000
   44.2490   -9.6803   -5.1914 N   0  0  0  0  0  0  0  0  0  0  0  0
   43.7790   -9.2656   -6.4743 C   0  0  1  0  0  0  0  0  0  0  0  0
   43.2595  -10.5027   -7.2084 C   0  0  0  0  0  0  0  0  0  0  0  0
   44.3965  -11.4059   -7.5251 C   0  0  0  0  0  0  0  0  0  0  0  0
   45.2600  -11.3901   -8.6002 C   0  0  0  0  0  0  0  0  0  0  0  0
   46.1567  -12.4058   -8.4891 N   0  0  0  0  0  0  0  0  0  0  0  0
   45.8514  -13.0566   -7.3416 C   0  0  0  0  0  0  0  0  0  0  0  0
   44.7942  -12.4541   -6.7649 N   0  0  0  0  0  0  0  0  0  0  0  0
   42.7460   -8.2112   -6.4077 C   0  0  0  0  0  0  0  0  0  0  0  0
   41.8802   -8.1797   -5.4994 O   0  0  0  0  0  0  0  0  0  0  0  0
   42.7167   -7.1862   -7.4013 N   0  0  0  0  0  0  0  0  0  0  0  0
   41.7238   -6.1617   -7.2924 C   0  0  0  0  0  0  0  0  0  0  0  0
   40.5623   -6.3144   -8.1919 C   0  0  0  0  0  0  0  0  0  0  0  0
   40.5975   -7.1896   -9.1209 O   0  0  0  0  0  0  0  0  0  0  0  0
   38.0491  -10.9888   -5.3903 O   0  0  0  0  0  0  0  0  0  0  0  0
   37.8078   -9.8075   -6.0717 C   0  0  0  0  0  0  0  0  0  0  0  0
   37.8463   -8.6006   -5.4227 C   0  0  0  0  0  0  0  0  0  0  0  0
   37.6031   -7.4540   -6.1264 C   0  0  0  0  0  0  0  0  0  0  0  0
   37.3147   -7.4523   -7.4848 C   0  0  0  0  0  0  0  0  0  0  0  0
   37.0396   -6.2390   -8.2712 C   0  0  0  0  0  0  0  0  0  0  0  0
   38.2415   -5.7993   -9.0430 C   0  0  2  0  0  0  0  0  0  0  0  0
   39.3668   -5.5615   -8.1287 N   0  0  0  0  0  0  0  0  0  0  0  0
   37.9890   -4.6014   -9.8696 C   0  0  0  0  0  0  0  0  0  0  0  0
   38.6724   -3.4407   -9.6057 O   0  0  0  0  0  0  0  0  0  0  0  0
   37.2788   -8.6904   -8.1343 C   0  0  0  0  0  0  0  0  0  0  0  0
   37.5245   -9.8297   -7.4166 C   0  0  0  0  0  0  0  0  0  0  0  0
   37.1535   -4.6202  -10.8162 O   0  0  0  0  0  0  0  0  0  0  0  0
  2  1  1  1
  2  3  1  0
  4  3  1  0
  4  8  1  0
  5  4  2  0
  6  5  1  0
  6  7  1  0
  7  8  2  0
  9  2  1  0
 10  9  2  0
 11  9  1  0
 12 11  1  0
 13 22  1  0
 13 12  1  0
 14 13  2  0
 16 15  1  0
 17 16  2  0
 18 17  1  0
 19 25  1  0
 19 18  2  0
 21 20  1  1
 20 19  1  0
 21 23  1  0
 21 22  1  0
 23 24  1  0
 25 26  2  0
 26 16  1  0
 27 23  2  0
M  END
$$$$
