HGY.pdb
     RDKit          3D

 27 28  0  0  1  0  0  0  0  0999 V2000
   26.9287  -20.5082  -17.2200 N   0  0  0  0  0  0  0  0  0  0  0  0
   26.9286  -21.8630  -17.6709 C   0  0  1  0  0  0  0  0  0  0  0  0
   28.3804  -22.2801  -17.9104 C   0  0  0  0  0  0  0  0  0  0  0  0
   28.8785  -21.6486  -19.1602 C   0  0  0  0  0  0  0  0  0  0  0  0
   28.1999  -20.9012  -20.0996 C   0  0  0  0  0  0  0  0  0  0  0  0
   29.0499  -20.5191  -21.0894 N   0  0  0  0  0  0  0  0  0  0  0  0
   30.2616  -21.0297  -20.7662 C   0  0  0  0  0  0  0  0  0  0  0  0
   30.1558  -21.7074  -19.6074 N   0  0  0  0  0  0  0  0  0  0  0  0
   26.2531  -22.7907  -16.7401 C   0  0  0  0  0  0  0  0  0  0  0  0
   25.6836  -23.8373  -17.1350 O   0  0  0  0  0  0  0  0  0  0  0  0
   26.2378  -22.5028  -15.3416 N   0  0  0  0  0  0  0  0  0  0  0  0
   25.5309  -23.3923  -14.4719 C   0  0  0  0  0  0  0  0  0  0  0  0
   24.2960  -22.8409  -13.8784 C   0  0  0  0  0  0  0  0  0  0  0  0
   23.6301  -23.5442  -13.0464 O   0  0  0  0  0  0  0  0  0  0  0  0
   26.2096  -20.9849   -8.2642 O   0  0  0  0  0  0  0  0  0  0  0  0
   25.4186  -20.7014   -9.3651 C   0  0  0  0  0  0  0  0  0  0  0  0
   25.9823  -20.4309  -10.5852 C   0  0  0  0  0  0  0  0  0  0  0  0
   25.1714  -20.1552  -11.6509 C   0  0  0  0  0  0  0  0  0  0  0  0
   23.7861  -20.1353  -11.5563 C   0  0  0  0  0  0  0  0  0  0  0  0
   22.8839  -19.8343  -12.6796 C   0  0  0  0  0  0  0  0  0  0  0  0
   22.5517  -21.0630  -13.4629 C   0  0  2  0  0  0  0  0  0  0  0  0
   23.7522  -21.5633  -14.1466 N   0  0  0  0  0  0  0  0  0  0  0  0
   21.4589  -20.8497  -14.4336 C   0  0  0  0  0  0  0  0  0  0  0  0
   21.7178  -20.9523  -15.7776 O   0  0  0  0  0  0  0  0  0  0  0  0
   23.2246  -20.4132  -10.3059 C   0  0  0  0  0  0  0  0  0  0  0  0
   24.0491  -20.6875   -9.2484 C   0  0  0  0  0  0  0  0  0  0  0  0
   20.2873  -20.5716  -14.0536 O   0  0  0  0  0  0  0  0  0  0  0  0
  2  1  1  1
  2  3  1  0
  4  3  1  0
  4  8  1  0
  5  4  2  0
  6  5  1  0
  6  7  1  0
  7  8  2  0
  9  2  1  0
 10  9  2  0
 11  9  1  0
 12 11  1  0
 13 22  1  0
 13 12  1  0
 14 13  2  0
 16 15  1  0
 17 16  2  0
 18 17  1  0
 19 25  1  0
 19 18  2  0
 21 20  1  6
 20 19  1  0
 21 23  1  0
 21 22  1  0
 23 24  1  0
 25 26  2  0
 26 16  1  0
 27 23  2  0
M  END
$$$$
