HGY.pdb
     RDKit          3D

 27 28  0  0  1  0  0  0  0  0999 V2000
   26.3618  -20.5620  -18.9154 N   0  0  0  0  0  0  0  0  0  0  0  0
   27.6218  -20.2399  -18.3260 C   0  0  1  0  0  0  0  0  0  0  0  0
   28.3184  -19.2217  -19.2300 C   0  0  0  0  0  0  0  0  0  0  0  0
   28.4424  -19.7791  -20.6021 C   0  0  0  0  0  0  0  0  0  0  0  0
   27.6295  -19.6000  -21.7016 C   0  0  0  0  0  0  0  0  0  0  0  0
   28.1196  -20.3001  -22.7589 N   0  0  0  0  0  0  0  0  0  0  0  0
   29.2410  -20.9174  -22.3173 C   0  0  0  0  0  0  0  0  0  0  0  0
   29.4324  -20.6027  -21.0220 N   0  0  0  0  0  0  0  0  0  0  0  0
   27.5099  -19.7363  -16.9414 C   0  0  0  0  0  0  0  0  0  0  0  0
   26.8297  -18.7219  -16.6517 O   0  0  0  0  0  0  0  0  0  0  0  0
   28.1916  -20.4137  -15.8853 N   0  0  0  0  0  0  0  0  0  0  0  0
   28.0810  -19.8897  -14.5585 C   0  0  0  0  0  0  0  0  0  0  0  0
   26.9081  -20.3590  -13.7934 C   0  0  0  0  0  0  0  0  0  0  0  0
   26.1027  -21.1938  -14.3269 O   0  0  0  0  0  0  0  0  0  0  0  0
   20.7005  -21.7323   -7.6928 O   0  0  0  0  0  0  0  0  0  0  0  0
   21.8080  -21.2502   -8.3705 C   0  0  0  0  0  0  0  0  0  0  0  0
   21.7482  -20.0706   -9.0665 C   0  0  0  0  0  0  0  0  0  0  0  0
   22.8606  -19.6243   -9.7242 C   0  0  0  0  0  0  0  0  0  0  0  0
   24.0642  -20.3171   -9.7217 C   0  0  0  0  0  0  0  0  0  0  0  0
   25.2777  -19.8708  -10.4251 C   0  0  0  0  0  0  0  0  0  0  0  0
   25.3427  -20.4209  -11.8132 C   0  0  2  0  0  0  0  0  0  0  0  0
   26.5706  -19.9640  -12.4781 N   0  0  0  0  0  0  0  0  0  0  0  0
   24.1588  -20.0750  -12.6261 C   0  0  0  0  0  0  0  0  0  0  0  0
   23.1099  -20.9567  -12.7036 O   0  0  0  0  0  0  0  0  0  0  0  0
   24.1110  -21.5187   -9.0076 C   0  0  0  0  0  0  0  0  0  0  0  0
   22.9894  -21.9527   -8.3541 C   0  0  0  0  0  0  0  0  0  0  0  0
   24.0905  -18.9828  -13.2561 O   0  0  0  0  0  0  0  0  0  0  0  0
  2  1  1  6
  2  3  1  0
  4  3  1  0
  4  8  1  0
  5  4  2  0
  6  5  1  0
  6  7  1  0
  7  8  2  0
  9  2  1  0
 10  9  2  0
 11  9  1  0
 12 11  1  0
 13 22  1  0
 13 12  1  0
 14 13  2  0
 16 15  1  0
 17 16  2  0
 18 17  1  0
 19 25  1  0
 19 18  2  0
 21 20  1  1
 20 19  1  0
 21 23  1  0
 21 22  1  0
 23 24  1  0
 25 26  2  0
 26 16  1  0
 27 23  2  0
M  END
$$$$
