GDY.pdb
     RDKit          3D

 25 25  0  0  1  0  0  0  0  0999 V2000
   17.6296  -13.6853  -16.2595 N   0  0  0  0  0  0  0  0  0  0  0  0
   16.6315  -12.7260  -15.9005 C   0  0  0  0  0  0  0  0  0  0  0  0
   17.1895  -11.7066  -14.9573 C   0  0  0  0  0  0  0  0  0  0  0  0
   17.6929  -12.0162  -13.8502 O   0  0  0  0  0  0  0  0  0  0  0  0
   17.1832  -10.3184  -15.2598 N   0  0  0  0  0  0  0  0  0  0  0  0
   17.6497   -9.2800  -14.4331 C   0  0  1  0  0  0  0  0  0  0  0  0
   18.3024   -8.1158  -15.0700 C   0  0  0  0  0  0  0  0  0  0  0  0
   18.8588   -7.1469  -14.0686 C   0  0  0  0  0  0  0  0  0  0  0  0
   18.3416   -6.0141  -13.8684 O   0  0  0  0  0  0  0  0  0  0  0  0
   16.5629   -8.7586  -13.5522 C   0  0  0  0  0  0  0  0  0  0  0  0
   15.4398   -8.4306  -14.0613 O   0  0  0  0  0  0  0  0  0  0  0  0
   19.9786   -7.4498  -13.3062 O   0  0  0  0  0  0  0  0  0  0  0  0
   11.9883   -6.8646   -6.1422 O   0  0  0  0  0  0  0  0  0  0  0  0
   12.8980   -7.3157   -7.0992 C   0  0  0  0  0  0  0  0  0  0  0  0
   14.1742   -6.7991   -7.1046 C   0  0  0  0  0  0  0  0  0  0  0  0
   15.0690   -7.2470   -8.0508 C   0  0  0  0  0  0  0  0  0  0  0  0
   14.7472   -8.1923   -8.9977 C   0  0  0  0  0  0  0  0  0  0  0  0
   15.7592   -8.6117   -9.9703 C   0  0  0  0  0  0  0  0  0  0  0  0
   15.5990   -8.0318  -11.3443 C   0  0  2  0  0  0  0  0  0  0  0  0
   16.6868   -8.5963  -12.1591 N   0  0  0  0  0  0  0  0  0  0  0  0
   15.7854   -6.5672  -11.3450 C   0  0  0  0  0  0  0  0  0  0  0  0
   14.6802   -5.7123  -11.3437 O   0  0  0  0  0  0  0  0  0  0  0  0
   13.4705   -8.7059   -8.9886 C   0  0  0  0  0  0  0  0  0  0  0  0
   12.5643   -8.2674   -8.0479 C   0  0  0  0  0  0  0  0  0  0  0  0
   16.9235   -6.0181  -11.3471 O   0  0  0  0  0  0  0  0  0  0  0  0
  1  2  1  0
  3  5  1  0
  3  2  1  0
  4  3  2  0
  6  5  1  0
  6 10  1  0
  6  7  1  6
  8  7  1  0
  8  9  2  0
 10 20  1  0
 11 10  2  0
 12  8  1  0
 13 14  1  0
 14 24  2  0
 14 15  1  0
 15 16  2  0
 16 17  1  0
 17 18  1  0
 19 18  1  1
 19 21  1  0
 20 19  1  0
 21 22  1  0
 23 17  2  0
 24 23  1  0
 25 21  2  0
M  END
$$$$
