GDY.pdb
     RDKit          3D

 25 25  0  0  1  0  0  0  0  0999 V2000
   18.0580  -14.1286  -16.8531 N   0  0  0  0  0  0  0  0  0  0  0  0
   18.3615  -12.9682  -17.6322 C   0  0  0  0  0  0  0  0  0  0  0  0
   19.4785  -12.1891  -17.0113 C   0  0  0  0  0  0  0  0  0  0  0  0
   19.9979  -12.5114  -15.9153 O   0  0  0  0  0  0  0  0  0  0  0  0
   20.0217  -11.0305  -17.6286 N   0  0  0  0  0  0  0  0  0  0  0  0
   21.0108  -10.1841  -17.0950 C   0  0  1  0  0  0  0  0  0  0  0  0
   21.9776   -9.5615  -18.0249 C   0  0  0  0  0  0  0  0  0  0  0  0
   22.8175  -10.5736  -18.7470 C   0  0  0  0  0  0  0  0  0  0  0  0
   22.9326  -10.5802  -20.0029 O   0  0  0  0  0  0  0  0  0  0  0  0
   20.4056   -9.0905  -16.2785 C   0  0  0  0  0  0  0  0  0  0  0  0
   19.2916   -8.5795  -16.6337 O   0  0  0  0  0  0  0  0  0  0  0  0
   23.5154  -11.5609  -18.0650 O   0  0  0  0  0  0  0  0  0  0  0  0
   18.8849   -3.8296   -9.2370 O   0  0  0  0  0  0  0  0  0  0  0  0
   19.4077   -4.7244  -10.1713 C   0  0  0  0  0  0  0  0  0  0  0  0
   19.0740   -6.0571  -10.0803 C   0  0  0  0  0  0  0  0  0  0  0  0
   19.5921   -6.9369  -11.0045 C   0  0  0  0  0  0  0  0  0  0  0  0
   20.4329   -6.5460  -12.0215 C   0  0  0  0  0  0  0  0  0  0  0  0
   20.9414   -7.5480  -12.9613 C   0  0  0  0  0  0  0  0  0  0  0  0
   20.3406   -7.4939  -14.3346 C   0  0  2  0  0  0  0  0  0  0  0  0
   20.9885   -8.5637  -15.1102 N   0  0  0  0  0  0  0  0  0  0  0  0
   20.6548   -6.2243  -15.0196 C   0  0  0  0  0  0  0  0  0  0  0  0
   21.8833   -6.0511  -15.6622 O   0  0  0  0  0  0  0  0  0  0  0  0
   20.7636   -5.2130  -12.1085 C   0  0  0  0  0  0  0  0  0  0  0  0
   20.2530   -4.3210  -11.1911 C   0  0  0  0  0  0  0  0  0  0  0  0
   19.8531   -5.2484  -15.0624 O   0  0  0  0  0  0  0  0  0  0  0  0
  1  2  1  0
  3  5  1  0
  3  2  1  0
  4  3  2  0
  6  5  1  0
  6 10  1  0
  6  7  1  6
  8  7  1  0
  8  9  2  0
 10 20  1  0
 11 10  2  0
 12  8  1  0
 13 14  1  0
 14 24  2  0
 14 15  1  0
 15 16  2  0
 16 17  1  0
 17 18  1  0
 19 18  1  1
 19 21  1  0
 20 19  1  0
 21 22  1  0
 23 17  2  0
 24 23  1  0
 25 21  2  0
M  END
$$$$
