GDY.pdb
     RDKit          3D

 25 25  0  0  1  0  0  0  0  0999 V2000
   24.7163  -25.4080  -16.3238 N   0  0  0  0  0  0  0  0  0  0  0  0
   24.2354  -24.6222  -15.2298 C   0  0  0  0  0  0  0  0  0  0  0  0
   25.3301  -23.7720  -14.6651 C   0  0  0  0  0  0  0  0  0  0  0  0
   26.4788  -23.7291  -15.1687 O   0  0  0  0  0  0  0  0  0  0  0  0
   25.1342  -22.9571  -13.5179 N   0  0  0  0  0  0  0  0  0  0  0  0
   25.8510  -21.7927  -13.1865 C   0  0  1  0  0  0  0  0  0  0  0  0
   25.5736  -20.5570  -13.9500 C   0  0  0  0  0  0  0  0  0  0  0  0
   26.6060  -19.4928  -13.7205 C   0  0  0  0  0  0  0  0  0  0  0  0
   26.3482  -18.4281  -13.0954 O   0  0  0  0  0  0  0  0  0  0  0  0
   25.7124  -21.4649  -11.7366 C   0  0  0  0  0  0  0  0  0  0  0  0
   24.5500  -21.3730  -11.2181 O   0  0  0  0  0  0  0  0  0  0  0  0
   27.9064  -19.6266  -14.1876 O   0  0  0  0  0  0  0  0  0  0  0  0
   28.1431  -19.1223   -3.4447 O   0  0  0  0  0  0  0  0  0  0  0  0
   28.0816  -19.5130   -4.7827 C   0  0  0  0  0  0  0  0  0  0  0  0
   28.6516  -18.7062   -5.7418 C   0  0  0  0  0  0  0  0  0  0  0  0
   28.5886  -19.0956   -7.0613 C   0  0  0  0  0  0  0  0  0  0  0  0
   27.9796  -20.2598   -7.4705 C   0  0  0  0  0  0  0  0  0  0  0  0
   27.9554  -20.5981   -8.8957 C   0  0  0  0  0  0  0  0  0  0  0  0
   26.6078  -20.9734   -9.4369 C   0  0  2  0  0  0  0  0  0  0  0  0
   26.8002  -21.2426  -10.8709 N   0  0  0  0  0  0  0  0  0  0  0  0
   25.6488  -19.8549   -9.3408 C   0  0  0  0  0  0  0  0  0  0  0  0
   25.7901  -18.7286  -10.1556 O   0  0  0  0  0  0  0  0  0  0  0  0
   27.4112  -21.0631   -6.5085 C   0  0  0  0  0  0  0  0  0  0  0  0
   27.4663  -20.6867   -5.1843 C   0  0  0  0  0  0  0  0  0  0  0  0
   24.6727  -19.8520   -8.5383 O   0  0  0  0  0  0  0  0  0  0  0  0
  1  2  1  0
  3  5  1  0
  3  2  1  0
  4  3  2  0
  6  5  1  0
  6 10  1  0
  6  7  1  6
  8  7  1  0
  8  9  2  0
 10 20  1  0
 11 10  2  0
 12  8  1  0
 13 14  1  0
 14 24  2  0
 14 15  1  0
 15 16  2  0
 16 17  1  0
 17 18  1  0
 19 18  1  6
 19 21  1  0
 20 19  1  0
 21 22  1  0
 23 17  2  0
 24 23  1  0
 25 21  2  0
M  END
$$$$
