GDY.pdb
     RDKit          3D

 25 25  0  0  1  0  0  0  0  0999 V2000
   15.5783   -9.3735  -16.9533 N   0  0  0  0  0  0  0  0  0  0  0  0
   16.0615   -8.0850  -17.3429 C   0  0  0  0  0  0  0  0  0  0  0  0
   17.0848   -7.5856  -16.3715 C   0  0  0  0  0  0  0  0  0  0  0  0
   16.7744   -6.9889  -15.3121 O   0  0  0  0  0  0  0  0  0  0  0  0
   18.4779   -7.7576  -16.5912 N   0  0  0  0  0  0  0  0  0  0  0  0
   19.5157   -7.3684  -15.7247 C   0  0  1  0  0  0  0  0  0  0  0  0
   20.3348   -8.4248  -15.0921 C   0  0  0  0  0  0  0  0  0  0  0  0
   21.3197   -7.8761  -14.1020 C   0  0  0  0  0  0  0  0  0  0  0  0
   22.5506   -8.1454  -14.1569 O   0  0  0  0  0  0  0  0  0  0  0  0
   20.4508   -6.4153  -16.3927 C   0  0  0  0  0  0  0  0  0  0  0  0
   20.9264   -6.6983  -17.5425 O   0  0  0  0  0  0  0  0  0  0  0  0
   20.9236   -7.0386  -13.0683 O   0  0  0  0  0  0  0  0  0  0  0  0
   24.3907    1.2025  -18.6569 O   0  0  0  0  0  0  0  0  0  0  0  0
   23.6855    0.1818  -18.0184 C   0  0  0  0  0  0  0  0  0  0  0  0
   22.3874   -0.0738  -18.3995 C   0  0  0  0  0  0  0  0  0  0  0  0
   21.6949   -1.0821  -17.7668 C   0  0  0  0  0  0  0  0  0  0  0  0
   22.2411   -1.8518  -16.7653 C   0  0  0  0  0  0  0  0  0  0  0  0
   21.4334   -2.9037  -16.1429 C   0  0  0  0  0  0  0  0  0  0  0  0
   21.8148   -4.3045  -16.5196 C   0  0  2  0  0  0  0  0  0  0  0  0
   20.8606   -5.1900  -15.8332 N   0  0  0  0  0  0  0  0  0  0  0  0
   23.1577   -4.6593  -16.0187 C   0  0  0  0  0  0  0  0  0  0  0  0
   23.3727   -4.8667  -14.6538 O   0  0  0  0  0  0  0  0  0  0  0  0
   23.5388   -1.5928  -16.3876 C   0  0  0  0  0  0  0  0  0  0  0  0
   24.2442   -0.5871  -17.0116 C   0  0  0  0  0  0  0  0  0  0  0  0
   24.1616   -4.7916  -16.7746 O   0  0  0  0  0  0  0  0  0  0  0  0
  1  2  1  0
  3  5  1  0
  3  2  1  0
  4  3  2  0
  6  5  1  0
  6 10  1  0
  6  7  1  6
  8  7  1  0
  8  9  2  0
 10 20  1  0
 11 10  2  0
 12  8  1  0
 13 14  1  0
 14 24  2  0
 14 15  1  0
 15 16  2  0
 16 17  1  0
 17 18  1  0
 19 18  1  1
 19 21  1  0
 20 19  1  0
 21 22  1  0
 23 17  2  0
 24 23  1  0
 25 21  2  0
M  END
$$$$
