GDY.pdb
     RDKit          3D

 25 25  0  0  1  0  0  0  0  0999 V2000
   21.1660  -10.6486  -19.5669 N   0  0  0  0  0  0  0  0  0  0  0  0
   20.9529   -9.6456  -20.5640 C   0  0  0  0  0  0  0  0  0  0  0  0
   21.6648   -8.3792  -20.2040 C   0  0  0  0  0  0  0  0  0  0  0  0
   22.6151   -7.9228  -20.8847 O   0  0  0  0  0  0  0  0  0  0  0  0
   21.3059   -7.6125  -19.0630 N   0  0  0  0  0  0  0  0  0  0  0  0
   21.8766   -6.3902  -18.6632 C   0  0  1  0  0  0  0  0  0  0  0  0
   21.9297   -5.2862  -19.6456 C   0  0  0  0  0  0  0  0  0  0  0  0
   22.7089   -4.1055  -19.1454 C   0  0  0  0  0  0  0  0  0  0  0  0
   22.3780   -2.9182  -19.4127 O   0  0  0  0  0  0  0  0  0  0  0  0
   21.2199   -5.8628  -17.4305 C   0  0  0  0  0  0  0  0  0  0  0  0
   20.0196   -5.4335  -17.4886 O   0  0  0  0  0  0  0  0  0  0  0  0
   23.8412   -4.2609  -18.3577 O   0  0  0  0  0  0  0  0  0  0  0  0
   18.6036   -5.9751   -9.0350 O   0  0  0  0  0  0  0  0  0  0  0  0
   19.2082   -6.1212  -10.2839 C   0  0  0  0  0  0  0  0  0  0  0  0
   20.5384   -6.4712  -10.3460 C   0  0  0  0  0  0  0  0  0  0  0  0
   21.1313   -6.6144  -11.5807 C   0  0  0  0  0  0  0  0  0  0  0  0
   20.4543   -6.4234  -12.7635 C   0  0  0  0  0  0  0  0  0  0  0  0
   21.1621   -6.5941  -14.0347 C   0  0  0  0  0  0  0  0  0  0  0  0
   21.1049   -5.4129  -14.9574 C   0  0  2  0  0  0  0  0  0  0  0  0
   21.8435   -5.8011  -16.1697 N   0  0  0  0  0  0  0  0  0  0  0  0
   21.8047   -4.2424  -14.3916 C   0  0  0  0  0  0  0  0  0  0  0  0
   23.1071   -3.9336  -14.7924 O   0  0  0  0  0  0  0  0  0  0  0  0
   19.1250   -6.0737  -12.6966 C   0  0  0  0  0  0  0  0  0  0  0  0
   18.5181   -5.9267  -11.4684 C   0  0  0  0  0  0  0  0  0  0  0  0
   21.2806   -3.4743  -13.5359 O   0  0  0  0  0  0  0  0  0  0  0  0
  1  2  1  0
  3  5  1  0
  3  2  1  0
  4  3  2  0
  6  5  1  0
  6 10  1  0
  6  7  1  6
  8  7  1  0
  8  9  2  0
 10 20  1  0
 11 10  2  0
 12  8  1  0
 13 14  1  0
 14 24  2  0
 14 15  1  0
 15 16  2  0
 16 17  1  0
 17 18  1  0
 19 18  1  1
 19 21  1  0
 20 19  1  0
 21 22  1  0
 23 17  2  0
 24 23  1  0
 25 21  2  0
M  END
$$$$
