GDY.pdb
     RDKit          3D

 25 25  0  0  1  0  0  0  0  0999 V2000
   14.9105  -12.3837  -14.0438 N   0  0  0  0  0  0  0  0  0  0  0  0
   15.5629  -13.0223  -15.1448 C   0  0  0  0  0  0  0  0  0  0  0  0
   17.0278  -12.7155  -15.1445 C   0  0  0  0  0  0  0  0  0  0  0  0
   17.7554  -12.9001  -14.1388 O   0  0  0  0  0  0  0  0  0  0  0  0
   17.6875  -12.1936  -16.2894 N   0  0  0  0  0  0  0  0  0  0  0  0
   19.0466  -11.8422  -16.3843 C   0  0  1  0  0  0  0  0  0  0  0  0
   19.8448  -12.4187  -17.4877 C   0  0  0  0  0  0  0  0  0  0  0  0
   21.2961  -12.0472  -17.4053 C   0  0  0  0  0  0  0  0  0  0  0  0
   21.9488  -11.6545  -18.4106 O   0  0  0  0  0  0  0  0  0  0  0  0
   19.2215  -10.3603  -16.4306 C   0  0  0  0  0  0  0  0  0  0  0  0
   18.4818   -9.6607  -17.1998 O   0  0  0  0  0  0  0  0  0  0  0  0
   21.9993  -12.1172  -16.2105 O   0  0  0  0  0  0  0  0  0  0  0  0
   21.5306   -2.1544  -13.9117 O   0  0  0  0  0  0  0  0  0  0  0  0
   21.4004   -3.5362  -14.0548 C   0  0  0  0  0  0  0  0  0  0  0  0
   20.2022   -4.1321  -13.7312 C   0  0  0  0  0  0  0  0  0  0  0  0
   20.0779   -5.4962  -13.8739 C   0  0  0  0  0  0  0  0  0  0  0  0
   21.1002   -6.2981  -14.3275 C   0  0  0  0  0  0  0  0  0  0  0  0
   20.8844   -7.7421  -14.4477 C   0  0  0  0  0  0  0  0  0  0  0  0
   20.3037   -8.1911  -15.7557 C   0  0  2  0  0  0  0  0  0  0  0  0
   20.1699   -9.6540  -15.6665 N   0  0  0  0  0  0  0  0  0  0  0  0
   21.2174   -7.9172  -16.8827 C   0  0  0  0  0  0  0  0  0  0  0  0
   21.0742   -6.7547  -17.6444 O   0  0  0  0  0  0  0  0  0  0  0  0
   22.2961   -5.6982  -14.6498 C   0  0  0  0  0  0  0  0  0  0  0  0
   22.4353   -4.3344  -14.5121 C   0  0  0  0  0  0  0  0  0  0  0  0
   22.1550   -8.6970  -17.2138 O   0  0  0  0  0  0  0  0  0  0  0  0
  1  2  1  0
  3  5  1  0
  3  2  1  0
  4  3  2  0
  6  5  1  0
  6 10  1  0
  6  7  1  6
  8  7  1  0
  8  9  2  0
 10 20  1  0
 11 10  2  0
 12  8  1  0
 13 14  1  0
 14 24  2  0
 14 15  1  0
 15 16  2  0
 16 17  1  0
 17 18  1  0
 19 18  1  1
 19 21  1  0
 20 19  1  0
 21 22  1  0
 23 17  2  0
 24 23  1  0
 25 21  2  0
M  END
$$$$
