GDY.pdb
     RDKit          3D

 25 25  0  0  1  0  0  0  0  0999 V2000
   21.4156  -14.2373  -17.5621 N   0  0  0  0  0  0  0  0  0  0  0  0
   21.9185  -13.3421  -16.5665 C   0  0  0  0  0  0  0  0  0  0  0  0
   21.4327  -11.9479  -16.8121 C   0  0  0  0  0  0  0  0  0  0  0  0
   21.7084  -11.3119  -17.8582 O   0  0  0  0  0  0  0  0  0  0  0  0
   20.6251  -11.2556  -15.8702 N   0  0  0  0  0  0  0  0  0  0  0  0
   20.0621   -9.9764  -16.0313 C   0  0  1  0  0  0  0  0  0  0  0  0
   18.7768   -9.6861  -15.3600 C   0  0  0  0  0  0  0  0  0  0  0  0
   17.6986  -10.6612  -15.7313 C   0  0  0  0  0  0  0  0  0  0  0  0
   17.3390  -10.8446  -16.9262 O   0  0  0  0  0  0  0  0  0  0  0  0
   21.0257   -8.9063  -15.6374 C   0  0  0  0  0  0  0  0  0  0  0  0
   21.6161   -8.9725  -14.5080 O   0  0  0  0  0  0  0  0  0  0  0  0
   17.0375  -11.4163  -14.7723 O   0  0  0  0  0  0  0  0  0  0  0  0
   26.3983   -1.8415  -16.6816 O   0  0  0  0  0  0  0  0  0  0  0  0
   25.5019   -2.8988  -16.8413 C   0  0  0  0  0  0  0  0  0  0  0  0
   25.9926   -4.1806  -16.9511 C   0  0  0  0  0  0  0  0  0  0  0  0
   25.1045   -5.2213  -17.1086 C   0  0  0  0  0  0  0  0  0  0  0  0
   23.7412   -5.0411  -17.1618 C   0  0  0  0  0  0  0  0  0  0  0  0
   22.8668   -6.2038  -17.3338 C   0  0  0  0  0  0  0  0  0  0  0  0
   22.3887   -6.8336  -16.0592 C   0  0  2  0  0  0  0  0  0  0  0  0
   21.3426   -7.7952  -16.4420 N   0  0  0  0  0  0  0  0  0  0  0  0
   21.7501   -5.8457  -15.1670 C   0  0  0  0  0  0  0  0  0  0  0  0
   22.4812   -5.2403  -14.1416 O   0  0  0  0  0  0  0  0  0  0  0  0
   23.2554   -3.7583  -17.0516 C   0  0  0  0  0  0  0  0  0  0  0  0
   24.1317   -2.7070  -16.8937 C   0  0  0  0  0  0  0  0  0  0  0  0
   20.5393   -5.5009  -15.2762 O   0  0  0  0  0  0  0  0  0  0  0  0
  1  2  1  0
  3  5  1  0
  3  2  1  0
  4  3  2  0
  6  5  1  0
  6 10  1  0
  6  7  1  1
  8  7  1  0
  8  9  2  0
 10 20  1  0
 11 10  2  0
 12  8  1  0
 13 14  1  0
 14 24  2  0
 14 15  1  0
 15 16  2  0
 16 17  1  0
 17 18  1  0
 19 18  1  6
 19 21  1  0
 20 19  1  0
 21 22  1  0
 23 17  2  0
 24 23  1  0
 25 21  2  0
M  END
$$$$
