DKN.pdb
     RDKit          3D

 26 25  0  0  1  0  0  0  0  0999 V2000
   11.4910  -19.4358   21.8272 N   0  0  0  0  0  0  0  0  0  0  0  0
   12.5109  -18.4273   21.7902 C   0  0  1  0  0  0  0  0  0  0  0  0
   13.2692  -18.4204   20.4765 C   0  0  0  0  0  0  0  0  0  0  0  0
   13.9764  -19.7238   20.3083 C   0  0  0  0  0  0  0  0  0  0  0  0
   14.7736  -20.1243   21.1696 O   0  0  0  0  0  0  0  0  0  0  0  0
   11.8900  -17.1054   22.0010 C   0  0  0  0  0  0  0  0  0  0  0  0
   12.6867  -16.1184   22.0944 O   0  0  0  0  0  0  0  0  0  0  0  0
   13.7656  -20.5161   19.1973 O   0  0  0  0  0  0  0  0  0  0  0  0
   10.4889  -16.9715   22.0903 N   0  0  0  0  0  0  0  0  0  0  0  0
    9.9039  -15.6472   22.2928 C   0  0  1  0  0  0  0  0  0  0  0  0
    8.8476  -15.4659   21.2608 C   0  0  0  0  0  0  0  0  0  0  0  0
    8.1107  -14.1527   21.3106 C   0  0  0  0  0  0  0  0  0  0  0  0
    7.5655  -13.9013   19.9191 C   0  0  0  0  0  0  0  0  0  0  0  0
    6.8760  -12.5853   19.7749 C   0  0  0  0  0  0  0  0  0  0  0  0
    6.4321  -12.2846   18.4454 N   0  0  0  0  0  0  0  0  0  0  0  0
    9.4407  -15.5309   23.6989 C   0  0  0  0  0  0  0  0  0  0  0  0
    8.5729  -14.6575   23.9526 O   0  0  0  0  0  0  0  0  0  0  0  0
    7.3785  -18.4710   27.4236 N   0  0  0  0  0  0  0  0  0  0  0  0
    7.0959  -18.4883   26.0220 C   0  0  0  0  0  0  0  0  0  0  0  0
    6.0843  -19.1492   25.6905 O   0  0  0  0  0  0  0  0  0  0  0  0
    7.9781  -17.7579   25.1054 C   0  0  0  0  0  0  0  0  0  0  0  0
    9.0770  -16.9704   25.7499 C   0  0  2  0  0  0  0  0  0  0  0  0
    9.9377  -16.3573   24.7384 N   0  0  0  0  0  0  0  0  0  0  0  0
    9.9429  -17.7635   26.6503 C   0  0  0  0  0  0  0  0  0  0  0  0
    9.3832  -18.3683   27.6151 O   0  0  0  0  0  0  0  0  0  0  0  0
   11.2988  -17.9167   26.5521 O   0  0  0  0  0  0  0  0  0  0  0  0
  2  1  1  6
  3  2  1  0
  3  4  1  0
  4  5  2  0
  6  2  1  0
  6  7  2  0
  8  4  1  0
  9  6  1  0
 10  9  1  0
 10 11  1  6
 11 12  1  0
 13 12  1  0
 13 14  1  0
 14 15  1  0
 16 10  1  0
 17 16  2  0
 18 19  1  0
 19 20  2  0
 21 19  1  0
 22 21  1  6
 22 23  1  0
 22 24  1  0
 23 16  1  0
 24 26  1  0
 25 24  2  0
M  END
$$$$
