DKN.pdb
     RDKit          3D

 26 25  0  0  1  0  0  0  0  0999 V2000
   12.9323  -18.3074   15.5691 N   0  0  0  0  0  0  0  0  0  0  0  0
   12.5420  -18.8580   16.8352 C   0  0  1  0  0  0  0  0  0  0  0  0
   13.5520  -19.8573   17.3667 C   0  0  0  0  0  0  0  0  0  0  0  0
   13.5270  -21.0836   16.5164 C   0  0  0  0  0  0  0  0  0  0  0  0
   12.4574  -21.6643   16.2786 O   0  0  0  0  0  0  0  0  0  0  0  0
   12.3830  -17.7614   17.8096 C   0  0  0  0  0  0  0  0  0  0  0  0
   13.4099  -17.0404   18.0173 O   0  0  0  0  0  0  0  0  0  0  0  0
   14.6851  -21.6037   15.9736 O   0  0  0  0  0  0  0  0  0  0  0  0
   11.1504  -17.5466   18.4605 N   0  0  0  0  0  0  0  0  0  0  0  0
   10.9916  -16.3875   19.3369 C   0  0  1  0  0  0  0  0  0  0  0  0
    9.6110  -15.8686   19.1412 C   0  0  0  0  0  0  0  0  0  0  0  0
    9.2119  -14.7301   20.0436 C   0  0  0  0  0  0  0  0  0  0  0  0
    7.8411  -14.2694   19.5904 C   0  0  0  0  0  0  0  0  0  0  0  0
    7.2877  -13.1465   20.4034 C   0  0  0  0  0  0  0  0  0  0  0  0
    5.9753  -12.7182   20.0175 N   0  0  0  0  0  0  0  0  0  0  0  0
   11.3277  -16.7815   20.7287 C   0  0  0  0  0  0  0  0  0  0  0  0
   11.0192  -17.9447   21.0920 O   0  0  0  0  0  0  0  0  0  0  0  0
   15.3807  -14.7756   21.9227 N   0  0  0  0  0  0  0  0  0  0  0  0
   14.7639  -15.8643   22.6146 C   0  0  0  0  0  0  0  0  0  0  0  0
   15.3084  -16.9801   22.4456 O   0  0  0  0  0  0  0  0  0  0  0  0
   13.5805  -15.6071   23.4426 C   0  0  0  0  0  0  0  0  0  0  0  0
   12.3202  -16.2879   23.0051 C   0  0  2  0  0  0  0  0  0  0  0  0
   11.9712  -15.9037   21.6375 N   0  0  0  0  0  0  0  0  0  0  0  0
   11.1481  -16.0010   23.8614 C   0  0  0  0  0  0  0  0  0  0  0  0
   11.2565  -16.2478   25.1012 O   0  0  0  0  0  0  0  0  0  0  0  0
    9.9456  -15.4913   23.4542 O   0  0  0  0  0  0  0  0  0  0  0  0
  2  1  1  6
  3  2  1  0
  3  4  1  0
  4  5  2  0
  6  2  1  0
  6  7  2  0
  8  4  1  0
  9  6  1  0
 10  9  1  0
 10 11  1  1
 11 12  1  0
 13 12  1  0
 13 14  1  0
 14 15  1  0
 16 10  1  0
 17 16  2  0
 18 19  1  0
 19 20  2  0
 21 19  1  0
 22 21  1  1
 22 23  1  0
 22 24  1  0
 23 16  1  0
 24 26  1  0
 25 24  2  0
M  END
$$$$
