DKN.pdb
     RDKit          3D

 26 25  0  0  1  0  0  0  0  0999 V2000
   11.4974  -18.1468   20.2296 N   0  0  0  0  0  0  0  0  0  0  0  0
   12.5426  -17.5270   20.9925 C   0  0  1  0  0  0  0  0  0  0  0  0
   13.5219  -16.7660   20.1191 C   0  0  0  0  0  0  0  0  0  0  0  0
   14.2529  -17.7284   19.2435 C   0  0  0  0  0  0  0  0  0  0  0  0
   14.4792  -18.8851   19.6291 O   0  0  0  0  0  0  0  0  0  0  0  0
   11.9411  -16.6006   21.9709 C   0  0  0  0  0  0  0  0  0  0  0  0
   12.7536  -15.9349   22.6881 O   0  0  0  0  0  0  0  0  0  0  0  0
   14.6956  -17.3622   17.9879 O   0  0  0  0  0  0  0  0  0  0  0  0
   10.5406  -16.4792   22.0844 N   0  0  0  0  0  0  0  0  0  0  0  0
    9.9758  -15.4827   22.9926 C   0  0  1  0  0  0  0  0  0  0  0  0
    8.5906  -15.1962   22.5313 C   0  0  0  0  0  0  0  0  0  0  0  0
    8.4817  -14.3235   21.3081 C   0  0  0  0  0  0  0  0  0  0  0  0
    7.0042  -14.1678   21.0089 C   0  0  0  0  0  0  0  0  0  0  0  0
    6.7232  -13.3713   19.7781 C   0  0  0  0  0  0  0  0  0  0  0  0
    7.2222  -13.9487   18.5646 N   0  0  0  0  0  0  0  0  0  0  0  0
   10.0877  -15.9786   24.3878 C   0  0  0  0  0  0  0  0  0  0  0  0
   10.2445  -17.2150   24.5524 O   0  0  0  0  0  0  0  0  0  0  0  0
   11.3170  -13.7903   29.9940 N   0  0  0  0  0  0  0  0  0  0  0  0
   10.5546  -14.7304   29.2328 C   0  0  0  0  0  0  0  0  0  0  0  0
   10.2280  -15.7729   29.8464 O   0  0  0  0  0  0  0  0  0  0  0  0
   10.2213  -14.4190   27.8384 C   0  0  0  0  0  0  0  0  0  0  0  0
   10.3461  -15.5553   26.8707 C   0  0  2  0  0  0  0  0  0  0  0  0
   10.0243  -15.1176   25.5126 N   0  0  0  0  0  0  0  0  0  0  0  0
    9.4804  -16.7142   27.1823 C   0  0  0  0  0  0  0  0  0  0  0  0
    8.2779  -16.6693   26.7802 O   0  0  0  0  0  0  0  0  0  0  0  0
    9.8427  -17.8429   27.8651 O   0  0  0  0  0  0  0  0  0  0  0  0
  2  1  1  6
  3  2  1  0
  3  4  1  0
  4  5  2  0
  6  2  1  0
  6  7  2  0
  8  4  1  0
  9  6  1  0
 10  9  1  0
 10 11  1  6
 11 12  1  0
 13 12  1  0
 13 14  1  0
 14 15  1  0
 16 10  1  0
 17 16  2  0
 18 19  1  0
 19 20  2  0
 21 19  1  0
 22 21  1  1
 22 23  1  0
 22 24  1  0
 23 16  1  0
 24 26  1  0
 25 24  2  0
M  END
$$$$
