DKN.pdb
     RDKit          3D

 26 25  0  0  1  0  0  0  0  0999 V2000
   10.8714  -18.6657   18.6520 N   0  0  0  0  0  0  0  0  0  0  0  0
   12.0443  -17.9320   19.0324 C   0  0  1  0  0  0  0  0  0  0  0  0
   12.6397  -17.1537   17.8744 C   0  0  0  0  0  0  0  0  0  0  0  0
   13.2615  -18.1059   16.9080 C   0  0  0  0  0  0  0  0  0  0  0  0
   13.1123  -19.3294   17.0438 O   0  0  0  0  0  0  0  0  0  0  0  0
   11.6970  -16.9972   20.1199 C   0  0  0  0  0  0  0  0  0  0  0  0
   12.6337  -16.2430   20.5338 O   0  0  0  0  0  0  0  0  0  0  0  0
   14.0155  -17.6561   15.8423 O   0  0  0  0  0  0  0  0  0  0  0  0
   10.3917  -16.9623   20.6530 N   0  0  0  0  0  0  0  0  0  0  0  0
   10.0915  -16.0596   21.7629 C   0  0  1  0  0  0  0  0  0  0  0  0
    8.8221  -15.3572   21.4330 C   0  0  0  0  0  0  0  0  0  0  0  0
    8.9090  -14.3511   20.3149 C   0  0  0  0  0  0  0  0  0  0  0  0
    7.5154  -13.7885   20.1201 C   0  0  0  0  0  0  0  0  0  0  0  0
    7.4421  -12.7159   19.0845 C   0  0  0  0  0  0  0  0  0  0  0  0
    6.1476  -12.1197   18.9310 N   0  0  0  0  0  0  0  0  0  0  0  0
   10.0741  -16.8356   23.0288 C   0  0  0  0  0  0  0  0  0  0  0  0
    9.6473  -18.0170   22.9784 O   0  0  0  0  0  0  0  0  0  0  0  0
   10.8935  -18.3585   27.9826 N   0  0  0  0  0  0  0  0  0  0  0  0
   11.5123  -17.0796   27.8207 C   0  0  0  0  0  0  0  0  0  0  0  0
   12.1528  -16.6677   28.8157 O   0  0  0  0  0  0  0  0  0  0  0  0
   11.3588  -16.3668   26.5477 C   0  0  0  0  0  0  0  0  0  0  0  0
   10.5350  -17.0625   25.5082 C   0  0  2  0  0  0  0  0  0  0  0  0
   10.5148  -16.2947   24.2633 N   0  0  0  0  0  0  0  0  0  0  0  0
    9.1303  -17.3004   25.9078 C   0  0  0  0  0  0  0  0  0  0  0  0
    8.9278  -18.0512   26.9103 O   0  0  0  0  0  0  0  0  0  0  0  0
    8.0131  -16.7907   25.3048 O   0  0  0  0  0  0  0  0  0  0  0  0
  2  1  1  6
  3  2  1  0
  3  4  1  0
  4  5  2  0
  6  2  1  0
  6  7  2  0
  8  4  1  0
  9  6  1  0
 10  9  1  0
 10 11  1  6
 11 12  1  0
 13 12  1  0
 13 14  1  0
 14 15  1  0
 16 10  1  0
 17 16  2  0
 18 19  1  0
 19 20  2  0
 21 19  1  0
 22 21  1  1
 22 23  1  0
 22 24  1  0
 23 16  1  0
 24 26  1  0
 25 24  2  0
M  END
$$$$
