DKN.pdb
     RDKit          3D

 26 25  0  0  1  0  0  0  0  0999 V2000
   10.3652  -18.3527   21.2065 N   0  0  0  0  0  0  0  0  0  0  0  0
   11.3756  -17.4271   21.6319 C   0  0  1  0  0  0  0  0  0  0  0  0
   12.2248  -16.9283   20.4781 C   0  0  0  0  0  0  0  0  0  0  0  0
   13.1230  -18.0269   20.0157 C   0  0  0  0  0  0  0  0  0  0  0  0
   13.2116  -19.0824   20.6606 O   0  0  0  0  0  0  0  0  0  0  0  0
   10.7290  -16.2774   22.2932 C   0  0  0  0  0  0  0  0  0  0  0  0
   11.5078  -15.3935   22.7726 O   0  0  0  0  0  0  0  0  0  0  0  0
   13.8760  -17.9014   18.8652 O   0  0  0  0  0  0  0  0  0  0  0  0
    9.3239  -16.1880   22.3755 N   0  0  0  0  0  0  0  0  0  0  0  0
    8.7131  -15.0262   23.0189 C   0  0  1  0  0  0  0  0  0  0  0  0
    7.8327  -14.3733   22.0128 C   0  0  0  0  0  0  0  0  0  0  0  0
    8.4741  -14.0823   20.6810 C   0  0  0  0  0  0  0  0  0  0  0  0
    7.3937  -13.5039   19.7895 C   0  0  0  0  0  0  0  0  0  0  0  0
    7.8853  -13.0966   18.4402 C   0  0  0  0  0  0  0  0  0  0  0  0
    6.9047  -12.4553   17.6143 N   0  0  0  0  0  0  0  0  0  0  0  0
    8.0339  -15.4625   24.2652 C   0  0  0  0  0  0  0  0  0  0  0  0
    6.7935  -15.2743   24.3453 O   0  0  0  0  0  0  0  0  0  0  0  0
    6.1567  -19.8599   24.1461 N   0  0  0  0  0  0  0  0  0  0  0  0
    6.5170  -18.7109   24.9171 C   0  0  0  0  0  0  0  0  0  0  0  0
    5.5563  -18.0879   25.4260 O   0  0  0  0  0  0  0  0  0  0  0  0
    7.9340  -18.3560   25.0525 C   0  0  0  0  0  0  0  0  0  0  0  0
    8.2403  -17.2647   26.0316 C   0  0  2  0  0  0  0  0  0  0  0  0
    8.7281  -16.0708   25.3416 N   0  0  0  0  0  0  0  0  0  0  0  0
    9.2466  -17.6318   27.0525 C   0  0  0  0  0  0  0  0  0  0  0  0
    8.8617  -17.6803   28.2605 O   0  0  0  0  0  0  0  0  0  0  0  0
   10.5634  -17.9286   26.8302 O   0  0  0  0  0  0  0  0  0  0  0  0
  2  1  1  6
  3  2  1  0
  3  4  1  0
  4  5  2  0
  6  2  1  0
  6  7  2  0
  8  4  1  0
  9  6  1  0
 10  9  1  0
 10 11  1  6
 11 12  1  0
 13 12  1  0
 13 14  1  0
 14 15  1  0
 16 10  1  0
 17 16  2  0
 18 19  1  0
 19 20  2  0
 21 19  1  0
 22 21  1  6
 22 23  1  0
 22 24  1  0
 23 16  1  0
 24 26  1  0
 25 24  2  0
M  END
$$$$
