DKN.pdb
     RDKit          3D

 26 25  0  0  1  0  0  0  0  0999 V2000
   13.8571  -15.1238   15.8027 N   0  0  0  0  0  0  0  0  0  0  0  0
   14.1889  -16.1002   16.8003 C   0  0  1  0  0  0  0  0  0  0  0  0
   15.6714  -16.4208   16.8244 C   0  0  0  0  0  0  0  0  0  0  0  0
   16.0502  -17.0986   15.5498 C   0  0  0  0  0  0  0  0  0  0  0  0
   17.2424  -17.2225   15.2318 O   0  0  0  0  0  0  0  0  0  0  0  0
   13.7783  -15.5955   18.1246 C   0  0  0  0  0  0  0  0  0  0  0  0
   14.6543  -14.9398   18.7729 O   0  0  0  0  0  0  0  0  0  0  0  0
   15.0919  -17.6039   14.6938 O   0  0  0  0  0  0  0  0  0  0  0  0
   12.4809  -15.8405   18.6205 N   0  0  0  0  0  0  0  0  0  0  0  0
   12.0756  -15.2540   19.8967 C   0  0  1  0  0  0  0  0  0  0  0  0
   10.6042  -15.0407   19.8399 C   0  0  0  0  0  0  0  0  0  0  0  0
   10.1443  -13.9297   18.9322 C   0  0  0  0  0  0  0  0  0  0  0  0
    8.6326  -13.8818   19.0266 C   0  0  0  0  0  0  0  0  0  0  0  0
    8.0180  -12.7752   18.2356 C   0  0  0  0  0  0  0  0  0  0  0  0
    6.5972  -12.6527   18.3813 N   0  0  0  0  0  0  0  0  0  0  0  0
   12.5458  -16.1260   21.0029 C   0  0  0  0  0  0  0  0  0  0  0  0
   12.5600  -17.3660   20.7971 O   0  0  0  0  0  0  0  0  0  0  0  0
   16.3182  -14.4146   22.6696 N   0  0  0  0  0  0  0  0  0  0  0  0
   15.8618  -15.7242   23.0175 C   0  0  0  0  0  0  0  0  0  0  0  0
   16.4997  -16.6673   22.4942 O   0  0  0  0  0  0  0  0  0  0  0  0
   14.7210  -15.8655   23.9288 C   0  0  0  0  0  0  0  0  0  0  0  0
   13.4816  -16.4580   23.3321 C   0  0  2  0  0  0  0  0  0  0  0  0
   12.9691  -15.6117   22.2547 N   0  0  0  0  0  0  0  0  0  0  0  0
   12.3811  -16.6622   24.3000 C   0  0  0  0  0  0  0  0  0  0  0  0
   12.6085  -17.4215   25.2907 O   0  0  0  0  0  0  0  0  0  0  0  0
   11.1298  -16.1124   24.2404 O   0  0  0  0  0  0  0  0  0  0  0  0
  2  1  1  6
  3  2  1  0
  3  4  1  0
  4  5  2  0
  6  2  1  0
  6  7  2  0
  8  4  1  0
  9  6  1  0
 10  9  1  0
 10 11  1  6
 11 12  1  0
 13 12  1  0
 13 14  1  0
 14 15  1  0
 16 10  1  0
 17 16  2  0
 18 19  1  0
 19 20  2  0
 21 19  1  0
 22 21  1  1
 22 23  1  0
 22 24  1  0
 23 16  1  0
 24 26  1  0
 25 24  2  0
M  END
$$$$
