DKN.pdb
     RDKit          3D

 26 25  0  0  1  0  0  0  0  0999 V2000
   11.9987  -18.1509   16.2917 N   0  0  0  0  0  0  0  0  0  0  0  0
   10.9918  -18.5668   17.2255 C   0  0  1  0  0  0  0  0  0  0  0  0
   11.1560  -20.0153   17.6451 C   0  0  0  0  0  0  0  0  0  0  0  0
   11.2074  -20.8784   16.4286 C   0  0  0  0  0  0  0  0  0  0  0  0
   10.3134  -20.8139   15.5716 O   0  0  0  0  0  0  0  0  0  0  0  0
   11.0561  -17.7034   18.4204 C   0  0  0  0  0  0  0  0  0  0  0  0
   12.2176  -17.3399   18.7896 O   0  0  0  0  0  0  0  0  0  0  0  0
   12.2438  -21.7672   16.2232 O   0  0  0  0  0  0  0  0  0  0  0  0
    9.8803  -17.3176   19.0968 N   0  0  0  0  0  0  0  0  0  0  0  0
    9.9697  -16.3928   20.2254 C   0  0  1  0  0  0  0  0  0  0  0  0
    8.7860  -15.4940   20.1578 C   0  0  0  0  0  0  0  0  0  0  0  0
    8.7642  -14.5364   18.9949 C   0  0  0  0  0  0  0  0  0  0  0  0
    7.4089  -13.8583   19.0089 C   0  0  0  0  0  0  0  0  0  0  0  0
    7.2247  -12.8658   17.9093 C   0  0  0  0  0  0  0  0  0  0  0  0
    5.9799  -12.1558   17.9461 N   0  0  0  0  0  0  0  0  0  0  0  0
   10.1008  -17.1723   21.4826 C   0  0  0  0  0  0  0  0  0  0  0  0
    9.4171  -18.2220   21.5873 O   0  0  0  0  0  0  0  0  0  0  0  0
   11.8926  -20.9495   24.3902 N   0  0  0  0  0  0  0  0  0  0  0  0
   12.6502  -19.7740   24.0925 C   0  0  0  0  0  0  0  0  0  0  0  0
   13.7172  -19.6501   24.7376 O   0  0  0  0  0  0  0  0  0  0  0  0
   12.1428  -18.8309   23.0898 C   0  0  0  0  0  0  0  0  0  0  0  0
   11.3539  -17.6755   23.6244 C   0  0  2  0  0  0  0  0  0  0  0  0
   10.9547  -16.7754   22.5427 N   0  0  0  0  0  0  0  0  0  0  0  0
   12.0720  -16.8672   24.6345 C   0  0  0  0  0  0  0  0  0  0  0  0
   12.6879  -15.8357   24.2264 O   0  0  0  0  0  0  0  0  0  0  0  0
   12.1431  -17.1158   25.9779 O   0  0  0  0  0  0  0  0  0  0  0  0
  2  1  1  6
  3  2  1  0
  3  4  1  0
  4  5  2  0
  6  2  1  0
  6  7  2  0
  8  4  1  0
  9  6  1  0
 10  9  1  0
 10 11  1  1
 11 12  1  0
 13 12  1  0
 13 14  1  0
 14 15  1  0
 16 10  1  0
 17 16  2  0
 18 19  1  0
 19 20  2  0
 21 19  1  0
 22 21  1  6
 22 23  1  0
 22 24  1  0
 23 16  1  0
 24 26  1  0
 25 24  2  0
M  END
$$$$
