DKN.pdb
     RDKit          3D

 26 25  0  0  1  0  0  0  0  0999 V2000
    8.1606  -18.5553   18.2870 N   0  0  0  0  0  0  0  0  0  0  0  0
    8.6875  -19.6294   19.0790 C   0  0  1  0  0  0  0  0  0  0  0  0
   10.2028  -19.6075   19.1472 C   0  0  0  0  0  0  0  0  0  0  0  0
   10.7615  -19.8726   17.7889 C   0  0  0  0  0  0  0  0  0  0  0  0
   10.0089  -20.0021   16.8118 O   0  0  0  0  0  0  0  0  0  0  0  0
    8.1373  -19.5364   20.4450 C   0  0  0  0  0  0  0  0  0  0  0  0
    8.1046  -18.3739   20.9601 O   0  0  0  0  0  0  0  0  0  0  0  0
   12.1223  -19.9808   17.5817 O   0  0  0  0  0  0  0  0  0  0  0  0
    7.6801  -20.6875   21.1195 N   0  0  0  0  0  0  0  0  0  0  0  0
    7.0172  -20.5470   22.4148 C   0  0  1  0  0  0  0  0  0  0  0  0
    5.7961  -21.3965   22.3830 C   0  0  0  0  0  0  0  0  0  0  0  0
    4.6190  -20.8131   21.6456 C   0  0  0  0  0  0  0  0  0  0  0  0
    3.5137  -21.8489   21.6918 C   0  0  0  0  0  0  0  0  0  0  0  0
    2.2369  -21.3904   21.0692 C   0  0  0  0  0  0  0  0  0  0  0  0
    1.1905  -22.3700   21.0587 N   0  0  0  0  0  0  0  0  0  0  0  0
    7.9851  -20.8712   23.4933 C   0  0  0  0  0  0  0  0  0  0  0  0
    8.7363  -21.8639   23.3183 O   0  0  0  0  0  0  0  0  0  0  0  0
   10.7717  -20.7460   27.9456 N   0  0  0  0  0  0  0  0  0  0  0  0
   10.1426  -19.4717   27.7882 C   0  0  0  0  0  0  0  0  0  0  0  0
   10.4259  -18.6253   28.6676 O   0  0  0  0  0  0  0  0  0  0  0  0
    9.2431  -19.2537   26.6500 C   0  0  0  0  0  0  0  0  0  0  0  0
    9.0109  -20.4416   25.7679 C   0  0  2  0  0  0  0  0  0  0  0  0
    8.0836  -20.1109   24.6861 N   0  0  0  0  0  0  0  0  0  0  0  0
    8.4686  -21.6236   26.4739 C   0  0  0  0  0  0  0  0  0  0  0  0
    7.2122  -21.6775   26.6421 O   0  0  0  0  0  0  0  0  0  0  0  0
    9.1859  -22.6777   26.9700 O   0  0  0  0  0  0  0  0  0  0  0  0
  2  1  1  6
  3  2  1  0
  3  4  1  0
  4  5  2  0
  6  2  1  0
  6  7  2  0
  8  4  1  0
  9  6  1  0
 10  9  1  0
 10 11  1  6
 11 12  1  0
 13 12  1  0
 13 14  1  0
 14 15  1  0
 16 10  1  0
 17 16  2  0
 18 19  1  0
 19 20  2  0
 21 19  1  0
 22 21  1  1
 22 23  1  0
 22 24  1  0
 23 16  1  0
 24 26  1  0
 25 24  2  0
M  END
$$$$
