DKN.pdb
     RDKit          3D

 26 25  0  0  1  0  0  0  0  0999 V2000
    9.5767  -17.0046   19.9396 N   0  0  0  0  0  0  0  0  0  0  0  0
   10.5169  -17.4008   20.9485 C   0  0  1  0  0  0  0  0  0  0  0  0
   11.6986  -16.4542   21.0405 C   0  0  0  0  0  0  0  0  0  0  0  0
   12.5395  -16.5944   19.8155 C   0  0  0  0  0  0  0  0  0  0  0  0
   12.6176  -17.6823   19.2256 O   0  0  0  0  0  0  0  0  0  0  0  0
    9.8308  -17.4514   22.2538 C   0  0  0  0  0  0  0  0  0  0  0  0
    9.1445  -16.4279   22.5685 O   0  0  0  0  0  0  0  0  0  0  0  0
   13.2499  -15.5252   19.3069 O   0  0  0  0  0  0  0  0  0  0  0  0
    9.9460  -18.5835   23.0870 N   0  0  0  0  0  0  0  0  0  0  0  0
    9.1115  -18.6851   24.2829 C   0  0  1  0  0  0  0  0  0  0  0  0
    8.7130  -20.1113   24.4264 C   0  0  0  0  0  0  0  0  0  0  0  0
    7.9315  -20.4445   25.6706 C   0  0  0  0  0  0  0  0  0  0  0  0
    7.6070  -21.9233   25.6034 C   0  0  0  0  0  0  0  0  0  0  0  0
    6.7869  -22.4091   26.7521 C   0  0  0  0  0  0  0  0  0  0  0  0
    6.4993  -23.8133   26.7307 N   0  0  0  0  0  0  0  0  0  0  0  0
    9.8486  -18.1152   25.4391 C   0  0  0  0  0  0  0  0  0  0  0  0
   11.1001  -18.2336   25.4437 O   0  0  0  0  0  0  0  0  0  0  0  0
   10.3793  -14.5225   26.1374 N   0  0  0  0  0  0  0  0  0  0  0  0
    9.4943  -14.4161   27.2555 C   0  0  0  0  0  0  0  0  0  0  0  0
    8.9911  -13.2820   27.4307 O   0  0  0  0  0  0  0  0  0  0  0  0
    9.2476  -15.5988   28.0876 C   0  0  0  0  0  0  0  0  0  0  0  0
    9.9163  -16.8613   27.6378 C   0  0  2  0  0  0  0  0  0  0  0  0
    9.1963  -17.4569   26.5124 N   0  0  0  0  0  0  0  0  0  0  0  0
   10.0305  -17.8946   28.6907 C   0  0  0  0  0  0  0  0  0  0  0  0
    9.1212  -18.7779   28.7428 O   0  0  0  0  0  0  0  0  0  0  0  0
   11.0242  -18.0010   29.6249 O   0  0  0  0  0  0  0  0  0  0  0  0
  2  1  1  6
  3  2  1  0
  3  4  1  0
  4  5  2  0
  6  2  1  0
  6  7  2  0
  8  4  1  0
  9  6  1  0
 10  9  1  0
 10 11  1  1
 11 12  1  0
 13 12  1  0
 13 14  1  0
 14 15  1  0
 16 10  1  0
 17 16  2  0
 18 19  1  0
 19 20  2  0
 21 19  1  0
 22 21  1  1
 22 23  1  0
 22 24  1  0
 23 16  1  0
 24 26  1  0
 25 24  2  0
M  END
$$$$
