SAV.pdb
     RDKit          3D

 19 18  0  0  1  0  0  0  0  0999 V2000
   28.5686  -18.2918  -15.4653 O   0  0  0  0  0  0  0  0  0  0  0  0
   27.4708  -19.1261  -15.2057 C   0  0  0  0  0  0  0  0  0  0  0  0
   28.0400  -20.3225  -14.4376 C   0  0  2  0  0  0  0  0  0  0  0  0
   28.7044  -21.2034  -15.3682 N   0  0  0  0  0  0  0  0  0  0  0  0
   26.8858  -20.9906  -13.7864 C   0  0  0  0  0  0  0  0  0  0  0  0
   26.1831  -21.7604  -14.4714 O   0  0  0  0  0  0  0  0  0  0  0  0
   25.4917  -20.8436  -10.3227 C   0  0  0  0  0  0  0  0  0  0  0  0
   25.3836  -21.2368  -11.7824 C   0  0  2  0  0  0  0  0  0  0  0  0
   26.6100  -20.7457  -12.4260 N   0  0  0  0  0  0  0  0  0  0  0  0
   24.2390  -20.5819  -12.4199 C   0  0  0  0  0  0  0  0  0  0  0  0
   24.2333  -19.3552  -12.6881 O   0  0  0  0  0  0  0  0  0  0  0  0
   21.3758  -22.7013  -14.6932 C   0  0  0  0  0  0  0  0  0  0  0  0
   21.6196  -21.2067  -14.7607 C   0  0  2  0  0  0  0  0  0  0  0  0
   22.8416  -21.0142  -15.6613 C   0  0  0  0  0  0  0  0  0  0  0  0
   21.9107  -20.7198  -13.3756 C   0  0  2  0  0  0  0  0  0  0  0  0
   23.0692  -21.3056  -12.7697 N   0  0  0  0  0  0  0  0  0  0  0  0
   20.7102  -20.8492  -12.5149 C   0  0  0  0  0  0  0  0  0  0  0  0
   20.7203  -21.6788  -11.5732 O   0  0  0  0  0  0  0  0  0  0  0  0
   19.5642  -20.0938  -12.6971 O   0  0  0  0  0  0  0  0  0  0  0  0
  1  2  1  0
  2  3  1  0
  3  5  1  0
  3  4  1  6
  5  6  2  0
  8  7  1  1
  8 10  1  0
  9  8  1  0
  9  5  1  0
 10 11  2  0
 13 12  1  1
 13 15  1  0
 14 13  1  0
 15 17  1  0
 15 16  1  1
 16 10  1  0
 17 18  2  0
 17 19  1  0
M  END
$$$$
