SAV.pdb
     RDKit          3D

 19 18  0  0  1  0  0  0  0  0999 V2000
   14.7691  -13.4960  -14.4635 O   0  0  0  0  0  0  0  0  0  0  0  0
   15.8541  -12.6700  -14.7935 C   0  0  0  0  0  0  0  0  0  0  0  0
   15.7776  -12.4826  -16.3115 C   0  0  2  0  0  0  0  0  0  0  0  0
   15.8530  -13.7762  -16.9474 N   0  0  0  0  0  0  0  0  0  0  0  0
   16.9288  -11.6245  -16.6869 C   0  0  0  0  0  0  0  0  0  0  0  0
   18.0712  -12.1251  -16.6700 O   0  0  0  0  0  0  0  0  0  0  0  0
   17.1769   -8.1283  -17.9657 C   0  0  0  0  0  0  0  0  0  0  0  0
   17.8197   -9.3890  -17.4230 C   0  0  2  0  0  0  0  0  0  0  0  0
   16.7122  -10.2800  -17.0499 N   0  0  0  0  0  0  0  0  0  0  0  0
   18.6024   -9.1033  -16.2183 C   0  0  0  0  0  0  0  0  0  0  0  0
   18.0817   -9.0578  -15.0766 O   0  0  0  0  0  0  0  0  0  0  0  0
   21.6790  -10.8721  -15.0044 C   0  0  0  0  0  0  0  0  0  0  0  0
   22.0738   -9.4099  -15.0670 C   0  0  2  0  0  0  0  0  0  0  0  0
   22.8290   -9.1161  -13.7689 C   0  0  0  0  0  0  0  0  0  0  0  0
   20.8220   -8.5926  -15.1385 C   0  0  2  0  0  0  0  0  0  0  0  0
   19.9996   -8.8616  -16.2804 N   0  0  0  0  0  0  0  0  0  0  0  0
   21.1342   -7.1489  -15.0086 C   0  0  0  0  0  0  0  0  0  0  0  0
   21.2608   -6.4555  -16.0470 O   0  0  0  0  0  0  0  0  0  0  0  0
   21.2955   -6.5171  -13.7871 O   0  0  0  0  0  0  0  0  0  0  0  0
  1  2  1  0
  2  3  1  0
  3  5  1  0
  3  4  1  6
  5  6  2  0
  8  7  1  1
  8 10  1  0
  9  8  1  0
  9  5  1  0
 10 11  2  0
 13 12  1  1
 13 15  1  0
 14 13  1  0
 15 17  1  0
 15 16  1  6
 16 10  1  0
 17 18  2  0
 17 19  1  0
M  END
$$$$
