SAV.pdb
     RDKit          3D

 19 18  0  0  1  0  0  0  0  0999 V2000
   12.7709  -11.6366  -14.7413 O   0  0  0  0  0  0  0  0  0  0  0  0
   13.4878  -10.7194  -13.9583 C   0  0  0  0  0  0  0  0  0  0  0  0
   14.8674  -11.3509  -13.7503 C   0  0  2  0  0  0  0  0  0  0  0  0
   14.7009  -12.7551  -13.4607 N   0  0  0  0  0  0  0  0  0  0  0  0
   15.4909  -10.6313  -12.6119 C   0  0  0  0  0  0  0  0  0  0  0  0
   15.1487  -10.9447  -11.4541 O   0  0  0  0  0  0  0  0  0  0  0  0
   18.3428   -8.2591  -12.3886 C   0  0  0  0  0  0  0  0  0  0  0  0
   17.1314   -8.9217  -11.7638 C   0  0  2  0  0  0  0  0  0  0  0  0
   16.4439   -9.6224  -12.8574 N   0  0  0  0  0  0  0  0  0  0  0  0
   16.2126   -7.9235  -11.2115 C   0  0  0  0  0  0  0  0  0  0  0  0
   15.4386   -7.2518  -11.9370 O   0  0  0  0  0  0  0  0  0  0  0  0
   13.9728   -8.4290   -8.0226 C   0  0  0  0  0  0  0  0  0  0  0  0
   14.7420   -7.1324   -7.8653 C   0  0  2  0  0  0  0  0  0  0  0  0
   13.7392   -6.1025   -7.3407 C   0  0  0  0  0  0  0  0  0  0  0  0
   15.2497   -6.7262   -9.2133 C   0  0  2  0  0  0  0  0  0  0  0  0
   16.1498   -7.6627   -9.8177 N   0  0  0  0  0  0  0  0  0  0  0  0
   15.8233   -5.3596   -9.1640 C   0  0  0  0  0  0  0  0  0  0  0  0
   17.0397   -5.2173   -8.8899 O   0  0  0  0  0  0  0  0  0  0  0  0
   15.0787   -4.2179   -9.4074 O   0  0  0  0  0  0  0  0  0  0  0  0
  1  2  1  0
  2  3  1  0
  3  5  1  0
  3  4  1  1
  5  6  2  0
  8  7  1  6
  8 10  1  0
  9  8  1  0
  9  5  1  0
 10 11  2  0
 13 12  1  6
 13 15  1  0
 14 13  1  0
 15 17  1  0
 15 16  1  1
 16 10  1  0
 17 18  2  0
 17 19  1  0
M  END
$$$$
