SAV.pdb
     RDKit          3D

 19 18  0  0  1  0  0  0  0  0999 V2000
   24.2018  -11.5283  -20.5455 O   0  0  0  0  0  0  0  0  0  0  0  0
   23.0316  -11.0461  -19.9400 C   0  0  0  0  0  0  0  0  0  0  0  0
   22.7554  -11.9962  -18.7711 C   0  0  2  0  0  0  0  0  0  0  0  0
   21.9163  -13.0759  -19.2333 N   0  0  0  0  0  0  0  0  0  0  0  0
   22.0769  -11.1897  -17.7262 C   0  0  0  0  0  0  0  0  0  0  0  0
   20.9226  -10.7755  -17.9539 O   0  0  0  0  0  0  0  0  0  0  0  0
   22.9604  -10.2710  -14.2283 C   0  0  0  0  0  0  0  0  0  0  0  0
   22.1487  -10.0422  -15.4876 C   0  0  2  0  0  0  0  0  0  0  0  0
   22.7405  -10.9113  -16.5143 N   0  0  0  0  0  0  0  0  0  0  0  0
   22.2635   -8.6544  -15.9420 C   0  0  0  0  0  0  0  0  0  0  0  0
   23.2523   -8.2441  -16.5981 O   0  0  0  0  0  0  0  0  0  0  0  0
   19.0102   -6.2881  -16.8373 C   0  0  0  0  0  0  0  0  0  0  0  0
   20.4418   -5.9621  -17.2139 C   0  0  2  0  0  0  0  0  0  0  0  0
   20.7738   -6.8364  -18.4251 C   0  0  0  0  0  0  0  0  0  0  0  0
   21.3204   -6.3196  -16.0562 C   0  0  2  0  0  0  0  0  0  0  0  0
   21.2553   -7.6954  -15.6618 N   0  0  0  0  0  0  0  0  0  0  0  0
   21.0769   -5.4044  -14.9152 C   0  0  0  0  0  0  0  0  0  0  0  0
   20.3825   -5.8038  -13.9491 O   0  0  0  0  0  0  0  0  0  0  0  0
   21.5814   -4.1162  -14.8583 O   0  0  0  0  0  0  0  0  0  0  0  0
  1  2  1  0
  2  3  1  0
  3  5  1  0
  3  4  1  6
  5  6  2  0
  8  7  1  1
  8 10  1  0
  9  8  1  0
  9  5  1  0
 10 11  2  0
 13 12  1  1
 13 15  1  0
 14 13  1  0
 15 17  1  0
 15 16  1  1
 16 10  1  0
 17 18  2  0
 17 19  1  0
M  END
$$$$
