SAV.pdb
     RDKit          3D

 19 18  0  0  1  0  0  0  0  0999 V2000
   13.3497  -14.8350  -16.7030 O   0  0  0  0  0  0  0  0  0  0  0  0
   14.1338  -14.2135  -15.7194 C   0  0  0  0  0  0  0  0  0  0  0  0
   15.5676  -14.6821  -15.9840 C   0  0  2  0  0  0  0  0  0  0  0  0
   15.7406  -16.0004  -15.4225 N   0  0  0  0  0  0  0  0  0  0  0  0
   16.4598  -13.6919  -15.3312 C   0  0  0  0  0  0  0  0  0  0  0  0
   16.6274  -13.7682  -14.0976 O   0  0  0  0  0  0  0  0  0  0  0  0
   18.8344  -11.1646  -16.6477 C   0  0  0  0  0  0  0  0  0  0  0  0
   17.9924  -11.7036  -15.5086 C   0  0  2  0  0  0  0  0  0  0  0  0
   17.0914  -12.6987  -16.1067 N   0  0  0  0  0  0  0  0  0  0  0  0
   17.1736  -10.6449  -14.9134 C   0  0  0  0  0  0  0  0  0  0  0  0
   16.0702  -10.2973  -15.4016 O   0  0  0  0  0  0  0  0  0  0  0  0
   17.5042   -9.3981  -10.8594 C   0  0  0  0  0  0  0  0  0  0  0  0
   16.3288   -9.1522  -11.7845 C   0  0  2  0  0  0  0  0  0  0  0  0
   15.5124  -10.4465  -11.7901 C   0  0  0  0  0  0  0  0  0  0  0  0
   16.8650   -8.8680  -13.1525 C   0  0  2  0  0  0  0  0  0  0  0  0
   17.5886   -9.9528  -13.7458 N   0  0  0  0  0  0  0  0  0  0  0  0
   17.6523   -7.6114  -13.1528 C   0  0  0  0  0  0  0  0  0  0  0  0
   18.9018   -7.6734  -13.2536 O   0  0  0  0  0  0  0  0  0  0  0  0
   17.0749   -6.3574  -13.0465 O   0  0  0  0  0  0  0  0  0  0  0  0
  1  2  1  0
  2  3  1  0
  3  5  1  0
  3  4  1  1
  5  6  2  0
  8  7  1  6
  8 10  1  0
  9  8  1  0
  9  5  1  0
 10 11  2  0
 13 12  1  1
 13 15  1  0
 14 13  1  0
 15 17  1  0
 15 16  1  1
 16 10  1  0
 17 18  2  0
 17 19  1  0
M  END
$$$$
