SAV.pdb
     RDKit          3D

 19 18  0  0  1  0  0  0  0  0999 V2000
   25.0890  -10.6146  -19.6063 O   0  0  0  0  0  0  0  0  0  0  0  0
   25.0052  -11.8558  -18.9575 C   0  0  0  0  0  0  0  0  0  0  0  0
   25.8396  -11.7067  -17.6820 C   0  0  2  0  0  0  0  0  0  0  0  0
   27.2345  -11.8754  -18.0124 N   0  0  0  0  0  0  0  0  0  0  0  0
   25.3709  -12.7610  -16.7485 C   0  0  0  0  0  0  0  0  0  0  0  0
   25.9464  -13.8674  -16.7671 O   0  0  0  0  0  0  0  0  0  0  0  0
   22.9225  -12.7585  -13.9434 C   0  0  0  0  0  0  0  0  0  0  0  0
   23.8027  -13.5046  -14.9260 C   0  0  2  0  0  0  0  0  0  0  0  0
   24.2999  -12.4954  -15.8715 N   0  0  0  0  0  0  0  0  0  0  0  0
   23.0286  -14.4942  -15.6789 C   0  0  0  0  0  0  0  0  0  0  0  0
   22.4226  -14.2043  -16.7397 O   0  0  0  0  0  0  0  0  0  0  0  0
   22.8108  -18.6913  -14.4595 C   0  0  0  0  0  0  0  0  0  0  0  0
   22.7989  -18.2146  -15.8984 C   0  0  2  0  0  0  0  0  0  0  0  0
   24.2634  -18.1435  -16.3363 C   0  0  0  0  0  0  0  0  0  0  0  0
   22.1778  -16.8533  -15.9323 C   0  0  2  0  0  0  0  0  0  0  0  0
   22.9231  -15.8414  -15.2446 N   0  0  0  0  0  0  0  0  0  0  0  0
   20.7691  -16.9118  -15.4733 C   0  0  0  0  0  0  0  0  0  0  0  0
   19.9020  -17.4190  -16.2257 O   0  0  0  0  0  0  0  0  0  0  0  0
   20.3542  -16.4306  -14.2430 O   0  0  0  0  0  0  0  0  0  0  0  0
  1  2  1  0
  2  3  1  0
  3  5  1  0
  3  4  1  6
  5  6  2  0
  8  7  1  1
  8 10  1  0
  9  8  1  0
  9  5  1  0
 10 11  2  0
 13 12  1  1
 13 15  1  0
 14 13  1  0
 15 17  1  0
 15 16  1  1
 16 10  1  0
 17 18  2  0
 17 19  1  0
M  END
$$$$
