SAV.pdb
     RDKit          3D

 19 18  0  0  1  0  0  0  0  0999 V2000
   15.9918  -10.4402  -15.0892 O   0  0  0  0  0  0  0  0  0  0  0  0
   16.2107  -10.7657  -16.4364 C   0  0  0  0  0  0  0  0  0  0  0  0
   17.4223  -11.7023  -16.4384 C   0  0  2  0  0  0  0  0  0  0  0  0
   17.2238  -12.7270  -15.4414 N   0  0  0  0  0  0  0  0  0  0  0  0
   18.6037  -10.8606  -16.1248 C   0  0  0  0  0  0  0  0  0  0  0  0
   18.8786  -10.6481  -14.9269 O   0  0  0  0  0  0  0  0  0  0  0  0
   21.3259   -9.4716  -18.2547 C   0  0  0  0  0  0  0  0  0  0  0  0
   20.6275   -9.5903  -16.9149 C   0  0  2  0  0  0  0  0  0  0  0  0
   19.3811  -10.3253  -17.1716 N   0  0  0  0  0  0  0  0  0  0  0  0
   20.2788   -8.2700  -16.3850 C   0  0  0  0  0  0  0  0  0  0  0  0
   19.1505   -7.7510  -16.5696 O   0  0  0  0  0  0  0  0  0  0  0  0
   21.2047   -4.7082  -13.1284 C   0  0  0  0  0  0  0  0  0  0  0  0
   21.7614   -5.9461  -13.8032 C   0  0  2  0  0  0  0  0  0  0  0  0
   23.1682   -5.5766  -14.2786 C   0  0  0  0  0  0  0  0  0  0  0  0
   20.8851   -6.2730  -14.9716 C   0  0  2  0  0  0  0  0  0  0  0  0
   21.2053   -7.5043  -15.6302 N   0  0  0  0  0  0  0  0  0  0  0  0
   20.8353   -5.1343  -15.9202 C   0  0  0  0  0  0  0  0  0  0  0  0
   21.5973   -5.1362  -16.9174 O   0  0  0  0  0  0  0  0  0  0  0  0
   19.9821   -4.0553  -15.7620 O   0  0  0  0  0  0  0  0  0  0  0  0
  1  2  1  0
  2  3  1  0
  3  5  1  0
  3  4  1  1
  5  6  2  0
  8  7  1  6
  8 10  1  0
  9  8  1  0
  9  5  1  0
 10 11  2  0
 13 12  1  6
 13 15  1  0
 14 13  1  0
 15 17  1  0
 15 16  1  6
 16 10  1  0
 17 18  2  0
 17 19  1  0
M  END
$$$$
