SAV.pdb
     RDKit          3D

 19 18  0  0  1  0  0  0  0  0999 V2000
   13.5740  -10.7670  -13.0763 O   0  0  0  0  0  0  0  0  0  0  0  0
   14.8690  -11.0401  -13.5422 C   0  0  0  0  0  0  0  0  0  0  0  0
   14.7420  -11.1414  -15.0650 C   0  0  2  0  0  0  0  0  0  0  0  0
   14.3013  -12.4716  -15.4108 N   0  0  0  0  0  0  0  0  0  0  0  0
   16.0889  -10.8541  -15.6183 C   0  0  0  0  0  0  0  0  0  0  0  0
   16.9484  -11.7573  -15.5839 O   0  0  0  0  0  0  0  0  0  0  0  0
   17.4792   -7.9641  -17.5131 C   0  0  0  0  0  0  0  0  0  0  0  0
   17.6718   -9.2644  -16.7585 C   0  0  2  0  0  0  0  0  0  0  0  0
   16.3666   -9.5847  -16.1640 N   0  0  0  0  0  0  0  0  0  0  0  0
   18.6416   -9.1034  -15.6727 C   0  0  0  0  0  0  0  0  0  0  0  0
   18.3055   -8.7161  -14.5266 O   0  0  0  0  0  0  0  0  0  0  0  0
   21.6668  -11.6204  -15.0335 C   0  0  0  0  0  0  0  0  0  0  0  0
   22.1826  -10.1953  -15.0038 C   0  0  2  0  0  0  0  0  0  0  0  0
   23.1136  -10.1039  -13.7928 C   0  0  0  0  0  0  0  0  0  0  0  0
   21.0111   -9.2800  -14.8313 C   0  0  2  0  0  0  0  0  0  0  0  0
   20.0210   -9.3791  -15.8620 N   0  0  0  0  0  0  0  0  0  0  0  0
   21.4663   -7.8828  -14.6331 C   0  0  0  0  0  0  0  0  0  0  0  0
   21.6245   -7.1440  -15.6352 O   0  0  0  0  0  0  0  0  0  0  0  0
   21.7294   -7.3430  -13.3855 O   0  0  0  0  0  0  0  0  0  0  0  0
  1  2  1  0
  2  3  1  0
  3  5  1  0
  3  4  1  1
  5  6  2  0
  8  7  1  1
  8 10  1  0
  9  8  1  0
  9  5  1  0
 10 11  2  0
 13 12  1  1
 13 15  1  0
 14 13  1  0
 15 17  1  0
 15 16  1  6
 16 10  1  0
 17 18  2  0
 17 19  1  0
M  END
$$$$
