WAQ.pdb
     RDKit          3D

 29 30  0  0  1  0  0  0  0  0999 V2000
   28.3055  -21.4038  -10.7843 N   0  0  0  0  0  0  0  0  0  0  0  0
   26.9361  -21.1072  -10.3205 C   0  0  1  0  0  0  0  0  0  0  0  0
   27.1124  -20.2153   -9.1387 C   0  0  0  0  0  0  0  0  0  0  0  0
   28.2002  -20.5971   -8.2229 C   0  0  0  0  0  0  0  0  0  0  0  0
   29.3257  -21.3408   -8.5961 C   0  0  0  0  0  0  0  0  0  0  0  0
   30.1159  -21.4938   -7.5330 N   0  0  0  0  0  0  0  0  0  0  0  0
   29.5639  -20.8815   -6.4608 C   0  0  0  0  0  0  0  0  0  0  0  0
   29.9515  -20.7372   -5.1383 C   0  0  0  0  0  0  0  0  0  0  0  0
   29.1910  -20.0570   -4.2312 C   0  0  0  0  0  0  0  0  0  0  0  0
   28.0012  -19.4953   -4.6379 C   0  0  0  0  0  0  0  0  0  0  0  0
   27.6132  -19.6358   -5.9486 C   0  0  0  0  0  0  0  0  0  0  0  0
   28.3572  -20.3155   -6.8900 C   0  0  0  0  0  0  0  0  0  0  0  0
   26.1738  -20.6204  -11.4442 C   0  0  0  0  0  0  0  0  0  0  0  0
   26.7395  -20.0135  -12.4152 O   0  0  0  0  0  0  0  0  0  0  0  0
   24.7768  -22.6471  -13.1421 C   0  0  0  0  0  0  0  0  0  0  0  0
   24.1566  -21.2956  -12.7878 C   0  0  2  0  0  0  0  0  0  0  0  0
   24.7447  -20.7724  -11.5746 N   0  0  0  0  0  0  0  0  0  0  0  0
   22.6797  -21.4448  -12.6666 C   0  0  0  0  0  0  0  0  0  0  0  0
   22.0338  -22.0731  -13.5760 O   0  0  0  0  0  0  0  0  0  0  0  0
   21.3991  -16.9854  -14.8145 N   0  0  0  0  0  0  0  0  0  0  0  0
   20.1643  -17.1003  -14.1320 C   0  0  0  0  0  0  0  0  0  0  0  0
   19.2486  -16.2542  -14.4262 O   0  0  0  0  0  0  0  0  0  0  0  0
   19.9045  -18.1373  -13.1281 C   0  0  0  0  0  0  0  0  0  0  0  0
   21.0091  -19.0666  -12.8136 C   0  0  0  0  0  0  0  0  0  0  0  0
   20.6805  -20.1406  -11.8406 C   0  0  2  0  0  0  0  0  0  0  0  0
   21.9204  -20.9328  -11.5927 N   0  0  0  0  0  0  0  0  0  0  0  0
   19.6152  -21.0356  -12.2134 C   0  0  0  0  0  0  0  0  0  0  0  0
   18.3065  -20.9077  -11.7880 O   0  0  0  0  0  0  0  0  0  0  0  0
   19.8604  -22.0277  -12.9775 O   0  0  0  0  0  0  0  0  0  0  0  0
  2  1  1  6
  2  3  1  0
  2 13  1  0
  3  4  1  0
  4 12  1  0
  5  4  2  0
  5  6  1  0
  6  7  1  0
  7  8  1  0
  8  9  2  0
 10  9  1  0
 11 10  2  0
 12  7  2  0
 12 11  1  0
 13 17  1  0
 13 14  2  0
 16 15  1  1
 17 16  1  0
 18 16  1  0
 18 26  1  0
 19 18  2  0
 21 20  1  0
 22 21  2  0
 23 21  1  0
 25 24  1  6
 24 23  1  0
 25 26  1  0
 27 25  1  0
 28 27  1  0
 29 27  2  0
M  END
$$$$
