WAQ.pdb
     RDKit          3D

 29 30  0  0  1  0  0  0  0  0999 V2000
   24.2356  -20.0066  -15.9307 N   0  0  0  0  0  0  0  0  0  0  0  0
   22.9408  -19.4150  -15.5409 C   0  0  1  0  0  0  0  0  0  0  0  0
   22.0740  -19.5526  -16.7463 C   0  0  0  0  0  0  0  0  0  0  0  0
   22.4486  -18.7009  -17.8874 C   0  0  0  0  0  0  0  0  0  0  0  0
   22.9864  -19.1773  -19.0886 C   0  0  0  0  0  0  0  0  0  0  0  0
   23.1942  -18.1469  -19.9091 N   0  0  0  0  0  0  0  0  0  0  0  0
   22.8169  -16.9974  -19.3045 C   0  0  0  0  0  0  0  0  0  0  0  0
   22.8201  -15.6674  -19.6935 C   0  0  0  0  0  0  0  0  0  0  0  0
   22.3777  -14.6716  -18.8709 C   0  0  0  0  0  0  0  0  0  0  0  0
   21.9131  -14.9935  -17.6151 C   0  0  0  0  0  0  0  0  0  0  0  0
   21.9079  -16.3112  -17.2255 C   0  0  0  0  0  0  0  0  0  0  0  0
   22.3468  -17.3409  -18.0310 C   0  0  0  0  0  0  0  0  0  0  0  0
   22.5133  -20.0338  -14.3100 C   0  0  0  0  0  0  0  0  0  0  0  0
   22.8377  -21.2359  -14.0255 O   0  0  0  0  0  0  0  0  0  0  0  0
   20.8364  -19.0545  -11.0517 C   0  0  0  0  0  0  0  0  0  0  0  0
   21.2934  -20.0587  -12.1097 C   0  0  2  0  0  0  0  0  0  0  0  0
   21.7071  -19.3716  -13.3132 N   0  0  0  0  0  0  0  0  0  0  0  0
   20.1966  -21.0303  -12.3771 C   0  0  0  0  0  0  0  0  0  0  0  0
   19.5002  -20.9152  -13.4451 O   0  0  0  0  0  0  0  0  0  0  0  0
   18.9858  -26.7364   -9.5401 N   0  0  0  0  0  0  0  0  0  0  0  0
   17.8834  -26.4564  -10.3828 C   0  0  0  0  0  0  0  0  0  0  0  0
   16.9454  -27.3274  -10.4334 O   0  0  0  0  0  0  0  0  0  0  0  0
   17.7806  -25.2266  -11.1749 C   0  0  0  0  0  0  0  0  0  0  0  0
   18.8853  -24.2526  -11.0589 C   0  0  0  0  0  0  0  0  0  0  0  0
   18.7018  -22.9877  -11.8170 C   0  0  2  0  0  0  0  0  0  0  0  0
   19.8619  -22.0986  -11.5175 N   0  0  0  0  0  0  0  0  0  0  0  0
   17.4790  -22.2675  -11.5704 C   0  0  0  0  0  0  0  0  0  0  0  0
   16.2975  -22.4828  -12.2543 O   0  0  0  0  0  0  0  0  0  0  0  0
   17.4497  -21.3577  -10.6762 O   0  0  0  0  0  0  0  0  0  0  0  0
  2  1  1  6
  2  3  1  0
  2 13  1  0
  3  4  1  0
  4 12  1  0
  5  4  2  0
  5  6  1  0
  6  7  1  0
  7  8  1  0
  8  9  2  0
 10  9  1  0
 11 10  2  0
 12  7  2  0
 12 11  1  0
 13 17  1  0
 13 14  2  0
 16 15  1  1
 17 16  1  0
 18 16  1  0
 18 26  1  0
 19 18  2  0
 21 20  1  0
 22 21  2  0
 23 21  1  0
 25 24  1  1
 24 23  1  0
 25 26  1  0
 27 25  1  0
 28 27  1  0
 29 27  2  0
M  END
$$$$
