WAQ.pdb
     RDKit          3D

 29 30  0  0  1  0  0  0  0  0999 V2000
   27.4441  -20.9410   -9.7166 N   0  0  0  0  0  0  0  0  0  0  0  0
   26.2496  -20.8107   -8.8595 C   0  0  1  0  0  0  0  0  0  0  0  0
   26.3855  -19.4770   -8.2067 C   0  0  0  0  0  0  0  0  0  0  0  0
   27.5252  -19.3448   -7.2839 C   0  0  0  0  0  0  0  0  0  0  0  0
   28.7104  -18.6624   -7.5815 C   0  0  0  0  0  0  0  0  0  0  0  0
   29.5216  -18.7219   -6.5250 N   0  0  0  0  0  0  0  0  0  0  0  0
   28.9265  -19.4183   -5.5299 C   0  0  0  0  0  0  0  0  0  0  0  0
   29.3147  -19.7749   -4.2485 C   0  0  0  0  0  0  0  0  0  0  0  0
   28.5071  -20.5045   -3.4241 C   0  0  0  0  0  0  0  0  0  0  0  0
   27.2678  -20.9007   -3.8753 C   0  0  0  0  0  0  0  0  0  0  0  0
   26.8788  -20.5489   -5.1455 C   0  0  0  0  0  0  0  0  0  0  0  0
   27.6690  -19.8129   -6.0030 C   0  0  0  0  0  0  0  0  0  0  0  0
   25.0829  -21.0669   -9.6681 C   0  0  0  0  0  0  0  0  0  0  0  0
   25.0883  -20.8485  -10.9265 O   0  0  0  0  0  0  0  0  0  0  0  0
   21.5535  -22.4426   -9.2285 C   0  0  0  0  0  0  0  0  0  0  0  0
   22.7136  -21.8370  -10.0187 C   0  0  2  0  0  0  0  0  0  0  0  0
   23.8396  -21.5822   -9.1477 N   0  0  0  0  0  0  0  0  0  0  0  0
   22.2527  -20.5973  -10.7037 C   0  0  0  0  0  0  0  0  0  0  0  0
   22.1871  -19.5016  -10.0449 O   0  0  0  0  0  0  0  0  0  0  0  0
   22.3823  -16.5074  -16.6758 N   0  0  0  0  0  0  0  0  0  0  0  0
   22.0557  -17.7690  -16.1229 C   0  0  0  0  0  0  0  0  0  0  0  0
   22.2434  -18.8003  -16.8592 O   0  0  0  0  0  0  0  0  0  0  0  0
   21.5288  -17.9287  -14.7638 C   0  0  0  0  0  0  0  0  0  0  0  0
   21.9779  -19.1098  -13.9983 C   0  0  0  0  0  0  0  0  0  0  0  0
   21.3538  -19.2766  -12.6600 C   0  0  2  0  0  0  0  0  0  0  0  0
   21.8757  -20.5403  -12.0626 N   0  0  0  0  0  0  0  0  0  0  0  0
   19.9139  -19.2976  -12.6253 C   0  0  0  0  0  0  0  0  0  0  0  0
   19.1235  -18.1789  -12.4412 O   0  0  0  0  0  0  0  0  0  0  0  0
   19.2936  -20.4044  -12.7607 O   0  0  0  0  0  0  0  0  0  0  0  0
  2  1  1  6
  2  3  1  0
  2 13  1  0
  3  4  1  0
  4 12  1  0
  5  4  2  0
  5  6  1  0
  6  7  1  0
  7  8  1  0
  8  9  2  0
 10  9  1  0
 11 10  2  0
 12  7  2  0
 12 11  1  0
 13 17  1  0
 13 14  2  0
 16 15  1  1
 17 16  1  0
 18 16  1  0
 18 26  1  0
 19 18  2  0
 21 20  1  0
 22 21  2  0
 23 21  1  0
 25 24  1  6
 24 23  1  0
 25 26  1  0
 27 25  1  0
 28 27  1  0
 29 27  2  0
M  END
$$$$
