WAQ.pdb
     RDKit          3D

 29 30  0  0  1  0  0  0  0  0999 V2000
   28.5986  -20.7644   -9.9566 N   0  0  0  0  0  0  0  0  0  0  0  0
   27.1440  -20.8257   -9.7144 C   0  0  1  0  0  0  0  0  0  0  0  0
   26.8276  -19.5887   -8.9443 C   0  0  0  0  0  0  0  0  0  0  0  0
   27.6618  -19.3625   -7.7524 C   0  0  0  0  0  0  0  0  0  0  0  0
   28.6270  -18.3550   -7.6406 C   0  0  0  0  0  0  0  0  0  0  0  0
   29.1841  -18.4211   -6.4309 N   0  0  0  0  0  0  0  0  0  0  0  0
   28.6301  -19.4344   -5.7268 C   0  0  0  0  0  0  0  0  0  0  0  0
   28.8342  -19.9349   -4.4510 C   0  0  0  0  0  0  0  0  0  0  0  0
   28.1270  -20.9987   -3.9691 C   0  0  0  0  0  0  0  0  0  0  0  0
   27.1808  -21.5962   -4.7717 C   0  0  0  0  0  0  0  0  0  0  0  0
   26.9751  -21.1028   -6.0376 C   0  0  0  0  0  0  0  0  0  0  0  0
   27.6710  -20.0305   -6.5548 C   0  0  0  0  0  0  0  0  0  0  0  0
   26.4837  -21.0383  -10.9791 C   0  0  0  0  0  0  0  0  0  0  0  0
   27.0060  -20.6394  -12.0742 O   0  0  0  0  0  0  0  0  0  0  0  0
   24.0940  -23.2581  -12.6421 C   0  0  0  0  0  0  0  0  0  0  0  0
   24.5714  -21.8241  -12.4129 C   0  0  2  0  0  0  0  0  0  0  0  0
   25.2120  -21.7051  -11.1217 N   0  0  0  0  0  0  0  0  0  0  0  0
   23.4182  -20.8909  -12.5460 C   0  0  0  0  0  0  0  0  0  0  0  0
   22.7192  -20.6026  -11.5129 O   0  0  0  0  0  0  0  0  0  0  0  0
   21.5238  -16.0776  -14.8385 N   0  0  0  0  0  0  0  0  0  0  0  0
   22.6896  -16.6749  -15.3752 C   0  0  0  0  0  0  0  0  0  0  0  0
   23.6849  -15.9064  -15.6198 O   0  0  0  0  0  0  0  0  0  0  0  0
   22.7934  -18.1122  -15.6466 C   0  0  0  0  0  0  0  0  0  0  0  0
   21.6579  -18.9626  -15.2342 C   0  0  0  0  0  0  0  0  0  0  0  0
   21.7494  -19.5263  -13.8623 C   0  0  2  0  0  0  0  0  0  0  0  0
   23.0312  -20.2829  -13.7595 N   0  0  0  0  0  0  0  0  0  0  0  0
   20.6639  -20.3781  -13.4485 C   0  0  0  0  0  0  0  0  0  0  0  0
   20.5626  -21.7193  -13.7662 O   0  0  0  0  0  0  0  0  0  0  0  0
   19.7114  -19.8953  -12.7501 O   0  0  0  0  0  0  0  0  0  0  0  0
  2  1  1  6
  2  3  1  0
  2 13  1  0
  3  4  1  0
  4 12  1  0
  5  4  2  0
  5  6  1  0
  6  7  1  0
  7  8  1  0
  8  9  2  0
 10  9  1  0
 11 10  2  0
 12  7  2  0
 12 11  1  0
 13 17  1  0
 13 14  2  0
 16 15  1  1
 17 16  1  0
 18 16  1  0
 18 26  1  0
 19 18  2  0
 21 20  1  0
 22 21  2  0
 23 21  1  0
 25 24  1  6
 24 23  1  0
 25 26  1  0
 27 25  1  0
 28 27  1  0
 29 27  2  0
M  END
$$$$
