WAQ.pdb
     RDKit          3D

 29 30  0  0  1  0  0  0  0  0999 V2000
   26.6010  -22.5294  -11.9876 N   0  0  0  0  0  0  0  0  0  0  0  0
   25.8605  -21.4964  -11.2373 C   0  0  1  0  0  0  0  0  0  0  0  0
   26.7660  -20.3119  -11.2135 C   0  0  0  0  0  0  0  0  0  0  0  0
   27.8370  -20.3626  -10.2044 C   0  0  0  0  0  0  0  0  0  0  0  0
   29.1652  -20.7108  -10.4757 C   0  0  0  0  0  0  0  0  0  0  0  0
   29.8709  -20.6402   -9.3467 N   0  0  0  0  0  0  0  0  0  0  0  0
   29.0673  -20.2582   -8.3280 C   0  0  0  0  0  0  0  0  0  0  0  0
   29.2776  -20.0367   -6.9764 C   0  0  0  0  0  0  0  0  0  0  0  0
   28.2693  -19.6503   -6.1408 C   0  0  0  0  0  0  0  0  0  0  0  0
   27.0028  -19.4740   -6.6519 C   0  0  0  0  0  0  0  0  0  0  0  0
   26.7901  -19.6923   -7.9918 C   0  0  0  0  0  0  0  0  0  0  0  0
   27.7853  -20.0823   -8.8630 C   0  0  0  0  0  0  0  0  0  0  0  0
   24.5545  -21.3540  -11.8329 C   0  0  0  0  0  0  0  0  0  0  0  0
   24.3863  -21.4641  -13.0942 O   0  0  0  0  0  0  0  0  0  0  0  0
   20.9562  -20.7751  -10.7106 C   0  0  0  0  0  0  0  0  0  0  0  0
   22.0665  -20.9923  -11.7387 C   0  0  2  0  0  0  0  0  0  0  0  0
   23.3517  -21.0862  -11.0821 N   0  0  0  0  0  0  0  0  0  0  0  0
   22.0366  -19.8904  -12.7404 C   0  0  0  0  0  0  0  0  0  0  0  0
   22.4863  -18.7356  -12.4194 O   0  0  0  0  0  0  0  0  0  0  0  0
   24.2033  -19.6670  -18.2942 N   0  0  0  0  0  0  0  0  0  0  0  0
   23.2385  -18.6362  -18.3967 C   0  0  0  0  0  0  0  0  0  0  0  0
   23.3495  -17.8223  -19.3796 O   0  0  0  0  0  0  0  0  0  0  0  0
   22.1383  -18.4794  -17.4400 C   0  0  0  0  0  0  0  0  0  0  0  0
   22.0588  -19.4556  -16.3340 C   0  0  0  0  0  0  0  0  0  0  0  0
   21.6169  -18.9033  -15.0271 C   0  0  2  0  0  0  0  0  0  0  0  0
   21.5380  -20.0309  -14.0533 N   0  0  0  0  0  0  0  0  0  0  0  0
   20.3654  -18.1900  -15.0259 C   0  0  0  0  0  0  0  0  0  0  0  0
   20.2316  -16.8526  -15.3476 O   0  0  0  0  0  0  0  0  0  0  0  0
   19.2909  -18.7978  -14.7032 O   0  0  0  0  0  0  0  0  0  0  0  0
  2  1  1  6
  2  3  1  0
  2 13  1  0
  3  4  1  0
  4 12  1  0
  5  4  2  0
  5  6  1  0
  6  7  1  0
  7  8  1  0
  8  9  2  0
 10  9  1  0
 11 10  2  0
 12  7  2  0
 12 11  1  0
 13 17  1  0
 13 14  2  0
 16 15  1  1
 17 16  1  0
 18 16  1  0
 18 26  1  0
 19 18  2  0
 21 20  1  0
 22 21  2  0
 23 21  1  0
 25 24  1  6
 24 23  1  0
 25 26  1  0
 27 25  1  0
 28 27  1  0
 29 27  2  0
M  END
$$$$
