WAQ.pdb
     RDKit          3D

 29 30  0  0  1  0  0  0  0  0999 V2000
   25.3396  -21.4550   -9.0660 N   0  0  0  0  0  0  0  0  0  0  0  0
   26.2508  -20.3949   -9.5396 C   0  0  1  0  0  0  0  0  0  0  0  0
   27.5032  -20.5809   -8.7521 C   0  0  0  0  0  0  0  0  0  0  0  0
   27.3299  -20.5776   -7.2900 C   0  0  0  0  0  0  0  0  0  0  0  0
   26.1943  -21.0555   -6.6258 C   0  0  0  0  0  0  0  0  0  0  0  0
   26.3719  -20.9194   -5.3113 N   0  0  0  0  0  0  0  0  0  0  0  0
   27.5828  -20.3682   -5.0679 C   0  0  0  0  0  0  0  0  0  0  0  0
   28.2560  -20.0139   -3.9097 C   0  0  0  0  0  0  0  0  0  0  0  0
   29.5013  -19.4549   -3.9387 C   0  0  0  0  0  0  0  0  0  0  0  0
   30.1112  -19.2342   -5.1534 C   0  0  0  0  0  0  0  0  0  0  0  0
   29.4471  -19.5843   -6.3044 C   0  0  0  0  0  0  0  0  0  0  0  0
   28.1899  -20.1509   -6.3108 C   0  0  0  0  0  0  0  0  0  0  0  0
   26.3232  -20.4706  -10.9782 C   0  0  0  0  0  0  0  0  0  0  0  0
   27.2275  -19.8465  -11.6295 O   0  0  0  0  0  0  0  0  0  0  0  0
   25.0372  -22.4179  -13.8989 C   0  0  0  0  0  0  0  0  0  0  0  0
   25.3855  -21.0884  -13.2297 C   0  0  2  0  0  0  0  0  0  0  0  0
   25.4114  -21.2383  -11.7915 N   0  0  0  0  0  0  0  0  0  0  0  0
   24.4113  -20.0471  -13.6596 C   0  0  0  0  0  0  0  0  0  0  0  0
   24.5532  -18.8436  -13.2467 O   0  0  0  0  0  0  0  0  0  0  0  0
   26.8265  -17.4824  -15.8235 N   0  0  0  0  0  0  0  0  0  0  0  0
   25.5391  -17.0144  -15.4666 C   0  0  0  0  0  0  0  0  0  0  0  0
   25.4569  -16.2332  -14.4547 O   0  0  0  0  0  0  0  0  0  0  0  0
   24.3270  -17.3811  -16.2058 C   0  0  0  0  0  0  0  0  0  0  0  0
   23.9949  -18.8181  -16.2910 C   0  0  0  0  0  0  0  0  0  0  0  0
   22.8367  -19.2543  -15.4684 C   0  0  2  0  0  0  0  0  0  0  0  0
   23.3157  -20.2962  -14.5139 N   0  0  0  0  0  0  0  0  0  0  0  0
   21.6974  -19.7621  -16.1888 C   0  0  0  0  0  0  0  0  0  0  0  0
   21.4711  -21.1016  -16.4428 O   0  0  0  0  0  0  0  0  0  0  0  0
   20.8243  -18.9511  -16.6451 O   0  0  0  0  0  0  0  0  0  0  0  0
  2  1  1  1
  2  3  1  0
  2 13  1  0
  3  4  1  0
  4 12  1  0
  5  4  2  0
  5  6  1  0
  6  7  1  0
  7  8  1  0
  8  9  2  0
 10  9  1  0
 11 10  2  0
 12  7  2  0
 12 11  1  0
 13 17  1  0
 13 14  2  0
 16 15  1  6
 17 16  1  0
 18 16  1  0
 18 26  1  0
 19 18  2  0
 21 20  1  0
 22 21  2  0
 23 21  1  0
 25 24  1  6
 24 23  1  0
 25 26  1  0
 27 25  1  0
 28 27  1  0
 29 27  2  0
M  END
$$$$
