WAQ.pdb
     RDKit          3D

 29 30  0  0  1  0  0  0  0  0999 V2000
   26.9470  -20.2496  -12.0665 N   0  0  0  0  0  0  0  0  0  0  0  0
   25.9124  -21.1867  -11.5871 C   0  0  1  0  0  0  0  0  0  0  0  0
   26.0063  -21.1388  -10.0997 C   0  0  0  0  0  0  0  0  0  0  0  0
   27.3743  -21.0612   -9.5608 C   0  0  0  0  0  0  0  0  0  0  0  0
   28.4947  -21.6532  -10.1553 C   0  0  0  0  0  0  0  0  0  0  0  0
   29.5723  -21.3760   -9.4205 N   0  0  0  0  0  0  0  0  0  0  0  0
   29.2180  -20.6211   -8.3556 C   0  0  0  0  0  0  0  0  0  0  0  0
   29.9235  -20.0701   -7.2979 C   0  0  0  0  0  0  0  0  0  0  0  0
   29.3113  -19.3323   -6.3257 C   0  0  0  0  0  0  0  0  0  0  0  0
   27.9514  -19.1267   -6.3938 C   0  0  0  0  0  0  0  0  0  0  0  0
   27.2481  -19.6712   -7.4412 C   0  0  0  0  0  0  0  0  0  0  0  0
   27.8348  -20.4203   -8.4394 C   0  0  0  0  0  0  0  0  0  0  0  0
   24.6601  -20.8351  -12.2106 C   0  0  0  0  0  0  0  0  0  0  0  0
   23.9421  -19.8791  -11.7615 O   0  0  0  0  0  0  0  0  0  0  0  0
   22.9035  -21.2001  -15.4649 C   0  0  0  0  0  0  0  0  0  0  0  0
   22.8530  -21.1075  -13.9399 C   0  0  2  0  0  0  0  0  0  0  0  0
   24.1195  -21.5074  -13.3673 N   0  0  0  0  0  0  0  0  0  0  0  0
   21.7282  -21.9400  -13.4299 C   0  0  0  0  0  0  0  0  0  0  0  0
   21.9544  -23.1440  -13.0582 O   0  0  0  0  0  0  0  0  0  0  0  0
   19.2990  -23.9604   -9.2917 N   0  0  0  0  0  0  0  0  0  0  0  0
   18.0318  -23.8469   -9.9122 C   0  0  0  0  0  0  0  0  0  0  0  0
   17.0859  -24.5809   -9.4566 O   0  0  0  0  0  0  0  0  0  0  0  0
   17.7725  -22.9321  -11.0286 C   0  0  0  0  0  0  0  0  0  0  0  0
   18.9152  -22.1479  -11.5403 C   0  0  0  0  0  0  0  0  0  0  0  0
   19.2957  -22.4221  -12.9504 C   0  0  2  0  0  0  0  0  0  0  0  0
   20.3964  -21.4856  -13.3211 N   0  0  0  0  0  0  0  0  0  0  0  0
   18.2415  -22.3218  -13.9270 C   0  0  0  0  0  0  0  0  0  0  0  0
   17.3698  -23.3478  -14.2394 O   0  0  0  0  0  0  0  0  0  0  0  0
   18.0778  -21.2330  -14.5719 O   0  0  0  0  0  0  0  0  0  0  0  0
  2  1  1  6
  2  3  1  0
  2 13  1  0
  3  4  1  0
  4 12  1  0
  5  4  2  0
  5  6  1  0
  6  7  1  0
  7  8  1  0
  8  9  2  0
 10  9  1  0
 11 10  2  0
 12  7  2  0
 12 11  1  0
 13 17  1  0
 13 14  2  0
 16 15  1  6
 17 16  1  0
 18 16  1  0
 18 26  1  0
 19 18  2  0
 21 20  1  0
 22 21  2  0
 23 21  1  0
 25 24  1  1
 24 23  1  0
 25 26  1  0
 27 25  1  0
 28 27  1  0
 29 27  2  0
M  END
$$$$
