WAQ.pdb
     RDKit          3D

 29 30  0  0  1  0  0  0  0  0999 V2000
   24.7166  -20.9421  -15.0230 N   0  0  0  0  0  0  0  0  0  0  0  0
   23.4189  -20.2493  -14.9040 C   0  0  1  0  0  0  0  0  0  0  0  0
   22.7078  -20.5373  -16.1826 C   0  0  0  0  0  0  0  0  0  0  0  0
   23.2734  -19.8839  -17.3746 C   0  0  0  0  0  0  0  0  0  0  0  0
   24.0248  -20.5402  -18.3563 C   0  0  0  0  0  0  0  0  0  0  0  0
   24.3665  -19.6620  -19.2996 N   0  0  0  0  0  0  0  0  0  0  0  0
   23.8736  -18.4415  -18.9886 C   0  0  0  0  0  0  0  0  0  0  0  0
   23.9327  -17.2017  -19.6045 C   0  0  0  0  0  0  0  0  0  0  0  0
   23.3380  -16.0969  -19.0662 C   0  0  0  0  0  0  0  0  0  0  0  0
   22.6573  -16.2130  -17.8747 C   0  0  0  0  0  0  0  0  0  0  0  0
   22.5961  -17.4408  -17.2607 C   0  0  0  0  0  0  0  0  0  0  0  0
   23.1846  -18.5760  -17.7770 C   0  0  0  0  0  0  0  0  0  0  0  0
   22.8016  -20.6553  -13.6651 C   0  0  0  0  0  0  0  0  0  0  0  0
   22.9700  -21.8310  -13.1955 O   0  0  0  0  0  0  0  0  0  0  0  0
   20.9711  -19.0836  -10.7466 C   0  0  0  0  0  0  0  0  0  0  0  0
   21.3817  -20.2653  -11.6251 C   0  0  2  0  0  0  0  0  0  0  0  0
   21.9649  -19.7962  -12.8626 N   0  0  0  0  0  0  0  0  0  0  0  0
   20.1988  -21.1374  -11.8669 C   0  0  0  0  0  0  0  0  0  0  0  0
   19.4807  -20.9491  -12.9099 O   0  0  0  0  0  0  0  0  0  0  0  0
   18.0890  -26.1933   -8.3210 N   0  0  0  0  0  0  0  0  0  0  0  0
   17.2218  -26.0680   -9.4329 C   0  0  0  0  0  0  0  0  0  0  0  0
   16.2715  -26.9208   -9.5367 O   0  0  0  0  0  0  0  0  0  0  0  0
   17.3695  -25.0136  -10.4412 C   0  0  0  0  0  0  0  0  0  0  0  0
   18.5133  -24.0905  -10.2926 C   0  0  0  0  0  0  0  0  0  0  0  0
   18.6188  -23.0342  -11.3325 C   0  0  2  0  0  0  0  0  0  0  0  0
   19.8028  -22.1858  -11.0090 N   0  0  0  0  0  0  0  0  0  0  0  0
   17.4649  -22.1889  -11.5030 C   0  0  0  0  0  0  0  0  0  0  0  0
   16.5447  -22.3251  -12.5251 O   0  0  0  0  0  0  0  0  0  0  0  0
   17.2513  -21.2363  -10.6815 O   0  0  0  0  0  0  0  0  0  0  0  0
  2  1  1  6
  2  3  1  0
  2 13  1  0
  3  4  1  0
  4 12  1  0
  5  4  2  0
  5  6  1  0
  6  7  1  0
  7  8  1  0
  8  9  2  0
 10  9  1  0
 11 10  2  0
 12  7  2  0
 12 11  1  0
 13 17  1  0
 13 14  2  0
 16 15  1  1
 17 16  1  0
 18 16  1  0
 18 26  1  0
 19 18  2  0
 21 20  1  0
 22 21  2  0
 23 21  1  0
 25 24  1  1
 24 23  1  0
 25 26  1  0
 27 25  1  0
 28 27  1  0
 29 27  2  0
M  END
$$$$
