QEW.pdb
     RDKit          3D

 33 34  0  0  1  0  0  0  0  0999 V2000
   16.9737  -11.8818    2.6113 N   0  0  0  0  0  0  0  0  0  0  0  0
   16.3835  -11.9241    3.9100 C   0  0  0  0  0  0  0  0  0  0  0  0
   15.1470  -12.2467    3.9508 O   0  0  0  0  0  0  0  0  0  0  0  0
   17.1375  -11.6174    5.1497 C   0  0  0  0  0  0  0  0  0  0  0  0
   17.8677  -12.8752    5.5673 C   0  0  0  0  0  0  0  0  0  0  0  0
   18.6400  -12.6671    6.8521 C   0  0  2  0  0  0  0  0  0  0  0  0
   19.7939  -11.8566    6.5203 N   0  0  0  0  0  0  0  0  0  0  0  0
   19.0476  -14.0191    7.3385 C   0  0  0  0  0  0  0  0  0  0  0  0
   20.1375  -14.5279    6.9767 O   0  0  0  0  0  0  0  0  0  0  0  0
   18.2348  -14.7832    8.2194 N   0  0  0  0  0  0  0  0  0  0  0  0
   18.1879  -16.2175    8.2789 C   0  0  1  0  0  0  0  0  0  0  0  0
   17.5375  -16.7463    9.5082 C   0  0  0  0  0  0  0  0  0  0  0  0
   17.4675  -18.1953    9.7228 C   0  0  0  0  0  0  0  0  0  0  0  0
   17.3665  -18.7282   11.0699 C   0  0  0  0  0  0  0  0  0  0  0  0
   18.2927  -18.4187   11.9315 O   0  0  0  0  0  0  0  0  0  0  0  0
   17.7580  -16.9114    7.0642 C   0  0  0  0  0  0  0  0  0  0  0  0
   16.9566  -16.3236    6.2563 O   0  0  0  0  0  0  0  0  0  0  0  0
   16.4004  -19.5399   11.5813 O   0  0  0  0  0  0  0  0  0  0  0  0
   18.1747  -18.2281    6.7088 N   0  0  0  0  0  0  0  0  0  0  0  0
   18.1536  -18.7049    5.3277 C   0  0  1  0  0  0  0  0  0  0  0  0
   18.8782  -17.7860    4.4148 C   0  0  0  0  0  0  0  0  0  0  0  0
   19.0858  -18.2549    3.0372 C   0  0  0  0  0  0  0  0  0  0  0  0
   18.0783  -18.7417    2.1953 C   0  0  0  0  0  0  0  0  0  0  0  0
   18.6313  -19.0269    1.0231 N   0  0  0  0  0  0  0  0  0  0  0  0
   19.9586  -18.7576    1.0347 C   0  0  0  0  0  0  0  0  0  0  0  0
   20.9517  -18.8871    0.0869 C   0  0  0  0  0  0  0  0  0  0  0  0
   22.2698  -18.5429    0.3557 C   0  0  0  0  0  0  0  0  0  0  0  0
   22.5566  -18.0615    1.6180 C   0  0  0  0  0  0  0  0  0  0  0  0
   21.5620  -17.9344    2.5587 C   0  0  0  0  0  0  0  0  0  0  0  0
   20.2427  -18.2752    2.2954 C   0  0  0  0  0  0  0  0  0  0  0  0
   18.5459  -20.1177    5.3297 C   0  0  0  0  0  0  0  0  0  0  0  0
   18.0831  -20.9438    4.3133 O   0  0  0  0  0  0  0  0  0  0  0  0
   19.2834  -20.6719    6.1875 O   0  0  0  0  0  0  0  0  0  0  0  0
  2  1  1  0
  2  3  2  0
  4  2  1  0
  5  4  1  0
  5  6  1  0
  6  7  1  6
  8  6  1  0
  8  9  2  0
 10  8  1  0
 11 10  1  0
 11 12  1  1
 13 12  1  0
 13 14  1  0
 14 15  2  0
 16 11  1  0
 17 16  2  0
 18 14  1  0
 19 16  1  0
 20 21  1  6
 20 19  1  0
 21 22  1  0
 22 30  1  0
 23 22  2  0
 23 24  1  0
 24 25  1  0
 25 26  1  0
 26 27  2  0
 28 27  1  0
 29 28  2  0
 30 25  2  0
 30 29  1  0
 31 20  1  0
 32 31  1  0
 33 31  2  0
M  END
$$$$
