QEW.pdb
     RDKit          3D

 33 34  0  0  1  0  0  0  0  0999 V2000
   22.5779  -19.8550  -15.0391 N   0  0  0  0  0  0  0  0  0  0  0  0
   21.5651  -20.0287  -16.0296 C   0  0  0  0  0  0  0  0  0  0  0  0
   21.2553  -21.2383  -16.3046 O   0  0  0  0  0  0  0  0  0  0  0  0
   20.8990  -18.8924  -16.7109 C   0  0  0  0  0  0  0  0  0  0  0  0
   21.4689  -17.6136  -16.1367 C   0  0  0  0  0  0  0  0  0  0  0  0
   20.3779  -16.7131  -15.5988 C   0  0  2  0  0  0  0  0  0  0  0  0
   19.1157  -17.2918  -16.0120 N   0  0  0  0  0  0  0  0  0  0  0  0
   20.5841  -15.3664  -16.2109 C   0  0  0  0  0  0  0  0  0  0  0  0
   21.6440  -14.7249  -16.0046 O   0  0  0  0  0  0  0  0  0  0  0  0
   19.6064  -14.7553  -17.0424 N   0  0  0  0  0  0  0  0  0  0  0  0
   19.6833  -13.4271  -17.5836 C   0  0  1  0  0  0  0  0  0  0  0  0
   18.9157  -13.2479  -18.8456 C   0  0  0  0  0  0  0  0  0  0  0  0
   18.1854  -14.3848  -19.4151 C   0  0  0  0  0  0  0  0  0  0  0  0
   16.7349  -14.4235  -19.3536 C   0  0  0  0  0  0  0  0  0  0  0  0
   16.1127  -15.3902  -19.9654 O   0  0  0  0  0  0  0  0  0  0  0  0
   19.4962  -12.3225  -16.6420 C   0  0  0  0  0  0  0  0  0  0  0  0
   18.4991  -12.3452  -15.8384 O   0  0  0  0  0  0  0  0  0  0  0  0
   15.8982  -13.5557  -18.7208 O   0  0  0  0  0  0  0  0  0  0  0  0
   20.3636  -11.1938  -16.5553 N   0  0  0  0  0  0  0  0  0  0  0  0
   20.1040  -10.0809  -15.6446 C   0  0  1  0  0  0  0  0  0  0  0  0
   21.3234   -9.6810  -14.8992 C   0  0  0  0  0  0  0  0  0  0  0  0
   21.2610   -8.4061  -14.1701 C   0  0  0  0  0  0  0  0  0  0  0  0
   20.6959   -8.2351  -12.9004 C   0  0  0  0  0  0  0  0  0  0  0  0
   20.8614   -6.9659  -12.5499 N   0  0  0  0  0  0  0  0  0  0  0  0
   21.5079   -6.2754  -13.5193 C   0  0  0  0  0  0  0  0  0  0  0  0
   21.8998   -4.9582  -13.6321 C   0  0  0  0  0  0  0  0  0  0  0  0
   22.5550   -4.4832  -14.7605 C   0  0  0  0  0  0  0  0  0  0  0  0
   22.8038   -5.3839  -15.7776 C   0  0  0  0  0  0  0  0  0  0  0  0
   22.4108   -6.6960  -15.6591 C   0  0  0  0  0  0  0  0  0  0  0  0
   21.7571   -7.1768  -14.5333 C   0  0  0  0  0  0  0  0  0  0  0  0
   19.3866   -9.0424  -16.3907 C   0  0  0  0  0  0  0  0  0  0  0  0
   18.4069   -8.3040  -15.7390 O   0  0  0  0  0  0  0  0  0  0  0  0
   19.5773   -8.7452  -17.5999 O   0  0  0  0  0  0  0  0  0  0  0  0
  2  1  1  0
  2  3  2  0
  4  2  1  0
  5  4  1  0
  5  6  1  0
  6  7  1  6
  8  6  1  0
  8  9  2  0
 10  8  1  0
 11 10  1  0
 11 12  1  6
 13 12  1  0
 13 14  1  0
 14 15  2  0
 16 11  1  0
 17 16  2  0
 18 14  1  0
 19 16  1  0
 20 21  1  6
 20 19  1  0
 21 22  1  0
 22 30  1  0
 23 22  2  0
 23 24  1  0
 24 25  1  0
 25 26  1  0
 26 27  2  0
 28 27  1  0
 29 28  2  0
 30 25  2  0
 30 29  1  0
 31 20  1  0
 32 31  1  0
 33 31  2  0
M  END
$$$$
