QEW.pdb
     RDKit          3D

 33 34  0  0  1  0  0  0  0  0999 V2000
   37.6821  -35.9330  -16.8335 N   0  0  0  0  0  0  0  0  0  0  0  0
   37.2714  -34.5702  -16.9364 C   0  0  0  0  0  0  0  0  0  0  0  0
   36.1773  -34.3630  -17.5649 O   0  0  0  0  0  0  0  0  0  0  0  0
   38.0483  -33.4471  -16.3583 C   0  0  0  0  0  0  0  0  0  0  0  0
   37.3190  -32.1636  -16.6909 C   0  0  0  0  0  0  0  0  0  0  0  0
   38.1701  -31.2475  -17.5433 C   0  0  2  0  0  0  0  0  0  0  0  0
   39.1766  -30.6787  -16.6704 N   0  0  0  0  0  0  0  0  0  0  0  0
   37.2635  -30.1922  -18.0868 C   0  0  0  0  0  0  0  0  0  0  0  0
   37.3847  -28.9955  -17.7250 O   0  0  0  0  0  0  0  0  0  0  0  0
   36.2359  -30.4866  -19.0238 N   0  0  0  0  0  0  0  0  0  0  0  0
   35.3731  -29.5220  -19.6468 C   0  0  1  0  0  0  0  0  0  0  0  0
   35.5996  -29.3704  -21.1095 C   0  0  0  0  0  0  0  0  0  0  0  0
   36.3364  -28.2055  -21.6100 C   0  0  0  0  0  0  0  0  0  0  0  0
   36.6030  -28.0675  -23.0309 C   0  0  0  0  0  0  0  0  0  0  0  0
   36.1805  -29.0002  -23.8357 O   0  0  0  0  0  0  0  0  0  0  0  0
   33.9541  -29.5859  -19.2943 C   0  0  0  0  0  0  0  0  0  0  0  0
   33.5604  -30.4460  -18.4308 O   0  0  0  0  0  0  0  0  0  0  0  0
   37.2598  -27.0592  -23.6677 O   0  0  0  0  0  0  0  0  0  0  0  0
   32.9539  -28.7409  -19.8594 N   0  0  0  0  0  0  0  0  0  0  0  0
   31.5479  -28.8326  -19.4720 C   0  0  1  0  0  0  0  0  0  0  0  0
   31.3736  -28.7471  -18.0005 C   0  0  0  0  0  0  0  0  0  0  0  0
   29.9912  -28.7028  -17.5027 C   0  0  0  0  0  0  0  0  0  0  0  0
   29.2702  -29.8097  -17.0384 C   0  0  0  0  0  0  0  0  0  0  0  0
   28.0816  -29.3795  -16.6342 N   0  0  0  0  0  0  0  0  0  0  0  0
   27.9669  -28.0406  -16.8040 C   0  0  0  0  0  0  0  0  0  0  0  0
   26.9493  -27.1454  -16.5508 C   0  0  0  0  0  0  0  0  0  0  0  0
   27.0785  -25.7914  -16.8305 C   0  0  0  0  0  0  0  0  0  0  0  0
   28.2735  -25.3664  -17.3771 C   0  0  0  0  0  0  0  0  0  0  0  0
   29.2847  -26.2638  -17.6271 C   0  0  0  0  0  0  0  0  0  0  0  0
   29.1618  -27.6177  -17.3482 C   0  0  0  0  0  0  0  0  0  0  0  0
   30.7857  -27.8989  -20.3068 C   0  0  0  0  0  0  0  0  0  0  0  0
   31.2835  -26.6175  -20.5063 O   0  0  0  0  0  0  0  0  0  0  0  0
   29.6918  -28.1523  -20.8779 O   0  0  0  0  0  0  0  0  0  0  0  0
  2  1  1  0
  2  3  2  0
  4  2  1  0
  5  4  1  0
  5  6  1  0
  6  7  1  1
  8  6  1  0
  8  9  2  0
 10  8  1  0
 11 10  1  0
 11 12  1  6
 13 12  1  0
 13 14  1  0
 14 15  2  0
 16 11  1  0
 17 16  2  0
 18 14  1  0
 19 16  1  0
 20 21  1  1
 20 19  1  0
 21 22  1  0
 22 30  1  0
 23 22  2  0
 23 24  1  0
 24 25  1  0
 25 26  1  0
 26 27  2  0
 28 27  1  0
 29 28  2  0
 30 25  2  0
 30 29  1  0
 31 20  1  0
 32 31  1  0
 33 31  2  0
M  END
$$$$
