QEW.pdb
     RDKit          3D

 33 34  0  0  1  0  0  0  0  0999 V2000
   19.6812  -16.4223  -15.1498 N   0  0  0  0  0  0  0  0  0  0  0  0
   18.7967  -17.5346  -15.2805 C   0  0  0  0  0  0  0  0  0  0  0  0
   17.8876  -17.4228  -16.1727 O   0  0  0  0  0  0  0  0  0  0  0  0
   18.9056  -18.7551  -14.4452 C   0  0  0  0  0  0  0  0  0  0  0  0
   19.9202  -18.4789  -13.3570 C   0  0  0  0  0  0  0  0  0  0  0  0
   21.3353  -18.5419  -13.8898 C   0  0  2  0  0  0  0  0  0  0  0  0
   21.2405  -18.9116  -15.2872 N   0  0  0  0  0  0  0  0  0  0  0  0
   22.0518  -19.5870  -13.0990 C   0  0  0  0  0  0  0  0  0  0  0  0
   21.7903  -19.7610  -11.8828 O   0  0  0  0  0  0  0  0  0  0  0  0
   23.0484  -20.4210  -13.6748 N   0  0  0  0  0  0  0  0  0  0  0  0
   23.9030  -21.3213  -12.9523 C   0  0  1  0  0  0  0  0  0  0  0  0
   24.3940  -22.4660  -13.7661 C   0  0  0  0  0  0  0  0  0  0  0  0
   25.2986  -23.4484  -13.1601 C   0  0  0  0  0  0  0  0  0  0  0  0
   25.8637  -24.5142  -13.9687 C   0  0  0  0  0  0  0  0  0  0  0  0
   25.4149  -25.7253  -13.8019 O   0  0  0  0  0  0  0  0  0  0  0  0
   24.9525  -20.7145  -12.1323 C   0  0  0  0  0  0  0  0  0  0  0  0
   25.7057  -19.8135  -12.6434 O   0  0  0  0  0  0  0  0  0  0  0  0
   26.8374  -24.4231  -14.9159 O   0  0  0  0  0  0  0  0  0  0  0  0
   25.2047  -21.0655  -10.7732 N   0  0  0  0  0  0  0  0  0  0  0  0
   26.2554  -20.4240   -9.9859 C   0  0  1  0  0  0  0  0  0  0  0  0
   25.8997  -20.3490   -8.5470 C   0  0  0  0  0  0  0  0  0  0  0  0
   26.8063  -19.5784   -7.6839 C   0  0  0  0  0  0  0  0  0  0  0  0
   27.1637  -18.2400   -7.8883 C   0  0  0  0  0  0  0  0  0  0  0  0
   27.9583  -17.8749   -6.8900 N   0  0  0  0  0  0  0  0  0  0  0  0
   28.1537  -18.8995   -6.0261 C   0  0  0  0  0  0  0  0  0  0  0  0
   28.8866  -19.0220   -4.8646 C   0  0  0  0  0  0  0  0  0  0  0  0
   28.9339  -20.2121   -4.1507 C   0  0  0  0  0  0  0  0  0  0  0  0
   28.2147  -21.2811   -4.6482 C   0  0  0  0  0  0  0  0  0  0  0  0
   27.4857  -21.1527   -5.8067 C   0  0  0  0  0  0  0  0  0  0  0  0
   27.4333  -19.9655   -6.5236 C   0  0  0  0  0  0  0  0  0  0  0  0
   27.5339  -21.0464  -10.3432 C   0  0  0  0  0  0  0  0  0  0  0  0
   28.6736  -20.2541  -10.3980 O   0  0  0  0  0  0  0  0  0  0  0  0
   27.7053  -22.2650  -10.6130 O   0  0  0  0  0  0  0  0  0  0  0  0
  2  1  1  0
  2  3  2  0
  4  2  1  0
  5  4  1  0
  5  6  1  0
  6  7  1  6
  8  6  1  0
  8  9  2  0
 10  8  1  0
 11 10  1  0
 11 12  1  6
 13 12  1  0
 13 14  1  0
 14 15  2  0
 16 11  1  0
 17 16  2  0
 18 14  1  0
 19 16  1  0
 20 21  1  1
 20 19  1  0
 21 22  1  0
 22 30  1  0
 23 22  2  0
 23 24  1  0
 24 25  1  0
 25 26  1  0
 26 27  2  0
 28 27  1  0
 29 28  2  0
 30 25  2  0
 30 29  1  0
 31 20  1  0
 32 31  1  0
 33 31  2  0
M  END
$$$$
