QEW.pdb
     RDKit          3D

 33 34  0  0  1  0  0  0  0  0999 V2000
   21.8011  -20.2502  -18.7175 N   0  0  0  0  0  0  0  0  0  0  0  0
   22.3269  -19.0626  -19.3091 C   0  0  0  0  0  0  0  0  0  0  0  0
   23.5772  -18.8592  -19.1357 O   0  0  0  0  0  0  0  0  0  0  0  0
   21.4944  -18.1088  -20.0814 C   0  0  0  0  0  0  0  0  0  0  0  0
   21.8605  -16.7107  -19.6330 C   0  0  0  0  0  0  0  0  0  0  0  0
   20.7792  -16.1067  -18.7632 C   0  0  2  0  0  0  0  0  0  0  0  0
   19.5177  -16.3549  -19.4306 N   0  0  0  0  0  0  0  0  0  0  0  0
   21.0644  -14.6437  -18.6676 C   0  0  0  0  0  0  0  0  0  0  0  0
   22.1165  -14.2310  -18.1195 O   0  0  0  0  0  0  0  0  0  0  0  0
   20.1731  -13.6637  -19.1830 N   0  0  0  0  0  0  0  0  0  0  0  0
   20.3970  -12.2450  -19.1746 C   0  0  1  0  0  0  0  0  0  0  0  0
   19.8581  -11.5452  -20.3720 C   0  0  0  0  0  0  0  0  0  0  0  0
   18.4100  -11.3586  -20.5094 C   0  0  0  0  0  0  0  0  0  0  0  0
   17.8827  -10.1105  -21.0319 C   0  0  0  0  0  0  0  0  0  0  0  0
   17.8542   -9.0713  -20.2475 O   0  0  0  0  0  0  0  0  0  0  0  0
   20.1050  -11.5416  -17.9249 C   0  0  0  0  0  0  0  0  0  0  0  0
   19.0535  -11.8504  -17.2622 O   0  0  0  0  0  0  0  0  0  0  0  0
   17.3930   -9.8622  -22.2778 O   0  0  0  0  0  0  0  0  0  0  0  0
   20.9254  -10.5097  -17.3809 N   0  0  0  0  0  0  0  0  0  0  0  0
   20.5516   -9.7720  -16.1762 C   0  0  1  0  0  0  0  0  0  0  0  0
   21.7409   -9.3559  -15.3919 C   0  0  0  0  0  0  0  0  0  0  0  0
   21.5448   -8.2630  -14.4285 C   0  0  0  0  0  0  0  0  0  0  0  0
   21.0184   -8.4147  -13.1399 C   0  0  0  0  0  0  0  0  0  0  0  0
   21.0322   -7.2246  -12.5529 N   0  0  0  0  0  0  0  0  0  0  0  0
   21.5402   -6.2811  -13.3814 C   0  0  0  0  0  0  0  0  0  0  0  0
   21.7517   -4.9256  -13.2437 C   0  0  0  0  0  0  0  0  0  0  0  0
   22.2895   -4.1604  -14.2701 C   0  0  0  0  0  0  0  0  0  0  0  0
   22.6088   -4.8092  -15.4467 C   0  0  0  0  0  0  0  0  0  0  0  0
   22.3957   -6.1611  -15.5779 C   0  0  0  0  0  0  0  0  0  0  0  0
   21.8601   -6.9313  -14.5552 C   0  0  0  0  0  0  0  0  0  0  0  0
   19.5879   -8.7357  -16.5597 C   0  0  0  0  0  0  0  0  0  0  0  0
   19.7228   -8.1192  -17.7972 O   0  0  0  0  0  0  0  0  0  0  0  0
   18.6211   -8.3383  -15.8567 O   0  0  0  0  0  0  0  0  0  0  0  0
  2  1  1  0
  2  3  2  0
  4  2  1  0
  5  4  1  0
  5  6  1  0
  6  7  1  6
  8  6  1  0
  8  9  2  0
 10  8  1  0
 11 10  1  0
 11 12  1  6
 13 12  1  0
 13 14  1  0
 14 15  2  0
 16 11  1  0
 17 16  2  0
 18 14  1  0
 19 16  1  0
 20 21  1  6
 20 19  1  0
 21 22  1  0
 22 30  1  0
 23 22  2  0
 23 24  1  0
 24 25  1  0
 25 26  1  0
 26 27  2  0
 28 27  1  0
 29 28  2  0
 30 25  2  0
 30 29  1  0
 31 20  1  0
 32 31  1  0
 33 31  2  0
M  END
$$$$
