QEW.pdb
     RDKit          3D

 33 34  0  0  1  0  0  0  0  0999 V2000
   32.1429  -25.0509  -15.1666 N   0  0  0  0  0  0  0  0  0  0  0  0
   32.3678  -24.8736  -16.5648 C   0  0  0  0  0  0  0  0  0  0  0  0
   33.0229  -25.8045  -17.1470 O   0  0  0  0  0  0  0  0  0  0  0  0
   31.8813  -23.6919  -17.3171 C   0  0  0  0  0  0  0  0  0  0  0  0
   31.1005  -22.8233  -16.3550 C   0  0  0  0  0  0  0  0  0  0  0  0
   29.7134  -23.3766  -16.1095 C   0  0  2  0  0  0  0  0  0  0  0  0
   29.1488  -23.6824  -17.4080 N   0  0  0  0  0  0  0  0  0  0  0  0
   28.9346  -22.3066  -15.4170 C   0  0  0  0  0  0  0  0  0  0  0  0
   29.5093  -21.4823  -14.6635 O   0  0  0  0  0  0  0  0  0  0  0  0
   27.5282  -22.1724  -15.5740 N   0  0  0  0  0  0  0  0  0  0  0  0
   26.6936  -21.2453  -14.8620 C   0  0  1  0  0  0  0  0  0  0  0  0
   25.5459  -20.7358  -15.6600 C   0  0  0  0  0  0  0  0  0  0  0  0
   24.5315  -19.8971  -15.0134 C   0  0  0  0  0  0  0  0  0  0  0  0
   23.3510  -19.4827  -15.7507 C   0  0  0  0  0  0  0  0  0  0  0  0
   22.5204  -18.6573  -15.1806 O   0  0  0  0  0  0  0  0  0  0  0  0
   26.3179  -21.6148  -13.4967 C   0  0  0  0  0  0  0  0  0  0  0  0
   25.6872  -22.7111  -13.2945 O   0  0  0  0  0  0  0  0  0  0  0  0
   22.9733  -19.8504  -17.0059 O   0  0  0  0  0  0  0  0  0  0  0  0
   26.6078  -20.8210  -12.3479 N   0  0  0  0  0  0  0  0  0  0  0  0
   26.1672  -21.2014  -11.0076 C   0  0  1  0  0  0  0  0  0  0  0  0
   27.2545  -21.0589  -10.0075 C   0  0  0  0  0  0  0  0  0  0  0  0
   26.8585  -20.6148   -8.6633 C   0  0  0  0  0  0  0  0  0  0  0  0
   25.5376  -20.5012   -8.2129 C   0  0  0  0  0  0  0  0  0  0  0  0
   25.5732  -20.1158   -6.9435 N   0  0  0  0  0  0  0  0  0  0  0  0
   26.8501  -19.9639   -6.5183 C   0  0  0  0  0  0  0  0  0  0  0  0
   27.3997  -19.5810   -5.3131 C   0  0  0  0  0  0  0  0  0  0  0  0
   28.7732  -19.4909   -5.1302 C   0  0  0  0  0  0  0  0  0  0  0  0
   29.5798  -19.8007   -6.2077 C   0  0  0  0  0  0  0  0  0  0  0  0
   29.0260  -20.1822   -7.4068 C   0  0  0  0  0  0  0  0  0  0  0  0
   27.6541  -20.2756   -7.5951 C   0  0  0  0  0  0  0  0  0  0  0  0
   24.8962  -20.5221  -10.7382 C   0  0  0  0  0  0  0  0  0  0  0  0
   23.9943  -21.1099   -9.8603 O   0  0  0  0  0  0  0  0  0  0  0  0
   24.5312  -19.4254  -11.2392 O   0  0  0  0  0  0  0  0  0  0  0  0
  2  1  1  0
  2  3  2  0
  4  2  1  0
  5  4  1  0
  5  6  1  0
  6  7  1  6
  8  6  1  0
  8  9  2  0
 10  8  1  0
 11 10  1  0
 11 12  1  6
 13 12  1  0
 13 14  1  0
 14 15  2  0
 16 11  1  0
 17 16  2  0
 18 14  1  0
 19 16  1  0
 20 21  1  1
 20 19  1  0
 21 22  1  0
 22 30  1  0
 23 22  2  0
 23 24  1  0
 24 25  1  0
 25 26  1  0
 26 27  2  0
 28 27  1  0
 29 28  2  0
 30 25  2  0
 30 29  1  0
 31 20  1  0
 32 31  1  0
 33 31  2  0
M  END
$$$$
