QEW.pdb
     RDKit          3D

 33 34  0  0  1  0  0  0  0  0999 V2000
   20.4676  -15.6017  -15.4853 N   0  0  0  0  0  0  0  0  0  0  0  0
   19.4894  -16.5302  -15.0187 C   0  0  0  0  0  0  0  0  0  0  0  0
   18.4525  -16.0203  -14.4713 O   0  0  0  0  0  0  0  0  0  0  0  0
   19.6437  -17.9993  -15.1497 C   0  0  0  0  0  0  0  0  0  0  0  0
   20.4072  -18.4915  -13.9395 C   0  0  0  0  0  0  0  0  0  0  0  0
   21.8989  -18.3016  -14.1104 C   0  0  2  0  0  0  0  0  0  0  0  0
   22.1784  -18.4342  -15.5255 N   0  0  0  0  0  0  0  0  0  0  0  0
   22.5678  -19.3790  -13.3213 C   0  0  0  0  0  0  0  0  0  0  0  0
   22.2718  -19.5670  -12.1152 O   0  0  0  0  0  0  0  0  0  0  0  0
   23.5562  -20.2292  -13.8877 N   0  0  0  0  0  0  0  0  0  0  0  0
   24.3948  -21.1371  -13.1560 C   0  0  1  0  0  0  0  0  0  0  0  0
   25.0628  -22.1570  -14.0090 C   0  0  0  0  0  0  0  0  0  0  0  0
   25.7750  -23.2728  -13.3780 C   0  0  0  0  0  0  0  0  0  0  0  0
   25.1029  -24.5440  -13.1744 C   0  0  0  0  0  0  0  0  0  0  0  0
   23.9019  -24.6957  -13.6546 O   0  0  0  0  0  0  0  0  0  0  0  0
   25.2953  -20.5458  -12.1653 C   0  0  0  0  0  0  0  0  0  0  0  0
   25.6542  -19.3231  -12.2946 O   0  0  0  0  0  0  0  0  0  0  0  0
   25.5698  -25.6458  -12.5250 O   0  0  0  0  0  0  0  0  0  0  0  0
   25.8169  -21.2514  -11.0412 N   0  0  0  0  0  0  0  0  0  0  0  0
   26.7241  -20.6253  -10.0819 C   0  0  1  0  0  0  0  0  0  0  0  0
   25.9991  -20.0962   -8.8999 C   0  0  0  0  0  0  0  0  0  0  0  0
   26.8136  -19.4388   -7.8678 C   0  0  0  0  0  0  0  0  0  0  0  0
   27.0396  -18.0595   -7.7825 C   0  0  0  0  0  0  0  0  0  0  0  0
   27.7808  -17.8355   -6.7047 N   0  0  0  0  0  0  0  0  0  0  0  0
   28.0650  -18.9935   -6.0622 C   0  0  0  0  0  0  0  0  0  0  0  0
   28.7908  -19.2838   -4.9264 C   0  0  0  0  0  0  0  0  0  0  0  0
   28.9460  -20.5859   -4.4695 C   0  0  0  0  0  0  0  0  0  0  0  0
   28.3427  -21.5918   -5.1986 C   0  0  0  0  0  0  0  0  0  0  0  0
   27.6200  -21.2960   -6.3302 C   0  0  0  0  0  0  0  0  0  0  0  0
   27.4602  -19.9966   -6.7908 C   0  0  0  0  0  0  0  0  0  0  0  0
   27.8395  -21.5469   -9.8445 C   0  0  0  0  0  0  0  0  0  0  0  0
   29.0688  -21.0271   -9.4593 O   0  0  0  0  0  0  0  0  0  0  0  0
   27.7908  -22.8005   -9.9586 O   0  0  0  0  0  0  0  0  0  0  0  0
  2  1  1  0
  2  3  2  0
  4  2  1  0
  5  4  1  0
  5  6  1  0
  6  7  1  6
  8  6  1  0
  8  9  2  0
 10  8  1  0
 11 10  1  0
 11 12  1  6
 13 12  1  0
 13 14  1  0
 14 15  2  0
 16 11  1  0
 17 16  2  0
 18 14  1  0
 19 16  1  0
 20 21  1  1
 20 19  1  0
 21 22  1  0
 22 30  1  0
 23 22  2  0
 23 24  1  0
 24 25  1  0
 25 26  1  0
 26 27  2  0
 28 27  1  0
 29 28  2  0
 30 25  2  0
 30 29  1  0
 31 20  1  0
 32 31  1  0
 33 31  2  0
M  END
$$$$
