QEW.pdb
     RDKit          3D

 33 34  0  0  1  0  0  0  0  0999 V2000
   24.0434  -19.8205  -14.8134 N   0  0  0  0  0  0  0  0  0  0  0  0
   24.8331  -18.8679  -15.5246 C   0  0  0  0  0  0  0  0  0  0  0  0
   26.0967  -18.9461  -15.3460 O   0  0  0  0  0  0  0  0  0  0  0  0
   24.2471  -17.8421  -16.4209 C   0  0  0  0  0  0  0  0  0  0  0  0
   22.7414  -17.9737  -16.3486 C   0  0  0  0  0  0  0  0  0  0  0  0
   22.2784  -19.3243  -16.8503 C   0  0  2  0  0  0  0  0  0  0  0  0
   22.5417  -19.3547  -18.2745 N   0  0  0  0  0  0  0  0  0  0  0  0
   20.8148  -19.4155  -16.5666 C   0  0  0  0  0  0  0  0  0  0  0  0
   19.9935  -18.7132  -17.2069 O   0  0  0  0  0  0  0  0  0  0  0  0
   20.2892  -20.2867  -15.5739 N   0  0  0  0  0  0  0  0  0  0  0  0
   18.9001  -20.4266  -15.2370 C   0  0  1  0  0  0  0  0  0  0  0  0
   18.5871  -21.6722  -14.4857 C   0  0  0  0  0  0  0  0  0  0  0  0
   17.2174  -21.9103  -14.0194 C   0  0  0  0  0  0  0  0  0  0  0  0
   16.8956  -23.1273  -13.2953 C   0  0  0  0  0  0  0  0  0  0  0  0
   15.6627  -23.3212  -12.9230 O   0  0  0  0  0  0  0  0  0  0  0  0
   18.2367  -19.2458  -14.6824 C   0  0  0  0  0  0  0  0  0  0  0  0
   18.7193  -18.6892  -13.6348 O   0  0  0  0  0  0  0  0  0  0  0  0
   17.7353  -24.1366  -12.9349 O   0  0  0  0  0  0  0  0  0  0  0  0
   17.0612  -18.6584  -15.2364 N   0  0  0  0  0  0  0  0  0  0  0  0
   16.4688  -17.4393  -14.6904 C   0  0  1  0  0  0  0  0  0  0  0  0
   16.8338  -16.2424  -15.4885 C   0  0  0  0  0  0  0  0  0  0  0  0
   15.7809  -15.6746  -16.3428 C   0  0  0  0  0  0  0  0  0  0  0  0
   14.5739  -15.1377  -15.8784 C   0  0  0  0  0  0  0  0  0  0  0  0
   13.8998  -14.6859  -16.9285 N   0  0  0  0  0  0  0  0  0  0  0  0
   14.5915  -14.8925  -18.0744 C   0  0  0  0  0  0  0  0  0  0  0  0
   14.3212  -14.6154  -19.3977 C   0  0  0  0  0  0  0  0  0  0  0  0
   15.2110  -14.9450  -20.4116 C   0  0  0  0  0  0  0  0  0  0  0  0
   16.3889  -15.5668  -20.0464 C   0  0  0  0  0  0  0  0  0  0  0  0
   16.6529  -15.8403  -18.7252 C   0  0  0  0  0  0  0  0  0  0  0  0
   15.7682  -15.5119  -17.7076 C   0  0  0  0  0  0  0  0  0  0  0  0
   15.0449  -17.6945  -14.4516 C   0  0  0  0  0  0  0  0  0  0  0  0
   14.3295  -16.8102  -13.6541 O   0  0  0  0  0  0  0  0  0  0  0  0
   14.3874  -18.6651  -14.9124 O   0  0  0  0  0  0  0  0  0  0  0  0
  2  1  1  0
  2  3  2  0
  4  2  1  0
  5  4  1  0
  5  6  1  0
  6  7  1  6
  8  6  1  0
  8  9  2  0
 10  8  1  0
 11 10  1  0
 11 12  1  1
 13 12  1  0
 13 14  1  0
 14 15  2  0
 16 11  1  0
 17 16  2  0
 18 14  1  0
 19 16  1  0
 20 21  1  6
 20 19  1  0
 21 22  1  0
 22 30  1  0
 23 22  2  0
 23 24  1  0
 24 25  1  0
 25 26  1  0
 26 27  2  0
 28 27  1  0
 29 28  2  0
 30 25  2  0
 30 29  1  0
 31 20  1  0
 32 31  1  0
 33 31  2  0
M  END
$$$$
