QEW.pdb
     RDKit          3D

 33 34  0  0  1  0  0  0  0  0999 V2000
   28.1799  -25.8725  -19.7875 N   0  0  0  0  0  0  0  0  0  0  0  0
   27.9249  -26.1540  -18.4118 C   0  0  0  0  0  0  0  0  0  0  0  0
   26.7001  -26.3457  -18.0992 O   0  0  0  0  0  0  0  0  0  0  0  0
   28.9975  -26.2252  -17.3902 C   0  0  0  0  0  0  0  0  0  0  0  0
   28.8210  -25.0488  -16.4549 C   0  0  0  0  0  0  0  0  0  0  0  0
   28.7665  -23.7406  -17.2139 C   0  0  2  0  0  0  0  0  0  0  0  0
   30.1321  -23.3965  -17.5538 N   0  0  0  0  0  0  0  0  0  0  0  0
   28.1643  -22.7290  -16.2948 C   0  0  0  0  0  0  0  0  0  0  0  0
   28.8288  -22.2559  -15.3397 O   0  0  0  0  0  0  0  0  0  0  0  0
   26.8314  -22.2612  -16.4533 N   0  0  0  0  0  0  0  0  0  0  0  0
   26.2108  -21.2284  -15.6716 C   0  0  1  0  0  0  0  0  0  0  0  0
   25.7156  -20.0805  -16.4785 C   0  0  0  0  0  0  0  0  0  0  0  0
   24.9649  -19.0056  -15.8216 C   0  0  0  0  0  0  0  0  0  0  0  0
   24.4158  -17.9149  -16.6076 C   0  0  0  0  0  0  0  0  0  0  0  0
   23.7690  -16.9682  -15.9899 O   0  0  0  0  0  0  0  0  0  0  0  0
   25.2547  -21.6616  -14.6518 C   0  0  0  0  0  0  0  0  0  0  0  0
   24.0215  -21.3362  -14.7695 O   0  0  0  0  0  0  0  0  0  0  0  0
   24.4839  -17.7342  -17.9553 O   0  0  0  0  0  0  0  0  0  0  0  0
   25.6068  -22.4359  -13.5071 N   0  0  0  0  0  0  0  0  0  0  0  0
   25.4025  -21.9483  -12.1449 C   0  0  1  0  0  0  0  0  0  0  0  0
   26.6848  -21.5946  -11.4865 C   0  0  0  0  0  0  0  0  0  0  0  0
   26.5920  -20.8785  -10.2061 C   0  0  0  0  0  0  0  0  0  0  0  0
   25.4320  -20.2721   -9.7086 C   0  0  0  0  0  0  0  0  0  0  0  0
   25.7184  -19.7652   -8.5161 N   0  0  0  0  0  0  0  0  0  0  0  0
   27.0113  -19.9992   -8.1873 C   0  0  0  0  0  0  0  0  0  0  0  0
   27.7737  -19.6754   -7.0851 C   0  0  0  0  0  0  0  0  0  0  0  0
   29.1130  -20.0299   -6.9912 C   0  0  0  0  0  0  0  0  0  0  0  0
   29.6624  -20.7252   -8.0506 C   0  0  0  0  0  0  0  0  0  0  0  0
   28.8971  -21.0455   -9.1468 C   0  0  0  0  0  0  0  0  0  0  0  0
   27.5578  -20.6952   -9.2456 C   0  0  0  0  0  0  0  0  0  0  0  0
   24.3481  -20.9302  -12.1809 C   0  0  0  0  0  0  0  0  0  0  0  0
   24.5629  -19.7676  -12.9103 O   0  0  0  0  0  0  0  0  0  0  0  0
   23.2338  -21.0088  -11.5987 O   0  0  0  0  0  0  0  0  0  0  0  0
  2  1  1  0
  2  3  2  0
  4  2  1  0
  5  4  1  0
  5  6  1  0
  6  7  1  1
  8  6  1  0
  8  9  2  0
 10  8  1  0
 11 10  1  0
 11 12  1  6
 13 12  1  0
 13 14  1  0
 14 15  2  0
 16 11  1  0
 17 16  2  0
 18 14  1  0
 19 16  1  0
 20 21  1  6
 20 19  1  0
 21 22  1  0
 22 30  1  0
 23 22  2  0
 23 24  1  0
 24 25  1  0
 25 26  1  0
 26 27  2  0
 28 27  1  0
 29 28  2  0
 30 25  2  0
 30 29  1  0
 31 20  1  0
 32 31  1  0
 33 31  2  0
M  END
$$$$
