QEW.pdb
     RDKit          3D

 33 34  0  0  1  0  0  0  0  0999 V2000
   26.9242  -19.5048  -18.6668 N   0  0  0  0  0  0  0  0  0  0  0  0
   26.9696  -20.9235  -18.5190 C   0  0  0  0  0  0  0  0  0  0  0  0
   28.1145  -21.4661  -18.6908 O   0  0  0  0  0  0  0  0  0  0  0  0
   25.7764  -21.7390  -18.1868 C   0  0  0  0  0  0  0  0  0  0  0  0
   24.5711  -20.8245  -18.2166 C   0  0  0  0  0  0  0  0  0  0  0  0
   24.3928  -20.0996  -16.9002 C   0  0  2  0  0  0  0  0  0  0  0  0
   24.8866  -20.9842  -15.8648 N   0  0  0  0  0  0  0  0  0  0  0  0
   22.9306  -19.8401  -16.7410 C   0  0  0  0  0  0  0  0  0  0  0  0
   22.2576  -19.3655  -17.6894 O   0  0  0  0  0  0  0  0  0  0  0  0
   22.2413  -20.1125  -15.5280 N   0  0  0  0  0  0  0  0  0  0  0  0
   20.8509  -19.8507  -15.2811 C   0  0  1  0  0  0  0  0  0  0  0  0
   20.2812  -20.6426  -14.1577 C   0  0  0  0  0  0  0  0  0  0  0  0
   18.8401  -20.5870  -13.8919 C   0  0  0  0  0  0  0  0  0  0  0  0
   18.2915  -21.2322  -12.7122 C   0  0  0  0  0  0  0  0  0  0  0  0
   19.1163  -21.7382  -11.8405 O   0  0  0  0  0  0  0  0  0  0  0  0
   20.4425  -18.4456  -15.2514 C   0  0  0  0  0  0  0  0  0  0  0  0
   21.1617  -17.5966  -14.6171 O   0  0  0  0  0  0  0  0  0  0  0  0
   16.9821  -21.3901  -12.3741 O   0  0  0  0  0  0  0  0  0  0  0  0
   19.2711  -17.9426  -15.8906 N   0  0  0  0  0  0  0  0  0  0  0  0
   18.9475  -16.5178  -15.9127 C   0  0  1  0  0  0  0  0  0  0  0  0
   20.0710  -15.7042  -16.4405 C   0  0  0  0  0  0  0  0  0  0  0  0
   20.1731  -15.5926  -17.9026 C   0  0  0  0  0  0  0  0  0  0  0  0
   19.2812  -14.8843  -18.7172 C   0  0  0  0  0  0  0  0  0  0  0  0
   19.7161  -14.9724  -19.9679 N   0  0  0  0  0  0  0  0  0  0  0  0
   20.8538  -15.7041  -20.0354 C   0  0  0  0  0  0  0  0  0  0  0  0
   21.6678  -16.0804  -21.0827 C   0  0  0  0  0  0  0  0  0  0  0  0
   22.7995  -16.8609  -20.8868 C   0  0  0  0  0  0  0  0  0  0  0  0
   23.0857  -17.2525  -19.5937 C   0  0  0  0  0  0  0  0  0  0  0  0
   22.2703  -16.8739  -18.5535 C   0  0  0  0  0  0  0  0  0  0  0  0
   21.1390  -16.0927  -18.7429 C   0  0  0  0  0  0  0  0  0  0  0  0
   17.6334  -16.3609  -16.5438 C   0  0  0  0  0  0  0  0  0  0  0  0
   17.0424  -15.1039  -16.5591 O   0  0  0  0  0  0  0  0  0  0  0  0
   16.9685  -17.2811  -17.0897 O   0  0  0  0  0  0  0  0  0  0  0  0
  2  1  1  0
  2  3  2  0
  4  2  1  0
  5  4  1  0
  5  6  1  0
  6  7  1  1
  8  6  1  0
  8  9  2  0
 10  8  1  0
 11 10  1  0
 11 12  1  1
 13 12  1  0
 13 14  1  0
 14 15  2  0
 16 11  1  0
 17 16  2  0
 18 14  1  0
 19 16  1  0
 20 21  1  6
 20 19  1  0
 21 22  1  0
 22 30  1  0
 23 22  2  0
 23 24  1  0
 24 25  1  0
 25 26  1  0
 26 27  2  0
 28 27  1  0
 29 28  2  0
 30 25  2  0
 30 29  1  0
 31 20  1  0
 32 31  1  0
 33 31  2  0
M  END
$$$$
