QEW.pdb
     RDKit          3D

 33 34  0  0  1  0  0  0  0  0999 V2000
   31.3719  -17.4667  -18.3482 N   0  0  0  0  0  0  0  0  0  0  0  0
   30.2361  -16.6283  -18.5575 C   0  0  0  0  0  0  0  0  0  0  0  0
   30.2401  -15.9424  -19.6365 O   0  0  0  0  0  0  0  0  0  0  0  0
   29.1090  -16.5417  -17.5976 C   0  0  0  0  0  0  0  0  0  0  0  0
   29.5606  -17.1741  -16.2992 C   0  0  0  0  0  0  0  0  0  0  0  0
   29.4556  -18.6829  -16.3517 C   0  0  2  0  0  0  0  0  0  0  0  0
   29.4762  -19.0556  -17.7514 N   0  0  0  0  0  0  0  0  0  0  0  0
   28.1577  -19.0512  -15.7107 C   0  0  0  0  0  0  0  0  0  0  0  0
   27.7503  -18.4394  -14.6922 O   0  0  0  0  0  0  0  0  0  0  0  0
   27.3347  -20.0954  -16.2137 N   0  0  0  0  0  0  0  0  0  0  0  0
   26.0980  -20.5370  -15.6321 C   0  0  1  0  0  0  0  0  0  0  0  0
   25.1875  -21.2104  -16.5971 C   0  0  0  0  0  0  0  0  0  0  0  0
   23.8390  -21.5970  -16.1697 C   0  0  0  0  0  0  0  0  0  0  0  0
   22.9687  -22.3259  -17.0753 C   0  0  0  0  0  0  0  0  0  0  0  0
   21.7606  -22.6109  -16.6813 O   0  0  0  0  0  0  0  0  0  0  0  0
   26.1884  -21.2383  -14.3507 C   0  0  0  0  0  0  0  0  0  0  0  0
   27.2082  -21.9746  -14.1092 O   0  0  0  0  0  0  0  0  0  0  0  0
   23.2485  -22.7728  -18.3306 O   0  0  0  0  0  0  0  0  0  0  0  0
   25.1969  -21.1615  -13.3286 N   0  0  0  0  0  0  0  0  0  0  0  0
   25.5359  -21.2293  -11.9088 C   0  0  1  0  0  0  0  0  0  0  0  0
   26.7108  -20.3839  -11.5804 C   0  0  0  0  0  0  0  0  0  0  0  0
   26.9775  -20.1529  -10.1534 C   0  0  0  0  0  0  0  0  0  0  0  0
   26.1687  -19.3936   -9.2990 C   0  0  0  0  0  0  0  0  0  0  0  0
   26.7003  -19.4457   -8.0841 N   0  0  0  0  0  0  0  0  0  0  0  0
   27.8251  -20.2002   -8.0788 C   0  0  0  0  0  0  0  0  0  0  0  0
   28.7208  -20.5442   -7.0886 C   0  0  0  0  0  0  0  0  0  0  0  0
   29.8279  -21.3415   -7.3473 C   0  0  0  0  0  0  0  0  0  0  0  0
   30.0043  -21.7832   -8.6439 C   0  0  0  0  0  0  0  0  0  0  0  0
   29.1076  -21.4371   -9.6269 C   0  0  0  0  0  0  0  0  0  0  0  0
   27.9986  -20.6419   -9.3740 C   0  0  0  0  0  0  0  0  0  0  0  0
   24.3060  -21.0207  -11.1384 C   0  0  0  0  0  0  0  0  0  0  0  0
   24.2319  -21.5210   -9.8446 O   0  0  0  0  0  0  0  0  0  0  0  0
   23.2800  -20.4144  -11.5466 O   0  0  0  0  0  0  0  0  0  0  0  0
  2  1  1  0
  2  3  2  0
  4  2  1  0
  5  4  1  0
  5  6  1  0
  6  7  1  6
  8  6  1  0
  8  9  2  0
 10  8  1  0
 11 10  1  0
 11 12  1  6
 13 12  1  0
 13 14  1  0
 14 15  2  0
 16 11  1  0
 17 16  2  0
 18 14  1  0
 19 16  1  0
 20 21  1  1
 20 19  1  0
 21 22  1  0
 22 30  1  0
 23 22  2  0
 23 24  1  0
 24 25  1  0
 25 26  1  0
 26 27  2  0
 28 27  1  0
 29 28  2  0
 30 25  2  0
 30 29  1  0
 31 20  1  0
 32 31  1  0
 33 31  2  0
M  END
$$$$
