KGC.pdb
     RDKit          3D

 20 19  0  0  1  0  0  0  0  0999 V2000
   26.2945  -22.3695  -11.8172 N   0  0  0  0  0  0  0  0  0  0  0  0
   25.7884  -21.3343  -12.6614 C   0  0  1  0  0  0  0  0  0  0  0  0
   25.0176  -20.2607  -11.9752 C   0  0  0  0  0  0  0  0  0  0  0  0
   23.6826  -20.6311  -11.4456 C   0  0  0  0  0  0  0  0  0  0  0  0
   22.5689  -20.7190  -12.4300 C   0  0  0  0  0  0  0  0  0  0  0  0
   21.3277  -21.1627  -11.6422 C   0  0  0  0  0  0  0  0  0  0  0  0
   20.2031  -21.3525  -12.5514 N   0  0  0  0  0  0  0  0  0  0  0  0
   26.9356  -20.6925  -13.3754 C   0  0  0  0  0  0  0  0  0  0  0  0
   27.9144  -21.3921  -13.6998 O   0  0  0  0  0  0  0  0  0  0  0  0
   26.9416  -19.2918  -13.6985 N   0  0  0  0  0  0  0  0  0  0  0  0
   27.8608  -18.6821  -14.5966 C   0  0  0  0  0  0  0  0  0  0  0  0
   27.5612  -18.9230  -16.0231 C   0  0  0  0  0  0  0  0  0  0  0  0
   28.2363  -18.3830  -16.9485 O   0  0  0  0  0  0  0  0  0  0  0  0
   26.5190  -19.7624  -16.4266 N   0  0  0  0  0  0  0  0  0  0  0  0
   26.2245  -20.0693  -17.8178 C   0  0  1  0  0  0  0  0  0  0  0  0
   26.3700  -21.5909  -17.9439 C   0  0  0  0  0  0  0  0  0  0  0  0
   25.9483  -22.1435  -19.6060 S   0  0  0  0  0  0  0  0  0  0  0  0
   24.9032  -19.6248  -18.2351 C   0  0  0  0  0  0  0  0  0  0  0  0
   24.6906  -19.2183  -19.5325 O   0  0  0  0  0  0  0  0  0  0  0  0
   23.9554  -19.6077  -17.4264 O   0  0  0  0  0  0  0  0  0  0  0  0
  2  1  1  1
  3  2  1  0
  4  3  1  0
  5  4  1  0
  6  5  1  0
  7  6  1  0
  8  9  2  0
  8  2  1  0
 10  8  1  0
 11 12  1  0
 11 10  1  0
 12 14  1  0
 13 12  2  0
 14 15  1  0
 15 18  1  0
 15 16  1  1
 16 17  1  0
 18 20  2  0
 18 19  1  0
M  END
$$$$
