KGC.pdb
     RDKit          3D

 20 19  0  0  1  0  0  0  0  0999 V2000
   25.8982  -24.4717  -14.6027 N   0  0  0  0  0  0  0  0  0  0  0  0
   26.5300  -23.4056  -15.3130 C   0  0  1  0  0  0  0  0  0  0  0  0
   26.2694  -23.3628  -16.7786 C   0  0  0  0  0  0  0  0  0  0  0  0
   26.0762  -24.6655  -17.4610 C   0  0  0  0  0  0  0  0  0  0  0  0
   27.2740  -25.5401  -17.5932 C   0  0  0  0  0  0  0  0  0  0  0  0
   26.8146  -26.7926  -18.3537 C   0  0  0  0  0  0  0  0  0  0  0  0
   27.8980  -27.7677  -18.4064 N   0  0  0  0  0  0  0  0  0  0  0  0
   26.0798  -22.1047  -14.7275 C   0  0  0  0  0  0  0  0  0  0  0  0
   26.2777  -21.0530  -15.3659 O   0  0  0  0  0  0  0  0  0  0  0  0
   25.4249  -22.0325  -13.4500 N   0  0  0  0  0  0  0  0  0  0  0  0
   24.9263  -20.8316  -12.8734 C   0  0  0  0  0  0  0  0  0  0  0  0
   23.4535  -20.7780  -12.7690 C   0  0  0  0  0  0  0  0  0  0  0  0
   22.7019  -21.1559  -13.7155 O   0  0  0  0  0  0  0  0  0  0  0  0
   22.8120  -20.3108  -11.6185 N   0  0  0  0  0  0  0  0  0  0  0  0
   21.3774  -20.4115  -11.3988 C   0  0  1  0  0  0  0  0  0  0  0  0
   21.1900  -20.3742   -9.8771 C   0  0  0  0  0  0  0  0  0  0  0  0
   22.5415  -21.2216   -9.0398 S   0  0  0  0  0  0  0  0  0  0  0  0
   20.6219  -19.3545  -12.0540 C   0  0  0  0  0  0  0  0  0  0  0  0
   19.2578  -19.4681  -12.1952 O   0  0  0  0  0  0  0  0  0  0  0  0
   21.1992  -18.3406  -12.4917 O   0  0  0  0  0  0  0  0  0  0  0  0
  2  1  1  1
  3  2  1  0
  4  3  1  0
  5  4  1  0
  6  5  1  0
  7  6  1  0
  8  9  2  0
  8  2  1  0
 10  8  1  0
 11 12  1  0
 11 10  1  0
 12 14  1  0
 13 12  2  0
 14 15  1  0
 15 18  1  0
 15 16  1  1
 16 17  1  0
 18 20  2  0
 18 19  1  0
M  END
$$$$
