KGC.pdb
     RDKit          3D

 20 19  0  0  1  0  0  0  0  0999 V2000
   27.4539  -23.3675  -16.4493 N   0  0  0  0  0  0  0  0  0  0  0  0
   28.3622  -22.3496  -16.8724 C   0  0  1  0  0  0  0  0  0  0  0  0
   28.3596  -22.0477  -18.3307 C   0  0  0  0  0  0  0  0  0  0  0  0
   28.5142  -23.2000  -19.2517 C   0  0  0  0  0  0  0  0  0  0  0  0
   29.8532  -23.8497  -19.2978 C   0  0  0  0  0  0  0  0  0  0  0  0
   29.7411  -25.0032  -20.3052 C   0  0  0  0  0  0  0  0  0  0  0  0
   31.0100  -25.7179  -20.3862 N   0  0  0  0  0  0  0  0  0  0  0  0
   28.0421  -21.0850  -16.1403 C   0  0  0  0  0  0  0  0  0  0  0  0
   28.5075  -20.0081  -16.5604 O   0  0  0  0  0  0  0  0  0  0  0  0
   27.2128  -21.0758  -14.9662 N   0  0  0  0  0  0  0  0  0  0  0  0
   26.9460  -19.9179  -14.1844 C   0  0  0  0  0  0  0  0  0  0  0  0
   25.6835  -19.2331  -14.5309 C   0  0  0  0  0  0  0  0  0  0  0  0
   25.2104  -18.3012  -13.8159 O   0  0  0  0  0  0  0  0  0  0  0  0
   24.9466  -19.5754  -15.6681 N   0  0  0  0  0  0  0  0  0  0  0  0
   23.6754  -18.9612  -16.0193 C   0  0  1  0  0  0  0  0  0  0  0  0
   23.8127  -18.5410  -17.4880 C   0  0  0  0  0  0  0  0  0  0  0  0
   22.2560  -17.8915  -18.1211 S   0  0  0  0  0  0  0  0  0  0  0  0
   22.5377  -19.8469  -15.8235 C   0  0  0  0  0  0  0  0  0  0  0  0
   21.3303  -19.3359  -15.4056 O   0  0  0  0  0  0  0  0  0  0  0  0
   22.6442  -21.0710  -16.0311 O   0  0  0  0  0  0  0  0  0  0  0  0
  2  1  1  6
  3  2  1  0
  4  3  1  0
  5  4  1  0
  6  5  1  0
  7  6  1  0
  8  9  2  0
  8  2  1  0
 10  8  1  0
 11 12  1  0
 11 10  1  0
 12 14  1  0
 13 12  2  0
 14 15  1  0
 15 18  1  0
 15 16  1  6
 16 17  1  0
 18 20  2  0
 18 19  1  0
M  END
$$$$
