KGC.pdb
     RDKit          3D

 20 19  0  0  1  0  0  0  0  0999 V2000
   18.3439  -12.5043  -17.2974 N   0  0  0  0  0  0  0  0  0  0  0  0
   17.8481  -11.6417  -16.2726 C   0  0  1  0  0  0  0  0  0  0  0  0
   16.9342  -12.2751  -15.2819 C   0  0  0  0  0  0  0  0  0  0  0  0
   15.7978  -13.0574  -15.8263 C   0  0  0  0  0  0  0  0  0  0  0  0
   14.7182  -13.4298  -14.8708 C   0  0  0  0  0  0  0  0  0  0  0  0
   13.5813  -14.0274  -15.7124 C   0  0  0  0  0  0  0  0  0  0  0  0
   12.4608  -14.3873  -14.8508 N   0  0  0  0  0  0  0  0  0  0  0  0
   19.0091  -11.0662  -15.5252 C   0  0  0  0  0  0  0  0  0  0  0  0
   20.0426  -11.7497  -15.3932 O   0  0  0  0  0  0  0  0  0  0  0  0
   18.9674   -9.7473  -14.9551 N   0  0  0  0  0  0  0  0  0  0  0  0
   20.0494   -9.1432  -14.2569 C   0  0  0  0  0  0  0  0  0  0  0  0
   19.7363   -7.8149  -13.6909 C   0  0  0  0  0  0  0  0  0  0  0  0
   18.6881   -7.1812  -14.0126 O   0  0  0  0  0  0  0  0  0  0  0  0
   20.5787   -7.1891  -12.7678 N   0  0  0  0  0  0  0  0  0  0  0  0
   20.2777   -5.9122  -12.1390 C   0  0  1  0  0  0  0  0  0  0  0  0
   20.6926   -6.0680  -10.6707 C   0  0  0  0  0  0  0  0  0  0  0  0
   19.7238   -7.3524   -9.8596 S   0  0  0  0  0  0  0  0  0  0  0  0
   20.9574   -4.7897  -12.7676 C   0  0  0  0  0  0  0  0  0  0  0  0
   20.4420   -3.5190  -12.6515 O   0  0  0  0  0  0  0  0  0  0  0  0
   22.0078   -4.9662  -13.4143 O   0  0  0  0  0  0  0  0  0  0  0  0
  2  1  1  6
  3  2  1  0
  4  3  1  0
  5  4  1  0
  6  5  1  0
  7  6  1  0
  8  9  2  0
  8  2  1  0
 10  8  1  0
 11 12  1  0
 11 10  1  0
 12 14  1  0
 13 12  2  0
 14 15  1  0
 15 18  1  0
 15 16  1  1
 16 17  1  0
 18 20  2  0
 18 19  1  0
M  END
$$$$
