KGC.pdb
     RDKit          3D

 20 19  0  0  1  0  0  0  0  0999 V2000
   23.5709  -15.6653  -18.3143 N   0  0  0  0  0  0  0  0  0  0  0  0
   22.4547  -14.8877  -17.8787 C   0  0  1  0  0  0  0  0  0  0  0  0
   21.6297  -15.4925  -16.7963 C   0  0  0  0  0  0  0  0  0  0  0  0
   20.8242  -16.6844  -17.1572 C   0  0  0  0  0  0  0  0  0  0  0  0
   20.3280  -16.7620  -18.5591 C   0  0  0  0  0  0  0  0  0  0  0  0
   19.5283  -18.0687  -18.6643 C   0  0  0  0  0  0  0  0  0  0  0  0
   18.9567  -18.1958  -20.0002 N   0  0  0  0  0  0  0  0  0  0  0  0
   22.9520  -13.5633  -17.3925 C   0  0  0  0  0  0  0  0  0  0  0  0
   23.8757  -13.5334  -16.5566 O   0  0  0  0  0  0  0  0  0  0  0  0
   22.3955  -12.3239  -17.8619 N   0  0  0  0  0  0  0  0  0  0  0  0
   22.8559  -11.0385  -17.4631 C   0  0  0  0  0  0  0  0  0  0  0  0
   21.7797  -10.0451  -17.2690 C   0  0  0  0  0  0  0  0  0  0  0  0
   20.7880   -9.9718  -18.0532 O   0  0  0  0  0  0  0  0  0  0  0  0
   21.7975   -9.1360  -16.2075 N   0  0  0  0  0  0  0  0  0  0  0  0
   20.7749   -8.1228  -15.9974 C   0  0  1  0  0  0  0  0  0  0  0  0
   19.6847   -8.8048  -15.1615 C   0  0  0  0  0  0  0  0  0  0  0  0
   20.3545   -9.4191  -13.6059 S   0  0  0  0  0  0  0  0  0  0  0  0
   21.2797   -6.9271  -15.3395 C   0  0  0  0  0  0  0  0  0  0  0  0
   22.5764   -6.8884  -14.8803 O   0  0  0  0  0  0  0  0  0  0  0  0
   20.5472   -5.9309  -15.1859 O   0  0  0  0  0  0  0  0  0  0  0  0
  2  1  1  1
  3  2  1  0
  4  3  1  0
  5  4  1  0
  6  5  1  0
  7  6  1  0
  8  9  2  0
  8  2  1  0
 10  8  1  0
 11 12  1  0
 11 10  1  0
 12 14  1  0
 13 12  2  0
 14 15  1  0
 15 18  1  0
 15 16  1  1
 16 17  1  0
 18 20  2  0
 18 19  1  0
M  END
$$$$
