KGC.pdb
     RDKit          3D

 20 19  0  0  1  0  0  0  0  0999 V2000
   26.7690  -21.6508  -16.1115 N   0  0  0  0  0  0  0  0  0  0  0  0
   25.6040  -21.5523  -16.9321 C   0  0  1  0  0  0  0  0  0  0  0  0
   25.3409  -22.7170  -17.8220 C   0  0  0  0  0  0  0  0  0  0  0  0
   26.4246  -23.7223  -17.9444 C   0  0  0  0  0  0  0  0  0  0  0  0
   26.5374  -24.7268  -16.8510 C   0  0  0  0  0  0  0  0  0  0  0  0
   27.6416  -25.7065  -17.2743 C   0  0  0  0  0  0  0  0  0  0  0  0
   27.8955  -26.6629  -16.2028 N   0  0  0  0  0  0  0  0  0  0  0  0
   24.4095  -21.3675  -16.0509 C   0  0  0  0  0  0  0  0  0  0  0  0
   23.4484  -22.1529  -16.1616 O   0  0  0  0  0  0  0  0  0  0  0  0
   24.3381  -20.3104  -15.0795 N   0  0  0  0  0  0  0  0  0  0  0  0
   23.1993  -20.0434  -14.2702 C   0  0  0  0  0  0  0  0  0  0  0  0
   21.9310  -19.9549  -15.0228 C   0  0  0  0  0  0  0  0  0  0  0  0
   21.7846  -19.1566  -15.9948 O   0  0  0  0  0  0  0  0  0  0  0  0
   20.8269  -20.7503  -14.7038 N   0  0  0  0  0  0  0  0  0  0  0  0
   19.5769  -20.7292  -15.4479 C   0  0  1  0  0  0  0  0  0  0  0  0
   18.8213  -21.9935  -15.0202 C   0  0  0  0  0  0  0  0  0  0  0  0
   18.6725  -22.0802  -13.2269 S   0  0  0  0  0  0  0  0  0  0  0  0
   18.7874  -19.5307  -15.2078 C   0  0  0  0  0  0  0  0  0  0  0  0
   17.6531  -19.2924  -15.9495 O   0  0  0  0  0  0  0  0  0  0  0  0
   19.1284  -18.7119  -14.3326 O   0  0  0  0  0  0  0  0  0  0  0  0
  2  1  1  1
  3  2  1  0
  4  3  1  0
  5  4  1  0
  6  5  1  0
  7  6  1  0
  8  9  2  0
  8  2  1  0
 10  8  1  0
 11 12  1  0
 11 10  1  0
 12 14  1  0
 13 12  2  0
 14 15  1  0
 15 18  1  0
 15 16  1  1
 16 17  1  0
 18 20  2  0
 18 19  1  0
M  END
$$$$
