KGC.pdb
     RDKit          3D

 20 19  0  0  1  0  0  0  0  0999 V2000
   16.7897  -11.8056  -14.9459 N   0  0  0  0  0  0  0  0  0  0  0  0
   17.9833  -11.8900  -15.7260 C   0  0  1  0  0  0  0  0  0  0  0  0
   17.9094  -12.7687  -16.9260 C   0  0  0  0  0  0  0  0  0  0  0  0
   17.5582  -14.1907  -16.6922 C   0  0  0  0  0  0  0  0  0  0  0  0
   18.5699  -15.0267  -15.9887 C   0  0  0  0  0  0  0  0  0  0  0  0
   17.9883  -16.4463  -15.9216 C   0  0  0  0  0  0  0  0  0  0  0  0
   18.9257  -17.3364  -15.2459 N   0  0  0  0  0  0  0  0  0  0  0  0
   18.3562  -10.5158  -16.1843 C   0  0  0  0  0  0  0  0  0  0  0  0
   17.4523   -9.7074  -16.4712 O   0  0  0  0  0  0  0  0  0  0  0  0
   19.7271  -10.1003  -16.3031 N   0  0  0  0  0  0  0  0  0  0  0  0
   20.1365   -8.7981  -16.7031 C   0  0  0  0  0  0  0  0  0  0  0  0
   20.3197   -7.8521  -15.5832 C   0  0  0  0  0  0  0  0  0  0  0  0
   20.0426   -8.1683  -14.3887 O   0  0  0  0  0  0  0  0  0  0  0  0
   20.8122   -6.5593  -15.7826 N   0  0  0  0  0  0  0  0  0  0  0  0
   21.1243   -5.6402  -14.6990 C   0  0  1  0  0  0  0  0  0  0  0  0
   22.2914   -6.2813  -13.9381 C   0  0  0  0  0  0  0  0  0  0  0  0
   22.8142   -5.2408  -12.5633 S   0  0  0  0  0  0  0  0  0  0  0  0
   21.4617   -4.3025  -15.1617 C   0  0  0  0  0  0  0  0  0  0  0  0
   21.2748   -3.2192  -14.3340 O   0  0  0  0  0  0  0  0  0  0  0  0
   21.9210   -4.1248  -16.3063 O   0  0  0  0  0  0  0  0  0  0  0  0
  2  1  1  6
  3  2  1  0
  4  3  1  0
  5  4  1  0
  6  5  1  0
  7  6  1  0
  8  9  2  0
  8  2  1  0
 10  8  1  0
 11 12  1  0
 11 10  1  0
 12 14  1  0
 13 12  2  0
 14 15  1  0
 15 18  1  0
 15 16  1  6
 16 17  1  0
 18 20  2  0
 18 19  1  0
M  END
$$$$
