DMY.pdb
     RDKit          3D

 29 29  0  0  1  0  0  0  0  0999 V2000
   19.2755  -14.2522  -18.5837 N   0  0  0  0  0  0  0  0  0  0  0  0
   19.4898  -12.8466  -18.8650 C   0  0  1  0  0  0  0  0  0  0  0  0
   18.1709  -12.1180  -19.0814 C   0  0  0  0  0  0  0  0  0  0  0  0
   17.5633  -12.6990  -20.2930 C   0  0  0  0  0  0  0  0  0  0  0  0
   18.2883  -12.9674  -21.2667 O   0  0  0  0  0  0  0  0  0  0  0  0
   20.2932  -12.2539  -17.7721 C   0  0  0  0  0  0  0  0  0  0  0  0
   19.8861  -12.2628  -16.5843 O   0  0  0  0  0  0  0  0  0  0  0  0
   16.2060  -12.9502  -20.3554 O   0  0  0  0  0  0  0  0  0  0  0  0
   27.4573  -10.9063  -15.0072 C   0  0  0  0  0  0  0  0  0  0  0  0
   26.4365  -11.4812  -16.4122 S   0  0  0  0  0  0  0  0  0  0  0  0
   24.7073  -10.9596  -16.0857 C   0  0  0  0  0  0  0  0  0  0  0  0
   23.8106  -11.5251  -17.1731 C   0  0  0  0  0  0  0  0  0  0  0  0
   22.3836  -11.0719  -16.9671 C   0  0  2  0  0  0  0  0  0  0  0  0
   21.5619  -11.6477  -18.0048 N   0  0  0  0  0  0  0  0  0  0  0  0
   22.2890   -9.5871  -16.9766 C   0  0  0  0  0  0  0  0  0  0  0  0
   22.4460   -9.0164  -18.0863 O   0  0  0  0  0  0  0  0  0  0  0  0
   20.1015   -1.3156  -15.1511 O   0  0  0  0  0  0  0  0  0  0  0  0
   20.4538   -2.6404  -15.0123 C   0  0  0  0  0  0  0  0  0  0  0  0
   19.5878   -3.5961  -15.5157 C   0  0  0  0  0  0  0  0  0  0  0  0
   19.9081   -4.9297  -15.3963 C   0  0  0  0  0  0  0  0  0  0  0  0
   21.0642   -5.3736  -14.7918 C   0  0  0  0  0  0  0  0  0  0  0  0
   21.3822   -6.8095  -14.6563 C   0  0  0  0  0  0  0  0  0  0  0  0
   21.9296   -7.3482  -15.9466 C   0  0  2  0  0  0  0  0  0  0  0  0
   22.0410   -8.8157  -15.8378 N   0  0  0  0  0  0  0  0  0  0  0  0
   23.2661   -6.7683  -16.2314 C   0  0  0  0  0  0  0  0  0  0  0  0
   23.3379   -5.8273  -17.0681 O   0  0  0  0  0  0  0  0  0  0  0  0
   21.9098   -4.3839  -14.2984 C   0  0  0  0  0  0  0  0  0  0  0  0
   21.6159   -3.0534  -14.4036 C   0  0  0  0  0  0  0  0  0  0  0  0
   24.4432   -7.1827  -15.6419 O   0  0  0  0  0  0  0  0  0  0  0  0
  2  1  1  1
  3  4  1  0
  3  2  1  0
  4  5  2  0
  6  2  1  0
  6  7  2  0
  8  4  1  0
 10  9  1  0
 11 10  1  0
 12 11  1  0
 13 14  1  0
 13 12  1  6
 14  6  1  0
 15 24  1  0
 15 13  1  0
 16 15  2  0
 18 19  2  0
 18 17  1  0
 20 19  1  0
 21 20  2  0
 22 21  1  0
 23 24  1  0
 23 22  1  1
 25 23  1  0
 26 25  2  0
 27 21  1  0
 27 28  2  0
 28 18  1  0
 29 25  1  0
M  END
$$$$
