DMY.pdb
     RDKit          3D

 29 29  0  0  1  0  0  0  0  0999 V2000
   22.5972  -14.4249  -17.0051 N   0  0  0  0  0  0  0  0  0  0  0  0
   22.4837  -13.7906  -18.3035 C   0  0  1  0  0  0  0  0  0  0  0  0
   22.1092  -14.7985  -19.3812 C   0  0  0  0  0  0  0  0  0  0  0  0
   23.2407  -15.7379  -19.4899 C   0  0  0  0  0  0  0  0  0  0  0  0
   24.3764  -15.3621  -19.1514 O   0  0  0  0  0  0  0  0  0  0  0  0
   21.5175  -12.6732  -18.2106 C   0  0  0  0  0  0  0  0  0  0  0  0
   21.1888  -12.0089  -19.2243 O   0  0  0  0  0  0  0  0  0  0  0  0
   23.0522  -17.0244  -19.9575 O   0  0  0  0  0  0  0  0  0  0  0  0
   16.5273  -15.2517  -16.8491 C   0  0  0  0  0  0  0  0  0  0  0  0
   17.7712  -14.2668  -15.9384 S   0  0  0  0  0  0  0  0  0  0  0  0
   17.8408  -12.6084  -16.7219 C   0  0  0  0  0  0  0  0  0  0  0  0
   18.8155  -11.7398  -15.9461 C   0  0  0  0  0  0  0  0  0  0  0  0
   19.9213  -11.2507  -16.8527 C   0  0  2  0  0  0  0  0  0  0  0  0
   20.9113  -12.2938  -16.9778 N   0  0  0  0  0  0  0  0  0  0  0  0
   20.5305  -10.0003  -16.3242 C   0  0  0  0  0  0  0  0  0  0  0  0
   21.4657  -10.1326  -15.4939 O   0  0  0  0  0  0  0  0  0  0  0  0
   22.8768   -1.6374  -15.0925 O   0  0  0  0  0  0  0  0  0  0  0  0
   22.3809   -2.8072  -15.6257 C   0  0  0  0  0  0  0  0  0  0  0  0
   21.0597   -3.1277  -15.3647 C   0  0  0  0  0  0  0  0  0  0  0  0
   20.5297   -4.2881  -15.8825 C   0  0  0  0  0  0  0  0  0  0  0  0
   21.2557   -5.1642  -16.6600 C   0  0  0  0  0  0  0  0  0  0  0  0
   20.6754   -6.4141  -17.1914 C   0  0  0  0  0  0  0  0  0  0  0  0
   20.8537   -7.5336  -16.2068 C   0  0  2  0  0  0  0  0  0  0  0  0
   20.1213   -8.7171  -16.6975 N   0  0  0  0  0  0  0  0  0  0  0  0
   20.3328   -7.1454  -14.8720 C   0  0  0  0  0  0  0  0  0  0  0  0
   19.1017   -7.3027  -14.6476 O   0  0  0  0  0  0  0  0  0  0  0  0
   22.5797   -4.8082  -16.9008 C   0  0  0  0  0  0  0  0  0  0  0  0
   23.1305   -3.6625  -16.3989 C   0  0  0  0  0  0  0  0  0  0  0  0
   21.1014   -6.6255  -13.8504 O   0  0  0  0  0  0  0  0  0  0  0  0
  2  1  1  1
  3  4  1  0
  3  2  1  0
  4  5  2  0
  6  2  1  0
  6  7  2  0
  8  4  1  0
 10  9  1  0
 11 10  1  0
 12 11  1  0
 13 14  1  0
 13 12  1  1
 14  6  1  0
 15 24  1  0
 15 13  1  0
 16 15  2  0
 18 19  2  0
 18 17  1  0
 20 19  1  0
 21 20  2  0
 22 21  1  0
 23 24  1  0
 23 22  1  6
 25 23  1  0
 26 25  2  0
 27 21  1  0
 27 28  2  0
 28 18  1  0
 29 25  1  0
M  END
$$$$
