DMY.pdb
     RDKit          3D

 29 29  0  0  1  0  0  0  0  0999 V2000
   32.9989  -21.2750  -19.2812 N   0  0  0  0  0  0  0  0  0  0  0  0
   32.5421  -22.5693  -19.7471 C   0  0  1  0  0  0  0  0  0  0  0  0
   33.1674  -22.9273  -21.0881 C   0  0  0  0  0  0  0  0  0  0  0  0
   33.5484  -21.6543  -21.7277 C   0  0  0  0  0  0  0  0  0  0  0  0
   34.3389  -20.8938  -21.1425 O   0  0  0  0  0  0  0  0  0  0  0  0
   32.8185  -23.5818  -18.7033 C   0  0  0  0  0  0  0  0  0  0  0  0
   33.1689  -24.7496  -19.0037 O   0  0  0  0  0  0  0  0  0  0  0  0
   33.0423  -21.3023  -22.9642 O   0  0  0  0  0  0  0  0  0  0  0  0
   32.8089  -22.0993  -12.5179 C   0  0  0  0  0  0  0  0  0  0  0  0
   32.0543  -23.7430  -12.2436 S   0  0  0  0  0  0  0  0  0  0  0  0
   31.9340  -24.5726  -13.8765 C   0  0  0  0  0  0  0  0  0  0  0  0
   32.3749  -23.5988  -14.9552 C   0  0  0  0  0  0  0  0  0  0  0  0
   32.3148  -24.2565  -16.3146 C   0  0  2  0  0  0  0  0  0  0  0  0
   32.7051  -23.2898  -17.3130 N   0  0  0  0  0  0  0  0  0  0  0  0
   30.9519  -24.7857  -16.5912 C   0  0  0  0  0  0  0  0  0  0  0  0
   30.1540  -24.0145  -17.1831 O   0  0  0  0  0  0  0  0  0  0  0  0
   29.7414  -32.8522  -16.1490 O   0  0  0  0  0  0  0  0  0  0  0  0
   29.6235  -31.5289  -16.5142 C   0  0  0  0  0  0  0  0  0  0  0  0
   29.9989  -31.1767  -17.7993 C   0  0  0  0  0  0  0  0  0  0  0  0
   29.8931  -29.8637  -18.1996 C   0  0  0  0  0  0  0  0  0  0  0  0
   29.4259  -28.8624  -17.3759 C   0  0  0  0  0  0  0  0  0  0  0  0
   29.3370  -27.4557  -17.8168 C   0  0  0  0  0  0  0  0  0  0  0  0
   29.1893  -26.5446  -16.6324 C   0  0  2  0  0  0  0  0  0  0  0  0
   30.5272  -26.0678  -16.2319 N   0  0  0  0  0  0  0  0  0  0  0  0
   28.5566  -27.2607  -15.4963 C   0  0  0  0  0  0  0  0  0  0  0  0
   27.3358  -27.5630  -15.5923 O   0  0  0  0  0  0  0  0  0  0  0  0
   29.0581  -29.2548  -16.0919 C   0  0  0  0  0  0  0  0  0  0  0  0
   29.1532  -30.5510  -15.6692 C   0  0  0  0  0  0  0  0  0  0  0  0
   29.2101  -27.6259  -14.3369 O   0  0  0  0  0  0  0  0  0  0  0  0
  2  1  1  1
  3  4  1  0
  3  2  1  0
  4  5  2  0
  6  2  1  0
  6  7  2  0
  8  4  1  0
 10  9  1  0
 11 10  1  0
 12 11  1  0
 13 14  1  0
 13 12  1  1
 14  6  1  0
 15 24  1  0
 15 13  1  0
 16 15  2  0
 18 19  2  0
 18 17  1  0
 20 19  1  0
 21 20  2  0
 22 21  1  0
 23 24  1  0
 23 22  1  6
 25 23  1  0
 26 25  2  0
 27 21  1  0
 27 28  2  0
 28 18  1  0
 29 25  1  0
M  END
$$$$
