DMY.pdb
     RDKit          3D

 29 29  0  0  1  0  0  0  0  0999 V2000
   24.6550  -14.5588  -18.3036 N   0  0  0  0  0  0  0  0  0  0  0  0
   24.5409  -13.2280  -18.8665 C   0  0  1  0  0  0  0  0  0  0  0  0
   23.4612  -13.1708  -19.9381 C   0  0  0  0  0  0  0  0  0  0  0  0
   23.9087  -14.0511  -21.0334 C   0  0  0  0  0  0  0  0  0  0  0  0
   25.0748  -13.9528  -21.4532 O   0  0  0  0  0  0  0  0  0  0  0  0
   24.3057  -12.2605  -17.7712 C   0  0  0  0  0  0  0  0  0  0  0  0
   23.3454  -12.3984  -16.9740 O   0  0  0  0  0  0  0  0  0  0  0  0
   23.0521  -14.9806  -21.5915 O   0  0  0  0  0  0  0  0  0  0  0  0
   28.8393  -12.9099  -15.1074 C   0  0  0  0  0  0  0  0  0  0  0  0
   27.7716  -11.9211  -16.2160 S   0  0  0  0  0  0  0  0  0  0  0  0
   27.1641  -10.4807  -15.2541 C   0  0  0  0  0  0  0  0  0  0  0  0
   26.3508   -9.5853  -16.1723 C   0  0  0  0  0  0  0  0  0  0  0  0
   25.0048  -10.2097  -16.4595 C   0  0  2  0  0  0  0  0  0  0  0  0
   25.1488  -11.1307  -17.5617 N   0  0  0  0  0  0  0  0  0  0  0  0
   23.9882   -9.1677  -16.7667 C   0  0  0  0  0  0  0  0  0  0  0  0
   23.8608   -8.8388  -17.9739 O   0  0  0  0  0  0  0  0  0  0  0  0
   16.5987   -5.4356  -18.5043 O   0  0  0  0  0  0  0  0  0  0  0  0
   17.7117   -6.1748  -18.1676 C   0  0  0  0  0  0  0  0  0  0  0  0
   17.5900   -7.0963  -17.1417 C   0  0  0  0  0  0  0  0  0  0  0  0
   18.6809   -7.8538  -16.7792 C   0  0  0  0  0  0  0  0  0  0  0  0
   19.9100   -7.7426  -17.3925 C   0  0  0  0  0  0  0  0  0  0  0  0
   21.0745   -8.5507  -16.9775 C   0  0  0  0  0  0  0  0  0  0  0  0
   22.0500   -7.7064  -16.2092 C   0  0  2  0  0  0  0  0  0  0  0  0
   23.1884   -8.5517  -15.8001 N   0  0  0  0  0  0  0  0  0  0  0  0
   21.4051   -7.1252  -15.0051 C   0  0  0  0  0  0  0  0  0  0  0  0
   20.8880   -5.9791  -15.1046 O   0  0  0  0  0  0  0  0  0  0  0  0
   19.9937   -6.8062  -18.4191 C   0  0  0  0  0  0  0  0  0  0  0  0
   18.9264   -6.0415  -18.7987 C   0  0  0  0  0  0  0  0  0  0  0  0
   21.3254   -7.7515  -13.7778 O   0  0  0  0  0  0  0  0  0  0  0  0
  2  1  1  1
  3  4  1  0
  3  2  1  0
  4  5  2  0
  6  2  1  0
  6  7  2  0
  8  4  1  0
 10  9  1  0
 11 10  1  0
 12 11  1  0
 13 14  1  0
 13 12  1  6
 14  6  1  0
 15 24  1  0
 15 13  1  0
 16 15  2  0
 18 19  2  0
 18 17  1  0
 20 19  1  0
 21 20  2  0
 22 21  1  0
 23 24  1  0
 23 22  1  1
 25 23  1  0
 26 25  2  0
 27 21  1  0
 27 28  2  0
 28 18  1  0
 29 25  1  0
M  END
$$$$
