DMY.pdb
     RDKit          3D

 29 29  0  0  1  0  0  0  0  0999 V2000
   20.9371  -13.1282  -17.3105 N   0  0  0  0  0  0  0  0  0  0  0  0
   20.8517  -11.7502  -17.7518 C   0  0  1  0  0  0  0  0  0  0  0  0
   19.6679  -11.5401  -18.6854 C   0  0  0  0  0  0  0  0  0  0  0  0
   19.9709  -12.2832  -19.9226 C   0  0  0  0  0  0  0  0  0  0  0  0
   19.0374  -12.7791  -20.5769 O   0  0  0  0  0  0  0  0  0  0  0  0
   20.8028  -10.8668  -16.5650 C   0  0  0  0  0  0  0  0  0  0  0  0
   19.9280  -11.0156  -15.6766 O   0  0  0  0  0  0  0  0  0  0  0  0
   21.2730  -12.4296  -20.3613 O   0  0  0  0  0  0  0  0  0  0  0  0
   26.3734  -11.1611  -14.7353 C   0  0  0  0  0  0  0  0  0  0  0  0
   25.2309  -10.0392  -15.6200 S   0  0  0  0  0  0  0  0  0  0  0  0
   24.0915   -9.3197  -14.3738 C   0  0  0  0  0  0  0  0  0  0  0  0
   23.1452   -8.3583  -15.0714 C   0  0  0  0  0  0  0  0  0  0  0  0
   21.7684   -8.9698  -15.1924 C   0  0  2  0  0  0  0  0  0  0  0  0
   21.7377   -9.8097  -16.3660 N   0  0  0  0  0  0  0  0  0  0  0  0
   20.7211   -7.9155  -15.2656 C   0  0  0  0  0  0  0  0  0  0  0  0
   20.5742   -7.3388  -16.3735 O   0  0  0  0  0  0  0  0  0  0  0  0
   16.0817   -6.5683   -8.6473 O   0  0  0  0  0  0  0  0  0  0  0  0
   16.4524   -6.7663   -9.9595 C   0  0  0  0  0  0  0  0  0  0  0  0
   16.1489   -5.7725  -10.8743 C   0  0  0  0  0  0  0  0  0  0  0  0
   16.5056   -5.9355  -12.1940 C   0  0  0  0  0  0  0  0  0  0  0  0
   17.1597   -7.0541  -12.6629 C   0  0  0  0  0  0  0  0  0  0  0  0
   17.5178   -7.2197  -14.0861 C   0  0  0  0  0  0  0  0  0  0  0  0
   18.8336   -6.5564  -14.3750 C   0  0  2  0  0  0  0  0  0  0  0  0
   19.9135   -7.5446  -14.1869 N   0  0  0  0  0  0  0  0  0  0  0  0
   19.0507   -5.4042  -13.4645 C   0  0  0  0  0  0  0  0  0  0  0  0
   19.8998   -5.5308  -12.5405 O   0  0  0  0  0  0  0  0  0  0  0  0
   17.4480   -8.0311  -11.7140 C   0  0  0  0  0  0  0  0  0  0  0  0
   17.1052   -7.8945  -10.3981 C   0  0  0  0  0  0  0  0  0  0  0  0
   18.3907   -4.1957  -13.5570 O   0  0  0  0  0  0  0  0  0  0  0  0
  2  1  1  1
  3  4  1  0
  3  2  1  0
  4  5  2  0
  6  2  1  0
  6  7  2  0
  8  4  1  0
 10  9  1  0
 11 10  1  0
 12 11  1  0
 13 14  1  0
 13 12  1  6
 14  6  1  0
 15 24  1  0
 15 13  1  0
 16 15  2  0
 18 19  2  0
 18 17  1  0
 20 19  1  0
 21 20  2  0
 22 21  1  0
 23 24  1  0
 23 22  1  1
 25 23  1  0
 26 25  2  0
 27 21  1  0
 27 28  2  0
 28 18  1  0
 29 25  1  0
M  END
$$$$
