DMY.pdb
     RDKit          3D

 29 29  0  0  1  0  0  0  0  0999 V2000
   38.9609   -3.9674   -8.1852 N   0  0  0  0  0  0  0  0  0  0  0  0
   38.0898   -4.7518   -7.3327 C   0  0  1  0  0  0  0  0  0  0  0  0
   38.5385   -6.2051   -7.2703 C   0  0  0  0  0  0  0  0  0  0  0  0
   38.2442   -6.7932   -8.5902 C   0  0  0  0  0  0  0  0  0  0  0  0
   38.8591   -6.3812   -9.5890 O   0  0  0  0  0  0  0  0  0  0  0  0
   38.0270   -4.1190   -5.9960 C   0  0  0  0  0  0  0  0  0  0  0  0
   37.5236   -4.7178   -5.0137 O   0  0  0  0  0  0  0  0  0  0  0  0
   37.3009   -7.7937   -8.7267 O   0  0  0  0  0  0  0  0  0  0  0  0
   40.4835    2.0190   -1.6049 C   0  0  0  0  0  0  0  0  0  0  0  0
   40.5018    1.2117   -3.2464 S   0  0  0  0  0  0  0  0  0  0  0  0
   39.3721   -0.2324   -3.1619 C   0  0  0  0  0  0  0  0  0  0  0  0
   39.4197   -0.9708   -4.4882 C   0  0  0  0  0  0  0  0  0  0  0  0
   38.4699   -2.1463   -4.4705 C   0  0  2  0  0  0  0  0  0  0  0  0
   38.5308   -2.8084   -5.7517 N   0  0  0  0  0  0  0  0  0  0  0  0
   37.0820   -1.7060   -4.1649 C   0  0  0  0  0  0  0  0  0  0  0  0
   36.3933   -1.2911   -5.1320 O   0  0  0  0  0  0  0  0  0  0  0  0
   36.2505   -2.7026    3.3937 O   0  0  0  0  0  0  0  0  0  0  0  0
   35.7669   -2.6288    2.1056 C   0  0  0  0  0  0  0  0  0  0  0  0
   36.4893   -3.2585    1.1065 C   0  0  0  0  0  0  0  0  0  0  0  0
   36.0353   -3.2070   -0.1922 C   0  0  0  0  0  0  0  0  0  0  0  0
   34.8804   -2.5506   -0.5589 C   0  0  0  0  0  0  0  0  0  0  0  0
   34.4186   -2.4901   -1.9605 C   0  0  0  0  0  0  0  0  0  0  0  0
   35.1040   -1.3703   -2.6891 C   0  0  2  0  0  0  0  0  0  0  0  0
   36.5218   -1.7303   -2.8847 N   0  0  0  0  0  0  0  0  0  0  0  0
   35.0146   -0.1080   -1.9131 C   0  0  0  0  0  0  0  0  0  0  0  0
   36.0611    0.3189   -1.3532 O   0  0  0  0  0  0  0  0  0  0  0  0
   34.1813   -1.9300    0.4726 C   0  0  0  0  0  0  0  0  0  0  0  0
   34.6097   -1.9657    1.7699 C   0  0  0  0  0  0  0  0  0  0  0  0
   33.8648    0.6400   -1.7610 O   0  0  0  0  0  0  0  0  0  0  0  0
  2  1  1  6
  3  4  1  0
  3  2  1  0
  4  5  2  0
  6  2  1  0
  6  7  2  0
  8  4  1  0
 10  9  1  0
 11 10  1  0
 12 11  1  0
 13 14  1  0
 13 12  1  6
 14  6  1  0
 15 24  1  0
 15 13  1  0
 16 15  2  0
 18 19  2  0
 18 17  1  0
 20 19  1  0
 21 20  2  0
 22 21  1  0
 23 24  1  0
 23 22  1  1
 25 23  1  0
 26 25  2  0
 27 21  1  0
 27 28  2  0
 28 18  1  0
 29 25  1  0
M  END
$$$$
