DMY.pdb
     RDKit          3D

 29 29  0  0  1  0  0  0  0  0999 V2000
   29.0778  -21.0814  -16.7633 N   0  0  0  0  0  0  0  0  0  0  0  0
   27.8779  -21.8717  -16.5716 C   0  0  1  0  0  0  0  0  0  0  0  0
   28.2140  -23.2937  -16.1446 C   0  0  0  0  0  0  0  0  0  0  0  0
   28.7943  -23.9612  -17.3246 C   0  0  0  0  0  0  0  0  0  0  0  0
   28.9581  -23.3100  -18.3709 O   0  0  0  0  0  0  0  0  0  0  0  0
   26.9963  -21.1814  -15.6035 C   0  0  0  0  0  0  0  0  0  0  0  0
   26.9284  -21.5500  -14.4050 O   0  0  0  0  0  0  0  0  0  0  0  0
   29.1589  -25.2932  -17.2784 O   0  0  0  0  0  0  0  0  0  0  0  0
   26.3808  -15.4191  -17.1875 C   0  0  0  0  0  0  0  0  0  0  0  0
   26.5506  -15.5199  -15.3688 S   0  0  0  0  0  0  0  0  0  0  0  0
   26.5609  -17.2984  -14.9150 C   0  0  0  0  0  0  0  0  0  0  0  0
   25.2636  -17.9324  -15.3856 C   0  0  0  0  0  0  0  0  0  0  0  0
   25.2604  -19.4127  -15.0810 C   0  0  2  0  0  0  0  0  0  0  0  0
   26.1848  -20.0699  -15.9738 N   0  0  0  0  0  0  0  0  0  0  0  0
   23.8927  -19.9823  -15.2181 C   0  0  0  0  0  0  0  0  0  0  0  0
   23.5174  -20.2812  -16.3807 O   0  0  0  0  0  0  0  0  0  0  0  0
   24.6406  -26.3038  -15.3254 O   0  0  0  0  0  0  0  0  0  0  0  0
   23.8508  -25.2514  -14.9164 C   0  0  0  0  0  0  0  0  0  0  0  0
   24.2312  -24.5617  -13.7779 C   0  0  0  0  0  0  0  0  0  0  0  0
   23.4668  -23.5035  -13.3405 C   0  0  0  0  0  0  0  0  0  0  0  0
   22.3229  -23.0858  -13.9854 C   0  0  0  0  0  0  0  0  0  0  0  0
   21.5050  -21.9598  -13.4907 C   0  0  0  0  0  0  0  0  0  0  0  0
   21.6820  -20.7576  -14.3728 C   0  0  2  0  0  0  0  0  0  0  0  0
   23.0266  -20.1948  -14.1420 N   0  0  0  0  0  0  0  0  0  0  0  0
   20.6547  -19.7297  -14.0700 C   0  0  0  0  0  0  0  0  0  0  0  0
   21.0242  -18.6786  -13.4791 O   0  0  0  0  0  0  0  0  0  0  0  0
   21.9726  -23.8031  -15.1259 C   0  0  0  0  0  0  0  0  0  0  0  0
   22.7134  -24.8573  -15.5815 C   0  0  0  0  0  0  0  0  0  0  0  0
   19.3172  -19.8380  -14.3927 O   0  0  0  0  0  0  0  0  0  0  0  0
  2  1  1  1
  3  4  1  0
  3  2  1  0
  4  5  2  0
  6  2  1  0
  6  7  2  0
  8  4  1  0
 10  9  1  0
 11 10  1  0
 12 11  1  0
 13 14  1  0
 13 12  1  6
 14  6  1  0
 15 24  1  0
 15 13  1  0
 16 15  2  0
 18 19  2  0
 18 17  1  0
 20 19  1  0
 21 20  2  0
 22 21  1  0
 23 24  1  0
 23 22  1  1
 25 23  1  0
 26 25  2  0
 27 21  1  0
 27 28  2  0
 28 18  1  0
 29 25  1  0
M  END
$$$$
