DMY.pdb
     RDKit          3D

 29 29  0  0  1  0  0  0  0  0999 V2000
   29.2839  -21.0701  -16.9528 N   0  0  0  0  0  0  0  0  0  0  0  0
   28.5411  -20.0989  -16.1743 C   0  0  1  0  0  0  0  0  0  0  0  0
   27.4066  -19.4897  -16.9860 C   0  0  0  0  0  0  0  0  0  0  0  0
   28.0353  -18.7101  -18.0684 C   0  0  0  0  0  0  0  0  0  0  0  0
   27.6316  -18.8562  -19.2352 O   0  0  0  0  0  0  0  0  0  0  0  0
   28.0664  -20.7421  -14.9285 C   0  0  0  0  0  0  0  0  0  0  0  0
   27.0045  -21.4118  -14.9038 O   0  0  0  0  0  0  0  0  0  0  0  0
   29.0592  -17.8218  -17.8003 O   0  0  0  0  0  0  0  0  0  0  0  0
   31.6833  -21.1508   -9.5491 C   0  0  0  0  0  0  0  0  0  0  0  0
   32.0463  -22.3721  -10.8619 S   0  0  0  0  0  0  0  0  0  0  0  0
   30.6899  -22.2743  -12.0945 C   0  0  0  0  0  0  0  0  0  0  0  0
   29.6082  -21.3512  -11.5616 C   0  0  0  0  0  0  0  0  0  0  0  0
   28.4181  -21.3420  -12.4931 C   0  0  2  0  0  0  0  0  0  0  0  0
   28.7821  -20.6394  -13.7003 N   0  0  0  0  0  0  0  0  0  0  0  0
   27.2381  -20.7088  -11.8446 C   0  0  0  0  0  0  0  0  0  0  0  0
   27.2044  -19.4516  -11.8336 O   0  0  0  0  0  0  0  0  0  0  0  0
   21.9045  -18.4634  -15.6668 O   0  0  0  0  0  0  0  0  0  0  0  0
   22.3280  -19.1346  -14.5405 C   0  0  0  0  0  0  0  0  0  0  0  0
   23.4458  -19.9437  -14.6518 C   0  0  0  0  0  0  0  0  0  0  0  0
   23.8986  -20.6284  -13.5465 C   0  0  0  0  0  0  0  0  0  0  0  0
   23.2888  -20.5514  -12.3132 C   0  0  0  0  0  0  0  0  0  0  0  0
   23.7779  -21.3081  -11.1429 C   0  0  0  0  0  0  0  0  0  0  0  0
   25.0608  -20.7152  -10.6356 C   0  0  2  0  0  0  0  0  0  0  0  0
   26.1917  -21.4280  -11.2606 N   0  0  0  0  0  0  0  0  0  0  0  0
   25.1488  -20.8419   -9.1591 C   0  0  0  0  0  0  0  0  0  0  0  0
   24.3159  -20.2043   -8.4588 O   0  0  0  0  0  0  0  0  0  0  0  0
   22.1685  -19.7283  -12.2402 C   0  0  0  0  0  0  0  0  0  0  0  0
   21.6981  -19.0378  -13.3217 C   0  0  0  0  0  0  0  0  0  0  0  0
   26.0780  -21.6138   -8.4917 O   0  0  0  0  0  0  0  0  0  0  0  0
  2  1  1  6
  3  4  1  0
  3  2  1  0
  4  5  2  0
  6  2  1  0
  6  7  2  0
  8  4  1  0
 10  9  1  0
 11 10  1  0
 12 11  1  0
 13 14  1  0
 13 12  1  1
 14  6  1  0
 15 24  1  0
 15 13  1  0
 16 15  2  0
 18 19  2  0
 18 17  1  0
 20 19  1  0
 21 20  2  0
 22 21  1  0
 23 24  1  0
 23 22  1  6
 25 23  1  0
 26 25  2  0
 27 21  1  0
 27 28  2  0
 28 18  1  0
 29 25  1  0
M  END
$$$$
