DMY.pdb
     RDKit          3D

 29 29  0  0  1  0  0  0  0  0999 V2000
   20.8799  -19.8765  -12.6983 N   0  0  0  0  0  0  0  0  0  0  0  0
   21.8451  -20.9505  -12.5724 C   0  0  1  0  0  0  0  0  0  0  0  0
   21.7088  -21.9535  -13.7094 C   0  0  0  0  0  0  0  0  0  0  0  0
   20.3982  -22.6075  -13.5384 C   0  0  0  0  0  0  0  0  0  0  0  0
   20.2535  -23.4502  -12.6359 O   0  0  0  0  0  0  0  0  0  0  0  0
   23.2038  -20.3693  -12.4876 C   0  0  0  0  0  0  0  0  0  0  0  0
   23.5516  -19.4136  -13.2241 O   0  0  0  0  0  0  0  0  0  0  0  0
   19.3352  -22.2926  -14.3631 O   0  0  0  0  0  0  0  0  0  0  0  0
   24.9138  -20.5620   -6.7071 C   0  0  0  0  0  0  0  0  0  0  0  0
   25.9882  -19.3588   -7.5700 S   0  0  0  0  0  0  0  0  0  0  0  0
   25.4171  -19.2613   -9.3116 C   0  0  0  0  0  0  0  0  0  0  0  0
   26.0192  -20.4174  -10.0909 C   0  0  0  0  0  0  0  0  0  0  0  0
   25.5469  -20.3874  -11.5262 C   0  0  2  0  0  0  0  0  0  0  0  0
   24.1825  -20.8563  -11.5733 N   0  0  0  0  0  0  0  0  0  0  0  0
   26.4248  -21.2180  -12.3940 C   0  0  0  0  0  0  0  0  0  0  0  0
   26.8170  -22.3146  -11.9191 O   0  0  0  0  0  0  0  0  0  0  0  0
   25.7398  -26.4509  -18.9573 O   0  0  0  0  0  0  0  0  0  0  0  0
   25.7341  -25.5478  -17.9167 C   0  0  0  0  0  0  0  0  0  0  0  0
   24.9777  -24.3975  -18.0628 C   0  0  0  0  0  0  0  0  0  0  0  0
   24.9471  -23.4734  -17.0428 C   0  0  0  0  0  0  0  0  0  0  0  0
   25.6410  -23.6333  -15.8630 C   0  0  0  0  0  0  0  0  0  0  0  0
   25.6111  -22.6220  -14.7870 C   0  0  0  0  0  0  0  0  0  0  0  0
   26.9014  -21.8548  -14.7541 C   0  0  2  0  0  0  0  0  0  0  0  0
   26.8249  -20.8454  -13.6803 N   0  0  0  0  0  0  0  0  0  0  0  0
   27.1429  -21.1798  -16.0540 C   0  0  0  0  0  0  0  0  0  0  0  0
   28.1006  -21.5889  -16.7654 O   0  0  0  0  0  0  0  0  0  0  0  0
   26.3897  -24.8018  -15.7527 C   0  0  0  0  0  0  0  0  0  0  0  0
   26.4375  -25.7351  -16.7499 C   0  0  0  0  0  0  0  0  0  0  0  0
   26.3899  -20.1334  -16.5468 O   0  0  0  0  0  0  0  0  0  0  0  0
  2  1  1  6
  3  4  1  0
  3  2  1  0
  4  5  2  0
  6  2  1  0
  6  7  2  0
  8  4  1  0
 10  9  1  0
 11 10  1  0
 12 11  1  0
 13 14  1  0
 13 12  1  1
 14  6  1  0
 15 24  1  0
 15 13  1  0
 16 15  2  0
 18 19  2  0
 18 17  1  0
 20 19  1  0
 21 20  2  0
 22 21  1  0
 23 24  1  0
 23 22  1  6
 25 23  1  0
 26 25  2  0
 27 21  1  0
 27 28  2  0
 28 18  1  0
 29 25  1  0
M  END
$$$$
