YMM.pdb
     RDKit          3D

 29 29  0  0  1  0  0  0  0  0999 V2000
   16.8799  -14.0136  -15.7408 O   0  0  0  0  0  0  0  0  0  0  0  0
   17.6260  -12.8268  -15.7600 C   0  0  0  0  0  0  0  0  0  0  0  0
   17.9482  -12.1896  -16.9368 C   0  0  0  0  0  0  0  0  0  0  0  0
   18.6823  -11.0231  -16.9391 C   0  0  0  0  0  0  0  0  0  0  0  0
   19.1304  -10.4363  -15.7652 C   0  0  0  0  0  0  0  0  0  0  0  0
   19.9217   -9.1812  -15.7435 C   0  0  0  0  0  0  0  0  0  0  0  0
   21.1031   -9.3688  -16.6636 C   0  0  2  0  0  0  0  0  0  0  0  0
   22.0453  -10.2412  -15.9944 N   0  0  0  0  0  0  0  0  0  0  0  0
   21.7195   -8.0750  -17.0479 C   0  0  0  0  0  0  0  0  0  0  0  0
   22.6533   -7.5596  -16.4024 O   0  0  0  0  0  0  0  0  0  0  0  0
   18.8090  -11.0728  -14.5864 C   0  0  0  0  0  0  0  0  0  0  0  0
   18.0639  -12.2568  -14.5826 C   0  0  0  0  0  0  0  0  0  0  0  0
   24.9439   -5.3562  -23.0773 C   0  0  0  0  0  0  0  0  0  0  0  0
   23.5093   -6.2334  -22.4163 S   0  0  0  0  0  0  0  0  0  0  0  0
   23.4028   -5.8280  -20.6253 C   0  0  0  0  0  0  0  0  0  0  0  0
   22.1253   -6.4316  -20.1217 C   0  0  0  0  0  0  0  0  0  0  0  0
   21.8670   -6.1636  -18.6413 C   0  0  2  0  0  0  0  0  0  0  0  0
   21.2051   -7.4228  -18.1999 N   0  0  0  0  0  0  0  0  0  0  0  0
   20.8736   -5.0848  -18.4190 C   0  0  0  0  0  0  0  0  0  0  0  0
   19.6286   -5.3853  -18.3204 O   0  0  0  0  0  0  0  0  0  0  0  0
   21.5485    0.6264  -15.3982 C   0  0  0  0  0  0  0  0  0  0  0  0
   20.7287    1.0993  -16.9521 S   0  0  0  0  0  0  0  0  0  0  0  0
   19.7712   -0.3576  -17.5293 C   0  0  0  0  0  0  0  0  0  0  0  0
   20.7535   -1.4723  -17.6767 C   0  0  0  0  0  0  0  0  0  0  0  0
   20.0959   -2.7472  -18.0973 C   0  0  2  0  0  0  0  0  0  0  0  0
   21.1706   -3.7252  -18.2984 N   0  0  0  0  0  0  0  0  0  0  0  0
   19.3128   -2.6810  -19.3283 C   0  0  0  0  0  0  0  0  0  0  0  0
   19.8319   -2.9360  -20.4341 O   0  0  0  0  0  0  0  0  0  0  0  0
   17.9760   -2.3350  -19.2961 O   0  0  0  0  0  0  0  0  0  0  0  0
  2 12  2  0
  2  1  1  0
  3  2  1  0
  4  5  1  0
  4  3  2  0
  5 11  2  0
  6  5  1  0
  6  7  1  0
  7  9  1  0
  7  8  1  1
  9 18  1  0
 10  9  2  0
 11 12  1  0
 13 14  1  0
 14 15  1  0
 16 15  1  0
 17 16  1  6
 18 17  1  0
 19 17  1  0
 19 20  2  0
 22 21  1  0
 22 23  1  0
 23 24  1  0
 25 24  1  6
 25 27  1  0
 26 25  1  0
 26 19  1  0
 27 28  2  0
 27 29  1  0
M  END
$$$$
