YMM.pdb
     RDKit          3D

 29 29  0  0  1  0  0  0  0  0999 V2000
 4398.1499 1606.9264 1390.4628 O   0  0  0  0  0  0  0  0  0  0  0  0
 4399.2656 1606.4718 1389.7468 C   0  0  0  0  0  0  0  0  0  0  0  0
 4399.3794 1606.6471 1388.3857 C   0  0  0  0  0  0  0  0  0  0  0  0
 4400.4785 1606.1954 1387.6949 C   0  0  0  0  0  0  0  0  0  0  0  0
 4401.5288 1605.5486 1388.3290 C   0  0  0  0  0  0  0  0  0  0  0  0
 4402.7261 1605.0546 1387.6047 C   0  0  0  0  0  0  0  0  0  0  0  0
 4403.4546 1604.1031 1388.5254 C   0  0  2  0  0  0  0  0  0  0  0  0
 4402.4912 1603.5924 1389.4767 N   0  0  0  0  0  0  0  0  0  0  0  0
 4404.6094 1604.7509 1389.1929 C   0  0  0  0  0  0  0  0  0  0  0  0
 4404.4712 1605.6373 1390.0580 O   0  0  0  0  0  0  0  0  0  0  0  0
 4401.4194 1605.3708 1389.6906 C   0  0  0  0  0  0  0  0  0  0  0  0
 4400.3003 1605.8287 1390.3950 C   0  0  0  0  0  0  0  0  0  0  0  0
 4402.7417 1606.6948 1384.2776 C   0  0  0  0  0  0  0  0  0  0  0  0
 4403.0923 1606.6559 1386.0490 S   0  0  0  0  0  0  0  0  0  0  0  0
 4404.3140 1605.3112 1386.3345 C   0  0  0  0  0  0  0  0  0  0  0  0
 4405.4326 1605.9060 1387.1395 C   0  0  0  0  0  0  0  0  0  0  0  0
 4406.4863 1604.8856 1387.5586 C   0  0  2  0  0  0  0  0  0  0  0  0
 4405.9111 1604.3250 1388.8115 N   0  0  0  0  0  0  0  0  0  0  0  0
 4407.7705 1605.5187 1387.9515 C   0  0  0  0  0  0  0  0  0  0  0  0
 4407.8550 1606.7979 1387.9957 O   0  0  0  0  0  0  0  0  0  0  0  0
 4408.2417 1606.4558 1392.5073 C   0  0  0  0  0  0  0  0  0  0  0  0
 4407.0308 1606.5450 1391.1521 S   0  0  0  0  0  0  0  0  0  0  0  0
 4407.0659 1604.9263 1390.2826 C   0  0  0  0  0  0  0  0  0  0  0  0
 4408.4111 1604.3348 1390.5557 C   0  0  0  0  0  0  0  0  0  0  0  0
 4409.4648 1604.9033 1389.6622 C   0  0  2  0  0  0  0  0  0  0  0  0
 4408.9385 1604.8308 1388.2950 N   0  0  0  0  0  0  0  0  0  0  0  0
 4410.7524 1604.2174 1389.6838 C   0  0  0  0  0  0  0  0  0  0  0  0
 4410.9688 1603.2311 1388.9514 O   0  0  0  0  0  0  0  0  0  0  0  0
 4411.7651 1604.6488 1390.5206 O   0  0  0  0  0  0  0  0  0  0  0  0
  2 12  2  0
  2  1  1  0
  3  2  1  0
  4  5  1  0
  4  3  2  0
  5 11  2  0
  6  5  1  0
  6  7  1  0
  7  9  1  0
  7  8  1  1
  9 18  1  0
 10  9  2  0
 11 12  1  0
 13 14  1  0
 14 15  1  0
 16 15  1  0
 17 16  1  1
 18 17  1  0
 19 17  1  0
 19 20  2  0
 22 21  1  0
 22 23  1  0
 23 24  1  0
 25 24  1  1
 25 27  1  0
 26 25  1  0
 26 19  1  0
 27 28  2  0
 27 29  1  0
M  END
$$$$
