YMM.pdb
     RDKit          3D

 29 29  0  0  1  0  0  0  0  0999 V2000
   16.2454  -20.1662    0.2344 O   0  0  0  0  0  0  0  0  0  0  0  0
   16.6201  -19.4225    1.3623 C   0  0  0  0  0  0  0  0  0  0  0  0
   17.1559  -20.0187    2.4812 C   0  0  0  0  0  0  0  0  0  0  0  0
   17.5195  -19.2737    3.5822 C   0  0  0  0  0  0  0  0  0  0  0  0
   17.3654  -17.8960    3.6188 C   0  0  0  0  0  0  0  0  0  0  0  0
   17.7499  -17.0737    4.7927 C   0  0  0  0  0  0  0  0  0  0  0  0
   17.2810  -17.7968    6.0316 C   0  0  2  0  0  0  0  0  0  0  0  0
   15.8422  -17.6513    6.1056 N   0  0  0  0  0  0  0  0  0  0  0  0
   17.9541  -17.2966    7.2556 C   0  0  0  0  0  0  0  0  0  0  0  0
   17.4680  -16.3957    7.9672 O   0  0  0  0  0  0  0  0  0  0  0  0
   16.8291  -17.2975    2.4998 C   0  0  0  0  0  0  0  0  0  0  0  0
   16.4596  -18.0525    1.3816 C   0  0  0  0  0  0  0  0  0  0  0  0
   21.8893  -21.0870   10.7053 C   0  0  0  0  0  0  0  0  0  0  0  0
   22.9270  -19.6295   10.4535 S   0  0  0  0  0  0  0  0  0  0  0  0
   21.8012  -18.1863   10.2719 C   0  0  0  0  0  0  0  0  0  0  0  0
   20.9107  -18.4784    9.1008 C   0  0  0  0  0  0  0  0  0  0  0  0
   19.8965  -17.3738    8.8162 C   0  0  2  0  0  0  0  0  0  0  0  0
   19.1982  -17.8862    7.6044 N   0  0  0  0  0  0  0  0  0  0  0  0
   20.5364  -16.1000    8.4061 C   0  0  0  0  0  0  0  0  0  0  0  0
   21.1092  -16.0234    7.2589 O   0  0  0  0  0  0  0  0  0  0  0  0
   20.1883  -11.9144    4.2554 C   0  0  0  0  0  0  0  0  0  0  0  0
   19.5745  -11.2909    5.8507 S   0  0  0  0  0  0  0  0  0  0  0  0
   20.7734  -11.8151    7.1392 C   0  0  0  0  0  0  0  0  0  0  0  0
   20.2782  -13.1219    7.6647 C   0  0  0  0  0  0  0  0  0  0  0  0
   21.2267  -13.7258    8.6498 C   0  0  2  0  0  0  0  0  0  0  0  0
   20.5753  -14.9322    9.1716 N   0  0  0  0  0  0  0  0  0  0  0  0
   21.5839  -12.8810    9.7864 C   0  0  0  0  0  0  0  0  0  0  0  0
   21.0549  -13.0506   10.9038 O   0  0  0  0  0  0  0  0  0  0  0  0
   22.5189  -11.8736    9.6500 O   0  0  0  0  0  0  0  0  0  0  0  0
  2 12  2  0
  2  1  1  0
  3  2  1  0
  4  5  1  0
  4  3  2  0
  5 11  2  0
  6  5  1  0
  6  7  1  0
  7  9  1  0
  7  8  1  1
  9 18  1  0
 10  9  2  0
 11 12  1  0
 13 14  1  0
 14 15  1  0
 16 15  1  0
 17 16  1  6
 18 17  1  0
 19 17  1  0
 19 20  2  0
 22 21  1  0
 22 23  1  0
 23 24  1  0
 25 24  1  6
 25 27  1  0
 26 25  1  0
 26 19  1  0
 27 28  2  0
 27 29  1  0
M  END
$$$$
