YMM.pdb
     RDKit          3D

 29 29  0  0  1  0  0  0  0  0999 V2000
   30.4841  -15.8545  -18.8630 O   0  0  0  0  0  0  0  0  0  0  0  0
   29.5156  -16.6475  -18.2316 C   0  0  0  0  0  0  0  0  0  0  0  0
   28.5421  -17.3108  -18.9437 C   0  0  0  0  0  0  0  0  0  0  0  0
   27.5969  -18.0869  -18.3083 C   0  0  0  0  0  0  0  0  0  0  0  0
   27.5783  -18.2381  -16.9299 C   0  0  0  0  0  0  0  0  0  0  0  0
   26.5708  -19.0683  -16.2246 C   0  0  0  0  0  0  0  0  0  0  0  0
   27.3075  -20.1777  -15.5146 C   0  0  2  0  0  0  0  0  0  0  0  0
   27.8987  -21.0285  -16.5263 N   0  0  0  0  0  0  0  0  0  0  0  0
   26.4208  -20.9368  -14.5986 C   0  0  0  0  0  0  0  0  0  0  0  0
   25.7088  -21.8836  -14.9869 O   0  0  0  0  0  0  0  0  0  0  0  0
   28.5518  -17.5748  -16.2156 C   0  0  0  0  0  0  0  0  0  0  0  0
   29.5119  -16.7867  -16.8592 C   0  0  0  0  0  0  0  0  0  0  0  0
   26.1821  -19.1140   -8.2470 C   0  0  0  0  0  0  0  0  0  0  0  0
   26.2007  -20.9207   -8.2444 S   0  0  0  0  0  0  0  0  0  0  0  0
   25.3389  -21.4748   -9.7720 C   0  0  0  0  0  0  0  0  0  0  0  0
   26.0824  -20.8749  -10.9284 C   0  0  0  0  0  0  0  0  0  0  0  0
   25.5802  -21.3516  -12.2888 C   0  0  2  0  0  0  0  0  0  0  0  0
   26.4044  -20.5469  -13.2330 N   0  0  0  0  0  0  0  0  0  0  0  0
   24.1724  -20.9629  -12.5482 C   0  0  0  0  0  0  0  0  0  0  0  0
   23.8664  -19.7177  -12.6251 O   0  0  0  0  0  0  0  0  0  0  0  0
   17.1318  -23.0905  -15.1730 C   0  0  0  0  0  0  0  0  0  0  0  0
   18.7747  -23.6014  -14.5813 S   0  0  0  0  0  0  0  0  0  0  0  0
   19.5462  -22.1387  -13.7826 C   0  0  0  0  0  0  0  0  0  0  0  0
   20.9766  -22.4960  -13.5476 C   0  0  0  0  0  0  0  0  0  0  0  0
   21.7600  -21.3448  -13.0038 C   0  0  2  0  0  0  0  0  0  0  0  0
   23.1090  -21.8508  -12.7273 N   0  0  0  0  0  0  0  0  0  0  0  0
   21.2428  -20.7498  -11.7744 C   0  0  0  0  0  0  0  0  0  0  0  0
   20.4188  -19.8134  -11.8116 O   0  0  0  0  0  0  0  0  0  0  0  0
   21.6540  -21.2123  -10.5396 O   0  0  0  0  0  0  0  0  0  0  0  0
  2 12  2  0
  2  1  1  0
  3  2  1  0
  4  5  1  0
  4  3  2  0
  5 11  2  0
  6  5  1  0
  6  7  1  0
  7  9  1  0
  7  8  1  6
  9 18  1  0
 10  9  2  0
 11 12  1  0
 13 14  1  0
 14 15  1  0
 16 15  1  0
 17 16  1  1
 18 17  1  0
 19 17  1  0
 19 20  2  0
 22 21  1  0
 22 23  1  0
 23 24  1  0
 25 24  1  1
 25 27  1  0
 26 25  1  0
 26 19  1  0
 27 28  2  0
 27 29  1  0
M  END
$$$$
