YMM.pdb
     RDKit          3D

 29 29  0  0  1  0  0  0  0  0999 V2000
   30.0332  -15.5734  -18.8380 O   0  0  0  0  0  0  0  0  0  0  0  0
   29.2060  -16.5006  -18.1886 C   0  0  0  0  0  0  0  0  0  0  0  0
   28.6308  -17.5562  -18.8590 C   0  0  0  0  0  0  0  0  0  0  0  0
   27.8199  -18.4595  -18.2064 C   0  0  0  0  0  0  0  0  0  0  0  0
   27.5442  -18.3521  -16.8515 C   0  0  0  0  0  0  0  0  0  0  0  0
   26.6746  -19.3125  -16.1282 C   0  0  0  0  0  0  0  0  0  0  0  0
   27.5572  -20.1397  -15.2259 C   0  0  2  0  0  0  0  0  0  0  0  0
   28.3514  -21.0099  -16.0679 N   0  0  0  0  0  0  0  0  0  0  0  0
   26.7706  -20.9013  -14.2246 C   0  0  0  0  0  0  0  0  0  0  0  0
   26.2767  -22.0194  -14.4698 O   0  0  0  0  0  0  0  0  0  0  0  0
   28.1189  -17.2960  -16.1790 C   0  0  0  0  0  0  0  0  0  0  0  0
   28.9422  -16.3783  -16.8402 C   0  0  0  0  0  0  0  0  0  0  0  0
   27.7805  -20.7898   -7.7286 C   0  0  0  0  0  0  0  0  0  0  0  0
   26.1421  -20.0661   -7.9656 S   0  0  0  0  0  0  0  0  0  0  0  0
   25.4037  -20.8674   -9.4474 C   0  0  0  0  0  0  0  0  0  0  0  0
   26.1881  -20.3882  -10.6328 C   0  0  0  0  0  0  0  0  0  0  0  0
   25.7708  -21.0458  -11.9456 C   0  0  2  0  0  0  0  0  0  0  0  0
   26.5908  -20.3082  -12.9466 N   0  0  0  0  0  0  0  0  0  0  0  0
   24.3568  -20.7716  -12.2999 C   0  0  0  0  0  0  0  0  0  0  0  0
   23.9826  -19.5603  -12.5069 O   0  0  0  0  0  0  0  0  0  0  0  0
   19.9804  -25.2564  -13.5873 C   0  0  0  0  0  0  0  0  0  0  0  0
   19.3476  -23.8770  -14.5908 S   0  0  0  0  0  0  0  0  0  0  0  0
   19.9428  -22.3214  -13.8171 C   0  0  0  0  0  0  0  0  0  0  0  0
   21.3594  -22.5691  -13.4156 C   0  0  0  0  0  0  0  0  0  0  0  0
   22.0014  -21.3469  -12.8422 C   0  0  2  0  0  0  0  0  0  0  0  0
   23.3569  -21.7370  -12.4390 N   0  0  0  0  0  0  0  0  0  0  0  0
   21.3360  -20.7673  -11.6786 C   0  0  0  0  0  0  0  0  0  0  0  0
   21.5621  -21.1974  -10.5291 O   0  0  0  0  0  0  0  0  0  0  0  0
   20.4400  -19.7263  -11.8243 O   0  0  0  0  0  0  0  0  0  0  0  0
  2 12  2  0
  2  1  1  0
  3  2  1  0
  4  5  1  0
  4  3  2  0
  5 11  2  0
  6  5  1  0
  6  7  1  0
  7  9  1  0
  7  8  1  6
  9 18  1  0
 10  9  2  0
 11 12  1  0
 13 14  1  0
 14 15  1  0
 16 15  1  0
 17 16  1  1
 18 17  1  0
 19 17  1  0
 19 20  2  0
 22 21  1  0
 22 23  1  0
 23 24  1  0
 25 24  1  1
 25 27  1  0
 26 25  1  0
 26 19  1  0
 27 28  2  0
 27 29  1  0
M  END
$$$$
