YRC.pdb
     RDKit          3D

 30 30  0  0  1  0  0  0  0  0999 V2000
    8.2783  -12.5710   16.3133 O   0  0  0  0  0  0  0  0  0  0  0  0
    8.1962  -12.9485   17.6462 C   0  0  0  0  0  0  0  0  0  0  0  0
    9.3019  -13.2843   18.3967 C   0  0  0  0  0  0  0  0  0  0  0  0
    9.1906  -13.6571   19.7276 C   0  0  0  0  0  0  0  0  0  0  0  0
    7.9662  -13.7000   20.3330 C   0  0  0  0  0  0  0  0  0  0  0  0
    7.8038  -14.0898   21.7566 C   0  0  0  0  0  0  0  0  0  0  0  0
    7.9490  -15.6146   21.8279 C   0  0  2  0  0  0  0  0  0  0  0  0
    6.8751  -16.2486   21.1435 N   0  0  0  0  0  0  0  0  0  0  0  0
    8.1956  -16.0897   23.2027 C   0  0  0  0  0  0  0  0  0  0  0  0
    7.1824  -16.0918   23.9726 O   0  0  0  0  0  0  0  0  0  0  0  0
    6.8618  -13.3633   19.5772 C   0  0  0  0  0  0  0  0  0  0  0  0
    6.9543  -12.9874   18.2425 C   0  0  0  0  0  0  0  0  0  0  0  0
   11.0459  -21.2527   20.8668 N   0  0  0  0  0  0  0  0  0  0  0  0
   12.0689  -20.8015   21.7335 C   0  0  0  0  0  0  0  0  0  0  0  0
   13.3009  -21.1776   21.6220 N   0  0  0  0  0  0  0  0  0  0  0  0
   11.7270  -19.8990   22.7701 N   0  0  0  0  0  0  0  0  0  0  0  0
   10.3263  -19.5957   23.0934 C   0  0  0  0  0  0  0  0  0  0  0  0
   10.1481  -19.3945   24.5530 C   0  0  0  0  0  0  0  0  0  0  0  0
   10.5740  -18.0870   25.0854 C   0  0  0  0  0  0  0  0  0  0  0  0
    9.5519  -16.9827   25.0954 C   0  0  2  0  0  0  0  0  0  0  0  0
    9.4277  -16.5223   23.6954 N   0  0  0  0  0  0  0  0  0  0  0  0
    9.9101  -15.8078   25.8925 C   0  0  0  0  0  0  0  0  0  0  0  0
   10.8794  -15.0654   25.5065 O   0  0  0  0  0  0  0  0  0  0  0  0
   14.0532  -20.9045   22.2630 N   0  0  0  0  0  0  0  0  0  0  0  0
    9.2975  -15.3642   27.0851 C   0  0  1  0  0  0  0  0  0  0  0  0
    9.7723  -14.2798   27.8859 C   0  0  0  0  0  0  0  0  0  0  0  0
    8.7035  -13.2491   28.1860 S   0  0  0  0  0  0  0  0  0  0  0  0
    7.9912  -12.7662   26.5712 C   0  0  0  0  0  0  0  0  0  0  0  0
   10.4071  -14.6895   29.1364 O   0  0  0  0  0  0  0  0  0  0  0  0
   11.0258  -13.8543   30.0472 O   0  0  0  0  0  0  0  0  0  0  0  0
  2  1  1  0
  3  2  2  0
  4  3  1  0
  5 11  1  0
  5  4  2  0
  6  5  1  0
  7  6  1  0
  7  8  1  1
  9  7  1  0
  9 10  2  0
 11 12  2  0
 12  2  1  0
 13 14  1  0
 14 15  2  0
 16 14  1  0
 16 17  1  0
 18 17  1  0
 20 19  1  6
 19 18  1  0
 20 21  1  0
 21  9  1  0
 22 20  1  0
 23 22  2  0
 24 22  1  0
 25 28  1  0
 25 24  1  0
 25 26  1  1
 27 26  1  0
 28 29  1  0
 30 28  2  0
M  END
$$$$
