YRC.pdb
     RDKit          3D

 30 30  0  0  1  0  0  0  0  0999 V2000
    7.5137  -11.9833   17.0729 O   0  0  0  0  0  0  0  0  0  0  0  0
    7.6468  -12.6643   18.2747 C   0  0  0  0  0  0  0  0  0  0  0  0
    6.6524  -13.4645   18.7938 C   0  0  0  0  0  0  0  0  0  0  0  0
    6.8129  -14.1345   19.9971 C   0  0  0  0  0  0  0  0  0  0  0  0
    7.9760  -14.0152   20.7044 C   0  0  0  0  0  0  0  0  0  0  0  0
    8.1899  -14.7186   21.9945 C   0  0  0  0  0  0  0  0  0  0  0  0
    8.9180  -16.0308   21.6794 C   0  0  2  0  0  0  0  0  0  0  0  0
    8.1489  -16.8228   20.7820 N   0  0  0  0  0  0  0  0  0  0  0  0
    9.3818  -16.7204   22.8983 C   0  0  0  0  0  0  0  0  0  0  0  0
    8.4664  -17.2155   23.6308 O   0  0  0  0  0  0  0  0  0  0  0  0
    8.9688  -13.2124   20.1808 C   0  0  0  0  0  0  0  0  0  0  0  0
    8.8256  -12.5335   18.9767 C   0  0  0  0  0  0  0  0  0  0  0  0
   10.0308  -20.4661   21.3635 N   0  0  0  0  0  0  0  0  0  0  0  0
   11.1977  -21.2123   21.0756 C   0  0  0  0  0  0  0  0  0  0  0  0
   11.3827  -21.8208   19.9499 N   0  0  0  0  0  0  0  0  0  0  0  0
   12.2068  -21.2971   22.0658 N   0  0  0  0  0  0  0  0  0  0  0  0
   12.1112  -20.5480   23.3261 C   0  0  0  0  0  0  0  0  0  0  0  0
   12.4400  -19.1154   23.1203 C   0  0  0  0  0  0  0  0  0  0  0  0
   12.3583  -18.2523   24.3131 C   0  0  0  0  0  0  0  0  0  0  0  0
   11.0573  -17.5361   24.5557 C   0  0  2  0  0  0  0  0  0  0  0  0
   10.7153  -16.8593   23.2858 N   0  0  0  0  0  0  0  0  0  0  0  0
   11.0996  -16.4967   25.5862 C   0  0  0  0  0  0  0  0  0  0  0  0
   11.8654  -15.4843   25.4182 O   0  0  0  0  0  0  0  0  0  0  0  0
   12.2098  -22.3818   19.7205 N   0  0  0  0  0  0  0  0  0  0  0  0
   10.3718  -16.4615   26.7958 C   0  0  1  0  0  0  0  0  0  0  0  0
   10.5469  -15.4794   27.8193 C   0  0  0  0  0  0  0  0  0  0  0  0
    9.3590  -14.5504   27.9622 S   0  0  0  0  0  0  0  0  0  0  0  0
    9.8212  -13.3218   29.2370 C   0  0  0  0  0  0  0  0  0  0  0  0
   10.8840  -16.0308   29.1296 O   0  0  0  0  0  0  0  0  0  0  0  0
   11.5627  -15.3748   30.1390 O   0  0  0  0  0  0  0  0  0  0  0  0
  2  1  1  0
  3  2  2  0
  4  3  1  0
  5 11  1  0
  5  4  2  0
  6  5  1  0
  7  6  1  0
  7  8  1  1
  9  7  1  0
  9 10  2  0
 11 12  2  0
 12  2  1  0
 13 14  1  0
 14 15  2  0
 16 14  1  0
 16 17  1  0
 18 17  1  0
 20 19  1  6
 19 18  1  0
 20 21  1  0
 21  9  1  0
 22 20  1  0
 23 22  2  0
 24 22  1  0
 25 28  1  0
 25 24  1  0
 25 26  1  1
 27 26  1  0
 28 29  1  0
 30 28  2  0
M  END
$$$$
