YRC.pdb
     RDKit          3D

 30 30  0  0  1  0  0  0  0  0999 V2000
    4.4449  -10.6223   27.7508 O   0  0  0  0  0  0  0  0  0  0  0  0
    5.3431  -11.5501   27.2423 C   0  0  0  0  0  0  0  0  0  0  0  0
    6.2914  -12.1762   28.0217 C   0  0  0  0  0  0  0  0  0  0  0  0
    7.1761  -13.1004   27.4871 C   0  0  0  0  0  0  0  0  0  0  0  0
    7.1267  -13.4155   26.1583 C   0  0  0  0  0  0  0  0  0  0  0  0
    8.0528  -14.4024   25.5472 C   0  0  0  0  0  0  0  0  0  0  0  0
    7.2005  -15.3681   24.7153 C   0  0  2  0  0  0  0  0  0  0  0  0
    6.5395  -16.3022   25.5606 N   0  0  0  0  0  0  0  0  0  0  0  0
    7.9541  -15.9521   23.5894 C   0  0  0  0  0  0  0  0  0  0  0  0
    8.3123  -17.1641   23.7386 O   0  0  0  0  0  0  0  0  0  0  0  0
    6.1757  -12.7856   25.3818 C   0  0  0  0  0  0  0  0  0  0  0  0
    5.2811  -11.8570   25.9002 C   0  0  0  0  0  0  0  0  0  0  0  0
    7.9909  -12.8144   15.7459 N   0  0  0  0  0  0  0  0  0  0  0  0
    8.6396  -14.0317   16.0601 C   0  0  0  0  0  0  0  0  0  0  0  0
    9.3562  -14.6868   15.2062 N   0  0  0  0  0  0  0  0  0  0  0  0
    8.4957  -14.5561   17.3679 N   0  0  0  0  0  0  0  0  0  0  0  0
    7.6943  -13.8665   18.3880 C   0  0  0  0  0  0  0  0  0  0  0  0
    7.7031  -14.6163   19.6689 C   0  0  0  0  0  0  0  0  0  0  0  0
    9.0232  -15.0619   20.1518 C   0  0  0  0  0  0  0  0  0  0  0  0
    9.0455  -15.9757   21.3471 C   0  0  2  0  0  0  0  0  0  0  0  0
    8.2875  -15.2823   22.4112 N   0  0  0  0  0  0  0  0  0  0  0  0
   10.3746  -16.2557   21.8940 C   0  0  0  0  0  0  0  0  0  0  0  0
   10.9162  -15.4033   22.6813 O   0  0  0  0  0  0  0  0  0  0  0  0
    9.8075  -15.5880   15.3949 N   0  0  0  0  0  0  0  0  0  0  0  0
   11.1737  -17.3959   21.6581 C   0  0  2  0  0  0  0  0  0  0  0  0
   12.5041  -17.5697   22.1503 C   0  0  0  0  0  0  0  0  0  0  0  0
   12.6705  -18.8218   22.9865 S   0  0  0  0  0  0  0  0  0  0  0  0
   14.3939  -18.8008   23.6010 C   0  0  0  0  0  0  0  0  0  0  0  0
   13.5355  -17.5442   21.1157 O   0  0  0  0  0  0  0  0  0  0  0  0
   13.4487  -18.1257   19.8650 O   0  0  0  0  0  0  0  0  0  0  0  0
  2  1  1  0
  3  2  2  0
  4  3  1  0
  5 11  1  0
  5  4  2  0
  6  5  1  0
  7  6  1  0
  7  8  1  1
  9  7  1  0
  9 10  2  0
 11 12  2  0
 12  2  1  0
 13 14  1  0
 14 15  2  0
 16 14  1  0
 16 17  1  0
 18 17  1  0
 20 19  1  6
 19 18  1  0
 20 21  1  0
 21  9  1  0
 22 20  1  0
 23 22  2  0
 24 22  1  0
 25 28  1  0
 25 24  1  0
 25 26  1  6
 27 26  1  0
 28 29  1  0
 30 28  2  0
M  END
$$$$
