YRC.pdb
     RDKit          3D

 30 30  0  0  1  0  0  0  0  0999 V2000
   10.7033  -21.8703   29.3037 O   0  0  0  0  0  0  0  0  0  0  0  0
   10.7745  -20.6719   28.6076 C   0  0  0  0  0  0  0  0  0  0  0  0
   11.8199  -19.7858   28.7511 C   0  0  0  0  0  0  0  0  0  0  0  0
   11.8658  -18.5953   28.0418 C   0  0  0  0  0  0  0  0  0  0  0  0
   10.8627  -18.2698   27.1728 C   0  0  0  0  0  0  0  0  0  0  0  0
   10.8755  -17.0074   26.3911 C   0  0  0  0  0  0  0  0  0  0  0  0
   10.9068  -17.3937   24.9076 C   0  0  2  0  0  0  0  0  0  0  0  0
   12.1903  -17.8932   24.5511 N   0  0  0  0  0  0  0  0  0  0  0  0
   10.3769  -16.3250   24.0395 C   0  0  0  0  0  0  0  0  0  0  0  0
   11.2188  -15.4400   23.6823 O   0  0  0  0  0  0  0  0  0  0  0  0
    9.8177  -19.1601   27.0326 C   0  0  0  0  0  0  0  0  0  0  0  0
    9.7549  -20.3575   27.7351 C   0  0  0  0  0  0  0  0  0  0  0  0
    9.2961  -14.3120   18.6453 N   0  0  0  0  0  0  0  0  0  0  0  0
    8.1069  -13.6590   18.2439 C   0  0  0  0  0  0  0  0  0  0  0  0
    7.7206  -13.5978   17.0116 N   0  0  0  0  0  0  0  0  0  0  0  0
    7.3057  -13.0440   19.2368 N   0  0  0  0  0  0  0  0  0  0  0  0
    7.7072  -13.0337   20.6500 C   0  0  0  0  0  0  0  0  0  0  0  0
    6.9147  -14.0121   21.4359 C   0  0  0  0  0  0  0  0  0  0  0  0
    7.6598  -15.1599   21.9852 C   0  0  0  0  0  0  0  0  0  0  0  0
    8.4935  -14.9143   23.2136 C   0  0  2  0  0  0  0  0  0  0  0  0
    9.0558  -16.2264   23.6002 N   0  0  0  0  0  0  0  0  0  0  0  0
    7.7585  -14.4142   24.3770 C   0  0  0  0  0  0  0  0  0  0  0  0
    6.9703  -15.2059   25.0030 O   0  0  0  0  0  0  0  0  0  0  0  0
    6.8868  -13.0968   16.6872 N   0  0  0  0  0  0  0  0  0  0  0  0
    7.8083  -13.1142   24.9262 C   0  0  2  0  0  0  0  0  0  0  0  0
    7.0449  -12.6803   26.0539 C   0  0  0  0  0  0  0  0  0  0  0  0
    7.4097  -11.2855   26.5185 S   0  0  0  0  0  0  0  0  0  0  0  0
    9.2187  -11.2948   26.7930 C   0  0  0  0  0  0  0  0  0  0  0  0
    5.5981  -12.7596   25.8663 O   0  0  0  0  0  0  0  0  0  0  0  0
    4.6385  -12.5569   26.8399 O   0  0  0  0  0  0  0  0  0  0  0  0
  2  1  1  0
  3  2  2  0
  4  3  1  0
  5 11  1  0
  5  4  2  0
  6  5  1  0
  7  6  1  0
  7  8  1  6
  9  7  1  0
  9 10  2  0
 11 12  2  0
 12  2  1  0
 13 14  1  0
 14 15  2  0
 16 14  1  0
 16 17  1  0
 18 17  1  0
 20 19  1  6
 19 18  1  0
 20 21  1  0
 21  9  1  0
 22 20  1  0
 23 22  2  0
 24 22  1  0
 25 28  1  0
 25 24  1  0
 25 26  1  6
 27 26  1  0
 28 29  1  0
 30 28  2  0
M  END
$$$$
