YRC.pdb
     RDKit          3D

 30 30  0  0  1  0  0  0  0  0999 V2000
    6.4425  -18.7271   25.7385 O   0  0  0  0  0  0  0  0  0  0  0  0
    7.4026  -19.1875   26.6286 C   0  0  0  0  0  0  0  0  0  0  0  0
    7.2278  -19.1610   27.9951 C   0  0  0  0  0  0  0  0  0  0  0  0
    8.2041  -19.6288   28.8615 C   0  0  0  0  0  0  0  0  0  0  0  0
    9.3765  -20.1335   28.3736 C   0  0  0  0  0  0  0  0  0  0  0  0
   10.4454  -20.6482   29.2665 C   0  0  0  0  0  0  0  0  0  0  0  0
   10.4741  -22.1728   29.1063 C   0  0  2  0  0  0  0  0  0  0  0  0
    9.2257  -22.7365   29.4907 N   0  0  0  0  0  0  0  0  0  0  0  0
   11.6649  -22.7791   29.7316 C   0  0  0  0  0  0  0  0  0  0  0  0
   11.6491  -22.8345   31.0029 O   0  0  0  0  0  0  0  0  0  0  0  0
    9.5471  -20.1576   27.0045 C   0  0  0  0  0  0  0  0  0  0  0  0
    8.5800  -19.6932   26.1211 C   0  0  0  0  0  0  0  0  0  0  0  0
   16.9423  -22.2995   25.1678 N   0  0  0  0  0  0  0  0  0  0  0  0
   17.0379  -23.6564   24.7790 C   0  0  0  0  0  0  0  0  0  0  0  0
   17.7114  -24.0456   23.7463 N   0  0  0  0  0  0  0  0  0  0  0  0
   16.3642  -24.6307   25.5554 N   0  0  0  0  0  0  0  0  0  0  0  0
   16.4573  -24.6432   27.0216 C   0  0  0  0  0  0  0  0  0  0  0  0
   15.2710  -23.9969   27.6362 C   0  0  0  0  0  0  0  0  0  0  0  0
   14.6682  -24.7016   28.7827 C   0  0  0  0  0  0  0  0  0  0  0  0
   13.9076  -23.8689   29.7789 C   0  0  2  0  0  0  0  0  0  0  0  0
   12.7698  -23.2788   29.0408 N   0  0  0  0  0  0  0  0  0  0  0  0
   14.6554  -22.7516   30.3589 C   0  0  0  0  0  0  0  0  0  0  0  0
   14.7303  -21.6495   29.7111 O   0  0  0  0  0  0  0  0  0  0  0  0
   17.8302  -25.0242   23.4639 N   0  0  0  0  0  0  0  0  0  0  0  0
   15.3346  -22.7279   31.5967 C   0  0  1  0  0  0  0  0  0  0  0  0
   16.0365  -21.5959   32.1151 C   0  0  0  0  0  0  0  0  0  0  0  0
   15.7871  -21.3659   33.5914 S   0  0  0  0  0  0  0  0  0  0  0  0
   14.0128  -20.9484   33.7512 C   0  0  0  0  0  0  0  0  0  0  0  0
   17.4768  -21.6186   31.8705 O   0  0  0  0  0  0  0  0  0  0  0  0
   18.3823  -20.6457   32.2491 O   0  0  0  0  0  0  0  0  0  0  0  0
  2  1  1  0
  3  2  2  0
  4  3  1  0
  5 11  1  0
  5  4  2  0
  6  5  1  0
  7  6  1  0
  7  8  1  1
  9  7  1  0
  9 10  2  0
 11 12  2  0
 12  2  1  0
 13 14  1  0
 14 15  2  0
 16 14  1  0
 16 17  1  0
 18 17  1  0
 20 19  1  6
 19 18  1  0
 20 21  1  0
 21  9  1  0
 22 20  1  0
 23 22  2  0
 24 22  1  0
 25 28  1  0
 25 24  1  0
 25 26  1  1
 27 26  1  0
 28 29  1  0
 30 28  2  0
M  END
$$$$
