YRC.pdb
     RDKit          3D

 30 30  0  0  1  0  0  0  0  0999 V2000
    9.3440  -13.3500   16.4781 O   0  0  0  0  0  0  0  0  0  0  0  0
    8.7677  -13.5923   17.7170 C   0  0  0  0  0  0  0  0  0  0  0  0
    7.4673  -13.2481   18.0160 C   0  0  0  0  0  0  0  0  0  0  0  0
    6.9166  -13.5032   19.2627 C   0  0  0  0  0  0  0  0  0  0  0  0
    7.6603  -14.1098   20.2354 C   0  0  0  0  0  0  0  0  0  0  0  0
    7.1075  -14.4045   21.5817 C   0  0  0  0  0  0  0  0  0  0  0  0
    6.9343  -15.9250   21.6772 C   0  0  2  0  0  0  0  0  0  0  0  0
    5.9568  -16.3732   20.7458 N   0  0  0  0  0  0  0  0  0  0  0  0
    6.7438  -16.3805   23.0674 C   0  0  0  0  0  0  0  0  0  0  0  0
    5.5603  -16.2733   23.5228 O   0  0  0  0  0  0  0  0  0  0  0  0
    8.9621  -14.4522   19.9316 C   0  0  0  0  0  0  0  0  0  0  0  0
    9.5307  -14.2044   18.6880 C   0  0  0  0  0  0  0  0  0  0  0  0
   11.8021  -19.8392   25.7075 N   0  0  0  0  0  0  0  0  0  0  0  0
   11.4298  -20.6895   24.6398 C   0  0  0  0  0  0  0  0  0  0  0  0
   12.2463  -21.0340   23.6984 N   0  0  0  0  0  0  0  0  0  0  0  0
   10.1029  -21.1833   24.6005 N   0  0  0  0  0  0  0  0  0  0  0  0
    9.0315  -20.5708   25.3977 C   0  0  0  0  0  0  0  0  0  0  0  0
    8.8931  -19.1268   25.0838 C   0  0  0  0  0  0  0  0  0  0  0  0
    7.7620  -18.4287   25.7223 C   0  0  0  0  0  0  0  0  0  0  0  0
    7.5453  -16.9869   25.3498 C   0  0  2  0  0  0  0  0  0  0  0  0
    7.7452  -16.9038   23.8867 N   0  0  0  0  0  0  0  0  0  0  0  0
    8.4820  -16.0382   25.9552 C   0  0  0  0  0  0  0  0  0  0  0  0
    9.7048  -16.0422   25.5753 O   0  0  0  0  0  0  0  0  0  0  0  0
   12.0000  -21.6359   22.9056 N   0  0  0  0  0  0  0  0  0  0  0  0
    8.2006  -15.0735   26.9473 C   0  0  1  0  0  0  0  0  0  0  0  0
    9.1919  -14.3775   27.7059 C   0  0  0  0  0  0  0  0  0  0  0  0
    8.6154  -13.2722   28.5665 S   0  0  0  0  0  0  0  0  0  0  0  0
    7.2460  -12.5352   27.6023 C   0  0  0  0  0  0  0  0  0  0  0  0
   10.0306  -15.2410   28.5340 O   0  0  0  0  0  0  0  0  0  0  0  0
   11.1427  -14.8480   29.2541 O   0  0  0  0  0  0  0  0  0  0  0  0
  2  1  1  0
  3  2  2  0
  4  3  1  0
  5 11  1  0
  5  4  2  0
  6  5  1  0
  7  6  1  0
  7  8  1  6
  9  7  1  0
  9 10  2  0
 11 12  2  0
 12  2  1  0
 13 14  1  0
 14 15  2  0
 16 14  1  0
 16 17  1  0
 18 17  1  0
 20 19  1  1
 19 18  1  0
 20 21  1  0
 21  9  1  0
 22 20  1  0
 23 22  2  0
 24 22  1  0
 25 28  1  0
 25 24  1  0
 25 26  1  1
 27 26  1  0
 28 29  1  0
 30 28  2  0
M  END
$$$$
