YRC.pdb
     RDKit          3D

 30 30  0  0  1  0  0  0  0  0999 V2000
    9.7827  -13.1200   16.2591 O   0  0  0  0  0  0  0  0  0  0  0  0
    9.1248  -13.4048   17.4474 C   0  0  0  0  0  0  0  0  0  0  0  0
    9.7855  -13.5749   18.6446 C   0  0  0  0  0  0  0  0  0  0  0  0
    9.1023  -13.8580   19.8175 C   0  0  0  0  0  0  0  0  0  0  0  0
    7.7409  -13.9759   19.8127 C   0  0  0  0  0  0  0  0  0  0  0  0
    6.9711  -14.2741   21.0470 C   0  0  0  0  0  0  0  0  0  0  0  0
    6.8604  -15.7996   21.1541 C   0  0  2  0  0  0  0  0  0  0  0  0
    5.8533  -16.2878   20.2758 N   0  0  0  0  0  0  0  0  0  0  0  0
    6.7598  -16.2567   22.5532 C   0  0  0  0  0  0  0  0  0  0  0  0
    5.6550  -16.0081   23.1337 O   0  0  0  0  0  0  0  0  0  0  0  0
    7.0837  -13.8051   18.6114 C   0  0  0  0  0  0  0  0  0  0  0  0
    7.7517  -13.5211   17.4263 C   0  0  0  0  0  0  0  0  0  0  0  0
    7.3092  -23.0601   27.6249 N   0  0  0  0  0  0  0  0  0  0  0  0
    7.5760  -22.0109   28.5357 C   0  0  0  0  0  0  0  0  0  0  0  0
    7.4555  -22.1444   29.8161 N   0  0  0  0  0  0  0  0  0  0  0  0
    7.9917  -20.7586   28.0209 N   0  0  0  0  0  0  0  0  0  0  0  0
    7.8274  -20.4191   26.6010 C   0  0  0  0  0  0  0  0  0  0  0  0
    8.2742  -19.0298   26.3304 C   0  0  0  0  0  0  0  0  0  0  0  0
    8.1645  -18.5727   24.9328 C   0  0  0  0  0  0  0  0  0  0  0  0
    7.6116  -17.1923   24.7023 C   0  0  2  0  0  0  0  0  0  0  0  0
    7.7652  -16.9220   23.2563 N   0  0  0  0  0  0  0  0  0  0  0  0
    8.3096  -16.1147   25.4064 C   0  0  0  0  0  0  0  0  0  0  0  0
    9.5052  -15.8158   25.0586 O   0  0  0  0  0  0  0  0  0  0  0  0
    7.6344  -21.4001   30.4983 N   0  0  0  0  0  0  0  0  0  0  0  0
    7.8140  -15.3239   26.4662 C   0  0  2  0  0  0  0  0  0  0  0  0
    8.5643  -14.3139   27.1440 C   0  0  0  0  0  0  0  0  0  0  0  0
    7.7312  -13.1065   27.5221 S   0  0  0  0  0  0  0  0  0  0  0  0
    6.9028  -12.5559   25.9863 C   0  0  0  0  0  0  0  0  0  0  0  0
    9.2818  -14.7893   28.3246 O   0  0  0  0  0  0  0  0  0  0  0  0
   10.1567  -14.0503   29.0982 O   0  0  0  0  0  0  0  0  0  0  0  0
  2  1  1  0
  3  2  2  0
  4  3  1  0
  5 11  1  0
  5  4  2  0
  6  5  1  0
  7  6  1  0
  7  8  1  6
  9  7  1  0
  9 10  2  0
 11 12  2  0
 12  2  1  0
 13 14  1  0
 14 15  2  0
 16 14  1  0
 16 17  1  0
 18 17  1  0
 20 19  1  6
 19 18  1  0
 20 21  1  0
 21  9  1  0
 22 20  1  0
 23 22  2  0
 24 22  1  0
 25 28  1  0
 25 24  1  0
 25 26  1  6
 27 26  1  0
 28 29  1  0
 30 28  2  0
M  END
$$$$
