YRC.pdb
     RDKit          3D

 30 30  0  0  1  0  0  0  0  0999 V2000
    4.9389   -9.9322   27.0372 O   0  0  0  0  0  0  0  0  0  0  0  0
    5.6829  -11.0497   26.6856 C   0  0  0  0  0  0  0  0  0  0  0  0
    5.9540  -11.3849   25.3769 C   0  0  0  0  0  0  0  0  0  0  0  0
    6.7014  -12.5074   25.0544 C   0  0  0  0  0  0  0  0  0  0  0  0
    7.1927  -13.3168   26.0397 C   0  0  0  0  0  0  0  0  0  0  0  0
    8.0005  -14.5255   25.7374 C   0  0  0  0  0  0  0  0  0  0  0  0
    7.0716  -15.5292   25.0441 C   0  0  2  0  0  0  0  0  0  0  0  0
    6.0714  -15.9862   25.9467 N   0  0  0  0  0  0  0  0  0  0  0  0
    7.8183  -16.5854   24.3347 C   0  0  0  0  0  0  0  0  0  0  0  0
    8.0244  -17.6518   24.9979 O   0  0  0  0  0  0  0  0  0  0  0  0
    6.9182  -12.9773   27.3488 C   0  0  0  0  0  0  0  0  0  0  0  0
    6.1712  -11.8565   27.6907 C   0  0  0  0  0  0  0  0  0  0  0  0
    7.6787  -13.6982   18.2162 N   0  0  0  0  0  0  0  0  0  0  0  0
    8.9329  -13.2688   18.7101 C   0  0  0  0  0  0  0  0  0  0  0  0
    9.1777  -12.0412   19.0339 N   0  0  0  0  0  0  0  0  0  0  0  0
    9.9663  -14.2267   18.8541 N   0  0  0  0  0  0  0  0  0  0  0  0
    9.6713  -15.6386   19.1333 C   0  0  0  0  0  0  0  0  0  0  0  0
    9.6254  -15.8942   20.5946 C   0  0  0  0  0  0  0  0  0  0  0  0
    9.2927  -17.2714   21.0031 C   0  0  0  0  0  0  0  0  0  0  0  0
    9.1817  -17.5430   22.4790 C   0  0  2  0  0  0  0  0  0  0  0  0
    8.2967  -16.4923   23.0268 N   0  0  0  0  0  0  0  0  0  0  0  0
   10.4392  -17.4625   23.2248 C   0  0  0  0  0  0  0  0  0  0  0  0
   11.2088  -16.4557   23.0408 O   0  0  0  0  0  0  0  0  0  0  0  0
   10.0744  -11.7031   19.3986 N   0  0  0  0  0  0  0  0  0  0  0  0
   10.9368  -18.3910   24.1652 C   0  0  1  0  0  0  0  0  0  0  0  0
   12.2123  -18.2950   24.8029 C   0  0  0  0  0  0  0  0  0  0  0  0
   12.1835  -18.7155   26.2578 S   0  0  0  0  0  0  0  0  0  0  0  0
   10.7987  -17.7999   27.0273 C   0  0  0  0  0  0  0  0  0  0  0  0
   13.2825  -19.0155   24.1171 O   0  0  0  0  0  0  0  0  0  0  0  0
   14.6059  -19.0752   24.5104 O   0  0  0  0  0  0  0  0  0  0  0  0
  2  1  1  0
  3  2  2  0
  4  3  1  0
  5 11  1  0
  5  4  2  0
  6  5  1  0
  7  6  1  0
  7  8  1  1
  9  7  1  0
  9 10  2  0
 11 12  2  0
 12  2  1  0
 13 14  1  0
 14 15  2  0
 16 14  1  0
 16 17  1  0
 18 17  1  0
 20 19  1  6
 19 18  1  0
 20 21  1  0
 21  9  1  0
 22 20  1  0
 23 22  2  0
 24 22  1  0
 25 28  1  0
 25 24  1  0
 25 26  1  1
 27 26  1  0
 28 29  1  0
 30 28  2  0
M  END
$$$$
