YRC.pdb
     RDKit          3D

 30 30  0  0  1  0  0  0  0  0999 V2000
    8.6288  -13.4415   15.7483 O   0  0  0  0  0  0  0  0  0  0  0  0
    8.4667  -13.6498   17.1107 C   0  0  0  0  0  0  0  0  0  0  0  0
    9.1553  -14.6207   17.8049 C   0  0  0  0  0  0  0  0  0  0  0  0
    8.9742  -14.8062   19.1670 C   0  0  0  0  0  0  0  0  0  0  0  0
    8.0981  -14.0200   19.8609 C   0  0  0  0  0  0  0  0  0  0  0  0
    7.8779  -14.1830   21.3203 C   0  0  0  0  0  0  0  0  0  0  0  0
    7.0952  -15.4867   21.5173 C   0  0  2  0  0  0  0  0  0  0  0  0
    5.8028  -15.3837   20.9316 N   0  0  0  0  0  0  0  0  0  0  0  0
    7.1235  -15.9506   22.9174 C   0  0  0  0  0  0  0  0  0  0  0  0
    6.2927  -15.3868   23.6993 O   0  0  0  0  0  0  0  0  0  0  0  0
    7.4105  -13.0493   19.1614 C   0  0  0  0  0  0  0  0  0  0  0  0
    7.5790  -12.8491   17.7965 C   0  0  0  0  0  0  0  0  0  0  0  0
   10.7252  -23.3872   24.3434 N   0  0  0  0  0  0  0  0  0  0  0  0
   11.6168  -22.3435   24.0010 C   0  0  0  0  0  0  0  0  0  0  0  0
   12.8453  -22.5535   23.6566 N   0  0  0  0  0  0  0  0  0  0  0  0
   11.1421  -21.0097   24.0391 N   0  0  0  0  0  0  0  0  0  0  0  0
    9.8118  -20.6827   24.5699 C   0  0  0  0  0  0  0  0  0  0  0  0
    9.5586  -19.2215   24.5094 C   0  0  0  0  0  0  0  0  0  0  0  0
    8.2132  -18.7778   24.9188 C   0  0  0  0  0  0  0  0  0  0  0  0
    7.9265  -17.3021   24.8535 C   0  0  2  0  0  0  0  0  0  0  0  0
    7.9748  -16.9350   23.4215 N   0  0  0  0  0  0  0  0  0  0  0  0
    8.8975  -16.4466   25.5384 C   0  0  0  0  0  0  0  0  0  0  0  0
    9.9128  -16.0136   24.8891 O   0  0  0  0  0  0  0  0  0  0  0  0
   13.4943  -21.8247   23.3421 N   0  0  0  0  0  0  0  0  0  0  0  0
    8.8588  -16.0146   26.8822 C   0  0  1  0  0  0  0  0  0  0  0  0
    9.8293  -15.1571   27.4868 C   0  0  0  0  0  0  0  0  0  0  0  0
    9.2474  -13.8419   27.9625 S   0  0  0  0  0  0  0  0  0  0  0  0
   10.6613  -12.8402   28.5503 C   0  0  0  0  0  0  0  0  0  0  0  0
   10.5773  -15.7733   28.5801 O   0  0  0  0  0  0  0  0  0  0  0  0
   11.8102  -15.3668   29.0538 O   0  0  0  0  0  0  0  0  0  0  0  0
  2  1  1  0
  3  2  2  0
  4  3  1  0
  5 11  1  0
  5  4  2  0
  6  5  1  0
  7  6  1  0
  7  8  1  1
  9  7  1  0
  9 10  2  0
 11 12  2  0
 12  2  1  0
 13 14  1  0
 14 15  2  0
 16 14  1  0
 16 17  1  0
 18 17  1  0
 20 19  1  6
 19 18  1  0
 20 21  1  0
 21  9  1  0
 22 20  1  0
 23 22  2  0
 24 22  1  0
 25 28  1  0
 25 24  1  0
 25 26  1  1
 27 26  1  0
 28 29  1  0
 30 28  2  0
M  END
$$$$
