YRC.pdb
     RDKit          3D

 30 30  0  0  1  0  0  0  0  0999 V2000
   10.8866  -21.8569   30.4289 O   0  0  0  0  0  0  0  0  0  0  0  0
   10.8586  -20.7131   29.6437 C   0  0  0  0  0  0  0  0  0  0  0  0
    9.8437  -20.4446   28.7512 C   0  0  0  0  0  0  0  0  0  0  0  0
    9.8408  -19.2926   27.9794 C   0  0  0  0  0  0  0  0  0  0  0  0
   10.8571  -18.3856   28.0882 C   0  0  0  0  0  0  0  0  0  0  0  0
   10.8899  -17.1381   27.2835 C   0  0  0  0  0  0  0  0  0  0  0  0
   11.1156  -17.5472   25.8231 C   0  0  2  0  0  0  0  0  0  0  0  0
   12.4003  -18.1377   25.6652 N   0  0  0  0  0  0  0  0  0  0  0  0
   10.7965  -16.4577   24.8809 C   0  0  0  0  0  0  0  0  0  0  0  0
   11.7445  -15.6427   24.6428 O   0  0  0  0  0  0  0  0  0  0  0  0
   11.8714  -18.6590   28.9829 C   0  0  0  0  0  0  0  0  0  0  0  0
   11.8910  -19.8080   29.7644 C   0  0  0  0  0  0  0  0  0  0  0  0
    7.2287  -12.8759   19.8323 N   0  0  0  0  0  0  0  0  0  0  0  0
    7.8569  -13.9492   19.1579 C   0  0  0  0  0  0  0  0  0  0  0  0
    8.4606  -13.8091   18.0232 N   0  0  0  0  0  0  0  0  0  0  0  0
    7.8208  -15.2344   19.7522 N   0  0  0  0  0  0  0  0  0  0  0  0
    6.7855  -15.6004   20.7283 C   0  0  0  0  0  0  0  0  0  0  0  0
    7.2499  -15.3513   22.1158 C   0  0  0  0  0  0  0  0  0  0  0  0
    8.7063  -15.2085   22.2977 C   0  0  0  0  0  0  0  0  0  0  0  0
    9.2027  -14.9504   23.6946 C   0  0  2  0  0  0  0  0  0  0  0  0
    9.5629  -16.2707   24.2554 N   0  0  0  0  0  0  0  0  0  0  0  0
    8.2207  -14.3615   24.6072 C   0  0  0  0  0  0  0  0  0  0  0  0
    7.3406  -15.1185   25.1478 O   0  0  0  0  0  0  0  0  0  0  0  0
    8.8354  -14.5824   17.4638 N   0  0  0  0  0  0  0  0  0  0  0  0
    8.1128  -13.0061   24.9887 C   0  0  2  0  0  0  0  0  0  0  0  0
    7.0983  -12.4843   25.8496 C   0  0  0  0  0  0  0  0  0  0  0  0
    6.9137  -10.9871   25.7125 S   0  0  0  0  0  0  0  0  0  0  0  0
    6.2892  -10.3989   27.3287 C   0  0  0  0  0  0  0  0  0  0  0  0
    5.8002  -13.1412   25.7154 O   0  0  0  0  0  0  0  0  0  0  0  0
    5.2681  -13.6630   24.5516 O   0  0  0  0  0  0  0  0  0  0  0  0
  2  1  1  0
  3  2  2  0
  4  3  1  0
  5 11  1  0
  5  4  2  0
  6  5  1  0
  7  6  1  0
  7  8  1  1
  9  7  1  0
  9 10  2  0
 11 12  2  0
 12  2  1  0
 13 14  1  0
 14 15  2  0
 16 14  1  0
 16 17  1  0
 18 17  1  0
 20 19  1  6
 19 18  1  0
 20 21  1  0
 21  9  1  0
 22 20  1  0
 23 22  2  0
 24 22  1  0
 25 28  1  0
 25 24  1  0
 25 26  1  6
 27 26  1  0
 28 29  1  0
 30 28  2  0
M  END
$$$$
