YRC.pdb
     RDKit          3D

 30 30  0  0  1  0  0  0  0  0999 V2000
    7.1984  -11.6656   16.6083 O   0  0  0  0  0  0  0  0  0  0  0  0
    7.5464  -12.3979   17.7346 C   0  0  0  0  0  0  0  0  0  0  0  0
    8.5753  -13.3144   17.7409 C   0  0  0  0  0  0  0  0  0  0  0  0
    8.9021  -14.0319   18.8815 C   0  0  0  0  0  0  0  0  0  0  0  0
    8.2025  -13.8436   20.0402 C   0  0  0  0  0  0  0  0  0  0  0  0
    8.5227  -14.5883   21.2843 C   0  0  0  0  0  0  0  0  0  0  0  0
    8.1321  -16.0522   21.0490 C   0  0  2  0  0  0  0  0  0  0  0  0
    6.7171  -16.1850   20.9853 N   0  0  0  0  0  0  0  0  0  0  0  0
    8.8155  -16.9705   21.9797 C   0  0  0  0  0  0  0  0  0  0  0  0
    8.2352  -17.1509   23.0978 O   0  0  0  0  0  0  0  0  0  0  0  0
    7.1727  -12.9251   20.0289 C   0  0  0  0  0  0  0  0  0  0  0  0
    6.8311  -12.1972   18.8954 C   0  0  0  0  0  0  0  0  0  0  0  0
   12.9614  -22.9091   21.9667 N   0  0  0  0  0  0  0  0  0  0  0  0
   12.0428  -23.3732   20.9961 C   0  0  0  0  0  0  0  0  0  0  0  0
   11.7358  -24.6217   20.8594 N   0  0  0  0  0  0  0  0  0  0  0  0
   11.4342  -22.4274   20.1351 N   0  0  0  0  0  0  0  0  0  0  0  0
   11.8940  -21.0332   20.0781 C   0  0  0  0  0  0  0  0  0  0  0  0
   10.9683  -20.1366   20.8145 C   0  0  0  0  0  0  0  0  0  0  0  0
   11.5256  -19.4592   21.9997 C   0  0  0  0  0  0  0  0  0  0  0  0
   10.6188  -18.5153   22.7421 C   0  0  2  0  0  0  0  0  0  0  0  0
   10.0172  -17.6313   21.7203 N   0  0  0  0  0  0  0  0  0  0  0  0
   11.2846  -17.6428   23.7113 C   0  0  0  0  0  0  0  0  0  0  0  0
   11.2729  -16.3767   23.5202 O   0  0  0  0  0  0  0  0  0  0  0  0
   12.0827  -25.3757   21.4615 N   0  0  0  0  0  0  0  0  0  0  0  0
   11.9676  -18.0319   24.8844 C   0  0  2  0  0  0  0  0  0  0  0  0
   11.5368  -17.7271   26.2126 C   0  0  0  0  0  0  0  0  0  0  0  0
   10.1788  -17.0577   26.2590 S   0  0  0  0  0  0  0  0  0  0  0  0
    9.9650  -16.4532   27.9727 C   0  0  0  0  0  0  0  0  0  0  0  0
   11.5383  -18.8708   27.1219 O   0  0  0  0  0  0  0  0  0  0  0  0
   12.0793  -18.8996   28.3932 O   0  0  0  0  0  0  0  0  0  0  0  0
  2  1  1  0
  3  2  2  0
  4  3  1  0
  5 11  1  0
  5  4  2  0
  6  5  1  0
  7  6  1  0
  7  8  1  1
  9  7  1  0
  9 10  2  0
 11 12  2  0
 12  2  1  0
 13 14  1  0
 14 15  2  0
 16 14  1  0
 16 17  1  0
 18 17  1  0
 20 19  1  6
 19 18  1  0
 20 21  1  0
 21  9  1  0
 22 20  1  0
 23 22  2  0
 24 22  1  0
 25 28  1  0
 25 24  1  0
 25 26  1  6
 27 26  1  0
 28 29  1  0
 30 28  2  0
M  END
$$$$
