YRC.pdb
     RDKit          3D

 30 30  0  0  1  0  0  0  0  0999 V2000
    9.0628  -13.3628   15.8735 O   0  0  0  0  0  0  0  0  0  0  0  0
    8.6462  -13.5124   17.1888 C   0  0  0  0  0  0  0  0  0  0  0  0
    7.6004  -12.7946   17.7271 C   0  0  0  0  0  0  0  0  0  0  0  0
    7.2046  -12.9651   19.0450 C   0  0  0  0  0  0  0  0  0  0  0  0
    7.8505  -13.8607   19.8500 C   0  0  0  0  0  0  0  0  0  0  0  0
    7.4557  -14.0765   21.2651 C   0  0  0  0  0  0  0  0  0  0  0  0
    6.9792  -15.5289   21.3858 C   0  0  2  0  0  0  0  0  0  0  0  0
    5.8114  -15.7357   20.6001 N   0  0  0  0  0  0  0  0  0  0  0  0
    6.8880  -15.9733   22.7896 C   0  0  0  0  0  0  0  0  0  0  0  0
    5.8274  -15.6332   23.4051 O   0  0  0  0  0  0  0  0  0  0  0  0
    8.8974  -14.5769   19.3066 C   0  0  0  0  0  0  0  0  0  0  0  0
    9.3079  -14.4192   17.9883 C   0  0  0  0  0  0  0  0  0  0  0  0
    6.9308  -23.0055   28.6117 N   0  0  0  0  0  0  0  0  0  0  0  0
    7.6823  -21.8286   28.3845 C   0  0  0  0  0  0  0  0  0  0  0  0
    8.9448  -21.7391   28.6486 N   0  0  0  0  0  0  0  0  0  0  0  0
    7.0208  -20.6982   27.8453 N   0  0  0  0  0  0  0  0  0  0  0  0
    7.2576  -20.2560   26.4643 C   0  0  0  0  0  0  0  0  0  0  0  0
    8.0662  -19.0118   26.4348 C   0  0  0  0  0  0  0  0  0  0  0  0
    8.2634  -18.3964   25.1093 C   0  0  0  0  0  0  0  0  0  0  0  0
    7.7058  -17.0140   24.9032 C   0  0  2  0  0  0  0  0  0  0  0  0
    7.8581  -16.7179   23.4622 N   0  0  0  0  0  0  0  0  0  0  0  0
    8.4004  -15.9467   25.6260 C   0  0  0  0  0  0  0  0  0  0  0  0
    9.5590  -15.5758   25.2262 O   0  0  0  0  0  0  0  0  0  0  0  0
    9.5319  -20.9307   28.4178 N   0  0  0  0  0  0  0  0  0  0  0  0
    7.9383  -15.2385   26.7569 C   0  0  2  0  0  0  0  0  0  0  0  0
    8.7184  -14.2995   27.5003 C   0  0  0  0  0  0  0  0  0  0  0  0
    7.8835  -13.2182   28.1548 S   0  0  0  0  0  0  0  0  0  0  0  0
    6.8057  -12.5392   26.8413 C   0  0  0  0  0  0  0  0  0  0  0  0
    9.5907  -14.9046   28.5041 O   0  0  0  0  0  0  0  0  0  0  0  0
   10.5190  -14.2401   29.2830 O   0  0  0  0  0  0  0  0  0  0  0  0
  2  1  1  0
  3  2  2  0
  4  3  1  0
  5 11  1  0
  5  4  2  0
  6  5  1  0
  7  6  1  0
  7  8  1  1
  9  7  1  0
  9 10  2  0
 11 12  2  0
 12  2  1  0
 13 14  1  0
 14 15  2  0
 16 14  1  0
 16 17  1  0
 18 17  1  0
 20 19  1  6
 19 18  1  0
 20 21  1  0
 21  9  1  0
 22 20  1  0
 23 22  2  0
 24 22  1  0
 25 28  1  0
 25 24  1  0
 25 26  1  6
 27 26  1  0
 28 29  1  0
 30 28  2  0
M  END
$$$$
