YRC.pdb
     RDKit          3D

 30 30  0  0  1  0  0  0  0  0999 V2000
    9.4591  -12.2296   18.3935 O   0  0  0  0  0  0  0  0  0  0  0  0
    8.6261  -13.0325   19.1599 C   0  0  0  0  0  0  0  0  0  0  0  0
    7.5168  -13.6658   18.6431 C   0  0  0  0  0  0  0  0  0  0  0  0
    6.7022  -14.4635   19.4323 C   0  0  0  0  0  0  0  0  0  0  0  0
    6.9849  -14.6423   20.7572 C   0  0  0  0  0  0  0  0  0  0  0  0
    6.1410  -15.4913   21.6358 C   0  0  0  0  0  0  0  0  0  0  0  0
    6.2642  -16.9324   21.1268 C   0  0  2  0  0  0  0  0  0  0  0  0
    5.2934  -17.7645   21.7506 N   0  0  0  0  0  0  0  0  0  0  0  0
    7.6530  -17.4274   21.1783 C   0  0  0  0  0  0  0  0  0  0  0  0
    8.0544  -17.8184   22.3208 O   0  0  0  0  0  0  0  0  0  0  0  0
    8.0965  -14.0058   21.2703 C   0  0  0  0  0  0  0  0  0  0  0  0
    8.9242  -13.2028   20.4948 C   0  0  0  0  0  0  0  0  0  0  0  0
   12.9197  -18.2716   14.5117 N   0  0  0  0  0  0  0  0  0  0  0  0
   13.3604  -17.4352   15.5641 C   0  0  0  0  0  0  0  0  0  0  0  0
   14.3085  -16.5676   15.4221 N   0  0  0  0  0  0  0  0  0  0  0  0
   12.7357  -17.5554   16.8295 N   0  0  0  0  0  0  0  0  0  0  0  0
   12.3537  -18.8645   17.3762 C   0  0  0  0  0  0  0  0  0  0  0  0
   11.8193  -18.7308   18.7544 C   0  0  0  0  0  0  0  0  0  0  0  0
   10.4729  -18.1417   18.8748 C   0  0  0  0  0  0  0  0  0  0  0  0
    9.8889  -18.0382   20.2578 C   0  0  2  0  0  0  0  0  0  0  0  0
    8.5248  -17.4919   20.0902 N   0  0  0  0  0  0  0  0  0  0  0  0
   10.5941  -17.1326   21.1670 C   0  0  0  0  0  0  0  0  0  0  0  0
   10.6757  -15.8900   20.8688 O   0  0  0  0  0  0  0  0  0  0  0  0
   14.7015  -16.0050   16.1839 N   0  0  0  0  0  0  0  0  0  0  0  0
   11.2235  -17.4645   22.3868 C   0  0  1  0  0  0  0  0  0  0  0  0
   11.9829  -16.5516   23.1822 C   0  0  0  0  0  0  0  0  0  0  0  0
   11.6062  -16.5846   24.6491 S   0  0  0  0  0  0  0  0  0  0  0  0
    9.8473  -16.0877   24.7365 C   0  0  0  0  0  0  0  0  0  0  0  0
   13.4303  -16.7051   23.0559 O   0  0  0  0  0  0  0  0  0  0  0  0
   14.3881  -15.8673   23.5948 O   0  0  0  0  0  0  0  0  0  0  0  0
  2  1  1  0
  3  2  2  0
  4  3  1  0
  5 11  1  0
  5  4  2  0
  6  5  1  0
  7  6  1  0
  7  8  1  1
  9  7  1  0
  9 10  2  0
 11 12  2  0
 12  2  1  0
 13 14  1  0
 14 15  2  0
 16 14  1  0
 16 17  1  0
 18 17  1  0
 20 19  1  6
 19 18  1  0
 20 21  1  0
 21  9  1  0
 22 20  1  0
 23 22  2  0
 24 22  1  0
 25 28  1  0
 25 24  1  0
 25 26  1  1
 27 26  1  0
 28 29  1  0
 30 28  2  0
M  END
$$$$
