YRC.pdb
     RDKit          3D

 30 30  0  0  1  0  0  0  0  0999 V2000
    8.8825  -12.8071   16.7082 O   0  0  0  0  0  0  0  0  0  0  0  0
    8.4519  -13.1734   17.9756 C   0  0  0  0  0  0  0  0  0  0  0  0
    9.3210  -13.4805   18.9998 C   0  0  0  0  0  0  0  0  0  0  0  0
    8.8628  -13.8425   20.2574 C   0  0  0  0  0  0  0  0  0  0  0  0
    7.5217  -13.9034   20.5129 C   0  0  0  0  0  0  0  0  0  0  0  0
    6.9897  -14.2826   21.8464 C   0  0  0  0  0  0  0  0  0  0  0  0
    7.0052  -15.8140   21.9213 C   0  0  2  0  0  0  0  0  0  0  0  0
    6.0355  -16.3646   21.0379 N   0  0  0  0  0  0  0  0  0  0  0  0
    6.9521  -16.3070   23.3107 C   0  0  0  0  0  0  0  0  0  0  0  0
    5.7852  -16.4978   23.7812 O   0  0  0  0  0  0  0  0  0  0  0  0
    6.6553  -13.5954   19.4840 C   0  0  0  0  0  0  0  0  0  0  0  0
    7.0963  -13.2306   18.2177 C   0  0  0  0  0  0  0  0  0  0  0  0
    9.6683  -22.5395   23.0794 N   0  0  0  0  0  0  0  0  0  0  0  0
   10.5901  -21.5586   23.5147 C   0  0  0  0  0  0  0  0  0  0  0  0
   11.5289  -21.0916   22.7581 N   0  0  0  0  0  0  0  0  0  0  0  0
   10.4799  -21.0682   24.8389 N   0  0  0  0  0  0  0  0  0  0  0  0
    9.2162  -20.5232   25.3533 C   0  0  0  0  0  0  0  0  0  0  0  0
    9.1373  -19.0582   25.1285 C   0  0  0  0  0  0  0  0  0  0  0  0
    7.9387  -18.3831   25.6595 C   0  0  0  0  0  0  0  0  0  0  0  0
    7.8888  -16.8832   25.5491 C   0  0  2  0  0  0  0  0  0  0  0  0
    8.0628  -16.5686   24.1144 N   0  0  0  0  0  0  0  0  0  0  0  0
    8.9471  -16.1689   26.2659 C   0  0  0  0  0  0  0  0  0  0  0  0
   10.1546  -16.2648   25.8505 O   0  0  0  0  0  0  0  0  0  0  0  0
   12.2358  -20.4128   23.0595 N   0  0  0  0  0  0  0  0  0  0  0  0
    8.8044  -15.3488   27.4065 C   0  0  1  0  0  0  0  0  0  0  0  0
    9.8758  -14.6449   28.0385 C   0  0  0  0  0  0  0  0  0  0  0  0
    9.4865  -13.2541   28.4954 S   0  0  0  0  0  0  0  0  0  0  0  0
    8.0114  -12.7891   27.5178 C   0  0  0  0  0  0  0  0  0  0  0  0
   10.4895  -15.3613   29.1543 O   0  0  0  0  0  0  0  0  0  0  0  0
   11.6335  -14.9855   29.8325 O   0  0  0  0  0  0  0  0  0  0  0  0
  2  1  1  0
  3  2  2  0
  4  3  1  0
  5 11  1  0
  5  4  2  0
  6  5  1  0
  7  6  1  0
  7  8  1  6
  9  7  1  0
  9 10  2  0
 11 12  2  0
 12  2  1  0
 13 14  1  0
 14 15  2  0
 16 14  1  0
 16 17  1  0
 18 17  1  0
 20 19  1  6
 19 18  1  0
 20 21  1  0
 21  9  1  0
 22 20  1  0
 23 22  2  0
 24 22  1  0
 25 28  1  0
 25 24  1  0
 25 26  1  1
 27 26  1  0
 28 29  1  0
 30 28  2  0
M  END
$$$$
