YRC.pdb
     RDKit          3D

 30 30  0  0  1  0  0  0  0  0999 V2000
   12.2459  -13.6416   17.2927 O   0  0  0  0  0  0  0  0  0  0  0  0
   11.1141  -13.6693   18.0954 C   0  0  0  0  0  0  0  0  0  0  0  0
    9.8507  -13.4032   17.6142 C   0  0  0  0  0  0  0  0  0  0  0  0
    8.7367  -13.4390   18.4391 C   0  0  0  0  0  0  0  0  0  0  0  0
    8.8683  -13.7432   19.7648 C   0  0  0  0  0  0  0  0  0  0  0  0
    7.7010  -13.7962   20.6811 C   0  0  0  0  0  0  0  0  0  0  0  0
    7.3394  -15.2744   20.8686 C   0  0  2  0  0  0  0  0  0  0  0  0
    6.3707  -15.6749   19.9067 N   0  0  0  0  0  0  0  0  0  0  0  0
    7.0143  -15.5977   22.2709 C   0  0  0  0  0  0  0  0  0  0  0  0
    5.7740  -15.6260   22.5543 O   0  0  0  0  0  0  0  0  0  0  0  0
   10.1355  -14.0085   20.2422 C   0  0  0  0  0  0  0  0  0  0  0  0
   11.2631  -13.9773   19.4305 C   0  0  0  0  0  0  0  0  0  0  0  0
    8.5739  -20.7325   29.0861 N   0  0  0  0  0  0  0  0  0  0  0  0
    7.5569  -21.0811   28.1664 C   0  0  0  0  0  0  0  0  0  0  0  0
    6.6500  -21.9659   28.4237 N   0  0  0  0  0  0  0  0  0  0  0  0
    7.5332  -20.4325   26.9074 N   0  0  0  0  0  0  0  0  0  0  0  0
    8.5566  -19.4477   26.5314 C   0  0  0  0  0  0  0  0  0  0  0  0
    7.9485  -18.1173   26.2797 C   0  0  0  0  0  0  0  0  0  0  0  0
    8.0489  -17.6078   24.8996 C   0  0  0  0  0  0  0  0  0  0  0  0
    7.5010  -16.2319   24.6332 C   0  0  2  0  0  0  0  0  0  0  0  0
    7.9490  -15.8654   23.2721 N   0  0  0  0  0  0  0  0  0  0  0  0
    7.9866  -15.1820   25.5309 C   0  0  0  0  0  0  0  0  0  0  0  0
    9.2132  -14.8211   25.4609 O   0  0  0  0  0  0  0  0  0  0  0  0
    5.8657  -22.1930   27.8034 N   0  0  0  0  0  0  0  0  0  0  0  0
    7.2453  -14.4814   26.5075 C   0  0  2  0  0  0  0  0  0  0  0  0
    7.7993  -13.5279   27.4167 C   0  0  0  0  0  0  0  0  0  0  0  0
    6.7483  -12.6828   28.1065 S   0  0  0  0  0  0  0  0  0  0  0  0
    5.6412  -12.0660   26.7866 C   0  0  0  0  0  0  0  0  0  0  0  0
    8.6874  -14.1038   28.4238 O   0  0  0  0  0  0  0  0  0  0  0  0
    9.4577  -13.3987   29.3289 O   0  0  0  0  0  0  0  0  0  0  0  0
  2  1  1  0
  3  2  2  0
  4  3  1  0
  5 11  1  0
  5  4  2  0
  6  5  1  0
  7  6  1  0
  7  8  1  6
  9  7  1  0
  9 10  2  0
 11 12  2  0
 12  2  1  0
 13 14  1  0
 14 15  2  0
 16 14  1  0
 16 17  1  0
 18 17  1  0
 20 19  1  1
 19 18  1  0
 20 21  1  0
 21  9  1  0
 22 20  1  0
 23 22  2  0
 24 22  1  0
 25 28  1  0
 25 24  1  0
 25 26  1  6
 27 26  1  0
 28 29  1  0
 30 28  2  0
M  END
$$$$
