RGA.pdb
     RDKit          3D

 21 20  0  0  1  0  0  0  0  0999 V2000
    9.3921  -13.5684   18.5909 N   0  0  0  0  0  0  0  0  0  0  0  0
    8.5413  -12.9994   19.5792 C   0  0  0  0  0  0  0  0  0  0  0  0
    8.6393  -11.7405   19.8620 N   0  0  0  0  0  0  0  0  0  0  0  0
    7.5874  -13.7895   20.2607 N   0  0  0  0  0  0  0  0  0  0  0  0
    7.5257  -15.2583   20.0745 C   0  0  0  0  0  0  0  0  0  0  0  0
    6.4644  -15.8319   20.9312 C   0  0  0  0  0  0  0  0  0  0  0  0
    6.8722  -16.5285   22.1578 C   0  0  0  0  0  0  0  0  0  0  0  0
    7.9835  -17.4953   22.1695 C   0  0  2  0  0  0  0  0  0  0  0  0
    7.4095  -18.7999   21.6623 N   0  0  0  0  0  0  0  0  0  0  0  0
    8.5544  -17.7812   23.4838 C   0  0  0  0  0  0  0  0  0  0  0  0
    8.1182  -18.7607   24.1838 O   0  0  0  0  0  0  0  0  0  0  0  0
    8.0574  -11.2771   20.5875 N   0  0  0  0  0  0  0  0  0  0  0  0
    9.6009  -16.9823   24.0091 C   0  0  0  0  0  0  0  0  0  0  0  0
   10.0610  -17.2651   25.3553 C   0  0  0  0  0  0  0  0  0  0  0  0
    9.4397  -16.3583   26.3264 O   0  0  0  0  0  0  0  0  0  0  0  0
    8.2944  -15.8850   26.0849 C   0  0  0  0  0  0  0  0  0  0  0  0
   10.3972  -14.9491   29.6861 C   0  0  2  0  0  0  0  0  0  0  0  0
    9.5267  -15.1204   28.4824 N   0  0  0  0  0  0  0  0  0  0  0  0
   10.1040  -16.0141   27.5154 C   0  0  0  0  0  0  0  0  0  0  0  0
    9.2937  -13.7893   27.8534 O   0  0  0  0  0  0  0  0  0  0  0  0
    9.9230  -13.4360   26.8313 O   0  0  0  0  0  0  0  0  0  0  0  0
  1  2  1  0
  2  3  2  0
  4  5  1  0
  4  2  1  0
  6  5  1  0
  7  6  1  0
  8 10  1  0
  8  7  1  0
  8  9  1  1
 10 12  1  0
 11 10  2  0
 12 13  1  0
 13 14  1  0
 14 15  2  0
 14 18  1  0
 17 16  1  1
 17 19  1  0
 18 17  1  0
 19 21  1  0
 20 19  2  0
M  END
$$$$
