RGA.pdb
     RDKit          3D

 21 20  0  0  1  0  0  0  0  0999 V2000
    8.0666  -13.3053   21.1168 N   0  0  0  0  0  0  0  0  0  0  0  0
    7.9517  -13.7056   19.7564 C   0  0  0  0  0  0  0  0  0  0  0  0
    7.8969  -12.8078   18.8261 N   0  0  0  0  0  0  0  0  0  0  0  0
    7.8956  -15.0731   19.4023 N   0  0  0  0  0  0  0  0  0  0  0  0
    8.1786  -16.1397   20.3913 C   0  0  0  0  0  0  0  0  0  0  0  0
    9.4679  -15.8734   21.0664 C   0  0  0  0  0  0  0  0  0  0  0  0
   10.4544  -16.9598   21.1181 C   0  0  0  0  0  0  0  0  0  0  0  0
   10.3799  -18.0298   22.1277 C   0  0  2  0  0  0  0  0  0  0  0  0
    8.9070  -18.2699   22.3760 N   0  0  0  0  0  0  0  0  0  0  0  0
   10.9688  -17.7112   23.4264 C   0  0  0  0  0  0  0  0  0  0  0  0
   12.2336  -17.5517   23.5460 O   0  0  0  0  0  0  0  0  0  0  0  0
    7.7972  -13.0427   17.8189 N   0  0  0  0  0  0  0  0  0  0  0  0
   10.1534  -17.5718   24.5776 C   0  0  0  0  0  0  0  0  0  0  0  0
   10.7991  -17.2236   25.8290 C   0  0  0  0  0  0  0  0  0  0  0  0
    9.9773  -16.2882   26.6041 O   0  0  0  0  0  0  0  0  0  0  0  0
    8.7372  -16.2207   26.3770 C   0  0  0  0  0  0  0  0  0  0  0  0
   10.5819  -13.9418   29.4858 C   0  0  2  0  0  0  0  0  0  0  0  0
    9.7667  -14.5992   28.4184 N   0  0  0  0  0  0  0  0  0  0  0  0
   10.5547  -15.4719   27.5909 C   0  0  0  0  0  0  0  0  0  0  0  0
    9.1313  -13.5499   27.5717 O   0  0  0  0  0  0  0  0  0  0  0  0
    8.1764  -12.8630   27.9981 O   0  0  0  0  0  0  0  0  0  0  0  0
  1  2  1  0
  2  3  2  0
  4  5  1  0
  4  2  1  0
  6  5  1  0
  7  6  1  0
  8 10  1  0
  8  7  1  0
  8  9  1  1
 10 12  1  0
 11 10  2  0
 12 13  1  0
 13 14  1  0
 14 15  2  0
 14 18  1  0
 17 16  1  1
 17 19  1  0
 18 17  1  0
 19 21  1  0
 20 19  2  0
M  END
$$$$
