RGA.pdb
     RDKit          3D

 21 20  0  0  1  0  0  0  0  0999 V2000
    1.0419  -19.3719   23.0192 N   0  0  0  0  0  0  0  0  0  0  0  0
    0.7049  -19.6498   21.6651 C   0  0  0  0  0  0  0  0  0  0  0  0
   -0.4831  -20.0715   21.3735 N   0  0  0  0  0  0  0  0  0  0  0  0
    1.6501  -19.4729   20.6288 N   0  0  0  0  0  0  0  0  0  0  0  0
    3.0034  -18.9339   20.9009 C   0  0  0  0  0  0  0  0  0  0  0  0
    3.6938  -19.7818   21.8977 C   0  0  0  0  0  0  0  0  0  0  0  0
    5.0406  -19.3826   22.3252 C   0  0  0  0  0  0  0  0  0  0  0  0
    5.2653  -18.2188   23.1999 C   0  0  2  0  0  0  0  0  0  0  0  0
    5.3326  -17.0148   22.2864 N   0  0  0  0  0  0  0  0  0  0  0  0
    6.5161  -18.2319   23.9551 C   0  0  0  0  0  0  0  0  0  0  0  0
    6.7126  -19.1020   24.8738 O   0  0  0  0  0  0  0  0  0  0  0  0
   -0.7619  -20.3576   20.4143 N   0  0  0  0  0  0  0  0  0  0  0  0
    7.5353  -17.2842   23.6861 C   0  0  0  0  0  0  0  0  0  0  0  0
    8.7273  -17.3160   24.5121 C   0  0  0  0  0  0  0  0  0  0  0  0
    8.9883  -16.0034   25.1121 O   0  0  0  0  0  0  0  0  0  0  0  0
   10.1199  -15.4660   24.9547 C   0  0  0  0  0  0  0  0  0  0  0  0
    6.9962  -13.2404   26.5708 C   0  0  2  0  0  0  0  0  0  0  0  0
    8.2339  -14.0758   26.4920 N   0  0  0  0  0  0  0  0  0  0  0  0
    7.9961  -15.3431   25.8558 C   0  0  0  0  0  0  0  0  0  0  0  0
    8.7612  -14.3006   27.8678 O   0  0  0  0  0  0  0  0  0  0  0  0
    8.8176  -15.4491   28.3611 O   0  0  0  0  0  0  0  0  0  0  0  0
  1  2  1  0
  2  3  2  0
  4  5  1  0
  4  2  1  0
  6  5  1  0
  7  6  1  0
  8 10  1  0
  8  7  1  0
  8  9  1  6
 10 12  1  0
 11 10  2  0
 12 13  1  0
 13 14  1  0
 14 15  2  0
 14 18  1  0
 17 16  1  6
 17 19  1  0
 18 17  1  0
 19 21  1  0
 20 19  2  0
M  END
$$$$
