RGA.pdb
     RDKit          3D

 21 20  0  0  1  0  0  0  0  0999 V2000
    7.1114  -12.5909   20.1119 N   0  0  0  0  0  0  0  0  0  0  0  0
    8.2959  -13.2705   19.7131 C   0  0  0  0  0  0  0  0  0  0  0  0
    8.7302  -13.1447   18.5007 N   0  0  0  0  0  0  0  0  0  0  0  0
    9.0091  -14.0849   20.6224 N   0  0  0  0  0  0  0  0  0  0  0  0
    8.3157  -14.8350   21.6959 C   0  0  0  0  0  0  0  0  0  0  0  0
    7.4306  -15.8622   21.1037 C   0  0  0  0  0  0  0  0  0  0  0  0
    6.7384  -16.7819   22.0153 C   0  0  0  0  0  0  0  0  0  0  0  0
    7.4751  -17.6603   22.9403 C   0  0  2  0  0  0  0  0  0  0  0  0
    6.8052  -17.5059   24.2880 N   0  0  0  0  0  0  0  0  0  0  0  0
    8.8828  -17.3236   23.1404 C   0  0  0  0  0  0  0  0  0  0  0  0
    9.7135  -17.3943   22.1685 O   0  0  0  0  0  0  0  0  0  0  0  0
    9.5742  -13.6379   18.1484 N   0  0  0  0  0  0  0  0  0  0  0  0
    9.3562  -16.9120   24.4116 C   0  0  0  0  0  0  0  0  0  0  0  0
   10.7280  -16.4505   24.5086 C   0  0  0  0  0  0  0  0  0  0  0  0
   10.8990  -15.5402   25.6458 O   0  0  0  0  0  0  0  0  0  0  0  0
   12.0631  -15.1924   25.9893 C   0  0  0  0  0  0  0  0  0  0  0  0
    8.8002  -13.3681   27.8062 C   0  0  2  0  0  0  0  0  0  0  0  0
    9.9190  -14.3364   27.5897 N   0  0  0  0  0  0  0  0  0  0  0  0
    9.7855  -15.0550   26.3516 C   0  0  0  0  0  0  0  0  0  0  0  0
    9.9570  -15.3021   28.7244 O   0  0  0  0  0  0  0  0  0  0  0  0
    9.6832  -16.5114   28.5561 O   0  0  0  0  0  0  0  0  0  0  0  0
  1  2  1  0
  2  3  2  0
  4  5  1  0
  4  2  1  0
  6  5  1  0
  7  6  1  0
  8 10  1  0
  8  7  1  0
  8  9  1  1
 10 12  1  0
 11 10  2  0
 12 13  1  0
 13 14  1  0
 14 15  2  0
 14 18  1  0
 17 16  1  6
 17 19  1  0
 18 17  1  0
 19 21  1  0
 20 19  2  0
M  END
$$$$
