RGA.pdb
     RDKit          3D

 21 20  0  0  1  0  0  0  0  0999 V2000
    8.7896  -11.5853   18.9470 N   0  0  0  0  0  0  0  0  0  0  0  0
    8.4524  -12.7226   19.7325 C   0  0  0  0  0  0  0  0  0  0  0  0
    8.0587  -13.8096   19.1513 N   0  0  0  0  0  0  0  0  0  0  0  0
    8.5400  -12.6849   21.1430 N   0  0  0  0  0  0  0  0  0  0  0  0
    7.6560  -13.5150   21.9946 C   0  0  0  0  0  0  0  0  0  0  0  0
    7.4680  -14.8475   21.3797 C   0  0  0  0  0  0  0  0  0  0  0  0
    7.9070  -16.0242   22.1405 C   0  0  0  0  0  0  0  0  0  0  0  0
    8.1970  -15.9531   23.5829 C   0  0  2  0  0  0  0  0  0  0  0  0
    9.6987  -15.8138   23.7021 N   0  0  0  0  0  0  0  0  0  0  0  0
    7.8317  -17.1373   24.3569 C   0  0  0  0  0  0  0  0  0  0  0  0
    6.6012  -17.4299   24.5571 O   0  0  0  0  0  0  0  0  0  0  0  0
    7.8028  -14.6699   19.6748 N   0  0  0  0  0  0  0  0  0  0  0  0
    8.8298  -17.9848   24.9001 C   0  0  0  0  0  0  0  0  0  0  0  0
    8.4039  -19.0649   25.7697 C   0  0  0  0  0  0  0  0  0  0  0  0
    9.0039  -18.9371   27.1019 O   0  0  0  0  0  0  0  0  0  0  0  0
    8.9674  -17.8214   27.6917 C   0  0  0  0  0  0  0  0  0  0  0  0
   10.7391  -21.2561   29.5087 C   0  0  2  0  0  0  0  0  0  0  0  0
   10.2694  -19.9310   28.9991 N   0  0  0  0  0  0  0  0  0  0  0  0
    9.6151  -20.0388   27.7234 C   0  0  0  0  0  0  0  0  0  0  0  0
   11.4353  -19.0095   28.8843 O   0  0  0  0  0  0  0  0  0  0  0  0
   11.8470  -18.6205   27.7686 O   0  0  0  0  0  0  0  0  0  0  0  0
  1  2  1  0
  2  3  2  0
  4  5  1  0
  4  2  1  0
  6  5  1  0
  7  6  1  0
  8 10  1  0
  8  7  1  0
  8  9  1  6
 10 12  1  0
 11 10  2  0
 12 13  1  0
 13 14  1  0
 14 15  2  0
 14 18  1  0
 17 16  1  1
 17 19  1  0
 18 17  1  0
 19 21  1  0
 20 19  2  0
M  END
$$$$
