RGA.pdb
     RDKit          3D

 21 20  0  0  1  0  0  0  0  0999 V2000
    7.9299  -15.7171   17.3645 N   0  0  0  0  0  0  0  0  0  0  0  0
    7.9827  -14.4029   16.8220 C   0  0  0  0  0  0  0  0  0  0  0  0
    7.7739  -14.2220   15.5579 N   0  0  0  0  0  0  0  0  0  0  0  0
    8.2612  -13.2869   17.6440 N   0  0  0  0  0  0  0  0  0  0  0  0
    8.4806  -13.4364   19.1018 C   0  0  0  0  0  0  0  0  0  0  0  0
    7.1957  -13.7162   19.7800 C   0  0  0  0  0  0  0  0  0  0  0  0
    7.2195  -13.9489   21.2295 C   0  0  0  0  0  0  0  0  0  0  0  0
    8.3212  -14.6773   21.8817 C   0  0  2  0  0  0  0  0  0  0  0  0
    8.3156  -16.0676   21.2852 N   0  0  0  0  0  0  0  0  0  0  0  0
    8.1923  -14.8500   23.3269 C   0  0  0  0  0  0  0  0  0  0  0  0
    8.0502  -13.8343   24.0937 O   0  0  0  0  0  0  0  0  0  0  0  0
    7.7800  -13.2833   15.1125 N   0  0  0  0  0  0  0  0  0  0  0  0
    8.2212  -16.1426   23.9081 C   0  0  0  0  0  0  0  0  0  0  0  0
    7.9835  -16.2511   25.3349 C   0  0  0  0  0  0  0  0  0  0  0  0
    9.1101  -15.7068   26.1002 O   0  0  0  0  0  0  0  0  0  0  0  0
   10.2859  -15.8715   25.6707 C   0  0  0  0  0  0  0  0  0  0  0  0
    9.5917  -13.2578   28.8426 C   0  0  2  0  0  0  0  0  0  0  0  0
    9.9776  -14.4907   28.0894 N   0  0  0  0  0  0  0  0  0  0  0  0
    8.8934  -15.0082   27.2996 C   0  0  0  0  0  0  0  0  0  0  0  0
   10.4318  -15.5318   29.0545 O   0  0  0  0  0  0  0  0  0  0  0  0
   11.4020  -15.3292   29.8181 O   0  0  0  0  0  0  0  0  0  0  0  0
  1  2  1  0
  2  3  2  0
  4  5  1  0
  4  2  1  0
  6  5  1  0
  7  6  1  0
  8 10  1  0
  8  7  1  0
  8  9  1  6
 10 12  1  0
 11 10  2  0
 12 13  1  0
 13 14  1  0
 14 15  2  0
 14 18  1  0
 17 16  1  6
 17 19  1  0
 18 17  1  0
 19 21  1  0
 20 19  2  0
M  END
$$$$
