RGA.pdb
     RDKit          3D

 21 20  0  0  1  0  0  0  0  0999 V2000
    9.7338  -14.4285   16.8277 N   0  0  0  0  0  0  0  0  0  0  0  0
    8.5711  -13.9512   16.1611 C   0  0  0  0  0  0  0  0  0  0  0  0
    8.6151  -13.7062   14.8912 N   0  0  0  0  0  0  0  0  0  0  0  0
    7.3640  -13.7384   16.8654 N   0  0  0  0  0  0  0  0  0  0  0  0
    7.1942  -14.1972   18.2641 C   0  0  0  0  0  0  0  0  0  0  0  0
    7.9158  -13.2906   19.1842 C   0  0  0  0  0  0  0  0  0  0  0  0
    7.8252  -13.5583   20.6251 C   0  0  0  0  0  0  0  0  0  0  0  0
    8.8692  -14.3093   21.3432 C   0  0  2  0  0  0  0  0  0  0  0  0
    8.9183  -15.6779   20.7003 N   0  0  0  0  0  0  0  0  0  0  0  0
    8.6179  -14.5324   22.7652 C   0  0  0  0  0  0  0  0  0  0  0  0
    8.3603  -13.5482   23.5428 O   0  0  0  0  0  0  0  0  0  0  0  0
    7.7910  -13.3784   14.3498 N   0  0  0  0  0  0  0  0  0  0  0  0
    8.6535  -15.8400   23.3114 C   0  0  0  0  0  0  0  0  0  0  0  0
    8.1694  -16.0234   24.6664 C   0  0  0  0  0  0  0  0  0  0  0  0
    9.1978  -15.6613   25.6474 O   0  0  0  0  0  0  0  0  0  0  0  0
   10.4161  -15.7795   25.3378 C   0  0  0  0  0  0  0  0  0  0  0  0
    9.3526  -13.7086   28.7874 C   0  0  2  0  0  0  0  0  0  0  0  0
    9.8246  -14.8174   27.9021 N   0  0  0  0  0  0  0  0  0  0  0  0
    8.8410  -15.1872   26.9208 C   0  0  0  0  0  0  0  0  0  0  0  0
   10.1621  -16.0030   28.7400 O   0  0  0  0  0  0  0  0  0  0  0  0
    9.5059  -17.0649   28.6553 O   0  0  0  0  0  0  0  0  0  0  0  0
  1  2  1  0
  2  3  2  0
  4  5  1  0
  4  2  1  0
  6  5  1  0
  7  6  1  0
  8 10  1  0
  8  7  1  0
  8  9  1  6
 10 12  1  0
 11 10  2  0
 12 13  1  0
 13 14  1  0
 14 15  2  0
 14 18  1  0
 17 16  1  6
 17 19  1  0
 18 17  1  0
 19 21  1  0
 20 19  2  0
M  END
$$$$
