RGA.pdb
     RDKit          3D

 21 20  0  0  1  0  0  0  0  0999 V2000
    8.1495  -15.1762   14.5468 N   0  0  0  0  0  0  0  0  0  0  0  0
    7.6836  -13.9075   14.9913 C   0  0  0  0  0  0  0  0  0  0  0  0
    6.8585  -13.2338   14.2566 N   0  0  0  0  0  0  0  0  0  0  0  0
    8.1091  -13.3678   16.2268 N   0  0  0  0  0  0  0  0  0  0  0  0
    8.8927  -14.1731   17.1929 C   0  0  0  0  0  0  0  0  0  0  0  0
    8.2834  -15.5128   17.3452 C   0  0  0  0  0  0  0  0  0  0  0  0
    8.9403  -16.4687   18.2456 C   0  0  0  0  0  0  0  0  0  0  0  0
    8.5916  -16.5565   19.6741 C   0  0  2  0  0  0  0  0  0  0  0  0
    7.5483  -15.4882   19.9173 N   0  0  0  0  0  0  0  0  0  0  0  0
    9.6836  -16.2838   20.6059 C   0  0  0  0  0  0  0  0  0  0  0  0
   10.6956  -17.0658   20.6693 O   0  0  0  0  0  0  0  0  0  0  0  0
    6.5098  -12.2904   14.5174 N   0  0  0  0  0  0  0  0  0  0  0  0
    9.6451  -15.1503   21.4562 C   0  0  0  0  0  0  0  0  0  0  0  0
   10.7872  -14.9080   22.3170 C   0  0  0  0  0  0  0  0  0  0  0  0
   10.5189  -15.3556   23.6877 O   0  0  0  0  0  0  0  0  0  0  0  0
   11.4642  -15.3863   24.5240 C   0  0  0  0  0  0  0  0  0  0  0  0
    7.4672  -15.9760   25.7440 C   0  0  2  0  0  0  0  0  0  0  0  0
    8.9191  -16.1379   25.4248 N   0  0  0  0  0  0  0  0  0  0  0  0
    9.2269  -15.7480   24.0755 C   0  0  0  0  0  0  0  0  0  0  0  0
    9.3105  -17.5609   25.6334 O   0  0  0  0  0  0  0  0  0  0  0  0
    9.2835  -18.0807   26.7712 O   0  0  0  0  0  0  0  0  0  0  0  0
  1  2  1  0
  2  3  2  0
  4  5  1  0
  4  2  1  0
  6  5  1  0
  7  6  1  0
  8 10  1  0
  8  7  1  0
  8  9  1  1
 10 12  1  0
 11 10  2  0
 12 13  1  0
 13 14  1  0
 14 15  2  0
 14 18  1  0
 17 16  1  1
 17 19  1  0
 18 17  1  0
 19 21  1  0
 20 19  2  0
M  END
$$$$
