TVM.pdb
     RDKit          3D

 23 22  0  0  1  0  0  0  0  0999 V2000
   11.2400  -14.3281   20.2510 C   0  0  0  0  0  0  0  0  0  0  0  0
   10.5201  -13.3610   19.3278 C   0  0  1  0  0  0  0  0  0  0  0  0
   11.3435  -13.0231   18.2493 O   0  0  0  0  0  0  0  0  0  0  0  0
    9.2279  -14.0128   18.8291 C   0  0  2  0  0  0  0  0  0  0  0  0
    8.5618  -13.0364   18.0253 N   0  0  0  0  0  0  0  0  0  0  0  0
    8.4448  -14.3755   20.0493 C   0  0  0  0  0  0  0  0  0  0  0  0
    7.7057  -13.4959   20.5667 O   0  0  0  0  0  0  0  0  0  0  0  0
    6.1441  -17.4355   20.6515 C   0  0  0  0  0  0  0  0  0  0  0  0
    7.2082  -17.3604   21.6968 C   0  0  1  0  0  0  0  0  0  0  0  0
    8.3408  -18.3131   21.5048 C   0  0  0  0  0  0  0  0  0  0  0  0
    7.7344  -15.9382   21.8988 C   0  0  2  0  0  0  0  0  0  0  0  0
    8.4677  -15.6312   20.6717 N   0  0  0  0  0  0  0  0  0  0  0  0
    8.6282  -15.8563   23.0814 C   0  0  0  0  0  0  0  0  0  0  0  0
    9.8549  -16.0247   22.9360 O   0  0  0  0  0  0  0  0  0  0  0  0
    6.0058  -10.7348   26.1738 C   0  0  0  0  0  0  0  0  0  0  0  0
    6.4988  -12.2790   27.0440 S   0  0  0  0  0  0  0  0  0  0  0  0
    7.6949  -13.1896   26.1525 C   0  0  0  0  0  0  0  0  0  0  0  0
    8.1726  -14.5283   26.5061 C   0  0  0  0  0  0  0  0  0  0  0  0
    8.9530  -15.3295   25.5519 C   0  0  2  0  0  0  0  0  0  0  0  0
    8.0993  -15.5933   24.3405 N   0  0  0  0  0  0  0  0  0  0  0  0
    9.2472  -16.7300   26.0602 C   0  0  0  0  0  0  0  0  0  0  0  0
    8.6231  -17.7515   25.8237 O   0  0  0  0  0  0  0  0  0  0  0  0
   10.3693  -16.9151   26.9130 O   0  0  0  0  0  0  0  0  0  0  0  0
  2  1  1  1
  2  4  1  0
  3  2  1  0
  4  5  1  6
  6  4  1  0
  6  7  2  0
  9  8  1  6
  9 11  1  0
  9 10  1  0
 11 12  1  6
 12  6  1  0
 13 11  1  0
 14 13  2  0
 16 15  1  0
 17 16  1  0
 18 17  1  0
 19 20  1  0
 19 18  1  1
 20 13  1  0
 21 19  1  0
 22 21  2  0
 23 21  1  0
M  END
$$$$
