TVM.pdb
     RDKit          3D

 23 22  0  0  1  0  0  0  0  0999 V2000
    9.9107  -19.4188   19.9690 C   0  0  0  0  0  0  0  0  0  0  0  0
   11.0905  -18.7949   19.2446 C   0  0  1  0  0  0  0  0  0  0  0  0
   11.4891  -19.6124   18.1825 O   0  0  0  0  0  0  0  0  0  0  0  0
   10.6873  -17.4106   18.7305 C   0  0  2  0  0  0  0  0  0  0  0  0
   11.7850  -16.9282   17.9524 N   0  0  0  0  0  0  0  0  0  0  0  0
   10.4362  -16.5718   19.9418 C   0  0  0  0  0  0  0  0  0  0  0  0
   11.4281  -16.1903   20.6188 O   0  0  0  0  0  0  0  0  0  0  0  0
    7.0100  -14.1879   22.6676 C   0  0  0  0  0  0  0  0  0  0  0  0
    7.5707  -14.7376   21.3971 C   0  0  1  0  0  0  0  0  0  0  0  0
    7.5787  -13.7804   20.2522 C   0  0  0  0  0  0  0  0  0  0  0  0
    8.9567  -15.3571   21.5858 C   0  0  2  0  0  0  0  0  0  0  0  0
    9.1700  -16.1711   20.3901 N   0  0  0  0  0  0  0  0  0  0  0  0
    9.0113  -16.1948   22.8103 C   0  0  0  0  0  0  0  0  0  0  0  0
    8.5403  -17.3488   22.7855 O   0  0  0  0  0  0  0  0  0  0  0  0
    8.9063  -12.5485   28.8996 C   0  0  0  0  0  0  0  0  0  0  0  0
   10.2102  -13.6735   28.2524 S   0  0  0  0  0  0  0  0  0  0  0  0
    9.6227  -14.6977   26.9638 C   0  0  0  0  0  0  0  0  0  0  0  0
   10.4249  -15.6850   26.2379 C   0  0  0  0  0  0  0  0  0  0  0  0
    9.8219  -16.5346   25.2007 C   0  0  2  0  0  0  0  0  0  0  0  0
    9.5841  -15.6943   23.9747 N   0  0  0  0  0  0  0  0  0  0  0  0
    8.4212  -16.9989   25.5598 C   0  0  0  0  0  0  0  0  0  0  0  0
    7.3640  -16.4697   25.2582 O   0  0  0  0  0  0  0  0  0  0  0  0
    8.2821  -18.1814   26.3363 O   0  0  0  0  0  0  0  0  0  0  0  0
  2  1  1  6
  2  4  1  0
  3  2  1  0
  4  5  1  1
  6  4  1  0
  6  7  2  0
  9  8  1  1
  9 11  1  0
  9 10  1  0
 11 12  1  6
 12  6  1  0
 13 11  1  0
 14 13  2  0
 16 15  1  0
 17 16  1  0
 18 17  1  0
 19 20  1  0
 19 18  1  1
 20 13  1  0
 21 19  1  0
 22 21  2  0
 23 21  1  0
M  END
$$$$
