TVM.pdb
     RDKit          3D

 23 22  0  0  1  0  0  0  0  0999 V2000
    4.5414  -19.6517   22.4021 C   0  0  0  0  0  0  0  0  0  0  0  0
    5.7287  -18.7076   22.3325 C   0  0  1  0  0  0  0  0  0  0  0  0
    6.9115  -19.4022   22.6042 O   0  0  0  0  0  0  0  0  0  0  0  0
    5.7873  -18.0787   20.9381 C   0  0  2  0  0  0  0  0  0  0  0  0
    6.0467  -19.1434   20.0205 N   0  0  0  0  0  0  0  0  0  0  0  0
    6.8968  -17.0781   20.9772 C   0  0  0  0  0  0  0  0  0  0  0  0
    8.0731  -17.4842   20.7795 O   0  0  0  0  0  0  0  0  0  0  0  0
    8.3692  -12.3758   20.8217 C   0  0  0  0  0  0  0  0  0  0  0  0
    7.3526  -13.4675   20.7470 C   0  0  1  0  0  0  0  0  0  0  0  0
    6.8039  -13.7177   19.3818 C   0  0  0  0  0  0  0  0  0  0  0  0
    7.8456  -14.7736   21.3727 C   0  0  2  0  0  0  0  0  0  0  0  0
    6.7310  -15.7075   21.2194 N   0  0  0  0  0  0  0  0  0  0  0  0
    8.1864  -14.5904   22.8060 C   0  0  0  0  0  0  0  0  0  0  0  0
    7.4035  -13.9649   23.5476 O   0  0  0  0  0  0  0  0  0  0  0  0
    6.5420  -11.6436   27.1018 C   0  0  0  0  0  0  0  0  0  0  0  0
    6.5716  -13.2144   26.1444 S   0  0  0  0  0  0  0  0  0  0  0  0
    8.0249  -14.1407   26.4350 C   0  0  0  0  0  0  0  0  0  0  0  0
    8.5268  -15.2153   25.5755 C   0  0  0  0  0  0  0  0  0  0  0  0
    9.7442  -15.0344   24.7713 C   0  0  2  0  0  0  0  0  0  0  0  0
    9.3701  -15.1136   23.3155 N   0  0  0  0  0  0  0  0  0  0  0  0
   10.7267  -16.1825   24.9229 C   0  0  0  0  0  0  0  0  0  0  0  0
   10.7532  -17.2249   24.2893 O   0  0  0  0  0  0  0  0  0  0  0  0
   11.7480  -16.0696   25.9050 O   0  0  0  0  0  0  0  0  0  0  0  0
  2  1  1  6
  2  4  1  0
  3  2  1  0
  4  5  1  6
  6  4  1  0
  6  7  2  0
  9  8  1  6
  9 11  1  0
  9 10  1  0
 11 12  1  1
 12  6  1  0
 13 11  1  0
 14 13  2  0
 16 15  1  0
 17 16  1  0
 18 17  1  0
 19 20  1  0
 19 18  1  1
 20 13  1  0
 21 19  1  0
 22 21  2  0
 23 21  1  0
M  END
$$$$
