TVM.pdb
     RDKit          3D

 23 22  0  0  1  0  0  0  0  0999 V2000
    6.9093  -20.1810   21.0995 C   0  0  0  0  0  0  0  0  0  0  0  0
    7.6767  -18.9121   21.4269 C   0  0  1  0  0  0  0  0  0  0  0  0
    8.9065  -19.2316   22.0108 O   0  0  0  0  0  0  0  0  0  0  0  0
    7.8889  -18.1095   20.1408 C   0  0  2  0  0  0  0  0  0  0  0  0
    8.7689  -18.8799   19.3191 N   0  0  0  0  0  0  0  0  0  0  0  0
    8.4926  -16.8069   20.5560 C   0  0  0  0  0  0  0  0  0  0  0  0
    9.7481  -16.7005   20.5427 O   0  0  0  0  0  0  0  0  0  0  0  0
    7.8542  -11.9493   21.0151 C   0  0  0  0  0  0  0  0  0  0  0  0
    7.4279  -13.3468   20.7055 C   0  0  1  0  0  0  0  0  0  0  0  0
    7.1743  -13.6168   19.2598 C   0  0  0  0  0  0  0  0  0  0  0  0
    8.3802  -14.3940   21.2860 C   0  0  2  0  0  0  0  0  0  0  0  0
    7.7647  -15.6806   20.9640 N   0  0  0  0  0  0  0  0  0  0  0  0
    8.5287  -14.2335   22.7544 C   0  0  0  0  0  0  0  0  0  0  0  0
    8.1248  -13.1884   23.3011 O   0  0  0  0  0  0  0  0  0  0  0  0
    6.2377  -11.4129   26.5049 C   0  0  0  0  0  0  0  0  0  0  0  0
    6.9035  -13.0648   26.9660 S   0  0  0  0  0  0  0  0  0  0  0  0
    6.8794  -14.1870   25.6264 C   0  0  0  0  0  0  0  0  0  0  0  0
    7.7418  -15.3636   25.4954 C   0  0  0  0  0  0  0  0  0  0  0  0
    9.1263  -15.2373   25.0175 C   0  0  2  0  0  0  0  0  0  0  0  0
    9.1136  -15.2423   23.5123 N   0  0  0  0  0  0  0  0  0  0  0  0
    9.9762  -16.4526   25.3448 C   0  0  0  0  0  0  0  0  0  0  0  0
   10.0560  -17.4939   24.7138 O   0  0  0  0  0  0  0  0  0  0  0  0
   10.7857  -16.4136   26.5125 O   0  0  0  0  0  0  0  0  0  0  0  0
  2  1  1  6
  2  4  1  0
  3  2  1  0
  4  5  1  6
  6  4  1  0
  6  7  2  0
  9  8  1  6
  9 11  1  0
  9 10  1  0
 11 12  1  1
 12  6  1  0
 13 11  1  0
 14 13  2  0
 16 15  1  0
 17 16  1  0
 18 17  1  0
 19 20  1  0
 19 18  1  1
 20 13  1  0
 21 19  1  0
 22 21  2  0
 23 21  1  0
M  END
$$$$
