TVM.pdb
     RDKit          3D

 23 22  0  0  1  0  0  0  0  0999 V2000
   12.5595  -20.0232   20.2117 C   0  0  0  0  0  0  0  0  0  0  0  0
   11.9435  -18.7983   20.8645 C   0  0  1  0  0  0  0  0  0  0  0  0
   12.8968  -18.1409   21.6483 O   0  0  0  0  0  0  0  0  0  0  0  0
   11.4122  -17.8639   19.7747 C   0  0  2  0  0  0  0  0  0  0  0  0
   12.5502  -17.3977   19.0461 N   0  0  0  0  0  0  0  0  0  0  0  0
   10.6983  -16.7585   20.4834 C   0  0  0  0  0  0  0  0  0  0  0  0
   11.3523  -15.7256   20.7883 O   0  0  0  0  0  0  0  0  0  0  0  0
    6.5879  -17.0721   21.2694 C   0  0  0  0  0  0  0  0  0  0  0  0
    7.2107  -15.7483   20.9688 C   0  0  1  0  0  0  0  0  0  0  0  0
    6.4212  -14.5679   21.4275 C   0  0  0  0  0  0  0  0  0  0  0  0
    8.6544  -15.6515   21.4655 C   0  0  2  0  0  0  0  0  0  0  0  0
    9.3430  -16.7797   20.8402 N   0  0  0  0  0  0  0  0  0  0  0  0
    8.7236  -15.7464   22.9454 C   0  0  0  0  0  0  0  0  0  0  0  0
    9.1876  -16.7762   23.4730 O   0  0  0  0  0  0  0  0  0  0  0  0
    6.2578  -10.6115   26.6298 C   0  0  0  0  0  0  0  0  0  0  0  0
    6.9108  -11.7789   27.8930 S   0  0  0  0  0  0  0  0  0  0  0  0
    7.5620  -13.2342   27.1772 C   0  0  0  0  0  0  0  0  0  0  0  0
    7.7525  -13.4567   25.7421 C   0  0  0  0  0  0  0  0  0  0  0  0
    8.3062  -14.7226   25.2398 C   0  0  2  0  0  0  0  0  0  0  0  0
    8.2741  -14.6935   23.7352 N   0  0  0  0  0  0  0  0  0  0  0  0
    7.4304  -15.9197   25.5659 C   0  0  0  0  0  0  0  0  0  0  0  0
    6.3903  -16.2488   25.0195 O   0  0  0  0  0  0  0  0  0  0  0  0
    7.8328  -16.7805   26.6231 O   0  0  0  0  0  0  0  0  0  0  0  0
  2  1  1  6
  2  4  1  0
  3  2  1  0
  4  5  1  1
  6  4  1  0
  6  7  2  0
  9  8  1  1
  9 11  1  0
  9 10  1  0
 11 12  1  6
 12  6  1  0
 13 11  1  0
 14 13  2  0
 16 15  1  0
 17 16  1  0
 18 17  1  0
 19 20  1  0
 19 18  1  1
 20 13  1  0
 21 19  1  0
 22 21  2  0
 23 21  1  0
M  END
$$$$
