TVM.pdb
     RDKit          3D

 23 22  0  0  1  0  0  0  0  0999 V2000
    7.2536  -18.8300   22.3470 C   0  0  0  0  0  0  0  0  0  0  0  0
    7.5658  -19.1669   20.8995 C   0  0  1  0  0  0  0  0  0  0  0  0
    6.8684  -20.3154   20.5124 O   0  0  0  0  0  0  0  0  0  0  0  0
    7.1749  -17.9811   20.0139 C   0  0  2  0  0  0  0  0  0  0  0  0
    7.2930  -18.4258   18.6606 N   0  0  0  0  0  0  0  0  0  0  0  0
    8.1356  -16.8830   20.3379 C   0  0  0  0  0  0  0  0  0  0  0  0
    9.3578  -17.0690   20.0948 O   0  0  0  0  0  0  0  0  0  0  0  0
    7.8696  -13.4027   19.1691 C   0  0  0  0  0  0  0  0  0  0  0  0
    8.1239  -13.3151   20.6382 C   0  0  1  0  0  0  0  0  0  0  0  0
    6.9430  -12.9042   21.4531 C   0  0  0  0  0  0  0  0  0  0  0  0
    8.7457  -14.5929   21.2044 C   0  0  2  0  0  0  0  0  0  0  0  0
    7.7808  -15.6479   20.8977 N   0  0  0  0  0  0  0  0  0  0  0  0
    8.9609  -14.4852   22.6694 C   0  0  0  0  0  0  0  0  0  0  0  0
    9.8553  -13.7334   23.1043 O   0  0  0  0  0  0  0  0  0  0  0  0
    7.5276  -11.3815   27.2470 C   0  0  0  0  0  0  0  0  0  0  0  0
    6.0463  -12.2912   26.6444 S   0  0  0  0  0  0  0  0  0  0  0  0
    6.4410  -13.4469   25.3942 C   0  0  0  0  0  0  0  0  0  0  0  0
    7.0177  -14.7737   25.6229 C   0  0  0  0  0  0  0  0  0  0  0  0
    8.3176  -15.1436   25.0441 C   0  0  2  0  0  0  0  0  0  0  0  0
    8.1697  -15.2176   23.5480 N   0  0  0  0  0  0  0  0  0  0  0  0
    8.7428  -16.5563   25.4044 C   0  0  0  0  0  0  0  0  0  0  0  0
    8.6853  -17.5508   24.6999 O   0  0  0  0  0  0  0  0  0  0  0  0
    9.2732  -16.7896   26.7024 O   0  0  0  0  0  0  0  0  0  0  0  0
  2  1  1  1
  2  4  1  0
  3  2  1  0
  4  5  1  6
  6  4  1  0
  6  7  2  0
  9  8  1  6
  9 11  1  0
  9 10  1  0
 11 12  1  1
 12  6  1  0
 13 11  1  0
 14 13  2  0
 16 15  1  0
 17 16  1  0
 18 17  1  0
 19 20  1  0
 19 18  1  1
 20 13  1  0
 21 19  1  0
 22 21  2  0
 23 21  1  0
M  END
$$$$
