TVM.pdb
     RDKit          3D

 23 22  0  0  1  0  0  0  0  0999 V2000
    7.9146  -19.0702   21.9324 C   0  0  0  0  0  0  0  0  0  0  0  0
    7.9919  -19.2142   20.4226 C   0  0  1  0  0  0  0  0  0  0  0  0
    7.4027  -20.4180   20.0240 O   0  0  0  0  0  0  0  0  0  0  0  0
    7.2777  -18.0283   19.7694 C   0  0  2  0  0  0  0  0  0  0  0  0
    7.1278  -18.3536   18.3856 N   0  0  0  0  0  0  0  0  0  0  0  0
    8.1595  -16.8405   19.9824 C   0  0  0  0  0  0  0  0  0  0  0  0
    9.2960  -16.8364   19.4384 O   0  0  0  0  0  0  0  0  0  0  0  0
    7.0380  -13.3161   19.3480 C   0  0  0  0  0  0  0  0  0  0  0  0
    7.6877  -13.3494   20.6925 C   0  0  1  0  0  0  0  0  0  0  0  0
    6.7412  -13.2978   21.8451 C   0  0  0  0  0  0  0  0  0  0  0  0
    8.6565  -14.5230   20.8483 C   0  0  2  0  0  0  0  0  0  0  0  0
    7.8187  -15.7172   20.7485 N   0  0  0  0  0  0  0  0  0  0  0  0
    9.3543  -14.4766   22.1578 C   0  0  0  0  0  0  0  0  0  0  0  0
   10.1060  -13.5169   22.4187 O   0  0  0  0  0  0  0  0  0  0  0  0
    8.3056  -12.9212   28.6739 C   0  0  0  0  0  0  0  0  0  0  0  0
    8.1434  -12.6116   26.8676 S   0  0  0  0  0  0  0  0  0  0  0  0
    7.3519  -13.9301   26.0373 C   0  0  0  0  0  0  0  0  0  0  0  0
    7.7363  -14.4528   24.7241 C   0  0  0  0  0  0  0  0  0  0  0  0
    8.9638  -15.2441   24.5547 C   0  0  2  0  0  0  0  0  0  0  0  0
    9.1693  -15.4966   23.0851 N   0  0  0  0  0  0  0  0  0  0  0  0
    8.8417  -16.6493   25.1175 C   0  0  0  0  0  0  0  0  0  0  0  0
    8.1835  -17.5736   24.6689 O   0  0  0  0  0  0  0  0  0  0  0  0
    9.5603  -16.9649   26.3026 O   0  0  0  0  0  0  0  0  0  0  0  0
  2  1  1  1
  2  4  1  0
  3  2  1  0
  4  5  1  6
  6  4  1  0
  6  7  2  0
  9  8  1  6
  9 11  1  0
  9 10  1  0
 11 12  1  1
 12  6  1  0
 13 11  1  0
 14 13  2  0
 16 15  1  0
 17 16  1  0
 18 17  1  0
 19 20  1  0
 19 18  1  6
 20 13  1  0
 21 19  1  0
 22 21  2  0
 23 21  1  0
M  END
$$$$
