TVM.pdb
     RDKit          3D

 23 22  0  0  1  0  0  0  0  0999 V2000
   11.3145  -14.4558   19.9459 C   0  0  0  0  0  0  0  0  0  0  0  0
   10.5404  -13.4415   19.1224 C   0  0  1  0  0  0  0  0  0  0  0  0
   11.3220  -12.9942   18.0527 O   0  0  0  0  0  0  0  0  0  0  0  0
    9.2536  -14.0916   18.6081 C   0  0  2  0  0  0  0  0  0  0  0  0
    8.5539  -13.0858   17.8720 N   0  0  0  0  0  0  0  0  0  0  0  0
    8.4991  -14.5395   19.8180 C   0  0  0  0  0  0  0  0  0  0  0  0
    7.8116  -13.6872   20.4413 O   0  0  0  0  0  0  0  0  0  0  0  0
    6.5859  -18.0500   20.2905 C   0  0  0  0  0  0  0  0  0  0  0  0
    7.5481  -17.7414   21.3904 C   0  0  1  0  0  0  0  0  0  0  0  0
    8.8408  -18.4834   21.3160 C   0  0  0  0  0  0  0  0  0  0  0  0
    7.8012  -16.2407   21.5461 C   0  0  2  0  0  0  0  0  0  0  0  0
    8.4956  -15.8479   20.3208 N   0  0  0  0  0  0  0  0  0  0  0  0
    8.6364  -15.9553   22.7398 C   0  0  0  0  0  0  0  0  0  0  0  0
    9.8759  -15.8931   22.6206 O   0  0  0  0  0  0  0  0  0  0  0  0
    5.4337  -12.0063   26.8649 C   0  0  0  0  0  0  0  0  0  0  0  0
    7.1437  -11.9991   27.5435 S   0  0  0  0  0  0  0  0  0  0  0  0
    8.1444  -13.2434   26.8330 C   0  0  0  0  0  0  0  0  0  0  0  0
    7.8071  -14.0163   25.6354 C   0  0  0  0  0  0  0  0  0  0  0  0
    8.7204  -15.0452   25.1170 C   0  0  2  0  0  0  0  0  0  0  0  0
    8.0390  -15.7588   23.9803 N   0  0  0  0  0  0  0  0  0  0  0  0
    8.9690  -16.1671   26.1099 C   0  0  0  0  0  0  0  0  0  0  0  0
    9.6001  -16.1088   27.1525 O   0  0  0  0  0  0  0  0  0  0  0  0
    8.4214  -17.4485   25.8293 O   0  0  0  0  0  0  0  0  0  0  0  0
  2  1  1  6
  2  4  1  0
  3  2  1  0
  4  5  1  1
  6  4  1  0
  6  7  2  0
  9  8  1  6
  9 11  1  0
  9 10  1  0
 11 12  1  6
 12  6  1  0
 13 11  1  0
 14 13  2  0
 16 15  1  0
 17 16  1  0
 18 17  1  0
 19 20  1  0
 19 18  1  1
 20 13  1  0
 21 19  1  0
 22 21  2  0
 23 21  1  0
M  END
$$$$
