TVM.pdb
     RDKit          3D

 23 22  0  0  1  0  0  0  0  0999 V2000
   12.4273  -17.2100   20.5903 C   0  0  0  0  0  0  0  0  0  0  0  0
   13.4115  -16.2038   20.0202 C   0  0  1  0  0  0  0  0  0  0  0  0
   14.4195  -16.8657   19.3123 O   0  0  0  0  0  0  0  0  0  0  0  0
   12.6620  -15.2353   19.1019 C   0  0  2  0  0  0  0  0  0  0  0  0
   13.6353  -14.3225   18.5895 N   0  0  0  0  0  0  0  0  0  0  0  0
   11.6395  -14.5570   19.9553 C   0  0  0  0  0  0  0  0  0  0  0  0
   12.0381  -13.7401   20.8278 O   0  0  0  0  0  0  0  0  0  0  0  0
    6.7901  -13.6923   20.6457 C   0  0  0  0  0  0  0  0  0  0  0  0
    8.0099  -13.9967   19.8393 C   0  0  1  0  0  0  0  0  0  0  0  0
    8.2177  -13.1055   18.6604 C   0  0  0  0  0  0  0  0  0  0  0  0
    9.2781  -14.0591   20.6925 C   0  0  2  0  0  0  0  0  0  0  0  0
   10.2557  -14.7599   19.8611 N   0  0  0  0  0  0  0  0  0  0  0  0
    9.0403  -14.7947   21.9599 C   0  0  0  0  0  0  0  0  0  0  0  0
    9.4377  -15.9713   22.0700 O   0  0  0  0  0  0  0  0  0  0  0  0
    6.3138  -11.3218   27.2058 C   0  0  0  0  0  0  0  0  0  0  0  0
    7.3590  -12.6455   27.9409 S   0  0  0  0  0  0  0  0  0  0  0  0
    7.8247  -13.8521   26.7655 C   0  0  0  0  0  0  0  0  0  0  0  0
    7.9995  -13.6104   25.3315 C   0  0  0  0  0  0  0  0  0  0  0  0
    8.4209  -14.6910   24.4281 C   0  0  2  0  0  0  0  0  0  0  0  0
    8.3797  -14.1744   23.0149 N   0  0  0  0  0  0  0  0  0  0  0  0
    7.4333  -15.8440   24.3873 C   0  0  0  0  0  0  0  0  0  0  0  0
    6.4156  -15.9259   23.7192 O   0  0  0  0  0  0  0  0  0  0  0  0
    7.6866  -16.9770   25.2074 O   0  0  0  0  0  0  0  0  0  0  0  0
  2  1  1  6
  2  4  1  0
  3  2  1  0
  4  5  1  1
  6  4  1  0
  6  7  2  0
  9  8  1  1
  9 11  1  0
  9 10  1  0
 11 12  1  6
 12  6  1  0
 13 11  1  0
 14 13  2  0
 16 15  1  0
 17 16  1  0
 18 17  1  0
 19 20  1  0
 19 18  1  1
 20 13  1  0
 21 19  1  0
 22 21  2  0
 23 21  1  0
M  END
$$$$
