TVM.pdb
     RDKit          3D

 23 22  0  0  1  0  0  0  0  0999 V2000
   12.9666  -15.4942   21.0376 C   0  0  0  0  0  0  0  0  0  0  0  0
   12.3988  -14.4323   20.1123 C   0  0  1  0  0  0  0  0  0  0  0  0
   13.3696  -14.0299   19.1899 O   0  0  0  0  0  0  0  0  0  0  0  0
   11.1768  -15.0015   19.3871 C   0  0  2  0  0  0  0  0  0  0  0  0
   10.7190  -13.9817   18.4963 N   0  0  0  0  0  0  0  0  0  0  0  0
   10.1738  -15.3230   20.4475 C   0  0  0  0  0  0  0  0  0  0  0  0
    9.5923  -14.3675   21.0275 O   0  0  0  0  0  0  0  0  0  0  0  0
    7.7469  -18.9099   22.9320 C   0  0  0  0  0  0  0  0  0  0  0  0
    8.5248  -18.3762   21.7740 C   0  0  1  0  0  0  0  0  0  0  0  0
    7.8993  -18.6115   20.4397 C   0  0  0  0  0  0  0  0  0  0  0  0
    8.8890  -16.8998   21.9410 C   0  0  2  0  0  0  0  0  0  0  0  0
    9.8245  -16.6185   20.8531 N   0  0  0  0  0  0  0  0  0  0  0  0
    9.5222  -16.6458   23.2595 C   0  0  0  0  0  0  0  0  0  0  0  0
   10.7135  -16.9659   23.4397 O   0  0  0  0  0  0  0  0  0  0  0  0
    5.8627  -11.8758   25.2897 C   0  0  0  0  0  0  0  0  0  0  0  0
    7.0406  -12.3990   26.6026 S   0  0  0  0  0  0  0  0  0  0  0  0
    8.2801  -13.4697   25.9932 C   0  0  0  0  0  0  0  0  0  0  0  0
    8.4347  -14.8787   26.3624 C   0  0  0  0  0  0  0  0  0  0  0  0
    9.3709  -15.7518   25.6395 C   0  0  2  0  0  0  0  0  0  0  0  0
    8.7905  -16.0550   24.2842 N   0  0  0  0  0  0  0  0  0  0  0  0
    9.4918  -17.1312   26.2633 C   0  0  0  0  0  0  0  0  0  0  0  0
    8.7457  -18.0840   26.1074 O   0  0  0  0  0  0  0  0  0  0  0  0
   10.5854  -17.3822   27.1359 O   0  0  0  0  0  0  0  0  0  0  0  0
  2  1  1  1
  2  4  1  0
  3  2  1  0
  4  5  1  6
  6  4  1  0
  6  7  2  0
  9  8  1  1
  9 11  1  0
  9 10  1  0
 11 12  1  6
 12  6  1  0
 13 11  1  0
 14 13  2  0
 16 15  1  0
 17 16  1  0
 18 17  1  0
 19 20  1  0
 19 18  1  1
 20 13  1  0
 21 19  1  0
 22 21  2  0
 23 21  1  0
M  END
$$$$
