TVM.pdb
     RDKit          3D

 23 22  0  0  1  0  0  0  0  0999 V2000
    6.2531  -20.1484   22.0288 C   0  0  0  0  0  0  0  0  0  0  0  0
    7.2101  -18.9778   21.8877 C   0  0  1  0  0  0  0  0  0  0  0  0
    8.5306  -19.4181   22.0206 O   0  0  0  0  0  0  0  0  0  0  0  0
    7.0011  -18.3222   20.5203 C   0  0  2  0  0  0  0  0  0  0  0  0
    7.3886  -19.2883   19.5407 N   0  0  0  0  0  0  0  0  0  0  0  0
    7.8746  -17.1096   20.5003 C   0  0  0  0  0  0  0  0  0  0  0  0
    9.0084  -17.2005   19.9583 O   0  0  0  0  0  0  0  0  0  0  0  0
    7.9315  -12.1858   20.9217 C   0  0  0  0  0  0  0  0  0  0  0  0
    7.3605  -13.5347   20.6300 C   0  0  1  0  0  0  0  0  0  0  0  0
    6.7670  -13.6807   19.2685 C   0  0  0  0  0  0  0  0  0  0  0  0
    8.3538  -14.6654   20.9043 C   0  0  2  0  0  0  0  0  0  0  0  0
    7.5288  -15.8645   21.0432 N   0  0  0  0  0  0  0  0  0  0  0  0
    9.1299  -14.4130   22.1444 C   0  0  0  0  0  0  0  0  0  0  0  0
    9.8537  -13.4007   22.2197 O   0  0  0  0  0  0  0  0  0  0  0  0
    6.7885  -11.7726   28.2488 C   0  0  0  0  0  0  0  0  0  0  0  0
    7.3621  -12.0172   26.5179 S   0  0  0  0  0  0  0  0  0  0  0  0
    6.9564  -13.6018   25.9024 C   0  0  0  0  0  0  0  0  0  0  0  0
    7.4718  -14.1823   24.6604 C   0  0  0  0  0  0  0  0  0  0  0  0
    8.7758  -14.8605   24.6265 C   0  0  2  0  0  0  0  0  0  0  0  0
    9.0483  -15.2997   23.2128 N   0  0  0  0  0  0  0  0  0  0  0  0
    8.7765  -16.1752   25.3868 C   0  0  0  0  0  0  0  0  0  0  0  0
    8.3300  -17.2479   25.0144 O   0  0  0  0  0  0  0  0  0  0  0  0
    9.3534  -16.2017   26.6857 O   0  0  0  0  0  0  0  0  0  0  0  0
  2  1  1  6
  2  4  1  0
  3  2  1  0
  4  5  1  6
  6  4  1  0
  6  7  2  0
  9  8  1  6
  9 11  1  0
  9 10  1  0
 11 12  1  1
 12  6  1  0
 13 11  1  0
 14 13  2  0
 16 15  1  0
 17 16  1  0
 18 17  1  0
 19 20  1  0
 19 18  1  6
 20 13  1  0
 21 19  1  0
 22 21  2  0
 23 21  1  0
M  END
$$$$
