WHC.pdb
     RDKit          3D

 31 33  0  0  1  0  0  0  0  0999 V2000
   27.5528  -21.6483  -15.2379 N   0  0  0  0  0  0  0  0  0  0  0  0
   26.5524  -21.5191  -14.2093 C   0  0  1  0  0  0  0  0  0  0  0  0
   26.6094  -20.2080  -13.4561 C   0  0  0  0  0  0  0  0  0  0  0  0
   27.6097  -20.3250  -12.3595 C   0  0  0  0  0  0  0  0  0  0  0  0
   28.9944  -20.1716  -12.5323 C   0  0  0  0  0  0  0  0  0  0  0  0
   29.5246  -20.3014  -11.3225 N   0  0  0  0  0  0  0  0  0  0  0  0
   28.6049  -20.5234  -10.3933 C   0  0  0  0  0  0  0  0  0  0  0  0
   28.6425  -20.7304   -9.0173 C   0  0  0  0  0  0  0  0  0  0  0  0
   27.4709  -20.9515   -8.3181 C   0  0  0  0  0  0  0  0  0  0  0  0
   26.2393  -20.9756   -8.9330 C   0  0  0  0  0  0  0  0  0  0  0  0
   26.2106  -20.7684  -10.2980 C   0  0  0  0  0  0  0  0  0  0  0  0
   27.3799  -20.5439  -11.0285 C   0  0  0  0  0  0  0  0  0  0  0  0
   25.2046  -21.6736  -14.8006 C   0  0  0  0  0  0  0  0  0  0  0  0
   24.8649  -20.9273  -15.7593 O   0  0  0  0  0  0  0  0  0  0  0  0
   24.2896  -22.6333  -14.3286 N   0  0  0  0  0  0  0  0  0  0  0  0
   23.0179  -22.8258  -14.9678 C   0  0  1  0  0  0  0  0  0  0  0  0
   22.6631  -24.2765  -14.9877 C   0  0  0  0  0  0  0  0  0  0  0  0
   23.5010  -25.1239  -15.8368 C   0  0  0  0  0  0  0  0  0  0  0  0
   24.1390  -24.8245  -16.9943 C   0  0  0  0  0  0  0  0  0  0  0  0
   24.7926  -25.9364  -17.4008 N   0  0  0  0  0  0  0  0  0  0  0  0
   24.5623  -26.9217  -16.4984 C   0  0  0  0  0  0  0  0  0  0  0  0
   23.7781  -26.4301  -15.5517 N   0  0  0  0  0  0  0  0  0  0  0  0
   21.9848  -22.1897  -14.0464 C   0  0  0  0  0  0  0  0  0  0  0  0
   22.3192  -21.5427  -13.0296 O   0  0  0  0  0  0  0  0  0  0  0  0
   20.5955  -22.3139  -14.3130 N   0  0  0  0  0  0  0  0  0  0  0  0
   19.6705  -21.1828  -14.2942 C   0  0  1  0  0  0  0  0  0  0  0  0
   20.1296  -19.9904  -15.0486 C   0  0  0  0  0  0  0  0  0  0  0  0
   19.4423  -18.4784  -14.2950 S   0  0  0  0  0  0  0  0  0  0  0  0
   18.3411  -21.6378  -14.8712 C   0  0  0  0  0  0  0  0  0  0  0  0
   18.3886  -22.3396  -15.8817 O   0  0  0  0  0  0  0  0  0  0  0  0
   17.1566  -21.2786  -14.2949 O   0  0  0  0  0  0  0  0  0  0  0  0
  2  1  1  6
  2 13  1  0
  2  3  1  0
  3  4  1  0
  4  5  2  0
  5  6  1  0
  7  6  1  0
  8  7  2  0
  9  8  1  0
 10 11  1  0
 10  9  2  0
 11 12  2  0
 12  4  1  0
 12  7  1  0
 13 14  2  0
 15 13  1  0
 15 16  1  0
 16 17  1  1
 17 18  1  0
 18 22  1  0
 19 18  2  0
 19 20  1  0
 20 21  1  0
 22 21  2  0
 23 24  2  0
 23 16  1  0
 25 23  1  0
 26 25  1  0
 26 27  1  6
 28 27  1  0
 29 31  1  0
 29 26  1  0
 30 29  2  0
M  END
$$$$
