WHC.pdb
     RDKit          3D

 31 33  0  0  1  0  0  0  0  0999 V2000
   16.9485   -8.0355  -10.1540 N   0  0  0  0  0  0  0  0  0  0  0  0
   15.8059   -7.2035   -9.8749 C   0  0  1  0  0  0  0  0  0  0  0  0
   15.2828   -7.3299   -8.4608 C   0  0  0  0  0  0  0  0  0  0  0  0
   14.0661   -8.1880   -8.4716 C   0  0  0  0  0  0  0  0  0  0  0  0
   14.0403   -9.5182   -8.9198 C   0  0  0  0  0  0  0  0  0  0  0  0
   12.7973   -9.9400   -8.7233 N   0  0  0  0  0  0  0  0  0  0  0  0
   12.0275   -9.0008   -8.1906 C   0  0  0  0  0  0  0  0  0  0  0  0
   10.6898   -8.9394   -7.8104 C   0  0  0  0  0  0  0  0  0  0  0  0
   10.1736   -7.7723   -7.2797 C   0  0  0  0  0  0  0  0  0  0  0  0
   10.9390   -6.6413   -7.1039 C   0  0  0  0  0  0  0  0  0  0  0  0
   12.2651   -6.7109   -7.4826 C   0  0  0  0  0  0  0  0  0  0  0  0
   12.8114   -7.8776   -8.0225 C   0  0  0  0  0  0  0  0  0  0  0  0
   16.1438   -5.7864  -10.1358 C   0  0  0  0  0  0  0  0  0  0  0  0
   17.2642   -5.3431   -9.7622 O   0  0  0  0  0  0  0  0  0  0  0  0
   15.2535   -4.9174  -10.7940 N   0  0  0  0  0  0  0  0  0  0  0  0
   15.6057   -3.5495  -11.0543 C   0  0  1  0  0  0  0  0  0  0  0  0
   15.2304   -3.1754  -12.4508 C   0  0  0  0  0  0  0  0  0  0  0  0
   16.1741   -3.5813  -13.4927 C   0  0  0  0  0  0  0  0  0  0  0  0
   17.3935   -4.1605  -13.3755 C   0  0  0  0  0  0  0  0  0  0  0  0
   17.8787   -4.3494  -14.6236 N   0  0  0  0  0  0  0  0  0  0  0  0
   16.9632   -3.8907  -15.5121 C   0  0  0  0  0  0  0  0  0  0  0  0
   15.9311   -3.4234  -14.8270 N   0  0  0  0  0  0  0  0  0  0  0  0
   14.6940   -2.7064  -10.1718 C   0  0  0  0  0  0  0  0  0  0  0  0
   13.5014   -3.0219   -9.9661 O   0  0  0  0  0  0  0  0  0  0  0  0
   15.1723   -1.5225   -9.5503 N   0  0  0  0  0  0  0  0  0  0  0  0
   14.3296   -0.6436   -8.7425 C   0  0  1  0  0  0  0  0  0  0  0  0
   14.9961   -0.0659   -7.5494 C   0  0  0  0  0  0  0  0  0  0  0  0
   15.2426   -1.3614   -6.2896 S   0  0  0  0  0  0  0  0  0  0  0  0
   13.8389    0.4944   -9.6208 C   0  0  0  0  0  0  0  0  0  0  0  0
   14.4557    0.6893  -10.6684 O   0  0  0  0  0  0  0  0  0  0  0  0
   12.7692    1.2613   -9.2577 O   0  0  0  0  0  0  0  0  0  0  0  0
  2  1  1  1
  2 13  1  0
  2  3  1  0
  3  4  1  0
  4  5  2  0
  5  6  1  0
  7  6  1  0
  8  7  2  0
  9  8  1  0
 10 11  1  0
 10  9  2  0
 11 12  2  0
 12  4  1  0
 12  7  1  0
 13 14  2  0
 15 13  1  0
 15 16  1  0
 16 17  1  6
 17 18  1  0
 18 22  1  0
 19 18  2  0
 19 20  1  0
 20 21  1  0
 22 21  2  0
 23 24  2  0
 23 16  1  0
 25 23  1  0
 26 25  1  0
 26 27  1  1
 28 27  1  0
 29 31  1  0
 29 26  1  0
 30 29  2  0
M  END
$$$$
