WHC.pdb
     RDKit          3D

 31 33  0  0  1  0  0  0  0  0999 V2000
   17.9296   -8.6937  -13.1326 N   0  0  0  0  0  0  0  0  0  0  0  0
   18.1850   -8.1985  -11.8040 C   0  0  1  0  0  0  0  0  0  0  0  0
   19.3973   -7.2986  -11.7047 C   0  0  0  0  0  0  0  0  0  0  0  0
   20.5087   -7.8980  -12.4934 C   0  0  0  0  0  0  0  0  0  0  0  0
   20.7433   -9.2775  -12.6076 C   0  0  0  0  0  0  0  0  0  0  0  0
   21.7829   -9.3994  -13.4236 N   0  0  0  0  0  0  0  0  0  0  0  0
   22.2332   -8.2239  -13.8409 C   0  0  0  0  0  0  0  0  0  0  0  0
   23.2723   -7.8206  -14.6747 C   0  0  0  0  0  0  0  0  0  0  0  0
   23.4922   -6.4758  -14.9062 C   0  0  0  0  0  0  0  0  0  0  0  0
   22.7123   -5.4934  -14.3384 C   0  0  0  0  0  0  0  0  0  0  0  0
   21.6830   -5.9019  -13.5134 C   0  0  0  0  0  0  0  0  0  0  0  0
   21.4400   -7.2543  -13.2620 C   0  0  0  0  0  0  0  0  0  0  0  0
   17.0004   -7.4627  -11.3085 C   0  0  0  0  0  0  0  0  0  0  0  0
   16.2091   -6.9403  -12.1406 O   0  0  0  0  0  0  0  0  0  0  0  0
   16.7260   -7.3318   -9.9342 N   0  0  0  0  0  0  0  0  0  0  0  0
   15.5774   -6.6041   -9.4713 C   0  0  1  0  0  0  0  0  0  0  0  0
   14.8207   -7.4140   -8.4701 C   0  0  0  0  0  0  0  0  0  0  0  0
   14.0852   -8.5601   -9.0054 C   0  0  0  0  0  0  0  0  0  0  0  0
   14.2185   -9.8792   -8.7251 C   0  0  0  0  0  0  0  0  0  0  0  0
   13.3091  -10.5496   -9.4682 N   0  0  0  0  0  0  0  0  0  0  0  0
   12.6130   -9.6499  -10.2059 C   0  0  0  0  0  0  0  0  0  0  0  0
   13.0845   -8.4446   -9.9270 N   0  0  0  0  0  0  0  0  0  0  0  0
   16.1213   -5.4224   -8.6783 C   0  0  0  0  0  0  0  0  0  0  0  0
   17.1470   -5.5213   -7.9696 O   0  0  0  0  0  0  0  0  0  0  0  0
   15.4738   -4.1591   -8.7164 N   0  0  0  0  0  0  0  0  0  0  0  0
   16.0425   -2.9479   -8.1292 C   0  0  1  0  0  0  0  0  0  0  0  0
   17.3229   -2.5046   -8.7340 C   0  0  0  0  0  0  0  0  0  0  0  0
   17.8586   -0.9373   -7.9705 S   0  0  0  0  0  0  0  0  0  0  0  0
   15.0290   -1.8247   -8.2651 C   0  0  0  0  0  0  0  0  0  0  0  0
   14.4190   -1.7570   -9.3325 O   0  0  0  0  0  0  0  0  0  0  0  0
   14.8140   -0.9356   -7.2515 O   0  0  0  0  0  0  0  0  0  0  0  0
  2  1  1  6
  2 13  1  0
  2  3  1  0
  3  4  1  0
  4  5  2  0
  5  6  1  0
  7  6  1  0
  8  7  2  0
  9  8  1  0
 10 11  1  0
 10  9  2  0
 11 12  2  0
 12  4  1  0
 12  7  1  0
 13 14  2  0
 15 13  1  0
 15 16  1  0
 16 17  1  1
 17 18  1  0
 18 22  1  0
 19 18  2  0
 19 20  1  0
 20 21  1  0
 22 21  2  0
 23 24  2  0
 23 16  1  0
 25 23  1  0
 26 25  1  0
 26 27  1  6
 28 27  1  0
 29 31  1  0
 29 26  1  0
 30 29  2  0
M  END
$$$$
