WHC.pdb
     RDKit          3D

 31 33  0  0  1  0  0  0  0  0999 V2000
   28.1237  -21.8025  -13.5699 N   0  0  0  0  0  0  0  0  0  0  0  0
   27.0256  -21.5089  -12.6847 C   0  0  1  0  0  0  0  0  0  0  0  0
   27.2041  -20.2383  -11.8827 C   0  0  0  0  0  0  0  0  0  0  0  0
   28.1749  -20.4945  -10.7833 C   0  0  0  0  0  0  0  0  0  0  0  0
   29.5523  -20.6881  -10.9735 C   0  0  0  0  0  0  0  0  0  0  0  0
   30.0661  -20.8359   -9.7587 N   0  0  0  0  0  0  0  0  0  0  0  0
   29.1427  -20.7540   -8.8105 C   0  0  0  0  0  0  0  0  0  0  0  0
   29.1637  -20.8458   -7.4218 C   0  0  0  0  0  0  0  0  0  0  0  0
   27.9902  -20.7231   -6.7018 C   0  0  0  0  0  0  0  0  0  0  0  0
   26.7730  -20.5077   -7.3082 C   0  0  0  0  0  0  0  0  0  0  0  0
   26.7610  -20.4169   -8.6861 C   0  0  0  0  0  0  0  0  0  0  0  0
   27.9323  -20.5385   -9.4374 C   0  0  0  0  0  0  0  0  0  0  0  0
   25.7695  -21.4127  -13.4613 C   0  0  0  0  0  0  0  0  0  0  0  0
   25.7063  -20.6073  -14.4302 O   0  0  0  0  0  0  0  0  0  0  0  0
   24.6422  -22.1977  -13.1547 N   0  0  0  0  0  0  0  0  0  0  0  0
   23.5070  -22.2438  -14.0334 C   0  0  1  0  0  0  0  0  0  0  0  0
   23.2075  -23.6557  -14.4179 C   0  0  0  0  0  0  0  0  0  0  0  0
   24.1061  -24.2485  -15.4089 C   0  0  0  0  0  0  0  0  0  0  0  0
   24.6867  -23.6838  -16.4954 C   0  0  0  0  0  0  0  0  0  0  0  0
   25.4373  -24.6335  -17.0984 N   0  0  0  0  0  0  0  0  0  0  0  0
   25.3242  -25.7827  -16.3880 C   0  0  0  0  0  0  0  0  0  0  0  0
   24.5160  -25.5501  -15.3655 N   0  0  0  0  0  0  0  0  0  0  0  0
   22.3104  -21.8110  -13.1956 C   0  0  0  0  0  0  0  0  0  0  0  0
   22.0840  -22.3023  -12.0680 O   0  0  0  0  0  0  0  0  0  0  0  0
   21.4032  -20.8285  -13.6734 N   0  0  0  0  0  0  0  0  0  0  0  0
   20.2492  -20.3620  -12.9080 C   0  0  1  0  0  0  0  0  0  0  0  0
   19.8702  -18.9483  -13.1522 C   0  0  0  0  0  0  0  0  0  0  0  0
   19.9117  -18.5962  -14.9412 S   0  0  0  0  0  0  0  0  0  0  0  0
   19.0600  -21.2460  -13.2421 C   0  0  0  0  0  0  0  0  0  0  0  0
   19.1110  -21.8614  -14.3073 O   0  0  0  0  0  0  0  0  0  0  0  0
   17.9898  -21.3447  -12.4001 O   0  0  0  0  0  0  0  0  0  0  0  0
  2  1  1  6
  2 13  1  0
  2  3  1  0
  3  4  1  0
  4  5  2  0
  5  6  1  0
  7  6  1  0
  8  7  2  0
  9  8  1  0
 10 11  1  0
 10  9  2  0
 11 12  2  0
 12  4  1  0
 12  7  1  0
 13 14  2  0
 15 13  1  0
 15 16  1  0
 16 17  1  1
 17 18  1  0
 18 22  1  0
 19 18  2  0
 19 20  1  0
 20 21  1  0
 22 21  2  0
 23 24  2  0
 23 16  1  0
 25 23  1  0
 26 25  1  0
 26 27  1  6
 28 27  1  0
 29 31  1  0
 29 26  1  0
 30 29  2  0
M  END
$$$$
