WHC.pdb
     RDKit          3D

 31 33  0  0  1  0  0  0  0  0999 V2000
   26.1963  -21.3787  -12.8969 N   0  0  0  0  0  0  0  0  0  0  0  0
   25.3366  -21.3309  -11.7417 C   0  0  1  0  0  0  0  0  0  0  0  0
   25.7627  -20.3213  -10.6985 C   0  0  0  0  0  0  0  0  0  0  0  0
   27.0935  -20.7164  -10.1603 C   0  0  0  0  0  0  0  0  0  0  0  0
   28.1269  -21.2692  -10.9332 C   0  0  0  0  0  0  0  0  0  0  0  0
   29.1490  -21.4337  -10.1026 N   0  0  0  0  0  0  0  0  0  0  0  0
   28.8625  -21.0363   -8.8703 C   0  0  0  0  0  0  0  0  0  0  0  0
   29.5660  -21.0065   -7.6696 C   0  0  0  0  0  0  0  0  0  0  0  0
   28.9601  -20.5267   -6.5237 C   0  0  0  0  0  0  0  0  0  0  0  0
   27.6632  -20.0644   -6.5144 C   0  0  0  0  0  0  0  0  0  0  0  0
   26.9726  -20.0965   -7.7098 C   0  0  0  0  0  0  0  0  0  0  0  0
   27.5610  -20.5775   -8.8818 C   0  0  0  0  0  0  0  0  0  0  0  0
   23.9503  -21.0288  -12.1626 C   0  0  0  0  0  0  0  0  0  0  0  0
   23.5866  -19.8249  -12.2613 O   0  0  0  0  0  0  0  0  0  0  0  0
   23.0244  -22.0458  -12.4618 N   0  0  0  0  0  0  0  0  0  0  0  0
   21.6926  -21.7335  -12.8996 C   0  0  1  0  0  0  0  0  0  0  0  0
   21.5984  -21.8403  -14.3864 C   0  0  0  0  0  0  0  0  0  0  0  0
   22.2539  -20.7731  -15.1429 C   0  0  0  0  0  0  0  0  0  0  0  0
   22.9178  -19.6797  -14.6956 C   0  0  0  0  0  0  0  0  0  0  0  0
   23.3507  -18.9927  -15.7770 N   0  0  0  0  0  0  0  0  0  0  0  0
   22.9581  -19.6580  -16.8913 C   0  0  0  0  0  0  0  0  0  0  0  0
   22.2919  -20.7356  -16.5072 N   0  0  0  0  0  0  0  0  0  0  0  0
   20.8050  -22.8556  -12.3762 C   0  0  0  0  0  0  0  0  0  0  0  0
   21.0517  -24.0575  -12.6184 O   0  0  0  0  0  0  0  0  0  0  0  0
   19.6566  -22.5707  -11.5910 N   0  0  0  0  0  0  0  0  0  0  0  0
   18.8003  -23.6059  -11.0163 C   0  0  1  0  0  0  0  0  0  0  0  0
   18.1950  -23.2575   -9.7072 C   0  0  0  0  0  0  0  0  0  0  0  0
   19.5086  -22.9462   -8.4808 S   0  0  0  0  0  0  0  0  0  0  0  0
   17.6834  -23.9086  -12.0002 C   0  0  0  0  0  0  0  0  0  0  0  0
   17.5521  -23.1288  -12.9440 O   0  0  0  0  0  0  0  0  0  0  0  0
   16.8671  -24.9908  -11.8371 O   0  0  0  0  0  0  0  0  0  0  0  0
  2  1  1  6
  2 13  1  0
  2  3  1  0
  3  4  1  0
  4  5  2  0
  5  6  1  0
  7  6  1  0
  8  7  2  0
  9  8  1  0
 10 11  1  0
 10  9  2  0
 11 12  2  0
 12  4  1  0
 12  7  1  0
 13 14  2  0
 15 13  1  0
 15 16  1  0
 16 17  1  6
 17 18  1  0
 18 22  1  0
 19 18  2  0
 19 20  1  0
 20 21  1  0
 22 21  2  0
 23 24  2  0
 23 16  1  0
 25 23  1  0
 26 25  1  0
 26 27  1  1
 28 27  1  0
 29 31  1  0
 29 26  1  0
 30 29  2  0
M  END
$$$$
