WHC.pdb
     RDKit          3D

 31 33  0  0  1  0  0  0  0  0999 V2000
   28.4654  -20.3222   -9.6419 N   0  0  0  0  0  0  0  0  0  0  0  0
   27.1760  -20.9484   -9.4968 C   0  0  1  0  0  0  0  0  0  0  0  0
   26.2984  -20.3131   -8.4405 C   0  0  0  0  0  0  0  0  0  0  0  0
   27.1661  -19.7080   -7.3928 C   0  0  0  0  0  0  0  0  0  0  0  0
   27.8076  -18.4656   -7.5175 C   0  0  0  0  0  0  0  0  0  0  0  0
   28.4362  -18.2678   -6.3654 N   0  0  0  0  0  0  0  0  0  0  0  0
   28.2543  -19.2703   -5.5166 C   0  0  0  0  0  0  0  0  0  0  0  0
   28.6917  -19.5413   -4.2232 C   0  0  0  0  0  0  0  0  0  0  0  0
   28.3225  -20.7182   -3.5997 C   0  0  0  0  0  0  0  0  0  0  0  0
   27.5222  -21.6566   -4.2119 C   0  0  0  0  0  0  0  0  0  0  0  0
   27.0917  -21.3797   -5.4944 C   0  0  0  0  0  0  0  0  0  0  0  0
   27.4513  -20.1985   -6.1476 C   0  0  0  0  0  0  0  0  0  0  0  0
   26.4603  -20.9246  -10.7919 C   0  0  0  0  0  0  0  0  0  0  0  0
   26.6318  -19.9474  -11.5710 O   0  0  0  0  0  0  0  0  0  0  0  0
   25.5959  -21.9638  -11.1844 N   0  0  0  0  0  0  0  0  0  0  0  0
   25.0958  -22.0474  -12.5282 C   0  0  1  0  0  0  0  0  0  0  0  0
   24.6552  -23.4422  -12.8304 C   0  0  0  0  0  0  0  0  0  0  0  0
   24.1610  -23.6722  -14.1883 C   0  0  0  0  0  0  0  0  0  0  0  0
   23.5915  -22.8038  -15.0588 C   0  0  0  0  0  0  0  0  0  0  0  0
   23.3080  -23.4861  -16.1914 N   0  0  0  0  0  0  0  0  0  0  0  0
   23.7015  -24.7728  -16.0251 C   0  0  0  0  0  0  0  0  0  0  0  0
   24.2165  -24.8862  -14.8107 N   0  0  0  0  0  0  0  0  0  0  0  0
   23.8134  -21.2254  -12.5504 C   0  0  0  0  0  0  0  0  0  0  0  0
   23.0478  -21.1730  -11.5629 O   0  0  0  0  0  0  0  0  0  0  0  0
   23.4406  -20.4871  -13.7048 N   0  0  0  0  0  0  0  0  0  0  0  0
   22.2826  -19.5971  -13.7489 C   0  0  1  0  0  0  0  0  0  0  0  0
   22.2794  -18.6347  -14.8782 C   0  0  0  0  0  0  0  0  0  0  0  0
   22.4965  -19.5278  -16.4535 S   0  0  0  0  0  0  0  0  0  0  0  0
   21.0255  -20.4456  -13.8332 C   0  0  0  0  0  0  0  0  0  0  0  0
   21.1604  -21.5919  -14.2617 O   0  0  0  0  0  0  0  0  0  0  0  0
   19.8096  -19.9532  -13.4548 O   0  0  0  0  0  0  0  0  0  0  0  0
  2  1  1  6
  2 13  1  0
  2  3  1  0
  3  4  1  0
  4  5  2  0
  5  6  1  0
  7  6  1  0
  8  7  2  0
  9  8  1  0
 10 11  1  0
 10  9  2  0
 11 12  2  0
 12  4  1  0
 12  7  1  0
 13 14  2  0
 15 13  1  0
 15 16  1  0
 16 17  1  1
 17 18  1  0
 18 22  1  0
 19 18  2  0
 19 20  1  0
 20 21  1  0
 22 21  2  0
 23 24  2  0
 23 16  1  0
 25 23  1  0
 26 25  1  0
 26 27  1  6
 28 27  1  0
 29 31  1  0
 29 26  1  0
 30 29  2  0
M  END
$$$$
