WHC.pdb
     RDKit          3D

 31 33  0  0  1  0  0  0  0  0999 V2000
   22.4117  -17.7100  -18.5312 N   0  0  0  0  0  0  0  0  0  0  0  0
   22.3802  -17.5399  -17.1009 C   0  0  1  0  0  0  0  0  0  0  0  0
   21.0841  -17.9810  -16.4567 C   0  0  0  0  0  0  0  0  0  0  0  0
   20.0200  -16.9942  -16.7894 C   0  0  0  0  0  0  0  0  0  0  0  0
   18.8592  -17.2981  -17.5181 C   0  0  0  0  0  0  0  0  0  0  0  0
   18.1542  -16.1743  -17.5571 N   0  0  0  0  0  0  0  0  0  0  0  0
   18.7587  -15.1809  -16.9197 C   0  0  0  0  0  0  0  0  0  0  0  0
   18.4488  -13.8443  -16.6852 C   0  0  0  0  0  0  0  0  0  0  0  0
   19.3227  -13.0457  -15.9718 C   0  0  0  0  0  0  0  0  0  0  0  0
   20.5128  -13.5220  -15.4692 C   0  0  0  0  0  0  0  0  0  0  0  0
   20.8123  -14.8492  -15.7054 C   0  0  0  0  0  0  0  0  0  0  0  0
   19.9472  -15.6775  -16.4242 C   0  0  0  0  0  0  0  0  0  0  0  0
   23.4998  -18.2857  -16.4841 C   0  0  0  0  0  0  0  0  0  0  0  0
   23.9532  -19.3077  -17.0684 O   0  0  0  0  0  0  0  0  0  0  0  0
   24.0792  -17.8859  -15.2652 N   0  0  0  0  0  0  0  0  0  0  0  0
   25.2425  -18.5468  -14.7428 C   0  0  1  0  0  0  0  0  0  0  0  0
   26.2854  -17.5434  -14.3734 C   0  0  0  0  0  0  0  0  0  0  0  0
   26.9698  -16.8967  -15.4934 C   0  0  0  0  0  0  0  0  0  0  0  0
   26.8674  -15.6250  -15.9500 C   0  0  0  0  0  0  0  0  0  0  0  0
   27.7039  -15.5002  -17.0052 N   0  0  0  0  0  0  0  0  0  0  0  0
   28.3243  -16.6896  -17.2018 C   0  0  0  0  0  0  0  0  0  0  0  0
   27.8782  -17.5364  -16.2871 N   0  0  0  0  0  0  0  0  0  0  0  0
   24.8148  -19.1632  -13.4169 C   0  0  0  0  0  0  0  0  0  0  0  0
   24.0330  -18.5739  -12.6387 O   0  0  0  0  0  0  0  0  0  0  0  0
   25.2963  -20.4378  -13.0165 N   0  0  0  0  0  0  0  0  0  0  0  0
   24.8386  -21.1263  -11.8117 C   0  0  1  0  0  0  0  0  0  0  0  0
   24.7031  -22.5975  -11.9488 C   0  0  0  0  0  0  0  0  0  0  0  0
   26.0665  -23.2527  -12.9678 S   0  0  0  0  0  0  0  0  0  0  0  0
   25.8175  -20.8335  -10.6878 C   0  0  0  0  0  0  0  0  0  0  0  0
   26.8951  -20.3327  -11.0102 O   0  0  0  0  0  0  0  0  0  0  0  0
   25.5123  -21.1184   -9.3879 O   0  0  0  0  0  0  0  0  0  0  0  0
  2  1  1  6
  2 13  1  0
  2  3  1  0
  3  4  1  0
  4  5  2  0
  5  6  1  0
  7  6  1  0
  8  7  2  0
  9  8  1  0
 10 11  1  0
 10  9  2  0
 11 12  2  0
 12  4  1  0
 12  7  1  0
 13 14  2  0
 15 13  1  0
 15 16  1  0
 16 17  1  1
 17 18  1  0
 18 22  1  0
 19 18  2  0
 19 20  1  0
 20 21  1  0
 22 21  2  0
 23 24  2  0
 23 16  1  0
 25 23  1  0
 26 25  1  0
 26 27  1  6
 28 27  1  0
 29 31  1  0
 29 26  1  0
 30 29  2  0
M  END
$$$$
