WHC.pdb
     RDKit          3D

 31 33  0  0  1  0  0  0  0  0999 V2000
   24.3526  -19.3601   -8.7798 N   0  0  0  0  0  0  0  0  0  0  0  0
   25.6466  -19.8250   -9.2101 C   0  0  1  0  0  0  0  0  0  0  0  0
   26.1225  -21.0706   -8.4948 C   0  0  0  0  0  0  0  0  0  0  0  0
   26.3472  -20.7462   -7.0592 C   0  0  0  0  0  0  0  0  0  0  0  0
   25.3592  -20.8293   -6.0654 C   0  0  0  0  0  0  0  0  0  0  0  0
   25.9643  -20.5083   -4.9286 N   0  0  0  0  0  0  0  0  0  0  0  0
   27.2483  -20.2282   -5.1059 C   0  0  0  0  0  0  0  0  0  0  0  0
   28.2852  -19.8416   -4.2615 C   0  0  0  0  0  0  0  0  0  0  0  0
   29.5468  -19.6090   -4.7757 C   0  0  0  0  0  0  0  0  0  0  0  0
   29.8331  -19.7463   -6.1155 C   0  0  0  0  0  0  0  0  0  0  0  0
   28.7993  -20.1310   -6.9462 C   0  0  0  0  0  0  0  0  0  0  0  0
   27.5149  -20.3713   -6.4523 C   0  0  0  0  0  0  0  0  0  0  0  0
   25.6246  -20.0877  -10.6663 C   0  0  0  0  0  0  0  0  0  0  0  0
   24.5226  -20.3305  -11.2303 O   0  0  0  0  0  0  0  0  0  0  0  0
   26.7975  -20.0699  -11.4442 N   0  0  0  0  0  0  0  0  0  0  0  0
   26.7648  -19.6945  -12.8302 C   0  0  1  0  0  0  0  0  0  0  0  0
   28.1515  -19.4735  -13.3392 C   0  0  0  0  0  0  0  0  0  0  0  0
   28.2552  -19.0429  -14.7338 C   0  0  0  0  0  0  0  0  0  0  0  0
   27.7865  -17.9187  -15.3277 C   0  0  0  0  0  0  0  0  0  0  0  0
   28.1376  -17.9683  -16.6328 N   0  0  0  0  0  0  0  0  0  0  0  0
   28.8229  -19.1182  -16.8477 C   0  0  0  0  0  0  0  0  0  0  0  0
   28.8925  -19.7704  -15.6976 N   0  0  0  0  0  0  0  0  0  0  0  0
   26.2686  -20.9212  -13.5853 C   0  0  0  0  0  0  0  0  0  0  0  0
   26.8351  -22.0314  -13.4822 O   0  0  0  0  0  0  0  0  0  0  0  0
   25.1378  -20.8426  -14.4408 N   0  0  0  0  0  0  0  0  0  0  0  0
   24.6716  -21.9597  -15.2593 C   0  0  1  0  0  0  0  0  0  0  0  0
   23.7733  -22.9114  -14.5602 C   0  0  0  0  0  0  0  0  0  0  0  0
   22.0339  -22.4342  -14.8311 S   0  0  0  0  0  0  0  0  0  0  0  0
   23.9382  -21.4000  -16.4660 C   0  0  0  0  0  0  0  0  0  0  0  0
   23.7065  -20.1908  -16.4597 O   0  0  0  0  0  0  0  0  0  0  0  0
   23.5546  -22.2047  -17.5000 O   0  0  0  0  0  0  0  0  0  0  0  0
  2  1  1  1
  2 13  1  0
  2  3  1  0
  3  4  1  0
  4  5  2  0
  5  6  1  0
  7  6  1  0
  8  7  2  0
  9  8  1  0
 10 11  1  0
 10  9  2  0
 11 12  2  0
 12  4  1  0
 12  7  1  0
 13 14  2  0
 15 13  1  0
 15 16  1  0
 16 17  1  6
 17 18  1  0
 18 22  1  0
 19 18  2  0
 19 20  1  0
 20 21  1  0
 22 21  2  0
 23 24  2  0
 23 16  1  0
 25 23  1  0
 26 25  1  0
 26 27  1  1
 28 27  1  0
 29 31  1  0
 29 26  1  0
 30 29  2  0
M  END
$$$$
