WHC.pdb
     RDKit          3D

 31 33  0  0  1  0  0  0  0  0999 V2000
   22.6392  -12.8265  -18.6964 N   0  0  0  0  0  0  0  0  0  0  0  0
   23.2353  -11.9152  -17.7531 C   0  0  1  0  0  0  0  0  0  0  0  0
   24.5707  -11.3577  -18.1951 C   0  0  0  0  0  0  0  0  0  0  0  0
   25.5932  -12.4371  -18.1179 C   0  0  0  0  0  0  0  0  0  0  0  0
   25.8455  -13.3626  -19.1430 C   0  0  0  0  0  0  0  0  0  0  0  0
   26.8479  -14.1163  -18.7087 N   0  0  0  0  0  0  0  0  0  0  0  0
   27.2587  -13.7564  -17.5003 C   0  0  0  0  0  0  0  0  0  0  0  0
   28.2418  -14.2179  -16.6296 C   0  0  0  0  0  0  0  0  0  0  0  0
   28.4157  -13.6138  -15.3987 C   0  0  0  0  0  0  0  0  0  0  0  0
   27.6448  -12.5509  -14.9842 C   0  0  0  0  0  0  0  0  0  0  0  0
   26.6726  -12.0985  -15.8543 C   0  0  0  0  0  0  0  0  0  0  0  0
   26.4754  -12.6918  -17.1034 C   0  0  0  0  0  0  0  0  0  0  0  0
   22.3096  -10.7905  -17.4914 C   0  0  0  0  0  0  0  0  0  0  0  0
   21.5359  -10.4049  -18.4100 O   0  0  0  0  0  0  0  0  0  0  0  0
   22.2623  -10.1396  -16.2443 N   0  0  0  0  0  0  0  0  0  0  0  0
   21.2636   -9.1469  -15.9612 C   0  0  1  0  0  0  0  0  0  0  0  0
   20.3344   -9.6361  -14.8990 C   0  0  0  0  0  0  0  0  0  0  0  0
   19.3616  -10.6443  -15.3210 C   0  0  0  0  0  0  0  0  0  0  0  0
   19.1539  -11.1844  -16.5463 C   0  0  0  0  0  0  0  0  0  0  0  0
   18.1466  -12.0797  -16.4337 N   0  0  0  0  0  0  0  0  0  0  0  0
   17.7317  -12.0963  -15.1430 C   0  0  0  0  0  0  0  0  0  0  0  0
   18.4665  -11.2252  -14.4692 N   0  0  0  0  0  0  0  0  0  0  0  0
   22.0026   -7.9800  -15.3184 C   0  0  0  0  0  0  0  0  0  0  0  0
   22.9575   -8.1591  -14.5309 O   0  0  0  0  0  0  0  0  0  0  0  0
   21.6260   -6.6385  -15.5929 N   0  0  0  0  0  0  0  0  0  0  0  0
   22.3019   -5.4805  -15.0123 C   0  0  1  0  0  0  0  0  0  0  0  0
   22.2393   -4.2464  -15.8338 C   0  0  0  0  0  0  0  0  0  0  0  0
   22.7226   -4.6211  -17.5521 S   0  0  0  0  0  0  0  0  0  0  0  0
   21.6823   -5.1905  -13.6562 C   0  0  0  0  0  0  0  0  0  0  0  0
   20.6468   -5.7970  -13.3808 O   0  0  0  0  0  0  0  0  0  0  0  0
   22.2488   -4.2973  -12.7929 O   0  0  0  0  0  0  0  0  0  0  0  0
  2  1  1  6
  2 13  1  0
  2  3  1  0
  3  4  1  0
  4  5  2  0
  5  6  1  0
  7  6  1  0
  8  7  2  0
  9  8  1  0
 10 11  1  0
 10  9  2  0
 11 12  2  0
 12  4  1  0
 12  7  1  0
 13 14  2  0
 15 13  1  0
 15 16  1  0
 16 17  1  1
 17 18  1  0
 18 22  1  0
 19 18  2  0
 19 20  1  0
 20 21  1  0
 22 21  2  0
 23 24  2  0
 23 16  1  0
 25 23  1  0
 26 25  1  0
 26 27  1  6
 28 27  1  0
 29 31  1  0
 29 26  1  0
 30 29  2  0
M  END
$$$$
