EVP.pdb
     RDKit          3D

 24 24  0  0  1  0  0  0  0  0999 V2000
   24.0906  -17.9025  -17.0538 N   0  0  0  0  0  0  0  0  0  0  0  0
   23.2854  -18.3737  -15.9091 C   0  0  1  0  0  0  0  0  0  0  0  0
   21.9207  -18.6474  -16.4989 C   0  0  0  0  0  0  0  0  0  0  0  0
   20.8816  -17.6317  -16.1106 C   0  0  0  0  0  0  0  0  0  0  0  0
   19.5793  -18.1198  -16.6883 C   0  0  0  0  0  0  0  0  0  0  0  0
   19.1282  -17.7363  -17.7754 O   0  0  0  0  0  0  0  0  0  0  0  0
   23.8843  -19.6378  -15.4735 C   0  0  0  0  0  0  0  0  0  0  0  0
   24.6614  -20.3174  -16.2364 O   0  0  0  0  0  0  0  0  0  0  0  0
   18.8781  -19.0559  -15.9184 O   0  0  0  0  0  0  0  0  0  0  0  0
   24.8481  -22.8225  -11.8805 C   0  0  0  0  0  0  0  0  0  0  0  0
   24.4649  -21.4030  -12.3245 C   0  0  1  0  0  0  0  0  0  0  0  0
   25.6101  -20.4873  -11.9925 C   0  0  0  0  0  0  0  0  0  0  0  0
   24.2280  -21.4925  -13.8168 C   0  0  2  0  0  0  0  0  0  0  0  0
   23.6590  -20.1958  -14.1944 N   0  0  0  0  0  0  0  0  0  0  0  0
   23.3727  -22.6177  -14.1955 C   0  0  0  0  0  0  0  0  0  0  0  0
   22.1109  -22.4414  -14.0499 O   0  0  0  0  0  0  0  0  0  0  0  0
   23.8395  -23.8496  -14.6974 N   0  0  0  0  0  0  0  0  0  0  0  0
   25.2126  -24.2508  -14.8720 C   0  0  0  0  0  0  0  0  0  0  0  0
   25.1859  -25.2851  -16.0033 C   0  0  0  0  0  0  0  0  0  0  0  0
   23.7447  -25.3980  -16.3889 C   0  0  0  0  0  0  0  0  0  0  0  0
   23.0210  -24.9495  -15.1363 C   0  0  1  0  0  0  0  0  0  0  0  0
   22.9435  -26.0358  -14.1287 C   0  0  0  0  0  0  0  0  0  0  0  0
   23.6858  -26.1492  -13.1442 O   0  0  0  0  0  0  0  0  0  0  0  0
   21.9553  -26.9966  -14.3153 O   0  0  0  0  0  0  0  0  0  0  0  0
  2  1  1  6
  2  3  1  0
  3  4  1  0
  4  5  1  0
  5  9  1  0
  5  6  2  0
  7  2  1  0
  8  7  2  0
 11 10  1  6
 11 12  1  0
 11 13  1  0
 13 14  1  1
 14  7  1  0
 15 17  1  0
 15 13  1  0
 16 15  2  0
 17 21  1  0
 18 19  1  0
 18 17  1  0
 19 20  1  0
 21 20  1  0
 22 24  1  0
 21 22  1  1
 23 22  2  0
M  END
$$$$
