EVP.pdb
     RDKit          3D

 24 24  0  0  1  0  0  0  0  0999 V2000
   17.0115  -12.1663  -17.6305 N   0  0  0  0  0  0  0  0  0  0  0  0
   16.8614  -11.0734  -16.6488 C   0  0  1  0  0  0  0  0  0  0  0  0
   16.8373  -11.7740  -15.3096 C   0  0  0  0  0  0  0  0  0  0  0  0
   15.4800  -12.2975  -14.9277 C   0  0  0  0  0  0  0  0  0  0  0  0
   15.6016  -13.7982  -14.8943 C   0  0  0  0  0  0  0  0  0  0  0  0
   14.9039  -14.5552  -15.5817 O   0  0  0  0  0  0  0  0  0  0  0  0
   18.0761  -10.2600  -16.7452 C   0  0  0  0  0  0  0  0  0  0  0  0
   19.2360  -10.7897  -16.8932 O   0  0  0  0  0  0  0  0  0  0  0  0
   16.5687  -14.3170  -14.0247 O   0  0  0  0  0  0  0  0  0  0  0  0
   18.8533   -8.0778  -19.2314 C   0  0  0  0  0  0  0  0  0  0  0  0
   19.0385   -7.1514  -18.0205 C   0  0  1  0  0  0  0  0  0  0  0  0
   17.7755   -6.3542  -17.8480 C   0  0  0  0  0  0  0  0  0  0  0  0
   19.2937   -8.0666  -16.8422 C   0  0  2  0  0  0  0  0  0  0  0  0
   18.0632   -8.8475  -16.6883 N   0  0  0  0  0  0  0  0  0  0  0  0
   19.6618   -7.3445  -15.6240 C   0  0  0  0  0  0  0  0  0  0  0  0
   18.6893   -6.9136  -14.9077 O   0  0  0  0  0  0  0  0  0  0  0  0
   20.9846   -7.1012  -15.2018 N   0  0  0  0  0  0  0  0  0  0  0  0
   22.1964   -7.4957  -15.8749 C   0  0  0  0  0  0  0  0  0  0  0  0
   23.2480   -7.6177  -14.7659 C   0  0  0  0  0  0  0  0  0  0  0  0
   22.5232   -7.2615  -13.5063 C   0  0  0  0  0  0  0  0  0  0  0  0
   21.3764   -6.4063  -14.0034 C   0  0  1  0  0  0  0  0  0  0  0  0
   21.8077   -5.0124  -14.2719 C   0  0  0  0  0  0  0  0  0  0  0  0
   22.1394   -4.1898  -13.4079 O   0  0  0  0  0  0  0  0  0  0  0  0
   21.8378   -4.6092  -15.6027 O   0  0  0  0  0  0  0  0  0  0  0  0
  2  1  1  6
  2  3  1  0
  3  4  1  0
  4  5  1  0
  5  9  1  0
  5  6  2  0
  7  2  1  0
  8  7  2  0
 11 10  1  6
 11 12  1  0
 11 13  1  0
 13 14  1  1
 14  7  1  0
 15 17  1  0
 15 13  1  0
 16 15  2  0
 17 21  1  0
 18 19  1  0
 18 17  1  0
 19 20  1  0
 21 20  1  0
 22 24  1  0
 21 22  1  6
 23 22  2  0
M  END
$$$$
