EVP.pdb
     RDKit          3D

 24 24  0  0  1  0  0  0  0  0999 V2000
   14.1564  -22.3466   -1.6480 N   0  0  0  0  0  0  0  0  0  0  0  0
   13.7467  -22.6855   -0.2703 C   0  0  1  0  0  0  0  0  0  0  0  0
   13.9552  -24.1797   -0.1748 C   0  0  0  0  0  0  0  0  0  0  0  0
   12.6741  -24.9676   -0.1652 C   0  0  0  0  0  0  0  0  0  0  0  0
   12.2934  -25.1346    1.2822 C   0  0  0  0  0  0  0  0  0  0  0  0
   13.1134  -25.3557    2.1828 O   0  0  0  0  0  0  0  0  0  0  0  0
   14.6921  -22.0092    0.6215 C   0  0  0  0  0  0  0  0  0  0  0  0
   15.9317  -21.8735    0.3171 O   0  0  0  0  0  0  0  0  0  0  0  0
   10.9285  -25.0257    1.5750 O   0  0  0  0  0  0  0  0  0  0  0  0
   15.6116  -18.6409    3.8872 C   0  0  0  0  0  0  0  0  0  0  0  0
   14.6894  -19.3543    2.8875 C   0  0  1  0  0  0  0  0  0  0  0  0
   14.6969  -18.5682    1.6059 C   0  0  0  0  0  0  0  0  0  0  0  0
   15.2778  -20.7370    2.7050 C   0  0  2  0  0  0  0  0  0  0  0  0
   14.3150  -21.4571    1.8670 N   0  0  0  0  0  0  0  0  0  0  0  0
   15.5459  -21.4182    3.9719 C   0  0  0  0  0  0  0  0  0  0  0  0
   14.5271  -21.9127    4.5734 O   0  0  0  0  0  0  0  0  0  0  0  0
   16.8216  -21.5600    4.5547 N   0  0  0  0  0  0  0  0  0  0  0  0
   18.0806  -21.1275    4.0023 C   0  0  0  0  0  0  0  0  0  0  0  0
   19.1292  -22.0604    4.6190 C   0  0  0  0  0  0  0  0  0  0  0  0
   18.3530  -22.9767    5.5115 C   0  0  0  0  0  0  0  0  0  0  0  0
   17.1084  -22.1728    5.8254 C   0  0  1  0  0  0  0  0  0  0  0  0
   17.3557  -21.1734    6.8937 C   0  0  0  0  0  0  0  0  0  0  0  0
   17.5823  -19.9707    6.7061 O   0  0  0  0  0  0  0  0  0  0  0  0
   17.3284  -21.6357    8.2052 O   0  0  0  0  0  0  0  0  0  0  0  0
  2  1  1  6
  2  3  1  0
  3  4  1  0
  4  5  1  0
  5  9  1  0
  5  6  2  0
  7  2  1  0
  8  7  2  0
 11 10  1  1
 11 12  1  0
 11 13  1  0
 13 14  1  6
 14  7  1  0
 15 17  1  0
 15 13  1  0
 16 15  2  0
 17 21  1  0
 18 19  1  0
 18 17  1  0
 19 20  1  0
 21 20  1  0
 22 24  1  0
 21 22  1  1
 23 22  2  0
M  END
$$$$
