EVP.pdb
     RDKit          3D

 24 24  0  0  1  0  0  0  0  0999 V2000
   22.3066  -21.1051  -18.1580 N   0  0  0  0  0  0  0  0  0  0  0  0
   22.1158  -20.2880  -16.9428 C   0  0  1  0  0  0  0  0  0  0  0  0
   21.1970  -21.1170  -16.0748 C   0  0  0  0  0  0  0  0  0  0  0  0
   19.7365  -20.8555  -16.3214 C   0  0  0  0  0  0  0  0  0  0  0  0
   19.3646  -19.6868  -15.4474 C   0  0  0  0  0  0  0  0  0  0  0  0
   18.6197  -19.7801  -14.4632 O   0  0  0  0  0  0  0  0  0  0  0  0
   23.4282  -20.1899  -16.2990 C   0  0  0  0  0  0  0  0  0  0  0  0
   24.2433  -21.1810  -16.2685 O   0  0  0  0  0  0  0  0  0  0  0  0
   19.9151  -18.4508  -15.8075 O   0  0  0  0  0  0  0  0  0  0  0  0
   26.8755  -17.5762  -14.0123 C   0  0  0  0  0  0  0  0  0  0  0  0
   25.6308  -17.5952  -14.9119 C   0  0  1  0  0  0  0  0  0  0  0  0
   26.0583  -17.2232  -16.3044 C   0  0  0  0  0  0  0  0  0  0  0  0
   25.1000  -19.0111  -14.8436 C   0  0  2  0  0  0  0  0  0  0  0  0
   23.8930  -19.0098  -15.6748 N   0  0  0  0  0  0  0  0  0  0  0  0
   24.8445  -19.4628  -13.4755 C   0  0  0  0  0  0  0  0  0  0  0  0
   23.7326  -19.0903  -12.9566 O   0  0  0  0  0  0  0  0  0  0  0  0
   25.7228  -20.2610  -12.7148 N   0  0  0  0  0  0  0  0  0  0  0  0
   27.0610  -20.6602  -13.0711 C   0  0  0  0  0  0  0  0  0  0  0  0
   27.2985  -21.9762  -12.3213 C   0  0  0  0  0  0  0  0  0  0  0  0
   26.0314  -22.2233  -11.5650 C   0  0  0  0  0  0  0  0  0  0  0  0
   25.4422  -20.8352  -11.4248 C   0  0  1  0  0  0  0  0  0  0  0  0
   26.0773  -20.0789  -10.3176 C   0  0  0  0  0  0  0  0  0  0  0  0
   26.9682  -19.2297  -10.4533 O   0  0  0  0  0  0  0  0  0  0  0  0
   25.6284  -20.3539   -9.0302 O   0  0  0  0  0  0  0  0  0  0  0  0
  2  1  1  6
  2  3  1  0
  3  4  1  0
  4  5  1  0
  5  9  1  0
  5  6  2  0
  7  2  1  0
  8  7  2  0
 11 10  1  1
 11 12  1  0
 11 13  1  0
 13 14  1  6
 14  7  1  0
 15 17  1  0
 15 13  1  0
 16 15  2  0
 17 21  1  0
 18 19  1  0
 18 17  1  0
 19 20  1  0
 21 20  1  0
 22 24  1  0
 21 22  1  1
 23 22  2  0
M  END
$$$$
