EVP.pdb
     RDKit          3D

 24 24  0  0  1  0  0  0  0  0999 V2000
   16.7070  -17.7543    3.8963 N   0  0  0  0  0  0  0  0  0  0  0  0
   16.4855  -17.1987    5.2465 C   0  0  1  0  0  0  0  0  0  0  0  0
   16.3699  -18.4145    6.1372 C   0  0  0  0  0  0  0  0  0  0  0  0
   15.0307  -19.0944    6.0582 C   0  0  0  0  0  0  0  0  0  0  0  0
   15.0657  -20.2120    7.0671 C   0  0  0  0  0  0  0  0  0  0  0  0
   14.8853  -21.4014    6.7750 O   0  0  0  0  0  0  0  0  0  0  0  0
   17.7015  -16.4598    5.5952 C   0  0  0  0  0  0  0  0  0  0  0  0
   18.8453  -16.7650    5.0988 O   0  0  0  0  0  0  0  0  0  0  0  0
   15.3192  -19.8361    8.3918 O   0  0  0  0  0  0  0  0  0  0  0  0
   18.6591  -13.2014    5.0079 C   0  0  0  0  0  0  0  0  0  0  0  0
   18.7697  -13.2505    6.5390 C   0  0  1  0  0  0  0  0  0  0  0  0
   17.4966  -12.6956    7.1148 C   0  0  0  0  0  0  0  0  0  0  0  0
   18.9571  -14.7115    6.8875 C   0  0  2  0  0  0  0  0  0  0  0  0
   17.7072  -15.3652    6.4897 N   0  0  0  0  0  0  0  0  0  0  0  0
   19.2850  -14.9277    8.2970 C   0  0  0  0  0  0  0  0  0  0  0  0
   18.3032  -15.2285    9.0652 O   0  0  0  0  0  0  0  0  0  0  0  0
   20.5796  -14.8283    8.8461 N   0  0  0  0  0  0  0  0  0  0  0  0
   21.8087  -14.5899    8.1322 C   0  0  0  0  0  0  0  0  0  0  0  0
   22.9033  -15.2242    8.9982 C   0  0  0  0  0  0  0  0  0  0  0  0
   22.1813  -15.7856   10.1823 C   0  0  0  0  0  0  0  0  0  0  0  0
   20.9196  -14.9499   10.2397 C   0  0  1  0  0  0  0  0  0  0  0  0
   21.1618  -13.6340   10.8809 C   0  0  0  0  0  0  0  0  0  0  0  0
   21.2795  -12.5585   10.2788 O   0  0  0  0  0  0  0  0  0  0  0  0
   21.2626  -13.6200   12.2680 O   0  0  0  0  0  0  0  0  0  0  0  0
  2  1  1  6
  2  3  1  0
  3  4  1  0
  4  5  1  0
  5  9  1  0
  5  6  2  0
  7  2  1  0
  8  7  2  0
 11 10  1  6
 11 12  1  0
 11 13  1  0
 13 14  1  1
 14  7  1  0
 15 17  1  0
 15 13  1  0
 16 15  2  0
 17 21  1  0
 18 19  1  0
 18 17  1  0
 19 20  1  0
 21 20  1  0
 22 24  1  0
 21 22  1  6
 23 22  2  0
M  END
$$$$
