EVP.pdb
     RDKit          3D

 24 24  0  0  1  0  0  0  0  0999 V2000
   24.3368  -22.5494  -12.8700 N   0  0  0  0  0  0  0  0  0  0  0  0
   24.2261  -21.3556  -12.0079 C   0  0  1  0  0  0  0  0  0  0  0  0
   22.8982  -21.5230  -11.3053 C   0  0  0  0  0  0  0  0  0  0  0  0
   21.7132  -21.1845  -12.1675 C   0  0  0  0  0  0  0  0  0  0  0  0
   21.7782  -19.6993  -12.4081 C   0  0  0  0  0  0  0  0  0  0  0  0
   21.5000  -18.8552  -11.5463 O   0  0  0  0  0  0  0  0  0  0  0  0
   25.3073  -21.4531  -11.0241 C   0  0  0  0  0  0  0  0  0  0  0  0
   25.3902  -22.4372  -10.2041 O   0  0  0  0  0  0  0  0  0  0  0  0
   22.1795  -19.3013  -13.6891 O   0  0  0  0  0  0  0  0  0  0  0  0
   29.7419  -20.1801   -9.4964 C   0  0  0  0  0  0  0  0  0  0  0  0
   28.6288  -20.0444  -10.5458 C   0  0  1  0  0  0  0  0  0  0  0  0
   29.0341  -20.8362  -11.7580 C   0  0  0  0  0  0  0  0  0  0  0  0
   27.3836  -20.6068   -9.8946 C   0  0  2  0  0  0  0  0  0  0  0  0
   26.3316  -20.4858  -10.9077 N   0  0  0  0  0  0  0  0  0  0  0  0
   27.0403  -19.9376   -8.6395 C   0  0  0  0  0  0  0  0  0  0  0  0
   26.1377  -19.0296   -8.7126 O   0  0  0  0  0  0  0  0  0  0  0  0
   27.6256  -20.2234   -7.3893 N   0  0  0  0  0  0  0  0  0  0  0  0
   28.6645  -21.1845   -7.1172 C   0  0  0  0  0  0  0  0  0  0  0  0
   28.4631  -21.5865   -5.6515 C   0  0  0  0  0  0  0  0  0  0  0  0
   27.2870  -20.7853   -5.1899 C   0  0  0  0  0  0  0  0  0  0  0  0
   27.2888  -19.6020   -6.1351 C   0  0  1  0  0  0  0  0  0  0  0  0
   28.2794  -18.5755   -5.7272 C   0  0  0  0  0  0  0  0  0  0  0  0
   28.1138  -17.7438   -4.8250 O   0  0  0  0  0  0  0  0  0  0  0  0
   29.4852  -18.5556   -6.4201 O   0  0  0  0  0  0  0  0  0  0  0  0
  2  1  1  6
  2  3  1  0
  3  4  1  0
  4  5  1  0
  5  9  1  0
  5  6  2  0
  7  2  1  0
  8  7  2  0
 11 10  1  1
 11 12  1  0
 11 13  1  0
 13 14  1  6
 14  7  1  0
 15 17  1  0
 15 13  1  0
 16 15  2  0
 17 21  1  0
 18 19  1  0
 18 17  1  0
 19 20  1  0
 21 20  1  0
 22 24  1  0
 21 22  1  1
 23 22  2  0
M  END
$$$$
