EVP.pdb
     RDKit          3D

 24 24  0  0  1  0  0  0  0  0999 V2000
   24.4751  -10.8123  -20.0282 N   0  0  0  0  0  0  0  0  0  0  0  0
   24.5308   -9.5599  -19.2479 C   0  0  1  0  0  0  0  0  0  0  0  0
   24.2720   -8.4728  -20.2659 C   0  0  0  0  0  0  0  0  0  0  0  0
   25.4246   -8.2383  -21.2033 C   0  0  0  0  0  0  0  0  0  0  0  0
   25.3477   -6.7907  -21.6113 C   0  0  0  0  0  0  0  0  0  0  0  0
   24.5093   -5.9984  -21.1622 O   0  0  0  0  0  0  0  0  0  0  0  0
   23.4127   -9.6105  -18.3024 C   0  0  0  0  0  0  0  0  0  0  0  0
   22.3123  -10.2073  -18.5863 O   0  0  0  0  0  0  0  0  0  0  0  0
   26.2954   -6.3659  -22.5504 O   0  0  0  0  0  0  0  0  0  0  0  0
   21.8134   -9.6151  -13.7608 C   0  0  0  0  0  0  0  0  0  0  0  0
   22.9535   -9.6273  -14.7899 C   0  0  1  0  0  0  0  0  0  0  0  0
   23.4552  -11.0394  -14.9107 C   0  0  0  0  0  0  0  0  0  0  0  0
   22.3409   -9.1334  -16.0829 C   0  0  2  0  0  0  0  0  0  0  0  0
   23.4618   -9.0179  -17.0200 N   0  0  0  0  0  0  0  0  0  0  0  0
   21.6029   -7.8797  -15.9261 C   0  0  0  0  0  0  0  0  0  0  0  0
   22.3080   -6.8363  -15.6835 O   0  0  0  0  0  0  0  0  0  0  0  0
   20.2023   -7.7532  -16.0232 N   0  0  0  0  0  0  0  0  0  0  0  0
   19.2513   -8.8073  -16.2717 C   0  0  0  0  0  0  0  0  0  0  0  0
   18.0534   -8.1168  -16.9341 C   0  0  0  0  0  0  0  0  0  0  0  0
   18.4317   -6.6709  -17.0037 C   0  0  0  0  0  0  0  0  0  0  0  0
   19.4516   -6.5318  -15.8928 C   0  0  1  0  0  0  0  0  0  0  0  0
   18.8023   -6.4047  -14.5648 C   0  0  0  0  0  0  0  0  0  0  0  0
   18.7444   -7.2995  -13.7110 O   0  0  0  0  0  0  0  0  0  0  0  0
   18.2160   -5.1791  -14.2667 O   0  0  0  0  0  0  0  0  0  0  0  0
  2  1  1  6
  2  3  1  0
  3  4  1  0
  4  5  1  0
  5  9  1  0
  5  6  2  0
  7  2  1  0
  8  7  2  0
 11 10  1  1
 11 12  1  0
 11 13  1  0
 13 14  1  6
 14  7  1  0
 15 17  1  0
 15 13  1  0
 16 15  2  0
 17 21  1  0
 18 19  1  0
 18 17  1  0
 19 20  1  0
 21 20  1  0
 22 24  1  0
 21 22  1  1
 23 22  2  0
M  END
$$$$
