EVP.pdb
     RDKit          3D

 24 24  0  0  1  0  0  0  0  0999 V2000
   22.0139  -21.1754  -17.3486 N   0  0  0  0  0  0  0  0  0  0  0  0
   22.1178  -20.1132  -16.3279 C   0  0  1  0  0  0  0  0  0  0  0  0
   20.9373  -20.3546  -15.4151 C   0  0  0  0  0  0  0  0  0  0  0  0
   19.9237  -19.2435  -15.4341 C   0  0  0  0  0  0  0  0  0  0  0  0
   19.0922  -19.4534  -16.6720 C   0  0  0  0  0  0  0  0  0  0  0  0
   18.2153  -20.3221  -16.7663 O   0  0  0  0  0  0  0  0  0  0  0  0
   23.3575  -20.3676  -15.5897 C   0  0  0  0  0  0  0  0  0  0  0  0
   23.6483  -21.5324  -15.1354 O   0  0  0  0  0  0  0  0  0  0  0  0
   19.3621  -18.5965  -17.7459 O   0  0  0  0  0  0  0  0  0  0  0  0
   27.7483  -18.8359  -14.0414 C   0  0  0  0  0  0  0  0  0  0  0  0
   26.5405  -18.6334  -14.9683 C   0  0  1  0  0  0  0  0  0  0  0  0
   26.9885  -18.8958  -16.3793 C   0  0  0  0  0  0  0  0  0  0  0  0
   25.5025  -19.6353  -14.5102 C   0  0  2  0  0  0  0  0  0  0  0  0
   24.3180  -19.3636  -15.3293 N   0  0  0  0  0  0  0  0  0  0  0  0
   25.2273  -19.5608  -13.0750 C   0  0  0  0  0  0  0  0  0  0  0  0
   24.4137  -18.6419  -12.7034 O   0  0  0  0  0  0  0  0  0  0  0  0
   25.7870  -20.4150  -12.1032 N   0  0  0  0  0  0  0  0  0  0  0  0
   26.7312  -21.4809  -12.3256 C   0  0  0  0  0  0  0  0  0  0  0  0
   26.4975  -22.4681  -11.1762 C   0  0  0  0  0  0  0  0  0  0  0  0
   25.4039  -21.8563  -10.3587 C   0  0  0  0  0  0  0  0  0  0  0  0
   25.5147  -20.3826  -10.6900 C   0  0  1  0  0  0  0  0  0  0  0  0
   26.5992  -19.7268   -9.9187 C   0  0  0  0  0  0  0  0  0  0  0  0
   27.7271  -19.4641  -10.3568 O   0  0  0  0  0  0  0  0  0  0  0  0
   26.3148  -19.3848   -8.6008 O   0  0  0  0  0  0  0  0  0  0  0  0
  2  1  1  6
  2  3  1  0
  3  4  1  0
  4  5  1  0
  5  9  1  0
  5  6  2  0
  7  2  1  0
  8  7  2  0
 11 10  1  1
 11 12  1  0
 11 13  1  0
 13 14  1  6
 14  7  1  0
 15 17  1  0
 15 13  1  0
 16 15  2  0
 17 21  1  0
 18 19  1  0
 18 17  1  0
 19 20  1  0
 21 20  1  0
 22 24  1  0
 21 22  1  1
 23 22  2  0
M  END
$$$$
