CPN.pdb
     RDKit          3D

 22 22  0  0  1  0  0  0  0  0999 V2000
   20.9020  -22.1600  -13.7881 N   0  0  0  0  0  0  0  0  0  0  0  0
   20.4931  -21.3452  -12.6941 C   0  0  1  0  0  0  0  0  0  0  0  0
   19.0814  -20.8433  -12.9691 C   0  0  0  0  0  0  0  0  0  0  0  0
   19.1978  -19.4021  -14.0709 S   0  0  0  0  0  0  0  0  0  0  0  0
   20.5821  -22.0484  -11.4092 C   0  0  0  0  0  0  0  0  0  0  0  0
   20.1991  -23.2737  -11.3832 O   0  0  0  0  0  0  0  0  0  0  0  0
   21.0538  -21.4959  -10.1919 N   0  0  0  0  0  0  0  0  0  0  0  0
   21.6141  -20.1705  -10.0787 C   0  0  0  0  0  0  0  0  0  0  0  0
   22.0040  -19.9291   -8.6647 C   0  0  0  0  0  0  0  0  0  0  0  0
   21.8268  -21.2405   -7.9785 C   0  0  0  0  0  0  0  0  0  0  0  0
   21.0555  -22.1444   -8.9079 C   0  0  1  0  0  0  0  0  0  0  0  0
   19.6937  -22.3557   -8.3747 C   0  0  0  0  0  0  0  0  0  0  0  0
   18.7130  -21.8486   -8.9530 O   0  0  0  0  0  0  0  0  0  0  0  0
   15.8812  -24.5204   -8.2699 N   0  0  0  0  0  0  0  0  0  0  0  0
   17.0212  -25.0875   -8.9231 C   0  0  0  0  0  0  0  0  0  0  0  0
   16.7691  -25.7035   -9.9881 O   0  0  0  0  0  0  0  0  0  0  0  0
   18.3668  -24.9397   -8.3612 C   0  0  0  0  0  0  0  0  0  0  0  0
   18.3888  -24.0658   -7.1429 C   0  0  2  0  0  0  0  0  0  0  0  0
   19.5005  -23.1253   -7.2196 N   0  0  0  0  0  0  0  0  0  0  0  0
   18.3861  -24.8217   -5.9027 C   0  0  0  0  0  0  0  0  0  0  0  0
   17.2444  -25.1360   -5.4118 O   0  0  0  0  0  0  0  0  0  0  0  0
   19.4612  -25.2496   -5.1774 O   0  0  0  0  0  0  0  0  0  0  0  0
  2  1  1  6
  2  5  1  0
  3  2  1  0
  4  3  1  0
  5  7  1  0
  6  5  2  0
  7  8  1  0
  7 11  1  0
  9  8  1  0
 10  9  1  0
 10 11  1  0
 11 12  1  1
 12 19  1  0
 12 13  2  0
 15 14  1  0
 15 17  1  0
 16 15  2  0
 18 20  1  0
 18 17  1  6
 19 18  1  0
 20 22  1  0
 21 20  2  0
M  END
$$$$
