CPN.pdb
     RDKit          3D

 22 22  0  0  1  0  0  0  0  0999 V2000
   18.8413  -13.0460  -17.0457 N   0  0  0  0  0  0  0  0  0  0  0  0
   20.0593  -12.4064  -17.4130 C   0  0  1  0  0  0  0  0  0  0  0  0
   19.8348  -11.6584  -18.7209 C   0  0  0  0  0  0  0  0  0  0  0  0
   19.4849  -12.8815  -20.0194 S   0  0  0  0  0  0  0  0  0  0  0  0
   20.5665  -11.5214  -16.3579 C   0  0  0  0  0  0  0  0  0  0  0  0
   19.6998  -10.8579  -15.6818 O   0  0  0  0  0  0  0  0  0  0  0  0
   21.9296  -11.3328  -16.0173 N   0  0  0  0  0  0  0  0  0  0  0  0
   23.0142  -12.0715  -16.6185 C   0  0  0  0  0  0  0  0  0  0  0  0
   24.2979  -11.6181  -16.0214 C   0  0  0  0  0  0  0  0  0  0  0  0
   23.9128  -10.7126  -14.9017 C   0  0  0  0  0  0  0  0  0  0  0  0
   22.4427  -10.4057  -15.0445 C   0  0  1  0  0  0  0  0  0  0  0  0
   22.2693   -8.9965  -15.4540 C   0  0  0  0  0  0  0  0  0  0  0  0
   21.9691   -8.7230  -16.6322 O   0  0  0  0  0  0  0  0  0  0  0  0
   20.6084   -4.2137  -15.2455 N   0  0  0  0  0  0  0  0  0  0  0  0
   19.8129   -5.4031  -15.2353 C   0  0  0  0  0  0  0  0  0  0  0  0
   18.5860   -5.2211  -15.4325 O   0  0  0  0  0  0  0  0  0  0  0  0
   20.4199   -6.7177  -15.0086 C   0  0  0  0  0  0  0  0  0  0  0  0
   21.9009   -6.6374  -14.7879 C   0  0  2  0  0  0  0  0  0  0  0  0
   22.4415   -7.9651  -14.5209 N   0  0  0  0  0  0  0  0  0  0  0  0
   22.2706   -5.6723  -13.7676 C   0  0  0  0  0  0  0  0  0  0  0  0
   22.0353   -5.9908  -12.5485 O   0  0  0  0  0  0  0  0  0  0  0  0
   22.8472   -4.4465  -13.9405 O   0  0  0  0  0  0  0  0  0  0  0  0
  2  1  1  1
  2  5  1  0
  3  2  1  0
  4  3  1  0
  5  7  1  0
  6  5  2  0
  7  8  1  0
  7 11  1  0
  9  8  1  0
 10  9  1  0
 10 11  1  0
 11 12  1  6
 12 19  1  0
 12 13  2  0
 15 14  1  0
 15 17  1  0
 16 15  2  0
 18 20  1  0
 18 17  1  1
 19 18  1  0
 20 22  1  0
 21 20  2  0
M  END
$$$$
