CPN.pdb
     RDKit          3D

 22 22  0  0  1  0  0  0  0  0999 V2000
   23.8041  -20.7122  -10.9847 N   0  0  0  0  0  0  0  0  0  0  0  0
   25.1147  -20.3536  -11.4110 C   0  0  1  0  0  0  0  0  0  0  0  0
   26.1221  -21.1477  -10.5894 C   0  0  0  0  0  0  0  0  0  0  0  0
   26.3025  -20.3330   -8.9743 S   0  0  0  0  0  0  0  0  0  0  0  0
   25.3079  -20.5520  -12.8521 C   0  0  0  0  0  0  0  0  0  0  0  0
   24.4645  -21.3066  -13.4587 O   0  0  0  0  0  0  0  0  0  0  0  0
   26.3435  -19.9845  -13.6364 N   0  0  0  0  0  0  0  0  0  0  0  0
   27.3329  -19.0717  -13.1155 C   0  0  0  0  0  0  0  0  0  0  0  0
   28.2543  -18.6786  -14.2139 C   0  0  0  0  0  0  0  0  0  0  0  0
   27.6542  -19.2486  -15.4536 C   0  0  0  0  0  0  0  0  0  0  0  0
   26.5720  -20.2138  -15.0379 C   0  0  1  0  0  0  0  0  0  0  0  0
   27.0058  -21.5968  -15.3254 C   0  0  0  0  0  0  0  0  0  0  0  0
   27.6688  -22.2296  -14.4808 O   0  0  0  0  0  0  0  0  0  0  0  0
   25.7610  -26.3384  -16.4508 N   0  0  0  0  0  0  0  0  0  0  0  0
   25.0408  -25.4318  -15.6099 C   0  0  0  0  0  0  0  0  0  0  0  0
   24.1479  -25.9612  -14.9030 O   0  0  0  0  0  0  0  0  0  0  0  0
   25.3504  -23.9992  -15.6012 C   0  0  0  0  0  0  0  0  0  0  0  0
   26.4012  -23.6315  -16.6057 C   0  0  2  0  0  0  0  0  0  0  0  0
   26.6740  -22.2003  -16.5459 N   0  0  0  0  0  0  0  0  0  0  0  0
   26.0826  -24.0800  -17.9498 C   0  0  0  0  0  0  0  0  0  0  0  0
   25.1115  -23.4940  -18.5470 O   0  0  0  0  0  0  0  0  0  0  0  0
   26.6940  -25.0630  -18.6743 O   0  0  0  0  0  0  0  0  0  0  0  0
  2  1  1  1
  2  5  1  0
  3  2  1  0
  4  3  1  0
  5  7  1  0
  6  5  2  0
  7  8  1  0
  7 11  1  0
  9  8  1  0
 10  9  1  0
 10 11  1  0
 11 12  1  1
 12 19  1  0
 12 13  2  0
 15 14  1  0
 15 17  1  0
 16 15  2  0
 18 20  1  0
 18 17  1  1
 19 18  1  0
 20 22  1  0
 21 20  2  0
M  END
$$$$
