CPN.pdb
     RDKit          3D

 22 22  0  0  1  0  0  0  0  0999 V2000
   22.3441  -14.6573  -17.8199 N   0  0  0  0  0  0  0  0  0  0  0  0
   23.1896  -13.5342  -18.0469 C   0  0  1  0  0  0  0  0  0  0  0  0
   22.8979  -12.9854  -19.4377 C   0  0  0  0  0  0  0  0  0  0  0  0
   23.5934  -14.1388  -20.6585 S   0  0  0  0  0  0  0  0  0  0  0  0
   23.0420  -12.5047  -17.0116 C   0  0  0  0  0  0  0  0  0  0  0  0
   21.8597  -12.2954  -16.5567 O   0  0  0  0  0  0  0  0  0  0  0  0
   24.0891  -11.7192  -16.4673 N   0  0  0  0  0  0  0  0  0  0  0  0
   25.4806  -11.8927  -16.8096 C   0  0  0  0  0  0  0  0  0  0  0  0
   26.2923  -10.9052  -16.0509 C   0  0  0  0  0  0  0  0  0  0  0  0
   25.3420  -10.2639  -15.0982 C   0  0  0  0  0  0  0  0  0  0  0  0
   23.9446  -10.6543  -15.5112 C   0  0  1  0  0  0  0  0  0  0  0  0
   23.2474   -9.4775  -16.0705 C   0  0  0  0  0  0  0  0  0  0  0  0
   23.4194   -9.1608  -17.2636 O   0  0  0  0  0  0  0  0  0  0  0  0
   19.7861   -5.7996  -16.9036 N   0  0  0  0  0  0  0  0  0  0  0  0
   19.3938   -7.1756  -16.8833 C   0  0  0  0  0  0  0  0  0  0  0  0
   18.2837   -7.4176  -17.4185 O   0  0  0  0  0  0  0  0  0  0  0  0
   20.2498   -8.1978  -16.2745 C   0  0  0  0  0  0  0  0  0  0  0  0
   21.5817   -7.6549  -15.8505 C   0  0  2  0  0  0  0  0  0  0  0  0
   22.3922   -8.7153  -15.2632 N   0  0  0  0  0  0  0  0  0  0  0  0
   21.4714   -6.4957  -14.9827 C   0  0  0  0  0  0  0  0  0  0  0  0
   20.9873   -5.4252  -15.4954 O   0  0  0  0  0  0  0  0  0  0  0  0
   21.8225   -6.3950  -13.6668 O   0  0  0  0  0  0  0  0  0  0  0  0
  2  1  1  1
  2  5  1  0
  3  2  1  0
  4  3  1  0
  5  7  1  0
  6  5  2  0
  7  8  1  0
  7 11  1  0
  9  8  1  0
 10  9  1  0
 10 11  1  0
 11 12  1  6
 12 19  1  0
 12 13  2  0
 15 14  1  0
 15 17  1  0
 16 15  2  0
 18 20  1  0
 18 17  1  1
 19 18  1  0
 20 22  1  0
 21 20  2  0
M  END
$$$$
