CPN.pdb
     RDKit          3D

 22 22  0  0  1  0  0  0  0  0999 V2000
   19.5022  -12.8520  -16.4334 N   0  0  0  0  0  0  0  0  0  0  0  0
   20.3635  -11.9176  -17.0760 C   0  0  1  0  0  0  0  0  0  0  0  0
   19.5935  -11.2551  -18.2112 C   0  0  0  0  0  0  0  0  0  0  0  0
   19.1541  -12.5384  -19.4214 S   0  0  0  0  0  0  0  0  0  0  0  0
   20.9146  -10.9302  -16.1407 C   0  0  0  0  0  0  0  0  0  0  0  0
   20.1219  -10.4650  -15.2442 O   0  0  0  0  0  0  0  0  0  0  0  0
   22.2458  -10.4429  -16.1378 N   0  0  0  0  0  0  0  0  0  0  0  0
   23.2818  -10.9397  -17.0116 C   0  0  0  0  0  0  0  0  0  0  0  0
   24.5440  -10.2061  -16.7315 C   0  0  0  0  0  0  0  0  0  0  0  0
   24.2608   -9.3840  -15.5208 C   0  0  0  0  0  0  0  0  0  0  0  0
   22.7705   -9.4072  -15.2885 C   0  0  1  0  0  0  0  0  0  0  0  0
   22.2018   -8.0779  -15.5937 C   0  0  0  0  0  0  0  0  0  0  0  0
   21.7038   -7.8562  -16.7145 O   0  0  0  0  0  0  0  0  0  0  0  0
   18.2655   -4.5001  -15.3390 N   0  0  0  0  0  0  0  0  0  0  0  0
   19.4508   -4.5528  -14.5389 C   0  0  0  0  0  0  0  0  0  0  0  0
   19.8110   -3.4520  -14.0533 O   0  0  0  0  0  0  0  0  0  0  0  0
   20.1638   -5.8152  -14.3245 C   0  0  0  0  0  0  0  0  0  0  0  0
   21.5548   -5.7927  -14.8839 C   0  0  2  0  0  0  0  0  0  0  0  0
   22.2204   -7.0642  -14.6262 N   0  0  0  0  0  0  0  0  0  0  0  0
   22.3328   -4.6559  -14.4237 C   0  0  0  0  0  0  0  0  0  0  0  0
   22.9483   -4.7822  -13.3064 O   0  0  0  0  0  0  0  0  0  0  0  0
   22.4975   -3.4470  -15.0373 O   0  0  0  0  0  0  0  0  0  0  0  0
  2  1  1  1
  2  5  1  0
  3  2  1  0
  4  3  1  0
  5  7  1  0
  6  5  2  0
  7  8  1  0
  7 11  1  0
  9  8  1  0
 10  9  1  0
 10 11  1  0
 11 12  1  6
 12 19  1  0
 12 13  2  0
 15 14  1  0
 15 17  1  0
 16 15  2  0
 18 20  1  0
 18 17  1  1
 19 18  1  0
 20 22  1  0
 21 20  2  0
M  END
$$$$
