CPN.pdb
     RDKit          3D

 22 22  0  0  1  0  0  0  0  0999 V2000
   27.4291  -11.6966  -19.3160 N   0  0  0  0  0  0  0  0  0  0  0  0
   27.6760  -10.3016  -19.4598 C   0  0  1  0  0  0  0  0  0  0  0  0
   26.7210   -9.5469  -18.5439 C   0  0  0  0  0  0  0  0  0  0  0  0
   27.1053   -7.7741  -18.6630 S   0  0  0  0  0  0  0  0  0  0  0  0
   29.0765   -9.9515  -19.1963 C   0  0  0  0  0  0  0  0  0  0  0  0
   29.5768  -10.3355  -18.0778 O   0  0  0  0  0  0  0  0  0  0  0  0
   29.9285   -9.2263  -20.0668 N   0  0  0  0  0  0  0  0  0  0  0  0
   29.5228   -8.7447  -21.3656 C   0  0  0  0  0  0  0  0  0  0  0  0
   30.6661   -8.0351  -21.9973 C   0  0  0  0  0  0  0  0  0  0  0  0
   31.8282   -8.2818  -21.0969 C   0  0  0  0  0  0  0  0  0  0  0  0
   31.2967   -8.8637  -19.8106 C   0  0  1  0  0  0  0  0  0  0  0  0
   31.4286   -7.8687  -18.7262 C   0  0  0  0  0  0  0  0  0  0  0  0
   30.4596   -7.1460  -18.4230 O   0  0  0  0  0  0  0  0  0  0  0  0
   33.1903   -5.1794  -14.6998 N   0  0  0  0  0  0  0  0  0  0  0  0
   33.9878   -6.3605  -14.8298 C   0  0  0  0  0  0  0  0  0  0  0  0
   34.8376   -6.5281  -13.9205 O   0  0  0  0  0  0  0  0  0  0  0  0
   33.7979   -7.2820  -15.9536 C   0  0  0  0  0  0  0  0  0  0  0  0
   32.7474   -6.8099  -16.9138 C   0  0  2  0  0  0  0  0  0  0  0  0
   32.6412   -7.7345  -18.0363 N   0  0  0  0  0  0  0  0  0  0  0  0
   32.9471   -5.4368  -17.3428 C   0  0  0  0  0  0  0  0  0  0  0  0
   33.7981   -5.2348  -18.2799 O   0  0  0  0  0  0  0  0  0  0  0  0
   32.3351   -4.3115  -16.8695 O   0  0  0  0  0  0  0  0  0  0  0  0
  2  1  1  1
  2  5  1  0
  3  2  1  0
  4  3  1  0
  5  7  1  0
  6  5  2  0
  7  8  1  0
  7 11  1  0
  9  8  1  0
 10  9  1  0
 10 11  1  0
 11 12  1  1
 12 19  1  0
 12 13  2  0
 15 14  1  0
 15 17  1  0
 16 15  2  0
 18 20  1  0
 18 17  1  1
 19 18  1  0
 20 22  1  0
 21 20  2  0
M  END
$$$$
