CPN.pdb
     RDKit          3D

 22 22  0  0  1  0  0  0  0  0999 V2000
   26.7444  -22.8329  -17.9675 N   0  0  0  0  0  0  0  0  0  0  0  0
   27.9380  -23.2803  -17.3329 C   0  0  1  0  0  0  0  0  0  0  0  0
   27.6116  -23.6322  -15.8872 C   0  0  0  0  0  0  0  0  0  0  0  0
   27.0658  -22.1163  -15.0453 S   0  0  0  0  0  0  0  0  0  0  0  0
   28.5604  -24.4046  -18.0414 C   0  0  0  0  0  0  0  0  0  0  0  0
   27.7753  -25.2498  -18.6052 O   0  0  0  0  0  0  0  0  0  0  0  0
   29.9530  -24.6421  -18.1599 N   0  0  0  0  0  0  0  0  0  0  0  0
   30.9638  -23.7360  -17.6693 C   0  0  0  0  0  0  0  0  0  0  0  0
   32.3060  -24.3010  -17.9676 C   0  0  0  0  0  0  0  0  0  0  0  0
   32.0495  -25.4914  -18.8273 C   0  0  0  0  0  0  0  0  0  0  0  0
   30.5713  -25.7876  -18.7719 C   0  0  1  0  0  0  0  0  0  0  0  0
   30.3449  -27.0327  -18.0090 C   0  0  0  0  0  0  0  0  0  0  0  0
   30.3204  -27.0038  -16.7632 O   0  0  0  0  0  0  0  0  0  0  0  0
   28.8503  -31.5632  -16.3894 N   0  0  0  0  0  0  0  0  0  0  0  0
   28.0313  -30.3931  -16.4773 C   0  0  0  0  0  0  0  0  0  0  0  0
   26.9620  -30.4447  -15.8207 O   0  0  0  0  0  0  0  0  0  0  0  0
   28.4428  -29.2401  -17.2832 C   0  0  0  0  0  0  0  0  0  0  0  0
   29.7745  -29.4441  -17.9417 C   0  0  2  0  0  0  0  0  0  0  0  0
   30.1571  -28.2475  -18.6820 N   0  0  0  0  0  0  0  0  0  0  0  0
   29.8246  -30.6427  -18.7602 C   0  0  0  0  0  0  0  0  0  0  0  0
   29.7287  -31.7687  -18.1551 O   0  0  0  0  0  0  0  0  0  0  0  0
   29.9633  -30.7287  -20.1161 O   0  0  0  0  0  0  0  0  0  0  0  0
  2  1  1  6
  2  5  1  0
  3  2  1  0
  4  3  1  0
  5  7  1  0
  6  5  2  0
  7  8  1  0
  7 11  1  0
  9  8  1  0
 10  9  1  0
 10 11  1  0
 11 12  1  1
 12 19  1  0
 12 13  2  0
 15 14  1  0
 15 17  1  0
 16 15  2  0
 18 20  1  0
 18 17  1  6
 19 18  1  0
 20 22  1  0
 21 20  2  0
M  END
$$$$
