CPN.pdb
     RDKit          3D

 22 22  0  0  1  0  0  0  0  0999 V2000
   18.8117  -12.1803  -18.2045 N   0  0  0  0  0  0  0  0  0  0  0  0
   18.1027  -10.9550  -18.0501 C   0  0  1  0  0  0  0  0  0  0  0  0
   17.1398  -11.1005  -16.8786 C   0  0  0  0  0  0  0  0  0  0  0  0
   15.7927  -12.2099  -17.3878 S   0  0  0  0  0  0  0  0  0  0  0  0
   19.0006   -9.8069  -17.8796 C   0  0  0  0  0  0  0  0  0  0  0  0
   20.1125  -10.0167  -17.2728 O   0  0  0  0  0  0  0  0  0  0  0  0
   18.7506   -8.4847  -18.3254 N   0  0  0  0  0  0  0  0  0  0  0  0
   17.5757   -8.1002  -19.0706 C   0  0  0  0  0  0  0  0  0  0  0  0
   17.6479   -6.6462  -19.3715 C   0  0  0  0  0  0  0  0  0  0  0  0
   19.0095   -6.2220  -18.9379 C   0  0  0  0  0  0  0  0  0  0  0  0
   19.6003   -7.3426  -18.1189 C   0  0  1  0  0  0  0  0  0  0  0  0
   19.6709   -6.9343  -16.7005 C   0  0  0  0  0  0  0  0  0  0  0  0
   18.8746   -7.4185  -15.8729 O   0  0  0  0  0  0  0  0  0  0  0  0
   21.7489   -6.0438  -12.1940 N   0  0  0  0  0  0  0  0  0  0  0  0
   21.8649   -7.2378  -12.9742 C   0  0  0  0  0  0  0  0  0  0  0  0
   22.3116   -8.2342  -12.3539 O   0  0  0  0  0  0  0  0  0  0  0  0
   21.4811   -7.2580  -14.3886 C   0  0  0  0  0  0  0  0  0  0  0  0
   21.0079   -5.9210  -14.8756 C   0  0  2  0  0  0  0  0  0  0  0  0
   20.6312   -6.0034  -16.2818 N   0  0  0  0  0  0  0  0  0  0  0  0
   21.9592   -4.8544  -14.6176 C   0  0  0  0  0  0  0  0  0  0  0  0
   21.7797   -4.1538  -13.5593 O   0  0  0  0  0  0  0  0  0  0  0  0
   23.0407   -4.4934  -15.3694 O   0  0  0  0  0  0  0  0  0  0  0  0
  2  1  1  1
  2  5  1  0
  3  2  1  0
  4  3  1  0
  5  7  1  0
  6  5  2  0
  7  8  1  0
  7 11  1  0
  9  8  1  0
 10  9  1  0
 10 11  1  0
 11 12  1  1
 12 19  1  0
 12 13  2  0
 15 14  1  0
 15 17  1  0
 16 15  2  0
 18 20  1  0
 18 17  1  6
 19 18  1  0
 20 22  1  0
 21 20  2  0
M  END
$$$$
