CPN.pdb
     RDKit          3D

 22 22  0  0  1  0  0  0  0  0999 V2000
   27.4411  -19.9949  -17.2487 N   0  0  0  0  0  0  0  0  0  0  0  0
   27.1765  -19.5013  -15.9394 C   0  0  1  0  0  0  0  0  0  0  0  0
   26.7014  -18.0586  -16.0559 C   0  0  0  0  0  0  0  0  0  0  0  0
   28.1450  -16.9704  -15.8647 S   0  0  0  0  0  0  0  0  0  0  0  0
   26.2141  -20.3360  -15.2110 C   0  0  0  0  0  0  0  0  0  0  0  0
   25.1732  -20.7273  -15.8527 O   0  0  0  0  0  0  0  0  0  0  0  0
   26.3305  -20.7501  -13.8602 N   0  0  0  0  0  0  0  0  0  0  0  0
   27.5230  -20.5685  -13.0675 C   0  0  0  0  0  0  0  0  0  0  0  0
   27.2893  -21.1222  -11.7079 C   0  0  0  0  0  0  0  0  0  0  0  0
   25.9707  -21.8131  -11.7859 C   0  0  0  0  0  0  0  0  0  0  0  0
   25.3132  -21.4023  -13.0799 C   0  0  1  0  0  0  0  0  0  0  0  0
   24.1633  -20.5201  -12.7919 C   0  0  0  0  0  0  0  0  0  0  0  0
   24.3389  -19.2944  -12.6506 O   0  0  0  0  0  0  0  0  0  0  0  0
   20.1793  -19.1657  -15.9818 N   0  0  0  0  0  0  0  0  0  0  0  0
   21.0218  -18.7083  -14.9194 C   0  0  0  0  0  0  0  0  0  0  0  0
   20.7449  -17.5653  -14.4789 O   0  0  0  0  0  0  0  0  0  0  0  0
   22.1159  -19.5396  -14.4097 C   0  0  0  0  0  0  0  0  0  0  0  0
   21.7249  -20.3221  -13.1918 C   0  0  2  0  0  0  0  0  0  0  0  0
   22.8740  -21.0575  -12.6771 N   0  0  0  0  0  0  0  0  0  0  0  0
   20.5725  -21.1777  -13.4133 C   0  0  0  0  0  0  0  0  0  0  0  0
   20.7472  -22.2170  -14.1429 O   0  0  0  0  0  0  0  0  0  0  0  0
   19.3028  -21.0167  -12.9368 O   0  0  0  0  0  0  0  0  0  0  0  0
  2  1  1  6
  2  5  1  0
  3  2  1  0
  4  3  1  0
  5  7  1  0
  6  5  2  0
  7  8  1  0
  7 11  1  0
  9  8  1  0
 10  9  1  0
 10 11  1  0
 11 12  1  1
 12 19  1  0
 12 13  2  0
 15 14  1  0
 15 17  1  0
 16 15  2  0
 18 20  1  0
 18 17  1  6
 19 18  1  0
 20 22  1  0
 21 20  2  0
M  END
$$$$
