CPN.pdb
     RDKit          3D

 22 22  0  0  1  0  0  0  0  0999 V2000
   19.4200  -12.7687  -17.9940 N   0  0  0  0  0  0  0  0  0  0  0  0
   20.7524  -12.2694  -17.9371 C   0  0  1  0  0  0  0  0  0  0  0  0
   21.0811  -11.6214  -19.2760 C   0  0  0  0  0  0  0  0  0  0  0  0
   21.6930  -12.9160  -20.3960 S   0  0  0  0  0  0  0  0  0  0  0  0
   20.9548  -11.3425  -16.8175 C   0  0  0  0  0  0  0  0  0  0  0  0
   20.0182  -10.4973  -16.5789 O   0  0  0  0  0  0  0  0  0  0  0  0
   22.0933  -11.2962  -15.9741 N   0  0  0  0  0  0  0  0  0  0  0  0
   23.2024  -12.2143  -16.0760 C   0  0  0  0  0  0  0  0  0  0  0  0
   24.2094  -11.8739  -15.0368 C   0  0  0  0  0  0  0  0  0  0  0  0
   23.5627  -10.8325  -14.1887 C   0  0  0  0  0  0  0  0  0  0  0  0
   22.3245  -10.3584  -14.9082 C   0  0  1  0  0  0  0  0  0  0  0  0
   22.5345   -8.9800  -15.3979 C   0  0  0  0  0  0  0  0  0  0  0  0
   22.7479   -8.7751  -16.6086 O   0  0  0  0  0  0  0  0  0  0  0  0
   21.2436   -4.0811  -15.8616 N   0  0  0  0  0  0  0  0  0  0  0  0
   20.5069   -5.2489  -16.2375 C   0  0  0  0  0  0  0  0  0  0  0  0
   19.5453   -5.0399  -17.0178 O   0  0  0  0  0  0  0  0  0  0  0  0
   20.8769   -6.5731  -15.7299 C   0  0  0  0  0  0  0  0  0  0  0  0
   22.1793   -6.5614  -14.9870 C   0  0  2  0  0  0  0  0  0  0  0  0
   22.4944   -7.9009  -14.5046 N   0  0  0  0  0  0  0  0  0  0  0  0
   22.2200   -5.5669  -13.9294 C   0  0  0  0  0  0  0  0  0  0  0  0
   22.6503   -4.4001  -14.2398 O   0  0  0  0  0  0  0  0  0  0  0  0
   21.8526   -5.7152  -12.6224 O   0  0  0  0  0  0  0  0  0  0  0  0
  2  1  1  6
  2  5  1  0
  3  2  1  0
  4  3  1  0
  5  7  1  0
  6  5  2  0
  7  8  1  0
  7 11  1  0
  9  8  1  0
 10  9  1  0
 10 11  1  0
 11 12  1  6
 12 19  1  0
 12 13  2  0
 15 14  1  0
 15 17  1  0
 16 15  2  0
 18 20  1  0
 18 17  1  1
 19 18  1  0
 20 22  1  0
 21 20  2  0
M  END
$$$$
