LKR.pdb
     RDKit          3D

 29 28  0  0  1  0  0  0  0  0999 V2000
   18.5234  -16.3670  -12.3031 C   0  0  0  0  0  0  0  0  0  0  0  0
   18.5131  -17.0100  -13.6574 C   0  0  1  0  0  0  0  0  0  0  0  0
   17.7363  -16.2021  -14.6642 C   0  0  0  0  0  0  0  0  0  0  0  0
   19.8893  -17.3723  -14.1574 C   0  0  0  0  0  0  0  0  0  0  0  0
   19.8704  -18.0362  -15.4953 C   0  0  2  0  0  0  0  0  0  0  0  0
   19.4304  -19.3967  -15.3937 N   0  0  0  0  0  0  0  0  0  0  0  0
   21.2119  -17.9139  -16.1221 C   0  0  0  0  0  0  0  0  0  0  0  0
   22.0997  -18.7138  -15.7320 O   0  0  0  0  0  0  0  0  0  0  0  0
   21.5239  -16.9515  -17.1212 N   0  0  0  0  0  0  0  0  0  0  0  0
   22.8118  -16.8515  -17.7617 C   0  0  1  0  0  0  0  0  0  0  0  0
   22.7643  -16.1181  -19.0763 C   0  0  0  0  0  0  0  0  0  0  0  0
   24.1335  -15.9710  -19.7024 C   0  0  0  0  0  0  0  0  0  0  0  0
   23.9739  -15.2439  -21.0241 C   0  0  0  0  0  0  0  0  0  0  0  0
   25.3177  -15.0776  -21.7038 C   0  0  0  0  0  0  0  0  0  0  0  0
   25.1535  -14.4502  -22.9855 N   0  0  0  0  0  0  0  0  0  0  0  0
   23.7809  -16.1945  -16.8445 C   0  0  0  0  0  0  0  0  0  0  0  0
   23.5345  -15.0845  -16.2991 O   0  0  0  0  0  0  0  0  0  0  0  0
   26.2882  -20.9553  -11.1029 N   0  0  0  0  0  0  0  0  0  0  0  0
   26.4542  -21.4368  -12.4245 C   0  0  0  0  0  0  0  0  0  0  0  0
   26.5791  -22.7205  -12.6436 N   0  0  0  0  0  0  0  0  0  0  0  0
   26.4832  -20.5143  -13.4996 N   0  0  0  0  0  0  0  0  0  0  0  0
   26.2776  -19.0858  -13.2038 C   0  0  0  0  0  0  0  0  0  0  0  0
   26.2544  -18.3687  -14.4915 C   0  0  0  0  0  0  0  0  0  0  0  0
   26.1065  -16.9302  -14.5113 C   0  0  0  0  0  0  0  0  0  0  0  0
   25.9986  -16.1122  -15.7201 C   0  0  2  0  0  0  0  0  0  0  0  0
   25.0037  -16.8444  -16.5890 N   0  0  0  0  0  0  0  0  0  0  0  0
   27.1631  -15.9612  -16.5857 C   0  0  0  0  0  0  0  0  0  0  0  0
   28.1734  -15.0359  -16.4666 O   0  0  0  0  0  0  0  0  0  0  0  0
   27.3093  -16.7494  -17.5975 O   0  0  0  0  0  0  0  0  0  0  0  0
  2  1  1  1
  2  4  1  0
  2  3  1  0
  5  4  1  0
  5  7  1  0
  5  6  1  1
  7  8  2  0
  9 10  1  0
  9  7  1  0
 10 16  1  0
 10 11  1  6
 12 11  1  0
 12 13  1  0
 14 15  1  0
 14 13  1  0
 16 17  2  0
 18 19  1  0
 19 21  1  0
 20 19  2  0
 21 22  1  0
 23 24  1  0
 23 22  1  0
 25 24  1  1
 25 27  1  0
 26 16  1  0
 26 25  1  0
 27 29  2  0
 27 28  1  0
M  END
$$$$
