LKR.pdb
     RDKit          3D

 29 28  0  0  1  0  0  0  0  0999 V2000
   27.8529  -19.7689   -7.8191 C   0  0  0  0  0  0  0  0  0  0  0  0
   26.9158  -20.6065   -8.6365 C   0  0  1  0  0  0  0  0  0  0  0  0
   25.5156  -20.6001   -8.0805 C   0  0  0  0  0  0  0  0  0  0  0  0
   26.9462  -20.2745  -10.1076 C   0  0  0  0  0  0  0  0  0  0  0  0
   26.0249  -21.1252  -10.9192 C   0  0  2  0  0  0  0  0  0  0  0  0
   26.6065  -22.4066  -11.1920 N   0  0  0  0  0  0  0  0  0  0  0  0
   25.6446  -20.3943  -12.1555 C   0  0  0  0  0  0  0  0  0  0  0  0
   25.2034  -19.2256  -12.0152 O   0  0  0  0  0  0  0  0  0  0  0  0
   25.7569  -20.9506  -13.4593 N   0  0  0  0  0  0  0  0  0  0  0  0
   25.4274  -20.2340  -14.6663 C   0  0  1  0  0  0  0  0  0  0  0  0
   26.3357  -20.5683  -15.8202 C   0  0  0  0  0  0  0  0  0  0  0  0
   27.4952  -21.4459  -15.4037 C   0  0  0  0  0  0  0  0  0  0  0  0
   28.3524  -21.7098  -16.6271 C   0  0  0  0  0  0  0  0  0  0  0  0
   29.5057  -22.6284  -16.2787 C   0  0  0  0  0  0  0  0  0  0  0  0
   30.2410  -22.9760  -17.4626 N   0  0  0  0  0  0  0  0  0  0  0  0
   24.0114  -20.4968  -15.0376 C   0  0  0  0  0  0  0  0  0  0  0  0
   23.5229  -21.6594  -15.0201 O   0  0  0  0  0  0  0  0  0  0  0  0
   19.7094  -21.3229  -11.8510 N   0  0  0  0  0  0  0  0  0  0  0  0
   18.4601  -20.6569  -11.8097 C   0  0  0  0  0  0  0  0  0  0  0  0
   17.8068  -20.5584  -10.6806 N   0  0  0  0  0  0  0  0  0  0  0  0
   17.9308  -20.1023  -13.0013 N   0  0  0  0  0  0  0  0  0  0  0  0
   18.8414  -19.8854  -14.1389 C   0  0  0  0  0  0  0  0  0  0  0  0
   20.0745  -19.2785  -13.6060 C   0  0  0  0  0  0  0  0  0  0  0  0
   21.1093  -18.8362  -14.5143 C   0  0  0  0  0  0  0  0  0  0  0  0
   21.7254  -19.6619  -15.5538 C   0  0  2  0  0  0  0  0  0  0  0  0
   23.2074  -19.4049  -15.4170 N   0  0  0  0  0  0  0  0  0  0  0  0
   21.4542  -19.3638  -16.9558 C   0  0  0  0  0  0  0  0  0  0  0  0
   20.3719  -19.7732  -17.6988 O   0  0  0  0  0  0  0  0  0  0  0  0
   22.2934  -18.6487  -17.6273 O   0  0  0  0  0  0  0  0  0  0  0  0
  2  1  1  1
  2  4  1  0
  2  3  1  0
  5  4  1  0
  5  7  1  0
  5  6  1  6
  7  8  2  0
  9 10  1  0
  9  7  1  0
 10 16  1  0
 10 11  1  6
 12 11  1  0
 12 13  1  0
 14 15  1  0
 14 13  1  0
 16 17  2  0
 18 19  1  0
 19 21  1  0
 20 19  2  0
 21 22  1  0
 23 24  1  0
 23 22  1  0
 25 24  1  1
 25 27  1  0
 26 16  1  0
 26 25  1  0
 27 29  2  0
 27 28  1  0
M  END
$$$$
