LKR.pdb
     RDKit          3D

 29 28  0  0  1  0  0  0  0  0999 V2000
   32.2464  -22.2732   -9.2588 C   0  0  0  0  0  0  0  0  0  0  0  0
   31.8874  -22.3170  -10.7138 C   0  0  1  0  0  0  0  0  0  0  0  0
   32.7255  -23.3099  -11.4764 C   0  0  0  0  0  0  0  0  0  0  0  0
   30.4116  -22.5094  -10.9596 C   0  0  0  0  0  0  0  0  0  0  0  0
   29.6911  -21.2291  -11.2295 C   0  0  2  0  0  0  0  0  0  0  0  0
   30.0120  -20.2355  -10.2475 N   0  0  0  0  0  0  0  0  0  0  0  0
   28.2323  -21.4969  -11.3172 C   0  0  0  0  0  0  0  0  0  0  0  0
   27.8644  -22.4031  -12.1070 O   0  0  0  0  0  0  0  0  0  0  0  0
   27.2595  -20.7865  -10.5617 N   0  0  0  0  0  0  0  0  0  0  0  0
   25.8522  -21.1000  -10.5725 C   0  0  1  0  0  0  0  0  0  0  0  0
   25.1916  -20.9054   -9.2332 C   0  0  0  0  0  0  0  0  0  0  0  0
   23.7234  -21.2687   -9.2581 C   0  0  0  0  0  0  0  0  0  0  0  0
   23.1556  -21.0398   -7.8701 C   0  0  0  0  0  0  0  0  0  0  0  0
   21.6944  -21.4372   -7.8225 C   0  0  0  0  0  0  0  0  0  0  0  0
   21.1714  -21.2548   -6.4972 N   0  0  0  0  0  0  0  0  0  0  0  0
   25.1621  -20.2834  -11.6064 C   0  0  0  0  0  0  0  0  0  0  0  0
   25.1794  -19.0226  -11.5803 O   0  0  0  0  0  0  0  0  0  0  0  0
   25.4904  -18.6102  -18.9472 N   0  0  0  0  0  0  0  0  0  0  0  0
   26.3947  -19.4676  -18.2739 C   0  0  0  0  0  0  0  0  0  0  0  0
   27.6812  -19.2373  -18.3298 N   0  0  0  0  0  0  0  0  0  0  0  0
   25.8894  -20.5717  -17.5436 N   0  0  0  0  0  0  0  0  0  0  0  0
   24.4298  -20.7604  -17.4778 C   0  0  0  0  0  0  0  0  0  0  0  0
   23.9529  -20.0829  -16.2586 C   0  0  0  0  0  0  0  0  0  0  0  0
   24.2658  -20.6356  -14.9593 C   0  0  0  0  0  0  0  0  0  0  0  0
   23.8022  -20.0942  -13.6811 C   0  0  2  0  0  0  0  0  0  0  0  0
   24.4744  -20.9532  -12.6364 N   0  0  0  0  0  0  0  0  0  0  0  0
   22.3868  -20.1842  -13.3393 C   0  0  0  0  0  0  0  0  0  0  0  0
   21.3860  -19.3154  -13.7059 O   0  0  0  0  0  0  0  0  0  0  0  0
   21.9713  -21.1614  -12.6054 O   0  0  0  0  0  0  0  0  0  0  0  0
  2  1  1  1
  2  4  1  0
  2  3  1  0
  5  4  1  0
  5  7  1  0
  5  6  1  1
  7  8  2  0
  9 10  1  0
  9  7  1  0
 10 16  1  0
 10 11  1  1
 12 11  1  0
 12 13  1  0
 14 15  1  0
 14 13  1  0
 16 17  2  0
 18 19  1  0
 19 21  1  0
 20 19  2  0
 21 22  1  0
 23 24  1  0
 23 22  1  0
 25 24  1  6
 25 27  1  0
 26 16  1  0
 26 25  1  0
 27 29  2  0
 27 28  1  0
M  END
$$$$
