LKR.pdb
     RDKit          3D

 29 28  0  0  1  0  0  0  0  0999 V2000
   24.3955  -14.9725  -21.8715 C   0  0  0  0  0  0  0  0  0  0  0  0
   24.0134  -15.6492  -20.5894 C   0  0  1  0  0  0  0  0  0  0  0  0
   24.9975  -15.3692  -19.4836 C   0  0  0  0  0  0  0  0  0  0  0  0
   22.5910  -15.3740  -20.1693 C   0  0  0  0  0  0  0  0  0  0  0  0
   22.2066  -16.0759  -18.9081 C   0  0  2  0  0  0  0  0  0  0  0  0
   22.3049  -17.4984  -19.0547 N   0  0  0  0  0  0  0  0  0  0  0  0
   20.8487  -15.6355  -18.4965 C   0  0  0  0  0  0  0  0  0  0  0  0
   19.9974  -15.4811  -19.4086 O   0  0  0  0  0  0  0  0  0  0  0  0
   20.4825  -15.3877  -17.1451 N   0  0  0  0  0  0  0  0  0  0  0  0
   19.1502  -15.0238  -16.7306 C   0  0  1  0  0  0  0  0  0  0  0  0
   18.6519  -15.8323  -15.5618 C   0  0  0  0  0  0  0  0  0  0  0  0
   17.8613  -17.0460  -15.9977 C   0  0  0  0  0  0  0  0  0  0  0  0
   17.6045  -17.9075  -14.7757 C   0  0  0  0  0  0  0  0  0  0  0  0
   16.9153  -19.1974  -15.1713 C   0  0  0  0  0  0  0  0  0  0  0  0
   16.8363  -20.0857  -14.0453 N   0  0  0  0  0  0  0  0  0  0  0  0
   19.1022  -13.5731  -16.4064 C   0  0  0  0  0  0  0  0  0  0  0  0
   19.9538  -13.0309  -15.6505 O   0  0  0  0  0  0  0  0  0  0  0  0
   17.0414   -6.9457  -21.3872 N   0  0  0  0  0  0  0  0  0  0  0  0
   16.7937   -6.3843  -20.1106 C   0  0  0  0  0  0  0  0  0  0  0  0
   16.5538   -5.1037  -19.9931 N   0  0  0  0  0  0  0  0  0  0  0  0
   16.8094   -7.2241  -18.9695 N   0  0  0  0  0  0  0  0  0  0  0  0
   17.1278   -8.6507  -19.1528 C   0  0  0  0  0  0  0  0  0  0  0  0
   16.9631   -9.3100  -17.8446 C   0  0  0  0  0  0  0  0  0  0  0  0
   17.2445  -10.7221  -17.7101 C   0  0  0  0  0  0  0  0  0  0  0  0
   18.0892  -11.3166  -16.6734 C   0  0  2  0  0  0  0  0  0  0  0  0
   18.0695  -12.7978  -16.9677 N   0  0  0  0  0  0  0  0  0  0  0  0
   17.6684  -11.2390  -15.2788 C   0  0  0  0  0  0  0  0  0  0  0  0
   18.0597  -10.3111  -14.3424 O   0  0  0  0  0  0  0  0  0  0  0  0
   16.8458  -12.1183  -14.8134 O   0  0  0  0  0  0  0  0  0  0  0  0
  2  1  1  6
  2  4  1  0
  2  3  1  0
  5  4  1  0
  5  7  1  0
  5  6  1  6
  7  8  2  0
  9 10  1  0
  9  7  1  0
 10 16  1  0
 10 11  1  1
 12 11  1  0
 12 13  1  0
 14 15  1  0
 14 13  1  0
 16 17  2  0
 18 19  1  0
 19 21  1  0
 20 19  2  0
 21 22  1  0
 23 24  1  0
 23 22  1  0
 25 24  1  6
 25 27  1  0
 26 16  1  0
 26 25  1  0
 27 29  2  0
 27 28  1  0
M  END
$$$$
