LKR.pdb
     RDKit          3D

 29 28  0  0  1  0  0  0  0  0999 V2000
   27.5101  -19.2421   -6.7099 C   0  0  0  0  0  0  0  0  0  0  0  0
   27.0877  -20.4369   -7.5110 C   0  0  1  0  0  0  0  0  0  0  0  0
   26.2869  -21.4159   -6.6923 C   0  0  0  0  0  0  0  0  0  0  0  0
   26.3979  -20.0765   -8.8031 C   0  0  0  0  0  0  0  0  0  0  0  0
   26.0213  -21.2700   -9.6186 C   0  0  2  0  0  0  0  0  0  0  0  0
   27.1831  -21.9506  -10.1104 N   0  0  0  0  0  0  0  0  0  0  0  0
   25.1010  -20.8495  -10.7065 C   0  0  0  0  0  0  0  0  0  0  0  0
   24.4662  -19.7780  -10.5354 O   0  0  0  0  0  0  0  0  0  0  0  0
   24.9141  -21.5927  -11.9043 N   0  0  0  0  0  0  0  0  0  0  0  0
   24.1020  -21.1422  -13.0072 C   0  0  1  0  0  0  0  0  0  0  0  0
   24.7866  -21.2792  -14.3416 C   0  0  0  0  0  0  0  0  0  0  0  0
   25.9653  -20.3415  -14.4821 C   0  0  0  0  0  0  0  0  0  0  0  0
   26.5076  -20.4709  -15.8929 C   0  0  0  0  0  0  0  0  0  0  0  0
   27.6140  -19.4636  -16.1304 C   0  0  0  0  0  0  0  0  0  0  0  0
   28.1629  -19.6276  -17.4476 N   0  0  0  0  0  0  0  0  0  0  0  0
   22.8110  -21.8806  -13.0168 C   0  0  0  0  0  0  0  0  0  0  0  0
   22.7523  -23.1224  -12.8048 O   0  0  0  0  0  0  0  0  0  0  0  0
   19.6082  -23.7047   -8.0441 N   0  0  0  0  0  0  0  0  0  0  0  0
   18.7242  -24.6236   -8.6607 C   0  0  0  0  0  0  0  0  0  0  0  0
   18.0120  -25.4404   -7.9281 N   0  0  0  0  0  0  0  0  0  0  0  0
   18.6229  -24.6458  -10.0739 N   0  0  0  0  0  0  0  0  0  0  0  0
   19.6083  -23.8833  -10.8599 C   0  0  0  0  0  0  0  0  0  0  0  0
   19.0473  -22.5385  -11.0832 C   0  0  0  0  0  0  0  0  0  0  0  0
   19.7412  -21.6028  -11.9402 C   0  0  0  0  0  0  0  0  0  0  0  0
   20.3335  -21.9304  -13.2378 C   0  0  2  0  0  0  0  0  0  0  0  0
   21.6303  -21.1569  -13.2717 N   0  0  0  0  0  0  0  0  0  0  0  0
   19.6534  -21.5120  -14.4587 C   0  0  0  0  0  0  0  0  0  0  0  0
   18.6538  -22.1813  -15.1249 O   0  0  0  0  0  0  0  0  0  0  0  0
   19.9924  -20.4036  -15.0269 O   0  0  0  0  0  0  0  0  0  0  0  0
  2  1  1  1
  2  4  1  0
  2  3  1  0
  5  4  1  0
  5  7  1  0
  5  6  1  6
  7  8  2  0
  9 10  1  0
  9  7  1  0
 10 16  1  0
 10 11  1  6
 12 11  1  0
 12 13  1  0
 14 15  1  0
 14 13  1  0
 16 17  2  0
 18 19  1  0
 19 21  1  0
 20 19  2  0
 21 22  1  0
 23 24  1  0
 23 22  1  0
 25 24  1  1
 25 27  1  0
 26 16  1  0
 26 25  1  0
 27 29  2  0
 27 28  1  0
M  END
$$$$
