LKR.pdb
     RDKit          3D

 29 28  0  0  1  0  0  0  0  0999 V2000
   17.2437  -17.8361    3.4064 C   0  0  0  0  0  0  0  0  0  0  0  0
   16.3155  -18.6893    2.5951 C   0  0  1  0  0  0  0  0  0  0  0  0
   15.9370  -18.0363    1.2911 C   0  0  0  0  0  0  0  0  0  0  0  0
   16.8149  -20.0995    2.4022 C   0  0  0  0  0  0  0  0  0  0  0  0
   15.8769  -20.9497    1.6095 C   0  0  2  0  0  0  0  0  0  0  0  0
   14.5837  -21.0091    2.2249 N   0  0  0  0  0  0  0  0  0  0  0  0
   16.4799  -22.2935    1.4140 C   0  0  0  0  0  0  0  0  0  0  0  0
   17.6681  -22.3323    1.0054 O   0  0  0  0  0  0  0  0  0  0  0  0
   15.7835  -23.5076    1.6643 N   0  0  0  0  0  0  0  0  0  0  0  0
   16.3634  -24.8151    1.4824 C   0  0  1  0  0  0  0  0  0  0  0  0
   16.0546  -25.7624    2.6116 C   0  0  0  0  0  0  0  0  0  0  0  0
   16.6235  -27.1440    2.3750 C   0  0  0  0  0  0  0  0  0  0  0  0
   16.2751  -28.0105    3.5704 C   0  0  0  0  0  0  0  0  0  0  0  0
   16.8032  -29.4174    3.3777 C   0  0  0  0  0  0  0  0  0  0  0  0
   16.4953  -30.2265    4.5239 N   0  0  0  0  0  0  0  0  0  0  0  0
   15.9067  -25.3935    0.1905 C   0  0  0  0  0  0  0  0  0  0  0  0
   14.7352  -25.2162   -0.2415 O   0  0  0  0  0  0  0  0  0  0  0  0
   19.1511  -24.0956   -7.3759 N   0  0  0  0  0  0  0  0  0  0  0  0
   18.5391  -25.3522   -7.6051 C   0  0  0  0  0  0  0  0  0  0  0  0
   18.5121  -25.8579   -8.8112 N   0  0  0  0  0  0  0  0  0  0  0  0
   17.9599  -26.0496   -6.5161 N   0  0  0  0  0  0  0  0  0  0  0  0
   17.9263  -25.3904   -5.1991 C   0  0  0  0  0  0  0  0  0  0  0  0
   17.2266  -26.2971   -4.2709 C   0  0  0  0  0  0  0  0  0  0  0  0
   17.0456  -25.9120   -2.8887 C   0  0  0  0  0  0  0  0  0  0  0  0
   16.3358  -26.7018   -1.8815 C   0  0  2  0  0  0  0  0  0  0  0  0
   16.8212  -26.1583   -0.5586 N   0  0  0  0  0  0  0  0  0  0  0  0
   16.5996  -28.1331   -1.7812 C   0  0  0  0  0  0  0  0  0  0  0  0
   15.9345  -29.1486   -2.4271 O   0  0  0  0  0  0  0  0  0  0  0  0
   17.5442  -28.5524   -1.0076 O   0  0  0  0  0  0  0  0  0  0  0  0
  2  1  1  6
  2  4  1  0
  2  3  1  0
  5  4  1  0
  5  7  1  0
  5  6  1  1
  7  8  2  0
  9 10  1  0
  9  7  1  0
 10 16  1  0
 10 11  1  1
 12 11  1  0
 12 13  1  0
 14 15  1  0
 14 13  1  0
 16 17  2  0
 18 19  1  0
 19 21  1  0
 20 19  2  0
 21 22  1  0
 23 24  1  0
 23 22  1  0
 25 24  1  6
 25 27  1  0
 26 16  1  0
 26 25  1  0
 27 29  2  0
 27 28  1  0
M  END
$$$$
