LKR.pdb
     RDKit          3D

 29 28  0  0  1  0  0  0  0  0999 V2000
   17.7217  -22.4511  -17.5301 C   0  0  0  0  0  0  0  0  0  0  0  0
   18.9775  -22.7858  -16.7827 C   0  0  1  0  0  0  0  0  0  0  0  0
   19.8730  -23.7130  -17.5624 C   0  0  0  0  0  0  0  0  0  0  0  0
   19.7155  -21.5702  -16.2797 C   0  0  0  0  0  0  0  0  0  0  0  0
   21.0961  -21.8798  -15.8009 C   0  0  2  0  0  0  0  0  0  0  0  0
   21.0791  -22.3896  -14.4613 N   0  0  0  0  0  0  0  0  0  0  0  0
   21.9466  -20.6698  -15.9421 C   0  0  0  0  0  0  0  0  0  0  0  0
   21.6531  -19.6788  -15.2265 O   0  0  0  0  0  0  0  0  0  0  0  0
   23.0523  -20.5900  -16.8325 N   0  0  0  0  0  0  0  0  0  0  0  0
   23.9263  -19.4468  -16.9229 C   0  0  1  0  0  0  0  0  0  0  0  0
   25.3618  -19.8180  -17.1867 C   0  0  0  0  0  0  0  0  0  0  0  0
   25.8413  -20.9355  -16.2869 C   0  0  0  0  0  0  0  0  0  0  0  0
   27.2620  -21.2874  -16.6855 C   0  0  0  0  0  0  0  0  0  0  0  0
   27.7774  -22.4408  -15.8491 C   0  0  0  0  0  0  0  0  0  0  0  0
   29.0879  -22.8296  -16.2902 N   0  0  0  0  0  0  0  0  0  0  0  0
   23.4358  -18.5198  -17.9775 C   0  0  0  0  0  0  0  0  0  0  0  0
   23.0056  -18.9399  -19.0861 O   0  0  0  0  0  0  0  0  0  0  0  0
   22.1476  -10.3181  -17.8355 N   0  0  0  0  0  0  0  0  0  0  0  0
   21.0511  -10.5896  -18.6899 C   0  0  0  0  0  0  0  0  0  0  0  0
   20.5468   -9.6375  -19.4319 N   0  0  0  0  0  0  0  0  0  0  0  0
   20.5110  -11.8990  -18.7294 N   0  0  0  0  0  0  0  0  0  0  0  0
   21.0776  -12.9189  -17.8299 C   0  0  0  0  0  0  0  0  0  0  0  0
   21.7252  -13.9392  -18.6740 C   0  0  0  0  0  0  0  0  0  0  0  0
   22.3299  -15.1014  -18.0616 C   0  0  0  0  0  0  0  0  0  0  0  0
   22.9178  -16.2263  -18.7903 C   0  0  2  0  0  0  0  0  0  0  0  0
   23.4598  -17.1368  -17.7141 N   0  0  0  0  0  0  0  0  0  0  0  0
   24.0702  -15.9930  -19.6538 C   0  0  0  0  0  0  0  0  0  0  0  0
   25.3944  -16.2023  -19.3480 O   0  0  0  0  0  0  0  0  0  0  0  0
   23.8883  -15.5299  -20.8450 O   0  0  0  0  0  0  0  0  0  0  0  0
  2  1  1  6
  2  4  1  0
  2  3  1  0
  5  4  1  0
  5  7  1  0
  5  6  1  1
  7  8  2  0
  9 10  1  0
  9  7  1  0
 10 16  1  0
 10 11  1  6
 12 11  1  0
 12 13  1  0
 14 15  1  0
 14 13  1  0
 16 17  2  0
 18 19  1  0
 19 21  1  0
 20 19  2  0
 21 22  1  0
 23 24  1  0
 23 22  1  0
 25 24  1  1
 25 27  1  0
 26 16  1  0
 26 25  1  0
 27 29  2  0
 27 28  1  0
M  END
$$$$
