LKR.pdb
     RDKit          3D

 29 28  0  0  1  0  0  0  0  0999 V2000
   21.0506  -29.3110  -15.7779 C   0  0  0  0  0  0  0  0  0  0  0  0
   21.4026  -27.8815  -16.0614 C   0  0  1  0  0  0  0  0  0  0  0  0
   20.8219  -27.4011  -17.3659 C   0  0  0  0  0  0  0  0  0  0  0  0
   21.0842  -26.9498  -14.9186 C   0  0  0  0  0  0  0  0  0  0  0  0
   21.7022  -25.5989  -15.0747 C   0  0  2  0  0  0  0  0  0  0  0  0
   23.1331  -25.6818  -15.0963 N   0  0  0  0  0  0  0  0  0  0  0  0
   21.1969  -24.7021  -14.0033 C   0  0  0  0  0  0  0  0  0  0  0  0
   21.6355  -24.8970  -12.8414 O   0  0  0  0  0  0  0  0  0  0  0  0
   20.2600  -23.6577  -14.2342 N   0  0  0  0  0  0  0  0  0  0  0  0
   19.8259  -22.7326  -13.2170 C   0  0  1  0  0  0  0  0  0  0  0  0
   19.7357  -21.3118  -13.7081 C   0  0  0  0  0  0  0  0  0  0  0  0
   21.0749  -20.6088  -13.6833 C   0  0  0  0  0  0  0  0  0  0  0  0
   21.2473  -19.8724  -14.9983 C   0  0  0  0  0  0  0  0  0  0  0  0
   22.5657  -19.1263  -15.0195 C   0  0  0  0  0  0  0  0  0  0  0  0
   22.7388  -18.4563  -16.2783 N   0  0  0  0  0  0  0  0  0  0  0  0
   18.5143  -23.1677  -12.6671 C   0  0  0  0  0  0  0  0  0  0  0  0
   17.5847  -23.5829  -13.4113 O   0  0  0  0  0  0  0  0  0  0  0  0
   18.3883  -25.6719   -4.6404 N   0  0  0  0  0  0  0  0  0  0  0  0
   17.1607  -25.4431   -5.3086 C   0  0  0  0  0  0  0  0  0  0  0  0
   16.0393  -25.4350   -4.6349 N   0  0  0  0  0  0  0  0  0  0  0  0
   17.1640  -25.2246   -6.7086 N   0  0  0  0  0  0  0  0  0  0  0  0
   18.4607  -25.1486   -7.4036 C   0  0  0  0  0  0  0  0  0  0  0  0
   18.1806  -25.0292   -8.8459 C   0  0  0  0  0  0  0  0  0  0  0  0
   17.3200  -23.9709   -9.3264 C   0  0  0  0  0  0  0  0  0  0  0  0
   17.0372  -23.6908  -10.7348 C   0  0  2  0  0  0  0  0  0  0  0  0
   18.3220  -23.1077  -11.2735 N   0  0  0  0  0  0  0  0  0  0  0  0
   16.0359  -22.6860  -11.0753 C   0  0  0  0  0  0  0  0  0  0  0  0
   14.7076  -22.8989  -11.3604 O   0  0  0  0  0  0  0  0  0  0  0  0
   16.3794  -21.4434  -11.1410 O   0  0  0  0  0  0  0  0  0  0  0  0
  2  1  1  1
  2  4  1  0
  2  3  1  0
  5  4  1  0
  5  7  1  0
  5  6  1  1
  7  8  2  0
  9 10  1  0
  9  7  1  0
 10 16  1  0
 10 11  1  6
 12 11  1  0
 12 13  1  0
 14 15  1  0
 14 13  1  0
 16 17  2  0
 18 19  1  0
 19 21  1  0
 20 19  2  0
 21 22  1  0
 23 24  1  0
 23 22  1  0
 25 24  1  1
 25 27  1  0
 26 16  1  0
 26 25  1  0
 27 29  2  0
 27 28  1  0
M  END
$$$$
