AAL.pdb
     RDKit          3D

 19 18  0  0  1  0  0  0  0  0999 V2000
   19.5469  -12.8089  -18.1917 C   0  0  0  0  0  0  0  0  0  0  0  0
   18.6112  -11.9012  -18.9698 C   0  0  2  0  0  0  0  0  0  0  0  0
   19.1906  -11.6436  -20.2734 N   0  0  0  0  0  0  0  0  0  0  0  0
   18.4749  -10.6512  -18.1733 C   0  0  0  0  0  0  0  0  0  0  0  0
   19.4813   -9.9075  -18.0273 O   0  0  0  0  0  0  0  0  0  0  0  0
   15.6462   -8.8089  -16.5580 C   0  0  0  0  0  0  0  0  0  0  0  0
   17.1418   -8.9686  -16.8418 C   0  0  2  0  0  0  0  0  0  0  0  0
   17.2788  -10.2309  -17.5585 N   0  0  0  0  0  0  0  0  0  0  0  0
   17.9102   -8.9723  -15.5809 C   0  0  0  0  0  0  0  0  0  0  0  0
   18.0058  -10.0374  -14.9432 O   0  0  0  0  0  0  0  0  0  0  0  0
   22.3729   -5.9420  -13.0631 C   0  0  0  0  0  0  0  0  0  0  0  0
   21.6032   -7.2653  -13.1097 C   0  0  2  0  0  0  0  0  0  0  0  0
   22.5768   -8.4186  -13.1573 C   0  0  0  0  0  0  0  0  0  0  0  0
   20.7070   -7.3165  -14.2964 C   0  0  0  0  0  0  0  0  0  0  0  0
   19.3495   -7.8277  -13.9425 C   0  0  2  0  0  0  0  0  0  0  0  0
   18.5061   -7.7627  -15.1505 N   0  0  0  0  0  0  0  0  0  0  0  0
   18.6848   -7.0266  -12.8986 C   0  0  0  0  0  0  0  0  0  0  0  0
   17.9665   -6.0270  -13.2285 O   0  0  0  0  0  0  0  0  0  0  0  0
   18.8142   -7.3281  -11.5655 O   0  0  0  0  0  0  0  0  0  0  0  0
  2  1  1  1
  2  3  1  0
  4  2  1  0
  5  4  2  0
  7  9  1  0
  7  6  1  1
  7  8  1  0
  8  4  1  0
  9 16  1  0
 10  9  2  0
 12 11  1  6
 13 12  1  0
 14 12  1  0
 15 14  1  6
 16 15  1  0
 17 19  1  0
 17 15  1  0
 18 17  2  0
M  END
$$$$
