AAL.pdb
     RDKit          3D

 19 18  0  0  1  0  0  0  0  0999 V2000
   19.3341  -14.7069  -14.8525 C   0  0  0  0  0  0  0  0  0  0  0  0
   19.2619  -14.6101  -16.3659 C   0  0  2  0  0  0  0  0  0  0  0  0
   19.7228  -15.8614  -16.9344 N   0  0  0  0  0  0  0  0  0  0  0  0
   20.1383  -13.4731  -16.7594 C   0  0  0  0  0  0  0  0  0  0  0  0
   21.3861  -13.5922  -16.6339 O   0  0  0  0  0  0  0  0  0  0  0  0
   19.6723  -10.1855  -18.4676 C   0  0  0  0  0  0  0  0  0  0  0  0
   20.5344  -11.1366  -17.6340 C   0  0  2  0  0  0  0  0  0  0  0  0
   19.6645  -12.2491  -17.2719 N   0  0  0  0  0  0  0  0  0  0  0  0
   21.0605  -10.4457  -16.4398 C   0  0  0  0  0  0  0  0  0  0  0  0
   20.3967  -10.4843  -15.3871 O   0  0  0  0  0  0  0  0  0  0  0  0
   24.6547  -11.1863  -14.2167 C   0  0  0  0  0  0  0  0  0  0  0  0
   24.9237  -10.3918  -15.4981 C   0  0  2  0  0  0  0  0  0  0  0  0
   26.4128  -10.2527  -15.7070 C   0  0  0  0  0  0  0  0  0  0  0  0
   24.2993   -9.0430  -15.4272 C   0  0  0  0  0  0  0  0  0  0  0  0
   22.8125   -9.1270  -15.3184 C   0  0  2  0  0  0  0  0  0  0  0  0
   22.2988   -9.7680  -16.5430 N   0  0  0  0  0  0  0  0  0  0  0  0
   22.1660   -7.8067  -15.2087 C   0  0  0  0  0  0  0  0  0  0  0  0
   21.7569   -7.2126  -16.2592 O   0  0  0  0  0  0  0  0  0  0  0  0
   21.9858   -7.1898  -13.9956 O   0  0  0  0  0  0  0  0  0  0  0  0
  2  1  1  1
  2  3  1  0
  4  2  1  0
  5  4  2  0
  7  9  1  0
  7  6  1  6
  7  8  1  0
  8  4  1  0
  9 16  1  0
 10  9  2  0
 12 11  1  1
 13 12  1  0
 14 12  1  0
 15 14  1  6
 16 15  1  0
 17 19  1  0
 17 15  1  0
 18 17  2  0
M  END
$$$$
