AAL.pdb
     RDKit          3D

 19 18  0  0  1  0  0  0  0  0999 V2000
   27.7905  -18.6020  -15.2827 C   0  0  0  0  0  0  0  0  0  0  0  0
   28.1013  -19.7044  -14.2862 C   0  0  2  0  0  0  0  0  0  0  0  0
   27.7567  -20.9803  -14.8818 N   0  0  0  0  0  0  0  0  0  0  0  0
   27.2811  -19.4244  -13.0761 C   0  0  0  0  0  0  0  0  0  0  0  0
   27.4455  -18.3346  -12.4659 O   0  0  0  0  0  0  0  0  0  0  0  0
   24.1365  -20.6068  -11.6305 C   0  0  0  0  0  0  0  0  0  0  0  0
   25.5251  -20.0221  -11.3613 C   0  0  2  0  0  0  0  0  0  0  0  0
   26.3153  -20.3070  -12.5530 N   0  0  0  0  0  0  0  0  0  0  0  0
   26.1190  -20.6332  -10.1554 C   0  0  0  0  0  0  0  0  0  0  0  0
   26.6459  -21.7569  -10.2535 O   0  0  0  0  0  0  0  0  0  0  0  0
   28.0300  -18.9558   -4.5973 C   0  0  0  0  0  0  0  0  0  0  0  0
   27.7806  -20.0708   -5.6172 C   0  0  2  0  0  0  0  0  0  0  0  0
   29.0633  -20.8276   -5.8671 C   0  0  0  0  0  0  0  0  0  0  0  0
   27.2698  -19.5133   -6.8987 C   0  0  0  0  0  0  0  0  0  0  0  0
   26.6432  -20.5680   -7.7498 C   0  0  2  0  0  0  0  0  0  0  0  0
   26.0636  -19.9140   -8.9376 N   0  0  0  0  0  0  0  0  0  0  0  0
   25.5522  -21.2878   -7.0678 C   0  0  0  0  0  0  0  0  0  0  0  0
   25.8253  -22.1342   -6.1551 O   0  0  0  0  0  0  0  0  0  0  0  0
   24.2346  -21.0710   -7.3865 O   0  0  0  0  0  0  0  0  0  0  0  0
  2  1  1  6
  2  3  1  0
  4  2  1  0
  5  4  2  0
  7  9  1  0
  7  6  1  6
  7  8  1  0
  8  4  1  0
  9 16  1  0
 10  9  2  0
 12 11  1  1
 13 12  1  0
 14 12  1  0
 15 14  1  1
 16 15  1  0
 17 19  1  0
 17 15  1  0
 18 17  2  0
M  END
$$$$
