AAL.pdb
     RDKit          3D

 19 18  0  0  1  0  0  0  0  0999 V2000
   18.2825  -10.7469  -18.9989 C   0  0  0  0  0  0  0  0  0  0  0  0
   19.3298  -11.6453  -18.3656 C   0  0  2  0  0  0  0  0  0  0  0  0
   18.6851  -12.8609  -17.9093 N   0  0  0  0  0  0  0  0  0  0  0  0
   19.9172  -10.8776  -17.2337 C   0  0  0  0  0  0  0  0  0  0  0  0
   19.1641  -10.1495  -16.5339 O   0  0  0  0  0  0  0  0  0  0  0  0
   23.2463  -10.6993  -15.5457 C   0  0  0  0  0  0  0  0  0  0  0  0
   21.8465  -10.1285  -15.7853 C   0  0  2  0  0  0  0  0  0  0  0  0
   21.2810  -10.9065  -16.8810 N   0  0  0  0  0  0  0  0  0  0  0  0
   21.9236   -8.6925  -16.1203 C   0  0  0  0  0  0  0  0  0  0  0  0
   21.9449   -8.3597  -17.3199 O   0  0  0  0  0  0  0  0  0  0  0  0
   22.0231   -4.0522  -16.9695 C   0  0  0  0  0  0  0  0  0  0  0  0
   20.6564   -4.5572  -16.4978 C   0  0  2  0  0  0  0  0  0  0  0  0
   20.1938   -3.7420  -15.3138 C   0  0  0  0  0  0  0  0  0  0  0  0
   20.7230   -5.9951  -16.1212 C   0  0  0  0  0  0  0  0  0  0  0  0
   22.0067   -6.3282  -15.4353 C   0  0  2  0  0  0  0  0  0  0  0  0
   21.9701   -7.7543  -15.0616 N   0  0  0  0  0  0  0  0  0  0  0  0
   22.2182   -5.5547  -14.1982 C   0  0  0  0  0  0  0  0  0  0  0  0
   22.8589   -4.4540  -14.2412 O   0  0  0  0  0  0  0  0  0  0  0  0
   21.7387   -5.9862  -12.9863 O   0  0  0  0  0  0  0  0  0  0  0  0
  2  1  1  1
  2  3  1  0
  4  2  1  0
  5  4  2  0
  7  9  1  0
  7  6  1  6
  7  8  1  0
  8  4  1  0
  9 16  1  0
 10  9  2  0
 12 11  1  1
 13 12  1  0
 14 12  1  0
 15 14  1  1
 16 15  1  0
 17 19  1  0
 17 15  1  0
 18 17  2  0
M  END
$$$$
