AAL.pdb
     RDKit          3D

 19 18  0  0  1  0  0  0  0  0999 V2000
   14.3131   -5.9397  -17.0132 C   0  0  0  0  0  0  0  0  0  0  0  0
   14.4885   -6.7988  -15.7739 C   0  0  2  0  0  0  0  0  0  0  0  0
   13.1869   -7.0263  -15.1776 N   0  0  0  0  0  0  0  0  0  0  0  0
   15.3866   -6.0429  -14.8587 C   0  0  0  0  0  0  0  0  0  0  0  0
   16.5587   -5.7764  -15.2360 O   0  0  0  0  0  0  0  0  0  0  0  0
   15.0814   -3.7108  -12.1150 C   0  0  0  0  0  0  0  0  0  0  0  0
   15.9090   -4.8648  -12.6860 C   0  0  2  0  0  0  0  0  0  0  0  0
   15.0140   -5.5949  -13.5758 N   0  0  0  0  0  0  0  0  0  0  0  0
   16.4166   -5.7252  -11.5986 C   0  0  0  0  0  0  0  0  0  0  0  0
   17.2277   -5.2438  -10.7859 O   0  0  0  0  0  0  0  0  0  0  0  0
   15.9018   -6.9987   -7.7645 C   0  0  0  0  0  0  0  0  0  0  0  0
   14.9447   -7.5344   -8.8333 C   0  0  2  0  0  0  0  0  0  0  0  0
   13.7283   -8.1363   -8.1711 C   0  0  0  0  0  0  0  0  0  0  0  0
   15.6137   -8.5594   -9.6792 C   0  0  0  0  0  0  0  0  0  0  0  0
   16.6451   -7.9522  -10.5720 C   0  0  2  0  0  0  0  0  0  0  0  0
   15.9584   -7.0624  -11.5266 N   0  0  0  0  0  0  0  0  0  0  0  0
   17.3883   -8.9525  -11.3596 C   0  0  0  0  0  0  0  0  0  0  0  0
   17.2500   -8.9917  -12.6259 O   0  0  0  0  0  0  0  0  0  0  0  0
   18.2374   -9.8531  -10.7658 O   0  0  0  0  0  0  0  0  0  0  0  0
  2  1  1  6
  2  3  1  0
  4  2  1  0
  5  4  2  0
  7  9  1  0
  7  6  1  1
  7  8  1  0
  8  4  1  0
  9 16  1  0
 10  9  2  0
 12 11  1  1
 13 12  1  0
 14 12  1  0
 15 14  1  1
 16 15  1  0
 17 19  1  0
 17 15  1  0
 18 17  2  0
M  END
$$$$
