AAL.pdb
     RDKit          3D

 19 18  0  0  1  0  0  0  0  0999 V2000
   19.0896  -12.6665  -16.3273 C   0  0  0  0  0  0  0  0  0  0  0  0
   18.3961  -12.1801  -17.5873 C   0  0  2  0  0  0  0  0  0  0  0  0
   19.0316  -12.7964  -18.7352 N   0  0  0  0  0  0  0  0  0  0  0  0
   18.5449  -10.6992  -17.6072 C   0  0  0  0  0  0  0  0  0  0  0  0
   19.6998  -10.2027  -17.6890 O   0  0  0  0  0  0  0  0  0  0  0  0
   16.2263   -7.7742  -17.8003 C   0  0  0  0  0  0  0  0  0  0  0  0
   17.6277   -8.3457  -17.5721 C   0  0  2  0  0  0  0  0  0  0  0  0
   17.4668   -9.7945  -17.5399 N   0  0  0  0  0  0  0  0  0  0  0  0
   18.1964   -7.8329  -16.3095 C   0  0  0  0  0  0  0  0  0  0  0  0
   17.9640   -8.4527  -15.2550 O   0  0  0  0  0  0  0  0  0  0  0  0
   22.6999   -4.2599  -14.4309 C   0  0  0  0  0  0  0  0  0  0  0  0
   21.5444   -5.1916  -14.0539 C   0  0  2  0  0  0  0  0  0  0  0  0
   22.0403   -6.2603  -13.1091 C   0  0  0  0  0  0  0  0  0  0  0  0
   20.9576   -5.8263  -15.2650 C   0  0  0  0  0  0  0  0  0  0  0  0
   19.5165   -6.1643  -15.0690 C   0  0  2  0  0  0  0  0  0  0  0  0
   18.9826   -6.6567  -16.3523 N   0  0  0  0  0  0  0  0  0  0  0  0
   18.7002   -5.0035  -14.6695 C   0  0  0  0  0  0  0  0  0  0  0  0
   18.1733   -4.2624  -15.5623 O   0  0  0  0  0  0  0  0  0  0  0  0
   18.4844   -4.6927  -13.3498 O   0  0  0  0  0  0  0  0  0  0  0  0
  2  1  1  1
  2  3  1  0
  4  2  1  0
  5  4  2  0
  7  9  1  0
  7  6  1  1
  7  8  1  0
  8  4  1  0
  9 16  1  0
 10  9  2  0
 12 11  1  6
 13 12  1  0
 14 12  1  0
 15 14  1  6
 16 15  1  0
 17 19  1  0
 17 15  1  0
 18 17  2  0
M  END
$$$$
