AAL.pdb
     RDKit          3D

 19 18  0  0  1  0  0  0  0  0999 V2000
   17.6133  -11.3436  -15.9964 C   0  0  0  0  0  0  0  0  0  0  0  0
   18.1135   -9.9177  -16.1433 C   0  0  2  0  0  0  0  0  0  0  0  0
   18.3081   -9.6360  -17.5519 N   0  0  0  0  0  0  0  0  0  0  0  0
   19.3926   -9.8380  -15.3861 C   0  0  0  0  0  0  0  0  0  0  0  0
   19.3632   -9.9104  -14.1287 O   0  0  0  0  0  0  0  0  0  0  0  0
   22.9349  -10.3927  -16.0558 C   0  0  0  0  0  0  0  0  0  0  0  0
   21.9043   -9.6186  -15.2303 C   0  0  2  0  0  0  0  0  0  0  0  0
   20.6586   -9.6843  -15.9851 N   0  0  0  0  0  0  0  0  0  0  0  0
   22.3454   -8.2240  -15.0279 C   0  0  0  0  0  0  0  0  0  0  0  0
   23.4605   -8.0194  -14.5134 O   0  0  0  0  0  0  0  0  0  0  0  0
   22.7121   -5.0174  -18.1285 C   0  0  0  0  0  0  0  0  0  0  0  0
   21.2944   -5.2878  -17.6159 C   0  0  2  0  0  0  0  0  0  0  0  0
   20.2991   -4.4993  -18.4333 C   0  0  0  0  0  0  0  0  0  0  0  0
   21.1695   -4.9173  -16.1803 C   0  0  0  0  0  0  0  0  0  0  0  0
   21.9965   -5.8020  -15.3069 C   0  0  2  0  0  0  0  0  0  0  0  0
   21.4800   -7.1779  -15.4282 N   0  0  0  0  0  0  0  0  0  0  0  0
   21.9302   -5.4314  -13.8816 C   0  0  0  0  0  0  0  0  0  0  0  0
   21.1171   -6.0345  -13.1075 O   0  0  0  0  0  0  0  0  0  0  0  0
   22.7281   -4.4468  -13.3538 O   0  0  0  0  0  0  0  0  0  0  0  0
  2  1  1  6
  2  3  1  0
  4  2  1  0
  5  4  2  0
  7  9  1  0
  7  6  1  6
  7  8  1  0
  8  4  1  0
  9 16  1  0
 10  9  2  0
 12 11  1  6
 13 12  1  0
 14 12  1  0
 15 14  1  6
 16 15  1  0
 17 19  1  0
 17 15  1  0
 18 17  2  0
M  END
$$$$
