AAL.pdb
     RDKit          3D

 19 18  0  0  1  0  0  0  0  0999 V2000
   28.7002  -22.8864  -17.9293 C   0  0  0  0  0  0  0  0  0  0  0  0
   27.5332  -23.1493  -16.9944 C   0  0  2  0  0  0  0  0  0  0  0  0
   26.2982  -22.8937  -17.7090 N   0  0  0  0  0  0  0  0  0  0  0  0
   27.7000  -22.2255  -15.8393 C   0  0  0  0  0  0  0  0  0  0  0  0
   28.6907  -22.3755  -15.0756 O   0  0  0  0  0  0  0  0  0  0  0  0
   26.5126  -18.8991  -14.8842 C   0  0  0  0  0  0  0  0  0  0  0  0
   26.9971  -20.2693  -14.4039 C   0  0  2  0  0  0  0  0  0  0  0  0
   26.8130  -21.1748  -15.5316 N   0  0  0  0  0  0  0  0  0  0  0  0
   26.2256  -20.7063  -13.2232 C   0  0  0  0  0  0  0  0  0  0  0  0
   25.2105  -21.4055  -13.3988 O   0  0  0  0  0  0  0  0  0  0  0  0
   26.1280  -19.5385   -7.1847 C   0  0  0  0  0  0  0  0  0  0  0  0
   25.6315  -20.3941   -8.3539 C   0  0  2  0  0  0  0  0  0  0  0  0
   25.6042  -21.8475   -7.9450 C   0  0  0  0  0  0  0  0  0  0  0  0
   26.5072  -20.2248   -9.5449 C   0  0  0  0  0  0  0  0  0  0  0  0
   25.8524  -20.7282  -10.7888 C   0  0  2  0  0  0  0  0  0  0  0  0
   26.6738  -20.3108  -11.9402 N   0  0  0  0  0  0  0  0  0  0  0  0
   24.4994  -20.1795  -10.9919 C   0  0  0  0  0  0  0  0  0  0  0  0
   24.3565  -19.0091  -11.4756 O   0  0  0  0  0  0  0  0  0  0  0  0
   23.3737  -20.8986  -10.6750 O   0  0  0  0  0  0  0  0  0  0  0  0
  2  1  1  6
  2  3  1  0
  4  2  1  0
  5  4  2  0
  7  9  1  0
  7  6  1  6
  7  8  1  0
  8  4  1  0
  9 16  1  0
 10  9  2  0
 12 11  1  1
 13 12  1  0
 14 12  1  0
 15 14  1  1
 16 15  1  0
 17 19  1  0
 17 15  1  0
 18 17  2  0
M  END
$$$$
