AAL.pdb
     RDKit          3D

 19 18  0  0  1  0  0  0  0  0999 V2000
   30.7602  -13.5862  -17.8654 C   0  0  0  0  0  0  0  0  0  0  0  0
   30.4587  -12.7721  -19.1109 C   0  0  2  0  0  0  0  0  0  0  0  0
   31.0787  -13.4189  -20.2506 N   0  0  0  0  0  0  0  0  0  0  0  0
   31.0231  -11.4150  -18.8763 C   0  0  0  0  0  0  0  0  0  0  0  0
   32.2721  -11.2566  -18.9238 O   0  0  0  0  0  0  0  0  0  0  0  0
   29.6162   -7.9790  -18.4198 C   0  0  0  0  0  0  0  0  0  0  0  0
   30.8096   -8.9373  -18.4328 C   0  0  2  0  0  0  0  0  0  0  0  0
   30.2471  -10.2720  -18.5994 N   0  0  0  0  0  0  0  0  0  0  0  0
   31.5785   -8.8233  -17.1774 C   0  0  0  0  0  0  0  0  0  0  0  0
   31.3245   -9.6121  -16.2482 O   0  0  0  0  0  0  0  0  0  0  0  0
   35.3068   -8.2671  -14.1009 C   0  0  0  0  0  0  0  0  0  0  0  0
   35.2083   -9.4894  -15.0184 C   0  0  2  0  0  0  0  0  0  0  0  0
   36.5790   -9.8418  -15.5450 C   0  0  0  0  0  0  0  0  0  0  0  0
   34.2866   -9.2259  -16.1563 C   0  0  0  0  0  0  0  0  0  0  0  0
   33.5426   -7.9435  -15.9797 C   0  0  2  0  0  0  0  0  0  0  0  0
   32.5729   -7.8204  -17.0839 N   0  0  0  0  0  0  0  0  0  0  0  0
   34.4167   -6.7573  -16.0279 C   0  0  0  0  0  0  0  0  0  0  0  0
   34.8673   -6.3477  -17.1473 O   0  0  0  0  0  0  0  0  0  0  0  0
   34.7633   -6.0695  -14.8915 O   0  0  0  0  0  0  0  0  0  0  0  0
  2  1  1  1
  2  3  1  0
  4  2  1  0
  5  4  2  0
  7  9  1  0
  7  6  1  1
  7  8  1  0
  8  4  1  0
  9 16  1  0
 10  9  2  0
 12 11  1  1
 13 12  1  0
 14 12  1  0
 15 14  1  6
 16 15  1  0
 17 19  1  0
 17 15  1  0
 18 17  2  0
M  END
$$$$
