AAL.pdb
     RDKit          3D

 19 18  0  0  1  0  0  0  0  0999 V2000
   18.6228   -9.8839  -21.3513 C   0  0  0  0  0  0  0  0  0  0  0  0
   19.7464   -9.3576  -20.4765 C   0  0  2  0  0  0  0  0  0  0  0  0
   21.0114   -9.6313  -21.1296 N   0  0  0  0  0  0  0  0  0  0  0  0
   19.6367  -10.0687  -19.1735 C   0  0  0  0  0  0  0  0  0  0  0  0
   18.5804   -9.9457  -18.4979 O   0  0  0  0  0  0  0  0  0  0  0  0
   21.2185  -12.9093  -17.5046 C   0  0  0  0  0  0  0  0  0  0  0  0
   20.5396  -11.5480  -17.3356 C   0  0  2  0  0  0  0  0  0  0  0  0
   20.6480  -10.8853  -18.6298 N   0  0  0  0  0  0  0  0  0  0  0  0
   21.1994  -10.7696  -16.2684 C   0  0  0  0  0  0  0  0  0  0  0  0
   20.8615  -10.9707  -15.0870 O   0  0  0  0  0  0  0  0  0  0  0  0
   24.8323  -10.7730  -14.3948 C   0  0  0  0  0  0  0  0  0  0  0  0
   24.9163  -10.1246  -15.7797 C   0  0  2  0  0  0  0  0  0  0  0  0
   26.3637   -9.9196  -16.1584 C   0  0  0  0  0  0  0  0  0  0  0  0
   24.2035   -8.8186  -15.7983 C   0  0  0  0  0  0  0  0  0  0  0  0
   22.7394   -8.9842  -15.5565 C   0  0  2  0  0  0  0  0  0  0  0  0
   22.1893   -9.8267  -16.6347 N   0  0  0  0  0  0  0  0  0  0  0  0
   22.0027   -7.7075  -15.5768 C   0  0  0  0  0  0  0  0  0  0  0  0
   21.2208   -7.4428  -16.5477 O   0  0  0  0  0  0  0  0  0  0  0  0
   22.1313   -6.7838  -14.5694 O   0  0  0  0  0  0  0  0  0  0  0  0
  2  1  1  6
  2  3  1  0
  4  2  1  0
  5  4  2  0
  7  9  1  0
  7  6  1  6
  7  8  1  0
  8  4  1  0
  9 16  1  0
 10  9  2  0
 12 11  1  1
 13 12  1  0
 14 12  1  0
 15 14  1  6
 16 15  1  0
 17 19  1  0
 17 15  1  0
 18 17  2  0
M  END
$$$$
