AAL.pdb
     RDKit          3D

 19 18  0  0  1  0  0  0  0  0999 V2000
   15.0193  -10.8029  -14.4273 C   0  0  0  0  0  0  0  0  0  0  0  0
   14.7199   -9.6700  -15.3926 C   0  0  2  0  0  0  0  0  0  0  0  0
   14.1386  -10.2275  -16.5979 N   0  0  0  0  0  0  0  0  0  0  0  0
   16.0180   -8.9966  -15.6703 C   0  0  0  0  0  0  0  0  0  0  0  0
   17.0346   -9.7030  -15.9039 O   0  0  0  0  0  0  0  0  0  0  0  0
   17.1382   -5.4780  -16.2407 C   0  0  0  0  0  0  0  0  0  0  0  0
   17.4665   -6.9533  -15.9992 C   0  0  2  0  0  0  0  0  0  0  0  0
   16.1961   -7.5990  -15.6913 N   0  0  0  0  0  0  0  0  0  0  0  0
   18.4315   -7.0939  -14.8904 C   0  0  0  0  0  0  0  0  0  0  0  0
   17.9964   -7.1672  -13.7262 O   0  0  0  0  0  0  0  0  0  0  0  0
   23.5223   -9.8677  -13.6141 C   0  0  0  0  0  0  0  0  0  0  0  0
   22.5605   -8.7398  -13.2292 C   0  0  2  0  0  0  0  0  0  0  0  0
   21.9158   -9.0526  -11.8999 C   0  0  0  0  0  0  0  0  0  0  0  0
   21.5090   -8.5617  -14.2667 C   0  0  0  0  0  0  0  0  0  0  0  0
   20.7440   -7.2951  -14.0670 C   0  0  2  0  0  0  0  0  0  0  0  0
   19.8120   -7.1392  -15.1992 N   0  0  0  0  0  0  0  0  0  0  0  0
   21.6050   -6.0988  -14.0383 C   0  0  0  0  0  0  0  0  0  0  0  0
   22.2253   -5.7904  -12.9687 O   0  0  0  0  0  0  0  0  0  0  0  0
   21.7641   -5.2973  -15.1415 O   0  0  0  0  0  0  0  0  0  0  0  0
  2  1  1  1
  2  3  1  0
  4  2  1  0
  5  4  2  0
  7  9  1  0
  7  6  1  1
  7  8  1  0
  8  4  1  0
  9 16  1  0
 10  9  2  0
 12 11  1  6
 13 12  1  0
 14 12  1  0
 15 14  1  6
 16 15  1  0
 17 19  1  0
 17 15  1  0
 18 17  2  0
M  END
$$$$
