MNR.pdb
     RDKit          3D

 28 27  0  0  1  0  0  0  0  0999 V2000
    8.6525  -11.6582   20.4653 C   0  0  0  0  0  0  0  0  0  0  0  0
    7.2776  -12.4455   19.6379 S   0  0  0  0  0  0  0  0  0  0  0  0
    7.4925  -14.1626   19.2707 C   0  0  0  0  0  0  0  0  0  0  0  0
    7.9135  -15.1016   20.3095 C   0  0  0  0  0  0  0  0  0  0  0  0
    9.2685  -15.7004   20.3272 C   0  0  2  0  0  0  0  0  0  0  0  0
    9.7536  -16.2578   19.1361 N   0  0  0  0  0  0  0  0  0  0  0  0
    9.4088  -16.6782   21.4546 C   0  0  0  0  0  0  0  0  0  0  0  0
    8.7682  -16.4787   22.5161 O   0  0  0  0  0  0  0  0  0  0  0  0
   11.7952  -20.6586   19.8666 N   0  0  0  0  0  0  0  0  0  0  0  0
   10.9188  -20.5012   21.0027 C   0  0  0  0  0  0  0  0  0  0  0  0
    9.7464  -20.9477   20.8569 O   0  0  0  0  0  0  0  0  0  0  0  0
   11.3811  -19.8568   22.2541 C   0  0  0  0  0  0  0  0  0  0  0  0
   10.4809  -18.6425   22.5534 C   0  0  2  0  0  0  0  0  0  0  0  0
   10.2439  -17.8490   21.3885 N   0  0  0  0  0  0  0  0  0  0  0  0
   10.9367  -17.9353   23.7478 C   0  0  0  0  0  0  0  0  0  0  0  0
   11.6974  -16.9152   23.5651 O   0  0  0  0  0  0  0  0  0  0  0  0
    7.6805  -11.4768   25.9082 N   0  0  0  0  0  0  0  0  0  0  0  0
    6.6127  -12.4334   26.0977 C   0  0  0  0  0  0  0  0  0  0  0  0
    5.5867  -12.2112   26.8316 N   0  0  0  0  0  0  0  0  0  0  0  0
    6.6475  -13.7002   25.4623 N   0  0  0  0  0  0  0  0  0  0  0  0
    7.2191  -14.8372   26.0031 C   0  0  0  0  0  0  0  0  0  0  0  0
    8.6413  -15.1942   25.7125 C   0  0  0  0  0  0  0  0  0  0  0  0
    8.8211  -16.6417   25.3583 C   0  0  0  0  0  0  0  0  0  0  0  0
   10.0669  -17.1868   25.9799 C   0  0  2  0  0  0  0  0  0  0  0  0
   10.6476  -18.2267   25.0902 N   0  0  0  0  0  0  0  0  0  0  0  0
    9.8630  -17.8373   27.2851 C   0  0  0  0  0  0  0  0  0  0  0  0
    9.1930  -19.0691   27.3460 O   0  0  0  0  0  0  0  0  0  0  0  0
   10.2659  -17.3386   28.3807 O   0  0  0  0  0  0  0  0  0  0  0  0
  2  1  1  0
  3  2  1  0
  4  3  1  0
  5  4  1  0
  5  6  1  6
  7  5  1  0
  8  7  2  0
  9 10  1  0
 10 12  1  0
 11 10  2  0
 13 12  1  6
 13 14  1  0
 14  7  1  0
 15 13  1  0
 15 16  2  0
 17 18  1  0
 18 19  2  0
 18 20  1  0
 20 21  1  0
 22 23  1  0
 22 21  1  0
 24 23  1  6
 24 25  1  0
 25 15  1  0
 26 24  1  0
 27 26  1  0
 28 26  2  0
M  END
$$$$
