MNR.pdb
     RDKit          3D

 28 27  0  0  1  0  0  0  0  0999 V2000
    7.8504  -10.7718   26.3195 C   0  0  0  0  0  0  0  0  0  0  0  0
    6.4509  -11.5592   27.1043 S   0  0  0  0  0  0  0  0  0  0  0  0
    5.9220  -13.0789   26.3696 C   0  0  0  0  0  0  0  0  0  0  0  0
    6.8980  -14.0491   25.8753 C   0  0  0  0  0  0  0  0  0  0  0  0
    6.4890  -15.3100   25.2138 C   0  0  2  0  0  0  0  0  0  0  0  0
    6.5736  -16.4961   25.9559 N   0  0  0  0  0  0  0  0  0  0  0  0
    7.1792  -15.4719   23.8931 C   0  0  0  0  0  0  0  0  0  0  0  0
    7.9099  -16.4763   23.7077 O   0  0  0  0  0  0  0  0  0  0  0  0
    8.6689  -13.0315   18.3858 N   0  0  0  0  0  0  0  0  0  0  0  0
    8.0403  -13.9985   19.2537 C   0  0  0  0  0  0  0  0  0  0  0  0
    8.0105  -15.1851   18.8221 O   0  0  0  0  0  0  0  0  0  0  0  0
    7.4728  -13.6083   20.5654 C   0  0  0  0  0  0  0  0  0  0  0  0
    7.7640  -14.7236   21.5880 C   0  0  2  0  0  0  0  0  0  0  0  0
    7.0487  -14.5319   22.8105 N   0  0  0  0  0  0  0  0  0  0  0  0
    9.1999  -14.9694   21.6993 C   0  0  0  0  0  0  0  0  0  0  0  0
    9.9800  -13.9744   21.4671 O   0  0  0  0  0  0  0  0  0  0  0  0
   12.5277  -17.8097   28.6387 N   0  0  0  0  0  0  0  0  0  0  0  0
   11.5959  -16.7153   28.4799 C   0  0  0  0  0  0  0  0  0  0  0  0
   10.9371  -16.2016   29.4508 N   0  0  0  0  0  0  0  0  0  0  0  0
   11.3585  -16.1387   27.2067 N   0  0  0  0  0  0  0  0  0  0  0  0
   11.5773  -16.7771   25.9998 C   0  0  0  0  0  0  0  0  0  0  0  0
   11.3452  -16.0694   24.7038 C   0  0  0  0  0  0  0  0  0  0  0  0
   11.6294  -16.9302   23.5073 C   0  0  0  0  0  0  0  0  0  0  0  0
   11.3219  -16.1947   22.2425 C   0  0  2  0  0  0  0  0  0  0  0  0
    9.8502  -16.1677   22.0331 N   0  0  0  0  0  0  0  0  0  0  0  0
   11.8932  -16.8027   21.0292 C   0  0  0  0  0  0  0  0  0  0  0  0
   13.2442  -16.5850   20.7176 O   0  0  0  0  0  0  0  0  0  0  0  0
   11.2210  -17.5271   20.2322 O   0  0  0  0  0  0  0  0  0  0  0  0
  2  1  1  0
  3  2  1  0
  4  3  1  0
  5  4  1  0
  5  6  1  1
  7  5  1  0
  8  7  2  0
  9 10  1  0
 10 12  1  0
 11 10  2  0
 13 12  1  6
 13 14  1  0
 14  7  1  0
 15 13  1  0
 15 16  2  0
 17 18  1  0
 18 19  2  0
 18 20  1  0
 20 21  1  0
 22 23  1  0
 22 21  1  0
 24 23  1  1
 24 25  1  0
 25 15  1  0
 26 24  1  0
 27 26  1  0
 28 26  2  0
M  END
$$$$
