MNR.pdb
     RDKit          3D

 28 27  0  0  1  0  0  0  0  0999 V2000
    5.6869  -12.2765   26.3394 C   0  0  0  0  0  0  0  0  0  0  0  0
    7.3502  -12.2192   26.9911 S   0  0  0  0  0  0  0  0  0  0  0  0
    8.0360  -13.7793   27.4653 C   0  0  0  0  0  0  0  0  0  0  0  0
    7.9496  -14.9352   26.5738 C   0  0  0  0  0  0  0  0  0  0  0  0
    8.4112  -16.2819   26.9839 C   0  0  2  0  0  0  0  0  0  0  0  0
    9.5492  -16.3641   27.7981 N   0  0  0  0  0  0  0  0  0  0  0  0
    8.5545  -17.1852   25.7963 C   0  0  0  0  0  0  0  0  0  0  0  0
    9.6766  -17.6922   25.5495 O   0  0  0  0  0  0  0  0  0  0  0  0
    5.0618  -17.9673   21.4863 N   0  0  0  0  0  0  0  0  0  0  0  0
    5.4189  -18.0336   22.8832 C   0  0  0  0  0  0  0  0  0  0  0  0
    4.9125  -17.1429   23.6216 O   0  0  0  0  0  0  0  0  0  0  0  0
    6.3216  -19.0873   23.4027 C   0  0  0  0  0  0  0  0  0  0  0  0
    7.6486  -18.4379   23.8404 C   0  0  2  0  0  0  0  0  0  0  0  0
    7.4654  -17.5111   24.9130 N   0  0  0  0  0  0  0  0  0  0  0  0
    8.4049  -17.9627   22.6842 C   0  0  0  0  0  0  0  0  0  0  0  0
    7.7539  -17.8096   21.5864 O   0  0  0  0  0  0  0  0  0  0  0  0
    7.5162  -15.1103   18.0560 N   0  0  0  0  0  0  0  0  0  0  0  0
    7.8671  -13.7095   18.1320 C   0  0  0  0  0  0  0  0  0  0  0  0
    8.1396  -12.9926   17.1061 N   0  0  0  0  0  0  0  0  0  0  0  0
    7.9276  -13.0397   19.3799 N   0  0  0  0  0  0  0  0  0  0  0  0
    8.0271  -13.6686   20.6074 C   0  0  0  0  0  0  0  0  0  0  0  0
    8.6019  -15.0438   20.7212 C   0  0  0  0  0  0  0  0  0  0  0  0
    9.0711  -15.3694   22.1093 C   0  0  0  0  0  0  0  0  0  0  0  0
   10.2126  -16.3342   22.0683 C   0  0  2  0  0  0  0  0  0  0  0  0
    9.7703  -17.6447   22.6134 N   0  0  0  0  0  0  0  0  0  0  0  0
   11.3792  -15.9332   22.8723 C   0  0  0  0  0  0  0  0  0  0  0  0
   11.3312  -16.0579   24.2694 O   0  0  0  0  0  0  0  0  0  0  0  0
   12.4475  -15.4718   22.3650 O   0  0  0  0  0  0  0  0  0  0  0  0
  2  1  1  0
  3  2  1  0
  4  3  1  0
  5  4  1  0
  5  6  1  6
  7  5  1  0
  8  7  2  0
  9 10  1  0
 10 12  1  0
 11 10  2  0
 13 12  1  6
 13 14  1  0
 14  7  1  0
 15 13  1  0
 15 16  2  0
 17 18  1  0
 18 19  2  0
 18 20  1  0
 20 21  1  0
 22 23  1  0
 22 21  1  0
 24 23  1  1
 24 25  1  0
 25 15  1  0
 26 24  1  0
 27 26  1  0
 28 26  2  0
M  END
$$$$
