MNR.pdb
     RDKit          3D

 28 27  0  0  1  0  0  0  0  0999 V2000
    8.9759  -13.2996   28.8142 C   0  0  0  0  0  0  0  0  0  0  0  0
    8.5893  -13.1255   27.0778 S   0  0  0  0  0  0  0  0  0  0  0  0
    6.9068  -13.4479   26.6368 C   0  0  0  0  0  0  0  0  0  0  0  0
    6.5259  -14.7195   26.0234 C   0  0  0  0  0  0  0  0  0  0  0  0
    7.4736  -15.5162   25.2098 C   0  0  2  0  0  0  0  0  0  0  0  0
    8.8260  -15.5006   25.5778 N   0  0  0  0  0  0  0  0  0  0  0  0
    7.3270  -15.2003   23.7519 C   0  0  0  0  0  0  0  0  0  0  0  0
    6.1931  -15.2936   23.2203 O   0  0  0  0  0  0  0  0  0  0  0  0
    8.8688  -12.5821   18.4834 N   0  0  0  0  0  0  0  0  0  0  0  0
    8.2238  -13.4563   19.4337 C   0  0  0  0  0  0  0  0  0  0  0  0
    7.3695  -14.2532   18.9539 O   0  0  0  0  0  0  0  0  0  0  0  0
    8.5555  -13.4109   20.8769 C   0  0  0  0  0  0  0  0  0  0  0  0
    8.3018  -14.8006   21.4924 C   0  0  2  0  0  0  0  0  0  0  0  0
    8.4246  -14.7882   22.9163 N   0  0  0  0  0  0  0  0  0  0  0  0
    9.0485  -15.8334   20.7780 C   0  0  0  0  0  0  0  0  0  0  0  0
    9.0069  -15.7980   19.4937 O   0  0  0  0  0  0  0  0  0  0  0  0
   14.8049  -15.1997   16.9856 N   0  0  0  0  0  0  0  0  0  0  0  0
   15.3481  -14.3335   18.0084 C   0  0  0  0  0  0  0  0  0  0  0  0
   16.5667  -13.9396   18.0267 N   0  0  0  0  0  0  0  0  0  0  0  0
   14.5368  -13.8624   19.0711 N   0  0  0  0  0  0  0  0  0  0  0  0
   13.2638  -14.3224   19.3539 C   0  0  0  0  0  0  0  0  0  0  0  0
   13.0521  -15.6731   19.9584 C   0  0  0  0  0  0  0  0  0  0  0  0
   11.9181  -15.7036   20.9413 C   0  0  0  0  0  0  0  0  0  0  0  0
   11.2448  -17.0385   20.9297 C   0  0  2  0  0  0  0  0  0  0  0  0
    9.8191  -16.8751   21.3180 N   0  0  0  0  0  0  0  0  0  0  0  0
   11.8127  -18.0162   21.8731 C   0  0  0  0  0  0  0  0  0  0  0  0
   11.8344  -17.7206   23.2449 O   0  0  0  0  0  0  0  0  0  0  0  0
   12.2938  -19.1336   21.5103 O   0  0  0  0  0  0  0  0  0  0  0  0
  2  1  1  0
  3  2  1  0
  4  3  1  0
  5  4  1  0
  5  6  1  1
  7  5  1  0
  8  7  2  0
  9 10  1  0
 10 12  1  0
 11 10  2  0
 13 12  1  6
 13 14  1  0
 14  7  1  0
 15 13  1  0
 15 16  2  0
 17 18  1  0
 18 19  2  0
 18 20  1  0
 20 21  1  0
 22 23  1  0
 22 21  1  0
 24 23  1  1
 24 25  1  0
 25 15  1  0
 26 24  1  0
 27 26  1  0
 28 26  2  0
M  END
$$$$
