MNR.pdb
     RDKit          3D

 28 27  0  0  1  0  0  0  0  0999 V2000
    7.9657  -12.2404   20.7340 C   0  0  0  0  0  0  0  0  0  0  0  0
    7.4178  -12.2727   19.0330 S   0  0  0  0  0  0  0  0  0  0  0  0
    7.5799  -13.8305   18.2108 C   0  0  0  0  0  0  0  0  0  0  0  0
    8.0998  -14.9989   18.9198 C   0  0  0  0  0  0  0  0  0  0  0  0
    9.5524  -15.2299   19.0975 C   0  0  2  0  0  0  0  0  0  0  0  0
   10.3503  -15.2961   17.9470 N   0  0  0  0  0  0  0  0  0  0  0  0
    9.8036  -16.4192   19.9745 C   0  0  0  0  0  0  0  0  0  0  0  0
    9.1920  -16.5091   21.0676 O   0  0  0  0  0  0  0  0  0  0  0  0
   10.7414  -20.4387   18.0496 N   0  0  0  0  0  0  0  0  0  0  0  0
   11.8576  -19.6833   18.5664 C   0  0  0  0  0  0  0  0  0  0  0  0
   12.6345  -19.1911   17.7007 O   0  0  0  0  0  0  0  0  0  0  0  0
   12.0637  -19.5040   20.0225 C   0  0  0  0  0  0  0  0  0  0  0  0
   11.0030  -18.5246   20.5610 C   0  0  2  0  0  0  0  0  0  0  0  0
   10.7151  -17.4791   19.6300 N   0  0  0  0  0  0  0  0  0  0  0  0
   11.3133  -18.1180   21.9296 C   0  0  0  0  0  0  0  0  0  0  0  0
   12.5469  -17.8771   22.1992 O   0  0  0  0  0  0  0  0  0  0  0  0
    9.0299  -13.4658   28.9884 N   0  0  0  0  0  0  0  0  0  0  0  0
   10.2164  -14.2892   29.0626 C   0  0  0  0  0  0  0  0  0  0  0  0
   10.6393  -14.8232   30.1473 N   0  0  0  0  0  0  0  0  0  0  0  0
   10.9924  -14.5556   27.9066 N   0  0  0  0  0  0  0  0  0  0  0  0
   10.4816  -14.9952   26.6991 C   0  0  0  0  0  0  0  0  0  0  0  0
   10.2366  -16.4490   26.4527 C   0  0  0  0  0  0  0  0  0  0  0  0
    9.8412  -16.7443   25.0351 C   0  0  0  0  0  0  0  0  0  0  0  0
   10.9257  -17.4933   24.3293 C   0  0  2  0  0  0  0  0  0  0  0  0
   10.4275  -17.9516   23.0057 N   0  0  0  0  0  0  0  0  0  0  0  0
   11.3870  -18.7033   25.0303 C   0  0  0  0  0  0  0  0  0  0  0  0
   12.4787  -18.6192   25.9084 O   0  0  0  0  0  0  0  0  0  0  0  0
   10.8437  -19.8412   24.8836 O   0  0  0  0  0  0  0  0  0  0  0  0
  2  1  1  0
  3  2  1  0
  4  3  1  0
  5  4  1  0
  5  6  1  6
  7  5  1  0
  8  7  2  0
  9 10  1  0
 10 12  1  0
 11 10  2  0
 13 12  1  6
 13 14  1  0
 14  7  1  0
 15 13  1  0
 15 16  2  0
 17 18  1  0
 18 19  2  0
 18 20  1  0
 20 21  1  0
 22 23  1  0
 22 21  1  0
 24 23  1  1
 24 25  1  0
 25 15  1  0
 26 24  1  0
 27 26  1  0
 28 26  2  0
M  END
$$$$
