MNR.pdb
     RDKit          3D

 28 27  0  0  1  0  0  0  0  0999 V2000
    8.6137  -11.4541   20.3900 C   0  0  0  0  0  0  0  0  0  0  0  0
    7.8186  -12.4721   19.1546 S   0  0  0  0  0  0  0  0  0  0  0  0
    6.9626  -13.8909   19.7736 C   0  0  0  0  0  0  0  0  0  0  0  0
    7.3691  -14.5194   21.0297 C   0  0  0  0  0  0  0  0  0  0  0  0
    7.8521  -15.9187   21.0897 C   0  0  2  0  0  0  0  0  0  0  0  0
    7.1357  -16.8897   20.3766 N   0  0  0  0  0  0  0  0  0  0  0  0
    8.0525  -16.3572   22.5089 C   0  0  0  0  0  0  0  0  0  0  0  0
    8.6751  -15.6029   23.2966 O   0  0  0  0  0  0  0  0  0  0  0  0
    6.6929  -18.9448   27.5125 N   0  0  0  0  0  0  0  0  0  0  0  0
    7.2342  -19.4361   26.2680 C   0  0  0  0  0  0  0  0  0  0  0  0
    8.1183  -20.3322   26.3702 O   0  0  0  0  0  0  0  0  0  0  0  0
    6.7700  -18.9138   24.9616 C   0  0  0  0  0  0  0  0  0  0  0  0
    7.8671  -18.0107   24.3655 C   0  0  2  0  0  0  0  0  0  0  0  0
    7.5637  -17.6079   23.0282 N   0  0  0  0  0  0  0  0  0  0  0  0
    9.1937  -18.5781   24.5953 C   0  0  0  0  0  0  0  0  0  0  0  0
    9.4012  -19.7684   24.1566 O   0  0  0  0  0  0  0  0  0  0  0  0
   13.2424  -13.6396   20.1128 N   0  0  0  0  0  0  0  0  0  0  0  0
   13.0626  -15.0286   19.7527 C   0  0  0  0  0  0  0  0  0  0  0  0
   12.9035  -15.4312   18.5473 N   0  0  0  0  0  0  0  0  0  0  0  0
   13.0544  -16.0432   20.7428 N   0  0  0  0  0  0  0  0  0  0  0  0
   13.4033  -15.8541   22.0674 C   0  0  0  0  0  0  0  0  0  0  0  0
   13.1939  -16.9349   23.0784 C   0  0  0  0  0  0  0  0  0  0  0  0
   11.8035  -16.9468   23.6437 C   0  0  0  0  0  0  0  0  0  0  0  0
   11.6473  -18.0516   24.6389 C   0  0  2  0  0  0  0  0  0  0  0  0
   10.2896  -17.9845   25.2410 N   0  0  0  0  0  0  0  0  0  0  0  0
   12.5939  -17.9960   25.7654 C   0  0  0  0  0  0  0  0  0  0  0  0
   13.9516  -18.2721   25.5412 O   0  0  0  0  0  0  0  0  0  0  0  0
   12.2463  -17.7072   26.9517 O   0  0  0  0  0  0  0  0  0  0  0  0
  2  1  1  0
  3  2  1  0
  4  3  1  0
  5  4  1  0
  5  6  1  1
  7  5  1  0
  8  7  2  0
  9 10  1  0
 10 12  1  0
 11 10  2  0
 13 12  1  6
 13 14  1  0
 14  7  1  0
 15 13  1  0
 15 16  2  0
 17 18  1  0
 18 19  2  0
 18 20  1  0
 20 21  1  0
 22 23  1  0
 22 21  1  0
 24 23  1  6
 24 25  1  0
 25 15  1  0
 26 24  1  0
 27 26  1  0
 28 26  2  0
M  END
$$$$
