MNR.pdb
     RDKit          3D

 28 27  0  0  1  0  0  0  0  0999 V2000
    6.5525  -10.7234   27.2637 C   0  0  0  0  0  0  0  0  0  0  0  0
    6.4228  -12.4551   27.6871 S   0  0  0  0  0  0  0  0  0  0  0  0
    6.3036  -13.5668   26.3163 C   0  0  0  0  0  0  0  0  0  0  0  0
    7.1197  -13.3672   25.1195 C   0  0  0  0  0  0  0  0  0  0  0  0
    7.5328  -14.4943   24.2514 C   0  0  2  0  0  0  0  0  0  0  0  0
    6.5356  -15.3637   23.7883 N   0  0  0  0  0  0  0  0  0  0  0  0
    8.6519  -15.2714   24.8764 C   0  0  0  0  0  0  0  0  0  0  0  0
    9.6307  -14.6486   25.3571 O   0  0  0  0  0  0  0  0  0  0  0  0
   11.8406  -18.7815   26.7124 N   0  0  0  0  0  0  0  0  0  0  0  0
   10.5245  -18.9926   27.2664 C   0  0  0  0  0  0  0  0  0  0  0  0
   10.4646  -19.7778   28.2538 O   0  0  0  0  0  0  0  0  0  0  0  0
    9.3301  -18.3215   26.7026 C   0  0  0  0  0  0  0  0  0  0  0  0
    9.7731  -17.3917   25.5564 C   0  0  2  0  0  0  0  0  0  0  0  0
    8.6678  -16.7085   24.9610 N   0  0  0  0  0  0  0  0  0  0  0  0
   10.6859  -18.0807   24.6471 C   0  0  0  0  0  0  0  0  0  0  0  0
   11.8490  -18.3789   25.1061 O   0  0  0  0  0  0  0  0  0  0  0  0
    7.8819  -14.4813   17.5274 N   0  0  0  0  0  0  0  0  0  0  0  0
    8.6132  -13.7008   18.5006 C   0  0  0  0  0  0  0  0  0  0  0  0
    8.3760  -12.4646   18.7375 N   0  0  0  0  0  0  0  0  0  0  0  0
    9.6578  -14.2804   19.2639 N   0  0  0  0  0  0  0  0  0  0  0  0
    9.5862  -14.5535   20.6175 C   0  0  0  0  0  0  0  0  0  0  0  0
   10.6887  -15.2854   21.3125 C   0  0  0  0  0  0  0  0  0  0  0  0
   10.1892  -16.2524   22.3462 C   0  0  0  0  0  0  0  0  0  0  0  0
   10.8580  -17.5809   22.1936 C   0  0  2  0  0  0  0  0  0  0  0  0
   10.4560  -18.4673   23.3174 N   0  0  0  0  0  0  0  0  0  0  0  0
   12.3293  -17.5300   22.2234 C   0  0  0  0  0  0  0  0  0  0  0  0
   13.0435  -17.4795   21.0162 O   0  0  0  0  0  0  0  0  0  0  0  0
   13.0030  -17.5293   23.2993 O   0  0  0  0  0  0  0  0  0  0  0  0
  2  1  1  0
  3  2  1  0
  4  3  1  0
  5  4  1  0
  5  6  1  1
  7  5  1  0
  8  7  2  0
  9 10  1  0
 10 12  1  0
 11 10  2  0
 13 12  1  1
 13 14  1  0
 14  7  1  0
 15 13  1  0
 15 16  2  0
 17 18  1  0
 18 19  2  0
 18 20  1  0
 20 21  1  0
 22 23  1  0
 22 21  1  0
 24 23  1  1
 24 25  1  0
 25 15  1  0
 26 24  1  0
 27 26  1  0
 28 26  2  0
M  END
$$$$
