MNR.pdb
     RDKit          3D

 28 27  0  0  1  0  0  0  0  0999 V2000
    8.2197  -11.6663   20.2917 C   0  0  0  0  0  0  0  0  0  0  0  0
    7.5213  -11.9903   18.6786 S   0  0  0  0  0  0  0  0  0  0  0  0
    7.9984  -13.5238   17.9370 C   0  0  0  0  0  0  0  0  0  0  0  0
    8.1806  -14.7234   18.7530 C   0  0  0  0  0  0  0  0  0  0  0  0
    8.8123  -15.9517   18.2169 C   0  0  2  0  0  0  0  0  0  0  0  0
    8.3038  -16.4819   17.0232 N   0  0  0  0  0  0  0  0  0  0  0  0
    8.8912  -17.0175   19.2680 C   0  0  0  0  0  0  0  0  0  0  0  0
    7.8872  -17.2351   19.9903 O   0  0  0  0  0  0  0  0  0  0  0  0
    8.6738  -21.5089   19.6498 N   0  0  0  0  0  0  0  0  0  0  0  0
    9.8179  -20.7404   19.2212 C   0  0  0  0  0  0  0  0  0  0  0  0
    9.9899  -20.6627   17.9724 O   0  0  0  0  0  0  0  0  0  0  0  0
   10.7223  -20.0881   20.1967 C   0  0  0  0  0  0  0  0  0  0  0  0
   10.1247  -18.7262   20.5999 C   0  0  2  0  0  0  0  0  0  0  0  0
   10.0655  -17.8179   19.4979 N   0  0  0  0  0  0  0  0  0  0  0  0
   10.7389  -18.2285   21.8286 C   0  0  0  0  0  0  0  0  0  0  0  0
   11.9354  -17.7679   21.7355 O   0  0  0  0  0  0  0  0  0  0  0  0
   11.5924  -16.5780   29.1944 N   0  0  0  0  0  0  0  0  0  0  0  0
   10.6390  -15.4948   29.2892 C   0  0  0  0  0  0  0  0  0  0  0  0
   10.6461  -14.6277   30.2318 N   0  0  0  0  0  0  0  0  0  0  0  0
    9.6208  -15.3325   28.3162 N   0  0  0  0  0  0  0  0  0  0  0  0
    9.8458  -15.1245   26.9679 C   0  0  0  0  0  0  0  0  0  0  0  0
   10.7153  -16.0525   26.1823 C   0  0  0  0  0  0  0  0  0  0  0  0
    9.9944  -16.7018   25.0369 C   0  0  0  0  0  0  0  0  0  0  0  0
   10.9297  -17.5515   24.2378 C   0  0  2  0  0  0  0  0  0  0  0  0
   10.1852  -18.1851   23.1177 N   0  0  0  0  0  0  0  0  0  0  0  0
   11.5453  -18.6562   24.9920 C   0  0  0  0  0  0  0  0  0  0  0  0
   12.6331  -18.3929   25.8389 O   0  0  0  0  0  0  0  0  0  0  0  0
   11.1412  -19.8575   24.9191 O   0  0  0  0  0  0  0  0  0  0  0  0
  2  1  1  0
  3  2  1  0
  4  3  1  0
  5  4  1  0
  5  6  1  6
  7  5  1  0
  8  7  2  0
  9 10  1  0
 10 12  1  0
 11 10  2  0
 13 12  1  6
 13 14  1  0
 14  7  1  0
 15 13  1  0
 15 16  2  0
 17 18  1  0
 18 19  2  0
 18 20  1  0
 20 21  1  0
 22 23  1  0
 22 21  1  0
 24 23  1  1
 24 25  1  0
 25 15  1  0
 26 24  1  0
 27 26  1  0
 28 26  2  0
M  END
$$$$
