MNR.pdb
     RDKit          3D

 28 27  0  0  1  0  0  0  0  0999 V2000
    8.8465  -12.1267   28.9203 C   0  0  0  0  0  0  0  0  0  0  0  0
    8.5914  -13.0933   27.4387 S   0  0  0  0  0  0  0  0  0  0  0  0
    6.9962  -13.8421   27.2839 C   0  0  0  0  0  0  0  0  0  0  0  0
    6.6659  -14.6622   26.1192 C   0  0  0  0  0  0  0  0  0  0  0  0
    7.6970  -15.4184   25.3708 C   0  0  2  0  0  0  0  0  0  0  0  0
    9.0412  -15.1891   25.6951 N   0  0  0  0  0  0  0  0  0  0  0  0
    7.4890  -15.2904   23.8919 C   0  0  0  0  0  0  0  0  0  0  0  0
    6.3522  -15.5294   23.4146 O   0  0  0  0  0  0  0  0  0  0  0  0
    7.2910  -12.5879   18.7366 N   0  0  0  0  0  0  0  0  0  0  0  0
    7.7779  -13.6994   19.5180 C   0  0  0  0  0  0  0  0  0  0  0  0
    7.9203  -14.7881   18.8938 O   0  0  0  0  0  0  0  0  0  0  0  0
    8.0885  -13.5558   20.9595 C   0  0  0  0  0  0  0  0  0  0  0  0
    8.3158  -14.9548   21.5641 C   0  0  2  0  0  0  0  0  0  0  0  0
    8.5297  -14.9016   22.9763 N   0  0  0  0  0  0  0  0  0  0  0  0
    9.2898  -15.7112   20.7806 C   0  0  0  0  0  0  0  0  0  0  0  0
   10.2540  -15.0456   20.2519 O   0  0  0  0  0  0  0  0  0  0  0  0
    9.0301  -18.6385   13.3790 N   0  0  0  0  0  0  0  0  0  0  0  0
   10.4611  -18.5152   13.5465 C   0  0  0  0  0  0  0  0  0  0  0  0
   11.3064  -18.7813   12.6218 N   0  0  0  0  0  0  0  0  0  0  0  0
   11.0164  -18.0801   14.7762 N   0  0  0  0  0  0  0  0  0  0  0  0
   10.2793  -17.6977   15.8818 C   0  0  0  0  0  0  0  0  0  0  0  0
   10.9550  -17.2561   17.1399 C   0  0  0  0  0  0  0  0  0  0  0  0
    9.9880  -16.8257   18.2041 C   0  0  0  0  0  0  0  0  0  0  0  0
   10.1656  -17.6452   19.4420 C   0  0  2  0  0  0  0  0  0  0  0  0
    9.3125  -17.0916   20.5264 N   0  0  0  0  0  0  0  0  0  0  0  0
   11.5390  -17.6581   19.9729 C   0  0  0  0  0  0  0  0  0  0  0  0
   12.2470  -18.8687   20.0282 O   0  0  0  0  0  0  0  0  0  0  0  0
   12.1319  -16.6169   20.3921 O   0  0  0  0  0  0  0  0  0  0  0  0
  2  1  1  0
  3  2  1  0
  4  3  1  0
  5  4  1  0
  5  6  1  6
  7  5  1  0
  8  7  2  0
  9 10  1  0
 10 12  1  0
 11 10  2  0
 13 12  1  6
 13 14  1  0
 14  7  1  0
 15 13  1  0
 15 16  2  0
 17 18  1  0
 18 19  2  0
 18 20  1  0
 20 21  1  0
 22 23  1  0
 22 21  1  0
 24 23  1  6
 24 25  1  0
 25 15  1  0
 26 24  1  0
 27 26  1  0
 28 26  2  0
M  END
$$$$
