MNR.pdb
     RDKit          3D

 28 27  0  0  1  0  0  0  0  0999 V2000
    9.1363  -11.6157   19.9977 C   0  0  0  0  0  0  0  0  0  0  0  0
    7.9204  -12.3384   18.9051 S   0  0  0  0  0  0  0  0  0  0  0  0
    7.9656  -14.1021   18.7766 C   0  0  0  0  0  0  0  0  0  0  0  0
    8.2600  -14.9290   19.9461 C   0  0  0  0  0  0  0  0  0  0  0  0
    8.4335  -16.3971   19.8488 C   0  0  2  0  0  0  0  0  0  0  0  0
    7.6284  -17.0924   18.9362 N   0  0  0  0  0  0  0  0  0  0  0  0
    8.3591  -17.0374   21.2020 C   0  0  0  0  0  0  0  0  0  0  0  0
    7.3981  -16.7515   21.9583 O   0  0  0  0  0  0  0  0  0  0  0  0
   10.1430  -21.5972   24.8665 N   0  0  0  0  0  0  0  0  0  0  0  0
    9.2147  -20.6466   24.3026 C   0  0  0  0  0  0  0  0  0  0  0  0
    8.2474  -20.3178   25.0452 O   0  0  0  0  0  0  0  0  0  0  0  0
    9.3999  -20.0988   22.9385 C   0  0  0  0  0  0  0  0  0  0  0  0
    9.1940  -18.5723   22.9803 C   0  0  2  0  0  0  0  0  0  0  0  0
    9.3365  -17.9753   21.6895 N   0  0  0  0  0  0  0  0  0  0  0  0
    9.9594  -17.9709   24.0698 C   0  0  0  0  0  0  0  0  0  0  0  0
   11.2383  -17.9524   23.9413 O   0  0  0  0  0  0  0  0  0  0  0  0
    7.2626  -10.8550   26.4871 N   0  0  0  0  0  0  0  0  0  0  0  0
    6.3952  -11.9860   26.7316 C   0  0  0  0  0  0  0  0  0  0  0  0
    5.1784  -11.8735   27.1155 N   0  0  0  0  0  0  0  0  0  0  0  0
    6.8599  -13.3133   26.5526 N   0  0  0  0  0  0  0  0  0  0  0  0
    8.1913  -13.6865   26.5379 C   0  0  0  0  0  0  0  0  0  0  0  0
    8.5848  -15.1228   26.4092 C   0  0  0  0  0  0  0  0  0  0  0  0
   10.0721  -15.3215   26.3717 C   0  0  0  0  0  0  0  0  0  0  0  0
   10.4079  -16.7714   26.2284 C   0  0  2  0  0  0  0  0  0  0  0  0
    9.4743  -17.4000   25.2569 N   0  0  0  0  0  0  0  0  0  0  0  0
   10.2857  -17.5514   27.4713 C   0  0  0  0  0  0  0  0  0  0  0  0
    9.4437  -18.6738   27.5028 O   0  0  0  0  0  0  0  0  0  0  0  0
   10.9102  -17.2616   28.5379 O   0  0  0  0  0  0  0  0  0  0  0  0
  2  1  1  0
  3  2  1  0
  4  3  1  0
  5  4  1  0
  5  6  1  6
  7  5  1  0
  8  7  2  0
  9 10  1  0
 10 12  1  0
 11 10  2  0
 13 12  1  6
 13 14  1  0
 14  7  1  0
 15 13  1  0
 15 16  2  0
 17 18  1  0
 18 19  2  0
 18 20  1  0
 20 21  1  0
 22 23  1  0
 22 21  1  0
 24 23  1  1
 24 25  1  0
 25 15  1  0
 26 24  1  0
 27 26  1  0
 28 26  2  0
M  END
$$$$
