MNR.pdb
     RDKit          3D

 28 27  0  0  1  0  0  0  0  0999 V2000
    5.4575  -13.2406   25.5797 C   0  0  0  0  0  0  0  0  0  0  0  0
    6.3616  -12.4625   24.2486 S   0  0  0  0  0  0  0  0  0  0  0  0
    6.0947  -13.1530   22.6420 C   0  0  0  0  0  0  0  0  0  0  0  0
    7.1360  -13.9426   21.9859 C   0  0  0  0  0  0  0  0  0  0  0  0
    7.8309  -15.0556   22.6738 C   0  0  2  0  0  0  0  0  0  0  0  0
    8.1995  -14.8691   24.0132 N   0  0  0  0  0  0  0  0  0  0  0  0
    9.0043  -15.5330   21.8725 C   0  0  0  0  0  0  0  0  0  0  0  0
    8.7975  -16.2078   20.8338 O   0  0  0  0  0  0  0  0  0  0  0  0
   12.0968  -15.1942   18.8545 N   0  0  0  0  0  0  0  0  0  0  0  0
   12.5259  -14.4254   19.9983 C   0  0  0  0  0  0  0  0  0  0  0  0
   12.7736  -13.2066   19.7783 O   0  0  0  0  0  0  0  0  0  0  0  0
   12.6600  -15.0410   21.3392 C   0  0  0  0  0  0  0  0  0  0  0  0
   11.4456  -15.9546   21.5939 C   0  0  2  0  0  0  0  0  0  0  0  0
   10.3717  -15.2565   22.2282 N   0  0  0  0  0  0  0  0  0  0  0  0
   11.8589  -17.2165   22.2033 C   0  0  0  0  0  0  0  0  0  0  0  0
   12.9457  -17.7453   21.7656 O   0  0  0  0  0  0  0  0  0  0  0  0
   10.5280  -16.6855   29.3360 N   0  0  0  0  0  0  0  0  0  0  0  0
   10.9955  -15.3226   29.4599 C   0  0  0  0  0  0  0  0  0  0  0  0
   11.4335  -14.8226   30.5548 N   0  0  0  0  0  0  0  0  0  0  0  0
   10.9940  -14.4471   28.3450 N   0  0  0  0  0  0  0  0  0  0  0  0
   10.7977  -14.8413   27.0342 C   0  0  0  0  0  0  0  0  0  0  0  0
   11.3405  -16.1410   26.5338 C   0  0  0  0  0  0  0  0  0  0  0  0
   11.0365  -16.3834   25.0840 C   0  0  0  0  0  0  0  0  0  0  0  0
   11.5699  -17.7100   24.6471 C   0  0  2  0  0  0  0  0  0  0  0  0
   11.2161  -17.9383   23.2212 N   0  0  0  0  0  0  0  0  0  0  0  0
   11.0266  -18.8601   25.3890 C   0  0  0  0  0  0  0  0  0  0  0  0
   11.6014  -19.2244   26.6165 O   0  0  0  0  0  0  0  0  0  0  0  0
   10.0488  -19.5554   24.9745 O   0  0  0  0  0  0  0  0  0  0  0  0
  2  1  1  0
  3  2  1  0
  4  3  1  0
  5  4  1  0
  5  6  1  1
  7  5  1  0
  8  7  2  0
  9 10  1  0
 10 12  1  0
 11 10  2  0
 13 12  1  1
 13 14  1  0
 14  7  1  0
 15 13  1  0
 15 16  2  0
 17 18  1  0
 18 19  2  0
 18 20  1  0
 20 21  1  0
 22 23  1  0
 22 21  1  0
 24 23  1  1
 24 25  1  0
 25 15  1  0
 26 24  1  0
 27 26  1  0
 28 26  2  0
M  END
$$$$
