MNR.pdb
     RDKit          3D

 28 27  0  0  1  0  0  0  0  0999 V2000
    7.9872  -11.1379   19.9794 C   0  0  0  0  0  0  0  0  0  0  0  0
    7.3710  -12.2821   18.7524 S   0  0  0  0  0  0  0  0  0  0  0  0
    7.6571  -13.9936   19.0962 C   0  0  0  0  0  0  0  0  0  0  0  0
    8.9485  -14.4463   19.6115 C   0  0  0  0  0  0  0  0  0  0  0  0
    9.2164  -15.8695   19.9237 C   0  0  2  0  0  0  0  0  0  0  0  0
    8.1408  -16.7663   19.8650 N   0  0  0  0  0  0  0  0  0  0  0  0
    9.9375  -16.0061   21.2306 C   0  0  0  0  0  0  0  0  0  0  0  0
   11.0930  -15.5268   21.3409 O   0  0  0  0  0  0  0  0  0  0  0  0
    7.8692  -14.7482   24.6817 N   0  0  0  0  0  0  0  0  0  0  0  0
    7.9201  -16.1880   24.5932 C   0  0  0  0  0  0  0  0  0  0  0  0
    6.8303  -16.7587   24.3075 O   0  0  0  0  0  0  0  0  0  0  0  0
    9.1791  -16.9341   24.8235 C   0  0  0  0  0  0  0  0  0  0  0  0
   10.1051  -16.7403   23.6072 C   0  0  2  0  0  0  0  0  0  0  0  0
    9.3734  -16.6609   22.3820 N   0  0  0  0  0  0  0  0  0  0  0  0
   11.2221  -17.6813   23.6449 C   0  0  0  0  0  0  0  0  0  0  0  0
   10.9801  -18.8528   24.1155 O   0  0  0  0  0  0  0  0  0  0  0  0
   13.9142  -21.5877   19.3369 N   0  0  0  0  0  0  0  0  0  0  0  0
   14.4171  -20.5945   18.4139 C   0  0  0  0  0  0  0  0  0  0  0  0
   14.1433  -20.5897   17.1627 N   0  0  0  0  0  0  0  0  0  0  0  0
   15.2609  -19.5461   18.8596 N   0  0  0  0  0  0  0  0  0  0  0  0
   15.4328  -19.1816   20.1823 C   0  0  0  0  0  0  0  0  0  0  0  0
   14.3472  -18.4794   20.9326 C   0  0  0  0  0  0  0  0  0  0  0  0
   14.6901  -18.2434   22.3747 C   0  0  0  0  0  0  0  0  0  0  0  0
   13.5312  -18.5844   23.2558 C   0  0  2  0  0  0  0  0  0  0  0  0
   12.5456  -17.4717   23.2269 N   0  0  0  0  0  0  0  0  0  0  0  0
   13.8797  -18.7809   24.6729 C   0  0  0  0  0  0  0  0  0  0  0  0
   13.9392  -17.6712   25.5302 O   0  0  0  0  0  0  0  0  0  0  0  0
   14.1349  -19.9188   25.1745 O   0  0  0  0  0  0  0  0  0  0  0  0
  2  1  1  0
  3  2  1  0
  4  3  1  0
  5  4  1  0
  5  6  1  1
  7  5  1  0
  8  7  2  0
  9 10  1  0
 10 12  1  0
 11 10  2  0
 13 12  1  1
 13 14  1  0
 14  7  1  0
 15 13  1  0
 15 16  2  0
 17 18  1  0
 18 19  2  0
 18 20  1  0
 20 21  1  0
 22 23  1  0
 22 21  1  0
 24 23  1  6
 24 25  1  0
 25 15  1  0
 26 24  1  0
 27 26  1  0
 28 26  2  0
M  END
$$$$
