CGV.pdb
     RDKit          3D

 18 17  0  0  1  0  0  0  0  0999 V2000
    7.3076  -20.0276   22.6025 N   0  0  0  0  0  0  0  0  0  0  0  0
    6.7100  -18.9341   23.3903 C   0  0  1  0  0  0  0  0  0  0  0  0
    7.1109  -19.2761   24.8332 C   0  0  0  0  0  0  0  0  0  0  0  0
    6.2065  -20.6947   25.4406 S   0  0  0  0  0  0  0  0  0  0  0  0
    7.3657  -17.6814   22.9634 C   0  0  0  0  0  0  0  0  0  0  0  0
    8.5849  -17.6880   22.6630 O   0  0  0  0  0  0  0  0  0  0  0  0
    6.6822  -16.4303   22.8676 N   0  0  0  0  0  0  0  0  0  0  0  0
    7.4207  -15.2577   22.5389 C   0  0  0  0  0  0  0  0  0  0  0  0
    7.9792  -14.5165   23.6569 C   0  0  0  0  0  0  0  0  0  0  0  0
    9.2333  -14.2678   23.6036 O   0  0  0  0  0  0  0  0  0  0  0  0
    5.8546  -12.8506   27.0417 C   0  0  0  0  0  0  0  0  0  0  0  0
    7.1209  -12.2792   26.4819 C   0  0  2  0  0  0  0  0  0  0  0  0
    6.7590  -11.2190   25.4794 C   0  0  0  0  0  0  0  0  0  0  0  0
    7.9536  -13.3887   25.8952 C   0  0  2  0  0  0  0  0  0  0  0  0
    7.2989  -14.0450   24.7838 N   0  0  0  0  0  0  0  0  0  0  0  0
    8.4025  -14.3596   26.9242 C   0  0  0  0  0  0  0  0  0  0  0  0
    8.0521  -15.5713   26.9108 O   0  0  0  0  0  0  0  0  0  0  0  0
    9.2394  -13.9803   27.9646 O   0  0  0  0  0  0  0  0  0  0  0  0
  2  1  1  6
  2  3  1  0
  3  4  1  0
  5  6  2  0
  5  2  1  0
  7  5  1  0
  8  9  1  0
  8  7  1  0
  9 15  1  0
 10  9  2  0
 12 11  1  6
 13 12  1  0
 14 12  1  0
 14 16  1  0
 14 15  1  6
 16 17  2  0
 16 18  1  0
M  END
$$$$
