CGV.pdb
     RDKit          3D

 18 17  0  0  1  0  0  0  0  0999 V2000
    8.6635  -19.2370   22.2964 N   0  0  0  0  0  0  0  0  0  0  0  0
    7.1965  -19.1740   22.4277 C   0  0  1  0  0  0  0  0  0  0  0  0
    6.9375  -19.7859   23.8127 C   0  0  0  0  0  0  0  0  0  0  0  0
    7.6749  -18.7977   25.1084 S   0  0  0  0  0  0  0  0  0  0  0  0
    6.8201  -17.7458   22.4240 C   0  0  0  0  0  0  0  0  0  0  0  0
    5.6139  -17.4197   22.5481 O   0  0  0  0  0  0  0  0  0  0  0  0
    7.7666  -16.6845   22.2851 N   0  0  0  0  0  0  0  0  0  0  0  0
    7.3213  -15.3363   22.3967 C   0  0  0  0  0  0  0  0  0  0  0  0
    7.8147  -14.5900   23.5415 C   0  0  0  0  0  0  0  0  0  0  0  0
    9.0675  -14.6847   23.7841 O   0  0  0  0  0  0  0  0  0  0  0  0
    7.4770  -11.0914   26.9916 C   0  0  0  0  0  0  0  0  0  0  0  0
    6.7411  -11.9439   26.0041 C   0  0  2  0  0  0  0  0  0  0  0  0
    5.5108  -12.4893   26.6742 C   0  0  0  0  0  0  0  0  0  0  0  0
    7.6606  -13.0198   25.4892 C   0  0  2  0  0  0  0  0  0  0  0  0
    7.0730  -13.7803   24.4071 N   0  0  0  0  0  0  0  0  0  0  0  0
    8.1611  -13.8993   26.5751 C   0  0  0  0  0  0  0  0  0  0  0  0
    8.8997  -13.4740   27.5050 O   0  0  0  0  0  0  0  0  0  0  0  0
    7.8387  -15.2485   26.6237 O   0  0  0  0  0  0  0  0  0  0  0  0
  2  1  1  1
  2  3  1  0
  3  4  1  0
  5  6  2  0
  5  2  1  0
  7  5  1  0
  8  9  1  0
  8  7  1  0
  9 15  1  0
 10  9  2  0
 12 11  1  1
 13 12  1  0
 14 12  1  0
 14 16  1  0
 14 15  1  6
 16 17  2  0
 16 18  1  0
M  END
$$$$
