CGV.pdb
     RDKit          3D

 18 17  0  0  1  0  0  0  0  0999 V2000
    6.2601  -19.8650   20.5119 N   0  0  0  0  0  0  0  0  0  0  0  0
    7.3469  -19.1092   21.1608 C   0  0  1  0  0  0  0  0  0  0  0  0
    7.8608  -18.1933   20.0396 C   0  0  0  0  0  0  0  0  0  0  0  0
    9.0620  -19.0323   19.0137 S   0  0  0  0  0  0  0  0  0  0  0  0
    6.7346  -18.3029   22.2360 C   0  0  0  0  0  0  0  0  0  0  0  0
    5.5567  -18.5421   22.5996 O   0  0  0  0  0  0  0  0  0  0  0  0
    7.4159  -17.2408   22.9065 N   0  0  0  0  0  0  0  0  0  0  0  0
    6.7927  -16.6078   24.0196 C   0  0  0  0  0  0  0  0  0  0  0  0
    7.5321  -15.5194   24.6359 C   0  0  0  0  0  0  0  0  0  0  0  0
    8.7555  -15.3925   24.2832 O   0  0  0  0  0  0  0  0  0  0  0  0
    6.0768  -12.5206   27.4650 C   0  0  0  0  0  0  0  0  0  0  0  0
    7.0747  -12.2750   26.3754 C   0  0  2  0  0  0  0  0  0  0  0  0
    6.3368  -11.7921   25.1580 C   0  0  0  0  0  0  0  0  0  0  0  0
    7.8649  -13.5331   26.1281 C   0  0  2  0  0  0  0  0  0  0  0  0
    7.0554  -14.5957   25.5712 N   0  0  0  0  0  0  0  0  0  0  0  0
    8.6072  -13.9775   27.3342 C   0  0  0  0  0  0  0  0  0  0  0  0
    8.3061  -15.0266   27.9666 O   0  0  0  0  0  0  0  0  0  0  0  0
    9.6817  -13.2542   27.8331 O   0  0  0  0  0  0  0  0  0  0  0  0
  2  1  1  6
  2  3  1  0
  3  4  1  0
  5  6  2  0
  5  2  1  0
  7  5  1  0
  8  9  1  0
  8  7  1  0
  9 15  1  0
 10  9  2  0
 12 11  1  1
 13 12  1  0
 14 12  1  0
 14 16  1  0
 14 15  1  1
 16 17  2  0
 16 18  1  0
M  END
$$$$
