CGV.pdb
     RDKit          3D

 18 17  0  0  1  0  0  0  0  0999 V2000
    9.2913  -18.0891   19.9532 N   0  0  0  0  0  0  0  0  0  0  0  0
    7.8886  -18.0259   19.5038 C   0  0  1  0  0  0  0  0  0  0  0  0
    7.2213  -19.1852   20.2591 C   0  0  0  0  0  0  0  0  0  0  0  0
    8.1776  -20.6900   20.1168 S   0  0  0  0  0  0  0  0  0  0  0  0
    7.3409  -16.7348   19.9668 C   0  0  0  0  0  0  0  0  0  0  0  0
    6.1726  -16.4037   19.6472 O   0  0  0  0  0  0  0  0  0  0  0  0
    8.0755  -15.8153   20.7770 N   0  0  0  0  0  0  0  0  0  0  0  0
    7.4270  -14.6439   21.2623 C   0  0  0  0  0  0  0  0  0  0  0  0
    6.8483  -14.7347   22.5920 C   0  0  0  0  0  0  0  0  0  0  0  0
    6.4966  -13.6308   23.1351 O   0  0  0  0  0  0  0  0  0  0  0  0
    9.3000  -17.2115   24.0940 C   0  0  0  0  0  0  0  0  0  0  0  0
    7.9713  -17.3870   24.7627 C   0  0  2  0  0  0  0  0  0  0  0  0
    7.2723  -18.5562   24.1267 C   0  0  0  0  0  0  0  0  0  0  0  0
    7.1883  -16.1042   24.6636 C   0  0  2  0  0  0  0  0  0  0  0  0
    6.6332  -15.8939   23.3437 N   0  0  0  0  0  0  0  0  0  0  0  0
    7.9697  -14.9309   25.1283 C   0  0  0  0  0  0  0  0  0  0  0  0
    8.7360  -14.2820   24.3648 O   0  0  0  0  0  0  0  0  0  0  0  0
    7.8966  -14.4830   26.4400 O   0  0  0  0  0  0  0  0  0  0  0  0
  2  1  1  1
  2  3  1  0
  3  4  1  0
  5  6  2  0
  5  2  1  0
  7  5  1  0
  8  9  1  0
  8  7  1  0
  9 15  1  0
 10  9  2  0
 12 11  1  6
 13 12  1  0
 14 12  1  0
 14 16  1  0
 14 15  1  6
 16 17  2  0
 16 18  1  0
M  END
$$$$
