CGV.pdb
     RDKit          3D

 18 17  0  0  1  0  0  0  0  0999 V2000
    7.3738  -14.8472   17.9837 N   0  0  0  0  0  0  0  0  0  0  0  0
    8.3208  -14.5150   19.0637 C   0  0  1  0  0  0  0  0  0  0  0  0
    8.6552  -13.0389   18.8008 C   0  0  0  0  0  0  0  0  0  0  0  0
    9.7601  -12.3901   20.0488 S   0  0  0  0  0  0  0  0  0  0  0  0
    7.5907  -14.6518   20.3402 C   0  0  0  0  0  0  0  0  0  0  0  0
    6.4818  -14.0813   20.4873 O   0  0  0  0  0  0  0  0  0  0  0  0
    8.0789  -15.4127   21.4467 N   0  0  0  0  0  0  0  0  0  0  0  0
    7.3373  -15.4268   22.6625 C   0  0  0  0  0  0  0  0  0  0  0  0
    7.9494  -14.7539   23.7955 C   0  0  0  0  0  0  0  0  0  0  0  0
    9.2153  -14.5776   23.7352 O   0  0  0  0  0  0  0  0  0  0  0  0
    5.9224  -13.1235   27.2142 C   0  0  0  0  0  0  0  0  0  0  0  0
    7.2305  -12.5853   26.7219 C   0  0  2  0  0  0  0  0  0  0  0  0
    6.9505  -11.4327   25.7983 C   0  0  0  0  0  0  0  0  0  0  0  0
    8.0119  -13.6931   26.0656 C   0  0  2  0  0  0  0  0  0  0  0  0
    7.3091  -14.2780   24.9438 N   0  0  0  0  0  0  0  0  0  0  0  0
    8.4539  -14.7228   27.0390 C   0  0  0  0  0  0  0  0  0  0  0  0
    7.9945  -15.8976   27.0377 O   0  0  0  0  0  0  0  0  0  0  0  0
    9.4051  -14.4432   28.0104 O   0  0  0  0  0  0  0  0  0  0  0  0
  2  1  1  6
  2  3  1  0
  3  4  1  0
  5  6  2  0
  5  2  1  0
  7  5  1  0
  8  9  1  0
  8  7  1  0
  9 15  1  0
 10  9  2  0
 12 11  1  6
 13 12  1  0
 14 12  1  0
 14 16  1  0
 14 15  1  6
 16 17  2  0
 16 18  1  0
M  END
$$$$
