CGV.pdb
     RDKit          3D

 18 17  0  0  1  0  0  0  0  0999 V2000
    9.5241  -16.3631   18.8014 N   0  0  0  0  0  0  0  0  0  0  0  0
    8.9138  -15.2283   19.5178 C   0  0  1  0  0  0  0  0  0  0  0  0
    8.0896  -14.5237   18.4297 C   0  0  0  0  0  0  0  0  0  0  0  0
    7.1108  -13.1927   19.1149 S   0  0  0  0  0  0  0  0  0  0  0  0
    8.0189  -15.7942   20.5475 C   0  0  0  0  0  0  0  0  0  0  0  0
    7.8130  -17.0325   20.5809 O   0  0  0  0  0  0  0  0  0  0  0  0
    7.3560  -15.0011   21.5340 N   0  0  0  0  0  0  0  0  0  0  0  0
    7.0858  -15.5651   22.8135 C   0  0  0  0  0  0  0  0  0  0  0  0
    7.7624  -14.9493   23.9422 C   0  0  0  0  0  0  0  0  0  0  0  0
    9.0415  -14.9819   23.9245 O   0  0  0  0  0  0  0  0  0  0  0  0
    5.9589  -12.8956   27.3284 C   0  0  0  0  0  0  0  0  0  0  0  0
    7.2381  -12.4826   26.6678 C   0  0  2  0  0  0  0  0  0  0  0  0
    6.9187  -11.4514   25.6215 C   0  0  0  0  0  0  0  0  0  0  0  0
    7.9276  -13.6992   26.1085 C   0  0  2  0  0  0  0  0  0  0  0  0
    7.1714  -14.3253   25.0452 N   0  0  0  0  0  0  0  0  0  0  0  0
    8.3017  -14.6702   27.1670 C   0  0  0  0  0  0  0  0  0  0  0  0
    9.0793  -14.3729   28.1147 O   0  0  0  0  0  0  0  0  0  0  0  0
    7.8101  -15.9682   27.1683 O   0  0  0  0  0  0  0  0  0  0  0  0
  2  1  1  6
  2  3  1  0
  3  4  1  0
  5  6  2  0
  5  2  1  0
  7  5  1  0
  8  9  1  0
  8  7  1  0
  9 15  1  0
 10  9  2  0
 12 11  1  6
 13 12  1  0
 14 12  1  0
 14 16  1  0
 14 15  1  6
 16 17  2  0
 16 18  1  0
M  END
$$$$
