CGV.pdb
     RDKit          3D

 18 17  0  0  1  0  0  0  0  0999 V2000
    8.3063  -15.5080   18.8991 N   0  0  0  0  0  0  0  0  0  0  0  0
    8.4490  -14.2349   19.6287 C   0  0  1  0  0  0  0  0  0  0  0  0
    7.5244  -13.2794   18.8593 C   0  0  0  0  0  0  0  0  0  0  0  0
    8.2594  -12.7701   17.3102 S   0  0  0  0  0  0  0  0  0  0  0  0
    7.9307  -14.4551   20.9940 C   0  0  0  0  0  0  0  0  0  0  0  0
    7.9555  -13.5168   21.8281 O   0  0  0  0  0  0  0  0  0  0  0  0
    7.3881  -15.7006   21.4368 N   0  0  0  0  0  0  0  0  0  0  0  0
    6.7601  -15.7714   22.7131 C   0  0  0  0  0  0  0  0  0  0  0  0
    7.5362  -15.2790   23.8384 C   0  0  0  0  0  0  0  0  0  0  0  0
    8.7771  -15.5909   23.8525 O   0  0  0  0  0  0  0  0  0  0  0  0
    6.0562  -13.1290   27.2850 C   0  0  0  0  0  0  0  0  0  0  0  0
    7.4017  -12.8455   26.6910 C   0  0  2  0  0  0  0  0  0  0  0  0
    7.2707  -11.6710   25.7619 C   0  0  0  0  0  0  0  0  0  0  0  0
    7.9183  -14.0849   26.0088 C   0  0  2  0  0  0  0  0  0  0  0  0
    7.0779  -14.5026   24.9072 N   0  0  0  0  0  0  0  0  0  0  0  0
    8.1663  -15.1919   26.9660 C   0  0  0  0  0  0  0  0  0  0  0  0
    7.4303  -16.2147   27.0241 O   0  0  0  0  0  0  0  0  0  0  0  0
    9.2316  -15.1583   27.8551 O   0  0  0  0  0  0  0  0  0  0  0  0
  2  1  1  6
  2  3  1  0
  3  4  1  0
  5  6  2  0
  5  2  1  0
  7  5  1  0
  8  9  1  0
  8  7  1  0
  9 15  1  0
 10  9  2  0
 12 11  1  6
 13 12  1  0
 14 12  1  0
 14 16  1  0
 14 15  1  6
 16 17  2  0
 16 18  1  0
M  END
$$$$
