KCA.pdb
     RDKit          3D

 21 20  0  0  1  0  0  0  0  0999 V2000
    8.7711  -18.0175   18.4681 N   0  0  0  0  0  0  0  0  0  0  0  0
    9.8618  -18.0499   19.3902 C   0  0  1  0  0  0  0  0  0  0  0  0
   11.2019  -18.3233   18.8035 C   0  0  0  0  0  0  0  0  0  0  0  0
   11.2663  -18.4069   17.3202 C   0  0  0  0  0  0  0  0  0  0  0  0
   12.6225  -18.6279   16.7386 C   0  0  0  0  0  0  0  0  0  0  0  0
   12.4856  -18.7494   15.2127 C   0  0  0  0  0  0  0  0  0  0  0  0
   13.7957  -18.8225   14.6064 N   0  0  0  0  0  0  0  0  0  0  0  0
    9.8477  -16.8035   20.2182 C   0  0  0  0  0  0  0  0  0  0  0  0
   10.7451  -16.5888   21.0757 O   0  0  0  0  0  0  0  0  0  0  0  0
    8.8382  -15.8113   20.0844 N   0  0  0  0  0  0  0  0  0  0  0  0
    8.7933  -14.6354   20.8954 C   0  0  1  0  0  0  0  0  0  0  0  0
    7.7774  -13.6217   20.4275 C   0  0  0  0  0  0  0  0  0  0  0  0
    7.9709  -13.2122   18.6916 S   0  0  0  0  0  0  0  0  0  0  0  0
    8.6386  -14.9732   22.3237 C   0  0  0  0  0  0  0  0  0  0  0  0
    7.8078  -15.8605   22.6479 O   0  0  0  0  0  0  0  0  0  0  0  0
    7.6945  -14.6904   25.0182 C   0  0  0  0  0  0  0  0  0  0  0  0
    9.2066  -14.6460   24.7595 C   0  0  2  0  0  0  0  0  0  0  0  0
    9.3705  -14.3588   23.3627 N   0  0  0  0  0  0  0  0  0  0  0  0
    9.7432  -15.9670   25.1417 C   0  0  0  0  0  0  0  0  0  0  0  0
   10.1302  -16.7418   24.2345 O   0  0  0  0  0  0  0  0  0  0  0  0
    9.8426  -16.3984   26.4513 O   0  0  0  0  0  0  0  0  0  0  0  0
  2  1  1  6
  2  8  1  0
  3  2  1  0
  3  4  1  0
  5  4  1  0
  6  5  1  0
  7  6  1  0
  8  9  2  0
 10 11  1  0
 10  8  1  0
 12 13  1  0
 11 12  1  6
 14 11  1  0
 14 15  2  0
 17 16  1  6
 17 18  1  0
 17 19  1  0
 18 14  1  0
 19 20  2  0
 19 21  1  0
M  END
$$$$
