KCA.pdb
     RDKit          3D

 21 20  0  0  1  0  0  0  0  0999 V2000
   -3.6033  -27.4786   28.0845 N   0  0  0  0  0  0  0  0  0  0  0  0
   -4.1998  -28.4766   28.9146 C   0  0  1  0  0  0  0  0  0  0  0  0
   -3.2575  -29.3081   29.7118 C   0  0  0  0  0  0  0  0  0  0  0  0
   -2.0017  -28.6429   30.1497 C   0  0  0  0  0  0  0  0  0  0  0  0
   -1.0730  -29.4778   30.9663 C   0  0  0  0  0  0  0  0  0  0  0  0
    0.1249  -28.6101   31.3835 C   0  0  0  0  0  0  0  0  0  0  0  0
    1.0973  -29.4191   32.0830 N   0  0  0  0  0  0  0  0  0  0  0  0
   -5.2591  -27.8466   29.7633 C   0  0  0  0  0  0  0  0  0  0  0  0
   -5.9744  -28.5473   30.5276 O   0  0  0  0  0  0  0  0  0  0  0  0
   -5.5115  -26.4474   29.7532 N   0  0  0  0  0  0  0  0  0  0  0  0
   -6.4749  -25.8263   30.6068 C   0  0  1  0  0  0  0  0  0  0  0  0
   -5.9743  -25.6009   32.0129 C   0  0  0  0  0  0  0  0  0  0  0  0
   -4.6167  -24.4299   32.0748 S   0  0  0  0  0  0  0  0  0  0  0  0
   -7.0204  -24.5981   29.9970 C   0  0  0  0  0  0  0  0  0  0  0  0
   -6.2463  -23.8537   29.3421 O   0  0  0  0  0  0  0  0  0  0  0  0
  -10.4134  -23.0091   29.8360 C   0  0  0  0  0  0  0  0  0  0  0  0
   -8.8955  -22.9544   29.6157 C   0  0  2  0  0  0  0  0  0  0  0  0
   -8.3704  -24.1988   30.1016 N   0  0  0  0  0  0  0  0  0  0  0  0
   -8.3975  -21.7869   30.3693 C   0  0  0  0  0  0  0  0  0  0  0  0
   -7.9940  -21.9598   31.5442 O   0  0  0  0  0  0  0  0  0  0  0  0
   -8.3517  -20.5074   29.8479 O   0  0  0  0  0  0  0  0  0  0  0  0
  2  1  1  1
  2  8  1  0
  3  2  1  0
  3  4  1  0
  5  4  1  0
  6  5  1  0
  7  6  1  0
  8  9  2  0
 10 11  1  0
 10  8  1  0
 12 13  1  0
 11 12  1  1
 14 11  1  0
 14 15  2  0
 17 16  1  1
 17 18  1  0
 17 19  1  0
 18 14  1  0
 19 20  2  0
 19 21  1  0
M  END
$$$$
