KCA.pdb
     RDKit          3D

 21 20  0  0  1  0  0  0  0  0999 V2000
    5.7339  -16.6410   20.8540 N   0  0  0  0  0  0  0  0  0  0  0  0
    6.8554  -16.0637   21.5247 C   0  0  1  0  0  0  0  0  0  0  0  0
    7.1381  -14.6369   21.2099 C   0  0  0  0  0  0  0  0  0  0  0  0
    7.6923  -14.3586   19.8583 C   0  0  0  0  0  0  0  0  0  0  0  0
    7.8334  -12.9180   19.4962 C   0  0  0  0  0  0  0  0  0  0  0  0
    8.1904  -12.8220   18.0045 C   0  0  0  0  0  0  0  0  0  0  0  0
    9.3409  -13.6497   17.7206 N   0  0  0  0  0  0  0  0  0  0  0  0
    6.7318  -16.3070   22.9960 C   0  0  0  0  0  0  0  0  0  0  0  0
    5.6442  -16.0956   23.5955 O   0  0  0  0  0  0  0  0  0  0  0  0
    7.8162  -16.7817   23.7836 N   0  0  0  0  0  0  0  0  0  0  0  0
    7.7588  -16.8734   25.2087 C   0  0  1  0  0  0  0  0  0  0  0  0
    7.5785  -18.2848   25.7128 C   0  0  0  0  0  0  0  0  0  0  0  0
    7.7869  -18.4068   27.4904 S   0  0  0  0  0  0  0  0  0  0  0  0
    8.9060  -16.1904   25.8377 C   0  0  0  0  0  0  0  0  0  0  0  0
   10.0692  -16.5695   25.5448 O   0  0  0  0  0  0  0  0  0  0  0  0
    9.3680  -13.2077   28.0356 C   0  0  0  0  0  0  0  0  0  0  0  0
    9.8712  -14.5537   27.4967 C   0  0  2  0  0  0  0  0  0  0  0  0
    8.7824  -15.1268   26.7576 N   0  0  0  0  0  0  0  0  0  0  0  0
   10.2599  -15.3632   28.6683 C   0  0  0  0  0  0  0  0  0  0  0  0
   11.2092  -14.9639   29.3841 O   0  0  0  0  0  0  0  0  0  0  0  0
    9.6314  -16.5429   29.0208 O   0  0  0  0  0  0  0  0  0  0  0  0
  2  1  1  6
  2  8  1  0
  3  2  1  0
  3  4  1  0
  5  4  1  0
  6  5  1  0
  7  6  1  0
  8  9  2  0
 10 11  1  0
 10  8  1  0
 12 13  1  0
 11 12  1  6
 14 11  1  0
 14 15  2  0
 17 16  1  1
 17 18  1  0
 17 19  1  0
 18 14  1  0
 19 20  2  0
 19 21  1  0
M  END
$$$$
