KCA.pdb
     RDKit          3D

 21 20  0  0  1  0  0  0  0  0999 V2000
    9.6952  -15.8012   20.7277 N   0  0  0  0  0  0  0  0  0  0  0  0
    8.8951  -16.2797   21.8101 C   0  0  1  0  0  0  0  0  0  0  0  0
    9.1828  -17.6661   22.2686 C   0  0  0  0  0  0  0  0  0  0  0  0
    8.8834  -18.7547   21.3008 C   0  0  0  0  0  0  0  0  0  0  0  0
    9.1130  -20.1446   21.7925 C   0  0  0  0  0  0  0  0  0  0  0  0
    8.8211  -21.1234   20.6441 C   0  0  0  0  0  0  0  0  0  0  0  0
    9.1668  -22.4683   21.0453 N   0  0  0  0  0  0  0  0  0  0  0  0
    8.9363  -15.2903   22.9319 C   0  0  0  0  0  0  0  0  0  0  0  0
    9.9889  -14.6465   23.1856 O   0  0  0  0  0  0  0  0  0  0  0  0
    7.8094  -15.0277   23.7582 N   0  0  0  0  0  0  0  0  0  0  0  0
    7.8588  -14.1443   24.8805 C   0  0  1  0  0  0  0  0  0  0  0  0
    6.5002  -13.6528   25.3180 C   0  0  0  0  0  0  0  0  0  0  0  0
    6.5937  -12.5628   26.7397 S   0  0  0  0  0  0  0  0  0  0  0  0
    8.6331  -14.7303   25.9918 C   0  0  0  0  0  0  0  0  0  0  0  0
    8.5795  -15.9736   26.1757 O   0  0  0  0  0  0  0  0  0  0  0  0
   10.5973  -13.4030   28.8702 C   0  0  0  0  0  0  0  0  0  0  0  0
   10.2882  -14.5392   27.8858 C   0  0  2  0  0  0  0  0  0  0  0  0
    9.4398  -13.9782   26.8730 N   0  0  0  0  0  0  0  0  0  0  0  0
    9.6282  -15.6074   28.6618 C   0  0  0  0  0  0  0  0  0  0  0  0
   10.3130  -16.2608   29.4846 O   0  0  0  0  0  0  0  0  0  0  0  0
    8.2899  -15.9281   28.5302 O   0  0  0  0  0  0  0  0  0  0  0  0
  2  1  1  6
  2  8  1  0
  3  2  1  0
  3  4  1  0
  5  4  1  0
  6  5  1  0
  7  6  1  0
  8  9  2  0
 10 11  1  0
 10  8  1  0
 12 13  1  0
 11 12  1  1
 14 11  1  0
 14 15  2  0
 17 16  1  1
 17 18  1  0
 17 19  1  0
 18 14  1  0
 19 20  2  0
 19 21  1  0
M  END
$$$$
