KCA.pdb
     RDKit          3D

 21 20  0  0  1  0  0  0  0  0999 V2000
    9.4420  -17.1243   18.9719 N   0  0  0  0  0  0  0  0  0  0  0  0
    8.5669  -17.0312   20.0972 C   0  0  1  0  0  0  0  0  0  0  0  0
    7.6300  -18.1715   20.2890 C   0  0  0  0  0  0  0  0  0  0  0  0
    7.5803  -19.1740   19.1918 C   0  0  0  0  0  0  0  0  0  0  0  0
    6.7216  -20.3688   19.4397 C   0  0  0  0  0  0  0  0  0  0  0  0
    6.7447  -21.2557   18.1848 C   0  0  0  0  0  0  0  0  0  0  0  0
    6.0255  -22.4837   18.4380 N   0  0  0  0  0  0  0  0  0  0  0  0
    9.3697  -16.7425   21.3266 C   0  0  0  0  0  0  0  0  0  0  0  0
   10.5964  -17.0246   21.3767 O   0  0  0  0  0  0  0  0  0  0  0  0
    8.8014  -16.1447   22.4848 N   0  0  0  0  0  0  0  0  0  0  0  0
    9.5466  -15.9081   23.6811 C   0  0  1  0  0  0  0  0  0  0  0  0
    8.9859  -14.7903   24.5265 C   0  0  0  0  0  0  0  0  0  0  0  0
    7.2305  -14.9860   24.8401 S   0  0  0  0  0  0  0  0  0  0  0  0
    9.7415  -17.1540   24.4479 C   0  0  0  0  0  0  0  0  0  0  0  0
    8.7514  -17.9056   24.6409 O   0  0  0  0  0  0  0  0  0  0  0  0
   12.6564  -19.2018   25.3933 C   0  0  0  0  0  0  0  0  0  0  0  0
   11.2037  -18.7986   25.6808 C   0  0  2  0  0  0  0  0  0  0  0  0
   10.9811  -17.5627   24.9856 N   0  0  0  0  0  0  0  0  0  0  0  0
   11.0808  -18.6645   27.1457 C   0  0  0  0  0  0  0  0  0  0  0  0
   10.8474  -17.5296   27.6260 O   0  0  0  0  0  0  0  0  0  0  0  0
   11.2096  -19.7269   28.0208 O   0  0  0  0  0  0  0  0  0  0  0  0
  2  1  1  6
  2  8  1  0
  3  2  1  0
  3  4  1  0
  5  4  1  0
  6  5  1  0
  7  6  1  0
  8  9  2  0
 10 11  1  0
 10  8  1  0
 12 13  1  0
 11 12  1  1
 14 11  1  0
 14 15  2  0
 17 16  1  1
 17 18  1  0
 17 19  1  0
 18 14  1  0
 19 20  2  0
 19 21  1  0
M  END
$$$$
