KCA.pdb
     RDKit          3D

 21 20  0  0  1  0  0  0  0  0999 V2000
    8.1831  -12.6090   19.2100 N   0  0  0  0  0  0  0  0  0  0  0  0
    7.8727  -13.8065   19.9244 C   0  0  1  0  0  0  0  0  0  0  0  0
    8.1063  -15.0805   19.1914 C   0  0  0  0  0  0  0  0  0  0  0  0
    7.6835  -15.1066   17.7659 C   0  0  0  0  0  0  0  0  0  0  0  0
    7.7790  -16.4294   17.0823 C   0  0  0  0  0  0  0  0  0  0  0  0
    7.4367  -16.2373   15.5965 C   0  0  0  0  0  0  0  0  0  0  0  0
    7.6602  -17.4710   14.8775 N   0  0  0  0  0  0  0  0  0  0  0  0
    8.5588  -13.7822   21.2540 C   0  0  0  0  0  0  0  0  0  0  0  0
    9.7107  -13.2873   21.3764 O   0  0  0  0  0  0  0  0  0  0  0  0
    7.9582  -14.3072   22.4310 N   0  0  0  0  0  0  0  0  0  0  0  0
    8.6323  -14.3573   23.6902 C   0  0  1  0  0  0  0  0  0  0  0  0
    7.8064  -13.8226   24.8350 C   0  0  0  0  0  0  0  0  0  0  0  0
    6.2285  -14.6621   24.9892 S   0  0  0  0  0  0  0  0  0  0  0  0
    9.1669  -15.7062   23.9602 C   0  0  0  0  0  0  0  0  0  0  0  0
    8.4475  -16.7045   23.6986 O   0  0  0  0  0  0  0  0  0  0  0  0
   12.4564  -17.0715   25.1115 C   0  0  0  0  0  0  0  0  0  0  0  0
   10.9570  -17.2517   24.8375 C   0  0  2  0  0  0  0  0  0  0  0  0
   10.4480  -15.9529   24.4993 N   0  0  0  0  0  0  0  0  0  0  0  0
   10.3612  -17.7992   26.0720 C   0  0  0  0  0  0  0  0  0  0  0  0
    9.5839  -17.0722   26.7357 O   0  0  0  0  0  0  0  0  0  0  0  0
   10.6147  -19.0756   26.5385 O   0  0  0  0  0  0  0  0  0  0  0  0
  2  1  1  6
  2  8  1  0
  3  2  1  0
  3  4  1  0
  5  4  1  0
  6  5  1  0
  7  6  1  0
  8  9  2  0
 10 11  1  0
 10  8  1  0
 12 13  1  0
 11 12  1  1
 14 11  1  0
 14 15  2  0
 17 16  1  1
 17 18  1  0
 17 19  1  0
 18 14  1  0
 19 20  2  0
 19 21  1  0
M  END
$$$$
