KCA.pdb
     RDKit          3D

 21 20  0  0  1  0  0  0  0  0999 V2000
    7.3740  -17.9047   17.1058 N   0  0  0  0  0  0  0  0  0  0  0  0
    6.5670  -17.6474   18.2561 C   0  0  1  0  0  0  0  0  0  0  0  0
    5.7654  -18.7962   18.7588 C   0  0  0  0  0  0  0  0  0  0  0  0
    6.5226  -20.0330   19.0879 C   0  0  0  0  0  0  0  0  0  0  0  0
    5.7031  -21.2033   19.5180 C   0  0  0  0  0  0  0  0  0  0  0  0
    6.5964  -22.4539   19.5117 C   0  0  0  0  0  0  0  0  0  0  0  0
    5.8689  -23.5798   20.0522 N   0  0  0  0  0  0  0  0  0  0  0  0
    7.4124  -17.0328   19.3270 C   0  0  0  0  0  0  0  0  0  0  0  0
    8.6339  -17.3225   19.4301 O   0  0  0  0  0  0  0  0  0  0  0  0
    6.8919  -16.1045   20.2699 N   0  0  0  0  0  0  0  0  0  0  0  0
    7.6920  -15.5032   21.2901 C   0  0  1  0  0  0  0  0  0  0  0  0
    6.9536  -14.4630   22.0972 C   0  0  0  0  0  0  0  0  0  0  0  0
    7.9872  -13.7188   23.3605 S   0  0  0  0  0  0  0  0  0  0  0  0
    8.3372  -16.5241   22.1384 C   0  0  0  0  0  0  0  0  0  0  0  0
    7.7189  -17.5946   22.3712 O   0  0  0  0  0  0  0  0  0  0  0  0
   10.5043  -18.5843   22.7098 C   0  0  0  0  0  0  0  0  0  0  0  0
   10.2460  -17.3406   23.5711 C   0  0  2  0  0  0  0  0  0  0  0  0
    9.6183  -16.3765   22.7128 N   0  0  0  0  0  0  0  0  0  0  0  0
   11.5585  -16.8922   24.0763 C   0  0  0  0  0  0  0  0  0  0  0  0
   12.1942  -17.6496   24.8479 O   0  0  0  0  0  0  0  0  0  0  0  0
   12.1277  -15.6771   23.7435 O   0  0  0  0  0  0  0  0  0  0  0  0
  2  1  1  6
  2  8  1  0
  3  2  1  0
  3  4  1  0
  5  4  1  0
  6  5  1  0
  7  6  1  0
  8  9  2  0
 10 11  1  0
 10  8  1  0
 12 13  1  0
 11 12  1  1
 14 11  1  0
 14 15  2  0
 17 16  1  6
 17 18  1  0
 17 19  1  0
 18 14  1  0
 19 20  2  0
 19 21  1  0
M  END
$$$$
