KCA.pdb
     RDKit          3D

 21 20  0  0  1  0  0  0  0  0999 V2000
    8.4152  -12.7245   18.6026 N   0  0  0  0  0  0  0  0  0  0  0  0
    7.6749  -13.7329   19.2925 C   0  0  1  0  0  0  0  0  0  0  0  0
    7.5154  -15.0276   18.5763 C   0  0  0  0  0  0  0  0  0  0  0  0
    7.8708  -15.0290   17.1323 C   0  0  0  0  0  0  0  0  0  0  0  0
    7.5321  -16.2718   16.3794 C   0  0  0  0  0  0  0  0  0  0  0  0
    7.7261  -16.0021   14.8789 C   0  0  0  0  0  0  0  0  0  0  0  0
    7.3777  -17.1811   14.1189 N   0  0  0  0  0  0  0  0  0  0  0  0
    8.2405  -13.9098   20.6666 C   0  0  0  0  0  0  0  0  0  0  0  0
    9.4762  -14.0847   20.8378 O   0  0  0  0  0  0  0  0  0  0  0  0
    7.4281  -13.8904   21.8333 N   0  0  0  0  0  0  0  0  0  0  0  0
    7.9475  -14.1204   23.1447 C   0  0  1  0  0  0  0  0  0  0  0  0
    6.9982  -13.7149   24.2461 C   0  0  0  0  0  0  0  0  0  0  0  0
    7.6533  -14.0712   25.8777 S   0  0  0  0  0  0  0  0  0  0  0  0
    8.4301  -15.5069   23.2960 C   0  0  0  0  0  0  0  0  0  0  0  0
    7.6727  -16.4508   22.9528 O   0  0  0  0  0  0  0  0  0  0  0  0
   11.4551  -17.3637   23.2729 C   0  0  0  0  0  0  0  0  0  0  0  0
   10.1490  -17.1878   24.0595 C   0  0  2  0  0  0  0  0  0  0  0  0
    9.7012  -15.8476   23.8068 N   0  0  0  0  0  0  0  0  0  0  0  0
   10.4713  -17.4280   25.4798 C   0  0  0  0  0  0  0  0  0  0  0  0
   10.4190  -16.4619   26.2778 O   0  0  0  0  0  0  0  0  0  0  0  0
   10.8294  -18.6660   25.9802 O   0  0  0  0  0  0  0  0  0  0  0  0
  2  1  1  6
  2  8  1  0
  3  2  1  0
  3  4  1  0
  5  4  1  0
  6  5  1  0
  7  6  1  0
  8  9  2  0
 10 11  1  0
 10  8  1  0
 12 13  1  0
 11 12  1  1
 14 11  1  0
 14 15  2  0
 17 16  1  6
 17 18  1  0
 17 19  1  0
 18 14  1  0
 19 20  2  0
 19 21  1  0
M  END
$$$$
