MQN.pdb
     RDKit          3D

 26 25  0  0  1  0  0  0  0  0999 V2000
   26.4139  -19.7355   -7.4505 C   0  0  0  0  0  0  0  0  0  0  0  0
   28.1379  -19.8986   -7.9158 S   0  0  0  0  0  0  0  0  0  0  0  0
   28.2987  -20.6635   -9.5618 C   0  0  0  0  0  0  0  0  0  0  0  0
   27.1075  -21.5162   -9.8302 C   0  0  0  0  0  0  0  0  0  0  0  0
   26.6304  -21.4287  -11.2466 C   0  0  2  0  0  0  0  0  0  0  0  0
   27.7687  -21.1015  -12.0895 N   0  0  0  0  0  0  0  0  0  0  0  0
   25.5249  -20.4741  -11.4687 C   0  0  0  0  0  0  0  0  0  0  0  0
   25.5903  -19.2389  -11.3193 O   0  0  0  0  0  0  0  0  0  0  0  0
   25.7921  -19.8018  -16.5576 N   0  0  0  0  0  0  0  0  0  0  0  0
   24.4291  -19.3451  -16.5545 C   0  0  0  0  0  0  0  0  0  0  0  0
   24.0213  -18.7761  -17.5731 O   0  0  0  0  0  0  0  0  0  0  0  0
   23.6278  -19.5855  -15.3515 C   0  0  0  0  0  0  0  0  0  0  0  0
   24.4326  -20.2242  -14.2419 C   0  0  0  0  0  0  0  0  0  0  0  0
   23.5758  -20.4429  -13.0283 C   0  0  2  0  0  0  0  0  0  0  0  0
   24.2498  -20.9828  -11.8935 N   0  0  0  0  0  0  0  0  0  0  0  0
   22.3285  -21.2029  -13.3616 C   0  0  0  0  0  0  0  0  0  0  0  0
   22.4004  -22.2756  -13.9998 O   0  0  0  0  0  0  0  0  0  0  0  0
   17.9769  -23.3764  -10.3423 N   0  0  0  0  0  0  0  0  0  0  0  0
   18.5822  -22.9926  -11.5915 C   0  0  0  0  0  0  0  0  0  0  0  0
   18.4999  -23.8414  -12.4962 O   0  0  0  0  0  0  0  0  0  0  0  0
   19.2376  -21.6945  -11.7574 C   0  0  0  0  0  0  0  0  0  0  0  0
   19.8989  -21.5649  -13.0995 C   0  0  2  0  0  0  0  0  0  0  0  0
   21.0986  -20.6852  -12.9441 N   0  0  0  0  0  0  0  0  0  0  0  0
   19.0148  -20.9571  -14.1011 C   0  0  0  0  0  0  0  0  0  0  0  0
   18.3038  -21.6820  -15.0040 O   0  0  0  0  0  0  0  0  0  0  0  0
   18.9016  -19.7003  -14.1357 O   0  0  0  0  0  0  0  0  0  0  0  0
  2  1  1  0
  3  2  1  0
  4  5  1  0
  4  3  1  0
  5  7  1  0
  5  6  1  6
  7  8  2  0
  9 10  1  0
 10 11  2  0
 10 12  1  0
 12 13  1  0
 14 13  1  6
 15 14  1  0
 15  7  1  0
 16 14  1  0
 16 17  2  0
 19 21  1  0
 19 18  1  0
 20 19  2  0
 22 21  1  1
 22 23  1  0
 22 24  1  0
 23 16  1  0
 24 26  2  0
 24 25  1  0
M  END
$$$$
