MQN.pdb
     RDKit          3D

 26 25  0  0  1  0  0  0  0  0999 V2000
   25.1131  -18.7315  -15.8416 C   0  0  0  0  0  0  0  0  0  0  0  0
   25.3820  -16.9712  -15.6303 S   0  0  0  0  0  0  0  0  0  0  0  0
   27.1540  -16.6040  -15.4171 C   0  0  0  0  0  0  0  0  0  0  0  0
   27.3290  -15.1510  -15.1415 C   0  0  0  0  0  0  0  0  0  0  0  0
   26.5987  -14.2773  -16.1135 C   0  0  2  0  0  0  0  0  0  0  0  0
   27.1842  -14.4741  -17.4294 N   0  0  0  0  0  0  0  0  0  0  0  0
   26.5778  -12.8428  -15.7606 C   0  0  0  0  0  0  0  0  0  0  0  0
   26.2386  -12.3703  -14.6589 O   0  0  0  0  0  0  0  0  0  0  0  0
   30.5703   -8.5751  -17.4918 N   0  0  0  0  0  0  0  0  0  0  0  0
   30.5039   -9.9954  -17.7033 C   0  0  0  0  0  0  0  0  0  0  0  0
   31.5178  -10.5497  -18.1419 O   0  0  0  0  0  0  0  0  0  0  0  0
   29.2468  -10.6781  -17.3858 C   0  0  0  0  0  0  0  0  0  0  0  0
   28.2118   -9.7392  -16.8079 C   0  0  0  0  0  0  0  0  0  0  0  0
   26.9477  -10.4826  -16.4853 C   0  0  2  0  0  0  0  0  0  0  0  0
   26.9769  -11.8830  -16.7528 N   0  0  0  0  0  0  0  0  0  0  0  0
   25.7463   -9.8161  -17.0828 C   0  0  0  0  0  0  0  0  0  0  0  0
   25.4804   -9.9736  -18.2943 O   0  0  0  0  0  0  0  0  0  0  0  0
   21.3507   -7.3645  -17.8718 N   0  0  0  0  0  0  0  0  0  0  0  0
   21.3158   -8.5752  -17.0925 C   0  0  0  0  0  0  0  0  0  0  0  0
   20.1822   -9.0569  -16.9234 O   0  0  0  0  0  0  0  0  0  0  0  0
   22.5376   -9.1733  -16.5526 C   0  0  0  0  0  0  0  0  0  0  0  0
   23.7572   -8.3640  -16.8888 C   0  0  2  0  0  0  0  0  0  0  0  0
   24.9420   -9.0239  -16.2579 N   0  0  0  0  0  0  0  0  0  0  0  0
   23.6743   -6.9907  -16.3776 C   0  0  0  0  0  0  0  0  0  0  0  0
   22.7489   -6.0921  -16.8045 O   0  0  0  0  0  0  0  0  0  0  0  0
   24.4981   -6.6141  -15.4982 O   0  0  0  0  0  0  0  0  0  0  0  0
  2  1  1  0
  3  2  1  0
  4  5  1  0
  4  3  1  0
  5  7  1  0
  5  6  1  6
  7  8  2  0
  9 10  1  0
 10 11  2  0
 10 12  1  0
 12 13  1  0
 14 13  1  6
 15 14  1  0
 15  7  1  0
 16 14  1  0
 16 17  2  0
 19 21  1  0
 19 18  1  0
 20 19  2  0
 22 21  1  1
 22 23  1  0
 22 24  1  0
 23 16  1  0
 24 26  2  0
 24 25  1  0
M  END
$$$$
