MQN.pdb
     RDKit          3D

 26 25  0  0  1  0  0  0  0  0999 V2000
   34.4257  -33.6457  -18.5294 C   0  0  0  0  0  0  0  0  0  0  0  0
   33.7808  -33.2236  -20.1485 S   0  0  0  0  0  0  0  0  0  0  0  0
   32.7338  -31.7347  -20.0646 C   0  0  0  0  0  0  0  0  0  0  0  0
   32.1154  -31.6396  -18.7131 C   0  0  0  0  0  0  0  0  0  0  0  0
   30.8723  -30.8055  -18.6941 C   0  0  2  0  0  0  0  0  0  0  0  0
   31.2582  -29.4205  -18.4791 N   0  0  0  0  0  0  0  0  0  0  0  0
   29.8610  -31.2256  -17.7023 C   0  0  0  0  0  0  0  0  0  0  0  0
   29.8193  -30.8662  -16.5101 O   0  0  0  0  0  0  0  0  0  0  0  0
   25.4152  -29.9761  -16.2976 N   0  0  0  0  0  0  0  0  0  0  0  0
   25.8751  -29.7677  -17.6435 C   0  0  0  0  0  0  0  0  0  0  0  0
   25.7884  -28.6222  -18.0995 O   0  0  0  0  0  0  0  0  0  0  0  0
   26.4093  -30.9213  -18.3722 C   0  0  0  0  0  0  0  0  0  0  0  0
   26.4179  -32.1789  -17.5325 C   0  0  0  0  0  0  0  0  0  0  0  0
   27.8262  -32.5831  -17.2035 C   0  0  2  0  0  0  0  0  0  0  0  0
   28.8220  -32.1276  -18.1168 N   0  0  0  0  0  0  0  0  0  0  0  0
   27.9314  -34.0536  -16.9367 C   0  0  0  0  0  0  0  0  0  0  0  0
   28.7488  -34.7495  -17.5776 O   0  0  0  0  0  0  0  0  0  0  0  0
   27.9223  -38.6769  -14.9156 N   0  0  0  0  0  0  0  0  0  0  0  0
   28.9127  -37.6511  -14.7138 C   0  0  0  0  0  0  0  0  0  0  0  0
   29.9807  -38.0450  -14.2139 O   0  0  0  0  0  0  0  0  0  0  0  0
   28.6564  -36.2573  -15.0795 C   0  0  0  0  0  0  0  0  0  0  0  0
   27.2864  -36.0716  -15.6661 C   0  0  2  0  0  0  0  0  0  0  0  0
   27.1008  -34.6175  -15.9635 N   0  0  0  0  0  0  0  0  0  0  0  0
   26.2231  -36.4876  -14.7439 C   0  0  0  0  0  0  0  0  0  0  0  0
   25.7141  -37.7470  -14.7143 O   0  0  0  0  0  0  0  0  0  0  0  0
   25.7499  -35.6426  -13.9341 O   0  0  0  0  0  0  0  0  0  0  0  0
  2  1  1  0
  3  2  1  0
  4  5  1  0
  4  3  1  0
  5  7  1  0
  5  6  1  1
  7  8  2  0
  9 10  1  0
 10 11  2  0
 10 12  1  0
 12 13  1  0
 14 13  1  6
 15 14  1  0
 15  7  1  0
 16 14  1  0
 16 17  2  0
 19 21  1  0
 19 18  1  0
 20 19  2  0
 22 21  1  1
 22 23  1  0
 22 24  1  0
 23 16  1  0
 24 26  2  0
 24 25  1  0
M  END
$$$$
