MQN.pdb
     RDKit          3D

 26 25  0  0  1  0  0  0  0  0999 V2000
   17.0660  -25.2828    3.1675 C   0  0  0  0  0  0  0  0  0  0  0  0
   15.4362  -25.3130    2.4202 S   0  0  0  0  0  0  0  0  0  0  0  0
   14.9779  -23.6657    1.7904 C   0  0  0  0  0  0  0  0  0  0  0  0
   15.9757  -22.6626    2.2552 C   0  0  0  0  0  0  0  0  0  0  0  0
   15.7207  -21.2888    1.7174 C   0  0  2  0  0  0  0  0  0  0  0  0
   15.7706  -21.3530    0.2660 N   0  0  0  0  0  0  0  0  0  0  0  0
   16.6360  -20.2462    2.2256 C   0  0  0  0  0  0  0  0  0  0  0  0
   17.7679  -19.9894    1.7728 O   0  0  0  0  0  0  0  0  0  0  0  0
   15.4393  -14.4683    3.7236 N   0  0  0  0  0  0  0  0  0  0  0  0
   16.8439  -14.5920    4.0037 C   0  0  0  0  0  0  0  0  0  0  0  0
   17.4800  -13.5465    4.1766 O   0  0  0  0  0  0  0  0  0  0  0  0
   17.4153  -15.9400    4.0631 C   0  0  0  0  0  0  0  0  0  0  0  0
   16.3875  -17.0138    3.7853 C   0  0  0  0  0  0  0  0  0  0  0  0
   17.0212  -18.3743    3.8318 C   0  0  2  0  0  0  0  0  0  0  0  0
   16.2140  -19.4416    3.3390 N   0  0  0  0  0  0  0  0  0  0  0  0
   17.5916  -18.6727    5.1846 C   0  0  0  0  0  0  0  0  0  0  0  0
   17.0273  -19.4993    5.9339 O   0  0  0  0  0  0  0  0  0  0  0  0
   20.6145  -18.9771    9.3052 N   0  0  0  0  0  0  0  0  0  0  0  0
   21.3971  -18.8561    8.1022 C   0  0  0  0  0  0  0  0  0  0  0  0
   22.6201  -19.0207    8.2540 O   0  0  0  0  0  0  0  0  0  0  0  0
   20.7747  -18.5618    6.8107 C   0  0  0  0  0  0  0  0  0  0  0  0
   19.2970  -18.3266    6.9381 C   0  0  2  0  0  0  0  0  0  0  0  0
   18.7575  -18.0095    5.5795 N   0  0  0  0  0  0  0  0  0  0  0  0
   18.9855  -17.2005    7.8264 C   0  0  0  0  0  0  0  0  0  0  0  0
   18.4574  -16.0287    7.3856 O   0  0  0  0  0  0  0  0  0  0  0  0
   19.2154  -17.3140    9.0625 O   0  0  0  0  0  0  0  0  0  0  0  0
  2  1  1  0
  3  2  1  0
  4  5  1  0
  4  3  1  0
  5  7  1  0
  5  6  1  6
  7  8  2  0
  9 10  1  0
 10 11  2  0
 10 12  1  0
 12 13  1  0
 14 13  1  1
 15 14  1  0
 15  7  1  0
 16 14  1  0
 16 17  2  0
 19 21  1  0
 19 18  1  0
 20 19  2  0
 22 21  1  6
 22 23  1  0
 22 24  1  0
 23 16  1  0
 24 26  2  0
 24 25  1  0
M  END
$$$$
