MQN.pdb
     RDKit          3D

 26 25  0  0  1  0  0  0  0  0999 V2000
   27.9640  -14.4330  -15.0199 C   0  0  0  0  0  0  0  0  0  0  0  0
   27.0041  -15.9239  -15.2874 S   0  0  0  0  0  0  0  0  0  0  0  0
   25.2914  -15.5197  -15.7604 C   0  0  0  0  0  0  0  0  0  0  0  0
   25.0656  -14.0563  -15.6002 C   0  0  0  0  0  0  0  0  0  0  0  0
   23.6427  -13.6533  -15.8330 C   0  0  2  0  0  0  0  0  0  0  0  0
   23.1369  -14.4083  -16.9677 N   0  0  0  0  0  0  0  0  0  0  0  0
   23.4358  -12.2046  -16.0360 C   0  0  0  0  0  0  0  0  0  0  0  0
   23.7852  -11.3034  -15.2498 O   0  0  0  0  0  0  0  0  0  0  0  0
   22.7815   -9.3053  -21.5751 N   0  0  0  0  0  0  0  0  0  0  0  0
   23.9178   -9.9952  -21.0278 C   0  0  0  0  0  0  0  0  0  0  0  0
   24.8624  -10.2232  -21.7915 O   0  0  0  0  0  0  0  0  0  0  0  0
   23.8732  -10.3756  -19.6134 C   0  0  0  0  0  0  0  0  0  0  0  0
   22.5636  -10.0003  -18.9572 C   0  0  0  0  0  0  0  0  0  0  0  0
   22.5751  -10.3779  -17.5039 C   0  0  2  0  0  0  0  0  0  0  0  0
   22.7761  -11.7636  -17.2341 N   0  0  0  0  0  0  0  0  0  0  0  0
   21.3855   -9.8259  -16.7796 C   0  0  0  0  0  0  0  0  0  0  0  0
   20.2826  -10.4105  -16.8499 O   0  0  0  0  0  0  0  0  0  0  0  0
   18.4527   -8.9688  -12.2517 N   0  0  0  0  0  0  0  0  0  0  0  0
   18.6587   -8.6392  -13.6385 C   0  0  0  0  0  0  0  0  0  0  0  0
   17.7711   -7.9320  -14.1463 O   0  0  0  0  0  0  0  0  0  0  0  0
   19.8335   -9.1131  -14.3715 C   0  0  0  0  0  0  0  0  0  0  0  0
   20.3226   -8.1004  -15.3669 C   0  0  2  0  0  0  0  0  0  0  0  0
   21.5421   -8.6541  -16.0330 N   0  0  0  0  0  0  0  0  0  0  0  0
   20.6871   -6.8270  -14.7347 C   0  0  0  0  0  0  0  0  0  0  0  0
   19.8068   -6.0647  -14.0347 O   0  0  0  0  0  0  0  0  0  0  0  0
   21.8736   -6.4088  -14.8398 O   0  0  0  0  0  0  0  0  0  0  0  0
  2  1  1  0
  3  2  1  0
  4  5  1  0
  4  3  1  0
  5  7  1  0
  5  6  1  6
  7  8  2  0
  9 10  1  0
 10 11  2  0
 10 12  1  0
 12 13  1  0
 14 13  1  6
 15 14  1  0
 15  7  1  0
 16 14  1  0
 16 17  2  0
 19 21  1  0
 19 18  1  0
 20 19  2  0
 22 21  1  1
 22 23  1  0
 22 24  1  0
 23 16  1  0
 24 26  2  0
 24 25  1  0
M  END
$$$$
