LFK.pdb
     RDKit          3D

 29 29  0  0  1  0  0  0  0  0999 V2000
    6.6530  -18.6781   18.6341 C   0  0  0  0  0  0  0  0  0  0  0  0
    7.7963  -19.2942   19.3493 C   0  0  2  0  0  0  0  0  0  0  0  0
    7.4630  -20.6982   19.8547 C   0  0  0  0  0  0  0  0  0  0  0  0
    8.2609  -18.5099   20.5235 C   0  0  0  0  0  0  0  0  0  0  0  0
    8.4764  -17.0785   20.2118 C   0  0  2  0  0  0  0  0  0  0  0  0
    9.2976  -16.7556   19.1008 N   0  0  0  0  0  0  0  0  0  0  0  0
    8.8342  -16.2756   21.4315 C   0  0  0  0  0  0  0  0  0  0  0  0
   10.0454  -16.2306   21.8189 O   0  0  0  0  0  0  0  0  0  0  0  0
    7.8965  -15.5550   22.1909 N   0  0  0  0  0  0  0  0  0  0  0  0
    8.2046  -14.8668   23.4379 C   0  0  1  0  0  0  0  0  0  0  0  0
    7.0250  -13.9943   23.7284 C   0  0  0  0  0  0  0  0  0  0  0  0
    7.0712  -13.2768   25.0102 C   0  0  0  0  0  0  0  0  0  0  0  0
    6.1594  -13.5461   26.0207 C   0  0  0  0  0  0  0  0  0  0  0  0
    6.2092  -12.8778   27.2286 C   0  0  0  0  0  0  0  0  0  0  0  0
    7.1659  -11.9174   27.4785 C   0  0  0  0  0  0  0  0  0  0  0  0
    8.0738  -11.6378   26.4948 C   0  0  0  0  0  0  0  0  0  0  0  0
    8.0165  -12.3127   25.2870 C   0  0  0  0  0  0  0  0  0  0  0  0
    8.3646  -15.8619   24.5289 C   0  0  0  0  0  0  0  0  0  0  0  0
    7.4711  -16.7574   24.7329 O   0  0  0  0  0  0  0  0  0  0  0  0
    9.5073  -15.8120   25.3373 N   0  0  0  0  0  0  0  0  0  0  0  0
    9.7904  -16.8960   26.3703 C   0  0  1  0  0  0  0  0  0  0  0  0
   10.7599  -17.7465   25.6445 C   0  0  0  0  0  0  0  0  0  0  0  0
   11.2605  -18.9969   26.2130 C   0  0  0  0  0  0  0  0  0  0  0  0
   12.1188  -19.8340   25.3495 C   0  0  0  0  0  0  0  0  0  0  0  0
   12.5213  -21.0943   26.0747 C   0  0  0  0  0  0  0  0  0  0  0  0
   13.4238  -21.8386   25.2060 N   0  0  0  0  0  0  0  0  0  0  0  0
   10.1937  -16.2051   27.5789 C   0  0  0  0  0  0  0  0  0  0  0  0
   10.0376  -16.6570   28.8575 O   0  0  0  0  0  0  0  0  0  0  0  0
   10.7487  -15.0465   27.4769 O   0  0  0  0  0  0  0  0  0  0  0  0
  2  3  1  1
  2  1  1  0
  4  2  1  0
  5  4  1  0
  5  6  1  6
  7  5  1  0
  7  8  2  0
  9  7  1  0
 10  9  1  0
 10 11  1  1
 11 12  1  0
 12 17  2  0
 12 13  1  0
 13 14  2  0
 15 14  1  0
 16 15  2  0
 17 16  1  0
 18 10  1  0
 19 18  2  0
 20 18  1  0
 21 22  1  6
 21 20  1  0
 22 23  1  0
 23 24  1  0
 24 25  1  0
 26 25  1  0
 27 28  1  0
 27 21  1  0
 29 27  2  0
M  END
$$$$
