LFK.pdb
     RDKit          3D

 29 29  0  0  1  0  0  0  0  0999 V2000
    7.1960  -19.2809   18.5137 C   0  0  0  0  0  0  0  0  0  0  0  0
    8.6019  -19.3362   18.9814 C   0  0  2  0  0  0  0  0  0  0  0  0
    9.0200  -20.7561   19.3645 C   0  0  0  0  0  0  0  0  0  0  0  0
    8.8755  -18.4713   20.1589 C   0  0  0  0  0  0  0  0  0  0  0  0
    8.5526  -17.0469   19.9153 C   0  0  2  0  0  0  0  0  0  0  0  0
    8.9995  -16.4610   18.7029 N   0  0  0  0  0  0  0  0  0  0  0  0
    8.8542  -16.1807   21.1066 C   0  0  0  0  0  0  0  0  0  0  0  0
   10.0260  -15.7079   21.2569 O   0  0  0  0  0  0  0  0  0  0  0  0
    7.9048  -15.8517   22.0894 N   0  0  0  0  0  0  0  0  0  0  0  0
    8.2079  -15.1152   23.3097 C   0  0  1  0  0  0  0  0  0  0  0  0
    6.9009  -14.5798   23.8022 C   0  0  0  0  0  0  0  0  0  0  0  0
    6.9582  -13.8484   25.0757 C   0  0  0  0  0  0  0  0  0  0  0  0
    6.9753  -14.5171   26.2912 C   0  0  0  0  0  0  0  0  0  0  0  0
    7.0385  -13.8293   27.4875 C   0  0  0  0  0  0  0  0  0  0  0  0
    7.0869  -12.4521   27.5217 C   0  0  0  0  0  0  0  0  0  0  0  0
    7.0711  -11.7747   26.3337 C   0  0  0  0  0  0  0  0  0  0  0  0
    7.0079  -12.4725   25.1393 C   0  0  0  0  0  0  0  0  0  0  0  0
    8.7759  -16.0419   24.3220 C   0  0  0  0  0  0  0  0  0  0  0  0
    8.1632  -17.1228   24.6352 O   0  0  0  0  0  0  0  0  0  0  0  0
    9.9940  -15.7214   24.9345 N   0  0  0  0  0  0  0  0  0  0  0  0
   10.7843  -16.7665   25.7128 C   0  0  1  0  0  0  0  0  0  0  0  0
   11.8952  -17.0506   24.7773 C   0  0  0  0  0  0  0  0  0  0  0  0
   13.1167  -16.2475   24.7693 C   0  0  0  0  0  0  0  0  0  0  0  0
   14.2052  -16.6849   23.8710 C   0  0  0  0  0  0  0  0  0  0  0  0
   15.3354  -15.6856   23.8920 C   0  0  0  0  0  0  0  0  0  0  0  0
   16.4265  -16.2311   23.0951 N   0  0  0  0  0  0  0  0  0  0  0  0
   11.0595  -16.1801   27.0094 C   0  0  0  0  0  0  0  0  0  0  0  0
   10.7191  -14.9219   27.4151 O   0  0  0  0  0  0  0  0  0  0  0  0
   11.6920  -16.8807   27.8869 O   0  0  0  0  0  0  0  0  0  0  0  0
  2  3  1  1
  2  1  1  0
  4  2  1  0
  5  4  1  0
  5  6  1  6
  7  5  1  0
  7  8  2  0
  9  7  1  0
 10  9  1  0
 10 11  1  1
 11 12  1  0
 12 17  2  0
 12 13  1  0
 13 14  2  0
 15 14  1  0
 16 15  2  0
 17 16  1  0
 18 10  1  0
 19 18  2  0
 20 18  1  0
 21 22  1  6
 21 20  1  0
 22 23  1  0
 23 24  1  0
 24 25  1  0
 26 25  1  0
 27 28  1  0
 27 21  1  0
 29 27  2  0
M  END
$$$$
