LFK.pdb
     RDKit          3D

 29 29  0  0  1  0  0  0  0  0999 V2000
    8.1411  -14.3370   18.2271 C   0  0  0  0  0  0  0  0  0  0  0  0
    7.6399  -13.5378   19.3709 C   0  0  2  0  0  0  0  0  0  0  0  0
    7.6681  -12.0381   19.0746 C   0  0  0  0  0  0  0  0  0  0  0  0
    8.4058  -13.7457   20.6278 C   0  0  0  0  0  0  0  0  0  0  0  0
    8.2862  -15.1245   21.1543 C   0  0  2  0  0  0  0  0  0  0  0  0
    7.0630  -15.8125   20.9466 N   0  0  0  0  0  0  0  0  0  0  0  0
    8.7639  -15.2371   22.5754 C   0  0  0  0  0  0  0  0  0  0  0  0
    9.9457  -14.8687   22.8701 O   0  0  0  0  0  0  0  0  0  0  0  0
    7.9728  -15.7352   23.6248 N   0  0  0  0  0  0  0  0  0  0  0  0
    8.4175  -15.8435   25.0083 C   0  0  1  0  0  0  0  0  0  0  0  0
    7.2252  -15.5167   25.8502 C   0  0  0  0  0  0  0  0  0  0  0  0
    7.0645  -14.0965   26.1925 C   0  0  0  0  0  0  0  0  0  0  0  0
    5.8328  -13.4657   26.0929 C   0  0  0  0  0  0  0  0  0  0  0  0
    5.6805  -12.1331   26.4236 C   0  0  0  0  0  0  0  0  0  0  0  0
    6.7452  -11.3772   26.8654 C   0  0  0  0  0  0  0  0  0  0  0  0
    7.9677  -11.9812   26.9705 C   0  0  0  0  0  0  0  0  0  0  0  0
    8.1110  -13.3175   26.6370 C   0  0  0  0  0  0  0  0  0  0  0  0
    8.8508  -17.2372   25.2839 C   0  0  0  0  0  0  0  0  0  0  0  0
    8.0325  -18.2143   25.1513 O   0  0  0  0  0  0  0  0  0  0  0  0
   10.1692  -17.4748   25.6924 N   0  0  0  0  0  0  0  0  0  0  0  0
   10.6818  -18.8923   25.9171 C   0  0  1  0  0  0  0  0  0  0  0  0
   11.7337  -18.9913   24.8808 C   0  0  0  0  0  0  0  0  0  0  0  0
   12.5124  -20.2140   24.6915 C   0  0  0  0  0  0  0  0  0  0  0  0
   13.5162  -20.2129   23.6074 C   0  0  0  0  0  0  0  0  0  0  0  0
   14.3267  -21.4849   23.6424 C   0  0  0  0  0  0  0  0  0  0  0  0
   15.1905  -21.4946   22.4690 N   0  0  0  0  0  0  0  0  0  0  0  0
   11.0355  -18.9750   27.3202 C   0  0  0  0  0  0  0  0  0  0  0  0
   11.2623  -17.9222   28.1590 O   0  0  0  0  0  0  0  0  0  0  0  0
   11.1656  -20.1375   27.8610 O   0  0  0  0  0  0  0  0  0  0  0  0
  2  3  1  6
  2  1  1  0
  4  2  1  0
  5  4  1  0
  5  6  1  1
  7  5  1  0
  7  8  2  0
  9  7  1  0
 10  9  1  0
 10 11  1  1
 11 12  1  0
 12 17  2  0
 12 13  1  0
 13 14  2  0
 15 14  1  0
 16 15  2  0
 17 16  1  0
 18 10  1  0
 19 18  2  0
 20 18  1  0
 21 22  1  6
 21 20  1  0
 22 23  1  0
 23 24  1  0
 24 25  1  0
 26 25  1  0
 27 28  1  0
 27 21  1  0
 29 27  2  0
M  END
$$$$
