LFK.pdb
     RDKit          3D

 29 29  0  0  1  0  0  0  0  0999 V2000
    8.6230  -12.9676   17.2796 C   0  0  0  0  0  0  0  0  0  0  0  0
    8.1997  -13.8599   18.3854 C   0  0  2  0  0  0  0  0  0  0  0  0
    7.3985  -13.1089   19.4493 C   0  0  0  0  0  0  0  0  0  0  0  0
    9.3305  -14.5255   19.0840 C   0  0  0  0  0  0  0  0  0  0  0  0
    8.8880  -15.5928   20.0100 C   0  0  2  0  0  0  0  0  0  0  0  0
    7.6041  -16.1610   19.8058 N   0  0  0  0  0  0  0  0  0  0  0  0
    9.1247  -15.2338   21.4507 C   0  0  0  0  0  0  0  0  0  0  0  0
   10.2766  -14.8352   21.8159 O   0  0  0  0  0  0  0  0  0  0  0  0
    8.1342  -15.3123   22.4447 N   0  0  0  0  0  0  0  0  0  0  0  0
    8.3255  -14.8985   23.8288 C   0  0  1  0  0  0  0  0  0  0  0  0
    7.0185  -14.3197   24.2693 C   0  0  0  0  0  0  0  0  0  0  0  0
    7.0354  -13.6437   25.5742 C   0  0  0  0  0  0  0  0  0  0  0  0
    7.9455  -12.6339   25.8514 C   0  0  0  0  0  0  0  0  0  0  0  0
    7.9548  -11.9925   27.0748 C   0  0  0  0  0  0  0  0  0  0  0  0
    7.0612  -12.3298   28.0687 C   0  0  0  0  0  0  0  0  0  0  0  0
    6.1559  -13.3230   27.8145 C   0  0  0  0  0  0  0  0  0  0  0  0
    6.1537  -13.9603   26.5852 C   0  0  0  0  0  0  0  0  0  0  0  0
    8.6475  -16.0846   24.6628 C   0  0  0  0  0  0  0  0  0  0  0  0
    7.9086  -17.1308   24.6240 O   0  0  0  0  0  0  0  0  0  0  0  0
    9.7723  -16.0488   25.4966 N   0  0  0  0  0  0  0  0  0  0  0  0
   10.2442  -17.2937   26.2381 C   0  0  1  0  0  0  0  0  0  0  0  0
   11.5457  -17.5499   25.5821 C   0  0  0  0  0  0  0  0  0  0  0  0
   11.6290  -18.0705   24.2186 C   0  0  0  0  0  0  0  0  0  0  0  0
   12.9794  -18.3232   23.6747 C   0  0  0  0  0  0  0  0  0  0  0  0
   12.8844  -18.9146   22.2900 C   0  0  0  0  0  0  0  0  0  0  0  0
   14.2274  -18.9436   21.7254 N   0  0  0  0  0  0  0  0  0  0  0  0
   10.1949  -16.9651   27.6489 C   0  0  0  0  0  0  0  0  0  0  0  0
   10.3074  -17.8444   28.6870 O   0  0  0  0  0  0  0  0  0  0  0  0
   10.0210  -15.7360   27.9952 O   0  0  0  0  0  0  0  0  0  0  0  0
  2  3  1  1
  2  1  1  0
  4  2  1  0
  5  4  1  0
  5  6  1  1
  7  5  1  0
  7  8  2  0
  9  7  1  0
 10  9  1  0
 10 11  1  1
 11 12  1  0
 12 17  2  0
 12 13  1  0
 13 14  2  0
 15 14  1  0
 16 15  2  0
 17 16  1  0
 18 10  1  0
 19 18  2  0
 20 18  1  0
 21 22  1  6
 21 20  1  0
 22 23  1  0
 23 24  1  0
 24 25  1  0
 26 25  1  0
 27 28  1  0
 27 21  1  0
 29 27  2  0
M  END
$$$$
