LFK.pdb
     RDKit          3D

 29 29  0  0  1  0  0  0  0  0999 V2000
    8.4602  -14.7101   17.0210 C   0  0  0  0  0  0  0  0  0  0  0  0
    7.9384  -13.7307   18.0042 C   0  0  2  0  0  0  0  0  0  0  0  0
    8.0316  -12.2959   17.4844 C   0  0  0  0  0  0  0  0  0  0  0  0
    8.6418  -13.7638   19.3134 C   0  0  0  0  0  0  0  0  0  0  0  0
    8.4328  -15.0323   20.0480 C   0  0  2  0  0  0  0  0  0  0  0  0
    7.1909  -15.6988   19.8855 N   0  0  0  0  0  0  0  0  0  0  0  0
    8.8338  -14.9285   21.4933 C   0  0  0  0  0  0  0  0  0  0  0  0
   10.0288  -14.6077   21.7904 O   0  0  0  0  0  0  0  0  0  0  0  0
    7.9552  -15.1691   22.5635 N   0  0  0  0  0  0  0  0  0  0  0  0
    8.2907  -14.9550   23.9653 C   0  0  1  0  0  0  0  0  0  0  0  0
    7.0431  -14.4445   24.6135 C   0  0  0  0  0  0  0  0  0  0  0  0
    7.2398  -13.7174   25.8755 C   0  0  0  0  0  0  0  0  0  0  0  0
    6.9940  -12.3551   25.9687 C   0  0  0  0  0  0  0  0  0  0  0  0
    7.1701  -11.6741   27.1575 C   0  0  0  0  0  0  0  0  0  0  0  0
    7.5968  -12.3200   28.2980 C   0  0  0  0  0  0  0  0  0  0  0  0
    7.8443  -13.6631   28.2264 C   0  0  0  0  0  0  0  0  0  0  0  0
    7.6649  -14.3377   27.0305 C   0  0  0  0  0  0  0  0  0  0  0  0
    8.6781  -16.2471   24.5871 C   0  0  0  0  0  0  0  0  0  0  0  0
    8.0216  -17.3177   24.3325 O   0  0  0  0  0  0  0  0  0  0  0  0
    9.7735  -16.2847   25.4591 N   0  0  0  0  0  0  0  0  0  0  0  0
   10.3334  -17.6086   25.9653 C   0  0  1  0  0  0  0  0  0  0  0  0
   11.4119  -17.8647   24.9848 C   0  0  0  0  0  0  0  0  0  0  0  0
   12.3039  -19.0163   25.1079 C   0  0  0  0  0  0  0  0  0  0  0  0
   13.3187  -19.1993   24.0496 C   0  0  0  0  0  0  0  0  0  0  0  0
   14.0378  -20.5126   24.2347 C   0  0  0  0  0  0  0  0  0  0  0  0
   14.8755  -20.7302   23.0624 N   0  0  0  0  0  0  0  0  0  0  0  0
   10.6573  -17.4009   27.3627 C   0  0  0  0  0  0  0  0  0  0  0  0
   10.8624  -16.1976   27.9737 O   0  0  0  0  0  0  0  0  0  0  0  0
   10.7801  -18.4279   28.1316 O   0  0  0  0  0  0  0  0  0  0  0  0
  2  3  1  6
  2  1  1  0
  4  2  1  0
  5  4  1  0
  5  6  1  1
  7  5  1  0
  7  8  2  0
  9  7  1  0
 10  9  1  0
 10 11  1  1
 11 12  1  0
 12 17  2  0
 12 13  1  0
 13 14  2  0
 15 14  1  0
 16 15  2  0
 17 16  1  0
 18 10  1  0
 19 18  2  0
 20 18  1  0
 21 22  1  6
 21 20  1  0
 22 23  1  0
 23 24  1  0
 24 25  1  0
 26 25  1  0
 27 28  1  0
 27 21  1  0
 29 27  2  0
M  END
$$$$
