LFK.pdb
     RDKit          3D

 29 29  0  0  1  0  0  0  0  0999 V2000
    6.3088  -20.8955   19.8935 C   0  0  0  0  0  0  0  0  0  0  0  0
    7.1330  -19.7593   19.4159 C   0  0  2  0  0  0  0  0  0  0  0  0
    8.3013  -20.2275   18.5479 C   0  0  0  0  0  0  0  0  0  0  0  0
    7.7095  -18.9359   20.5110 C   0  0  0  0  0  0  0  0  0  0  0  0
    7.8716  -17.5122   20.1375 C   0  0  2  0  0  0  0  0  0  0  0  0
    8.5543  -17.2145   18.9300 N   0  0  0  0  0  0  0  0  0  0  0  0
    8.3602  -16.6725   21.2850 C   0  0  0  0  0  0  0  0  0  0  0  0
    9.6091  -16.4785   21.4322 O   0  0  0  0  0  0  0  0  0  0  0  0
    7.5081  -16.0739   22.2289 N   0  0  0  0  0  0  0  0  0  0  0  0
    7.9675  -15.3122   23.3831 C   0  0  1  0  0  0  0  0  0  0  0  0
    6.8477  -14.3856   23.7364 C   0  0  0  0  0  0  0  0  0  0  0  0
    7.0620  -13.5661   24.9375 C   0  0  0  0  0  0  0  0  0  0  0  0
    6.2993  -13.7504   26.0817 C   0  0  0  0  0  0  0  0  0  0  0  0
    6.5073  -12.9860   27.2133 C   0  0  0  0  0  0  0  0  0  0  0  0
    7.4802  -12.0102   27.2512 C   0  0  0  0  0  0  0  0  0  0  0  0
    8.2427  -11.8134   26.1331 C   0  0  0  0  0  0  0  0  0  0  0  0
    8.0272  -12.5844   25.0033 C   0  0  0  0  0  0  0  0  0  0  0  0
    8.2230  -16.2350   24.5185 C   0  0  0  0  0  0  0  0  0  0  0  0
    7.3110  -17.0373   24.9266 O   0  0  0  0  0  0  0  0  0  0  0  0
    9.4767  -16.2200   25.1426 N   0  0  0  0  0  0  0  0  0  0  0  0
    9.8303  -17.2313   26.2265 C   0  0  1  0  0  0  0  0  0  0  0  0
   10.9339  -17.9776   25.5822 C   0  0  0  0  0  0  0  0  0  0  0  0
   10.7048  -18.8373   24.4222 C   0  0  0  0  0  0  0  0  0  0  0  0
   11.2838  -20.1960   24.4651 C   0  0  0  0  0  0  0  0  0  0  0  0
   10.9169  -20.9617   23.2180 C   0  0  0  0  0  0  0  0  0  0  0  0
   12.0467  -20.8863   22.3010 N   0  0  0  0  0  0  0  0  0  0  0  0
   10.0798  -16.4620   27.4292 C   0  0  0  0  0  0  0  0  0  0  0  0
    9.9752  -16.9141   28.7130 O   0  0  0  0  0  0  0  0  0  0  0  0
   10.4275  -15.2262   27.3158 O   0  0  0  0  0  0  0  0  0  0  0  0
  2  3  1  1
  2  1  1  0
  4  2  1  0
  5  4  1  0
  5  6  1  6
  7  5  1  0
  7  8  2  0
  9  7  1  0
 10  9  1  0
 10 11  1  1
 11 12  1  0
 12 17  2  0
 12 13  1  0
 13 14  2  0
 15 14  1  0
 16 15  2  0
 17 16  1  0
 18 10  1  0
 19 18  2  0
 20 18  1  0
 21 22  1  6
 21 20  1  0
 22 23  1  0
 23 24  1  0
 24 25  1  0
 26 25  1  0
 27 28  1  0
 27 21  1  0
 29 27  2  0
M  END
$$$$
