LFK.pdb
     RDKit          3D

 29 29  0  0  1  0  0  0  0  0999 V2000
    6.9904  -19.3141   18.8464 C   0  0  0  0  0  0  0  0  0  0  0  0
    8.4233  -19.4726   19.1928 C   0  0  2  0  0  0  0  0  0  0  0  0
    8.7419  -20.8910   19.6665 C   0  0  0  0  0  0  0  0  0  0  0  0
    8.8879  -18.5454   20.2578 C   0  0  0  0  0  0  0  0  0  0  0  0
    8.5793  -17.1276   19.9625 C   0  0  2  0  0  0  0  0  0  0  0  0
    9.0420  -16.5875   18.7349 N   0  0  0  0  0  0  0  0  0  0  0  0
    8.8777  -16.2235   21.1262 C   0  0  0  0  0  0  0  0  0  0  0  0
   10.0578  -15.7749   21.2845 O   0  0  0  0  0  0  0  0  0  0  0  0
    7.9163  -15.8326   22.0739 N   0  0  0  0  0  0  0  0  0  0  0  0
    8.2004  -15.0022   23.2372 C   0  0  1  0  0  0  0  0  0  0  0  0
    6.8800  -14.4674   23.6931 C   0  0  0  0  0  0  0  0  0  0  0  0
    6.9177  -13.6506   24.9143 C   0  0  0  0  0  0  0  0  0  0  0  0
    7.5099  -12.3961   24.9248 C   0  0  0  0  0  0  0  0  0  0  0  0
    7.5368  -11.6250   26.0707 C   0  0  0  0  0  0  0  0  0  0  0  0
    6.9767  -12.0707   27.2487 C   0  0  0  0  0  0  0  0  0  0  0  0
    6.3879  -13.3050   27.2585 C   0  0  0  0  0  0  0  0  0  0  0  0
    6.3655  -14.0710   26.1051 C   0  0  0  0  0  0  0  0  0  0  0  0
    8.7935  -15.8381   24.3122 C   0  0  0  0  0  0  0  0  0  0  0  0
    8.1968  -16.8954   24.7222 O   0  0  0  0  0  0  0  0  0  0  0  0
   10.0174  -15.4577   24.8770 N   0  0  0  0  0  0  0  0  0  0  0  0
   10.7927  -16.4017   25.7883 C   0  0  1  0  0  0  0  0  0  0  0  0
   12.1855  -16.1457   25.3587 C   0  0  0  0  0  0  0  0  0  0  0  0
   13.3079  -16.9134   25.8952 C   0  0  0  0  0  0  0  0  0  0  0  0
   14.6354  -16.6793   25.2901 C   0  0  0  0  0  0  0  0  0  0  0  0
   15.6417  -17.6603   25.8388 C   0  0  0  0  0  0  0  0  0  0  0  0
   16.8732  -17.5085   25.0749 N   0  0  0  0  0  0  0  0  0  0  0  0
   10.3806  -16.0844   27.1411 C   0  0  0  0  0  0  0  0  0  0  0  0
    9.9411  -14.8716   27.5877 O   0  0  0  0  0  0  0  0  0  0  0  0
   10.4280  -17.0084   28.0383 O   0  0  0  0  0  0  0  0  0  0  0  0
  2  3  1  1
  2  1  1  0
  4  2  1  0
  5  4  1  0
  5  6  1  6
  7  5  1  0
  7  8  2  0
  9  7  1  0
 10  9  1  0
 10 11  1  1
 11 12  1  0
 12 17  2  0
 12 13  1  0
 13 14  2  0
 15 14  1  0
 16 15  2  0
 17 16  1  0
 18 10  1  0
 19 18  2  0
 20 18  1  0
 21 22  1  1
 21 20  1  0
 22 23  1  0
 23 24  1  0
 24 25  1  0
 26 25  1  0
 27 28  1  0
 27 21  1  0
 29 27  2  0
M  END
$$$$
