VCI.pdb
     RDKit          3D

 22 21  0  0  1  0  0  0  0  0999 V2000
   17.4127  -16.2420  -17.7851 C   0  0  0  0  0  0  0  0  0  0  0  0
   17.5670  -14.7549  -17.8584 C   0  0  2  0  0  0  0  0  0  0  0  0
   19.0093  -14.3635  -17.6719 C   0  0  0  0  0  0  0  0  0  0  0  0
   16.7182  -14.0246  -16.8423 C   0  0  2  0  0  0  0  0  0  0  0  0
   15.3305  -14.3556  -17.0768 N   0  0  0  0  0  0  0  0  0  0  0  0
   16.8820  -12.5648  -16.9180 C   0  0  0  0  0  0  0  0  0  0  0  0
   16.2253  -11.8721  -17.7678 O   0  0  0  0  0  0  0  0  0  0  0  0
   17.7580  -11.8242  -16.0776 N   0  0  0  0  0  0  0  0  0  0  0  0
   17.9202  -10.3875  -16.1688 C   0  0  1  0  0  0  0  0  0  0  0  0
   16.5782   -9.7675  -15.8277 C   0  0  0  0  0  0  0  0  0  0  0  0
   16.7276   -7.9729  -15.7245 S   0  0  0  0  0  0  0  0  0  0  0  0
   18.9417   -9.8887  -15.1959 C   0  0  0  0  0  0  0  0  0  0  0  0
   18.8811  -10.3596  -14.0303 O   0  0  0  0  0  0  0  0  0  0  0  0
   24.4088  -10.6209  -14.4626 C   0  0  0  0  0  0  0  0  0  0  0  0
   23.3551   -9.6006  -14.0956 C   0  0  0  0  0  0  0  0  0  0  0  0
   22.1976   -9.7071  -15.0671 C   0  0  2  0  0  0  0  0  0  0  0  0
   22.6359   -9.3343  -16.4664 C   0  0  0  0  0  0  0  0  0  0  0  0
   21.0663   -8.7792  -14.6933 C   0  0  2  0  0  0  0  0  0  0  0  0
   19.9263   -8.9364  -15.5654 N   0  0  0  0  0  0  0  0  0  0  0  0
   21.5563   -7.3855  -14.8311 C   0  0  0  0  0  0  0  0  0  0  0  0
   21.2213   -6.6431  -15.7949 O   0  0  0  0  0  0  0  0  0  0  0  0
   22.4247   -6.9013  -13.8361 O   0  0  0  0  0  0  0  0  0  0  0  0
  2  1  1  1
  2  4  1  0
  2  3  1  0
  4  5  1  6
  6  4  1  0
  7  6  2  0
  8  6  1  0
  9 12  1  0
  9  8  1  0
  9 10  1  1
 11 10  1  0
 12 19  1  0
 13 12  2  0
 15 14  1  0
 16 17  1  6
 16 15  1  0
 18 16  1  0
 18 19  1  6
 20 22  1  0
 20 18  1  0
 21 20  2  0
M  END
$$$$
