VCI.pdb
     RDKit          3D

 22 21  0  0  1  0  0  0  0  0999 V2000
   21.3787  -20.6109  -13.0930 C   0  0  0  0  0  0  0  0  0  0  0  0
   22.5246  -21.0522  -12.2370 C   0  0  2  0  0  0  0  0  0  0  0  0
   22.4230  -20.4434  -10.8632 C   0  0  0  0  0  0  0  0  0  0  0  0
   23.8709  -20.7101  -12.8341 C   0  0  2  0  0  0  0  0  0  0  0  0
   23.9605  -21.3119  -14.1456 N   0  0  0  0  0  0  0  0  0  0  0  0
   24.9902  -21.1902  -12.0092 C   0  0  0  0  0  0  0  0  0  0  0  0
   25.1717  -22.4392  -11.8089 O   0  0  0  0  0  0  0  0  0  0  0  0
   25.9356  -20.3310  -11.3845 N   0  0  0  0  0  0  0  0  0  0  0  0
   26.9678  -20.8058  -10.4857 C   0  0  1  0  0  0  0  0  0  0  0  0
   28.3016  -20.4824  -11.1324 C   0  0  0  0  0  0  0  0  0  0  0  0
   29.6524  -21.1724  -10.1563 S   0  0  0  0  0  0  0  0  0  0  0  0
   26.8974  -20.1182   -9.1587 C   0  0  0  0  0  0  0  0  0  0  0  0
   26.3954  -18.9641   -9.1524 O   0  0  0  0  0  0  0  0  0  0  0  0
   28.4221  -20.7121   -3.1671 C   0  0  0  0  0  0  0  0  0  0  0  0
   27.8351  -19.9043   -4.3024 C   0  0  0  0  0  0  0  0  0  0  0  0
   27.9185  -20.7094   -5.5829 C   0  0  2  0  0  0  0  0  0  0  0  0
   29.3541  -21.0679   -5.8985 C   0  0  0  0  0  0  0  0  0  0  0  0
   27.3826  -19.9374   -6.7650 C   0  0  2  0  0  0  0  0  0  0  0  0
   27.3703  -20.7322   -7.9704 N   0  0  0  0  0  0  0  0  0  0  0  0
   28.2778  -18.7765   -6.9942 C   0  0  0  0  0  0  0  0  0  0  0  0
   29.2206  -18.8046   -7.8324 O   0  0  0  0  0  0  0  0  0  0  0  0
   28.0430  -17.6159   -6.2349 O   0  0  0  0  0  0  0  0  0  0  0  0
  2  1  1  6
  2  4  1  0
  2  3  1  0
  4  5  1  6
  6  4  1  0
  7  6  2  0
  8  6  1  0
  9 12  1  0
  9  8  1  0
  9 10  1  6
 11 10  1  0
 12 19  1  0
 13 12  2  0
 15 14  1  0
 16 17  1  6
 16 15  1  0
 18 16  1  0
 18 19  1  6
 20 22  1  0
 20 18  1  0
 21 20  2  0
M  END
$$$$
