VCI.pdb
     RDKit          3D

 22 21  0  0  1  0  0  0  0  0999 V2000
   11.7618  -13.8995  -12.6030 C   0  0  0  0  0  0  0  0  0  0  0  0
   12.8269  -13.0294  -12.0123 C   0  0  2  0  0  0  0  0  0  0  0  0
   12.2872  -11.6523  -11.7286 C   0  0  0  0  0  0  0  0  0  0  0  0
   14.0483  -12.9125  -12.8957 C   0  0  2  0  0  0  0  0  0  0  0  0
   14.5987  -14.2338  -13.0996 N   0  0  0  0  0  0  0  0  0  0  0  0
   15.0843  -12.0470  -12.3114 C   0  0  0  0  0  0  0  0  0  0  0  0
   15.8696  -12.4824  -11.4022 O   0  0  0  0  0  0  0  0  0  0  0  0
   15.2925  -10.6943  -12.6973 N   0  0  0  0  0  0  0  0  0  0  0  0
   16.2808   -9.8348  -12.0783 C   0  0  1  0  0  0  0  0  0  0  0  0
   17.2798   -9.4598  -13.1568 C   0  0  0  0  0  0  0  0  0  0  0  0
   18.4837   -8.2824  -12.5104 S   0  0  0  0  0  0  0  0  0  0  0  0
   15.6597   -8.5837  -11.5418 C   0  0  0  0  0  0  0  0  0  0  0  0
   14.8339   -8.0025  -12.2929 O   0  0  0  0  0  0  0  0  0  0  0  0
   12.4106   -6.0462   -7.5565 C   0  0  0  0  0  0  0  0  0  0  0  0
   13.6502   -5.7616   -8.3741 C   0  0  0  0  0  0  0  0  0  0  0  0
   14.2160   -7.0674   -8.8934 C   0  0  2  0  0  0  0  0  0  0  0  0
   14.7446   -7.9131   -7.7557 C   0  0  0  0  0  0  0  0  0  0  0  0
   15.3634   -6.8394   -9.8485 C   0  0  2  0  0  0  0  0  0  0  0  0
   15.9830   -8.0782  -10.2562 N   0  0  0  0  0  0  0  0  0  0  0  0
   16.3871   -6.0282   -9.1447 C   0  0  0  0  0  0  0  0  0  0  0  0
   17.4947   -6.5081   -8.7770 O   0  0  0  0  0  0  0  0  0  0  0  0
   16.0842   -4.6780   -8.8917 O   0  0  0  0  0  0  0  0  0  0  0  0
  2  1  1  6
  2  4  1  0
  2  3  1  0
  4  5  1  1
  6  4  1  0
  7  6  2  0
  8  6  1  0
  9 12  1  0
  9  8  1  0
  9 10  1  6
 11 10  1  0
 12 19  1  0
 13 12  2  0
 15 14  1  0
 16 17  1  1
 16 15  1  0
 18 16  1  0
 18 19  1  1
 20 22  1  0
 20 18  1  0
 21 20  2  0
M  END
$$$$
