VCI.pdb
     RDKit          3D

 22 21  0  0  1  0  0  0  0  0999 V2000
   18.8202  -12.2217  -20.3074 C   0  0  0  0  0  0  0  0  0  0  0  0
   19.3700  -11.4741  -19.1329 C   0  0  2  0  0  0  0  0  0  0  0  0
   19.5917  -10.0265  -19.4847 C   0  0  0  0  0  0  0  0  0  0  0  0
   20.6619  -12.0629  -18.6129 C   0  0  2  0  0  0  0  0  0  0  0  0
   20.4233  -13.4378  -18.2351 N   0  0  0  0  0  0  0  0  0  0  0  0
   21.1857  -11.3304  -17.4498 C   0  0  0  0  0  0  0  0  0  0  0  0
   20.6200  -11.4186  -16.3073 O   0  0  0  0  0  0  0  0  0  0  0  0
   22.3307  -10.4884  -17.4975 N   0  0  0  0  0  0  0  0  0  0  0  0
   22.8541   -9.7931  -16.3394 C   0  0  1  0  0  0  0  0  0  0  0  0
   24.3491  -10.0492  -16.3069 C   0  0  0  0  0  0  0  0  0  0  0  0
   24.6932  -11.6403  -15.5301 S   0  0  0  0  0  0  0  0  0  0  0  0
   22.6207   -8.3182  -16.4342 C   0  0  0  0  0  0  0  0  0  0  0  0
   22.6890   -7.8137  -17.5852 O   0  0  0  0  0  0  0  0  0  0  0  0
   19.0030   -4.2916  -16.8724 C   0  0  0  0  0  0  0  0  0  0  0  0
   20.3542   -4.4332  -16.2089 C   0  0  0  0  0  0  0  0  0  0  0  0
   20.6313   -5.8997  -15.9492 C   0  0  2  0  0  0  0  0  0  0  0  0
   19.7252   -6.4322  -14.8608 C   0  0  0  0  0  0  0  0  0  0  0  0
   22.0535   -6.1285  -15.4955 C   0  0  2  0  0  0  0  0  0  0  0  0
   22.3375   -7.5291  -15.2896 N   0  0  0  0  0  0  0  0  0  0  0  0
   22.2351   -5.4316  -14.1983 C   0  0  0  0  0  0  0  0  0  0  0  0
   22.1736   -6.0352  -13.0919 O   0  0  0  0  0  0  0  0  0  0  0  0
   22.4837   -4.0475  -14.2341 O   0  0  0  0  0  0  0  0  0  0  0  0
  2  1  1  6
  2  4  1  0
  2  3  1  0
  4  5  1  1
  6  4  1  0
  7  6  2  0
  8  6  1  0
  9 12  1  0
  9  8  1  0
  9 10  1  6
 11 10  1  0
 12 19  1  0
 13 12  2  0
 15 14  1  0
 16 17  1  1
 16 15  1  0
 18 16  1  0
 18 19  1  1
 20 22  1  0
 20 18  1  0
 21 20  2  0
M  END
$$$$
