VCI.pdb
     RDKit          3D

 22 21  0  0  1  0  0  0  0  0999 V2000
   23.6014  -20.0801  -16.4529 C   0  0  0  0  0  0  0  0  0  0  0  0
   25.0796  -19.9223  -16.6273 C   0  0  2  0  0  0  0  0  0  0  0  0
   25.7365  -21.2652  -16.8096 C   0  0  0  0  0  0  0  0  0  0  0  0
   25.7348  -19.2012  -15.4711 C   0  0  2  0  0  0  0  0  0  0  0  0
   25.5270  -19.9746  -14.2674 N   0  0  0  0  0  0  0  0  0  0  0  0
   25.1917  -17.8488  -15.2714 C   0  0  0  0  0  0  0  0  0  0  0  0
   24.2525  -17.6343  -14.4316 O   0  0  0  0  0  0  0  0  0  0  0  0
   25.6519  -16.7016  -15.9744 N   0  0  0  0  0  0  0  0  0  0  0  0
   25.0174  -15.4029  -15.8771 C   0  0  1  0  0  0  0  0  0  0  0  0
   26.1053  -14.3628  -16.0677 C   0  0  0  0  0  0  0  0  0  0  0  0
   27.0436  -14.1537  -14.5415 S   0  0  0  0  0  0  0  0  0  0  0  0
   23.9828  -15.2175  -16.9420 C   0  0  0  0  0  0  0  0  0  0  0  0
   24.2298  -15.7415  -18.0593 O   0  0  0  0  0  0  0  0  0  0  0  0
   18.5018  -14.8154  -16.0410 C   0  0  0  0  0  0  0  0  0  0  0  0
   19.7994  -15.2447  -16.6874 C   0  0  0  0  0  0  0  0  0  0  0  0
   20.4604  -14.0409  -17.3269 C   0  0  2  0  0  0  0  0  0  0  0  0
   19.6735  -13.5738  -18.5318 C   0  0  0  0  0  0  0  0  0  0  0  0
   21.8579  -14.3576  -17.8038 C   0  0  2  0  0  0  0  0  0  0  0  0
   22.7872  -14.4908  -16.7069 N   0  0  0  0  0  0  0  0  0  0  0  0
   22.3151  -13.2307  -18.6538 C   0  0  0  0  0  0  0  0  0  0  0  0
   22.2154  -13.2485  -19.9116 O   0  0  0  0  0  0  0  0  0  0  0  0
   22.8761  -12.1151  -18.0061 O   0  0  0  0  0  0  0  0  0  0  0  0
  2  1  1  1
  2  4  1  0
  2  3  1  0
  4  5  1  1
  6  4  1  0
  7  6  2  0
  8  6  1  0
  9 12  1  0
  9  8  1  0
  9 10  1  6
 11 10  1  0
 12 19  1  0
 13 12  2  0
 15 14  1  0
 16 17  1  6
 16 15  1  0
 18 16  1  0
 18 19  1  1
 20 22  1  0
 20 18  1  0
 21 20  2  0
M  END
$$$$
