VCI.pdb
     RDKit          3D

 22 21  0  0  1  0  0  0  0  0999 V2000
   23.3756  -15.8316  -16.6127 C   0  0  0  0  0  0  0  0  0  0  0  0
   23.3820  -16.7208  -15.4087 C   0  0  2  0  0  0  0  0  0  0  0  0
   24.6203  -16.4851  -14.5843 C   0  0  0  0  0  0  0  0  0  0  0  0
   23.2910  -18.1884  -15.7606 C   0  0  2  0  0  0  0  0  0  0  0  0
   22.0544  -18.4161  -16.4742 N   0  0  0  0  0  0  0  0  0  0  0  0
   23.3249  -19.0548  -14.5724 C   0  0  0  0  0  0  0  0  0  0  0  0
   22.3273  -19.1192  -13.7763 O   0  0  0  0  0  0  0  0  0  0  0  0
   24.4366  -19.8687  -14.2204 N   0  0  0  0  0  0  0  0  0  0  0  0
   24.4876  -20.6635  -13.0103 C   0  0  1  0  0  0  0  0  0  0  0  0
   24.6745  -22.1076  -13.4361 C   0  0  0  0  0  0  0  0  0  0  0  0
   26.2641  -22.3139  -14.2632 S   0  0  0  0  0  0  0  0  0  0  0  0
   25.6389  -20.2653  -12.1415 C   0  0  0  0  0  0  0  0  0  0  0  0
   26.5561  -19.6054  -12.6958 O   0  0  0  0  0  0  0  0  0  0  0  0
   27.3359  -18.9450   -6.4472 C   0  0  0  0  0  0  0  0  0  0  0  0
   27.7565  -19.4035   -7.8252 C   0  0  0  0  0  0  0  0  0  0  0  0
   26.5379  -19.8887   -8.5832 C   0  0  2  0  0  0  0  0  0  0  0  0
   25.9864  -21.1522   -7.9598 C   0  0  0  0  0  0  0  0  0  0  0  0
   26.8651  -20.2089  -10.0223 C   0  0  2  0  0  0  0  0  0  0  0  0
   25.6954  -20.6118  -10.7669 N   0  0  0  0  0  0  0  0  0  0  0  0
   27.8226  -21.3423  -10.0301 C   0  0  0  0  0  0  0  0  0  0  0  0
   29.0534  -21.1895   -9.7976 O   0  0  0  0  0  0  0  0  0  0  0  0
   27.3109  -22.6224  -10.3099 O   0  0  0  0  0  0  0  0  0  0  0  0
  2  1  1  6
  2  4  1  0
  2  3  1  0
  4  5  1  1
  6  4  1  0
  7  6  2  0
  8  6  1  0
  9 12  1  0
  9  8  1  0
  9 10  1  6
 11 10  1  0
 12 19  1  0
 13 12  2  0
 15 14  1  0
 16 17  1  1
 16 15  1  0
 18 16  1  0
 18 19  1  6
 20 22  1  0
 20 18  1  0
 21 20  2  0
M  END
$$$$
