VCI.pdb
     RDKit          3D

 22 21  0  0  1  0  0  0  0  0999 V2000
   28.4027  -17.7804  -16.5358 C   0  0  0  0  0  0  0  0  0  0  0  0
   27.3877  -18.5767  -15.7768 C   0  0  2  0  0  0  0  0  0  0  0  0
   26.6022  -17.6858  -14.8507 C   0  0  0  0  0  0  0  0  0  0  0  0
   28.0016  -19.7050  -14.9793 C   0  0  2  0  0  0  0  0  0  0  0  0
   28.6503  -20.6172  -15.8943 N   0  0  0  0  0  0  0  0  0  0  0  0
   27.0035  -20.4452  -14.1920 C   0  0  0  0  0  0  0  0  0  0  0  0
   26.1289  -21.1812  -14.7634 O   0  0  0  0  0  0  0  0  0  0  0  0
   26.9302  -20.4051  -12.7725 N   0  0  0  0  0  0  0  0  0  0  0  0
   25.8667  -21.0316  -12.0141 C   0  0  1  0  0  0  0  0  0  0  0  0
   26.1869  -20.8227  -10.5459 C   0  0  0  0  0  0  0  0  0  0  0  0
   24.8073  -21.3716   -9.5217 S   0  0  0  0  0  0  0  0  0  0  0  0
   24.5403  -20.4059  -12.3109 C   0  0  0  0  0  0  0  0  0  0  0  0
   24.4451  -19.1690  -12.0987 O   0  0  0  0  0  0  0  0  0  0  0  0
   23.0232  -20.1380  -16.5941 C   0  0  0  0  0  0  0  0  0  0  0  0
   22.7661  -19.5173  -15.2397 C   0  0  0  0  0  0  0  0  0  0  0  0
   21.8120  -20.3986  -14.4599 C   0  0  2  0  0  0  0  0  0  0  0  0
   20.4028  -19.8518  -14.5242 C   0  0  0  0  0  0  0  0  0  0  0  0
   22.1915  -20.4797  -13.0004 C   0  0  2  0  0  0  0  0  0  0  0  0
   23.4477  -21.1643  -12.8049 N   0  0  0  0  0  0  0  0  0  0  0  0
   21.1375  -21.2528  -12.2984 C   0  0  0  0  0  0  0  0  0  0  0  0
   21.1851  -22.5082  -12.1801 O   0  0  0  0  0  0  0  0  0  0  0  0
   20.0579  -20.5332  -11.7548 O   0  0  0  0  0  0  0  0  0  0  0  0
  2  1  1  1
  2  4  1  0
  2  3  1  0
  4  5  1  6
  6  4  1  0
  7  6  2  0
  8  6  1  0
  9 12  1  0
  9  8  1  0
  9 10  1  1
 11 10  1  0
 12 19  1  0
 13 12  2  0
 15 14  1  0
 16 17  1  1
 16 15  1  0
 18 16  1  0
 18 19  1  6
 20 22  1  0
 20 18  1  0
 21 20  2  0
M  END
$$$$
