RNI.pdb
     RDKit          3D

 28 27  0  0  1  0  0  0  0  0999 V2000
   23.4635  -20.2426  -17.5116 N   0  0  0  0  0  0  0  0  0  0  0  0
   23.2267  -18.8653  -17.7499 C   0  0  0  0  0  0  0  0  0  0  0  0
   22.9264  -18.4509  -18.9318 N   0  0  0  0  0  0  0  0  0  0  0  0
   23.3271  -17.9508  -16.6614 N   0  0  0  0  0  0  0  0  0  0  0  0
   23.3360  -18.3988  -15.2962 C   0  0  0  0  0  0  0  0  0  0  0  0
   21.9424  -18.4060  -14.6808 C   0  0  0  0  0  0  0  0  0  0  0  0
   22.0088  -19.2949  -13.4617 C   0  0  0  0  0  0  0  0  0  0  0  0
   23.0696  -18.8614  -12.4912 C   0  0  2  0  0  0  0  0  0  0  0  0
   24.0209  -17.9864  -13.1221 N   0  0  0  0  0  0  0  0  0  0  0  0
   23.7306  -20.1151  -11.9808 C   0  0  0  0  0  0  0  0  0  0  0  0
   23.0183  -21.0113  -11.4574 O   0  0  0  0  0  0  0  0  0  0  0  0
   22.7535  -17.4645  -19.1765 N   0  0  0  0  0  0  0  0  0  0  0  0
   25.0468  -23.9910  -13.6363 C   0  0  0  0  0  0  0  0  0  0  0  0
   25.7077  -22.7213  -13.7090 O   0  0  0  0  0  0  0  0  0  0  0  0
   25.5731  -22.0730  -14.7568 C   0  0  0  0  0  0  0  0  0  0  0  0
   26.5165  -22.1955  -12.5942 C   0  0  2  0  0  0  0  0  0  0  0  0
   25.6736  -21.5531  -11.5379 N   0  0  0  0  0  0  0  0  0  0  0  0
   25.1164  -20.3223  -12.0672 C   0  0  0  0  0  0  0  0  0  0  0  0
   26.5160  -21.1874  -10.3426 O   0  0  0  0  0  0  0  0  0  0  0  0
   27.6635  -20.7230  -10.4709 C   0  0  0  0  0  0  0  0  0  0  0  0
   28.5007  -18.2282   -6.1603 C   0  0  0  0  0  0  0  0  0  0  0  0
   28.3127  -19.6773   -6.5253 C   0  0  2  0  0  0  0  0  0  0  0  0
   27.3988  -19.7766   -7.7548 C   0  0  0  0  0  0  0  0  0  0  0  0
   26.2332  -18.8541   -7.4646 C   0  0  2  0  0  0  0  0  0  0  0  0
   26.8596  -21.1729   -7.9047 N   0  0  0  0  0  0  0  0  0  0  0  0
   26.0197  -21.3638   -9.0349 C   0  0  0  0  0  0  0  0  0  0  0  0
   26.1073  -21.5101   -6.6877 O   0  0  0  0  0  0  0  0  0  0  0  0
   24.7567  -21.7321   -6.7480 O   0  0  0  0  0  0  0  0  0  0  0  0
  2  3  2  0
  2  1  1  0
  4  2  1  0
  5  4  1  0
  6  5  1  0
  7  6  1  0
  8  7  1  0
  8  9  1  6
 10 17  1  0
 10  8  1  0
 11 10  2  0
 13 12  1  0
 13 14  2  0
 16 15  1  6
 15 13  1  0
 16 17  1  0
 18 19  2  0
 18 16  1  0
 20 21  1  0
 21 22  1  0
 22 23  1  6
 24 22  1  0
 24 25  1  1
 25 18  1  0
 26 24  1  0
 27 26  1  0
 28 26  2  0
M  END
$$$$
