RNI.pdb
     RDKit          3D

 28 27  0  0  1  0  0  0  0  0999 V2000
   31.9307  -23.3693  -20.1905 N   0  0  0  0  0  0  0  0  0  0  0  0
   32.5090  -22.2822  -20.8930 C   0  0  0  0  0  0  0  0  0  0  0  0
   33.0601  -22.4685  -22.0421 N   0  0  0  0  0  0  0  0  0  0  0  0
   32.4701  -20.9840  -20.3062 N   0  0  0  0  0  0  0  0  0  0  0  0
   31.3999  -20.5792  -19.4371 C   0  0  0  0  0  0  0  0  0  0  0  0
   30.0287  -20.8517  -20.0425 C   0  0  0  0  0  0  0  0  0  0  0  0
   29.0105  -20.2468  -19.1056 C   0  0  0  0  0  0  0  0  0  0  0  0
   28.5904  -21.1974  -18.0216 C   0  0  2  0  0  0  0  0  0  0  0  0
   28.1841  -22.4624  -18.5724 N   0  0  0  0  0  0  0  0  0  0  0  0
   27.4618  -20.5350  -17.2755 C   0  0  0  0  0  0  0  0  0  0  0  0
   27.6362  -19.3815  -16.8028 O   0  0  0  0  0  0  0  0  0  0  0  0
   33.5071  -21.7263  -22.6007 N   0  0  0  0  0  0  0  0  0  0  0  0
   22.4317  -18.4690  -16.5164 C   0  0  0  0  0  0  0  0  0  0  0  0
   22.7950  -19.8538  -16.4494 O   0  0  0  0  0  0  0  0  0  0  0  0
   22.0965  -20.5878  -15.7355 C   0  0  0  0  0  0  0  0  0  0  0  0
   23.9472  -20.3969  -17.1915 C   0  0  1  0  0  0  0  0  0  0  0  0
   25.1855  -20.4504  -16.3531 N   0  0  0  0  0  0  0  0  0  0  0  0
   26.2180  -21.1583  -17.0868 C   0  0  0  0  0  0  0  0  0  0  0  0
   24.9284  -21.2208  -15.0832 O   0  0  0  0  0  0  0  0  0  0  0  0
   24.8621  -22.4635  -15.0764 C   0  0  0  0  0  0  0  0  0  0  0  0
   25.7265  -20.9551   -9.0883 C   0  0  0  0  0  0  0  0  0  0  0  0
   25.1715  -21.7057  -10.2703 C   0  0  2  0  0  0  0  0  0  0  0  0
   25.5392  -20.9619  -11.5619 C   0  0  0  0  0  0  0  0  0  0  0  0
   25.4248  -19.4899  -11.2245 C   0  0  2  0  0  0  0  0  0  0  0  0
   24.5476  -21.2668  -12.6513 N   0  0  0  0  0  0  0  0  0  0  0  0
   24.7550  -20.5455  -13.8579 C   0  0  0  0  0  0  0  0  0  0  0  0
   23.1997  -20.9724  -12.1440 O   0  0  0  0  0  0  0  0  0  0  0  0
   22.6019  -21.8109  -11.2404 O   0  0  0  0  0  0  0  0  0  0  0  0
  2  3  2  0
  2  1  1  0
  4  2  1  0
  5  4  1  0
  6  5  1  0
  7  6  1  0
  8  7  1  0
  8  9  1  6
 10 17  1  0
 10  8  1  0
 11 10  2  0
 13 12  1  0
 13 14  2  0
 16 15  1  6
 15 13  1  0
 16 17  1  0
 18 19  2  0
 18 16  1  0
 20 21  1  0
 21 22  1  0
 22 23  1  6
 24 22  1  0
 24 25  1  1
 25 18  1  0
 26 24  1  0
 27 26  1  0
 28 26  2  0
M  END
$$$$
