RNI.pdb
     RDKit          3D

 28 27  0  0  1  0  0  0  0  0999 V2000
   21.8966  -27.8102  -17.1879 N   0  0  0  0  0  0  0  0  0  0  0  0
   22.8480  -28.8056  -16.8503 C   0  0  0  0  0  0  0  0  0  0  0  0
   22.4656  -29.9294  -16.3505 N   0  0  0  0  0  0  0  0  0  0  0  0
   24.2305  -28.5405  -17.0727 N   0  0  0  0  0  0  0  0  0  0  0  0
   24.6806  -27.7680  -18.1975 C   0  0  0  0  0  0  0  0  0  0  0  0
   24.8296  -26.2896  -17.8615 C   0  0  0  0  0  0  0  0  0  0  0  0
   25.7938  -26.2009  -16.7027 C   0  0  0  0  0  0  0  0  0  0  0  0
   27.1017  -25.5726  -17.0898 C   0  0  2  0  0  0  0  0  0  0  0  0
   28.2033  -26.4492  -16.7957 N   0  0  0  0  0  0  0  0  0  0  0  0
   27.2075  -24.2806  -16.3224 C   0  0  0  0  0  0  0  0  0  0  0  0
   27.5349  -24.3169  -15.1076 O   0  0  0  0  0  0  0  0  0  0  0  0
   23.0953  -30.7190  -16.1439 N   0  0  0  0  0  0  0  0  0  0  0  0
   28.4304  -19.0720  -15.4973 C   0  0  0  0  0  0  0  0  0  0  0  0
   27.2990  -19.3751  -16.3232 O   0  0  0  0  0  0  0  0  0  0  0  0
   26.4100  -18.5151  -16.4023 C   0  0  0  0  0  0  0  0  0  0  0  0
   27.1829  -20.6506  -17.0533 C   0  0  1  0  0  0  0  0  0  0  0  0
   27.1793  -21.8306  -16.1331 N   0  0  0  0  0  0  0  0  0  0  0  0
   26.9536  -23.0328  -16.9136 C   0  0  0  0  0  0  0  0  0  0  0  0
   26.0501  -21.7206  -15.1406 O   0  0  0  0  0  0  0  0  0  0  0  0
   24.9281  -22.2063  -15.3728 C   0  0  0  0  0  0  0  0  0  0  0  0
   25.1379  -20.3368   -9.1719 C   0  0  0  0  0  0  0  0  0  0  0  0
   24.6162  -20.8460  -10.4899 C   0  0  2  0  0  0  0  0  0  0  0  0
   25.7717  -20.9227  -11.4976 C   0  0  0  0  0  0  0  0  0  0  0  0
   26.4527  -19.5715  -11.4319 C   0  0  2  0  0  0  0  0  0  0  0  0
   25.2468  -21.1105  -12.8948 N   0  0  0  0  0  0  0  0  0  0  0  0
   26.2388  -21.0577  -13.9108 C   0  0  0  0  0  0  0  0  0  0  0  0
   24.2414  -20.0699  -13.1537 O   0  0  0  0  0  0  0  0  0  0  0  0
   22.9818  -20.1779  -12.6259 O   0  0  0  0  0  0  0  0  0  0  0  0
  2  3  2  0
  2  1  1  0
  4  2  1  0
  5  4  1  0
  6  5  1  0
  7  6  1  0
  8  7  1  0
  8  9  1  1
 10 17  1  0
 10  8  1  0
 11 10  2  0
 13 12  1  0
 13 14  2  0
 16 15  1  6
 15 13  1  0
 16 17  1  0
 18 19  2  0
 18 16  1  0
 20 21  1  0
 21 22  1  0
 22 23  1  1
 24 22  1  0
 24 25  1  6
 25 18  1  0
 26 24  1  0
 27 26  1  0
 28 26  2  0
M  END
$$$$
