RNI.pdb
     RDKit          3D

 28 27  0  0  1  0  0  0  0  0999 V2000
   28.3390  -21.0063  -15.0124 N   0  0  0  0  0  0  0  0  0  0  0  0
   27.9137  -21.4439  -16.2921 C   0  0  0  0  0  0  0  0  0  0  0  0
   27.3310  -22.5842  -16.4303 N   0  0  0  0  0  0  0  0  0  0  0  0
   28.1425  -20.6020  -17.4191 N   0  0  0  0  0  0  0  0  0  0  0  0
   27.9080  -19.1854  -17.3643 C   0  0  0  0  0  0  0  0  0  0  0  0
   27.8692  -18.6604  -15.9347 C   0  0  0  0  0  0  0  0  0  0  0  0
   26.6979  -17.7110  -15.8506 C   0  0  0  0  0  0  0  0  0  0  0  0
   25.3796  -18.4068  -16.0325 C   0  0  2  0  0  0  0  0  0  0  0  0
   24.5636  -17.7234  -16.9998 N   0  0  0  0  0  0  0  0  0  0  0  0
   24.7161  -18.4420  -14.6806 C   0  0  0  0  0  0  0  0  0  0  0  0
   23.6789  -17.7544  -14.4912 O   0  0  0  0  0  0  0  0  0  0  0  0
   27.0744  -23.0008  -17.3376 N   0  0  0  0  0  0  0  0  0  0  0  0
   21.3173  -20.0763  -11.3839 C   0  0  0  0  0  0  0  0  0  0  0  0
   22.3379  -20.8988  -11.9635 O   0  0  0  0  0  0  0  0  0  0  0  0
   22.4564  -22.0500  -11.5196 C   0  0  0  0  0  0  0  0  0  0  0  0
   23.2170  -20.4111  -13.0418 C   0  0  1  0  0  0  0  0  0  0  0  0
   24.3248  -19.5498  -12.5221 N   0  0  0  0  0  0  0  0  0  0  0  0
   25.2131  -19.2158  -13.6198 C   0  0  0  0  0  0  0  0  0  0  0  0
   25.1382  -20.2995  -11.4981 O   0  0  0  0  0  0  0  0  0  0  0  0
   25.8182  -21.2950  -11.8070 C   0  0  0  0  0  0  0  0  0  0  0  0
   26.7340  -17.3108   -7.5076 C   0  0  0  0  0  0  0  0  0  0  0  0
   27.1505  -18.4876   -8.3503 C   0  0  2  0  0  0  0  0  0  0  0  0
   26.2945  -19.7065   -7.9784 C   0  0  0  0  0  0  0  0  0  0  0  0
   27.1614  -20.5406   -7.0581 C   0  0  2  0  0  0  0  0  0  0  0  0
   25.9853  -20.5308   -9.1981 N   0  0  0  0  0  0  0  0  0  0  0  0
   25.1495  -19.8871  -10.1501 C   0  0  0  0  0  0  0  0  0  0  0  0
   25.3402  -21.7774   -8.7611 O   0  0  0  0  0  0  0  0  0  0  0  0
   26.0982  -22.8678   -8.4244 O   0  0  0  0  0  0  0  0  0  0  0  0
  2  3  2  0
  2  1  1  0
  4  2  1  0
  5  4  1  0
  6  5  1  0
  7  6  1  0
  8  7  1  0
  8  9  1  6
 10 17  1  0
 10  8  1  0
 11 10  2  0
 13 12  1  0
 13 14  2  0
 16 15  1  6
 15 13  1  0
 16 17  1  0
 18 19  2  0
 18 16  1  0
 20 21  1  0
 21 22  1  0
 22 23  1  6
 24 22  1  0
 24 25  1  6
 25 18  1  0
 26 24  1  0
 27 26  1  0
 28 26  2  0
M  END
$$$$
