RNI.pdb
     RDKit          3D

 28 27  0  0  1  0  0  0  0  0999 V2000
   27.7936  -17.9491  -20.0054 N   0  0  0  0  0  0  0  0  0  0  0  0
   29.1242  -17.4665  -19.9252 C   0  0  0  0  0  0  0  0  0  0  0  0
   29.7060  -16.9836  -20.9679 N   0  0  0  0  0  0  0  0  0  0  0  0
   29.8041  -17.5258  -18.6740 N   0  0  0  0  0  0  0  0  0  0  0  0
   29.2008  -18.1204  -17.5134 C   0  0  0  0  0  0  0  0  0  0  0  0
   27.8223  -18.6974  -17.8095 C   0  0  0  0  0  0  0  0  0  0  0  0
   27.0254  -18.6007  -16.5304 C   0  0  0  0  0  0  0  0  0  0  0  0
   27.4009  -19.6628  -15.5374 C   0  0  2  0  0  0  0  0  0  0  0  0
   27.2617  -20.9759  -16.1075 N   0  0  0  0  0  0  0  0  0  0  0  0
   26.4975  -19.4828  -14.3454 C   0  0  0  0  0  0  0  0  0  0  0  0
   26.5103  -18.3850  -13.7298 O   0  0  0  0  0  0  0  0  0  0  0  0
   30.6657  -16.6073  -20.9774 N   0  0  0  0  0  0  0  0  0  0  0  0
   22.9186  -19.8832  -10.6853 C   0  0  0  0  0  0  0  0  0  0  0  0
   22.5450  -20.6609  -11.8297 O   0  0  0  0  0  0  0  0  0  0  0  0
   21.4154  -21.1712  -11.8224 C   0  0  0  0  0  0  0  0  0  0  0  0
   23.4539  -20.8551  -12.9741 C   0  0  1  0  0  0  0  0  0  0  0  0
   24.7972  -20.2387  -12.7402 N   0  0  0  0  0  0  0  0  0  0  0  0
   25.6387  -20.4973  -13.8937 C   0  0  0  0  0  0  0  0  0  0  0  0
   25.4654  -20.8704  -11.5459 O   0  0  0  0  0  0  0  0  0  0  0  0
   25.9711  -22.0059  -11.6063 C   0  0  0  0  0  0  0  0  0  0  0  0
   28.8765  -19.9365   -6.6852 C   0  0  0  0  0  0  0  0  0  0  0  0
   27.7683  -20.7494   -7.3012 C   0  0  2  0  0  0  0  0  0  0  0  0
   27.2078  -20.0024   -8.5197 C   0  0  0  0  0  0  0  0  0  0  0  0
   26.6004  -18.7300   -7.9665 C   0  0  2  0  0  0  0  0  0  0  0  0
   26.1085  -20.7967   -9.1705 N   0  0  0  0  0  0  0  0  0  0  0  0
   25.5353  -20.1832  -10.3169 C   0  0  0  0  0  0  0  0  0  0  0  0
   25.0532  -21.0269   -8.1735 O   0  0  0  0  0  0  0  0  0  0  0  0
   23.8175  -20.4562   -8.3293 O   0  0  0  0  0  0  0  0  0  0  0  0
  2  3  2  0
  2  1  1  0
  4  2  1  0
  5  4  1  0
  6  5  1  0
  7  6  1  0
  8  7  1  0
  8  9  1  6
 10 17  1  0
 10  8  1  0
 11 10  2  0
 13 12  1  0
 13 14  2  0
 16 15  1  6
 15 13  1  0
 16 17  1  0
 18 19  2  0
 18 16  1  0
 20 21  1  0
 21 22  1  0
 22 23  1  6
 24 22  1  0
 24 25  1  1
 25 18  1  0
 26 24  1  0
 27 26  1  0
 28 26  2  0
M  END
$$$$
