RNI.pdb
     RDKit          3D

 28 27  0  0  1  0  0  0  0  0999 V2000
   18.9595  -16.8128  -15.5289 N   0  0  0  0  0  0  0  0  0  0  0  0
   19.6561  -15.7272  -14.9408 C   0  0  0  0  0  0  0  0  0  0  0  0
   19.6296  -15.5504  -13.6653 N   0  0  0  0  0  0  0  0  0  0  0  0
   20.3834  -14.8377  -15.7841 N   0  0  0  0  0  0  0  0  0  0  0  0
   20.4233  -15.0109  -17.2099 C   0  0  0  0  0  0  0  0  0  0  0  0
   21.8054  -15.4183  -17.7047 C   0  0  0  0  0  0  0  0  0  0  0  0
   21.8624  -16.9262  -17.6464 C   0  0  0  0  0  0  0  0  0  0  0  0
   23.1840  -17.4699  -18.1077 C   0  0  2  0  0  0  0  0  0  0  0  0
   23.1423  -17.8147  -19.5034 N   0  0  0  0  0  0  0  0  0  0  0  0
   23.4812  -18.6741  -17.2528 C   0  0  0  0  0  0  0  0  0  0  0  0
   22.7304  -19.6812  -17.3343 O   0  0  0  0  0  0  0  0  0  0  0  0
   20.1287  -14.7955  -13.1717 N   0  0  0  0  0  0  0  0  0  0  0  0
   25.6224  -22.2833  -14.3111 C   0  0  0  0  0  0  0  0  0  0  0  0
   26.5722  -21.6046  -15.1425 O   0  0  0  0  0  0  0  0  0  0  0  0
   27.6980  -22.1125  -15.2457 C   0  0  0  0  0  0  0  0  0  0  0  0
   26.2395  -20.3551  -15.8508 C   0  0  2  0  0  0  0  0  0  0  0  0
   24.8203  -19.9380  -15.6254 N   0  0  0  0  0  0  0  0  0  0  0  0
   24.5680  -18.7155  -16.3652 C   0  0  0  0  0  0  0  0  0  0  0  0
   24.5854  -19.6373  -14.1671 O   0  0  0  0  0  0  0  0  0  0  0  0
   25.0786  -18.6340  -13.6204 C   0  0  0  0  0  0  0  0  0  0  0  0
   20.5828  -20.0842   -9.6429 C   0  0  0  0  0  0  0  0  0  0  0  0
   22.0215  -19.9458  -10.0663 C   0  0  2  0  0  0  0  0  0  0  0  0
   22.1490  -20.3004  -11.5545 C   0  0  0  0  0  0  0  0  0  0  0  0
   21.6973  -21.7419  -11.6643 C   0  0  2  0  0  0  0  0  0  0  0  0
   23.5850  -20.2290  -11.9968 N   0  0  0  0  0  0  0  0  0  0  0  0
   23.7921  -20.4942  -13.3773 C   0  0  0  0  0  0  0  0  0  0  0  0
   24.3607  -21.1930  -11.2032 O   0  0  0  0  0  0  0  0  0  0  0  0
   24.9108  -22.2969  -11.7997 O   0  0  0  0  0  0  0  0  0  0  0  0
  2  3  2  0
  2  1  1  0
  4  2  1  0
  5  4  1  0
  6  5  1  0
  7  6  1  0
  8  7  1  0
  8  9  1  6
 10 17  1  0
 10  8  1  0
 11 10  2  0
 13 12  1  0
 13 14  2  0
 16 15  1  6
 15 13  1  0
 16 17  1  0
 18 19  2  0
 18 16  1  0
 20 21  1  0
 21 22  1  0
 22 23  1  6
 24 22  1  0
 24 25  1  1
 25 18  1  0
 26 24  1  0
 27 26  1  0
 28 26  2  0
M  END
$$$$
