RNI.pdb
     RDKit          3D

 28 27  0  0  1  0  0  0  0  0999 V2000
   30.5436  -24.1630  -18.8274 N   0  0  0  0  0  0  0  0  0  0  0  0
   30.3564  -24.4700  -17.4561 C   0  0  0  0  0  0  0  0  0  0  0  0
   31.1016  -25.3466  -16.8771 N   0  0  0  0  0  0  0  0  0  0  0  0
   29.3316  -23.7936  -16.7325 N   0  0  0  0  0  0  0  0  0  0  0  0
   28.3619  -22.9640  -17.3927 C   0  0  0  0  0  0  0  0  0  0  0  0
   28.8039  -21.5081  -17.4714 C   0  0  0  0  0  0  0  0  0  0  0  0
   28.1649  -20.7948  -16.3037 C   0  0  0  0  0  0  0  0  0  0  0  0
   26.7132  -20.4916  -16.5399 C   0  0  2  0  0  0  0  0  0  0  0  0
   26.5395  -19.6765  -17.7121 N   0  0  0  0  0  0  0  0  0  0  0  0
   26.2084  -19.7924  -15.3048 C   0  0  0  0  0  0  0  0  0  0  0  0
   25.9909  -18.5534  -15.3502 O   0  0  0  0  0  0  0  0  0  0  0  0
   30.9660  -25.6792  -15.9108 N   0  0  0  0  0  0  0  0  0  0  0  0
   23.5691  -21.8223  -13.4322 C   0  0  0  0  0  0  0  0  0  0  0  0
   23.1029  -20.4691  -13.5075 O   0  0  0  0  0  0  0  0  0  0  0  0
   21.8934  -20.2986  -13.7180 C   0  0  0  0  0  0  0  0  0  0  0  0
   24.0104  -19.3189  -13.3440 C   0  0  1  0  0  0  0  0  0  0  0  0
   25.4001  -19.7417  -12.9846 N   0  0  0  0  0  0  0  0  0  0  0  0
   25.9707  -20.4732  -14.1003 C   0  0  0  0  0  0  0  0  0  0  0  0
   25.3768  -20.6745  -11.8006 O   0  0  0  0  0  0  0  0  0  0  0  0
   24.9682  -21.8457  -11.9010 C   0  0  0  0  0  0  0  0  0  0  0  0
   27.1565  -18.9069   -6.6094 C   0  0  0  0  0  0  0  0  0  0  0  0
   26.2406  -19.3414   -7.7233 C   0  0  2  0  0  0  0  0  0  0  0  0
   26.7322  -20.6801   -8.2917 C   0  0  0  0  0  0  0  0  0  0  0  0
   28.1120  -20.3977   -8.8486 C   0  0  1  0  0  0  0  0  0  0  0  0
   25.8555  -21.1287   -9.4288 N   0  0  0  0  0  0  0  0  0  0  0  0
   25.8224  -20.2388  -10.5361 C   0  0  0  0  0  0  0  0  0  0  0  0
   24.4891  -21.3049   -8.9162 O   0  0  0  0  0  0  0  0  0  0  0  0
   23.4566  -20.5646   -9.4289 O   0  0  0  0  0  0  0  0  0  0  0  0
  2  3  2  0
  2  1  1  0
  4  2  1  0
  5  4  1  0
  6  5  1  0
  7  6  1  0
  8  7  1  0
  8  9  1  6
 10 17  1  0
 10  8  1  0
 11 10  2  0
 13 12  1  0
 13 14  2  0
 16 15  1  6
 15 13  1  0
 16 17  1  0
 18 19  2  0
 18 16  1  0
 20 21  1  0
 21 22  1  0
 22 23  1  1
 24 22  1  0
 24 25  1  6
 25 18  1  0
 26 24  1  0
 27 26  1  0
 28 26  2  0
M  END
$$$$
