GVT.pdb
     RDKit          3D

 19 18  0  0  1  0  0  0  0  0999 V2000
   23.9673  -20.6382   -9.2669 N   0  0  0  0  0  0  0  0  0  0  0  0
   24.4104  -21.2364  -10.4976 C   0  0  0  0  0  0  0  0  0  0  0  0
   25.0519  -20.2121  -11.3999 C   0  0  0  0  0  0  0  0  0  0  0  0
   25.0903  -19.0291  -10.9894 O   0  0  0  0  0  0  0  0  0  0  0  0
   28.3795  -19.6113  -14.9107 C   0  0  0  0  0  0  0  0  0  0  0  0
   27.6514  -20.5196  -13.9199 C   0  0  2  0  0  0  0  0  0  0  0  0
   27.4181  -21.8301  -14.6459 C   0  0  0  0  0  0  0  0  0  0  0  0
   26.3438  -19.8233  -13.5915 C   0  0  2  0  0  0  0  0  0  0  0  0
   25.5680  -20.6096  -12.6323 N   0  0  0  0  0  0  0  0  0  0  0  0
   25.5121  -19.4791  -14.7360 C   0  0  0  0  0  0  0  0  0  0  0  0
   24.7586  -20.3952  -15.2105 O   0  0  0  0  0  0  0  0  0  0  0  0
   22.8603  -16.6002  -15.3924 C   0  0  0  0  0  0  0  0  0  0  0  0
   23.8779  -16.6686  -16.5152 C   0  0  1  0  0  0  0  0  0  0  0  0
   24.8450  -15.6924  -16.1972 O   0  0  0  0  0  0  0  0  0  0  0  0
   24.4700  -18.0566  -16.4857 C   0  0  2  0  0  0  0  0  0  0  0  0
   25.4185  -18.2395  -15.4108 N   0  0  0  0  0  0  0  0  0  0  0  0
   25.2066  -18.2336  -17.7669 C   0  0  0  0  0  0  0  0  0  0  0  0
   24.5186  -18.2954  -18.8265 O   0  0  0  0  0  0  0  0  0  0  0  0
   26.5786  -18.3303  -17.8382 O   0  0  0  0  0  0  0  0  0  0  0  0
  1  2  1  0
  3  2  1  0
  3  4  2  0
  6  5  1  6
  6  7  1  0
  6  8  1  0
  8 10  1  0
  8  9  1  1
  9  3  1  0
 10 11  2  0
 10 16  1  0
 13 12  1  1
 13 15  1  0
 14 13  1  0
 15 17  1  0
 15 16  1  1
 17 18  2  0
 17 19  1  0
M  END
$$$$
