GVT.pdb
     RDKit          3D

 19 18  0  0  1  0  0  0  0  0999 V2000
   18.4501  -11.4682  -18.6189 N   0  0  0  0  0  0  0  0  0  0  0  0
   19.4442  -10.4288  -18.6302 C   0  0  0  0  0  0  0  0  0  0  0  0
   19.6338   -9.8429  -17.2533 C   0  0  0  0  0  0  0  0  0  0  0  0
   18.6069   -9.4619  -16.6452 O   0  0  0  0  0  0  0  0  0  0  0  0
   22.7462   -9.6506  -13.4419 C   0  0  0  0  0  0  0  0  0  0  0  0
   22.3493  -10.2467  -14.7925 C   0  0  2  0  0  0  0  0  0  0  0  0
   23.6160  -10.2782  -15.6253 C   0  0  0  0  0  0  0  0  0  0  0  0
   21.3170   -9.3040  -15.3826 C   0  0  2  0  0  0  0  0  0  0  0  0
   20.9173   -9.7483  -16.7180 N   0  0  0  0  0  0  0  0  0  0  0  0
   21.7005   -7.8999  -15.4229 C   0  0  0  0  0  0  0  0  0  0  0  0
   22.6464   -7.5726  -16.2167 O   0  0  0  0  0  0  0  0  0  0  0  0
   19.8253   -4.8629  -16.5217 C   0  0  0  0  0  0  0  0  0  0  0  0
   20.4221   -4.5206  -15.1698 C   0  0  1  0  0  0  0  0  0  0  0  0
   19.3878   -4.7538  -14.2397 O   0  0  0  0  0  0  0  0  0  0  0  0
   21.5795   -5.4642  -14.9505 C   0  0  2  0  0  0  0  0  0  0  0  0
   21.1558   -6.8208  -14.6884 N   0  0  0  0  0  0  0  0  0  0  0  0
   22.3016   -4.9800  -13.7424 C   0  0  0  0  0  0  0  0  0  0  0  0
   22.3265   -5.7466  -12.7367 O   0  0  0  0  0  0  0  0  0  0  0  0
   22.9292   -3.7555  -13.6820 O   0  0  0  0  0  0  0  0  0  0  0  0
  1  2  1  0
  3  2  1  0
  3  4  2  0
  6  5  1  1
  6  7  1  0
  6  8  1  0
  8 10  1  0
  8  9  1  6
  9  3  1  0
 10 11  2  0
 10 16  1  0
 13 12  1  6
 13 15  1  0
 14 13  1  0
 15 17  1  0
 15 16  1  1
 17 18  2  0
 17 19  1  0
M  END
$$$$
