GVT.pdb
     RDKit          3D

 19 18  0  0  1  0  0  0  0  0999 V2000
   13.2766  -10.0906   -9.7328 N   0  0  0  0  0  0  0  0  0  0  0  0
   14.2601   -9.1196  -10.1312 C   0  0  0  0  0  0  0  0  0  0  0  0
   15.2019   -9.6909  -11.1615 C   0  0  0  0  0  0  0  0  0  0  0  0
   15.2052  -10.9350  -11.3091 O   0  0  0  0  0  0  0  0  0  0  0  0
   15.4390   -7.6033  -14.4473 C   0  0  0  0  0  0  0  0  0  0  0  0
   15.9015   -9.0560  -14.3350 C   0  0  2  0  0  0  0  0  0  0  0  0
   14.6435   -9.8841  -14.1595 C   0  0  0  0  0  0  0  0  0  0  0  0
   16.7890   -9.1224  -13.1060 C   0  0  2  0  0  0  0  0  0  0  0  0
   16.0176   -8.8327  -11.8971 N   0  0  0  0  0  0  0  0  0  0  0  0
   17.9789   -8.2840  -13.1459 C   0  0  0  0  0  0  0  0  0  0  0  0
   17.9364   -7.1744  -12.5143 O   0  0  0  0  0  0  0  0  0  0  0  0
   21.9554   -9.0279  -12.7587 C   0  0  0  0  0  0  0  0  0  0  0  0
   21.6376   -8.1882  -13.9813 C   0  0  1  0  0  0  0  0  0  0  0  0
   21.6062   -9.0995  -15.0574 O   0  0  0  0  0  0  0  0  0  0  0  0
   20.2808   -7.5698  -13.7472 C   0  0  2  0  0  0  0  0  0  0  0  0
   19.2069   -8.5353  -13.8013 N   0  0  0  0  0  0  0  0  0  0  0  0
   20.0608   -6.5939  -14.8493 C   0  0  0  0  0  0  0  0  0  0  0  0
   19.0946   -6.8159  -15.6349 O   0  0  0  0  0  0  0  0  0  0  0  0
   20.8533   -5.4837  -15.0398 O   0  0  0  0  0  0  0  0  0  0  0  0
  1  2  1  0
  3  2  1  0
  3  4  2  0
  6  5  1  1
  6  7  1  0
  6  8  1  0
  8 10  1  0
  8  9  1  1
  9  3  1  0
 10 11  2  0
 10 16  1  0
 13 12  1  1
 13 15  1  0
 14 13  1  0
 15 17  1  0
 15 16  1  6
 17 18  2  0
 17 19  1  0
M  END
$$$$
