GVT.pdb
     RDKit          3D

 19 18  0  0  1  0  0  0  0  0999 V2000
   24.9637  -20.5715   -9.0132 N   0  0  0  0  0  0  0  0  0  0  0  0
   25.4383  -21.2126  -10.2101 C   0  0  0  0  0  0  0  0  0  0  0  0
   25.1394  -20.3770  -11.4296 C   0  0  0  0  0  0  0  0  0  0  0  0
   24.1589  -19.5997  -11.3668 O   0  0  0  0  0  0  0  0  0  0  0  0
   27.7169  -21.0289  -14.7608 C   0  0  0  0  0  0  0  0  0  0  0  0
   27.2687  -19.6073  -14.4219 C   0  0  2  0  0  0  0  0  0  0  0  0
   28.2771  -19.0772  -13.4213 C   0  0  0  0  0  0  0  0  0  0  0  0
   25.8874  -19.7357  -13.8072 C   0  0  2  0  0  0  0  0  0  0  0  0
   25.9475  -20.4966  -12.5591 N   0  0  0  0  0  0  0  0  0  0  0  0
   24.8630  -20.2947  -14.6781 C   0  0  0  0  0  0  0  0  0  0  0  0
   24.9799  -21.5233  -15.0081 O   0  0  0  0  0  0  0  0  0  0  0  0
   21.2309  -21.0949  -14.2958 C   0  0  0  0  0  0  0  0  0  0  0  0
   21.3585  -20.2412  -15.5432 C   0  0  1  0  0  0  0  0  0  0  0  0
   21.0941  -18.9228  -15.1173 O   0  0  0  0  0  0  0  0  0  0  0  0
   22.7803  -20.3853  -16.0289 C   0  0  2  0  0  0  0  0  0  0  0  0
   23.7267  -19.6505  -15.2209 N   0  0  0  0  0  0  0  0  0  0  0  0
   22.8227  -19.8105  -17.4012 C   0  0  0  0  0  0  0  0  0  0  0  0
   23.6160  -18.8458  -17.6005 O   0  0  0  0  0  0  0  0  0  0  0  0
   22.0470  -20.2807  -18.4375 O   0  0  0  0  0  0  0  0  0  0  0  0
  1  2  1  0
  3  2  1  0
  3  4  2  0
  6  5  1  1
  6  7  1  0
  6  8  1  0
  8 10  1  0
  8  9  1  1
  9  3  1  0
 10 11  2  0
 10 16  1  0
 13 12  1  1
 13 15  1  0
 14 13  1  0
 15 17  1  0
 15 16  1  1
 17 18  2  0
 17 19  1  0
M  END
$$$$
