GVT.pdb
     RDKit          3D

 19 18  0  0  1  0  0  0  0  0999 V2000
   28.4179  -22.1951  -15.9586 N   0  0  0  0  0  0  0  0  0  0  0  0
   28.1732  -21.3236  -14.8408 C   0  0  0  0  0  0  0  0  0  0  0  0
   26.8959  -21.6962  -14.1304 C   0  0  0  0  0  0  0  0  0  0  0  0
   26.1560  -22.5414  -14.6851 O   0  0  0  0  0  0  0  0  0  0  0  0
   24.4489  -21.1833   -9.8265 C   0  0  0  0  0  0  0  0  0  0  0  0
   25.7392  -20.9571  -10.6143 C   0  0  2  0  0  0  0  0  0  0  0  0
   26.0668  -19.4839  -10.4683 C   0  0  0  0  0  0  0  0  0  0  0  0
   25.4233  -21.3183  -12.0539 C   0  0  2  0  0  0  0  0  0  0  0  0
   26.5907  -21.0997  -12.9081 N   0  0  0  0  0  0  0  0  0  0  0  0
   24.2606  -20.6544  -12.6262 C   0  0  0  0  0  0  0  0  0  0  0  0
   24.3285  -19.3891  -12.7891 O   0  0  0  0  0  0  0  0  0  0  0  0
   22.7959  -20.7004  -15.9204 C   0  0  0  0  0  0  0  0  0  0  0  0
   21.5989  -20.9000  -15.0103 C   0  0  1  0  0  0  0  0  0  0  0  0
   21.3608  -22.2902  -15.0125 O   0  0  0  0  0  0  0  0  0  0  0  0
   22.0053  -20.4158  -13.6397 C   0  0  2  0  0  0  0  0  0  0  0  0
   23.0368  -21.2307  -13.0395 N   0  0  0  0  0  0  0  0  0  0  0  0
   20.7971  -20.5161  -12.7761 C   0  0  0  0  0  0  0  0  0  0  0  0
   20.8348  -21.3452  -11.8218 O   0  0  0  0  0  0  0  0  0  0  0  0
   19.6660  -19.7558  -12.9747 O   0  0  0  0  0  0  0  0  0  0  0  0
  1  2  1  0
  3  2  1  0
  3  4  2  0
  6  5  1  1
  6  7  1  0
  6  8  1  0
  8 10  1  0
  8  9  1  6
  9  3  1  0
 10 11  2  0
 10 16  1  0
 13 12  1  6
 13 15  1  0
 14 13  1  0
 15 17  1  0
 15 16  1  1
 17 18  2  0
 17 19  1  0
M  END
$$$$
