GVT.pdb
     RDKit          3D

 19 18  0  0  1  0  0  0  0  0999 V2000
   19.6896  -12.9252  -18.3868 N   0  0  0  0  0  0  0  0  0  0  0  0
   20.4764  -11.7217  -18.4235 C   0  0  0  0  0  0  0  0  0  0  0  0
   20.7087  -11.1815  -17.0346 C   0  0  0  0  0  0  0  0  0  0  0  0
   19.8324  -11.4202  -16.1717 O   0  0  0  0  0  0  0  0  0  0  0  0
   24.6497  -10.2343  -16.0417 C   0  0  0  0  0  0  0  0  0  0  0  0
   23.5699  -10.5548  -15.0081 C   0  0  2  0  0  0  0  0  0  0  0  0
   23.4261  -12.0642  -15.0064 C   0  0  0  0  0  0  0  0  0  0  0  0
   22.3042   -9.8743  -15.4955 C   0  0  2  0  0  0  0  0  0  0  0  0
   21.8655  -10.4515  -16.7662 N   0  0  0  0  0  0  0  0  0  0  0  0
   22.3759   -8.4244  -15.6097 C   0  0  0  0  0  0  0  0  0  0  0  0
   23.0965   -7.9447  -16.5492 O   0  0  0  0  0  0  0  0  0  0  0  0
   20.2696   -5.9897  -16.9220 C   0  0  0  0  0  0  0  0  0  0  0  0
   20.5924   -5.4060  -15.5596 C   0  0  1  0  0  0  0  0  0  0  0  0
   19.5155   -5.7841  -14.7310 O   0  0  0  0  0  0  0  0  0  0  0  0
   21.8833   -6.0425  -15.1052 C   0  0  2  0  0  0  0  0  0  0  0  0
   21.7407   -7.4492  -14.8060 N   0  0  0  0  0  0  0  0  0  0  0  0
   22.2777   -5.3551  -13.8453 C   0  0  0  0  0  0  0  0  0  0  0  0
   22.3043   -6.0513  -12.7897 O   0  0  0  0  0  0  0  0  0  0  0  0
   22.6071   -4.0189  -13.7893 O   0  0  0  0  0  0  0  0  0  0  0  0
  1  2  1  0
  3  2  1  0
  3  4  2  0
  6  5  1  6
  6  7  1  0
  6  8  1  0
  8 10  1  0
  8  9  1  6
  9  3  1  0
 10 11  2  0
 10 16  1  0
 13 12  1  6
 13 15  1  0
 14 13  1  0
 15 17  1  0
 15 16  1  1
 17 18  2  0
 17 19  1  0
M  END
$$$$
