GVT.pdb
     RDKit          3D

 19 18  0  0  1  0  0  0  0  0999 V2000
   23.1500  -11.1893  -15.9276 N   0  0  0  0  0  0  0  0  0  0  0  0
   23.6551  -12.2346  -15.0784 C   0  0  0  0  0  0  0  0  0  0  0  0
   23.5740  -13.5769  -15.7614 C   0  0  0  0  0  0  0  0  0  0  0  0
   22.7836  -13.6826  -16.7276 O   0  0  0  0  0  0  0  0  0  0  0  0
   26.0360  -16.4294  -14.0230 C   0  0  0  0  0  0  0  0  0  0  0  0
   25.8244  -16.5852  -15.5289 C   0  0  2  0  0  0  0  0  0  0  0  0
   26.9334  -15.7922  -16.1923 C   0  0  0  0  0  0  0  0  0  0  0  0
   24.4597  -15.9924  -15.8266 C   0  0  2  0  0  0  0  0  0  0  0  0
   24.3646  -14.6295  -15.3032 N   0  0  0  0  0  0  0  0  0  0  0  0
   23.3217  -16.7778  -15.3701 C   0  0  0  0  0  0  0  0  0  0  0  0
   23.0461  -16.7417  -14.1232 O   0  0  0  0  0  0  0  0  0  0  0  0
   20.2516  -18.8389  -17.6215 C   0  0  0  0  0  0  0  0  0  0  0  0
   20.0492  -18.0751  -16.3267 C   0  0  1  0  0  0  0  0  0  0  0  0
   18.9569  -18.7039  -15.6937 O   0  0  0  0  0  0  0  0  0  0  0  0
   21.3157  -18.2350  -15.5214 C   0  0  2  0  0  0  0  0  0  0  0  0
   22.4560  -17.5938  -16.1353 N   0  0  0  0  0  0  0  0  0  0  0  0
   21.6019  -19.6945  -15.4616 C   0  0  0  0  0  0  0  0  0  0  0  0
   22.6268  -20.1091  -16.0760 O   0  0  0  0  0  0  0  0  0  0  0  0
   20.8088  -20.5887  -14.7772 O   0  0  0  0  0  0  0  0  0  0  0  0
  1  2  1  0
  3  2  1  0
  3  4  2  0
  6  5  1  1
  6  7  1  0
  6  8  1  0
  8 10  1  0
  8  9  1  1
  9  3  1  0
 10 11  2  0
 10 16  1  0
 13 12  1  6
 13 15  1  0
 14 13  1  0
 15 17  1  0
 15 16  1  6
 17 18  2  0
 17 19  1  0
M  END
$$$$
