NMF.pdb
     RDKit          3D

 28 28  0  0  1  0  0  0  0  0999 V2000
   11.3560  -20.7069   18.0420 N   0  0  0  0  0  0  0  0  0  0  0  0
   10.3139  -19.8356   18.4194 C   0  0  0  0  0  0  0  0  0  0  0  0
    9.1114  -20.1200   18.2063 O   0  0  0  0  0  0  0  0  0  0  0  0
   10.6310  -18.5489   19.0848 C   0  0  0  0  0  0  0  0  0  0  0  0
   10.1318  -18.5762   20.5294 C   0  0  2  0  0  0  0  0  0  0  0  0
    8.7236  -18.8029   20.4679 N   0  0  0  0  0  0  0  0  0  0  0  0
   10.4764  -17.2913   21.2150 C   0  0  0  0  0  0  0  0  0  0  0  0
   11.6840  -16.9918   21.2192 O   0  0  0  0  0  0  0  0  0  0  0  0
    7.5789  -11.9823   20.1577 C   0  0  0  0  0  0  0  0  0  0  0  0
    6.6126  -13.4725   20.4089 S   0  0  0  0  0  0  0  0  0  0  0  0
    7.6757  -14.7579   21.1372 C   0  0  0  0  0  0  0  0  0  0  0  0
    8.8327  -14.1441   21.8855 C   0  0  0  0  0  0  0  0  0  0  0  0
    9.6395  -15.2696   22.5044 C   0  0  2  0  0  0  0  0  0  0  0  0
    9.4802  -16.4908   21.8086 N   0  0  0  0  0  0  0  0  0  0  0  0
    9.5702  -15.3373   23.9650 C   0  0  0  0  0  0  0  0  0  0  0  0
   10.1198  -14.4256   24.6298 O   0  0  0  0  0  0  0  0  0  0  0  0
    8.9226  -16.3654   24.6835 N   0  0  0  0  0  0  0  0  0  0  0  0
    8.9502  -16.5106   26.1319 C   0  0  1  0  0  0  0  0  0  0  0  0
    7.6664  -16.1079   26.7605 C   0  0  0  0  0  0  0  0  0  0  0  0
    7.5439  -14.6363   26.7953 C   0  0  0  0  0  0  0  0  0  0  0  0
    8.5320  -13.7812   27.2398 C   0  0  0  0  0  0  0  0  0  0  0  0
    8.3454  -12.4173   27.2351 C   0  0  0  0  0  0  0  0  0  0  0  0
    7.1694  -11.8533   26.7884 C   0  0  0  0  0  0  0  0  0  0  0  0
    6.1814  -12.7169   26.3437 C   0  0  0  0  0  0  0  0  0  0  0  0
    6.3514  -14.0790   26.3416 C   0  0  0  0  0  0  0  0  0  0  0  0
    9.3488  -17.8762   26.4430 C   0  0  0  0  0  0  0  0  0  0  0  0
    9.5454  -18.7101   25.5244 O   0  0  0  0  0  0  0  0  0  0  0  0
    9.5190  -18.2804   27.7729 O   0  0  0  0  0  0  0  0  0  0  0  0
  2  1  1  0
  2  3  2  0
  4  2  1  0
  5  6  1  6
  5  4  1  0
  7  5  1  0
  8  7  2  0
 10  9  1  0
 11 10  1  0
 11 12  1  0
 13 12  1  6
 13 14  1  0
 14  7  1  0
 15 17  1  0
 15 13  1  0
 16 15  2  0
 18 19  1  6
 18 17  1  0
 20 19  1  0
 20 21  2  0
 22 21  1  0
 23 22  2  0
 24 25  2  0
 24 23  1  0
 25 20  1  0
 26 18  1  0
 26 28  1  0
 27 26  2  0
M  END
$$$$
