NMF.pdb
     RDKit          3D

 28 28  0  0  1  0  0  0  0  0999 V2000
    7.6438  -18.3522   17.1301 N   0  0  0  0  0  0  0  0  0  0  0  0
    8.6523  -18.5016   18.1038 C   0  0  0  0  0  0  0  0  0  0  0  0
    9.3072  -19.5655   18.2122 O   0  0  0  0  0  0  0  0  0  0  0  0
    8.9577  -17.3837   19.0289 C   0  0  0  0  0  0  0  0  0  0  0  0
    9.0059  -17.9000   20.4670 C   0  0  2  0  0  0  0  0  0  0  0  0
    7.6929  -18.3696   20.7736 N   0  0  0  0  0  0  0  0  0  0  0  0
    9.4544  -16.8093   21.3883 C   0  0  0  0  0  0  0  0  0  0  0  0
   10.6485  -16.4757   21.2843 O   0  0  0  0  0  0  0  0  0  0  0  0
    5.5555  -13.4098   26.2734 C   0  0  0  0  0  0  0  0  0  0  0  0
    6.4990  -12.3940   25.1354 S   0  0  0  0  0  0  0  0  0  0  0  0
    7.9588  -13.3248   24.5736 C   0  0  0  0  0  0  0  0  0  0  0  0
    7.5618  -14.4487   23.6491 C   0  0  0  0  0  0  0  0  0  0  0  0
    8.8242  -15.1774   23.2295 C   0  0  2  0  0  0  0  0  0  0  0  0
    8.5635  -16.2149   22.3041 N   0  0  0  0  0  0  0  0  0  0  0  0
    9.7369  -15.4976   24.3282 C   0  0  0  0  0  0  0  0  0  0  0  0
   10.3783  -14.5598   24.8616 O   0  0  0  0  0  0  0  0  0  0  0  0
    9.9472  -16.7987   24.8337 N   0  0  0  0  0  0  0  0  0  0  0  0
   10.8445  -17.1278   25.9321 C   0  0  1  0  0  0  0  0  0  0  0  0
   10.1585  -17.0861   27.2485 C   0  0  0  0  0  0  0  0  0  0  0  0
   10.2085  -15.7239   27.8177 C   0  0  0  0  0  0  0  0  0  0  0  0
   11.2902  -15.2013   28.4973 C   0  0  0  0  0  0  0  0  0  0  0  0
   11.2639  -13.9175   28.9935 C   0  0  0  0  0  0  0  0  0  0  0  0
   10.1611  -13.1061   28.8326 C   0  0  0  0  0  0  0  0  0  0  0  0
    9.0786  -13.6365   28.1497 C   0  0  0  0  0  0  0  0  0  0  0  0
    9.0886  -14.9143   27.6485 C   0  0  0  0  0  0  0  0  0  0  0  0
   11.4673  -18.4110   25.6394 C   0  0  0  0  0  0  0  0  0  0  0  0
   12.3464  -18.8841   26.4018 O   0  0  0  0  0  0  0  0  0  0  0  0
   11.0949  -19.1377   24.5017 O   0  0  0  0  0  0  0  0  0  0  0  0
  2  1  1  0
  2  3  2  0
  4  2  1  0
  5  6  1  1
  5  4  1  0
  7  5  1  0
  8  7  2  0
 10  9  1  0
 11 10  1  0
 11 12  1  0
 13 12  1  1
 13 14  1  0
 14  7  1  0
 15 17  1  0
 15 13  1  0
 16 15  2  0
 18 19  1  1
 18 17  1  0
 20 19  1  0
 20 21  2  0
 22 21  1  0
 23 22  2  0
 24 25  2  0
 24 23  1  0
 25 20  1  0
 26 18  1  0
 26 28  1  0
 27 26  2  0
M  END
$$$$
