NMF.pdb
     RDKit          3D

 28 28  0  0  1  0  0  0  0  0999 V2000
    7.4771  -12.8583   16.9692 N   0  0  0  0  0  0  0  0  0  0  0  0
    8.3291  -13.7091   17.7025 C   0  0  0  0  0  0  0  0  0  0  0  0
    9.0731  -14.5423   17.1329 O   0  0  0  0  0  0  0  0  0  0  0  0
    8.3576  -13.6290   19.1830 C   0  0  0  0  0  0  0  0  0  0  0  0
    8.5660  -15.0236   19.7732 C   0  0  2  0  0  0  0  0  0  0  0  0
    7.3427  -15.7335   19.5786 N   0  0  0  0  0  0  0  0  0  0  0  0
    8.9441  -14.9177   21.2173 C   0  0  0  0  0  0  0  0  0  0  0  0
   10.0545  -14.4050   21.4455 O   0  0  0  0  0  0  0  0  0  0  0  0
    6.3730  -11.4334   26.2594 C   0  0  0  0  0  0  0  0  0  0  0  0
    6.6767  -13.2008   26.2219 S   0  0  0  0  0  0  0  0  0  0  0  0
    6.6195  -13.7801   24.4973 C   0  0  0  0  0  0  0  0  0  0  0  0
    6.9854  -15.2405   24.4040 C   0  0  0  0  0  0  0  0  0  0  0  0
    8.2868  -15.3485   23.6324 C   0  0  2  0  0  0  0  0  0  0  0  0
    8.0814  -15.3754   22.2332 N   0  0  0  0  0  0  0  0  0  0  0  0
    9.2355  -16.3244   24.1711 C   0  0  0  0  0  0  0  0  0  0  0  0
    9.1965  -17.4987   23.7296 O   0  0  0  0  0  0  0  0  0  0  0  0
   10.1994  -16.0339   25.1607 N   0  0  0  0  0  0  0  0  0  0  0  0
   11.1753  -16.9848   25.6737 C   0  0  1  0  0  0  0  0  0  0  0  0
   12.1424  -16.3490   26.6042 C   0  0  0  0  0  0  0  0  0  0  0  0
   11.4411  -15.7769   27.7715 C   0  0  0  0  0  0  0  0  0  0  0  0
   11.3617  -16.3836   29.0087 C   0  0  0  0  0  0  0  0  0  0  0  0
   10.6944  -15.7831   30.0523 C   0  0  0  0  0  0  0  0  0  0  0  0
   10.0812  -14.5572   29.9043 C   0  0  0  0  0  0  0  0  0  0  0  0
   10.1643  -13.9534   28.6600 C   0  0  0  0  0  0  0  0  0  0  0  0
   10.8258  -14.5385   27.6092 C   0  0  0  0  0  0  0  0  0  0  0  0
   10.4521  -18.1046   26.2597 C   0  0  0  0  0  0  0  0  0  0  0  0
    9.2078  -18.0479   26.4220 O   0  0  0  0  0  0  0  0  0  0  0  0
   11.1344  -19.2630   26.6517 O   0  0  0  0  0  0  0  0  0  0  0  0
  2  1  1  0
  2  3  2  0
  4  2  1  0
  5  6  1  1
  5  4  1  0
  7  5  1  0
  8  7  2  0
 10  9  1  0
 11 10  1  0
 11 12  1  0
 13 12  1  1
 13 14  1  0
 14  7  1  0
 15 17  1  0
 15 13  1  0
 16 15  2  0
 18 19  1  1
 18 17  1  0
 20 19  1  0
 20 21  2  0
 22 21  1  0
 23 22  2  0
 24 25  2  0
 24 23  1  0
 25 20  1  0
 26 18  1  0
 26 28  1  0
 27 26  2  0
M  END
$$$$
