NMF.pdb
     RDKit          3D

 28 28  0  0  1  0  0  0  0  0999 V2000
   10.7002  -21.8593   19.4246 N   0  0  0  0  0  0  0  0  0  0  0  0
    9.7453  -20.8830   19.0743 C   0  0  0  0  0  0  0  0  0  0  0  0
    8.6848  -21.1868   18.4782 O   0  0  0  0  0  0  0  0  0  0  0  0
    9.9861  -19.4593   19.4118 C   0  0  0  0  0  0  0  0  0  0  0  0
    9.7158  -19.2266   20.8982 C   0  0  2  0  0  0  0  0  0  0  0  0
    8.3423  -19.5496   21.1163 N   0  0  0  0  0  0  0  0  0  0  0  0
   10.0365  -17.8107   21.2619 C   0  0  0  0  0  0  0  0  0  0  0  0
   11.2092  -17.4539   21.0485 O   0  0  0  0  0  0  0  0  0  0  0  0
    7.4070  -12.1583   19.7645 C   0  0  0  0  0  0  0  0  0  0  0  0
    7.4504  -12.0427   21.5539 S   0  0  0  0  0  0  0  0  0  0  0  0
    8.6063  -13.2888   22.2051 C   0  0  0  0  0  0  0  0  0  0  0  0
    8.1981  -14.6787   21.7842 C   0  0  0  0  0  0  0  0  0  0  0  0
    9.2256  -15.6529   22.3280 C   0  0  2  0  0  0  0  0  0  0  0  0
    9.0570  -16.9576   21.8082 N   0  0  0  0  0  0  0  0  0  0  0  0
    9.4597  -15.5504   23.7693 C   0  0  0  0  0  0  0  0  0  0  0  0
   10.2065  -14.6322   24.1871 O   0  0  0  0  0  0  0  0  0  0  0  0
    8.8991  -16.4197   24.7298 N   0  0  0  0  0  0  0  0  0  0  0  0
    9.0760  -16.2916   26.1693 C   0  0  1  0  0  0  0  0  0  0  0  0
    7.7821  -16.1392   26.8821 C   0  0  0  0  0  0  0  0  0  0  0  0
    7.1547  -14.8441   26.5488 C   0  0  0  0  0  0  0  0  0  0  0  0
    6.0241  -14.7022   25.7700 C   0  0  0  0  0  0  0  0  0  0  0  0
    5.4934  -13.4591   25.5089 C   0  0  0  0  0  0  0  0  0  0  0  0
    6.0675  -12.3112   26.0123 C   0  0  0  0  0  0  0  0  0  0  0  0
    7.2023  -12.4603   26.7931 C   0  0  0  0  0  0  0  0  0  0  0  0
    7.7440  -13.6923   27.0632 C   0  0  0  0  0  0  0  0  0  0  0  0
    9.8664  -17.4240   26.6312 C   0  0  0  0  0  0  0  0  0  0  0  0
   10.1763  -17.5358   27.8433 O   0  0  0  0  0  0  0  0  0  0  0  0
   10.2934  -18.4064   25.7293 O   0  0  0  0  0  0  0  0  0  0  0  0
  2  1  1  0
  2  3  2  0
  4  2  1  0
  5  6  1  6
  5  4  1  0
  7  5  1  0
  8  7  2  0
 10  9  1  0
 11 10  1  0
 11 12  1  0
 13 12  1  1
 13 14  1  0
 14  7  1  0
 15 17  1  0
 15 13  1  0
 16 15  2  0
 18 19  1  1
 18 17  1  0
 20 19  1  0
 20 21  2  0
 22 21  1  0
 23 22  2  0
 24 25  2  0
 24 23  1  0
 25 20  1  0
 26 18  1  0
 26 28  1  0
 27 26  2  0
M  END
$$$$
