NMF.pdb
     RDKit          3D

 28 28  0  0  1  0  0  0  0  0999 V2000
    7.9538  -16.7864   16.6884 N   0  0  0  0  0  0  0  0  0  0  0  0
    9.1310  -17.1239   17.3869 C   0  0  0  0  0  0  0  0  0  0  0  0
    9.8529  -18.0850   17.0300 O   0  0  0  0  0  0  0  0  0  0  0  0
    9.5385  -16.3334   18.5735 C   0  0  0  0  0  0  0  0  0  0  0  0
    9.3530  -17.1683   19.8405 C   0  0  2  0  0  0  0  0  0  0  0  0
    8.0242  -17.6882   19.7930 N   0  0  0  0  0  0  0  0  0  0  0  0
    9.5950  -16.3228   21.0514 C   0  0  0  0  0  0  0  0  0  0  0  0
   10.7666  -15.9354   21.2105 O   0  0  0  0  0  0  0  0  0  0  0  0
    6.4152  -11.2763   24.9783 C   0  0  0  0  0  0  0  0  0  0  0  0
    6.0267  -12.9936   25.3207 S   0  0  0  0  0  0  0  0  0  0  0  0
    7.4666  -14.0262   24.9040 C   0  0  0  0  0  0  0  0  0  0  0  0
    7.2990  -14.6680   23.5491 C   0  0  0  0  0  0  0  0  0  0  0  0
    8.6244  -15.2956   23.1616 C   0  0  2  0  0  0  0  0  0  0  0  0
    8.5479  -16.0002   21.9375 N   0  0  0  0  0  0  0  0  0  0  0  0
    9.3245  -15.9670   24.2579 C   0  0  0  0  0  0  0  0  0  0  0  0
    9.0356  -17.1633   24.5043 O   0  0  0  0  0  0  0  0  0  0  0  0
   10.3102  -15.3572   25.0636 N   0  0  0  0  0  0  0  0  0  0  0  0
   10.9181  -15.9683   26.2370 C   0  0  1  0  0  0  0  0  0  0  0  0
   11.7216  -14.9972   27.0224 C   0  0  0  0  0  0  0  0  0  0  0  0
   11.5572  -15.2376   28.4705 C   0  0  0  0  0  0  0  0  0  0  0  0
   10.6491  -14.5770   29.2731 C   0  0  0  0  0  0  0  0  0  0  0  0
   10.5500  -14.8620   30.6162 C   0  0  0  0  0  0  0  0  0  0  0  0
   11.3502  -15.8140   31.2110 C   0  0  0  0  0  0  0  0  0  0  0  0
   12.2598  -16.4735   30.4001 C   0  0  0  0  0  0  0  0  0  0  0  0
   12.3712  -16.2015   29.0593 C   0  0  0  0  0  0  0  0  0  0  0  0
    9.8652  -16.6132   27.0089 C   0  0  0  0  0  0  0  0  0  0  0  0
    8.7578  -16.0454   27.1793 O   0  0  0  0  0  0  0  0  0  0  0  0
   10.0721  -17.8779   27.5734 O   0  0  0  0  0  0  0  0  0  0  0  0
  2  1  1  0
  2  3  2  0
  4  2  1  0
  5  6  1  1
  5  4  1  0
  7  5  1  0
  8  7  2  0
 10  9  1  0
 11 10  1  0
 11 12  1  0
 13 12  1  1
 13 14  1  0
 14  7  1  0
 15 17  1  0
 15 13  1  0
 16 15  2  0
 18 19  1  1
 18 17  1  0
 20 19  1  0
 20 21  2  0
 22 21  1  0
 23 22  2  0
 24 25  2  0
 24 23  1  0
 25 20  1  0
 26 18  1  0
 26 28  1  0
 27 26  2  0
M  END
$$$$
