NMF.pdb
     RDKit          3D

 28 28  0  0  1  0  0  0  0  0999 V2000
    9.9931  -19.5141   17.0087 N   0  0  0  0  0  0  0  0  0  0  0  0
   10.5630  -18.9994   18.1911 C   0  0  0  0  0  0  0  0  0  0  0  0
   11.5542  -19.5440   18.7327 O   0  0  0  0  0  0  0  0  0  0  0  0
    9.9882  -17.7864   18.8212 C   0  0  0  0  0  0  0  0  0  0  0  0
   10.0962  -17.8923   20.3423 C   0  0  2  0  0  0  0  0  0  0  0  0
    9.0499  -18.7676   20.7634 N   0  0  0  0  0  0  0  0  0  0  0  0
    9.9900  -16.5330   20.9595 C   0  0  0  0  0  0  0  0  0  0  0  0
   11.0389  -15.8640   20.9688 O   0  0  0  0  0  0  0  0  0  0  0  0
    8.0268  -11.7465   19.9782 C   0  0  0  0  0  0  0  0  0  0  0  0
    8.0853  -13.4412   19.3934 S   0  0  0  0  0  0  0  0  0  0  0  0
    6.9234  -14.4491   20.3665 C   0  0  0  0  0  0  0  0  0  0  0  0
    7.1604  -14.2726   21.8457 C   0  0  0  0  0  0  0  0  0  0  0  0
    8.5231  -14.8525   22.1737 C   0  0  2  0  0  0  0  0  0  0  0  0
    8.7705  -16.0647   21.4879 N   0  0  0  0  0  0  0  0  0  0  0  0
    8.8711  -14.8248   23.5953 C   0  0  0  0  0  0  0  0  0  0  0  0
    8.9757  -13.7091   24.1607 O   0  0  0  0  0  0  0  0  0  0  0  0
    9.0990  -15.9753   24.3808 N   0  0  0  0  0  0  0  0  0  0  0  0
    9.4323  -15.9604   25.7980 C   0  0  1  0  0  0  0  0  0  0  0  0
    8.2297  -15.8063   26.6554 C   0  0  0  0  0  0  0  0  0  0  0  0
    7.7844  -14.3980   26.6777 C   0  0  0  0  0  0  0  0  0  0  0  0
    8.5947  -13.3284   27.0006 C   0  0  0  0  0  0  0  0  0  0  0  0
    8.1075  -12.0409   26.9923 C   0  0  0  0  0  0  0  0  0  0  0  0
    6.7966  -11.7695   26.6629 C   0  0  0  0  0  0  0  0  0  0  0  0
    5.9883  -12.8475   26.3399 C   0  0  0  0  0  0  0  0  0  0  0  0
    6.4583  -14.1371   26.3432 C   0  0  0  0  0  0  0  0  0  0  0  0
   10.2097  -17.1558   26.0931 C   0  0  0  0  0  0  0  0  0  0  0  0
   10.4876  -17.9784   25.1855 O   0  0  0  0  0  0  0  0  0  0  0  0
   10.6596  -17.4061   27.3954 O   0  0  0  0  0  0  0  0  0  0  0  0
  2  1  1  0
  2  3  2  0
  4  2  1  0
  5  6  1  1
  5  4  1  0
  7  5  1  0
  8  7  2  0
 10  9  1  0
 11 10  1  0
 11 12  1  0
 13 12  1  1
 13 14  1  0
 14  7  1  0
 15 17  1  0
 15 13  1  0
 16 15  2  0
 18 19  1  1
 18 17  1  0
 20 19  1  0
 20 21  2  0
 22 21  1  0
 23 22  2  0
 24 25  2  0
 24 23  1  0
 25 20  1  0
 26 18  1  0
 26 28  1  0
 27 26  2  0
M  END
$$$$
