NMF.pdb
     RDKit          3D

 28 28  0  0  1  0  0  0  0  0999 V2000
    3.7242  -19.9516   23.4717 N   0  0  0  0  0  0  0  0  0  0  0  0
    4.7535  -20.1639   22.5320 C   0  0  0  0  0  0  0  0  0  0  0  0
    5.1060  -21.3190   22.1948 O   0  0  0  0  0  0  0  0  0  0  0  0
    5.4452  -19.0043   21.9189 C   0  0  0  0  0  0  0  0  0  0  0  0
    6.9466  -19.2801   21.8386 C   0  0  2  0  0  0  0  0  0  0  0  0
    7.3509  -19.7069   23.1396 N   0  0  0  0  0  0  0  0  0  0  0  0
    7.6702  -18.0500   21.3880 C   0  0  0  0  0  0  0  0  0  0  0  0
    7.2928  -17.5721   20.3031 O   0  0  0  0  0  0  0  0  0  0  0  0
    6.7129  -13.1587   20.4599 C   0  0  0  0  0  0  0  0  0  0  0  0
    8.2780  -13.1968   21.3354 S   0  0  0  0  0  0  0  0  0  0  0  0
    8.0226  -13.9253   22.9837 C   0  0  0  0  0  0  0  0  0  0  0  0
    7.6952  -15.3944   22.8819 C   0  0  0  0  0  0  0  0  0  0  0  0
    8.9491  -16.1234   22.4382 C   0  0  2  0  0  0  0  0  0  0  0  0
    8.7069  -17.4890   22.1602 N   0  0  0  0  0  0  0  0  0  0  0  0
   10.1425  -15.8208   23.2300 C   0  0  0  0  0  0  0  0  0  0  0  0
   10.8430  -14.8339   22.8974 O   0  0  0  0  0  0  0  0  0  0  0  0
   10.5634  -16.5681   24.3512 N   0  0  0  0  0  0  0  0  0  0  0  0
   11.8018  -16.3416   25.0827 C   0  0  1  0  0  0  0  0  0  0  0  0
   11.9114  -14.9472   25.5816 C   0  0  0  0  0  0  0  0  0  0  0  0
   10.9299  -14.7016   26.6577 C   0  0  0  0  0  0  0  0  0  0  0  0
   10.0362  -15.6422   27.1284 C   0  0  0  0  0  0  0  0  0  0  0  0
    9.1546  -15.3393   28.1414 C   0  0  0  0  0  0  0  0  0  0  0  0
    9.1290  -14.0899   28.7236 C   0  0  0  0  0  0  0  0  0  0  0  0
   10.0284  -13.1501   28.2466 C   0  0  0  0  0  0  0  0  0  0  0  0
   10.9140  -13.4359   27.2376 C   0  0  0  0  0  0  0  0  0  0  0  0
   11.8980  -17.3459   26.1327 C   0  0  0  0  0  0  0  0  0  0  0  0
   12.8785  -17.3588   26.9176 O   0  0  0  0  0  0  0  0  0  0  0  0
   10.8971  -18.3138   26.2829 O   0  0  0  0  0  0  0  0  0  0  0  0
  2  1  1  0
  2  3  2  0
  4  2  1  0
  5  6  1  1
  5  4  1  0
  7  5  1  0
  8  7  2  0
 10  9  1  0
 11 10  1  0
 11 12  1  0
 13 12  1  1
 13 14  1  0
 14  7  1  0
 15 17  1  0
 15 13  1  0
 16 15  2  0
 18 19  1  1
 18 17  1  0
 20 19  1  0
 20 21  2  0
 22 21  1  0
 23 22  2  0
 24 25  2  0
 24 23  1  0
 25 20  1  0
 26 18  1  0
 26 28  1  0
 27 26  2  0
M  END
$$$$
