NMF.pdb
     RDKit          3D

 28 28  0  0  1  0  0  0  0  0999 V2000
   10.2092  -20.1063   16.7286 N   0  0  0  0  0  0  0  0  0  0  0  0
   10.5792  -19.9767   18.0828 C   0  0  0  0  0  0  0  0  0  0  0  0
   10.9282  -20.9688   18.7654 O   0  0  0  0  0  0  0  0  0  0  0  0
   10.5603  -18.6424   18.7295 C   0  0  0  0  0  0  0  0  0  0  0  0
   10.2392  -18.7921   20.2165 C   0  0  2  0  0  0  0  0  0  0  0  0
    8.9958  -19.4894   20.2949 N   0  0  0  0  0  0  0  0  0  0  0  0
   10.1834  -17.4454   20.8669 C   0  0  0  0  0  0  0  0  0  0  0  0
   11.2683  -16.8415   20.9453 O   0  0  0  0  0  0  0  0  0  0  0  0
    8.2760  -10.9994   21.1283 C   0  0  0  0  0  0  0  0  0  0  0  0
    8.2691  -12.7397   20.6941 S   0  0  0  0  0  0  0  0  0  0  0  0
    7.3031  -13.6603   21.9319 C   0  0  0  0  0  0  0  0  0  0  0  0
    7.3299  -15.1415   21.6477 C   0  0  0  0  0  0  0  0  0  0  0  0
    8.7346  -15.6448   21.9200 C   0  0  2  0  0  0  0  0  0  0  0  0
    8.9693  -16.9179   21.3501 N   0  0  0  0  0  0  0  0  0  0  0  0
    9.1952  -15.4513   23.2959 C   0  0  0  0  0  0  0  0  0  0  0  0
   10.1104  -14.6183   23.5055 O   0  0  0  0  0  0  0  0  0  0  0  0
    8.6772  -16.1422   24.4125 N   0  0  0  0  0  0  0  0  0  0  0  0
    9.1527  -15.9857   25.7797 C   0  0  1  0  0  0  0  0  0  0  0  0
    8.0533  -15.6549   26.7216 C   0  0  0  0  0  0  0  0  0  0  0  0
    7.4976  -14.3192   26.4231 C   0  0  0  0  0  0  0  0  0  0  0  0
    8.1795  -13.1326   26.6017 C   0  0  0  0  0  0  0  0  0  0  0  0
    7.5953  -11.9248   26.2934 C   0  0  0  0  0  0  0  0  0  0  0  0
    6.3115  -11.8523   25.7963 C   0  0  0  0  0  0  0  0  0  0  0  0
    5.6322  -13.0469   25.6194 C   0  0  0  0  0  0  0  0  0  0  0  0
    6.2001  -14.2594   25.9217 C   0  0  0  0  0  0  0  0  0  0  0  0
    9.8903  -17.1875   26.1432 C   0  0  0  0  0  0  0  0  0  0  0  0
   10.3998  -17.3043   27.2854 O   0  0  0  0  0  0  0  0  0  0  0  0
   10.0427  -18.2322   25.2233 O   0  0  0  0  0  0  0  0  0  0  0  0
  2  1  1  0
  2  3  2  0
  4  2  1  0
  5  6  1  6
  5  4  1  0
  7  5  1  0
  8  7  2  0
 10  9  1  0
 11 10  1  0
 11 12  1  0
 13 12  1  1
 13 14  1  0
 14  7  1  0
 15 17  1  0
 15 13  1  0
 16 15  2  0
 18 19  1  1
 18 17  1  0
 20 19  1  0
 20 21  2  0
 22 21  1  0
 23 22  2  0
 24 25  2  0
 24 23  1  0
 25 20  1  0
 26 18  1  0
 26 28  1  0
 27 26  2  0
M  END
$$$$
