NMF.pdb
     RDKit          3D

 28 28  0  0  1  0  0  0  0  0999 V2000
   10.5822  -20.3697   18.8854 N   0  0  0  0  0  0  0  0  0  0  0  0
   10.7269  -19.1738   18.1530 C   0  0  0  0  0  0  0  0  0  0  0  0
   11.1862  -19.1704   16.9862 O   0  0  0  0  0  0  0  0  0  0  0  0
   10.3312  -17.8814   18.7629 C   0  0  0  0  0  0  0  0  0  0  0  0
    9.9246  -18.0994   20.2202 C   0  0  2  0  0  0  0  0  0  0  0  0
    8.6218  -18.6830   20.1950 N   0  0  0  0  0  0  0  0  0  0  0  0
    9.9563  -16.7995   20.9612 C   0  0  0  0  0  0  0  0  0  0  0  0
   11.0856  -16.3056   21.1310 O   0  0  0  0  0  0  0  0  0  0  0  0
    7.6569  -12.3876   18.1801 C   0  0  0  0  0  0  0  0  0  0  0  0
    8.1545  -12.7501   19.8649 S   0  0  0  0  0  0  0  0  0  0  0  0
    7.1766  -14.1533   20.4876 C   0  0  0  0  0  0  0  0  0  0  0  0
    7.3373  -14.3057   21.9798 C   0  0  0  0  0  0  0  0  0  0  0  0
    8.6368  -15.0445   22.2374 C   0  0  2  0  0  0  0  0  0  0  0  0
    8.7712  -16.1947   21.4252 N   0  0  0  0  0  0  0  0  0  0  0  0
    8.9784  -15.2015   23.6521 C   0  0  0  0  0  0  0  0  0  0  0  0
    9.7015  -14.3280   24.1902 O   0  0  0  0  0  0  0  0  0  0  0  0
    8.5473  -16.2760   24.4597 N   0  0  0  0  0  0  0  0  0  0  0  0
    8.7711  -16.3779   25.8948 C   0  0  1  0  0  0  0  0  0  0  0  0
    7.5302  -16.1372   26.6744 C   0  0  0  0  0  0  0  0  0  0  0  0
    7.1741  -14.7038   26.6550 C   0  0  0  0  0  0  0  0  0  0  0  0
    5.9859  -14.2014   26.1642 C   0  0  0  0  0  0  0  0  0  0  0  0
    5.7233  -12.8503   26.1869 C   0  0  0  0  0  0  0  0  0  0  0  0
    6.6323  -11.9488   26.6982 C   0  0  0  0  0  0  0  0  0  0  0  0
    7.8232  -12.4593   27.1891 C   0  0  0  0  0  0  0  0  0  0  0  0
    8.1006  -13.8035   27.1741 C   0  0  0  0  0  0  0  0  0  0  0  0
    9.3895  -17.6679   26.1664 C   0  0  0  0  0  0  0  0  0  0  0  0
    9.6731  -18.0063   27.3423 O   0  0  0  0  0  0  0  0  0  0  0  0
    9.6777  -18.5514   25.1189 O   0  0  0  0  0  0  0  0  0  0  0  0
  2  1  1  0
  2  3  2  0
  4  2  1  0
  5  6  1  6
  5  4  1  0
  7  5  1  0
  8  7  2  0
 10  9  1  0
 11 10  1  0
 11 12  1  0
 13 12  1  1
 13 14  1  0
 14  7  1  0
 15 17  1  0
 15 13  1  0
 16 15  2  0
 18 19  1  1
 18 17  1  0
 20 19  1  0
 20 21  2  0
 22 21  1  0
 23 22  2  0
 24 25  2  0
 24 23  1  0
 25 20  1  0
 26 18  1  0
 26 28  1  0
 27 26  2  0
M  END
$$$$
