TLA.pdb
     RDKit          3D

 21 20  0  0  1  0  0  0  0  0999 V2000
   25.6911  -17.2083  -15.6824 C   0  0  0  0  0  0  0  0  0  0  0  0
   26.5695  -18.0091  -16.6085 C   0  0  1  0  0  0  0  0  0  0  0  0
   27.3916  -17.1506  -17.3373 O   0  0  0  0  0  0  0  0  0  0  0  0
   27.4777  -18.9032  -15.7925 C   0  0  2  0  0  0  0  0  0  0  0  0
   28.4576  -19.5843  -16.5825 N   0  0  0  0  0  0  0  0  0  0  0  0
   26.6756  -19.8562  -14.9585 C   0  0  0  0  0  0  0  0  0  0  0  0
   26.3007  -20.9618  -15.4221 O   0  0  0  0  0  0  0  0  0  0  0  0
   25.8037  -21.1621   -9.0002 C   0  0  0  0  0  0  0  0  0  0  0  0
   25.2247  -21.2603  -10.4125 C   0  0  1  0  0  0  0  0  0  0  0  0
   23.7865  -20.7270  -10.2828 C   0  0  0  0  0  0  0  0  0  0  0  0
   25.9255  -20.3775  -11.3651 C   0  0  0  0  0  0  0  0  0  0  0  0
   25.4980  -20.4324  -12.7886 C   0  0  2  0  0  0  0  0  0  0  0  0
   26.3050  -19.5596  -13.6205 N   0  0  0  0  0  0  0  0  0  0  0  0
   24.0725  -20.2542  -13.0488 C   0  0  0  0  0  0  0  0  0  0  0  0
   23.4361  -19.1841  -12.8763 O   0  0  0  0  0  0  0  0  0  0  0  0
   21.4991  -22.2180  -14.9490 C   0  0  0  0  0  0  0  0  0  0  0  0
   21.9072  -21.2237  -13.8873 C   0  0  2  0  0  0  0  0  0  0  0  0
   23.3076  -21.3538  -13.5365 N   0  0  0  0  0  0  0  0  0  0  0  0
   21.0509  -21.2841  -12.6945 C   0  0  0  0  0  0  0  0  0  0  0  0
   19.7254  -20.9427  -12.6929 O   0  0  0  0  0  0  0  0  0  0  0  0
   21.5610  -21.6708  -11.6119 O   0  0  0  0  0  0  0  0  0  0  0  0
  2  1  1  1
  2  3  1  0
  4  6  1  0
  4  2  1  0
  4  5  1  6
  6  7  2  0
  9  8  1  1
  9 11  1  0
 10  9  1  0
 12 11  1  1
 13  6  1  0
 13 12  1  0
 14 18  1  0
 14 12  1  0
 15 14  2  0
 17 16  1  6
 17 18  1  0
 19 17  1  0
 19 20  1  0
 21 19  2  0
M  END
$$$$
