TLA.pdb
     RDKit          3D

 21 20  0  0  1  0  0  0  0  0999 V2000
   20.3821   -9.3337  -20.0842 C   0  0  0  0  0  0  0  0  0  0  0  0
   19.4535  -10.2293  -19.3058 C   0  0  1  0  0  0  0  0  0  0  0  0
   18.6410  -10.9437  -20.1853 O   0  0  0  0  0  0  0  0  0  0  0  0
   20.2655  -11.2446  -18.5313 C   0  0  2  0  0  0  0  0  0  0  0  0
   19.4661  -12.2732  -17.9386 N   0  0  0  0  0  0  0  0  0  0  0  0
   21.1386  -10.5662  -17.5190 C   0  0  0  0  0  0  0  0  0  0  0  0
   20.6750  -10.1938  -16.4127 O   0  0  0  0  0  0  0  0  0  0  0  0
   25.6341   -9.8231  -14.5766 C   0  0  0  0  0  0  0  0  0  0  0  0
   25.8031   -9.5029  -16.0627 C   0  0  1  0  0  0  0  0  0  0  0  0
   27.1604  -10.1214  -16.4433 C   0  0  0  0  0  0  0  0  0  0  0  0
   24.7809  -10.1655  -16.8957 C   0  0  0  0  0  0  0  0  0  0  0  0
   23.3922   -9.6382  -16.8211 C   0  0  2  0  0  0  0  0  0  0  0  0
   22.5152  -10.3146  -17.7583 N   0  0  0  0  0  0  0  0  0  0  0  0
   23.2404   -8.1880  -16.8953 C   0  0  0  0  0  0  0  0  0  0  0  0
   23.5707   -7.4776  -17.8782 O   0  0  0  0  0  0  0  0  0  0  0  0
   20.9261   -5.7930  -15.5170 C   0  0  0  0  0  0  0  0  0  0  0  0
   22.3736   -6.0702  -15.8488 C   0  0  2  0  0  0  0  0  0  0  0  0
   22.6790   -7.4859  -15.7890 N   0  0  0  0  0  0  0  0  0  0  0  0
   23.3046   -5.2885  -15.0230 C   0  0  0  0  0  0  0  0  0  0  0  0
   23.3969   -3.9235  -15.0672 O   0  0  0  0  0  0  0  0  0  0  0  0
   24.0610   -5.9047  -14.2294 O   0  0  0  0  0  0  0  0  0  0  0  0
  2  1  1  6
  2  3  1  0
  4  6  1  0
  4  2  1  0
  4  5  1  1
  6  7  2  0
  9  8  1  1
  9 11  1  0
 10  9  1  0
 12 11  1  6
 13  6  1  0
 13 12  1  0
 14 18  1  0
 14 12  1  0
 15 14  2  0
 17 16  1  1
 17 18  1  0
 19 17  1  0
 19 20  1  0
 21 19  2  0
M  END
$$$$
