TLA.pdb
     RDKit          3D

 21 20  0  0  1  0  0  0  0  0999 V2000
   24.4394   -6.8942  -20.4901 C   0  0  0  0  0  0  0  0  0  0  0  0
   23.8471   -8.0655  -21.2302 C   0  0  1  0  0  0  0  0  0  0  0  0
   24.4158   -8.1567  -22.4999 O   0  0  0  0  0  0  0  0  0  0  0  0
   24.1884   -9.3465  -20.5004 C   0  0  2  0  0  0  0  0  0  0  0  0
   23.7625  -10.5228  -21.1954 N   0  0  0  0  0  0  0  0  0  0  0  0
   23.6682   -9.3121  -19.0949 C   0  0  0  0  0  0  0  0  0  0  0  0
   22.4352   -9.3671  -18.8613 O   0  0  0  0  0  0  0  0  0  0  0  0
   25.8622  -12.2656  -15.1746 C   0  0  0  0  0  0  0  0  0  0  0  0
   24.8717  -11.4826  -16.0379 C   0  0  1  0  0  0  0  0  0  0  0  0
   23.4898  -12.0360  -15.6458 C   0  0  0  0  0  0  0  0  0  0  0  0
   24.8654  -10.0430  -15.7130 C   0  0  0  0  0  0  0  0  0  0  0  0
   24.0747   -9.1465  -16.5980 C   0  0  2  0  0  0  0  0  0  0  0  0
   24.5328   -9.2170  -17.9729 N   0  0  0  0  0  0  0  0  0  0  0  0
   23.9191   -7.7642  -16.1546 C   0  0  0  0  0  0  0  0  0  0  0  0
   24.8487   -6.9215  -16.0807 O   0  0  0  0  0  0  0  0  0  0  0  0
   21.0491   -5.4241  -15.8822 C   0  0  0  0  0  0  0  0  0  0  0  0
   22.3920   -5.9145  -15.3941 C   0  0  2  0  0  0  0  0  0  0  0  0
   22.6301   -7.2949  -15.7670 N   0  0  0  0  0  0  0  0  0  0  0  0
   22.5794   -5.7122  -13.9506 C   0  0  0  0  0  0  0  0  0  0  0  0
   22.8887   -4.5039  -13.3868 O   0  0  0  0  0  0  0  0  0  0  0  0
   22.4490   -6.7027  -13.1867 O   0  0  0  0  0  0  0  0  0  0  0  0
  2  1  1  1
  2  3  1  0
  4  6  1  0
  4  2  1  0
  4  5  1  6
  6  7  2  0
  9  8  1  1
  9 11  1  0
 10  9  1  0
 12 11  1  1
 13  6  1  0
 13 12  1  0
 14 18  1  0
 14 12  1  0
 15 14  2  0
 17 16  1  1
 17 18  1  0
 19 17  1  0
 19 20  1  0
 21 19  2  0
M  END
$$$$
