TLA.pdb
     RDKit          3D

 21 20  0  0  1  0  0  0  0  0999 V2000
   15.6387  -30.4108   -5.2938 C   0  0  0  0  0  0  0  0  0  0  0  0
   14.9855  -30.8622   -4.0131 C   0  0  1  0  0  0  0  0  0  0  0  0
   14.6947  -32.2238   -4.0873 O   0  0  0  0  0  0  0  0  0  0  0  0
   15.9524  -30.6791   -2.8635 C   0  0  2  0  0  0  0  0  0  0  0  0
   15.5093  -31.2946   -1.6497 N   0  0  0  0  0  0  0  0  0  0  0  0
   16.2745  -29.2285   -2.6659 C   0  0  0  0  0  0  0  0  0  0  0  0
   15.4689  -28.4620   -2.0819 O   0  0  0  0  0  0  0  0  0  0  0  0
   21.0352  -27.4918   -0.7911 C   0  0  0  0  0  0  0  0  0  0  0  0
   19.5573  -27.6595   -1.1477 C   0  0  1  0  0  0  0  0  0  0  0  0
   18.8059  -26.8087   -0.1078 C   0  0  0  0  0  0  0  0  0  0  0  0
   19.2365  -27.0979   -2.4741 C   0  0  0  0  0  0  0  0  0  0  0  0
   17.8416  -27.2582   -2.9646 C   0  0  2  0  0  0  0  0  0  0  0  0
   17.4909  -28.6570   -3.1235 N   0  0  0  0  0  0  0  0  0  0  0  0
   17.4692  -26.4750   -4.1392 C   0  0  0  0  0  0  0  0  0  0  0  0
   17.6875  -25.2458   -4.2853 O   0  0  0  0  0  0  0  0  0  0  0  0
   16.0760  -27.2957   -7.5598 C   0  0  0  0  0  0  0  0  0  0  0  0
   16.3396  -26.3823   -6.3857 C   0  0  2  0  0  0  0  0  0  0  0  0
   16.8053  -27.1160   -5.2256 N   0  0  0  0  0  0  0  0  0  0  0  0
   15.1839  -25.5375   -6.0536 C   0  0  0  0  0  0  0  0  0  0  0  0
   14.5250  -25.5885   -4.8548 O   0  0  0  0  0  0  0  0  0  0  0  0
   14.7737  -24.7201   -6.9169 O   0  0  0  0  0  0  0  0  0  0  0  0
  2  1  1  6
  2  3  1  0
  4  6  1  0
  4  2  1  0
  4  5  1  1
  6  7  2  0
  9  8  1  1
  9 11  1  0
 10  9  1  0
 12 11  1  6
 13  6  1  0
 13 12  1  0
 14 18  1  0
 14 12  1  0
 15 14  2  0
 17 16  1  6
 17 18  1  0
 19 17  1  0
 19 20  1  0
 21 19  2  0
M  END
$$$$
