TLA.pdb
     RDKit          3D

 21 20  0  0  1  0  0  0  0  0999 V2000
   18.0215   -7.6853  -19.3990 C   0  0  0  0  0  0  0  0  0  0  0  0
   16.8283   -8.2877  -18.7035 C   0  0  1  0  0  0  0  0  0  0  0  0
   15.9231   -8.7657  -19.6501 O   0  0  0  0  0  0  0  0  0  0  0  0
   17.2735   -9.4760  -17.8789 C   0  0  2  0  0  0  0  0  0  0  0  0
   16.1837  -10.2665  -17.3935 N   0  0  0  0  0  0  0  0  0  0  0  0
   18.1831   -9.0419  -16.7692 C   0  0  0  0  0  0  0  0  0  0  0  0
   17.7808   -8.2581  -15.8740 O   0  0  0  0  0  0  0  0  0  0  0  0
   22.0643   -9.6607  -12.9649 C   0  0  0  0  0  0  0  0  0  0  0  0
   22.5542   -9.7216  -14.4126 C   0  0  1  0  0  0  0  0  0  0  0  0
   23.5701  -10.8781  -14.4325 C   0  0  0  0  0  0  0  0  0  0  0  0
   21.4747  -10.0825  -15.3519 C   0  0  0  0  0  0  0  0  0  0  0  0
   20.4675   -9.0354  -15.6698 C   0  0  2  0  0  0  0  0  0  0  0  0
   19.5271   -9.4899  -16.6769 N   0  0  0  0  0  0  0  0  0  0  0  0
   20.9848   -7.7058  -15.9801 C   0  0  0  0  0  0  0  0  0  0  0  0
   21.6397   -7.4091  -17.0111 O   0  0  0  0  0  0  0  0  0  0  0  0
   20.0776   -4.3133  -15.4851 C   0  0  0  0  0  0  0  0  0  0  0  0
   21.2213   -5.2875  -15.3265 C   0  0  2  0  0  0  0  0  0  0  0  0
   20.7509   -6.6342  -15.0696 N   0  0  0  0  0  0  0  0  0  0  0  0
   22.1940   -4.8597  -14.3113 C   0  0  0  0  0  0  0  0  0  0  0  0
   23.1341   -3.8873  -14.5222 O   0  0  0  0  0  0  0  0  0  0  0  0
   22.1644   -5.4159  -13.1837 O   0  0  0  0  0  0  0  0  0  0  0  0
  2  1  1  6
  2  3  1  0
  4  6  1  0
  4  2  1  0
  4  5  1  1
  6  7  2  0
  9  8  1  1
  9 11  1  0
 10  9  1  0
 12 11  1  6
 13  6  1  0
 13 12  1  0
 14 18  1  0
 14 12  1  0
 15 14  2  0
 17 16  1  1
 17 18  1  0
 19 17  1  0
 19 20  1  0
 21 19  2  0
M  END
$$$$
