TLA.pdb
     RDKit          3D

 21 20  0  0  1  0  0  0  0  0999 V2000
   28.0884  -19.3842  -17.3065 C   0  0  0  0  0  0  0  0  0  0  0  0
   27.1626  -20.2310  -16.4720 C   0  0  1  0  0  0  0  0  0  0  0  0
   27.8300  -20.6739  -15.3308 O   0  0  0  0  0  0  0  0  0  0  0  0
   25.9964  -19.3886  -16.0026 C   0  0  2  0  0  0  0  0  0  0  0  0
   26.3994  -18.1854  -15.3407 N   0  0  0  0  0  0  0  0  0  0  0  0
   25.0601  -20.2004  -15.1591 C   0  0  0  0  0  0  0  0  0  0  0  0
   24.5483  -21.2596  -15.5993 O   0  0  0  0  0  0  0  0  0  0  0  0
   25.7493  -20.4110   -9.6549 C   0  0  0  0  0  0  0  0  0  0  0  0
   25.4969  -20.7453  -11.1260 C   0  0  1  0  0  0  0  0  0  0  0  0
   25.6084  -22.2787  -11.2025 C   0  0  0  0  0  0  0  0  0  0  0  0
   24.1283  -20.3928  -11.5510 C   0  0  0  0  0  0  0  0  0  0  0  0
   23.7960  -20.5598  -12.9911 C   0  0  2  0  0  0  0  0  0  0  0  0
   24.7102  -19.8166  -13.8378 N   0  0  0  0  0  0  0  0  0  0  0  0
   22.4053  -20.3286  -13.3706 C   0  0  0  0  0  0  0  0  0  0  0  0
   21.8004  -19.2323  -13.2608 O   0  0  0  0  0  0  0  0  0  0  0  0
   19.9886  -21.7280  -15.6943 C   0  0  0  0  0  0  0  0  0  0  0  0
   20.2486  -21.2460  -14.2863 C   0  0  2  0  0  0  0  0  0  0  0  0
   21.6398  -21.4029  -13.9108 N   0  0  0  0  0  0  0  0  0  0  0  0
   19.3562  -21.8698  -13.2993 C   0  0  0  0  0  0  0  0  0  0  0  0
   18.0346  -21.5433  -13.1568 O   0  0  0  0  0  0  0  0  0  0  0  0
   19.8297  -22.7542  -12.5408 O   0  0  0  0  0  0  0  0  0  0  0  0
  2  1  1  6
  2  3  1  0
  4  6  1  0
  4  2  1  0
  4  5  1  1
  6  7  2  0
  9  8  1  1
  9 11  1  0
 10  9  1  0
 12 11  1  1
 13  6  1  0
 13 12  1  0
 14 18  1  0
 14 12  1  0
 15 14  2  0
 17 16  1  6
 17 18  1  0
 19 17  1  0
 19 20  1  0
 21 19  2  0
M  END
$$$$
