TLA.pdb
     RDKit          3D

 21 20  0  0  1  0  0  0  0  0999 V2000
   18.7130   -8.2410  -19.4541 C   0  0  0  0  0  0  0  0  0  0  0  0
   17.7216   -9.1104  -18.7247 C   0  0  1  0  0  0  0  0  0  0  0  0
   16.9718   -9.8429  -19.6441 O   0  0  0  0  0  0  0  0  0  0  0  0
   18.4653  -10.1097  -17.8655 C   0  0  2  0  0  0  0  0  0  0  0  0
   17.6185  -11.1273  -17.3217 N   0  0  0  0  0  0  0  0  0  0  0  0
   19.2514   -9.4109  -16.7972 C   0  0  0  0  0  0  0  0  0  0  0  0
   18.6752   -8.8716  -15.8201 O   0  0  0  0  0  0  0  0  0  0  0  0
   24.0613  -11.5318  -15.1260 C   0  0  0  0  0  0  0  0  0  0  0  0
   22.6869  -10.8614  -15.1562 C   0  0  1  0  0  0  0  0  0  0  0  0
   22.2346  -10.8320  -13.6850 C   0  0  0  0  0  0  0  0  0  0  0  0
   22.7602   -9.4593  -15.6107 C   0  0  0  0  0  0  0  0  0  0  0  0
   21.4757   -8.7309  -15.7889 C   0  0  2  0  0  0  0  0  0  0  0  0
   20.6679   -9.3255  -16.8372 N   0  0  0  0  0  0  0  0  0  0  0  0
   21.5632   -7.2810  -15.9362 C   0  0  0  0  0  0  0  0  0  0  0  0
   21.9843   -6.6841  -16.9591 O   0  0  0  0  0  0  0  0  0  0  0  0
   19.8268   -4.3873  -14.6599 C   0  0  0  0  0  0  0  0  0  0  0  0
   21.1775   -4.9963  -14.9552 C   0  0  2  0  0  0  0  0  0  0  0  0
   21.1494   -6.4424  -14.8604 N   0  0  0  0  0  0  0  0  0  0  0  0
   22.2493   -4.4282  -14.1256 C   0  0  0  0  0  0  0  0  0  0  0  0
   22.9145   -3.2716  -14.4313 O   0  0  0  0  0  0  0  0  0  0  0  0
   22.5770   -5.0360  -13.0744 O   0  0  0  0  0  0  0  0  0  0  0  0
  2  1  1  6
  2  3  1  0
  4  6  1  0
  4  2  1  0
  4  5  1  1
  6  7  2  0
  9  8  1  1
  9 11  1  0
 10  9  1  0
 12 11  1  6
 13  6  1  0
 13 12  1  0
 14 18  1  0
 14 12  1  0
 15 14  2  0
 17 16  1  1
 17 18  1  0
 19 17  1  0
 19 20  1  0
 21 19  2  0
M  END
$$$$
