TLA.pdb
     RDKit          3D

 21 20  0  0  1  0  0  0  0  0999 V2000
   24.2549  -11.6446  -14.9669 C   0  0  0  0  0  0  0  0  0  0  0  0
   23.0965  -10.7720  -15.3759 C   0  0  1  0  0  0  0  0  0  0  0  0
   23.5469   -9.7549  -16.2166 O   0  0  0  0  0  0  0  0  0  0  0  0
   22.1034  -11.5932  -16.1691 C   0  0  2  0  0  0  0  0  0  0  0  0
   22.6695  -12.1837  -17.3435 N   0  0  0  0  0  0  0  0  0  0  0  0
   20.8803  -10.7867  -16.4866 C   0  0  0  0  0  0  0  0  0  0  0  0
   20.5933  -10.4889  -17.6726 O   0  0  0  0  0  0  0  0  0  0  0  0
   15.8159   -9.5064  -16.7867 C   0  0  0  0  0  0  0  0  0  0  0  0
   16.3092   -9.4705  -15.3394 C   0  0  1  0  0  0  0  0  0  0  0  0
   15.2524  -10.2614  -14.5472 C   0  0  0  0  0  0  0  0  0  0  0  0
   17.5922  -10.1797  -15.1698 C   0  0  0  0  0  0  0  0  0  0  0  0
   18.8086   -9.5351  -15.7327 C   0  0  2  0  0  0  0  0  0  0  0  0
   19.9974  -10.3257  -15.4749 N   0  0  0  0  0  0  0  0  0  0  0  0
   19.0161   -8.1293  -15.3975 C   0  0  0  0  0  0  0  0  0  0  0  0
   19.4343   -7.7059  -14.2904 O   0  0  0  0  0  0  0  0  0  0  0  0
   19.0496   -4.9230  -17.3969 C   0  0  0  0  0  0  0  0  0  0  0  0
   18.9522   -5.7188  -16.1164 C   0  0  2  0  0  0  0  0  0  0  0  0
   18.7344   -7.1287  -16.3729 N   0  0  0  0  0  0  0  0  0  0  0  0
   17.9439   -5.1832  -15.1911 C   0  0  0  0  0  0  0  0  0  0  0  0
   18.1571   -4.1032  -14.3775 O   0  0  0  0  0  0  0  0  0  0  0  0
   16.8203   -5.7460  -15.1408 O   0  0  0  0  0  0  0  0  0  0  0  0
  2  1  1  6
  2  3  1  0
  4  6  1  0
  4  2  1  0
  4  5  1  6
  6  7  2  0
  9  8  1  6
  9 11  1  0
 10  9  1  0
 12 11  1  1
 13  6  1  0
 13 12  1  0
 14 18  1  0
 14 12  1  0
 15 14  2  0
 17 16  1  6
 17 18  1  0
 19 17  1  0
 19 20  1  0
 21 19  2  0
M  END
$$$$
