TLA.pdb
     RDKit          3D

 21 20  0  0  1  0  0  0  0  0999 V2000
   26.8855  -18.1074  -15.9442 C   0  0  0  0  0  0  0  0  0  0  0  0
   27.4948  -19.3126  -16.6125 C   0  0  1  0  0  0  0  0  0  0  0  0
   28.6745  -18.9462  -17.2593 O   0  0  0  0  0  0  0  0  0  0  0  0
   27.8668  -20.3363  -15.5620 C   0  0  2  0  0  0  0  0  0  0  0  0
   28.6080  -21.4417  -16.0883 N   0  0  0  0  0  0  0  0  0  0  0  0
   26.6529  -20.7892  -14.8080 C   0  0  0  0  0  0  0  0  0  0  0  0
   25.9918  -21.7871  -15.1885 O   0  0  0  0  0  0  0  0  0  0  0  0
   26.2163  -20.2516   -9.2155 C   0  0  0  0  0  0  0  0  0  0  0  0
   26.1906  -20.7626  -10.6570 C   0  0  1  0  0  0  0  0  0  0  0  0
   25.8170  -22.2511  -10.5368 C   0  0  0  0  0  0  0  0  0  0  0  0
   25.1322  -20.1179  -11.4583 C   0  0  0  0  0  0  0  0  0  0  0  0
   25.0210  -20.5136  -12.8877 C   0  0  2  0  0  0  0  0  0  0  0  0
   26.1967  -20.1208  -13.6416 N   0  0  0  0  0  0  0  0  0  0  0  0
   23.7907  -20.1334  -13.5758 C   0  0  0  0  0  0  0  0  0  0  0  0
   23.4805  -18.9601  -13.9032 O   0  0  0  0  0  0  0  0  0  0  0  0
   21.2099  -22.0003  -15.5355 C   0  0  0  0  0  0  0  0  0  0  0  0
   21.6362  -20.8403  -14.6665 C   0  0  2  0  0  0  0  0  0  0  0  0
   22.8421  -21.1401  -13.9203 N   0  0  0  0  0  0  0  0  0  0  0  0
   20.5625  -20.3719  -13.7791 C   0  0  0  0  0  0  0  0  0  0  0  0
   19.5057  -19.6112  -14.2012 O   0  0  0  0  0  0  0  0  0  0  0  0
   20.6138  -20.6856  -12.5623 O   0  0  0  0  0  0  0  0  0  0  0  0
  2  1  1  1
  2  3  1  0
  4  6  1  0
  4  2  1  0
  4  5  1  6
  6  7  2  0
  9  8  1  1
  9 11  1  0
 10  9  1  0
 12 11  1  1
 13  6  1  0
 13 12  1  0
 14 18  1  0
 14 12  1  0
 15 14  2  0
 17 16  1  1
 17 18  1  0
 19 17  1  0
 19 20  1  0
 21 19  2  0
M  END
$$$$
