TLA.pdb
     RDKit          3D

 21 20  0  0  1  0  0  0  0  0999 V2000
   18.0614   -8.6822  -19.1767 C   0  0  0  0  0  0  0  0  0  0  0  0
   17.0017   -9.5674  -18.5734 C   0  0  1  0  0  0  0  0  0  0  0  0
   16.2663  -10.1798  -19.5875 O   0  0  0  0  0  0  0  0  0  0  0  0
   17.6621  -10.6724  -17.7779 C   0  0  2  0  0  0  0  0  0  0  0  0
   16.7425  -11.6745  -17.3324 N   0  0  0  0  0  0  0  0  0  0  0  0
   18.4600  -10.1057  -16.6423 C   0  0  0  0  0  0  0  0  0  0  0  0
   17.8952   -9.6941  -15.5986 O   0  0  0  0  0  0  0  0  0  0  0  0
   22.1977   -9.5910  -12.8647 C   0  0  0  0  0  0  0  0  0  0  0  0
   22.7750   -9.6508  -14.2798 C   0  0  1  0  0  0  0  0  0  0  0  0
   23.9523  -10.6376  -14.1797 C   0  0  0  0  0  0  0  0  0  0  0  0
   21.8186  -10.2207  -15.2486 C   0  0  0  0  0  0  0  0  0  0  0  0
   20.6800   -9.3617  -15.6703 C   0  0  2  0  0  0  0  0  0  0  0  0
   19.8755  -10.0077  -16.6903 N   0  0  0  0  0  0  0  0  0  0  0  0
   21.0014   -7.9845  -16.0331 C   0  0  0  0  0  0  0  0  0  0  0  0
   21.7264   -7.6442  -17.0019 O   0  0  0  0  0  0  0  0  0  0  0  0
   19.5325   -4.6509  -15.3334 C   0  0  0  0  0  0  0  0  0  0  0  0
   20.7420   -5.5252  -15.5683 C   0  0  2  0  0  0  0  0  0  0  0  0
   20.4725   -6.9143  -15.2540 N   0  0  0  0  0  0  0  0  0  0  0  0
   21.9372   -5.0411  -14.8635 C   0  0  0  0  0  0  0  0  0  0  0  0
   22.6001   -5.7631  -13.9080 O   0  0  0  0  0  0  0  0  0  0  0  0
   22.3793   -3.8996  -15.1516 O   0  0  0  0  0  0  0  0  0  0  0  0
  2  1  1  6
  2  3  1  0
  4  6  1  0
  4  2  1  0
  4  5  1  1
  6  7  2  0
  9  8  1  1
  9 11  1  0
 10  9  1  0
 12 11  1  6
 13  6  1  0
 13 12  1  0
 14 18  1  0
 14 12  1  0
 15 14  2  0
 17 16  1  1
 17 18  1  0
 19 17  1  0
 19 20  1  0
 21 19  2  0
M  END
$$$$
