RDV.pdb
     RDKit          3D

 27 26  0  0  1  0  0  0  0  0999 V2000
   30.1898  -22.6422  -11.6096 N   0  0  0  0  0  0  0  0  0  0  0  0
   30.6510  -21.6785  -10.6836 C   0  0  0  0  0  0  0  0  0  0  0  0
   31.9165  -21.5097  -10.4109 N   0  0  0  0  0  0  0  0  0  0  0  0
   29.7209  -20.8450   -9.9754 N   0  0  0  0  0  0  0  0  0  0  0  0
   28.3554  -20.6592  -10.4226 C   0  0  0  0  0  0  0  0  0  0  0  0
   28.3275  -20.8056  -11.9466 C   0  0  0  0  0  0  0  0  0  0  0  0
   26.9657  -20.5948  -12.5195 C   0  0  0  0  0  0  0  0  0  0  0  0
   25.9721  -21.5620  -11.8979 C   0  0  2  0  0  0  0  0  0  0  0  0
   26.3786  -22.9073  -12.1816 N   0  0  0  0  0  0  0  0  0  0  0  0
   24.6494  -21.2204  -12.4516 C   0  0  0  0  0  0  0  0  0  0  0  0
   24.4309  -21.6262  -13.6543 O   0  0  0  0  0  0  0  0  0  0  0  0
   32.1331  -20.8425   -9.6055 N   0  0  0  0  0  0  0  0  0  0  0  0
   23.5947  -20.5099  -11.8507 C   0  0  1  0  0  0  0  0  0  0  0  0
   22.3115  -20.3614  -12.5266 C   0  0  0  0  0  0  0  0  0  0  0  0
   21.2711  -19.9715  -11.5358 C   0  0  0  0  0  0  0  0  0  0  0  0
   20.6243  -21.1124  -10.8261 O   0  0  0  0  0  0  0  0  0  0  0  0
   20.9131  -22.3053  -11.0671 C   0  0  0  0  0  0  0  0  0  0  0  0
   22.3636  -19.3485  -13.6126 O   0  0  0  0  0  0  0  0  0  0  0  0
   23.0187  -18.3113  -13.3483 O   0  0  0  0  0  0  0  0  0  0  0  0
   19.6418  -20.8687   -9.8371 C   0  0  0  0  0  0  0  0  0  0  0  0
   23.9095  -19.2532  -16.7933 C   0  0  2  0  0  0  0  0  0  0  0  0
   22.4579  -18.9727  -17.1796 C   0  0  0  0  0  0  0  0  0  0  0  0
   21.8311  -20.2680  -17.7099 C   0  0  2  0  0  0  0  0  0  0  0  0
   21.7467  -18.5058  -15.9338 N   0  0  0  0  0  0  0  0  0  0  0  0
   21.7467  -19.4827  -14.8640 C   0  0  0  0  0  0  0  0  0  0  0  0
   20.4067  -18.0449  -16.2738 O   0  0  0  0  0  0  0  0  0  0  0  0
   19.4395  -18.6986  -15.6905 O   0  0  0  0  0  0  0  0  0  0  0  0
  2  1  1  0
  3  2  2  0
  4  2  1  0
  5  4  1  0
  5  6  1  0
  6  7  1  0
  8 10  1  0
  8  7  1  0
  8  9  1  6
 10 12  1  0
 11 10  2  0
 12 13  1  0
 13 14  1  6
 15 16  2  0
 15 14  1  0
 17 18  2  0
 17 13  1  0
 19 15  1  0
 21 20  1  6
 21 23  1  0
 22 21  1  0
 23 24  1  6
 24 17  1  0
 25 23  1  0
 25 27  1  0
 26 25  2  0
M  END
$$$$
