RDV.pdb
     RDKit          3D

 27 26  0  0  1  0  0  0  0  0999 V2000
   28.6248  -22.1832  -19.9434 N   0  0  0  0  0  0  0  0  0  0  0  0
   27.3409  -22.0253  -20.5142 C   0  0  0  0  0  0  0  0  0  0  0  0
   26.8497  -22.8594  -21.3902 N   0  0  0  0  0  0  0  0  0  0  0  0
   26.5189  -20.9029  -20.1595 N   0  0  0  0  0  0  0  0  0  0  0  0
   26.8772  -19.9903  -19.0928 C   0  0  0  0  0  0  0  0  0  0  0  0
   26.9555  -20.7877  -17.7878 C   0  0  0  0  0  0  0  0  0  0  0  0
   25.6122  -21.1976  -17.2833 C   0  0  0  0  0  0  0  0  0  0  0  0
   25.7256  -21.7838  -15.8859 C   0  0  2  0  0  0  0  0  0  0  0  0
   26.1988  -23.1342  -15.9749 N   0  0  0  0  0  0  0  0  0  0  0  0
   24.3902  -21.6701  -15.2721 C   0  0  0  0  0  0  0  0  0  0  0  0
   23.4850  -22.4400  -15.7689 O   0  0  0  0  0  0  0  0  0  0  0  0
   25.8586  -22.6483  -21.7276 N   0  0  0  0  0  0  0  0  0  0  0  0
   23.9665  -20.8353  -14.2224 C   0  0  1  0  0  0  0  0  0  0  0  0
   22.5844  -20.8586  -13.7588 C   0  0  0  0  0  0  0  0  0  0  0  0
   22.5256  -20.3814  -12.3499 C   0  0  0  0  0  0  0  0  0  0  0  0
   21.1867  -20.5011  -11.7043 O   0  0  0  0  0  0  0  0  0  0  0  0
   20.2092  -21.0320  -12.2761 C   0  0  0  0  0  0  0  0  0  0  0  0
   21.6957  -20.0182  -14.6026 O   0  0  0  0  0  0  0  0  0  0  0  0
   22.1229  -18.8642  -14.8485 O   0  0  0  0  0  0  0  0  0  0  0  0
   20.9824  -20.0040  -10.3951 C   0  0  0  0  0  0  0  0  0  0  0  0
   20.3415  -20.4942  -18.0202 C   0  0  2  0  0  0  0  0  0  0  0  0
   19.0900  -20.2646  -17.1741 C   0  0  0  0  0  0  0  0  0  0  0  0
   18.4262  -21.6197  -16.9003 C   0  0  2  0  0  0  0  0  0  0  0  0
   19.5345  -19.6173  -15.8859 N   0  0  0  0  0  0  0  0  0  0  0  0
   20.4577  -20.4269  -15.1172 C   0  0  0  0  0  0  0  0  0  0  0  0
   18.3699  -19.2057  -15.1128 O   0  0  0  0  0  0  0  0  0  0  0  0
   17.5886  -18.3510  -15.7148 O   0  0  0  0  0  0  0  0  0  0  0  0
  2  1  1  0
  3  2  2  0
  4  2  1  0
  5  4  1  0
  5  6  1  0
  6  7  1  0
  8 10  1  0
  8  7  1  0
  8  9  1  6
 10 12  1  0
 11 10  2  0
 12 13  1  0
 13 14  1  6
 15 16  2  0
 15 14  1  0
 17 18  2  0
 17 13  1  0
 19 15  1  0
 21 20  1  6
 21 23  1  0
 22 21  1  0
 23 24  1  1
 24 17  1  0
 25 23  1  0
 25 27  1  0
 26 25  2  0
M  END
$$$$
