RDV.pdb
     RDKit          3D

 27 26  0  0  1  0  0  0  0  0999 V2000
   29.0954  -16.5533  -19.9514 N   0  0  0  0  0  0  0  0  0  0  0  0
   29.7828  -17.7875  -20.0084 C   0  0  0  0  0  0  0  0  0  0  0  0
   30.9872  -17.9034  -20.4986 N   0  0  0  0  0  0  0  0  0  0  0  0
   29.1582  -18.9917  -19.5383 N   0  0  0  0  0  0  0  0  0  0  0  0
   27.8136  -19.0039  -18.9987 C   0  0  0  0  0  0  0  0  0  0  0  0
   27.8572  -18.3974  -17.5934 C   0  0  0  0  0  0  0  0  0  0  0  0
   26.9218  -19.0726  -16.6467 C   0  0  0  0  0  0  0  0  0  0  0  0
   27.6530  -20.1370  -15.8457 C   0  0  2  0  0  0  0  0  0  0  0  0
   28.0783  -21.1851  -16.7266 N   0  0  0  0  0  0  0  0  0  0  0  0
   26.7189  -20.5929  -14.8003 C   0  0  0  0  0  0  0  0  0  0  0  0
   25.9369  -21.5585  -15.1394 O   0  0  0  0  0  0  0  0  0  0  0  0
   31.3894  -18.8927  -20.5134 N   0  0  0  0  0  0  0  0  0  0  0  0
   26.5606  -20.1177  -13.4861 C   0  0  1  0  0  0  0  0  0  0  0  0
   25.5469  -20.6821  -12.6032 C   0  0  0  0  0  0  0  0  0  0  0  0
   25.9079  -20.3970  -11.1873 C   0  0  0  0  0  0  0  0  0  0  0  0
   25.0630  -21.0923  -10.1742 O   0  0  0  0  0  0  0  0  0  0  0  0
   24.0881  -21.8097  -10.4894 C   0  0  0  0  0  0  0  0  0  0  0  0
   24.1924  -20.1406  -12.8862 O   0  0  0  0  0  0  0  0  0  0  0  0
   24.0853  -18.8929  -12.8051 O   0  0  0  0  0  0  0  0  0  0  0  0
   25.3493  -20.9543   -8.7951 C   0  0  0  0  0  0  0  0  0  0  0  0
   22.2483  -19.9161  -15.7955 C   0  0  2  0  0  0  0  0  0  0  0  0
   21.2560  -20.6321  -14.8804 C   0  0  0  0  0  0  0  0  0  0  0  0
   21.2417  -22.1226  -15.2410 C   0  0  2  0  0  0  0  0  0  0  0  0
   21.7302  -20.4299  -13.4626 N   0  0  0  0  0  0  0  0  0  0  0  0
   23.0743  -20.9151  -13.2247 C   0  0  0  0  0  0  0  0  0  0  0  0
   20.7579  -20.9893  -12.5324 O   0  0  0  0  0  0  0  0  0  0  0  0
   21.1770  -22.0282  -11.8630 O   0  0  0  0  0  0  0  0  0  0  0  0
  2  1  1  0
  3  2  2  0
  4  2  1  0
  5  4  1  0
  5  6  1  0
  6  7  1  0
  8 10  1  0
  8  7  1  0
  8  9  1  6
 10 12  1  0
 11 10  2  0
 12 13  1  0
 13 14  1  6
 15 16  2  0
 15 14  1  0
 17 18  2  0
 17 13  1  0
 19 15  1  0
 21 20  1  6
 21 23  1  0
 22 21  1  0
 23 24  1  1
 24 17  1  0
 25 23  1  0
 25 27  1  0
 26 25  2  0
M  END
$$$$
