RDV.pdb
     RDKit          3D

 27 26  0  0  1  0  0  0  0  0999 V2000
   28.9562  -21.7585  -17.0700 N   0  0  0  0  0  0  0  0  0  0  0  0
   28.4937  -20.6082  -17.7496 C   0  0  0  0  0  0  0  0  0  0  0  0
   28.1298  -20.6268  -19.0032 N   0  0  0  0  0  0  0  0  0  0  0  0
   28.4264  -19.3420  -17.0763 N   0  0  0  0  0  0  0  0  0  0  0  0
   28.2190  -19.2383  -15.6462 C   0  0  0  0  0  0  0  0  0  0  0  0
   26.7128  -19.2952  -15.3763 C   0  0  0  0  0  0  0  0  0  0  0  0
   26.3788  -19.0917  -13.9362 C   0  0  0  0  0  0  0  0  0  0  0  0
   26.2091  -20.4295  -13.2358 C   0  0  2  0  0  0  0  0  0  0  0  0
   26.8788  -21.4483  -13.9902 N   0  0  0  0  0  0  0  0  0  0  0  0
   24.7583  -20.6553  -13.1050 C   0  0  0  0  0  0  0  0  0  0  0  0
   24.2174  -21.3425  -14.0505 O   0  0  0  0  0  0  0  0  0  0  0  0
   27.8776  -19.6798  -19.4278 N   0  0  0  0  0  0  0  0  0  0  0  0
   23.8825  -20.2215  -12.0936 C   0  0  1  0  0  0  0  0  0  0  0  0
   22.4817  -20.6256  -12.0925 C   0  0  0  0  0  0  0  0  0  0  0  0
   21.9177  -20.4566  -10.7251 C   0  0  0  0  0  0  0  0  0  0  0  0
   20.5385  -20.9948  -10.5464 O   0  0  0  0  0  0  0  0  0  0  0  0
   19.9507  -21.6480  -11.4365 C   0  0  0  0  0  0  0  0  0  0  0  0
   21.6714  -19.8428  -13.0613 O   0  0  0  0  0  0  0  0  0  0  0  0
   21.8883  -18.6067  -13.0673 O   0  0  0  0  0  0  0  0  0  0  0  0
   19.8414  -20.7742   -9.3347 C   0  0  0  0  0  0  0  0  0  0  0  0
   20.0784  -21.4949  -16.5895 C   0  0  2  0  0  0  0  0  0  0  0  0
   20.4173  -20.0223  -16.3624 C   0  0  0  0  0  0  0  0  0  0  0  0
   19.6549  -19.1780  -17.3907 C   0  0  1  0  0  0  0  0  0  0  0  0
   19.9840  -19.6757  -14.9595 N   0  0  0  0  0  0  0  0  0  0  0  0
   20.7176  -20.3867  -13.9324 C   0  0  0  0  0  0  0  0  0  0  0  0
   18.5413  -19.8381  -14.8342 O   0  0  0  0  0  0  0  0  0  0  0  0
   18.1671  -20.8406  -14.0872 O   0  0  0  0  0  0  0  0  0  0  0  0
  2  1  1  0
  3  2  2  0
  4  2  1  0
  5  4  1  0
  5  6  1  0
  6  7  1  0
  8 10  1  0
  8  7  1  0
  8  9  1  6
 10 12  1  0
 11 10  2  0
 12 13  1  0
 13 14  1  6
 15 16  2  0
 15 14  1  0
 17 18  2  0
 17 13  1  0
 19 15  1  0
 21 20  1  6
 21 23  1  0
 22 21  1  0
 23 24  1  6
 24 17  1  0
 25 23  1  0
 25 27  1  0
 26 25  2  0
M  END
$$$$
