RDV.pdb
     RDKit          3D

 27 26  0  0  1  0  0  0  0  0999 V2000
   19.7909  -23.6581   -7.1988 N   0  0  0  0  0  0  0  0  0  0  0  0
   19.3870  -22.7551   -8.2089 C   0  0  0  0  0  0  0  0  0  0  0  0
   18.2171  -22.8164   -8.7848 N   0  0  0  0  0  0  0  0  0  0  0  0
   20.2783  -21.7261   -8.6651 N   0  0  0  0  0  0  0  0  0  0  0  0
   21.6375  -22.0099   -9.0788 C   0  0  0  0  0  0  0  0  0  0  0  0
   22.3554  -20.6769   -9.3081 C   0  0  0  0  0  0  0  0  0  0  0  0
   22.9651  -20.5788  -10.6667 C   0  0  0  0  0  0  0  0  0  0  0  0
   24.4065  -21.0592  -10.6383 C   0  0  2  0  0  0  0  0  0  0  0  0
   25.0969  -20.4246   -9.5538 N   0  0  0  0  0  0  0  0  0  0  0  0
   24.9800  -20.7481  -11.9602 C   0  0  0  0  0  0  0  0  0  0  0  0
   25.4954  -19.5736  -12.0776 O   0  0  0  0  0  0  0  0  0  0  0  0
   18.0700  -22.1538   -9.6095 N   0  0  0  0  0  0  0  0  0  0  0  0
   25.0391  -21.5538  -13.1115 C   0  0  2  0  0  0  0  0  0  0  0  0
   25.6121  -21.0456  -14.3521 C   0  0  0  0  0  0  0  0  0  0  0  0
   26.3888  -22.1264  -15.0191 C   0  0  0  0  0  0  0  0  0  0  0  0
   27.0509  -21.7256  -16.2937 O   0  0  0  0  0  0  0  0  0  0  0  0
   26.4077  -21.4823  -17.3384 C   0  0  0  0  0  0  0  0  0  0  0  0
   24.5716  -20.5381  -15.2837 O   0  0  0  0  0  0  0  0  0  0  0  0
   23.5153  -21.2141  -15.3286 O   0  0  0  0  0  0  0  0  0  0  0  0
   28.4599  -21.6078  -16.3558 C   0  0  0  0  0  0  0  0  0  0  0  0
   22.3577  -17.7504  -15.3676 C   0  0  2  0  0  0  0  0  0  0  0  0
   23.1476  -17.5542  -16.6609 C   0  0  0  0  0  0  0  0  0  0  0  0
   24.2600  -16.5297  -16.4070 C   0  0  2  0  0  0  0  0  0  0  0  0
   23.7305  -18.8943  -17.0355 N   0  0  0  0  0  0  0  0  0  0  0  0
   24.7002  -19.3932  -16.0819 C   0  0  0  0  0  0  0  0  0  0  0  0
   24.2541  -18.8423  -18.3945 O   0  0  0  0  0  0  0  0  0  0  0  0
   23.3613  -18.6005  -19.3151 O   0  0  0  0  0  0  0  0  0  0  0  0
  2  1  1  0
  3  2  2  0
  4  2  1  0
  5  4  1  0
  5  6  1  0
  6  7  1  0
  8 10  1  0
  8  7  1  0
  8  9  1  1
 10 12  1  0
 11 10  2  0
 12 13  1  0
 13 14  1  1
 15 16  2  0
 15 14  1  0
 17 18  2  0
 17 13  1  0
 19 15  1  0
 21 20  1  6
 21 23  1  0
 22 21  1  0
 23 24  1  6
 24 17  1  0
 25 23  1  0
 25 27  1  0
 26 25  2  0
M  END
$$$$
