RDV.pdb
     RDKit          3D

 27 26  0  0  1  0  0  0  0  0999 V2000
   18.3515  -15.2923  -15.6009 N   0  0  0  0  0  0  0  0  0  0  0  0
   17.4407  -14.2110  -15.6010 C   0  0  0  0  0  0  0  0  0  0  0  0
   16.2718  -14.2718  -15.0229 N   0  0  0  0  0  0  0  0  0  0  0  0
   17.7663  -12.9842  -16.2721 N   0  0  0  0  0  0  0  0  0  0  0  0
   18.4268  -12.9615  -17.5614 C   0  0  0  0  0  0  0  0  0  0  0  0
   19.9394  -12.9871  -17.3239 C   0  0  0  0  0  0  0  0  0  0  0  0
   20.6177  -11.7475  -17.8037 C   0  0  0  0  0  0  0  0  0  0  0  0
   21.3084  -11.0392  -16.6503 C   0  0  2  0  0  0  0  0  0  0  0  0
   21.1607  -11.8202  -15.4572 N   0  0  0  0  0  0  0  0  0  0  0  0
   20.6997   -9.7001  -16.5534 C   0  0  0  0  0  0  0  0  0  0  0  0
   20.9574   -8.9027  -17.5314 O   0  0  0  0  0  0  0  0  0  0  0  0
   15.6510  -13.4104  -15.1387 N   0  0  0  0  0  0  0  0  0  0  0  0
   19.8802   -9.1715  -15.5400 C   0  0  2  0  0  0  0  0  0  0  0  0
   19.4454   -7.7804  -15.5786 C   0  0  0  0  0  0  0  0  0  0  0  0
   18.0801   -7.6710  -14.9953 C   0  0  0  0  0  0  0  0  0  0  0  0
   17.5239   -6.2879  -14.9602 O   0  0  0  0  0  0  0  0  0  0  0  0
   17.8619   -5.4058  -15.7800 C   0  0  0  0  0  0  0  0  0  0  0  0
   20.3713   -6.8828  -14.8403 O   0  0  0  0  0  0  0  0  0  0  0  0
   20.8797   -7.3721  -13.8025 O   0  0  0  0  0  0  0  0  0  0  0  0
   16.5756   -5.9283  -13.9730 C   0  0  0  0  0  0  0  0  0  0  0  0
   22.3275   -3.7542  -16.8750 C   0  0  2  0  0  0  0  0  0  0  0  0
   22.9031   -4.5719  -15.7196 C   0  0  0  0  0  0  0  0  0  0  0  0
   24.0626   -3.7884  -15.0925 C   0  0  1  0  0  0  0  0  0  0  0  0
   21.7922   -4.7745  -14.7192 N   0  0  0  0  0  0  0  0  0  0  0  0
   20.6946   -5.5740  -15.2238 C   0  0  0  0  0  0  0  0  0  0  0  0
   21.3556   -3.4854  -14.1985 O   0  0  0  0  0  0  0  0  0  0  0  0
   20.1557   -3.1261  -14.5648 O   0  0  0  0  0  0  0  0  0  0  0  0
  2  1  1  0
  3  2  2  0
  4  2  1  0
  5  4  1  0
  5  6  1  0
  6  7  1  0
  8 10  1  0
  8  7  1  0
  8  9  1  1
 10 12  1  0
 11 10  2  0
 12 13  1  0
 13 14  1  6
 15 16  2  0
 15 14  1  0
 17 18  2  0
 17 13  1  0
 19 15  1  0
 21 20  1  6
 21 23  1  0
 22 21  1  0
 23 24  1  6
 24 17  1  0
 25 23  1  0
 25 27  1  0
 26 25  2  0
M  END
$$$$
