FMQ.pdb
     RDKit          3D

 29 29  0  0  1  0  0  0  0  0999 V2000
   22.7084  -51.5177    8.4308 N   0  0  0  0  0  0  0  0  0  0  0  0
   23.4068  -50.8126    7.3596 C   0  0  1  0  0  0  0  0  0  0  0  0
   24.1618  -49.6748    8.0225 C   0  0  0  0  0  0  0  0  0  0  0  0
   23.2646  -48.4852    7.9416 C   0  0  0  0  0  0  0  0  0  0  0  0
   23.6856  -47.3191    7.3319 C   0  0  0  0  0  0  0  0  0  0  0  0
   22.8586  -46.2086    7.2521 C   0  0  0  0  0  0  0  0  0  0  0  0
   21.5836  -46.2228    7.7775 C   0  0  0  0  0  0  0  0  0  0  0  0
   21.1641  -47.3839    8.3846 C   0  0  0  0  0  0  0  0  0  0  0  0
   21.9807  -48.4895    8.4668 C   0  0  0  0  0  0  0  0  0  0  0  0
   24.2862  -51.7380    6.6290 C   0  0  0  0  0  0  0  0  0  0  0  0
   24.0310  -52.9640    6.6181 O   0  0  0  0  0  0  0  0  0  0  0  0
   28.5263  -49.0590    2.6393 C   0  0  0  0  0  0  0  0  0  0  0  0
   29.4907  -50.3736    3.3922 S   0  0  0  0  0  0  0  0  0  0  0  0
   28.4716  -51.6624    4.1279 C   0  0  0  0  0  0  0  0  0  0  0  0
   27.0266  -51.3247    4.1834 C   0  0  0  0  0  0  0  0  0  0  0  0
   26.1677  -52.2087    5.0381 C   0  0  2  0  0  0  0  0  0  0  0  0
   25.4194  -51.2889    5.9324 N   0  0  0  0  0  0  0  0  0  0  0  0
   26.9114  -53.1216    5.9294 C   0  0  0  0  0  0  0  0  0  0  0  0
   27.7494  -52.6596    6.7856 O   0  0  0  0  0  0  0  0  0  0  0  0
   24.3697  -56.3708    7.6840 N   0  0  0  0  0  0  0  0  0  0  0  0
   23.2537  -56.4126    6.8179 C   0  0  0  0  0  0  0  0  0  0  0  0
   22.1533  -56.8810    7.1761 O   0  0  0  0  0  0  0  0  0  0  0  0
   23.4108  -55.8751    5.4310 C   0  0  0  0  0  0  0  0  0  0  0  0
   24.4193  -54.7563    5.4405 C   0  0  0  0  0  0  0  0  0  0  0  0
   25.7926  -55.2544    5.1518 C   0  0  2  0  0  0  0  0  0  0  0  0
   26.7994  -54.5308    5.9529 N   0  0  0  0  0  0  0  0  0  0  0  0
   26.2224  -55.1612    3.7486 C   0  0  0  0  0  0  0  0  0  0  0  0
   25.4445  -54.6874    2.8502 O   0  0  0  0  0  0  0  0  0  0  0  0
   27.4612  -55.5587    3.2780 O   0  0  0  0  0  0  0  0  0  0  0  0
  2  1  1  1
  3  4  1  0
  3  2  1  0
  4  5  2  0
  5  6  1  0
  7  6  2  0
  8  7  1  0
  9  8  2  0
  9  4  1  0
 10  2  1  0
 10 11  2  0
 12 13  1  0
 13 14  1  0
 16 15  1  6
 15 14  1  0
 16 17  1  0
 17 10  1  0
 18 16  1  0
 19 18  2  0
 20 21  1  0
 21 22  2  0
 23 21  1  0
 23 24  1  0
 25 24  1  6
 25 27  1  0
 25 26  1  0
 26 18  1  0
 27 29  1  0
 28 27  2  0
M  END
$$$$
