FMQ.pdb
     RDKit          3D

 29 29  0  0  1  0  0  0  0  0999 V2000
    6.1164  -18.2942   25.7717 N   0  0  0  0  0  0  0  0  0  0  0  0
    6.5793  -16.9485   25.4438 C   0  0  1  0  0  0  0  0  0  0  0  0
    7.5627  -16.5610   26.5333 C   0  0  0  0  0  0  0  0  0  0  0  0
    7.5785  -15.0690   26.5598 C   0  0  0  0  0  0  0  0  0  0  0  0
    6.4308  -14.3427   26.3073 C   0  0  0  0  0  0  0  0  0  0  0  0
    6.4360  -12.9560   26.3296 C   0  0  0  0  0  0  0  0  0  0  0  0
    7.5860  -12.2461   26.6046 C   0  0  0  0  0  0  0  0  0  0  0  0
    8.7291  -12.9692   26.8561 C   0  0  0  0  0  0  0  0  0  0  0  0
    8.7298  -14.3459   26.8352 C   0  0  0  0  0  0  0  0  0  0  0  0
    7.1734  -16.9274   24.0985 C   0  0  0  0  0  0  0  0  0  0  0  0
    7.7081  -17.9612   23.6361 O   0  0  0  0  0  0  0  0  0  0  0  0
    7.5822  -11.4722   20.7176 C   0  0  0  0  0  0  0  0  0  0  0  0
    7.7631  -12.6215   19.3496 S   0  0  0  0  0  0  0  0  0  0  0  0
    7.5957  -14.3431   19.8489 C   0  0  0  0  0  0  0  0  0  0  0  0
    7.2603  -14.5204   21.2846 C   0  0  0  0  0  0  0  0  0  0  0  0
    7.7061  -15.8039   21.9199 C   0  0  2  0  0  0  0  0  0  0  0  0
    7.1622  -15.7717   23.3015 N   0  0  0  0  0  0  0  0  0  0  0  0
    9.1686  -15.9484   22.0654 C   0  0  0  0  0  0  0  0  0  0  0  0
    9.9223  -16.0386   21.0298 O   0  0  0  0  0  0  0  0  0  0  0  0
   13.6926  -17.2093   26.9811 N   0  0  0  0  0  0  0  0  0  0  0  0
   13.7618  -15.9960   26.2598 C   0  0  0  0  0  0  0  0  0  0  0  0
   14.1634  -14.9357   26.7825 O   0  0  0  0  0  0  0  0  0  0  0  0
   13.3372  -15.9973   24.8257 C   0  0  0  0  0  0  0  0  0  0  0  0
   11.8359  -15.9031   24.7493 C   0  0  0  0  0  0  0  0  0  0  0  0
   11.3537  -15.9723   23.3421 C   0  0  2  0  0  0  0  0  0  0  0  0
    9.8789  -15.9995   23.2868 N   0  0  0  0  0  0  0  0  0  0  0  0
   11.8272  -17.1256   22.5623 C   0  0  0  0  0  0  0  0  0  0  0  0
   11.1823  -18.2304   22.5601 O   0  0  0  0  0  0  0  0  0  0  0  0
   12.9704  -17.1313   21.7830 O   0  0  0  0  0  0  0  0  0  0  0  0
  2  1  1  1
  3  4  1  0
  3  2  1  0
  4  5  2  0
  5  6  1  0
  7  6  2  0
  8  7  1  0
  9  8  2  0
  9  4  1  0
 10  2  1  0
 10 11  2  0
 12 13  1  0
 13 14  1  0
 16 15  1  1
 15 14  1  0
 16 17  1  0
 17 10  1  0
 18 16  1  0
 19 18  2  0
 20 21  1  0
 21 22  2  0
 23 21  1  0
 23 24  1  0
 25 24  1  1
 25 27  1  0
 25 26  1  0
 26 18  1  0
 27 29  1  0
 28 27  2  0
M  END
$$$$
