FMQ.pdb
     RDKit          3D

 29 29  0  0  1  0  0  0  0  0999 V2000
    6.4425  -18.1114   25.6035 N   0  0  0  0  0  0  0  0  0  0  0  0
    6.8748  -16.7961   25.1392 C   0  0  1  0  0  0  0  0  0  0  0  0
    7.7103  -16.2042   26.2598 C   0  0  0  0  0  0  0  0  0  0  0  0
    7.3048  -14.7716   26.3609 C   0  0  0  0  0  0  0  0  0  0  0  0
    5.9717  -14.4093   26.3530 C   0  0  0  0  0  0  0  0  0  0  0  0
    5.5855  -13.0805   26.4464 C   0  0  0  0  0  0  0  0  0  0  0  0
    6.5156  -12.0676   26.5510 C   0  0  0  0  0  0  0  0  0  0  0  0
    7.8432  -12.4281   26.5590 C   0  0  0  0  0  0  0  0  0  0  0  0
    8.2324  -13.7457   26.4665 C   0  0  0  0  0  0  0  0  0  0  0  0
    7.6143  -16.9199   23.8739 C   0  0  0  0  0  0  0  0  0  0  0  0
    8.1155  -18.0207   23.5489 O   0  0  0  0  0  0  0  0  0  0  0  0
    7.6120  -12.3815   18.8858 C   0  0  0  0  0  0  0  0  0  0  0  0
    6.6603  -12.4501   20.4072 S   0  0  0  0  0  0  0  0  0  0  0  0
    6.8800  -13.9941   21.3067 C   0  0  0  0  0  0  0  0  0  0  0  0
    8.0963  -14.7491   20.9122 C   0  0  0  0  0  0  0  0  0  0  0  0
    8.3529  -16.0311   21.6474 C   0  0  2  0  0  0  0  0  0  0  0  0
    7.7812  -15.8311   23.0035 N   0  0  0  0  0  0  0  0  0  0  0  0
    9.7794  -16.3522   21.8544 C   0  0  0  0  0  0  0  0  0  0  0  0
   10.4157  -17.0761   21.0060 O   0  0  0  0  0  0  0  0  0  0  0  0
   14.9711  -16.0699   21.3658 N   0  0  0  0  0  0  0  0  0  0  0  0
   14.0186  -15.2595   20.7075 C   0  0  0  0  0  0  0  0  0  0  0  0
   14.1256  -14.9575   19.5009 O   0  0  0  0  0  0  0  0  0  0  0  0
   12.8507  -14.7551   21.4940 C   0  0  0  0  0  0  0  0  0  0  0  0
   12.9328  -15.2813   22.9029 C   0  0  0  0  0  0  0  0  0  0  0  0
   11.9643  -16.3893   23.1310 C   0  0  2  0  0  0  0  0  0  0  0  0
   10.5750  -15.9274   22.9431 N   0  0  0  0  0  0  0  0  0  0  0  0
   12.0231  -17.0242   24.4562 C   0  0  0  0  0  0  0  0  0  0  0  0
   11.6409  -18.2332   24.6262 O   0  0  0  0  0  0  0  0  0  0  0  0
   12.4805  -16.4040   25.6052 O   0  0  0  0  0  0  0  0  0  0  0  0
  2  1  1  1
  3  4  1  0
  3  2  1  0
  4  5  2  0
  5  6  1  0
  7  6  2  0
  8  7  1  0
  9  8  2  0
  9  4  1  0
 10  2  1  0
 10 11  2  0
 12 13  1  0
 13 14  1  0
 16 15  1  6
 15 14  1  0
 16 17  1  0
 17 10  1  0
 18 16  1  0
 19 18  2  0
 20 21  1  0
 21 22  2  0
 23 21  1  0
 23 24  1  0
 25 24  1  1
 25 27  1  0
 25 26  1  0
 26 18  1  0
 27 29  1  0
 28 27  2  0
M  END
$$$$
