FMQ.pdb
     RDKit          3D

 29 29  0  0  1  0  0  0  0  0999 V2000
    8.7043  -16.1340   25.8804 N   0  0  0  0  0  0  0  0  0  0  0  0
    7.3684  -16.6532   25.6001 C   0  0  1  0  0  0  0  0  0  0  0  0
    6.4494  -16.0452   26.6441 C   0  0  0  0  0  0  0  0  0  0  0  0
    6.7375  -14.5810   26.6413 C   0  0  0  0  0  0  0  0  0  0  0  0
    5.8003  -13.6744   26.1848 C   0  0  0  0  0  0  0  0  0  0  0  0
    6.0593  -12.3119   26.1784 C   0  0  0  0  0  0  0  0  0  0  0  0
    7.2617  -11.8069   26.6270 C   0  0  0  0  0  0  0  0  0  0  0  0
    8.1951  -12.7095   27.0817 C   0  0  0  0  0  0  0  0  0  0  0  0
    7.9435  -14.0632   27.0903 C   0  0  0  0  0  0  0  0  0  0  0  0
    6.9721  -16.3235   24.2227 C   0  0  0  0  0  0  0  0  0  0  0  0
    5.8881  -16.7529   23.7653 O   0  0  0  0  0  0  0  0  0  0  0  0
    7.8491  -11.5106   20.2589 C   0  0  0  0  0  0  0  0  0  0  0  0
    7.9687  -12.8330   19.0497 S   0  0  0  0  0  0  0  0  0  0  0  0
    7.8185  -14.4716   19.7803 C   0  0  0  0  0  0  0  0  0  0  0  0
    7.8465  -14.4701   21.2651 C   0  0  0  0  0  0  0  0  0  0  0  0
    7.8604  -15.8130   21.9329 C   0  0  2  0  0  0  0  0  0  0  0  0
    7.7780  -15.5320   23.3890 N   0  0  0  0  0  0  0  0  0  0  0  0
    9.1029  -16.5879   21.7414 C   0  0  0  0  0  0  0  0  0  0  0  0
    9.2099  -17.4210   20.7701 O   0  0  0  0  0  0  0  0  0  0  0  0
   13.8832  -13.6397   20.9002 N   0  0  0  0  0  0  0  0  0  0  0  0
   14.5479  -14.8860   20.8520 C   0  0  0  0  0  0  0  0  0  0  0  0
   15.7236  -14.9953   20.4465 O   0  0  0  0  0  0  0  0  0  0  0  0
   13.8069  -16.1039   21.3044 C   0  0  0  0  0  0  0  0  0  0  0  0
   12.3813  -15.7329   21.6186 C   0  0  0  0  0  0  0  0  0  0  0  0
   11.5920  -16.9161   22.0600 C   0  0  2  0  0  0  0  0  0  0  0  0
   10.2596  -16.5127   22.5507 N   0  0  0  0  0  0  0  0  0  0  0  0
   12.2042  -17.7308   23.1203 C   0  0  0  0  0  0  0  0  0  0  0  0
   11.6733  -17.8096   24.2815 O   0  0  0  0  0  0  0  0  0  0  0  0
   13.3674  -18.4653   22.9743 O   0  0  0  0  0  0  0  0  0  0  0  0
  2  1  1  1
  3  4  1  0
  3  2  1  0
  4  5  2  0
  5  6  1  0
  7  6  2  0
  8  7  1  0
  9  8  2  0
  9  4  1  0
 10  2  1  0
 10 11  2  0
 12 13  1  0
 13 14  1  0
 16 15  1  6
 15 14  1  0
 16 17  1  0
 17 10  1  0
 18 16  1  0
 19 18  2  0
 20 21  1  0
 21 22  2  0
 23 21  1  0
 23 24  1  0
 25 24  1  1
 25 27  1  0
 25 26  1  0
 26 18  1  0
 27 29  1  0
 28 27  2  0
M  END
$$$$
