FMQ.pdb
     RDKit          3D

 29 29  0  0  1  0  0  0  0  0999 V2000
   10.1097  -16.8992   20.9367 N   0  0  0  0  0  0  0  0  0  0  0  0
    9.4603  -15.8336   21.6950 C   0  0  1  0  0  0  0  0  0  0  0  0
    7.9871  -15.8932   21.3341 C   0  0  0  0  0  0  0  0  0  0  0  0
    7.6586  -14.5683   20.7311 C   0  0  0  0  0  0  0  0  0  0  0  0
    8.5567  -13.5202   20.7890 C   0  0  0  0  0  0  0  0  0  0  0  0
    8.2600  -12.2854   20.2315 C   0  0  0  0  0  0  0  0  0  0  0  0
    7.0576  -12.0536   19.5970 C   0  0  0  0  0  0  0  0  0  0  0  0
    6.1631  -13.0973   19.5391 C   0  0  0  0  0  0  0  0  0  0  0  0
    6.4523  -14.3253   20.0908 C   0  0  0  0  0  0  0  0  0  0  0  0
    9.7075  -16.0086   23.1343 C   0  0  0  0  0  0  0  0  0  0  0  0
   10.6225  -16.7707   23.5223 O   0  0  0  0  0  0  0  0  0  0  0  0
    7.4098  -11.5448   27.5290 C   0  0  0  0  0  0  0  0  0  0  0  0
    6.4694  -12.5257   26.3548 S   0  0  0  0  0  0  0  0  0  0  0  0
    7.4926  -13.6687   25.4125 C   0  0  0  0  0  0  0  0  0  0  0  0
    8.5154  -14.3698   26.2295 C   0  0  0  0  0  0  0  0  0  0  0  0
    9.2794  -15.4644   25.5453 C   0  0  2  0  0  0  0  0  0  0  0  0
    8.9425  -15.3414   24.1041 N   0  0  0  0  0  0  0  0  0  0  0  0
    8.8858  -16.8330   25.9363 C   0  0  0  0  0  0  0  0  0  0  0  0
    8.2384  -17.5845   25.1208 O   0  0  0  0  0  0  0  0  0  0  0  0
   13.4855  -19.5940   25.4930 N   0  0  0  0  0  0  0  0  0  0  0  0
   12.3505  -19.9460   24.7280 C   0  0  0  0  0  0  0  0  0  0  0  0
   12.4344  -20.6572   23.7054 O   0  0  0  0  0  0  0  0  0  0  0  0
   11.0128  -19.4433   25.1697 C   0  0  0  0  0  0  0  0  0  0  0  0
   11.1868  -18.5482   26.3685 C   0  0  0  0  0  0  0  0  0  0  0  0
   10.0239  -18.6402   27.2941 C   0  0  2  0  0  0  0  0  0  0  0  0
    9.1577  -17.4506   27.1786 N   0  0  0  0  0  0  0  0  0  0  0  0
   10.3542  -18.7858   28.7197 C   0  0  0  0  0  0  0  0  0  0  0  0
   10.4756  -17.7618   29.4769 O   0  0  0  0  0  0  0  0  0  0  0  0
   10.5569  -19.9954   29.3599 O   0  0  0  0  0  0  0  0  0  0  0  0
  2  1  1  6
  3  4  1  0
  3  2  1  0
  4  5  2  0
  5  6  1  0
  7  6  2  0
  8  7  1  0
  9  8  2  0
  9  4  1  0
 10  2  1  0
 10 11  2  0
 12 13  1  0
 13 14  1  0
 16 15  1  1
 15 14  1  0
 16 17  1  0
 17 10  1  0
 18 16  1  0
 19 18  2  0
 20 21  1  0
 21 22  2  0
 23 21  1  0
 23 24  1  0
 25 24  1  6
 25 27  1  0
 25 26  1  0
 26 18  1  0
 27 29  1  0
 28 27  2  0
M  END
$$$$
