FMQ.pdb
     RDKit          3D

 29 29  0  0  1  0  0  0  0  0999 V2000
    9.8655  -17.6577   26.2926 N   0  0  0  0  0  0  0  0  0  0  0  0
    8.4297  -17.8434   26.4843 C   0  0  1  0  0  0  0  0  0  0  0  0
    8.1598  -17.5750   27.9537 C   0  0  0  0  0  0  0  0  0  0  0  0
    8.9865  -16.3855   28.3120 C   0  0  0  0  0  0  0  0  0  0  0  0
   10.1970  -16.5323   28.9615 C   0  0  0  0  0  0  0  0  0  0  0  0
   10.9720  -15.4326   29.2985 C   0  0  0  0  0  0  0  0  0  0  0  0
   10.5665  -14.1489   28.9991 C   0  0  0  0  0  0  0  0  0  0  0  0
    9.3612  -14.0024   28.3523 C   0  0  0  0  0  0  0  0  0  0  0  0
    8.5876  -15.0905   28.0153 C   0  0  0  0  0  0  0  0  0  0  0  0
    7.6765  -16.9523   25.5889 C   0  0  0  0  0  0  0  0  0  0  0  0
    6.4623  -17.1678   25.3704 O   0  0  0  0  0  0  0  0  0  0  0  0
    7.4014  -10.8716   26.1154 C   0  0  0  0  0  0  0  0  0  0  0  0
    6.1405  -12.1160   26.4097 S   0  0  0  0  0  0  0  0  0  0  0  0
    6.6196  -13.7539   25.8361 C   0  0  0  0  0  0  0  0  0  0  0  0
    7.2611  -13.7555   24.4968 C   0  0  0  0  0  0  0  0  0  0  0  0
    7.5582  -15.0998   23.9015 C   0  0  2  0  0  0  0  0  0  0  0  0
    8.2794  -15.8511   24.9604 N   0  0  0  0  0  0  0  0  0  0  0  0
    8.4646  -15.0751   22.7359 C   0  0  0  0  0  0  0  0  0  0  0  0
    9.2437  -14.0743   22.5355 O   0  0  0  0  0  0  0  0  0  0  0  0
   12.8682  -17.0004   23.9750 N   0  0  0  0  0  0  0  0  0  0  0  0
   13.2841  -17.1330   22.6309 C   0  0  0  0  0  0  0  0  0  0  0  0
   14.4619  -17.4131   22.3256 O   0  0  0  0  0  0  0  0  0  0  0  0
   12.2703  -16.9285   21.5505 C   0  0  0  0  0  0  0  0  0  0  0  0
   10.9365  -16.6066   22.1719 C   0  0  0  0  0  0  0  0  0  0  0  0
    9.8773  -16.4384   21.1388 C   0  0  2  0  0  0  0  0  0  0  0  0
    8.5834  -16.0880   21.7568 N   0  0  0  0  0  0  0  0  0  0  0  0
    9.6330  -17.6073   20.2806 C   0  0  0  0  0  0  0  0  0  0  0  0
    8.6626  -18.4072   20.5154 O   0  0  0  0  0  0  0  0  0  0  0  0
   10.3958  -17.9451   19.1769 O   0  0  0  0  0  0  0  0  0  0  0  0
  2  1  1  1
  3  4  1  0
  3  2  1  0
  4  5  2  0
  5  6  1  0
  7  6  2  0
  8  7  1  0
  9  8  2  0
  9  4  1  0
 10  2  1  0
 10 11  2  0
 12 13  1  0
 13 14  1  0
 16 15  1  1
 15 14  1  0
 16 17  1  0
 17 10  1  0
 18 16  1  0
 19 18  2  0
 20 21  1  0
 21 22  2  0
 23 21  1  0
 23 24  1  0
 25 24  1  1
 25 27  1  0
 25 26  1  0
 26 18  1  0
 27 29  1  0
 28 27  2  0
M  END
$$$$
