FMQ.pdb
     RDKit          3D

 29 29  0  0  1  0  0  0  0  0999 V2000
    8.6100  -23.2222   30.7992 N   0  0  0  0  0  0  0  0  0  0  0  0
    9.0967  -22.0830   31.5725 C   0  0  1  0  0  0  0  0  0  0  0  0
    9.8878  -22.6633   32.7307 C   0  0  0  0  0  0  0  0  0  0  0  0
    8.9010  -23.4015   33.5723 C   0  0  0  0  0  0  0  0  0  0  0  0
    8.9393  -24.7792   33.6668 C   0  0  0  0  0  0  0  0  0  0  0  0
    8.0263  -25.4737   34.4464 C   0  0  0  0  0  0  0  0  0  0  0  0
    7.0439  -24.8180   35.1584 C   0  0  0  0  0  0  0  0  0  0  0  0
    7.0056  -23.4459   35.0645 C   0  0  0  0  0  0  0  0  0  0  0  0
    7.9094  -22.7513   34.2921 C   0  0  0  0  0  0  0  0  0  0  0  0
    9.8967  -21.1917   30.7187 C   0  0  0  0  0  0  0  0  0  0  0  0
   10.5094  -21.6579   29.7309 O   0  0  0  0  0  0  0  0  0  0  0  0
   10.3536  -14.3580   30.4103 C   0  0  0  0  0  0  0  0  0  0  0  0
    8.8675  -15.3655   30.3724 S   0  0  0  0  0  0  0  0  0  0  0  0
    9.2028  -17.1037   30.0446 C   0  0  0  0  0  0  0  0  0  0  0  0
   10.5427  -17.5517   30.5017 C   0  0  0  0  0  0  0  0  0  0  0  0
   10.9196  -18.9665   30.1761 C   0  0  2  0  0  0  0  0  0  0  0  0
    9.9997  -19.8153   30.9754 N   0  0  0  0  0  0  0  0  0  0  0  0
   12.2845  -19.3544   30.5855 C   0  0  0  0  0  0  0  0  0  0  0  0
   12.5884  -19.4596   31.8286 O   0  0  0  0  0  0  0  0  0  0  0  0
   15.0662  -24.1698   30.5593 N   0  0  0  0  0  0  0  0  0  0  0  0
   16.2183  -23.4313   30.9122 C   0  0  0  0  0  0  0  0  0  0  0  0
   17.2742  -23.9858   31.2815 O   0  0  0  0  0  0  0  0  0  0  0  0
   16.1560  -21.9389   30.8360 C   0  0  0  0  0  0  0  0  0  0  0  0
   14.8156  -21.5225   30.2895 C   0  0  0  0  0  0  0  0  0  0  0  0
   14.6919  -20.0404   30.2128 C   0  0  2  0  0  0  0  0  0  0  0  0
   13.3602  -19.6437   29.7149 N   0  0  0  0  0  0  0  0  0  0  0  0
   15.6808  -19.3617   29.3620 C   0  0  0  0  0  0  0  0  0  0  0  0
   15.3185  -18.6963   28.3311 O   0  0  0  0  0  0  0  0  0  0  0  0
   17.0466  -19.3725   29.5825 O   0  0  0  0  0  0  0  0  0  0  0  0
  2  1  1  6
  3  4  1  0
  3  2  1  0
  4  5  2  0
  5  6  1  0
  7  6  2  0
  8  7  1  0
  9  8  2  0
  9  4  1  0
 10  2  1  0
 10 11  2  0
 12 13  1  0
 13 14  1  0
 16 15  1  1
 15 14  1  0
 16 17  1  0
 17 10  1  0
 18 16  1  0
 19 18  2  0
 20 21  1  0
 21 22  2  0
 23 21  1  0
 23 24  1  0
 25 24  1  6
 25 27  1  0
 25 26  1  0
 26 18  1  0
 27 29  1  0
 28 27  2  0
M  END
$$$$
