YFK.pdb
     RDKit          3D

 33 34  0  0  1  0  0  0  0  0999 V2000
   10.5647  -21.9200   16.8780 O   0  0  0  0  0  0  0  0  0  0  0  0
   10.5837  -21.0400   17.9707 C   0  0  0  0  0  0  0  0  0  0  0  0
   11.0279  -21.4437   19.2114 C   0  0  0  0  0  0  0  0  0  0  0  0
   11.0461  -20.5785   20.2838 C   0  0  0  0  0  0  0  0  0  0  0  0
   10.6156  -19.2518   20.1650 C   0  0  0  0  0  0  0  0  0  0  0  0
   10.6317  -18.3317   21.3275 C   0  0  0  0  0  0  0  0  0  0  0  0
    9.9107  -17.0596   21.0883 C   0  0  2  0  0  0  0  0  0  0  0  0
   10.4801  -16.3028   19.9695 N   0  0  0  0  0  0  0  0  0  0  0  0
    9.7650  -16.1495   22.2188 C   0  0  0  0  0  0  0  0  0  0  0  0
   10.8320  -15.9020   22.8840 O   0  0  0  0  0  0  0  0  0  0  0  0
   10.1771  -18.8771   18.9128 C   0  0  0  0  0  0  0  0  0  0  0  0
   10.1563  -19.7370   17.8367 C   0  0  0  0  0  0  0  0  0  0  0  0
    8.5497  -15.5407   22.6138 N   0  0  0  0  0  0  0  0  0  0  0  0
    8.5097  -14.7162   23.7961 C   0  0  1  0  0  0  0  0  0  0  0  0
    7.2345  -13.8996   23.8505 C   0  0  0  0  0  0  0  0  0  0  0  0
    7.1286  -13.0823   25.0596 C   0  0  0  0  0  0  0  0  0  0  0  0
    7.9247  -11.9812   25.2578 C   0  0  0  0  0  0  0  0  0  0  0  0
    7.8323  -11.2003   26.4096 C   0  0  0  0  0  0  0  0  0  0  0  0
    6.9264  -11.5153   27.3962 C   0  0  0  0  0  0  0  0  0  0  0  0
    6.1228  -12.6183   27.2066 C   0  0  0  0  0  0  0  0  0  0  0  0
    6.2217  -13.3945   26.0511 C   0  0  0  0  0  0  0  0  0  0  0  0
    8.7269  -15.5624   24.9841 C   0  0  0  0  0  0  0  0  0  0  0  0
    8.0265  -16.6091   25.1573 O   0  0  0  0  0  0  0  0  0  0  0  0
    9.6953  -15.3003   25.9969 N   0  0  0  0  0  0  0  0  0  0  0  0
    9.9706  -16.2570   27.0837 C   0  0  1  0  0  0  0  0  0  0  0  0
   11.2477  -16.9697   26.6747 C   0  0  0  0  0  0  0  0  0  0  0  0
   11.0833  -18.4404   26.4645 C   0  0  0  0  0  0  0  0  0  0  0  0
   12.4679  -18.9779   26.0778 C   0  0  0  0  0  0  0  0  0  0  0  0
   12.4266  -20.4756   25.8944 C   0  0  0  0  0  0  0  0  0  0  0  0
   13.1317  -20.8684   24.6973 N   0  0  0  0  0  0  0  0  0  0  0  0
   10.0545  -15.5801   28.3712 C   0  0  0  0  0  0  0  0  0  0  0  0
   10.1149  -14.3282   28.4115 O   0  0  0  0  0  0  0  0  0  0  0  0
   10.0702  -16.2639   29.5711 O   0  0  0  0  0  0  0  0  0  0  0  0
  2  1  1  0
  3  2  2  0
  4  3  1  0
  5 11  1  0
  5  4  2  0
  6  5  1  0
  7  6  1  0
  7  8  1  6
  9  7  1  0
  9 10  2  0
 11 12  2  0
 12  2  1  0
 13  9  1  0
 14 13  1  0
 14 15  1  1
 16 15  1  0
 16 17  2  0
 17 18  1  0
 19 18  2  0
 20 19  1  0
 21 20  2  0
 21 16  1  0
 22 14  1  0
 23 22  2  0
 24 22  1  0
 25 24  1  0
 26 27  1  0
 25 26  1  6
 28 29  1  0
 28 27  1  0
 29 30  1  0
 31 25  1  0
 31 33  1  0
 32 31  2  0
M  END
$$$$
