YFK.pdb
     RDKit          3D

 33 34  0  0  1  0  0  0  0  0999 V2000
    9.1192  -21.8070   16.3319 O   0  0  0  0  0  0  0  0  0  0  0  0
    9.1792  -21.0161   17.4893 C   0  0  0  0  0  0  0  0  0  0  0  0
    8.0781  -20.3235   17.9448 C   0  0  0  0  0  0  0  0  0  0  0  0
    8.1383  -19.5471   19.0817 C   0  0  0  0  0  0  0  0  0  0  0  0
    9.3172  -19.4250   19.8265 C   0  0  0  0  0  0  0  0  0  0  0  0
    9.3730  -18.5802   21.0437 C   0  0  0  0  0  0  0  0  0  0  0  0
    9.4350  -17.1280   20.7566 C   0  0  2  0  0  0  0  0  0  0  0  0
   10.5743  -16.7810   19.9022 N   0  0  0  0  0  0  0  0  0  0  0  0
    9.4353  -16.2190   21.8974 C   0  0  0  0  0  0  0  0  0  0  0  0
   10.5554  -16.0759   22.5033 O   0  0  0  0  0  0  0  0  0  0  0  0
   10.4012  -20.1288   19.3467 C   0  0  0  0  0  0  0  0  0  0  0  0
   10.3478  -20.9066   18.2110 C   0  0  0  0  0  0  0  0  0  0  0  0
    8.3042  -15.5059   22.3620 N   0  0  0  0  0  0  0  0  0  0  0  0
    8.3807  -14.7601   23.5937 C   0  0  1  0  0  0  0  0  0  0  0  0
    7.2180  -13.7971   23.7229 C   0  0  0  0  0  0  0  0  0  0  0  0
    7.1741  -13.1228   25.0209 C   0  0  0  0  0  0  0  0  0  0  0  0
    6.3411  -13.5474   26.0264 C   0  0  0  0  0  0  0  0  0  0  0  0
    6.2908  -12.9069   27.2642 C   0  0  0  0  0  0  0  0  0  0  0  0
    7.0872  -11.8140   27.5179 C   0  0  0  0  0  0  0  0  0  0  0  0
    7.9270  -11.3802   26.5153 C   0  0  0  0  0  0  0  0  0  0  0  0
    7.9710  -12.0267   25.2794 C   0  0  0  0  0  0  0  0  0  0  0  0
    8.5040  -15.7009   24.7225 C   0  0  0  0  0  0  0  0  0  0  0  0
    7.7796  -16.7448   24.7638 O   0  0  0  0  0  0  0  0  0  0  0  0
    9.4033  -15.5372   25.8165 N   0  0  0  0  0  0  0  0  0  0  0  0
    9.7613  -16.6535   26.7099 C   0  0  1  0  0  0  0  0  0  0  0  0
   10.5915  -17.5970   25.8573 C   0  0  0  0  0  0  0  0  0  0  0  0
   11.1742  -18.7471   26.6136 C   0  0  0  0  0  0  0  0  0  0  0  0
   11.9554  -19.5838   25.5912 C   0  0  0  0  0  0  0  0  0  0  0  0
   12.6437  -20.7450   26.2665 C   0  0  0  0  0  0  0  0  0  0  0  0
   13.4494  -21.4855   25.3247 N   0  0  0  0  0  0  0  0  0  0  0  0
   10.4460  -16.1731   27.9029 C   0  0  0  0  0  0  0  0  0  0  0  0
   10.7958  -16.9889   28.7887 O   0  0  0  0  0  0  0  0  0  0  0  0
   10.7341  -14.8380   28.1081 O   0  0  0  0  0  0  0  0  0  0  0  0
  2  1  1  0
  3  2  2  0
  4  3  1  0
  5 11  1  0
  5  4  2  0
  6  5  1  0
  7  6  1  0
  7  8  1  1
  9  7  1  0
  9 10  2  0
 11 12  2  0
 12  2  1  0
 13  9  1  0
 14 13  1  0
 14 15  1  1
 16 15  1  0
 16 17  2  0
 17 18  1  0
 19 18  2  0
 20 19  1  0
 21 20  2  0
 21 16  1  0
 22 14  1  0
 23 22  2  0
 24 22  1  0
 25 24  1  0
 26 27  1  0
 25 26  1  6
 28 29  1  0
 28 27  1  0
 29 30  1  0
 31 25  1  0
 31 33  1  0
 32 31  2  0
M  END
$$$$
