YFK.pdb
     RDKit          3D

 33 34  0  0  1  0  0  0  0  0999 V2000
    7.0397  -13.8759   15.5325 O   0  0  0  0  0  0  0  0  0  0  0  0
    7.8534  -14.1045   16.6525 C   0  0  0  0  0  0  0  0  0  0  0  0
    8.6327  -15.2366   16.7560 C   0  0  0  0  0  0  0  0  0  0  0  0
    9.4314  -15.4600   17.8566 C   0  0  0  0  0  0  0  0  0  0  0  0
    9.4895  -14.5505   18.9191 C   0  0  0  0  0  0  0  0  0  0  0  0
   10.3461  -14.8049   20.1023 C   0  0  0  0  0  0  0  0  0  0  0  0
    9.8177  -15.8557   21.0034 C   0  0  2  0  0  0  0  0  0  0  0  0
    8.5821  -16.4545   20.4903 N   0  0  0  0  0  0  0  0  0  0  0  0
    9.5956  -15.4922   22.3983 C   0  0  0  0  0  0  0  0  0  0  0  0
   10.6357  -15.1481   23.0633 O   0  0  0  0  0  0  0  0  0  0  0  0
    8.6995  -13.4284   18.7873 C   0  0  0  0  0  0  0  0  0  0  0  0
    7.8989  -13.1990   17.6900 C   0  0  0  0  0  0  0  0  0  0  0  0
    8.3356  -15.4970   23.0433 N   0  0  0  0  0  0  0  0  0  0  0  0
    8.1924  -14.8953   24.3459 C   0  0  1  0  0  0  0  0  0  0  0  0
    7.0149  -13.9424   24.3817 C   0  0  0  0  0  0  0  0  0  0  0  0
    6.9305  -13.1824   25.6293 C   0  0  0  0  0  0  0  0  0  0  0  0
    5.9344  -13.4100   26.5464 C   0  0  0  0  0  0  0  0  0  0  0  0
    5.8453  -12.6866   27.7354 C   0  0  0  0  0  0  0  0  0  0  0  0
    6.7677  -11.7086   28.0287 C   0  0  0  0  0  0  0  0  0  0  0  0
    7.7715  -11.4728   27.1148 C   0  0  0  0  0  0  0  0  0  0  0  0
    7.8533  -12.2012   25.9273 C   0  0  0  0  0  0  0  0  0  0  0  0
    8.1305  -15.9583   25.3661 C   0  0  0  0  0  0  0  0  0  0  0  0
    7.8751  -15.6653   26.5765 O   0  0  0  0  0  0  0  0  0  0  0  0
    8.3382  -17.3439   25.1032 N   0  0  0  0  0  0  0  0  0  0  0  0
    8.3553  -18.3513   26.1789 C   0  0  1  0  0  0  0  0  0  0  0  0
    8.1734  -19.6866   25.4788 C   0  0  0  0  0  0  0  0  0  0  0  0
    8.1934  -20.8641   26.3994 C   0  0  0  0  0  0  0  0  0  0  0  0
    8.0193  -22.1059   25.5145 C   0  0  0  0  0  0  0  0  0  0  0  0
    8.0108  -23.3613   26.3526 C   0  0  0  0  0  0  0  0  0  0  0  0
    7.7906  -24.5282   25.5315 N   0  0  0  0  0  0  0  0  0  0  0  0
    9.5760  -18.2563   26.9687 C   0  0  0  0  0  0  0  0  0  0  0  0
    9.5417  -18.5061   28.1971 O   0  0  0  0  0  0  0  0  0  0  0  0
   10.7914  -17.8983   26.4188 O   0  0  0  0  0  0  0  0  0  0  0  0
  2  1  1  0
  3  2  2  0
  4  3  1  0
  5 11  1  0
  5  4  2  0
  6  5  1  0
  7  6  1  0
  7  8  1  6
  9  7  1  0
  9 10  2  0
 11 12  2  0
 12  2  1  0
 13  9  1  0
 14 13  1  0
 14 15  1  6
 16 15  1  0
 16 17  2  0
 17 18  1  0
 19 18  2  0
 20 19  1  0
 21 20  2  0
 21 16  1  0
 22 14  1  0
 23 22  2  0
 24 22  1  0
 25 24  1  0
 26 27  1  0
 25 26  1  6
 28 29  1  0
 28 27  1  0
 29 30  1  0
 31 25  1  0
 31 33  1  0
 32 31  2  0
M  END
$$$$
