YFK.pdb
     RDKit          3D

 33 34  0  0  1  0  0  0  0  0999 V2000
    7.0014  -13.1547   15.7099 O   0  0  0  0  0  0  0  0  0  0  0  0
    7.2007  -13.6170   17.0196 C   0  0  0  0  0  0  0  0  0  0  0  0
    7.3797  -14.9566   17.2898 C   0  0  0  0  0  0  0  0  0  0  0  0
    7.5754  -15.4095   18.5765 C   0  0  0  0  0  0  0  0  0  0  0  0
    7.6018  -14.5332   19.6678 C   0  0  0  0  0  0  0  0  0  0  0  0
    7.8048  -15.0322   21.0492 C   0  0  0  0  0  0  0  0  0  0  0  0
    8.8831  -16.0418   21.1636 C   0  0  2  0  0  0  0  0  0  0  0  0
    8.5818  -17.2612   20.4082 N   0  0  0  0  0  0  0  0  0  0  0  0
    9.2928  -16.4349   22.5071 C   0  0  0  0  0  0  0  0  0  0  0  0
    8.9507  -17.6129   22.8783 O   0  0  0  0  0  0  0  0  0  0  0  0
    7.4200  -13.2002   19.3667 C   0  0  0  0  0  0  0  0  0  0  0  0
    7.2239  -12.7409   18.0828 C   0  0  0  0  0  0  0  0  0  0  0  0
   10.0247  -15.6162   23.4002 N   0  0  0  0  0  0  0  0  0  0  0  0
    9.3660  -15.0275   24.5398 C   0  0  1  0  0  0  0  0  0  0  0  0
    8.0957  -14.3117   24.1277 C   0  0  0  0  0  0  0  0  0  0  0  0
    7.4549  -13.5994   25.2337 C   0  0  0  0  0  0  0  0  0  0  0  0
    6.7812  -14.2663   26.2271 C   0  0  0  0  0  0  0  0  0  0  0  0
    6.1644  -13.5937   27.2816 C   0  0  0  0  0  0  0  0  0  0  0  0
    6.2139  -12.2208   27.3587 C   0  0  0  0  0  0  0  0  0  0  0  0
    6.8879  -11.5424   26.3667 C   0  0  0  0  0  0  0  0  0  0  0  0
    7.5022  -12.2231   25.3148 C   0  0  0  0  0  0  0  0  0  0  0  0
    9.1597  -16.0636   25.5686 C   0  0  0  0  0  0  0  0  0  0  0  0
    9.1875  -15.7522   26.8008 O   0  0  0  0  0  0  0  0  0  0  0  0
    8.9196  -17.4412   25.2914 N   0  0  0  0  0  0  0  0  0  0  0  0
    8.8095  -18.4480   26.3622 C   0  0  1  0  0  0  0  0  0  0  0  0
    8.5830  -19.7686   25.6473 C   0  0  0  0  0  0  0  0  0  0  0  0
    8.4571  -20.9428   26.5635 C   0  0  0  0  0  0  0  0  0  0  0  0
    6.9748  -21.0294   26.9517 C   0  0  0  0  0  0  0  0  0  0  0  0
    6.7390  -22.1759   27.9048 C   0  0  0  0  0  0  0  0  0  0  0  0
    6.4574  -21.6911   29.2352 N   0  0  0  0  0  0  0  0  0  0  0  0
    9.9859  -18.4321   27.2216 C   0  0  0  0  0  0  0  0  0  0  0  0
    9.8573  -18.6266   28.4538 O   0  0  0  0  0  0  0  0  0  0  0  0
   11.2593  -18.2097   26.7350 O   0  0  0  0  0  0  0  0  0  0  0  0
  2  1  1  0
  3  2  2  0
  4  3  1  0
  5 11  1  0
  5  4  2  0
  6  5  1  0
  7  6  1  0
  7  8  1  6
  9  7  1  0
  9 10  2  0
 11 12  2  0
 12  2  1  0
 13  9  1  0
 14 13  1  0
 14 15  1  6
 16 15  1  0
 16 17  2  0
 17 18  1  0
 19 18  2  0
 20 19  1  0
 21 20  2  0
 21 16  1  0
 22 14  1  0
 23 22  2  0
 24 22  1  0
 25 24  1  0
 26 27  1  0
 25 26  1  6
 28 29  1  0
 28 27  1  0
 29 30  1  0
 31 25  1  0
 31 33  1  0
 32 31  2  0
M  END
$$$$
