YFK.pdb
     RDKit          3D

 33 34  0  0  1  0  0  0  0  0999 V2000
    8.1096  -22.9607   17.6117 O   0  0  0  0  0  0  0  0  0  0  0  0
    8.3575  -22.0234   18.6260 C   0  0  0  0  0  0  0  0  0  0  0  0
    7.3373  -21.2899   19.1922 C   0  0  0  0  0  0  0  0  0  0  0  0
    7.5821  -20.3697   20.1884 C   0  0  0  0  0  0  0  0  0  0  0  0
    8.8749  -20.1365   20.6718 C   0  0  0  0  0  0  0  0  0  0  0  0
    9.1281  -19.1380   21.7382 C   0  0  0  0  0  0  0  0  0  0  0  0
    9.1817  -17.7421   21.2444 C   0  0  2  0  0  0  0  0  0  0  0  0
   10.2957  -17.5258   20.3166 N   0  0  0  0  0  0  0  0  0  0  0  0
    9.2153  -16.6793   22.2427 C   0  0  0  0  0  0  0  0  0  0  0  0
   10.3778  -16.3250   22.6495 O   0  0  0  0  0  0  0  0  0  0  0  0
    9.8743  -20.8845   20.0865 C   0  0  0  0  0  0  0  0  0  0  0  0
    9.6364  -21.8059   19.0904 C   0  0  0  0  0  0  0  0  0  0  0  0
    8.0729  -16.0341   22.7741 N   0  0  0  0  0  0  0  0  0  0  0  0
    8.2206  -15.0695   23.8356 C   0  0  1  0  0  0  0  0  0  0  0  0
    7.0570  -14.0993   23.8587 C   0  0  0  0  0  0  0  0  0  0  0  0
    7.0838  -13.1998   25.0126 C   0  0  0  0  0  0  0  0  0  0  0  0
    6.2335  -13.3675   26.0776 C   0  0  0  0  0  0  0  0  0  0  0  0
    6.2505  -12.5116   27.1786 C   0  0  0  0  0  0  0  0  0  0  0  0
    7.1337  -11.4578   27.2305 C   0  0  0  0  0  0  0  0  0  0  0  0
    7.9913  -11.2812   26.1666 C   0  0  0  0  0  0  0  0  0  0  0  0
    7.9677  -12.1422   25.0687 C   0  0  0  0  0  0  0  0  0  0  0  0
    8.4295  -15.7805   25.1105 C   0  0  0  0  0  0  0  0  0  0  0  0
    7.6178  -16.6891   25.4734 O   0  0  0  0  0  0  0  0  0  0  0  0
    9.5079  -15.5298   26.0085 N   0  0  0  0  0  0  0  0  0  0  0  0
    9.7562  -16.3755   27.1898 C   0  0  1  0  0  0  0  0  0  0  0  0
   10.8569  -17.3342   26.7707 C   0  0  0  0  0  0  0  0  0  0  0  0
   11.3105  -18.2531   27.8588 C   0  0  0  0  0  0  0  0  0  0  0  0
   12.4656  -19.0769   27.2736 C   0  0  0  0  0  0  0  0  0  0  0  0
   12.9479  -20.1026   28.2704 C   0  0  0  0  0  0  0  0  0  0  0  0
   14.0992  -20.8119   27.7645 N   0  0  0  0  0  0  0  0  0  0  0  0
   10.0857  -15.5662   28.3557 C   0  0  0  0  0  0  0  0  0  0  0  0
   10.5926  -14.4298   28.1994 O   0  0  0  0  0  0  0  0  0  0  0  0
    9.8617  -15.9984   29.6483 O   0  0  0  0  0  0  0  0  0  0  0  0
  2  1  1  0
  3  2  2  0
  4  3  1  0
  5 11  1  0
  5  4  2  0
  6  5  1  0
  7  6  1  0
  7  8  1  1
  9  7  1  0
  9 10  2  0
 11 12  2  0
 12  2  1  0
 13  9  1  0
 14 13  1  0
 14 15  1  1
 16 15  1  0
 16 17  2  0
 17 18  1  0
 19 18  2  0
 20 19  1  0
 21 20  2  0
 21 16  1  0
 22 14  1  0
 23 22  2  0
 24 22  1  0
 25 24  1  0
 26 27  1  0
 25 26  1  6
 28 29  1  0
 28 27  1  0
 29 30  1  0
 31 25  1  0
 31 33  1  0
 32 31  2  0
M  END
$$$$
