YFK.pdb
     RDKit          3D

 33 34  0  0  1  0  0  0  0  0999 V2000
    7.5338  -14.6065   14.2694 O   0  0  0  0  0  0  0  0  0  0  0  0
    8.0547  -14.5589   15.5713 C   0  0  0  0  0  0  0  0  0  0  0  0
    7.6289  -13.6163   16.4822 C   0  0  0  0  0  0  0  0  0  0  0  0
    8.1413  -13.5705   17.7606 C   0  0  0  0  0  0  0  0  0  0  0  0
    9.1161  -14.4767   18.1943 C   0  0  0  0  0  0  0  0  0  0  0  0
    9.6666  -14.4132   19.5695 C   0  0  0  0  0  0  0  0  0  0  0  0
    9.3203  -15.5882   20.4030 C   0  0  2  0  0  0  0  0  0  0  0  0
    7.9902  -16.1175   20.0877 N   0  0  0  0  0  0  0  0  0  0  0  0
    9.4110  -15.4330   21.8504 C   0  0  0  0  0  0  0  0  0  0  0  0
   10.5755  -15.1714   22.3171 O   0  0  0  0  0  0  0  0  0  0  0  0
    9.5222  -15.4073   17.2617 C   0  0  0  0  0  0  0  0  0  0  0  0
    9.0141  -15.4584   15.9823 C   0  0  0  0  0  0  0  0  0  0  0  0
    8.3204  -15.5508   22.7450 N   0  0  0  0  0  0  0  0  0  0  0  0
    8.4132  -14.9888   24.0697 C   0  0  1  0  0  0  0  0  0  0  0  0
    7.2879  -14.0074   24.3274 C   0  0  0  0  0  0  0  0  0  0  0  0
    7.3366  -13.4184   25.6660 C   0  0  0  0  0  0  0  0  0  0  0  0
    6.3424  -13.6379   26.5872 C   0  0  0  0  0  0  0  0  0  0  0  0
    6.3802  -13.0762   27.8632 C   0  0  0  0  0  0  0  0  0  0  0  0
    7.4314  -12.2733   28.2420 C   0  0  0  0  0  0  0  0  0  0  0  0
    8.4343  -12.0471   27.3247 C   0  0  0  0  0  0  0  0  0  0  0  0
    8.3888  -12.6129   26.0499 C   0  0  0  0  0  0  0  0  0  0  0  0
    8.4879  -16.0827   25.0557 C   0  0  0  0  0  0  0  0  0  0  0  0
    7.4864  -16.8437   25.2399 O   0  0  0  0  0  0  0  0  0  0  0  0
    9.6331  -16.3757   25.8526 N   0  0  0  0  0  0  0  0  0  0  0  0
    9.6696  -17.5202   26.7806 C   0  0  1  0  0  0  0  0  0  0  0  0
   10.6723  -18.4898   26.1799 C   0  0  0  0  0  0  0  0  0  0  0  0
   10.3577  -18.8994   24.7773 C   0  0  0  0  0  0  0  0  0  0  0  0
   11.4724  -19.8637   24.3495 C   0  0  0  0  0  0  0  0  0  0  0  0
   11.2067  -20.4065   22.9664 C   0  0  0  0  0  0  0  0  0  0  0  0
   12.2877  -21.2583   22.5301 N   0  0  0  0  0  0  0  0  0  0  0  0
    9.9969  -17.0897   28.1335 C   0  0  0  0  0  0  0  0  0  0  0  0
   10.0031  -17.9271   29.0670 O   0  0  0  0  0  0  0  0  0  0  0  0
   10.3069  -15.7797   28.4424 O   0  0  0  0  0  0  0  0  0  0  0  0
  2  1  1  0
  3  2  2  0
  4  3  1  0
  5 11  1  0
  5  4  2  0
  6  5  1  0
  7  6  1  0
  7  8  1  1
  9  7  1  0
  9 10  2  0
 11 12  2  0
 12  2  1  0
 13  9  1  0
 14 13  1  0
 14 15  1  1
 16 15  1  0
 16 17  2  0
 17 18  1  0
 19 18  2  0
 20 19  1  0
 21 20  2  0
 21 16  1  0
 22 14  1  0
 23 22  2  0
 24 22  1  0
 25 24  1  0
 26 27  1  0
 25 26  1  6
 28 29  1  0
 28 27  1  0
 29 30  1  0
 31 25  1  0
 31 33  1  0
 32 31  2  0
M  END
$$$$
