YFK.pdb
     RDKit          3D

 33 34  0  0  1  0  0  0  0  0999 V2000
    8.6796  -19.7925   14.1869 O   0  0  0  0  0  0  0  0  0  0  0  0
    8.8487  -18.9504   15.2964 C   0  0  0  0  0  0  0  0  0  0  0  0
    8.0508  -17.8428   15.4866 C   0  0  0  0  0  0  0  0  0  0  0  0
    8.2178  -17.0164   16.5767 C   0  0  0  0  0  0  0  0  0  0  0  0
    9.2029  -17.2617   17.5405 C   0  0  0  0  0  0  0  0  0  0  0  0
    9.3794  -16.3613   18.7052 C   0  0  0  0  0  0  0  0  0  0  0  0
    8.9283  -16.9525   19.9868 C   0  0  2  0  0  0  0  0  0  0  0  0
    7.5796  -17.5183   19.8907 N   0  0  0  0  0  0  0  0  0  0  0  0
    8.9756  -16.1015   21.1704 C   0  0  0  0  0  0  0  0  0  0  0  0
   10.0958  -15.5249   21.4053 O   0  0  0  0  0  0  0  0  0  0  0  0
    9.9851  -18.3760   17.3235 C   0  0  0  0  0  0  0  0  0  0  0  0
    9.8234  -19.2061   16.2360 C   0  0  0  0  0  0  0  0  0  0  0  0
    7.8889  -15.8807   22.0502 N   0  0  0  0  0  0  0  0  0  0  0  0
    8.0823  -15.1073   23.2517 C   0  0  1  0  0  0  0  0  0  0  0  0
    6.7834  -14.4765   23.7110 C   0  0  0  0  0  0  0  0  0  0  0  0
    6.9188  -13.7344   24.9649 C   0  0  0  0  0  0  0  0  0  0  0  0
    6.7272  -14.3368   26.1838 C   0  0  0  0  0  0  0  0  0  0  0  0
    6.8502  -13.6347   27.3824 C   0  0  0  0  0  0  0  0  0  0  0  0
    7.1725  -12.2970   27.3785 C   0  0  0  0  0  0  0  0  0  0  0  0
    7.3671  -11.6834   26.1602 C   0  0  0  0  0  0  0  0  0  0  0  0
    7.2419  -12.3932   24.9653 C   0  0  0  0  0  0  0  0  0  0  0  0
    8.7286  -15.9524   24.2728 C   0  0  0  0  0  0  0  0  0  0  0  0
    8.1974  -17.0552   24.6161 O   0  0  0  0  0  0  0  0  0  0  0  0
    9.9488  -15.6291   24.9352 N   0  0  0  0  0  0  0  0  0  0  0  0
   10.8009  -16.6601   25.5544 C   0  0  1  0  0  0  0  0  0  0  0  0
   12.1512  -16.5248   24.8727 C   0  0  0  0  0  0  0  0  0  0  0  0
   13.1801  -17.4916   25.3633 C   0  0  0  0  0  0  0  0  0  0  0  0
   14.4394  -17.2450   24.5213 C   0  0  0  0  0  0  0  0  0  0  0  0
   15.5403  -18.1993   24.9158 C   0  0  0  0  0  0  0  0  0  0  0  0
   16.6689  -18.0821   24.0231 N   0  0  0  0  0  0  0  0  0  0  0  0
   10.8481  -16.5030   27.0021 C   0  0  0  0  0  0  0  0  0  0  0  0
   10.4769  -15.4238   27.5218 O   0  0  0  0  0  0  0  0  0  0  0  0
   11.2895  -17.5044   27.8447 O   0  0  0  0  0  0  0  0  0  0  0  0
  2  1  1  0
  3  2  2  0
  4  3  1  0
  5 11  1  0
  5  4  2  0
  6  5  1  0
  7  6  1  0
  7  8  1  6
  9  7  1  0
  9 10  2  0
 11 12  2  0
 12  2  1  0
 13  9  1  0
 14 13  1  0
 14 15  1  1
 16 15  1  0
 16 17  2  0
 17 18  1  0
 19 18  2  0
 20 19  1  0
 21 20  2  0
 21 16  1  0
 22 14  1  0
 23 22  2  0
 24 22  1  0
 25 24  1  0
 26 27  1  0
 25 26  1  6
 28 29  1  0
 28 27  1  0
 29 30  1  0
 31 25  1  0
 31 33  1  0
 32 31  2  0
M  END
$$$$
