YFK.pdb
     RDKit          3D

 33 34  0  0  1  0  0  0  0  0999 V2000
    8.7158  -21.9183   16.2059 O   0  0  0  0  0  0  0  0  0  0  0  0
    8.8800  -21.1309   17.3556 C   0  0  0  0  0  0  0  0  0  0  0  0
   10.1228  -20.9249   17.9145 C   0  0  0  0  0  0  0  0  0  0  0  0
   10.2828  -20.1513   19.0437 C   0  0  0  0  0  0  0  0  0  0  0  0
    9.1938  -19.5393   19.6754 C   0  0  0  0  0  0  0  0  0  0  0  0
    9.3763  -18.7158   20.8948 C   0  0  0  0  0  0  0  0  0  0  0  0
    9.5240  -17.2679   20.6173 C   0  0  2  0  0  0  0  0  0  0  0  0
   10.7277  -16.9747   19.8339 N   0  0  0  0  0  0  0  0  0  0  0  0
    9.4988  -16.3610   21.7593 C   0  0  0  0  0  0  0  0  0  0  0  0
   10.6232  -16.1519   22.3375 O   0  0  0  0  0  0  0  0  0  0  0  0
    7.9641  -19.7634   19.0939 C   0  0  0  0  0  0  0  0  0  0  0  0
    7.7973  -20.5355   17.9653 C   0  0  0  0  0  0  0  0  0  0  0  0
    8.3394  -15.7165   22.2533 N   0  0  0  0  0  0  0  0  0  0  0  0
    8.4108  -14.9372   23.4644 C   0  0  1  0  0  0  0  0  0  0  0  0
    7.2200  -14.0085   23.5881 C   0  0  0  0  0  0  0  0  0  0  0  0
    7.1827  -13.2914   24.8631 C   0  0  0  0  0  0  0  0  0  0  0  0
    6.3384  -13.6684   25.8782 C   0  0  0  0  0  0  0  0  0  0  0  0
    6.2945  -12.9869   27.0942 C   0  0  0  0  0  0  0  0  0  0  0  0
    7.1087  -11.9001   27.3156 C   0  0  0  0  0  0  0  0  0  0  0  0
    7.9598  -11.5140   26.3031 C   0  0  0  0  0  0  0  0  0  0  0  0
    7.9974  -12.2013   25.0893 C   0  0  0  0  0  0  0  0  0  0  0  0
    8.5817  -15.8442   24.6144 C   0  0  0  0  0  0  0  0  0  0  0  0
    7.8160  -16.8496   24.7519 O   0  0  0  0  0  0  0  0  0  0  0  0
    9.5729  -15.6875   25.6270 N   0  0  0  0  0  0  0  0  0  0  0  0
    9.8481  -16.7386   26.6229 C   0  0  1  0  0  0  0  0  0  0  0  0
   10.8808  -17.6434   25.9739 C   0  0  0  0  0  0  0  0  0  0  0  0
   11.3135  -18.7873   26.8332 C   0  0  0  0  0  0  0  0  0  0  0  0
   12.3705  -19.5554   26.0281 C   0  0  0  0  0  0  0  0  0  0  0  0
   12.9081  -20.7184   26.8262 C   0  0  0  0  0  0  0  0  0  0  0  0
   13.7707  -21.5452   26.0158 N   0  0  0  0  0  0  0  0  0  0  0  0
   10.2765  -16.1623   27.8907 C   0  0  0  0  0  0  0  0  0  0  0  0
   10.4492  -16.9075   28.8845 O   0  0  0  0  0  0  0  0  0  0  0  0
   10.5062  -14.8101   28.0529 O   0  0  0  0  0  0  0  0  0  0  0  0
  2  1  1  0
  3  2  2  0
  4  3  1  0
  5 11  1  0
  5  4  2  0
  6  5  1  0
  7  6  1  0
  7  8  1  1
  9  7  1  0
  9 10  2  0
 11 12  2  0
 12  2  1  0
 13  9  1  0
 14 13  1  0
 14 15  1  1
 16 15  1  0
 16 17  2  0
 17 18  1  0
 19 18  2  0
 20 19  1  0
 21 20  2  0
 21 16  1  0
 22 14  1  0
 23 22  2  0
 24 22  1  0
 25 24  1  0
 26 27  1  0
 25 26  1  6
 28 29  1  0
 28 27  1  0
 29 30  1  0
 31 25  1  0
 31 33  1  0
 32 31  2  0
M  END
$$$$
