YFK.pdb
     RDKit          3D

 33 34  0  0  1  0  0  0  0  0999 V2000
    7.2257  -13.9030   14.5318 O   0  0  0  0  0  0  0  0  0  0  0  0
    7.8986  -14.0643   15.7524 C   0  0  0  0  0  0  0  0  0  0  0  0
    7.5991  -13.2826   16.8473 C   0  0  0  0  0  0  0  0  0  0  0  0
    8.2607  -13.4419   18.0456 C   0  0  0  0  0  0  0  0  0  0  0  0
    9.2657  -14.4028   18.2080 C   0  0  0  0  0  0  0  0  0  0  0  0
    9.9768  -14.5601   19.4994 C   0  0  0  0  0  0  0  0  0  0  0  0
    9.5138  -15.7211   20.2950 C   0  0  2  0  0  0  0  0  0  0  0  0
    8.1996  -16.2019   19.8589 N   0  0  0  0  0  0  0  0  0  0  0  0
    9.4780  -15.5680   21.7450 C   0  0  0  0  0  0  0  0  0  0  0  0
   10.6135  -15.5626   22.3391 O   0  0  0  0  0  0  0  0  0  0  0  0
    9.5431  -15.1692   17.0961 C   0  0  0  0  0  0  0  0  0  0  0  0
    8.8856  -15.0149   15.8953 C   0  0  0  0  0  0  0  0  0  0  0  0
    8.2974  -15.4290   22.5135 N   0  0  0  0  0  0  0  0  0  0  0  0
    8.3656  -14.8723   23.8419 C   0  0  1  0  0  0  0  0  0  0  0  0
    7.1632  -13.9966   24.1302 C   0  0  0  0  0  0  0  0  0  0  0  0
    7.2357  -13.3348   25.4333 C   0  0  0  0  0  0  0  0  0  0  0  0
    6.3245  -13.5961   26.4266 C   0  0  0  0  0  0  0  0  0  0  0  0
    6.3849  -12.9659   27.6693 C   0  0  0  0  0  0  0  0  0  0  0  0
    7.3750  -12.0497   27.9403 C   0  0  0  0  0  0  0  0  0  0  0  0
    8.2944  -11.7807   26.9500 C   0  0  0  0  0  0  0  0  0  0  0  0
    8.2267  -12.4156   25.7092 C   0  0  0  0  0  0  0  0  0  0  0  0
    8.5554  -15.9638   24.8151 C   0  0  0  0  0  0  0  0  0  0  0  0
    7.5947  -16.7518   25.0839 O   0  0  0  0  0  0  0  0  0  0  0  0
    9.7731  -16.2256   25.5086 N   0  0  0  0  0  0  0  0  0  0  0  0
    9.9131  -17.3533   26.4472 C   0  0  1  0  0  0  0  0  0  0  0  0
   11.1497  -18.1051   25.9870 C   0  0  0  0  0  0  0  0  0  0  0  0
   11.3270  -19.4400   26.6357 C   0  0  0  0  0  0  0  0  0  0  0  0
   11.0932  -20.4870   25.5382 C   0  0  0  0  0  0  0  0  0  0  0  0
   11.2512  -21.8830   26.0902 C   0  0  0  0  0  0  0  0  0  0  0  0
   10.8417  -22.8706   25.1200 N   0  0  0  0  0  0  0  0  0  0  0  0
    9.9813  -16.8850   27.8252 C   0  0  0  0  0  0  0  0  0  0  0  0
   10.4306  -15.7401   28.0702 O   0  0  0  0  0  0  0  0  0  0  0  0
    9.5667  -17.6556   28.8938 O   0  0  0  0  0  0  0  0  0  0  0  0
  2  1  1  0
  3  2  2  0
  4  3  1  0
  5 11  1  0
  5  4  2  0
  6  5  1  0
  7  6  1  0
  7  8  1  6
  9  7  1  0
  9 10  2  0
 11 12  2  0
 12  2  1  0
 13  9  1  0
 14 13  1  0
 14 15  1  1
 16 15  1  0
 16 17  2  0
 17 18  1  0
 19 18  2  0
 20 19  1  0
 21 20  2  0
 21 16  1  0
 22 14  1  0
 23 22  2  0
 24 22  1  0
 25 24  1  0
 26 27  1  0
 25 26  1  6
 28 29  1  0
 28 27  1  0
 29 30  1  0
 31 25  1  0
 31 33  1  0
 32 31  2  0
M  END
$$$$
