YFK.pdb
     RDKit          3D

 33 34  0  0  1  0  0  0  0  0999 V2000
    7.3043  -14.4193   14.0058 O   0  0  0  0  0  0  0  0  0  0  0  0
    7.8821  -14.3672   15.2833 C   0  0  0  0  0  0  0  0  0  0  0  0
    7.7334  -13.2635   16.0953 C   0  0  0  0  0  0  0  0  0  0  0  0
    8.3014  -13.2136   17.3499 C   0  0  0  0  0  0  0  0  0  0  0  0
    9.0545  -14.2783   17.8584 C   0  0  0  0  0  0  0  0  0  0  0  0
    9.6682  -14.2106   19.2064 C   0  0  0  0  0  0  0  0  0  0  0  0
    9.3909  -15.3997   20.0458 C   0  0  2  0  0  0  0  0  0  0  0  0
    8.1458  -16.0706   19.6608 N   0  0  0  0  0  0  0  0  0  0  0  0
    9.3703  -15.2088   21.4916 C   0  0  0  0  0  0  0  0  0  0  0  0
   10.5069  -15.0127   22.0503 O   0  0  0  0  0  0  0  0  0  0  0  0
    9.1859  -15.3679   17.0239 C   0  0  0  0  0  0  0  0  0  0  0  0
    8.6207  -15.4242   15.7688 C   0  0  0  0  0  0  0  0  0  0  0  0
    8.2029  -15.2269   22.2920 N   0  0  0  0  0  0  0  0  0  0  0  0
    8.2618  -14.7741   23.6597 C   0  0  1  0  0  0  0  0  0  0  0  0
    7.0695  -13.9030   23.9992 C   0  0  0  0  0  0  0  0  0  0  0  0
    7.1323  -13.3474   25.3514 C   0  0  0  0  0  0  0  0  0  0  0  0
    6.4650  -13.9282   26.4015 C   0  0  0  0  0  0  0  0  0  0  0  0
    6.5169  -13.4017   27.6919 C   0  0  0  0  0  0  0  0  0  0  0  0
    7.2499  -12.2672   27.9544 C   0  0  0  0  0  0  0  0  0  0  0  0
    7.9233  -11.6770   26.9072 C   0  0  0  0  0  0  0  0  0  0  0  0
    7.8661  -12.2102   25.6190 C   0  0  0  0  0  0  0  0  0  0  0  0
    8.4213  -15.9395   24.5491 C   0  0  0  0  0  0  0  0  0  0  0  0
    7.4897  -16.7990   24.6460 O   0  0  0  0  0  0  0  0  0  0  0  0
    9.5777  -16.1991   25.3415 N   0  0  0  0  0  0  0  0  0  0  0  0
    9.6894  -17.3950   26.1957 C   0  0  1  0  0  0  0  0  0  0  0  0
   10.7973  -18.2276   25.5746 C   0  0  0  0  0  0  0  0  0  0  0  0
   11.1654  -19.4396   26.3681 C   0  0  0  0  0  0  0  0  0  0  0  0
   12.2440  -20.1730   25.5593 C   0  0  0  0  0  0  0  0  0  0  0  0
   12.6849  -21.4280   26.2727 C   0  0  0  0  0  0  0  0  0  0  0  0
   13.6261  -22.1735   25.4710 N   0  0  0  0  0  0  0  0  0  0  0  0
    9.9300  -17.0280   27.5850 C   0  0  0  0  0  0  0  0  0  0  0  0
    9.7781  -17.8842   28.4886 O   0  0  0  0  0  0  0  0  0  0  0  0
   10.3254  -15.7592   27.9611 O   0  0  0  0  0  0  0  0  0  0  0  0
  2  1  1  0
  3  2  2  0
  4  3  1  0
  5 11  1  0
  5  4  2  0
  6  5  1  0
  7  6  1  0
  7  8  1  6
  9  7  1  0
  9 10  2  0
 11 12  2  0
 12  2  1  0
 13  9  1  0
 14 13  1  0
 14 15  1  1
 16 15  1  0
 16 17  2  0
 17 18  1  0
 19 18  2  0
 20 19  1  0
 21 20  2  0
 21 16  1  0
 22 14  1  0
 23 22  2  0
 24 22  1  0
 25 24  1  0
 26 27  1  0
 25 26  1  6
 28 29  1  0
 28 27  1  0
 29 30  1  0
 31 25  1  0
 31 33  1  0
 32 31  2  0
M  END
$$$$
