EQF.pdb
     RDKit          3D

 30 30  0  0  1  0  0  0  0  0999 V2000
    9.8777  -19.0221   19.4445 N   0  0  0  0  0  0  0  0  0  0  0  0
   11.0797  -18.4596   20.0067 C   0  0  1  0  0  0  0  0  0  0  0  0
   12.2699  -18.5379   19.1047 C   0  0  0  0  0  0  0  0  0  0  0  0
   12.0100  -18.1402   17.6937 C   0  0  0  0  0  0  0  0  0  0  0  0
   13.2602  -17.6330   17.0849 C   0  0  0  0  0  0  0  0  0  0  0  0
   14.3562  -18.0749   17.5038 O   0  0  0  0  0  0  0  0  0  0  0  0
   10.7700  -17.0818   20.4470 C   0  0  0  0  0  0  0  0  0  0  0  0
   11.7204  -16.2679   20.5471 O   0  0  0  0  0  0  0  0  0  0  0  0
   13.2886  -16.6940   16.0745 O   0  0  0  0  0  0  0  0  0  0  0  0
    6.9914  -12.6464   19.4084 N   0  0  0  0  0  0  0  0  0  0  0  0
    7.7890  -13.5360   18.6615 C   0  0  0  0  0  0  0  0  0  0  0  0
    7.8233  -13.5598   17.4092 O   0  0  0  0  0  0  0  0  0  0  0  0
    8.6439  -14.5076   19.4009 C   0  0  0  0  0  0  0  0  0  0  0  0
    8.4227  -14.4085   20.8910 C   0  0  0  0  0  0  0  0  0  0  0  0
    9.2927  -15.4375   21.5722 C   0  0  2  0  0  0  0  0  0  0  0  0
    9.4633  -16.6177   20.7653 N   0  0  0  0  0  0  0  0  0  0  0  0
    8.6748  -15.7421   22.8911 C   0  0  0  0  0  0  0  0  0  0  0  0
    7.6838  -16.5028   22.8792 O   0  0  0  0  0  0  0  0  0  0  0  0
    9.1956  -15.1924   24.0682 N   0  0  0  0  0  0  0  0  0  0  0  0
    8.6566  -15.3836   25.3715 C   0  0  1  0  0  0  0  0  0  0  0  0
    7.2213  -14.9250   25.4539 C   0  0  0  0  0  0  0  0  0  0  0  0
    7.1479  -13.5253   25.9383 C   0  0  0  0  0  0  0  0  0  0  0  0
    8.3146  -12.8056   26.0686 C   0  0  0  0  0  0  0  0  0  0  0  0
    8.1808  -11.4997   26.5265 C   0  0  0  0  0  0  0  0  0  0  0  0
    6.9688  -10.9382   26.8369 C   0  0  0  0  0  0  0  0  0  0  0  0
    5.8260  -11.6808   26.6965 C   0  0  0  0  0  0  0  0  0  0  0  0
    5.9310  -12.9649   26.2489 C   0  0  0  0  0  0  0  0  0  0  0  0
    8.7592  -16.7972   25.8755 C   0  0  0  0  0  0  0  0  0  0  0  0
    9.0860  -16.9761   27.2301 O   0  0  0  0  0  0  0  0  0  0  0  0
    8.5823  -17.8029   25.2060 O   0  0  0  0  0  0  0  0  0  0  0  0
  2  1  1  6
  2  3  1  0
  3  4  1  0
  5  4  1  0
  5  6  2  0
  7  2  1  0
  7  8  2  0
  9  5  1  0
 10 11  1  0
 11 12  2  0
 11 13  1  0
 13 14  1  0
 15 14  1  6
 15 16  1  0
 16  7  1  0
 17 15  1  0
 18 17  2  0
 19 17  1  0
 20 28  1  0
 20 19  1  0
 21 22  1  0
 20 21  1  6
 22 23  2  0
 23 24  1  0
 25 24  2  0
 26 25  1  0
 27 22  1  0
 27 26  2  0
 28 29  1  0
 30 28  2  0
M  END
$$$$
