EQF.pdb
     RDKit          3D

 30 30  0  0  1  0  0  0  0  0999 V2000
    8.5192  -12.6001   19.3994 N   0  0  0  0  0  0  0  0  0  0  0  0
    7.7306  -13.8044   19.3280 C   0  0  1  0  0  0  0  0  0  0  0  0
    7.4788  -14.2871   17.9352 C   0  0  0  0  0  0  0  0  0  0  0  0
    8.7061  -14.5297   17.1280 C   0  0  0  0  0  0  0  0  0  0  0  0
    8.3261  -15.0464   15.7940 C   0  0  0  0  0  0  0  0  0  0  0  0
    7.2997  -14.5863   15.2401 O   0  0  0  0  0  0  0  0  0  0  0  0
    8.3764  -14.8184   20.1899 C   0  0  0  0  0  0  0  0  0  0  0  0
    7.8617  -15.9621   20.2408 O   0  0  0  0  0  0  0  0  0  0  0  0
    9.0427  -16.0135   15.1197 O   0  0  0  0  0  0  0  0  0  0  0  0
   14.2760  -15.7666   20.9032 N   0  0  0  0  0  0  0  0  0  0  0  0
   13.5424  -14.6895   20.3674 C   0  0  0  0  0  0  0  0  0  0  0  0
   14.0357  -13.8102   19.6234 O   0  0  0  0  0  0  0  0  0  0  0  0
   12.0938  -14.5865   20.7029 C   0  0  0  0  0  0  0  0  0  0  0  0
   11.6002  -15.8372   21.3891 C   0  0  0  0  0  0  0  0  0  0  0  0
   10.1389  -15.6539   21.7222 C   0  0  2  0  0  0  0  0  0  0  0  0
    9.5447  -14.5819   20.9667 N   0  0  0  0  0  0  0  0  0  0  0  0
   10.0401  -15.4302   23.1899 C   0  0  0  0  0  0  0  0  0  0  0  0
   10.7380  -14.5070   23.6606 O   0  0  0  0  0  0  0  0  0  0  0  0
    9.2018  -16.2261   23.9792 N   0  0  0  0  0  0  0  0  0  0  0  0
    9.0930  -16.1491   25.3962 C   0  0  1  0  0  0  0  0  0  0  0  0
    7.6894  -15.8034   25.8295 C   0  0  0  0  0  0  0  0  0  0  0  0
    7.5195  -14.3332   25.9233 C   0  0  0  0  0  0  0  0  0  0  0  0
    8.0646  -13.6691   26.9994 C   0  0  0  0  0  0  0  0  0  0  0  0
    7.8723  -12.2924   27.0310 C   0  0  0  0  0  0  0  0  0  0  0  0
    7.1838  -11.6127   26.0593 C   0  0  0  0  0  0  0  0  0  0  0  0
    6.6534  -12.3026   25.0010 C   0  0  0  0  0  0  0  0  0  0  0  0
    6.8285  -13.6542   24.9473 C   0  0  0  0  0  0  0  0  0  0  0  0
    9.5457  -17.3913   26.1138 C   0  0  0  0  0  0  0  0  0  0  0  0
    9.9643  -18.4751   25.3241 O   0  0  0  0  0  0  0  0  0  0  0  0
    9.5800  -17.5369   27.3256 O   0  0  0  0  0  0  0  0  0  0  0  0
  2  1  1  6
  2  3  1  0
  3  4  1  0
  5  4  1  0
  5  6  2  0
  7  2  1  0
  7  8  2  0
  9  5  1  0
 10 11  1  0
 11 12  2  0
 11 13  1  0
 13 14  1  0
 15 14  1  6
 15 16  1  0
 16  7  1  0
 17 15  1  0
 18 17  2  0
 19 17  1  0
 20 28  1  0
 20 19  1  0
 21 22  1  0
 20 21  1  6
 22 23  2  0
 23 24  1  0
 25 24  2  0
 26 25  1  0
 27 22  1  0
 27 26  2  0
 28 29  1  0
 30 28  2  0
M  END
$$$$
