EQF.pdb
     RDKit          3D

 30 30  0  0  1  0  0  0  0  0999 V2000
    6.7672  -13.9627   19.2843 N   0  0  0  0  0  0  0  0  0  0  0  0
    7.6227  -15.0748   19.6140 C   0  0  1  0  0  0  0  0  0  0  0  0
    9.0669  -14.8479   19.2996 C   0  0  0  0  0  0  0  0  0  0  0  0
    9.4057  -14.9024   17.8509 C   0  0  0  0  0  0  0  0  0  0  0  0
   10.8767  -14.8941   17.6867 C   0  0  0  0  0  0  0  0  0  0  0  0
   11.5972  -14.9249   18.7123 O   0  0  0  0  0  0  0  0  0  0  0  0
    7.3811  -15.4254   21.0306 C   0  0  0  0  0  0  0  0  0  0  0  0
    7.2353  -14.4881   21.8526 O   0  0  0  0  0  0  0  0  0  0  0  0
   11.5056  -14.8542   16.4593 O   0  0  0  0  0  0  0  0  0  0  0  0
    6.6099  -21.0206   24.0504 N   0  0  0  0  0  0  0  0  0  0  0  0
    6.6210  -20.0672   25.0878 C   0  0  0  0  0  0  0  0  0  0  0  0
    6.4760  -20.3520   26.2994 O   0  0  0  0  0  0  0  0  0  0  0  0
    6.8164  -18.6343   24.7269 C   0  0  0  0  0  0  0  0  0  0  0  0
    6.8235  -18.4426   23.2294 C   0  0  0  0  0  0  0  0  0  0  0  0
    7.1480  -16.9978   22.9347 C   0  0  2  0  0  0  0  0  0  0  0  0
    7.3033  -16.7578   21.5235 N   0  0  0  0  0  0  0  0  0  0  0  0
    8.3739  -16.6498   23.7029 C   0  0  0  0  0  0  0  0  0  0  0  0
    9.4658  -16.9475   23.1738 O   0  0  0  0  0  0  0  0  0  0  0  0
    8.2811  -16.0221   24.9506 N   0  0  0  0  0  0  0  0  0  0  0  0
    9.3871  -15.6225   25.7522 C   0  0  1  0  0  0  0  0  0  0  0  0
    9.5883  -14.1273   25.7191 C   0  0  0  0  0  0  0  0  0  0  0  0
    8.4157  -13.4302   26.3006 C   0  0  0  0  0  0  0  0  0  0  0  0
    8.5056  -12.9358   27.5827 C   0  0  0  0  0  0  0  0  0  0  0  0
    7.3743  -12.2924   28.0719 C   0  0  0  0  0  0  0  0  0  0  0  0
    6.2241  -12.1459   27.3398 C   0  0  0  0  0  0  0  0  0  0  0  0
    6.1663  -12.6491   26.0668 C   0  0  0  0  0  0  0  0  0  0  0  0
    7.2635  -13.2848   25.5641 C   0  0  0  0  0  0  0  0  0  0  0  0
    9.3061  -16.0842   27.1816 C   0  0  0  0  0  0  0  0  0  0  0  0
    8.1812  -16.8399   27.5519 O   0  0  0  0  0  0  0  0  0  0  0  0
   10.1364  -15.8572   28.0478 O   0  0  0  0  0  0  0  0  0  0  0  0
  2  1  1  1
  2  3  1  0
  3  4  1  0
  5  4  1  0
  5  6  2  0
  7  2  1  0
  7  8  2  0
  9  5  1  0
 10 11  1  0
 11 12  2  0
 11 13  1  0
 13 14  1  0
 15 14  1  6
 15 16  1  0
 16  7  1  0
 17 15  1  0
 18 17  2  0
 19 17  1  0
 20 28  1  0
 20 19  1  0
 21 22  1  0
 20 21  1  1
 22 23  2  0
 23 24  1  0
 25 24  2  0
 26 25  1  0
 27 22  1  0
 27 26  2  0
 28 29  1  0
 30 28  2  0
M  END
$$$$
