EQF.pdb
     RDKit          3D

 30 30  0  0  1  0  0  0  0  0999 V2000
    9.8244  -18.7441   19.7076 N   0  0  0  0  0  0  0  0  0  0  0  0
   10.5458  -18.5357   20.9378 C   0  0  1  0  0  0  0  0  0  0  0  0
   11.9516  -19.0448   20.9145 C   0  0  0  0  0  0  0  0  0  0  0  0
   12.4997  -19.3004   19.5540 C   0  0  0  0  0  0  0  0  0  0  0  0
   13.8771  -19.8300   19.6676 C   0  0  0  0  0  0  0  0  0  0  0  0
   14.0693  -21.0541   19.4757 O   0  0  0  0  0  0  0  0  0  0  0  0
   10.4500  -17.0996   21.2792 C   0  0  0  0  0  0  0  0  0  0  0  0
   11.4874  -16.4000   21.1789 O   0  0  0  0  0  0  0  0  0  0  0  0
   14.9709  -19.0472   19.9750 O   0  0  0  0  0  0  0  0  0  0  0  0
    7.8513  -12.2590   19.6062 N   0  0  0  0  0  0  0  0  0  0  0  0
    7.8566  -13.5388   19.0167 C   0  0  0  0  0  0  0  0  0  0  0  0
    7.6722  -13.7453   17.7946 O   0  0  0  0  0  0  0  0  0  0  0  0
    8.0954  -14.7190   19.8950 C   0  0  0  0  0  0  0  0  0  0  0  0
    8.1258  -14.3211   21.3510 C   0  0  0  0  0  0  0  0  0  0  0  0
    9.2644  -15.0514   22.0218 C   0  0  2  0  0  0  0  0  0  0  0  0
    9.2572  -16.4581   21.7149 N   0  0  0  0  0  0  0  0  0  0  0  0
    9.1606  -14.7938   23.4836 C   0  0  0  0  0  0  0  0  0  0  0  0
    9.2010  -13.5977   23.8424 O   0  0  0  0  0  0  0  0  0  0  0  0
    9.0256  -15.8534   24.3881 N   0  0  0  0  0  0  0  0  0  0  0  0
    8.9018  -15.7168   25.7993 C   0  0  1  0  0  0  0  0  0  0  0  0
    7.4568  -15.6367   26.2269 C   0  0  0  0  0  0  0  0  0  0  0  0
    7.0050  -14.2251   26.2770 C   0  0  0  0  0  0  0  0  0  0  0  0
    5.7087  -13.9296   25.9185 C   0  0  0  0  0  0  0  0  0  0  0  0
    5.3448  -12.5895   25.9865 C   0  0  0  0  0  0  0  0  0  0  0  0
    6.2081  -11.6011   26.3843 C   0  0  0  0  0  0  0  0  0  0  0  0
    7.4917  -11.9277   26.7347 C   0  0  0  0  0  0  0  0  0  0  0  0
    7.8731  -13.2360   26.6763 C   0  0  0  0  0  0  0  0  0  0  0  0
    9.5955  -16.7976   26.5826 C   0  0  0  0  0  0  0  0  0  0  0  0
   10.2824  -17.7822   25.8530 O   0  0  0  0  0  0  0  0  0  0  0  0
    9.6118  -16.8912   27.8000 O   0  0  0  0  0  0  0  0  0  0  0  0
  2  1  1  6
  2  3  1  0
  3  4  1  0
  5  4  1  0
  5  6  2  0
  7  2  1  0
  7  8  2  0
  9  5  1  0
 10 11  1  0
 11 12  2  0
 11 13  1  0
 13 14  1  0
 15 14  1  6
 15 16  1  0
 16  7  1  0
 17 15  1  0
 18 17  2  0
 19 17  1  0
 20 28  1  0
 20 19  1  0
 21 22  1  0
 20 21  1  6
 22 23  2  0
 23 24  1  0
 25 24  2  0
 26 25  1  0
 27 22  1  0
 27 26  2  0
 28 29  1  0
 30 28  2  0
M  END
$$$$
