EQF.pdb
     RDKit          3D

 30 30  0  0  1  0  0  0  0  0999 V2000
    8.1822  -20.7659   20.9286 N   0  0  0  0  0  0  0  0  0  0  0  0
    8.4044  -19.4210   20.4606 C   0  0  1  0  0  0  0  0  0  0  0  0
    7.1505  -18.6699   20.1448 C   0  0  0  0  0  0  0  0  0  0  0  0
    6.0054  -18.9589   21.0515 C   0  0  0  0  0  0  0  0  0  0  0  0
    4.8015  -18.2448   20.5702 C   0  0  0  0  0  0  0  0  0  0  0  0
    4.8995  -17.5161   19.5546 O   0  0  0  0  0  0  0  0  0  0  0  0
    9.2628  -18.7348   21.4507 C   0  0  0  0  0  0  0  0  0  0  0  0
    9.0789  -18.9889   22.6661 O   0  0  0  0  0  0  0  0  0  0  0  0
    3.5674  -18.3362   21.1803 O   0  0  0  0  0  0  0  0  0  0  0  0
   13.8412  -14.2713   19.9944 N   0  0  0  0  0  0  0  0  0  0  0  0
   13.7158  -14.6032   21.3581 C   0  0  0  0  0  0  0  0  0  0  0  0
   14.6192  -14.4208   22.2070 O   0  0  0  0  0  0  0  0  0  0  0  0
   12.4345  -15.2069   21.8223 C   0  0  0  0  0  0  0  0  0  0  0  0
   12.4144  -16.6979   21.5863 C   0  0  0  0  0  0  0  0  0  0  0  0
   11.1261  -17.2523   22.1455 C   0  0  2  0  0  0  0  0  0  0  0  0
   10.2850  -17.8038   21.1152 N   0  0  0  0  0  0  0  0  0  0  0  0
   10.4545  -16.1546   22.8925 C   0  0  0  0  0  0  0  0  0  0  0  0
   10.0771  -15.1724   22.2189 O   0  0  0  0  0  0  0  0  0  0  0  0
   10.2678  -16.2423   24.2769 N   0  0  0  0  0  0  0  0  0  0  0  0
    9.6232  -15.2612   25.0817 C   0  0  1  0  0  0  0  0  0  0  0  0
    8.1994  -15.0259   24.6402 C   0  0  0  0  0  0  0  0  0  0  0  0
    7.5501  -14.0036   25.4960 C   0  0  0  0  0  0  0  0  0  0  0  0
    6.5545  -14.3975   26.3619 C   0  0  0  0  0  0  0  0  0  0  0  0
    5.9849  -13.3940   27.1375 C   0  0  0  0  0  0  0  0  0  0  0  0
    6.3745  -12.0813   27.0629 C   0  0  0  0  0  0  0  0  0  0  0  0
    7.3682  -11.7215   26.1910 C   0  0  0  0  0  0  0  0  0  0  0  0
    7.9429  -12.6879   25.4189 C   0  0  0  0  0  0  0  0  0  0  0  0
    9.6457  -15.5660   26.5546 C   0  0  0  0  0  0  0  0  0  0  0  0
    9.6486  -14.4740   27.4385 O   0  0  0  0  0  0  0  0  0  0  0  0
    9.6616  -16.6833   27.0470 O   0  0  0  0  0  0  0  0  0  0  0  0
  2  1  1  1
  2  3  1  0
  3  4  1  0
  5  4  1  0
  5  6  2  0
  7  2  1  0
  7  8  2  0
  9  5  1  0
 10 11  1  0
 11 12  2  0
 11 13  1  0
 13 14  1  0
 15 14  1  6
 15 16  1  0
 16  7  1  0
 17 15  1  0
 18 17  2  0
 19 17  1  0
 20 28  1  0
 20 19  1  0
 21 22  1  0
 20 21  1  6
 22 23  2  0
 23 24  1  0
 25 24  2  0
 26 25  1  0
 27 22  1  0
 27 26  2  0
 28 29  1  0
 30 28  2  0
M  END
$$$$
