EQF.pdb
     RDKit          3D

 30 30  0  0  1  0  0  0  0  0999 V2000
    6.1902  -15.6201   19.7012 N   0  0  0  0  0  0  0  0  0  0  0  0
    7.5991  -15.7100   19.9914 C   0  0  1  0  0  0  0  0  0  0  0  0
    8.3528  -14.4401   19.7561 C   0  0  0  0  0  0  0  0  0  0  0  0
    8.3125  -13.9420   18.3536 C   0  0  0  0  0  0  0  0  0  0  0  0
    8.9880  -12.6272   18.2765 C   0  0  0  0  0  0  0  0  0  0  0  0
   10.1284  -12.5056   18.7832 O   0  0  0  0  0  0  0  0  0  0  0  0
    7.7437  -16.2285   21.3693 C   0  0  0  0  0  0  0  0  0  0  0  0
    6.9032  -15.8636   22.2271 O   0  0  0  0  0  0  0  0  0  0  0  0
    8.4298  -11.5187   17.6740 O   0  0  0  0  0  0  0  0  0  0  0  0
    8.0757  -22.1908   23.0818 N   0  0  0  0  0  0  0  0  0  0  0  0
    8.8304  -21.2637   22.3359 C   0  0  0  0  0  0  0  0  0  0  0  0
    9.8444  -21.5675   21.6654 O   0  0  0  0  0  0  0  0  0  0  0  0
    8.4006  -19.8366   22.3423 C   0  0  0  0  0  0  0  0  0  0  0  0
    9.2703  -19.0066   23.2553 C   0  0  0  0  0  0  0  0  0  0  0  0
    8.8310  -17.5656   23.1532 C   0  0  2  0  0  0  0  0  0  0  0  0
    8.7751  -17.1152   21.7868 N   0  0  0  0  0  0  0  0  0  0  0  0
    9.7683  -16.7536   23.9755 C   0  0  0  0  0  0  0  0  0  0  0  0
   10.7980  -16.3405   23.4012 O   0  0  0  0  0  0  0  0  0  0  0  0
    9.4877  -16.4814   25.3195 N   0  0  0  0  0  0  0  0  0  0  0  0
   10.2939  -15.6857   26.1811 C   0  0  1  0  0  0  0  0  0  0  0  0
   10.0795  -14.2113   25.9410 C   0  0  0  0  0  0  0  0  0  0  0  0
    8.6853  -13.8268   26.2687 C   0  0  0  0  0  0  0  0  0  0  0  0
    8.4350  -13.1935   27.4656 C   0  0  0  0  0  0  0  0  0  0  0  0
    7.1091  -12.8579   27.7153 C   0  0  0  0  0  0  0  0  0  0  0  0
    6.0920  -13.1309   26.8369 C   0  0  0  0  0  0  0  0  0  0  0  0
    6.3739  -13.7623   25.6542 C   0  0  0  0  0  0  0  0  0  0  0  0
    7.6674  -14.1019   25.3858 C   0  0  0  0  0  0  0  0  0  0  0  0
   10.1088  -15.9859   27.6435 C   0  0  0  0  0  0  0  0  0  0  0  0
    9.1717  -16.9754   27.9845 O   0  0  0  0  0  0  0  0  0  0  0  0
   10.7048  -15.4415   28.5597 O   0  0  0  0  0  0  0  0  0  0  0  0
  2  1  1  1
  2  3  1  0
  3  4  1  0
  5  4  1  0
  5  6  2  0
  7  2  1  0
  7  8  2  0
  9  5  1  0
 10 11  1  0
 11 12  2  0
 11 13  1  0
 13 14  1  0
 15 14  1  6
 15 16  1  0
 16  7  1  0
 17 15  1  0
 18 17  2  0
 19 17  1  0
 20 28  1  0
 20 19  1  0
 21 22  1  0
 20 21  1  1
 22 23  2  0
 23 24  1  0
 25 24  2  0
 26 25  1  0
 27 22  1  0
 27 26  2  0
 28 29  1  0
 30 28  2  0
M  END
$$$$
