FYY.pdb
     RDKit          3D

 36 38  0  0  1  0  0  0  0  0999 V2000
    5.9806  -18.0520   24.6091 N   0  0  0  0  0  0  0  0  0  0  0  0
    6.7083  -16.8014   24.6069 C   0  0  1  0  0  0  0  0  0  0  0  0
    7.1051  -16.3825   26.0078 C   0  0  0  0  0  0  0  0  0  0  0  0
    6.8141  -14.9355   26.1550 C   0  0  0  0  0  0  0  0  0  0  0  0
    5.5206  -14.5758   26.4724 C   0  0  0  0  0  0  0  0  0  0  0  0
    5.2373  -13.2335   26.6120 C   0  0  0  0  0  0  0  0  0  0  0  0
    6.2228  -12.3039   26.4369 C   0  0  0  0  0  0  0  0  0  0  0  0
    7.5105  -12.6701   26.1205 C   0  0  0  0  0  0  0  0  0  0  0  0
    7.8149  -14.0163   25.9758 C   0  0  0  0  0  0  0  0  0  0  0  0
    7.9630  -16.9109   23.8181 C   0  0  0  0  0  0  0  0  0  0  0  0
    8.5562  -18.0067   23.6281 O   0  0  0  0  0  0  0  0  0  0  0  0
    6.4289  -14.2010   16.9501 O   0  0  0  0  0  0  0  0  0  0  0  0
    7.1946  -14.2151   18.1116 C   0  0  0  0  0  0  0  0  0  0  0  0
    7.3706  -13.0881   18.8847 C   0  0  0  0  0  0  0  0  0  0  0  0
    8.1369  -13.1468   20.0270 C   0  0  0  0  0  0  0  0  0  0  0  0
    8.7569  -14.3015   20.4555 C   0  0  0  0  0  0  0  0  0  0  0  0
    9.5700  -14.3063   21.6935 C   0  0  0  0  0  0  0  0  0  0  0  0
    9.5055  -15.7120   22.3032 C   0  0  2  0  0  0  0  0  0  0  0  0
    8.4668  -15.6942   23.2804 N   0  0  0  0  0  0  0  0  0  0  0  0
   10.8024  -15.9662   23.0075 C   0  0  0  0  0  0  0  0  0  0  0  0
   11.8549  -16.0997   22.3362 O   0  0  0  0  0  0  0  0  0  0  0  0
    8.5823  -15.4330   19.6827 C   0  0  0  0  0  0  0  0  0  0  0  0
    7.8093  -15.3775   18.5287 C   0  0  0  0  0  0  0  0  0  0  0  0
    8.9297  -15.9227   30.4059 O   0  0  0  0  0  0  0  0  0  0  0  0
    9.7916  -15.7230   29.3287 C   0  0  0  0  0  0  0  0  0  0  0  0
    9.7563  -14.5759   28.5553 C   0  0  0  0  0  0  0  0  0  0  0  0
   10.6025  -14.3702   27.4909 C   0  0  0  0  0  0  0  0  0  0  0  0
   11.5329  -15.3229   27.1543 C   0  0  0  0  0  0  0  0  0  0  0  0
   12.4618  -15.1726   26.0272 C   0  0  0  0  0  0  0  0  0  0  0  0
   12.2174  -16.2635   25.0128 C   0  0  2  0  0  0  0  0  0  0  0  0
   10.8837  -16.0620   24.4142 N   0  0  0  0  0  0  0  0  0  0  0  0
   12.2772  -17.5723   25.6912 C   0  0  0  0  0  0  0  0  0  0  0  0
   11.2320  -18.4535   25.7807 O   0  0  0  0  0  0  0  0  0  0  0  0
   11.5976  -16.4748   27.8993 C   0  0  0  0  0  0  0  0  0  0  0  0
   10.7395  -16.6561   28.9595 C   0  0  0  0  0  0  0  0  0  0  0  0
   13.3609  -17.9115   26.2323 O   0  0  0  0  0  0  0  0  0  0  0  0
  2  1  1  1
  3  2  1  0
  4  9  1  0
  4  3  1  0
  5  4  2  0
  6  7  2  0
  6  5  1  0
  7  8  1  0
  8  9  2  0
 10  2  1  0
 11 10  2  0
 12 13  1  0
 13 14  2  0
 14 15  1  0
 16 17  1  0
 16 15  2  0
 18 17  1  1
 18 19  1  0
 19 10  1  0
 20 21  2  0
 20 18  1  0
 22 16  1  0
 23 22  2  0
 23 13  1  0
 24 25  1  0
 25 35  2  0
 26 25  1  0
 26 27  2  0
 27 28  1  0
 28 34  2  0
 28 29  1  0
 30 29  1  1
 30 31  1  0
 31 20  1  0
 32 33  1  0
 32 30  1  0
 35 34  1  0
 36 32  2  0
M  END
$$$$
