FYY.pdb
     RDKit          3D

 36 38  0  0  1  0  0  0  0  0999 V2000
    5.8711  -18.5746   21.5318 N   0  0  0  0  0  0  0  0  0  0  0  0
    6.3721  -17.5164   22.3819 C   0  0  1  0  0  0  0  0  0  0  0  0
    5.9314  -17.6980   23.8200 C   0  0  0  0  0  0  0  0  0  0  0  0
    6.1770  -16.4249   24.5406 C   0  0  0  0  0  0  0  0  0  0  0  0
    6.1600  -16.4611   25.9196 C   0  0  0  0  0  0  0  0  0  0  0  0
    6.3870  -15.2840   26.6013 C   0  0  0  0  0  0  0  0  0  0  0  0
    6.6199  -14.1277   25.9122 C   0  0  0  0  0  0  0  0  0  0  0  0
    6.6353  -14.0994   24.5369 C   0  0  0  0  0  0  0  0  0  0  0  0
    6.4089  -15.2740   23.8334 C   0  0  0  0  0  0  0  0  0  0  0  0
    7.8580  -17.4886   22.3868 C   0  0  0  0  0  0  0  0  0  0  0  0
    8.5603  -18.5171   22.1923 O   0  0  0  0  0  0  0  0  0  0  0  0
    7.8073  -13.2442   17.2176 O   0  0  0  0  0  0  0  0  0  0  0  0
    8.3768  -13.5748   18.4431 C   0  0  0  0  0  0  0  0  0  0  0  0
    9.1847  -14.6801   18.5991 C   0  0  0  0  0  0  0  0  0  0  0  0
    9.7278  -14.9704   19.8305 C   0  0  0  0  0  0  0  0  0  0  0  0
    9.5041  -14.1970   20.9499 C   0  0  0  0  0  0  0  0  0  0  0  0
   10.1150  -14.5574   22.2501 C   0  0  0  0  0  0  0  0  0  0  0  0
    9.8652  -16.0498   22.4992 C   0  0  2  0  0  0  0  0  0  0  0  0
    8.4548  -16.2198   22.6261 N   0  0  0  0  0  0  0  0  0  0  0  0
   10.4965  -16.4080   23.8091 C   0  0  0  0  0  0  0  0  0  0  0  0
   11.7211  -16.1939   23.9844 O   0  0  0  0  0  0  0  0  0  0  0  0
    8.6947  -13.0882   20.7967 C   0  0  0  0  0  0  0  0  0  0  0  0
    8.1445  -12.7920   19.5550 C   0  0  0  0  0  0  0  0  0  0  0  0
   11.0335  -11.4401   27.9349 O   0  0  0  0  0  0  0  0  0  0  0  0
   10.7539  -12.7974   27.7844 C   0  0  0  0  0  0  0  0  0  0  0  0
   11.6435  -13.7839   28.1726 C   0  0  0  0  0  0  0  0  0  0  0  0
   11.3763  -15.1252   28.0280 C   0  0  0  0  0  0  0  0  0  0  0  0
   10.1865  -15.5370   27.4788 C   0  0  0  0  0  0  0  0  0  0  0  0
    9.8389  -16.9506   27.2882 C   0  0  0  0  0  0  0  0  0  0  0  0
   10.5014  -17.4772   26.0381 C   0  0  2  0  0  0  0  0  0  0  0  0
    9.7554  -16.9839   24.8643 N   0  0  0  0  0  0  0  0  0  0  0  0
   10.4820  -18.9522   26.0692 C   0  0  0  0  0  0  0  0  0  0  0  0
   11.1380  -19.7220   26.9933 O   0  0  0  0  0  0  0  0  0  0  0  0
    9.2786  -14.5862   27.0818 C   0  0  0  0  0  0  0  0  0  0  0  0
    9.5702  -13.2505   27.2376 C   0  0  0  0  0  0  0  0  0  0  0  0
    9.8206  -19.5559   25.1859 O   0  0  0  0  0  0  0  0  0  0  0  0
  2  1  1  6
  3  2  1  0
  4  9  1  0
  4  3  1  0
  5  4  2  0
  6  7  2  0
  6  5  1  0
  7  8  1  0
  8  9  2  0
 10  2  1  0
 11 10  2  0
 12 13  1  0
 13 14  2  0
 14 15  1  0
 16 17  1  0
 16 15  2  0
 18 17  1  1
 18 19  1  0
 19 10  1  0
 20 21  2  0
 20 18  1  0
 22 16  1  0
 23 22  2  0
 23 13  1  0
 24 25  1  0
 25 35  2  0
 26 25  1  0
 26 27  2  0
 27 28  1  0
 28 34  2  0
 28 29  1  0
 30 29  1  1
 30 31  1  0
 31 20  1  0
 32 33  1  0
 32 30  1  0
 35 34  1  0
 36 32  2  0
M  END
$$$$
