FYY.pdb
     RDKit          3D

 36 38  0  0  1  0  0  0  0  0999 V2000
    8.2854  -15.7462   25.6878 N   0  0  0  0  0  0  0  0  0  0  0  0
    7.2190  -15.9288   24.7271 C   0  0  1  0  0  0  0  0  0  0  0  0
    6.6639  -14.6028   24.2485 C   0  0  0  0  0  0  0  0  0  0  0  0
    6.6458  -13.6690   25.4008 C   0  0  0  0  0  0  0  0  0  0  0  0
    7.5820  -12.6557   25.4131 C   0  0  0  0  0  0  0  0  0  0  0  0
    7.5756  -11.7808   26.4790 C   0  0  0  0  0  0  0  0  0  0  0  0
    6.6609  -11.9308   27.4824 C   0  0  0  0  0  0  0  0  0  0  0  0
    5.7302  -12.9437   27.4633 C   0  0  0  0  0  0  0  0  0  0  0  0
    5.7211  -13.8341   26.3988 C   0  0  0  0  0  0  0  0  0  0  0  0
    7.6990  -16.6550   23.5226 C   0  0  0  0  0  0  0  0  0  0  0  0
    6.9215  -17.0724   22.6225 O   0  0  0  0  0  0  0  0  0  0  0  0
    7.2466  -13.4644   17.2985 O   0  0  0  0  0  0  0  0  0  0  0  0
    7.8493  -13.8161   18.5020 C   0  0  0  0  0  0  0  0  0  0  0  0
    7.3968  -13.3389   19.7129 C   0  0  0  0  0  0  0  0  0  0  0  0
    8.0233  -13.7129   20.8804 C   0  0  0  0  0  0  0  0  0  0  0  0
    9.1093  -14.5622   20.9099 C   0  0  0  0  0  0  0  0  0  0  0  0
    9.7440  -14.9306   22.1964 C   0  0  0  0  0  0  0  0  0  0  0  0
    9.8220  -16.4604   22.2710 C   0  0  2  0  0  0  0  0  0  0  0  0
    9.1044  -16.8570   23.4380 N   0  0  0  0  0  0  0  0  0  0  0  0
   11.2591  -16.8377   22.4581 C   0  0  0  0  0  0  0  0  0  0  0  0
   11.6766  -17.9293   21.9994 O   0  0  0  0  0  0  0  0  0  0  0  0
    9.5653  -15.0422   19.6977 C   0  0  0  0  0  0  0  0  0  0  0  0
    8.9352  -14.6668   18.5168 C   0  0  0  0  0  0  0  0  0  0  0  0
   10.0271  -14.7931   30.5414 O   0  0  0  0  0  0  0  0  0  0  0  0
   10.1892  -15.0613   29.1831 C   0  0  0  0  0  0  0  0  0  0  0  0
   11.1589  -14.4391   28.4164 C   0  0  0  0  0  0  0  0  0  0  0  0
   11.3262  -14.6974   27.0759 C   0  0  0  0  0  0  0  0  0  0  0  0
   10.5138  -15.6047   26.4409 C   0  0  0  0  0  0  0  0  0  0  0  0
   10.6315  -15.9231   25.0125 C   0  0  0  0  0  0  0  0  0  0  0  0
   12.0867  -15.9489   24.6114 C   0  0  2  0  0  0  0  0  0  0  0  0
   12.1701  -16.0004   23.1390 N   0  0  0  0  0  0  0  0  0  0  0  0
   12.7255  -17.1423   25.1984 C   0  0  0  0  0  0  0  0  0  0  0  0
   12.3001  -18.4300   25.0050 O   0  0  0  0  0  0  0  0  0  0  0  0
    9.5399  -16.2422   27.1697 C   0  0  0  0  0  0  0  0  0  0  0  0
    9.3934  -15.9660   28.5097 C   0  0  0  0  0  0  0  0  0  0  0  0
   13.7325  -16.9755   25.9336 O   0  0  0  0  0  0  0  0  0  0  0  0
  2  1  1  1
  3  2  1  0
  4  9  1  0
  4  3  1  0
  5  4  2  0
  6  7  2  0
  6  5  1  0
  7  8  1  0
  8  9  2  0
 10  2  1  0
 11 10  2  0
 12 13  1  0
 13 14  2  0
 14 15  1  0
 16 17  1  0
 16 15  2  0
 18 17  1  1
 18 19  1  0
 19 10  1  0
 20 21  2  0
 20 18  1  0
 22 16  1  0
 23 22  2  0
 23 13  1  0
 24 25  1  0
 25 35  2  0
 26 25  1  0
 26 27  2  0
 27 28  1  0
 28 34  2  0
 28 29  1  0
 30 29  1  6
 30 31  1  0
 31 20  1  0
 32 33  1  0
 32 30  1  0
 35 34  1  0
 36 32  2  0
M  END
$$$$
