FYY.pdb
     RDKit          3D

 36 38  0  0  1  0  0  0  0  0999 V2000
    6.9694  -17.2472   26.2536 N   0  0  0  0  0  0  0  0  0  0  0  0
    6.3311  -17.1135   24.9620 C   0  0  1  0  0  0  0  0  0  0  0  0
    5.4265  -15.8994   24.9079 C   0  0  0  0  0  0  0  0  0  0  0  0
    6.1029  -14.7896   25.6228 C   0  0  0  0  0  0  0  0  0  0  0  0
    7.3228  -15.0598   26.2078 C   0  0  0  0  0  0  0  0  0  0  0  0
    7.9618  -14.0364   26.8755 C   0  0  0  0  0  0  0  0  0  0  0  0
    7.3866  -12.7992   26.9438 C   0  0  0  0  0  0  0  0  0  0  0  0
    6.1698  -12.5372   26.3580 C   0  0  0  0  0  0  0  0  0  0  0  0
    5.5114  -13.5546   25.6816 C   0  0  0  0  0  0  0  0  0  0  0  0
    7.3365  -16.9505   23.8797 C   0  0  0  0  0  0  0  0  0  0  0  0
    7.9934  -17.9170   23.4074 O   0  0  0  0  0  0  0  0  0  0  0  0
    8.8908  -13.1846   16.2066 O   0  0  0  0  0  0  0  0  0  0  0  0
    8.5251  -13.4011   17.5313 C   0  0  0  0  0  0  0  0  0  0  0  0
    7.8332  -14.5262   17.9240 C   0  0  0  0  0  0  0  0  0  0  0  0
    7.4913  -14.7004   19.2462 C   0  0  0  0  0  0  0  0  0  0  0  0
    7.8100  -13.7880   20.2296 C   0  0  0  0  0  0  0  0  0  0  0  0
    7.4163  -14.0276   21.6372 C   0  0  0  0  0  0  0  0  0  0  0  0
    7.9602  -15.3978   22.0599 C   0  0  2  0  0  0  0  0  0  0  0  0
    7.5207  -15.6250   23.3976 N   0  0  0  0  0  0  0  0  0  0  0  0
    9.4554  -15.3145   22.0694 C   0  0  0  0  0  0  0  0  0  0  0  0
   10.0237  -14.3359   21.5257 O   0  0  0  0  0  0  0  0  0  0  0  0
    8.5036  -12.6591   19.8392 C   0  0  0  0  0  0  0  0  0  0  0  0
    8.8506  -12.4798   18.5051 C   0  0  0  0  0  0  0  0  0  0  0  0
   11.6755  -15.3956   30.2191 O   0  0  0  0  0  0  0  0  0  0  0  0
   11.2172  -15.3636   28.9031 C   0  0  0  0  0  0  0  0  0  0  0  0
   10.4963  -14.2966   28.3961 C   0  0  0  0  0  0  0  0  0  0  0  0
   10.0402  -14.2563   27.0992 C   0  0  0  0  0  0  0  0  0  0  0  0
   10.2932  -15.3021   26.2455 C   0  0  0  0  0  0  0  0  0  0  0  0
    9.8307  -15.3288   24.8523 C   0  0  0  0  0  0  0  0  0  0  0  0
   10.8673  -15.9958   23.9809 C   0  0  2  0  0  0  0  0  0  0  0  0
   10.2563  -16.3080   22.6744 N   0  0  0  0  0  0  0  0  0  0  0  0
   11.3215  -17.2360   24.6386 C   0  0  0  0  0  0  0  0  0  0  0  0
   12.2297  -17.2888   25.6628 O   0  0  0  0  0  0  0  0  0  0  0  0
   11.0061  -16.3786   26.7133 C   0  0  0  0  0  0  0  0  0  0  0  0
   11.4513  -16.3943   28.0152 C   0  0  0  0  0  0  0  0  0  0  0  0
   10.8487  -18.3295   24.2347 O   0  0  0  0  0  0  0  0  0  0  0  0
  2  1  1  1
  3  2  1  0
  4  9  1  0
  4  3  1  0
  5  4  2  0
  6  7  2  0
  6  5  1  0
  7  8  1  0
  8  9  2  0
 10  2  1  0
 11 10  2  0
 12 13  1  0
 13 14  2  0
 14 15  1  0
 16 17  1  0
 16 15  2  0
 18 17  1  1
 18 19  1  0
 19 10  1  0
 20 21  2  0
 20 18  1  0
 22 16  1  0
 23 22  2  0
 23 13  1  0
 24 25  1  0
 25 35  2  0
 26 25  1  0
 26 27  2  0
 27 28  1  0
 28 34  2  0
 28 29  1  0
 30 29  1  1
 30 31  1  0
 31 20  1  0
 32 33  1  0
 32 30  1  0
 35 34  1  0
 36 32  2  0
M  END
$$$$
