FYY.pdb
     RDKit          3D

 36 38  0  0  1  0  0  0  0  0999 V2000
    5.3361  -16.4269   24.0981 N   0  0  0  0  0  0  0  0  0  0  0  0
    6.6024  -16.0367   23.5168 C   0  0  1  0  0  0  0  0  0  0  0  0
    6.5009  -14.7091   22.7939 C   0  0  0  0  0  0  0  0  0  0  0  0
    6.3445  -13.6418   23.8121 C   0  0  0  0  0  0  0  0  0  0  0  0
    6.2472  -12.3417   23.3610 C   0  0  0  0  0  0  0  0  0  0  0  0
    6.1014  -11.3403   24.2977 C   0  0  0  0  0  0  0  0  0  0  0  0
    6.0570  -11.6481   25.6279 C   0  0  0  0  0  0  0  0  0  0  0  0
    6.1547  -12.9471   26.0703 C   0  0  0  0  0  0  0  0  0  0  0  0
    6.3018  -13.9686   25.1425 C   0  0  0  0  0  0  0  0  0  0  0  0
    7.6479  -15.8800   24.5612 C   0  0  0  0  0  0  0  0  0  0  0  0
    7.5351  -15.0744   25.5242 O   0  0  0  0  0  0  0  0  0  0  0  0
   13.7507  -16.3384   30.3373 O   0  0  0  0  0  0  0  0  0  0  0  0
   12.6986  -16.5096   29.4433 C   0  0  0  0  0  0  0  0  0  0  0  0
   12.4916  -17.6980   28.7771 C   0  0  0  0  0  0  0  0  0  0  0  0
   11.4374  -17.8239   27.9007 C   0  0  0  0  0  0  0  0  0  0  0  0
   10.5502  -16.8004   27.6428 C   0  0  0  0  0  0  0  0  0  0  0  0
    9.4332  -16.9925   26.6893 C   0  0  0  0  0  0  0  0  0  0  0  0
    9.9093  -16.5530   25.2994 C   0  0  2  0  0  0  0  0  0  0  0  0
    8.8006  -16.7003   24.4142 N   0  0  0  0  0  0  0  0  0  0  0  0
   10.9830  -17.5007   24.8615 C   0  0  0  0  0  0  0  0  0  0  0  0
   10.8340  -18.7332   25.0490 O   0  0  0  0  0  0  0  0  0  0  0  0
   10.7549  -15.6078   28.3091 C   0  0  0  0  0  0  0  0  0  0  0  0
   11.8184  -15.4769   29.1948 C   0  0  0  0  0  0  0  0  0  0  0  0
   10.6428  -13.0039   17.7592 O   0  0  0  0  0  0  0  0  0  0  0  0
   10.7304  -13.5969   19.0177 C   0  0  0  0  0  0  0  0  0  0  0  0
    9.9248  -14.6574   19.3939 C   0  0  0  0  0  0  0  0  0  0  0  0
   10.0041  -15.2487   20.6331 C   0  0  0  0  0  0  0  0  0  0  0  0
   10.9094  -14.7918   21.5595 C   0  0  0  0  0  0  0  0  0  0  0  0
   11.0429  -15.3704   22.9022 C   0  0  0  0  0  0  0  0  0  0  0  0
   12.0594  -16.4864   22.8806 C   0  0  2  0  0  0  0  0  0  0  0  0
   12.1687  -17.0523   24.2391 N   0  0  0  0  0  0  0  0  0  0  0  0
   13.3615  -15.9416   22.4510 C   0  0  0  0  0  0  0  0  0  0  0  0
   14.1915  -15.1895   23.2398 O   0  0  0  0  0  0  0  0  0  0  0  0
   11.7261  -13.7406   21.2218 C   0  0  0  0  0  0  0  0  0  0  0  0
   11.6268  -13.1667   19.9752 C   0  0  0  0  0  0  0  0  0  0  0  0
   13.7448  -16.1766   21.2762 O   0  0  0  0  0  0  0  0  0  0  0  0
  2  1  1  1
  3  2  1  0
  4  9  1  0
  4  3  1  0
  5  4  2  0
  6  7  2  0
  6  5  1  0
  7  8  1  0
  8  9  2  0
 10  2  1  0
 11 10  2  0
 12 13  1  0
 13 14  2  0
 14 15  1  0
 16 17  1  0
 16 15  2  0
 18 17  1  1
 18 19  1  0
 19 10  1  0
 20 21  2  0
 20 18  1  0
 22 16  1  0
 23 22  2  0
 23 13  1  0
 24 25  1  0
 25 35  2  0
 26 25  1  0
 26 27  2  0
 27 28  1  0
 28 34  2  0
 28 29  1  0
 30 29  1  1
 30 31  1  0
 31 20  1  0
 32 33  1  0
 32 30  1  0
 35 34  1  0
 36 32  2  0
M  END
$$$$
