FYY.pdb
     RDKit          3D

 36 38  0  0  1  0  0  0  0  0999 V2000
    6.0891  -20.9205   25.2859 N   0  0  0  0  0  0  0  0  0  0  0  0
    6.8766  -19.7736   25.6833 C   0  0  1  0  0  0  0  0  0  0  0  0
    8.0591  -20.1765   26.5405 C   0  0  0  0  0  0  0  0  0  0  0  0
    8.6669  -18.9423   27.0951 C   0  0  0  0  0  0  0  0  0  0  0  0
   10.0283  -18.9487   27.3183 C   0  0  0  0  0  0  0  0  0  0  0  0
   10.6055  -17.8072   27.8336 C   0  0  0  0  0  0  0  0  0  0  0  0
    9.8340  -16.7137   28.1078 C   0  0  0  0  0  0  0  0  0  0  0  0
    8.4769  -16.7147   27.8826 C   0  0  0  0  0  0  0  0  0  0  0  0
    7.8780  -17.8543   27.3643 C   0  0  0  0  0  0  0  0  0  0  0  0
    7.4250  -19.0617   24.4997 C   0  0  0  0  0  0  0  0  0  0  0  0
    8.2183  -19.6044   23.6841 O   0  0  0  0  0  0  0  0  0  0  0  0
    8.3022  -12.5243   18.7488 O   0  0  0  0  0  0  0  0  0  0  0  0
    7.8720  -13.3001   19.8205 C   0  0  0  0  0  0  0  0  0  0  0  0
    7.9138  -12.8403   21.1188 C   0  0  0  0  0  0  0  0  0  0  0  0
    7.4778  -13.6419   22.1498 C   0  0  0  0  0  0  0  0  0  0  0  0
    6.9872  -14.9155   21.9535 C   0  0  0  0  0  0  0  0  0  0  0  0
    6.5316  -15.7337   23.1010 C   0  0  0  0  0  0  0  0  0  0  0  0
    7.4688  -16.9406   23.2306 C   0  0  2  0  0  0  0  0  0  0  0  0
    7.0004  -17.7144   24.3333 N   0  0  0  0  0  0  0  0  0  0  0  0
    8.8340  -16.4267   23.5696 C   0  0  0  0  0  0  0  0  0  0  0  0
    9.6775  -16.2619   22.6544 O   0  0  0  0  0  0  0  0  0  0  0  0
    6.9440  -15.3794   20.6531 C   0  0  0  0  0  0  0  0  0  0  0  0
    7.3834  -14.5728   19.6096 C   0  0  0  0  0  0  0  0  0  0  0  0
    4.9741  -12.2411   25.9782 O   0  0  0  0  0  0  0  0  0  0  0  0
    6.2699  -12.7533   26.0173 C   0  0  0  0  0  0  0  0  0  0  0  0
    7.1093  -12.7280   24.9173 C   0  0  0  0  0  0  0  0  0  0  0  0
    8.3891  -13.2309   24.9465 C   0  0  0  0  0  0  0  0  0  0  0  0
    8.8856  -13.7886   26.0994 C   0  0  0  0  0  0  0  0  0  0  0  0
   10.2384  -14.3504   26.1994 C   0  0  0  0  0  0  0  0  0  0  0  0
   10.4579  -15.3574   25.0964 C   0  0  2  0  0  0  0  0  0  0  0  0
    9.2094  -16.1180   24.8956 N   0  0  0  0  0  0  0  0  0  0  0  0
   11.5503  -16.2684   25.4884 C   0  0  0  0  0  0  0  0  0  0  0  0
   11.4071  -17.6151   25.6953 O   0  0  0  0  0  0  0  0  0  0  0  0
    8.0813  -13.8312   27.2117 C   0  0  0  0  0  0  0  0  0  0  0  0
    6.8047  -13.3211   27.1562 C   0  0  0  0  0  0  0  0  0  0  0  0
   12.6994  -15.7827   25.6496 O   0  0  0  0  0  0  0  0  0  0  0  0
  2  1  1  6
  3  2  1  0
  4  9  1  0
  4  3  1  0
  5  4  2  0
  6  7  2  0
  6  5  1  0
  7  8  1  0
  8  9  2  0
 10  2  1  0
 11 10  2  0
 12 13  1  0
 13 14  2  0
 14 15  1  0
 16 17  1  0
 16 15  2  0
 18 17  1  1
 18 19  1  0
 19 10  1  0
 20 21  2  0
 20 18  1  0
 22 16  1  0
 23 22  2  0
 23 13  1  0
 24 25  1  0
 25 35  2  0
 26 25  1  0
 26 27  2  0
 27 28  1  0
 28 34  2  0
 28 29  1  0
 30 29  1  1
 30 31  1  0
 31 20  1  0
 32 33  1  0
 32 30  1  0
 35 34  1  0
 36 32  2  0
M  END
$$$$
