FYY.pdb
     RDKit          3D

 36 38  0  0  1  0  0  0  0  0999 V2000
    5.6899  -16.9946   23.7380 N   0  0  0  0  0  0  0  0  0  0  0  0
    6.7114  -15.9792   23.8759 C   0  0  1  0  0  0  0  0  0  0  0  0
    7.1487  -15.8175   25.3175 C   0  0  0  0  0  0  0  0  0  0  0  0
    6.9476  -14.3993   25.7028 C   0  0  0  0  0  0  0  0  0  0  0  0
    5.8296  -14.0961   26.4522 C   0  0  0  0  0  0  0  0  0  0  0  0
    5.6314  -12.7811   26.8169 C   0  0  0  0  0  0  0  0  0  0  0  0
    6.5276  -11.8227   26.4370 C   0  0  0  0  0  0  0  0  0  0  0  0
    7.6403  -12.1325   25.6897 C   0  0  0  0  0  0  0  0  0  0  0  0
    7.8568  -13.4506   25.3131 C   0  0  0  0  0  0  0  0  0  0  0  0
    7.9258  -16.3285   23.0938 C   0  0  0  0  0  0  0  0  0  0  0  0
    8.1737  -17.5021   22.7062 O   0  0  0  0  0  0  0  0  0  0  0  0
    6.5925  -14.1384   16.8382 O   0  0  0  0  0  0  0  0  0  0  0  0
    7.4773  -14.1438   17.9118 C   0  0  0  0  0  0  0  0  0  0  0  0
    7.4310  -13.1865   18.9018 C   0  0  0  0  0  0  0  0  0  0  0  0
    8.3263  -13.2297   19.9469 C   0  0  0  0  0  0  0  0  0  0  0  0
    9.2952  -14.2038   20.0644 C   0  0  0  0  0  0  0  0  0  0  0  0
   10.2325  -14.2009   21.2112 C   0  0  0  0  0  0  0  0  0  0  0  0
    9.9881  -15.4728   22.0324 C   0  0  2  0  0  0  0  0  0  0  0  0
    8.8072  -15.2512   22.8010 N   0  0  0  0  0  0  0  0  0  0  0  0
   11.1363  -15.6343   22.9802 C   0  0  0  0  0  0  0  0  0  0  0  0
   11.8708  -14.6486   23.2354 O   0  0  0  0  0  0  0  0  0  0  0  0
    9.3441  -15.1649   19.0735 C   0  0  0  0  0  0  0  0  0  0  0  0
    8.4418  -15.1244   18.0168 C   0  0  0  0  0  0  0  0  0  0  0  0
   11.3350  -15.5278   31.3044 O   0  0  0  0  0  0  0  0  0  0  0  0
   11.2067  -15.5978   29.9181 C   0  0  0  0  0  0  0  0  0  0  0  0
   11.6264  -16.6977   29.1906 C   0  0  0  0  0  0  0  0  0  0  0  0
   11.5039  -16.7756   27.8229 C   0  0  0  0  0  0  0  0  0  0  0  0
   10.9465  -15.7360   27.1192 C   0  0  0  0  0  0  0  0  0  0  0  0
   10.7917  -15.7488   25.6593 C   0  0  0  0  0  0  0  0  0  0  0  0
   11.6073  -16.8728   25.0673 C   0  0  2  0  0  0  0  0  0  0  0  0
   11.4246  -16.8687   23.6030 N   0  0  0  0  0  0  0  0  0  0  0  0
   11.1423  -18.1534   25.6336 C   0  0  0  0  0  0  0  0  0  0  0  0
   11.8889  -18.9636   26.4479 O   0  0  0  0  0  0  0  0  0  0  0  0
   10.5182  -14.6275   27.8076 C   0  0  0  0  0  0  0  0  0  0  0  0
   10.6521  -14.5746   29.1760 C   0  0  0  0  0  0  0  0  0  0  0  0
    9.9787  -18.5395   25.3518 O   0  0  0  0  0  0  0  0  0  0  0  0
  2  1  1  1
  3  2  1  0
  4  9  1  0
  4  3  1  0
  5  4  2  0
  6  7  2  0
  6  5  1  0
  7  8  1  0
  8  9  2  0
 10  2  1  0
 11 10  2  0
 12 13  1  0
 13 14  2  0
 14 15  1  0
 16 17  1  0
 16 15  2  0
 18 17  1  6
 18 19  1  0
 19 10  1  0
 20 21  2  0
 20 18  1  0
 22 16  1  0
 23 22  2  0
 23 13  1  0
 24 25  1  0
 25 35  2  0
 26 25  1  0
 26 27  2  0
 27 28  1  0
 28 34  2  0
 28 29  1  0
 30 29  1  1
 30 31  1  0
 31 20  1  0
 32 33  1  0
 32 30  1  0
 35 34  1  0
 36 32  2  0
M  END
$$$$
