FYY.pdb
     RDKit          3D

 36 38  0  0  1  0  0  0  0  0999 V2000
    9.1473  -16.2187   15.4487 N   0  0  0  0  0  0  0  0  0  0  0  0
    8.9242  -15.4902   16.6787 C   0  0  1  0  0  0  0  0  0  0  0  0
    7.5284  -15.7213   17.2206 C   0  0  0  0  0  0  0  0  0  0  0  0
    7.3949  -14.9608   18.4871 C   0  0  0  0  0  0  0  0  0  0  0  0
    7.2275  -15.6850   19.6493 C   0  0  0  0  0  0  0  0  0  0  0  0
    7.1023  -14.9896   20.8335 C   0  0  0  0  0  0  0  0  0  0  0  0
    7.1456  -13.6242   20.8336 C   0  0  0  0  0  0  0  0  0  0  0  0
    7.3128  -12.9087   19.6706 C   0  0  0  0  0  0  0  0  0  0  0  0
    7.4406  -13.5910   18.4689 C   0  0  0  0  0  0  0  0  0  0  0  0
    9.8742  -15.9195   17.7378 C   0  0  0  0  0  0  0  0  0  0  0  0
   10.2354  -17.1181   17.8854 O   0  0  0  0  0  0  0  0  0  0  0  0
   17.7767  -15.1234   19.6875 O   0  0  0  0  0  0  0  0  0  0  0  0
   16.4217  -14.8092   19.6570 C   0  0  0  0  0  0  0  0  0  0  0  0
   15.7266  -14.6857   18.4737 C   0  0  0  0  0  0  0  0  0  0  0  0
   14.3858  -14.3732   18.4897 C   0  0  0  0  0  0  0  0  0  0  0  0
   13.6769  -14.1706   19.6548 C   0  0  0  0  0  0  0  0  0  0  0  0
   12.2346  -13.8364   19.6119 C   0  0  0  0  0  0  0  0  0  0  0  0
   11.4438  -15.1441   19.4833 C   0  0  2  0  0  0  0  0  0  0  0  0
   10.3621  -14.8897   18.5891 N   0  0  0  0  0  0  0  0  0  0  0  0
   10.8694  -15.4667   20.8281 C   0  0  0  0  0  0  0  0  0  0  0  0
   10.7092  -14.5480   21.6687 O   0  0  0  0  0  0  0  0  0  0  0  0
   14.3709  -14.2937   20.8428 C   0  0  0  0  0  0  0  0  0  0  0  0
   15.7247  -14.6091   20.8306 C   0  0  0  0  0  0  0  0  0  0  0  0
   12.2007  -22.3924   18.0635 O   0  0  0  0  0  0  0  0  0  0  0  0
   12.3125  -21.2754   18.8899 C   0  0  0  0  0  0  0  0  0  0  0  0
   11.7331  -21.2228   20.1456 C   0  0  0  0  0  0  0  0  0  0  0  0
   11.8381  -20.1252   20.9678 C   0  0  0  0  0  0  0  0  0  0  0  0
   12.5397  -19.0186   20.5559 C   0  0  0  0  0  0  0  0  0  0  0  0
   12.6858  -17.8110   21.3780 C   0  0  0  0  0  0  0  0  0  0  0  0
   11.3913  -17.5220   22.0989 C   0  0  2  0  0  0  0  0  0  0  0  0
   10.4981  -16.7811   21.1875 N   0  0  0  0  0  0  0  0  0  0  0  0
   11.6797  -16.7115   23.2976 C   0  0  0  0  0  0  0  0  0  0  0  0
   12.4806  -17.1102   24.3351 O   0  0  0  0  0  0  0  0  0  0  0  0
   13.1286  -19.0343   19.3154 C   0  0  0  0  0  0  0  0  0  0  0  0
   13.0088  -20.1450   18.5122 C   0  0  0  0  0  0  0  0  0  0  0  0
   11.1546  -15.5717   23.3840 O   0  0  0  0  0  0  0  0  0  0  0  0
  2  1  1  6
  3  2  1  0
  4  9  1  0
  4  3  1  0
  5  4  2  0
  6  7  2  0
  6  5  1  0
  7  8  1  0
  8  9  2  0
 10  2  1  0
 11 10  2  0
 12 13  1  0
 13 14  2  0
 14 15  1  0
 16 17  1  0
 16 15  2  0
 18 17  1  1
 18 19  1  0
 19 10  1  0
 20 21  2  0
 20 18  1  0
 22 16  1  0
 23 22  2  0
 23 13  1  0
 24 25  1  0
 25 35  2  0
 26 25  1  0
 26 27  2  0
 27 28  1  0
 28 34  2  0
 28 29  1  0
 30 29  1  6
 30 31  1  0
 31 20  1  0
 32 33  1  0
 32 30  1  0
 35 34  1  0
 36 32  2  0
M  END
$$$$
