FYY.pdb
     RDKit          3D

 36 38  0  0  1  0  0  0  0  0999 V2000
    6.1961  -16.0400   25.4245 N   0  0  0  0  0  0  0  0  0  0  0  0
    7.2571  -15.4350   24.6489 C   0  0  1  0  0  0  0  0  0  0  0  0
    8.2198  -14.6608   25.5261 C   0  0  0  0  0  0  0  0  0  0  0  0
    7.5448  -13.4134   25.9604 C   0  0  0  0  0  0  0  0  0  0  0  0
    6.7919  -12.7378   25.0222 C   0  0  0  0  0  0  0  0  0  0  0  0
    6.1593  -11.5767   25.4136 C   0  0  0  0  0  0  0  0  0  0  0  0
    6.2874  -11.1263   26.6969 C   0  0  0  0  0  0  0  0  0  0  0  0
    7.0399  -11.8054   27.6270 C   0  0  0  0  0  0  0  0  0  0  0  0
    7.6841  -12.9759   27.2518 C   0  0  0  0  0  0  0  0  0  0  0  0
    8.0567  -16.4650   23.9361 C   0  0  0  0  0  0  0  0  0  0  0  0
    7.6766  -17.6608   23.8151 O   0  0  0  0  0  0  0  0  0  0  0  0
   12.4863  -20.7267   18.1691 O   0  0  0  0  0  0  0  0  0  0  0  0
   11.7105  -19.8781   18.9524 C   0  0  0  0  0  0  0  0  0  0  0  0
   11.3749  -20.1869   20.2527 C   0  0  0  0  0  0  0  0  0  0  0  0
   10.6048  -19.3178   20.9923 C   0  0  0  0  0  0  0  0  0  0  0  0
   10.1356  -18.1210   20.4933 C   0  0  0  0  0  0  0  0  0  0  0  0
    9.3104  -17.2244   21.3352 C   0  0  0  0  0  0  0  0  0  0  0  0
   10.0973  -16.9092   22.6131 C   0  0  2  0  0  0  0  0  0  0  0  0
    9.2930  -16.0229   23.3889 N   0  0  0  0  0  0  0  0  0  0  0  0
   11.3432  -16.1792   22.2161 C   0  0  0  0  0  0  0  0  0  0  0  0
   11.7768  -16.2888   21.0429 O   0  0  0  0  0  0  0  0  0  0  0  0
   10.4703  -17.8086   19.1901 C   0  0  0  0  0  0  0  0  0  0  0  0
   11.2478  -18.6837   18.4403 C   0  0  0  0  0  0  0  0  0  0  0  0
   11.5625  -17.0437   30.7116 O   0  0  0  0  0  0  0  0  0  0  0  0
   11.4189  -16.8194   29.3433 C   0  0  0  0  0  0  0  0  0  0  0  0
   12.1637  -17.5039   28.3989 C   0  0  0  0  0  0  0  0  0  0  0  0
   12.0288  -17.2894   27.0471 C   0  0  0  0  0  0  0  0  0  0  0  0
   11.1266  -16.3642   26.5814 C   0  0  0  0  0  0  0  0  0  0  0  0
   10.9359  -16.0793   25.1538 C   0  0  0  0  0  0  0  0  0  0  0  0
   12.2761  -15.8853   24.4865 C   0  0  2  0  0  0  0  0  0  0  0  0
   12.0544  -15.3640   23.1239 N   0  0  0  0  0  0  0  0  0  0  0  0
   12.9750  -17.1833   24.4263 C   0  0  0  0  0  0  0  0  0  0  0  0
   12.3862  -18.3715   24.0822 O   0  0  0  0  0  0  0  0  0  0  0  0
   10.3694  -15.6655   27.4894 C   0  0  0  0  0  0  0  0  0  0  0  0
   10.5235  -15.8991   28.8366 C   0  0  0  0  0  0  0  0  0  0  0  0
   14.1995  -17.2121   24.7129 O   0  0  0  0  0  0  0  0  0  0  0  0
  2  1  1  1
  3  2  1  0
  4  9  1  0
  4  3  1  0
  5  4  2  0
  6  7  2  0
  6  5  1  0
  7  8  1  0
  8  9  2  0
 10  2  1  0
 11 10  2  0
 12 13  1  0
 13 14  2  0
 14 15  1  0
 16 17  1  0
 16 15  2  0
 18 17  1  6
 18 19  1  0
 19 10  1  0
 20 21  2  0
 20 18  1  0
 22 16  1  0
 23 22  2  0
 23 13  1  0
 24 25  1  0
 25 35  2  0
 26 25  1  0
 26 27  2  0
 27 28  1  0
 28 34  2  0
 28 29  1  0
 30 29  1  6
 30 31  1  0
 31 20  1  0
 32 33  1  0
 32 30  1  0
 35 34  1  0
 36 32  2  0
M  END
$$$$
