FYY.pdb
     RDKit          3D

 36 38  0  0  1  0  0  0  0  0999 V2000
    9.0664  -17.5920   17.9257 N   0  0  0  0  0  0  0  0  0  0  0  0
    9.7835  -16.4628   18.4773 C   0  0  1  0  0  0  0  0  0  0  0  0
    9.5129  -16.2976   19.9588 C   0  0  0  0  0  0  0  0  0  0  0  0
    8.8179  -15.0023   20.1578 C   0  0  0  0  0  0  0  0  0  0  0  0
    7.8319  -14.9509   21.1213 C   0  0  0  0  0  0  0  0  0  0  0  0
    7.1784  -13.7523   21.3160 C   0  0  0  0  0  0  0  0  0  0  0  0
    7.5128  -12.6605   20.5662 C   0  0  0  0  0  0  0  0  0  0  0  0
    8.4972  -12.7193   19.6071 C   0  0  0  0  0  0  0  0  0  0  0  0
    9.1661  -13.9169   19.3967 C   0  0  0  0  0  0  0  0  0  0  0  0
   11.2520  -16.6313   18.3236 C   0  0  0  0  0  0  0  0  0  0  0  0
   11.7912  -17.7491   18.1026 O   0  0  0  0  0  0  0  0  0  0  0  0
   19.5146  -14.1810   16.9696 O   0  0  0  0  0  0  0  0  0  0  0  0
   18.1350  -14.1652   17.1486 C   0  0  0  0  0  0  0  0  0  0  0  0
   17.5311  -13.3786   18.1052 C   0  0  0  0  0  0  0  0  0  0  0  0
   16.1619  -13.3938   18.2481 C   0  0  0  0  0  0  0  0  0  0  0  0
   15.3349  -14.1731   17.4670 C   0  0  0  0  0  0  0  0  0  0  0  0
   13.8674  -14.1494   17.6653 C   0  0  0  0  0  0  0  0  0  0  0  0
   13.4450  -15.4910   18.2764 C   0  0  2  0  0  0  0  0  0  0  0  0
   12.0290  -15.4457   18.4410 N   0  0  0  0  0  0  0  0  0  0  0  0
   14.0681  -15.5928   19.6344 C   0  0  0  0  0  0  0  0  0  0  0  0
   14.5378  -14.5631   20.1779 O   0  0  0  0  0  0  0  0  0  0  0  0
   15.9373  -14.9629   16.5071 C   0  0  0  0  0  0  0  0  0  0  0  0
   17.3196  -14.9501   16.3599 C   0  0  0  0  0  0  0  0  0  0  0  0
    9.1500  -16.8481   26.3097 O   0  0  0  0  0  0  0  0  0  0  0  0
    9.8524  -16.7561   25.1091 C   0  0  0  0  0  0  0  0  0  0  0  0
   10.4520  -15.5812   24.6905 C   0  0  0  0  0  0  0  0  0  0  0  0
   11.1469  -15.4811   23.5079 C   0  0  0  0  0  0  0  0  0  0  0  0
   11.2697  -16.5737   22.6846 C   0  0  0  0  0  0  0  0  0  0  0  0
   11.9902  -16.5363   21.4059 C   0  0  0  0  0  0  0  0  0  0  0  0
   13.4339  -16.9223   21.6198 C   0  0  2  0  0  0  0  0  0  0  0  0
   14.1465  -16.8183   20.3318 N   0  0  0  0  0  0  0  0  0  0  0  0
   13.4911  -18.3086   22.1215 C   0  0  0  0  0  0  0  0  0  0  0  0
   13.9097  -19.3874   21.3882 O   0  0  0  0  0  0  0  0  0  0  0  0
   10.6877  -17.7573   23.0672 C   0  0  0  0  0  0  0  0  0  0  0  0
    9.9979  -17.8310   24.2554 C   0  0  0  0  0  0  0  0  0  0  0  0
   13.1284  -18.5266   23.3061 O   0  0  0  0  0  0  0  0  0  0  0  0
  2  1  1  1
  3  2  1  0
  4  9  1  0
  4  3  1  0
  5  4  2  0
  6  7  2  0
  6  5  1  0
  7  8  1  0
  8  9  2  0
 10  2  1  0
 11 10  2  0
 12 13  1  0
 13 14  2  0
 14 15  1  0
 16 17  1  0
 16 15  2  0
 18 17  1  1
 18 19  1  0
 19 10  1  0
 20 21  2  0
 20 18  1  0
 22 16  1  0
 23 22  2  0
 23 13  1  0
 24 25  1  0
 25 35  2  0
 26 25  1  0
 26 27  2  0
 27 28  1  0
 28 34  2  0
 28 29  1  0
 30 29  1  6
 30 31  1  0
 31 20  1  0
 32 33  1  0
 32 30  1  0
 35 34  1  0
 36 32  2  0
M  END
$$$$
