FYY.pdb
     RDKit          3D

 36 38  0  0  1  0  0  0  0  0999 V2000
   11.2642  -17.6850   19.3717 N   0  0  0  0  0  0  0  0  0  0  0  0
   10.5365  -16.6732   20.1066 C   0  0  1  0  0  0  0  0  0  0  0  0
    9.1065  -16.5494   19.6219 C   0  0  0  0  0  0  0  0  0  0  0  0
    8.5775  -15.2411   20.0788 C   0  0  0  0  0  0  0  0  0  0  0  0
    7.4073  -15.2482   20.8096 C   0  0  0  0  0  0  0  0  0  0  0  0
    6.9053  -14.0383   21.2402 C   0  0  0  0  0  0  0  0  0  0  0  0
    7.5627  -12.8787   20.9413 C   0  0  0  0  0  0  0  0  0  0  0  0
    8.7292  -12.8794   20.2121 C   0  0  0  0  0  0  0  0  0  0  0  0
    9.2500  -14.0874   19.7699 C   0  0  0  0  0  0  0  0  0  0  0  0
   10.4739  -17.0012   21.5547 C   0  0  0  0  0  0  0  0  0  0  0  0
   10.3039  -18.1749   21.9818 O   0  0  0  0  0  0  0  0  0  0  0  0
   11.2306  -15.5117   30.1300 O   0  0  0  0  0  0  0  0  0  0  0  0
   11.1877  -15.3343   28.7508 C   0  0  0  0  0  0  0  0  0  0  0  0
   12.1047  -15.9253   27.9090 C   0  0  0  0  0  0  0  0  0  0  0  0
   12.0252  -15.7228   26.5496 C   0  0  0  0  0  0  0  0  0  0  0  0
   11.0531  -14.9400   25.9636 C   0  0  0  0  0  0  0  0  0  0  0  0
   11.0159  -14.7572   24.4943 C   0  0  0  0  0  0  0  0  0  0  0  0
   10.7710  -16.1260   23.8476 C   0  0  2  0  0  0  0  0  0  0  0  0
   10.6184  -15.9031   22.4472 N   0  0  0  0  0  0  0  0  0  0  0  0
    9.4755  -16.6584   24.3777 C   0  0  0  0  0  0  0  0  0  0  0  0
    9.4079  -17.0463   25.5698 O   0  0  0  0  0  0  0  0  0  0  0  0
   10.1323  -14.3461   26.8048 C   0  0  0  0  0  0  0  0  0  0  0  0
   10.2094  -14.5483   28.1779 C   0  0  0  0  0  0  0  0  0  0  0  0
    7.2813  -11.6218   27.3436 O   0  0  0  0  0  0  0  0  0  0  0  0
    6.9712  -12.7237   26.5482 C   0  0  0  0  0  0  0  0  0  0  0  0
    6.6832  -13.9664   27.0849 C   0  0  0  0  0  0  0  0  0  0  0  0
    6.3762  -15.0590   26.3081 C   0  0  0  0  0  0  0  0  0  0  0  0
    6.3455  -14.9466   24.9395 C   0  0  0  0  0  0  0  0  0  0  0  0
    6.0330  -16.0720   24.0500 C   0  0  0  0  0  0  0  0  0  0  0  0
    7.0605  -17.1641   24.2249 C   0  0  2  0  0  0  0  0  0  0  0  0
    8.3159  -16.7401   23.5757 N   0  0  0  0  0  0  0  0  0  0  0  0
    6.5573  -18.4016   23.5985 C   0  0  0  0  0  0  0  0  0  0  0  0
    5.4560  -19.0982   24.0210 O   0  0  0  0  0  0  0  0  0  0  0  0
    6.6258  -13.7283   24.3708 C   0  0  0  0  0  0  0  0  0  0  0  0
    6.9300  -12.6507   25.1703 C   0  0  0  0  0  0  0  0  0  0  0  0
    7.1795  -18.8599   22.6059 O   0  0  0  0  0  0  0  0  0  0  0  0
  2  1  1  6
  3  2  1  0
  4  9  1  0
  4  3  1  0
  5  4  2  0
  6  7  2  0
  6  5  1  0
  7  8  1  0
  8  9  2  0
 10  2  1  0
 11 10  2  0
 12 13  1  0
 13 14  2  0
 14 15  1  0
 16 17  1  0
 16 15  2  0
 18 17  1  1
 18 19  1  0
 19 10  1  0
 20 21  2  0
 20 18  1  0
 22 16  1  0
 23 22  2  0
 23 13  1  0
 24 25  1  0
 25 35  2  0
 26 25  1  0
 26 27  2  0
 27 28  1  0
 28 34  2  0
 28 29  1  0
 30 29  1  6
 30 31  1  0
 31 20  1  0
 32 33  1  0
 32 30  1  0
 35 34  1  0
 36 32  2  0
M  END
$$$$
