FYY.pdb
     RDKit          3D

 36 38  0  0  1  0  0  0  0  0999 V2000
    6.2496  -19.2074   25.7341 N   0  0  0  0  0  0  0  0  0  0  0  0
    6.5300  -17.7930   25.6150 C   0  0  1  0  0  0  0  0  0  0  0  0
    7.4368  -17.3067   26.7271 C   0  0  0  0  0  0  0  0  0  0  0  0
    7.2828  -15.8354   26.8361 C   0  0  0  0  0  0  0  0  0  0  0  0
    6.0456  -15.3018   26.5397 C   0  0  0  0  0  0  0  0  0  0  0  0
    5.8894  -13.9351   26.6373 C   0  0  0  0  0  0  0  0  0  0  0  0
    6.9415  -13.1512   27.0178 C   0  0  0  0  0  0  0  0  0  0  0  0
    8.1724  -13.6906   27.3118 C   0  0  0  0  0  0  0  0  0  0  0  0
    8.3488  -15.0640   27.2193 C   0  0  0  0  0  0  0  0  0  0  0  0
    7.2176  -17.4871   24.3335 C   0  0  0  0  0  0  0  0  0  0  0  0
    7.9756  -18.3099   23.7526 O   0  0  0  0  0  0  0  0  0  0  0  0
    8.6726  -13.1228   16.9187 O   0  0  0  0  0  0  0  0  0  0  0  0
    8.2390  -13.4600   18.1969 C   0  0  0  0  0  0  0  0  0  0  0  0
    7.5868  -14.6454   18.4585 C   0  0  0  0  0  0  0  0  0  0  0  0
    7.1747  -14.9390   19.7389 C   0  0  0  0  0  0  0  0  0  0  0  0
    7.3826  -14.0915   20.8065 C   0  0  0  0  0  0  0  0  0  0  0  0
    6.9172  -14.4595   22.1636 C   0  0  0  0  0  0  0  0  0  0  0  0
    7.4722  -15.8491   22.4996 C   0  0  2  0  0  0  0  0  0  0  0  0
    6.9709  -16.1965   23.7888 N   0  0  0  0  0  0  0  0  0  0  0  0
    8.9625  -15.7368   22.5948 C   0  0  0  0  0  0  0  0  0  0  0  0
    9.6543  -15.7836   21.5482 O   0  0  0  0  0  0  0  0  0  0  0  0
    8.0361  -12.9024   20.5476 C   0  0  0  0  0  0  0  0  0  0  0  0
    8.4536  -12.6025   19.2560 C   0  0  0  0  0  0  0  0  0  0  0  0
    9.1937  -15.7716   29.8525 O   0  0  0  0  0  0  0  0  0  0  0  0
    9.7592  -15.4401   28.6223 C   0  0  0  0  0  0  0  0  0  0  0  0
    9.3255  -14.3585   27.8758 C   0  0  0  0  0  0  0  0  0  0  0  0
    9.8773  -14.0238   26.6613 C   0  0  0  0  0  0  0  0  0  0  0  0
   10.9028  -14.7734   26.1387 C   0  0  0  0  0  0  0  0  0  0  0  0
   11.5329  -14.4782   24.8459 C   0  0  0  0  0  0  0  0  0  0  0  0
   11.0966  -15.4952   23.8191 C   0  0  2  0  0  0  0  0  0  0  0  0
    9.6234  -15.5786   23.8329 N   0  0  0  0  0  0  0  0  0  0  0  0
   11.6828  -16.8052   24.1615 C   0  0  0  0  0  0  0  0  0  0  0  0
   10.9612  -17.9456   24.3969 O   0  0  0  0  0  0  0  0  0  0  0  0
   11.3599  -15.8547   26.8515 C   0  0  0  0  0  0  0  0  0  0  0  0
   10.7907  -16.1681   28.0644 C   0  0  0  0  0  0  0  0  0  0  0  0
   12.9348  -16.8907   24.2490 O   0  0  0  0  0  0  0  0  0  0  0  0
  2  1  1  1
  3  2  1  0
  4  9  1  0
  4  3  1  0
  5  4  2  0
  6  7  2  0
  6  5  1  0
  7  8  1  0
  8  9  2  0
 10  2  1  0
 11 10  2  0
 12 13  1  0
 13 14  2  0
 14 15  1  0
 16 17  1  0
 16 15  2  0
 18 17  1  1
 18 19  1  0
 19 10  1  0
 20 21  2  0
 20 18  1  0
 22 16  1  0
 23 22  2  0
 23 13  1  0
 24 25  1  0
 25 35  2  0
 26 25  1  0
 26 27  2  0
 27 28  1  0
 28 34  2  0
 28 29  1  0
 30 29  1  1
 30 31  1  0
 31 20  1  0
 32 33  1  0
 32 30  1  0
 35 34  1  0
 36 32  2  0
M  END
$$$$
