FYY.pdb
     RDKit          3D

 36 38  0  0  1  0  0  0  0  0999 V2000
    5.8174  -17.1427   23.4330 N   0  0  0  0  0  0  0  0  0  0  0  0
    7.0861  -16.4881   23.6684 C   0  0  1  0  0  0  0  0  0  0  0  0
    7.1794  -15.9387   25.0772 C   0  0  0  0  0  0  0  0  0  0  0  0
    6.5741  -14.5845   25.0839 C   0  0  0  0  0  0  0  0  0  0  0  0
    5.4025  -14.4150   25.7924 C   0  0  0  0  0  0  0  0  0  0  0  0
    4.8297  -13.1607   25.8064 C   0  0  0  0  0  0  0  0  0  0  0  0
    5.4211  -12.1304   25.1321 C   0  0  0  0  0  0  0  0  0  0  0  0
    6.5895  -12.3070   24.4277 C   0  0  0  0  0  0  0  0  0  0  0  0
    7.1809  -13.5622   24.4019 C   0  0  0  0  0  0  0  0  0  0  0  0
    8.2191  -17.4347   23.4990 C   0  0  0  0  0  0  0  0  0  0  0  0
    8.6126  -18.1999   24.4202 O   0  0  0  0  0  0  0  0  0  0  0  0
    7.4743  -12.3856   17.7185 O   0  0  0  0  0  0  0  0  0  0  0  0
    7.9346  -13.0427   18.8551 C   0  0  0  0  0  0  0  0  0  0  0  0
    7.9368  -12.4429   20.0956 C   0  0  0  0  0  0  0  0  0  0  0  0
    8.4016  -13.1302   21.1943 C   0  0  0  0  0  0  0  0  0  0  0  0
    8.8792  -14.4218   21.1240 C   0  0  0  0  0  0  0  0  0  0  0  0
    9.3670  -15.1129   22.3397 C   0  0  0  0  0  0  0  0  0  0  0  0
    9.8829  -16.4974   21.9289 C   0  0  2  0  0  0  0  0  0  0  0  0
    8.8456  -17.4315   22.2220 N   0  0  0  0  0  0  0  0  0  0  0  0
   11.0605  -16.8234   22.7947 C   0  0  0  0  0  0  0  0  0  0  0  0
   12.1577  -16.2493   22.5881 O   0  0  0  0  0  0  0  0  0  0  0  0
    8.8783  -15.0259   19.8818 C   0  0  0  0  0  0  0  0  0  0  0  0
    8.4098  -14.3350   18.7702 C   0  0  0  0  0  0  0  0  0  0  0  0
   12.4421  -14.3152   30.7008 O   0  0  0  0  0  0  0  0  0  0  0  0
   12.0196  -14.7704   29.4528 C   0  0  0  0  0  0  0  0  0  0  0  0
   11.9246  -16.1173   29.1495 C   0  0  0  0  0  0  0  0  0  0  0  0
   11.5088  -16.5756   27.9212 C   0  0  0  0  0  0  0  0  0  0  0  0
   11.1664  -15.6862   26.9321 C   0  0  0  0  0  0  0  0  0  0  0  0
   10.7218  -16.1050   25.5970 C   0  0  0  0  0  0  0  0  0  0  0  0
   11.4655  -17.3494   25.1761 C   0  0  2  0  0  0  0  0  0  0  0  0
   10.9792  -17.7633   23.8458 N   0  0  0  0  0  0  0  0  0  0  0  0
   11.2137  -18.4164   26.1636 C   0  0  0  0  0  0  0  0  0  0  0  0
   10.3116  -19.4343   25.9998 O   0  0  0  0  0  0  0  0  0  0  0  0
   11.2481  -14.3411   27.1966 C   0  0  0  0  0  0  0  0  0  0  0  0
   11.6669  -13.9085   28.4339 C   0  0  0  0  0  0  0  0  0  0  0  0
   11.8674  -18.3971   27.2381 O   0  0  0  0  0  0  0  0  0  0  0  0
  2  1  1  1
  3  2  1  0
  4  9  1  0
  4  3  1  0
  5  4  2  0
  6  7  2  0
  6  5  1  0
  7  8  1  0
  8  9  2  0
 10  2  1  0
 11 10  2  0
 12 13  1  0
 13 14  2  0
 14 15  1  0
 16 17  1  0
 16 15  2  0
 18 17  1  1
 18 19  1  0
 19 10  1  0
 20 21  2  0
 20 18  1  0
 22 16  1  0
 23 22  2  0
 23 13  1  0
 24 25  1  0
 25 35  2  0
 26 25  1  0
 26 27  2  0
 27 28  1  0
 28 34  2  0
 28 29  1  0
 30 29  1  1
 30 31  1  0
 31 20  1  0
 32 33  1  0
 32 30  1  0
 35 34  1  0
 36 32  2  0
M  END
$$$$
