YDT.pdb
     RDKit          3D

 28 28  0  0  1  0  0  0  0  0999 V2000
    8.5945  -11.8721   18.6159 O   0  0  0  0  0  0  0  0  0  0  0  0
    8.1108  -12.7099   19.6350 C   0  0  0  0  0  0  0  0  0  0  0  0
    6.9929  -13.4674   19.3913 C   0  0  0  0  0  0  0  0  0  0  0  0
    6.5012  -14.3008   20.3870 C   0  0  0  0  0  0  0  0  0  0  0  0
    7.1406  -14.3557   21.6017 C   0  0  0  0  0  0  0  0  0  0  0  0
    6.6168  -15.2330   22.6648 C   0  0  0  0  0  0  0  0  0  0  0  0
    7.2811  -16.5937   22.4864 C   0  0  2  0  0  0  0  0  0  0  0  0
    6.2355  -17.5879   22.7037 N   0  0  0  0  0  0  0  0  0  0  0  0
    8.3170  -16.7840   23.5108 C   0  0  0  0  0  0  0  0  0  0  0  0
    8.0294  -16.9817   24.6931 O   0  0  0  0  0  0  0  0  0  0  0  0
    8.2553  -13.5967   21.8374 C   0  0  0  0  0  0  0  0  0  0  0  0
    8.7433  -12.7686   20.8471 C   0  0  0  0  0  0  0  0  0  0  0  0
    9.7107  -16.7447   23.1613 N   0  0  0  0  0  0  0  0  0  0  0  0
   10.7811  -16.8795   24.0896 C   0  0  1  0  0  0  0  0  0  0  0  0
   12.1152  -17.1726   23.4155 C   0  0  0  0  0  0  0  0  0  0  0  0
   11.9113  -18.4578   22.6724 C   0  0  0  0  0  0  0  0  0  0  0  0
   12.3465  -18.6525   21.4981 O   0  0  0  0  0  0  0  0  0  0  0  0
   10.8701  -15.7950   25.0925 C   0  0  0  0  0  0  0  0  0  0  0  0
   11.5936  -14.7834   24.9457 O   0  0  0  0  0  0  0  0  0  0  0  0
   11.2151  -19.5440   23.2426 O   0  0  0  0  0  0  0  0  0  0  0  0
    9.0525  -13.0566   26.3194 C   0  0  0  0  0  0  0  0  0  0  0  0
    9.1202  -13.9943   27.4761 C   0  0  1  0  0  0  0  0  0  0  0  0
    7.9290  -14.7402   27.4809 O   0  0  0  0  0  0  0  0  0  0  0  0
   10.2940  -14.9476   27.4249 C   0  0  2  0  0  0  0  0  0  0  0  0
   10.1112  -15.8510   26.3130 N   0  0  0  0  0  0  0  0  0  0  0  0
   10.4887  -15.6604   28.6986 C   0  0  0  0  0  0  0  0  0  0  0  0
   10.4028  -17.0745   28.7084 O   0  0  0  0  0  0  0  0  0  0  0  0
   10.7270  -15.1282   29.7865 O   0  0  0  0  0  0  0  0  0  0  0  0
  1  2  1  0
  2 12  2  0
  3  4  2  0
  3  2  1  0
  4  5  1  0
  5  6  1  0
  5 11  2  0
  7  8  1  1
  7  6  1  0
  9  7  1  0
 10  9  2  0
 12 11  1  0
 13  9  1  0
 14 13  1  0
 14 15  1  6
 15 16  1  0
 16 20  1  0
 17 16  2  0
 18 14  1  0
 19 18  2  0
 22 21  1  6
 22 24  1  0
 23 22  1  0
 24 26  1  0
 24 25  1  6
 25 18  1  0
 26 27  1  0
 28 26  2  0
M  END
$$$$
