YDT.pdb
     RDKit          3D

 28 28  0  0  1  0  0  0  0  0999 V2000
    7.5900  -12.4243   17.2253 O   0  0  0  0  0  0  0  0  0  0  0  0
    7.6872  -12.9892   18.5082 C   0  0  0  0  0  0  0  0  0  0  0  0
    8.9330  -13.2386   19.0266 C   0  0  0  0  0  0  0  0  0  0  0  0
    9.0475  -13.7967   20.2928 C   0  0  0  0  0  0  0  0  0  0  0  0
    7.9127  -14.0909   21.0089 C   0  0  0  0  0  0  0  0  0  0  0  0
    8.0297  -14.6914   22.3505 C   0  0  0  0  0  0  0  0  0  0  0  0
    8.1681  -16.1970   22.1537 C   0  0  2  0  0  0  0  0  0  0  0  0
    6.8094  -16.7249   22.0890 N   0  0  0  0  0  0  0  0  0  0  0  0
    8.8393  -16.7950   23.3159 C   0  0  0  0  0  0  0  0  0  0  0  0
    8.2332  -17.0291   24.3635 O   0  0  0  0  0  0  0  0  0  0  0  0
    6.6732  -13.8394   20.4849 C   0  0  0  0  0  0  0  0  0  0  0  0
    6.5602  -13.2847   19.2262 C   0  0  0  0  0  0  0  0  0  0  0  0
   10.2366  -17.1278   23.2654 N   0  0  0  0  0  0  0  0  0  0  0  0
   11.0240  -17.4850   24.3959 C   0  0  1  0  0  0  0  0  0  0  0  0
   12.3259  -18.1778   24.0149 C   0  0  0  0  0  0  0  0  0  0  0  0
   12.6410  -17.6987   22.6304 C   0  0  0  0  0  0  0  0  0  0  0  0
   13.1316  -16.5549   22.3910 O   0  0  0  0  0  0  0  0  0  0  0  0
   11.2183  -16.3991   25.3822 C   0  0  0  0  0  0  0  0  0  0  0  0
   11.9926  -15.4329   25.1943 O   0  0  0  0  0  0  0  0  0  0  0  0
   12.4094  -18.5025   21.4947 O   0  0  0  0  0  0  0  0  0  0  0  0
    8.3088  -14.8225   27.6089 C   0  0  0  0  0  0  0  0  0  0  0  0
    9.7208  -14.3448   27.6010 C   0  0  1  0  0  0  0  0  0  0  0  0
    9.8775  -13.4826   28.6999 O   0  0  0  0  0  0  0  0  0  0  0  0
   10.7442  -15.4547   27.7003 C   0  0  2  0  0  0  0  0  0  0  0  0
   10.5098  -16.4002   26.6339 N   0  0  0  0  0  0  0  0  0  0  0  0
   10.7441  -16.0956   29.0260 C   0  0  0  0  0  0  0  0  0  0  0  0
   11.1593  -15.3385   30.1492 O   0  0  0  0  0  0  0  0  0  0  0  0
   10.4067  -17.2602   29.2571 O   0  0  0  0  0  0  0  0  0  0  0  0
  1  2  1  0
  2 12  2  0
  3  4  2  0
  3  2  1  0
  4  5  1  0
  5  6  1  0
  5 11  2  0
  7  8  1  1
  7  6  1  0
  9  7  1  0
 10  9  2  0
 12 11  1  0
 13  9  1  0
 14 13  1  0
 14 15  1  6
 15 16  1  0
 16 20  1  0
 17 16  2  0
 18 14  1  0
 19 18  2  0
 22 21  1  1
 22 24  1  0
 23 22  1  0
 24 26  1  0
 24 25  1  6
 25 18  1  0
 26 27  1  0
 28 26  2  0
M  END
$$$$
