YDT.pdb
     RDKit          3D

 28 28  0  0  1  0  0  0  0  0999 V2000
    7.5443  -11.7995   26.8467 O   0  0  0  0  0  0  0  0  0  0  0  0
    7.2960  -12.8722   25.9738 C   0  0  0  0  0  0  0  0  0  0  0  0
    7.2953  -12.6362   24.6221 C   0  0  0  0  0  0  0  0  0  0  0  0
    7.0516  -13.6846   23.7450 C   0  0  0  0  0  0  0  0  0  0  0  0
    6.8152  -14.9431   24.2424 C   0  0  0  0  0  0  0  0  0  0  0  0
    6.5476  -16.0577   23.3148 C   0  0  0  0  0  0  0  0  0  0  0  0
    7.7070  -16.1015   22.3256 C   0  0  2  0  0  0  0  0  0  0  0  0
    7.3150  -17.0425   21.2816 N   0  0  0  0  0  0  0  0  0  0  0  0
    8.9109  -16.6232   22.9869 C   0  0  0  0  0  0  0  0  0  0  0  0
    8.9304  -17.7403   23.5078 O   0  0  0  0  0  0  0  0  0  0  0  0
    6.8173  -15.1707   25.5924 C   0  0  0  0  0  0  0  0  0  0  0  0
    7.0596  -14.1281   26.4634 C   0  0  0  0  0  0  0  0  0  0  0  0
   10.1136  -15.8384   23.0469 N   0  0  0  0  0  0  0  0  0  0  0  0
   11.3754  -16.3254   23.4899 C   0  0  1  0  0  0  0  0  0  0  0  0
   12.5255  -15.8930   22.5897 C   0  0  0  0  0  0  0  0  0  0  0  0
   13.6607  -16.8117   22.9257 C   0  0  0  0  0  0  0  0  0  0  0  0
   13.4908  -18.0107   23.2993 O   0  0  0  0  0  0  0  0  0  0  0  0
   11.6548  -16.1026   24.9259 C   0  0  0  0  0  0  0  0  0  0  0  0
   12.7957  -15.8379   25.3693 O   0  0  0  0  0  0  0  0  0  0  0  0
   15.0052  -16.3930   22.8440 O   0  0  0  0  0  0  0  0  0  0  0  0
    9.8710  -13.8493   27.5054 C   0  0  0  0  0  0  0  0  0  0  0  0
    9.8030  -15.2614   27.9780 C   0  0  1  0  0  0  0  0  0  0  0  0
    8.5148  -15.7401   27.6835 O   0  0  0  0  0  0  0  0  0  0  0  0
   10.8231  -16.1737   27.3329 C   0  0  2  0  0  0  0  0  0  0  0  0
   10.6043  -16.1802   25.9053 N   0  0  0  0  0  0  0  0  0  0  0  0
   10.8012  -17.5289   27.9083 C   0  0  0  0  0  0  0  0  0  0  0  0
   11.0684  -17.6871   29.2905 O   0  0  0  0  0  0  0  0  0  0  0  0
   10.5646  -18.5670   27.2837 O   0  0  0  0  0  0  0  0  0  0  0  0
  1  2  1  0
  2 12  2  0
  3  4  2  0
  3  2  1  0
  4  5  1  0
  5  6  1  0
  5 11  2  0
  7  8  1  6
  7  6  1  0
  9  7  1  0
 10  9  2  0
 12 11  1  0
 13  9  1  0
 14 13  1  0
 14 15  1  6
 15 16  1  0
 16 20  1  0
 17 16  2  0
 18 14  1  0
 19 18  2  0
 22 21  1  6
 22 24  1  0
 23 22  1  0
 24 26  1  0
 24 25  1  6
 25 18  1  0
 26 27  1  0
 28 26  2  0
M  END
$$$$
