YDT.pdb
     RDKit          3D

 28 28  0  0  1  0  0  0  0  0999 V2000
    7.0720  -12.5362   17.5031 O   0  0  0  0  0  0  0  0  0  0  0  0
    7.4577  -13.0863   18.7372 C   0  0  0  0  0  0  0  0  0  0  0  0
    8.7901  -13.1022   19.0648 C   0  0  0  0  0  0  0  0  0  0  0  0
    9.1891  -13.6420   20.2802 C   0  0  0  0  0  0  0  0  0  0  0  0
    8.2448  -14.1521   21.1377 C   0  0  0  0  0  0  0  0  0  0  0  0
    8.6650  -14.7339   22.4258 C   0  0  0  0  0  0  0  0  0  0  0  0
    9.1514  -16.1497   22.1370 C   0  0  2  0  0  0  0  0  0  0  0  0
    7.9575  -16.9404   21.8571 N   0  0  0  0  0  0  0  0  0  0  0  0
    9.8043  -16.7084   23.3288 C   0  0  0  0  0  0  0  0  0  0  0  0
    9.1659  -17.3130   24.1929 O   0  0  0  0  0  0  0  0  0  0  0  0
    6.9173  -14.1328   20.8037 C   0  0  0  0  0  0  0  0  0  0  0  0
    6.5216  -13.5961   19.5955 C   0  0  0  0  0  0  0  0  0  0  0  0
   11.2210  -16.5650   23.5246 N   0  0  0  0  0  0  0  0  0  0  0  0
   11.9427  -17.0994   24.6288 C   0  0  1  0  0  0  0  0  0  0  0  0
   13.3373  -17.5790   24.2475 C   0  0  0  0  0  0  0  0  0  0  0  0
   13.8518  -18.3046   25.4535 C   0  0  0  0  0  0  0  0  0  0  0  0
   14.9469  -18.0116   26.0202 O   0  0  0  0  0  0  0  0  0  0  0  0
   11.9387  -16.2493   25.8400 C   0  0  0  0  0  0  0  0  0  0  0  0
   12.8455  -15.4265   26.1030 O   0  0  0  0  0  0  0  0  0  0  0  0
   13.1386  -19.3708   26.0402 O   0  0  0  0  0  0  0  0  0  0  0  0
    9.5085  -13.6756   27.2023 C   0  0  0  0  0  0  0  0  0  0  0  0
    9.5734  -14.8219   28.1529 C   0  0  1  0  0  0  0  0  0  0  0  0
    8.4851  -15.6644   27.8681 O   0  0  0  0  0  0  0  0  0  0  0  0
   10.8519  -15.6255   28.0581 C   0  0  2  0  0  0  0  0  0  0  0  0
   10.8672  -16.3280   26.7962 N   0  0  0  0  0  0  0  0  0  0  0  0
   11.0263  -16.5322   29.2052 C   0  0  0  0  0  0  0  0  0  0  0  0
   11.1256  -15.9764   30.5045 O   0  0  0  0  0  0  0  0  0  0  0  0
   11.0949  -17.7629   29.1397 O   0  0  0  0  0  0  0  0  0  0  0  0
  1  2  1  0
  2 12  2  0
  3  4  2  0
  3  2  1  0
  4  5  1  0
  5  6  1  0
  5 11  2  0
  7  8  1  1
  7  6  1  0
  9  7  1  0
 10  9  2  0
 12 11  1  0
 13  9  1  0
 14 13  1  0
 14 15  1  6
 15 16  1  0
 16 20  1  0
 17 16  2  0
 18 14  1  0
 19 18  2  0
 22 21  1  6
 22 24  1  0
 23 22  1  0
 24 26  1  0
 24 25  1  6
 25 18  1  0
 26 27  1  0
 28 26  2  0
M  END
$$$$
