YDT.pdb
     RDKit          3D

 28 28  0  0  1  0  0  0  0  0999 V2000
    7.3505  -12.2085   17.2655 O   0  0  0  0  0  0  0  0  0  0  0  0
    7.5073  -12.8464   18.5076 C   0  0  0  0  0  0  0  0  0  0  0  0
    8.5625  -12.4843   19.3066 C   0  0  0  0  0  0  0  0  0  0  0  0
    8.7327  -13.1044   20.5372 C   0  0  0  0  0  0  0  0  0  0  0  0
    7.8425  -14.0711   20.9378 C   0  0  0  0  0  0  0  0  0  0  0  0
    8.0243  -14.7381   22.2402 C   0  0  0  0  0  0  0  0  0  0  0  0
    8.7963  -16.0262   21.9766 C   0  0  2  0  0  0  0  0  0  0  0  0
    7.8100  -17.0088   21.5400 N   0  0  0  0  0  0  0  0  0  0  0  0
    9.4064  -16.5090   23.2230 C   0  0  0  0  0  0  0  0  0  0  0  0
    8.7209  -16.8538   24.1878 O   0  0  0  0  0  0  0  0  0  0  0  0
    6.7923  -14.4271   20.1349 C   0  0  0  0  0  0  0  0  0  0  0  0
    6.6239  -13.8102   18.9119 C   0  0  0  0  0  0  0  0  0  0  0  0
   10.8351  -16.5943   23.3556 N   0  0  0  0  0  0  0  0  0  0  0  0
   11.5187  -16.8759   24.5718 C   0  0  1  0  0  0  0  0  0  0  0  0
   12.9781  -17.2549   24.3558 C   0  0  0  0  0  0  0  0  0  0  0  0
   12.9553  -18.3712   23.3562 C   0  0  0  0  0  0  0  0  0  0  0  0
   12.1312  -19.3322   23.4135 O   0  0  0  0  0  0  0  0  0  0  0  0
   11.3401  -15.8587   25.6315 C   0  0  0  0  0  0  0  0  0  0  0  0
   11.7820  -14.6904   25.5417 O   0  0  0  0  0  0  0  0  0  0  0  0
   13.8604  -18.4199   22.2754 O   0  0  0  0  0  0  0  0  0  0  0  0
    9.2764  -13.5312   26.7459 C   0  0  0  0  0  0  0  0  0  0  0  0
    9.3047  -14.4682   27.9049 C   0  0  1  0  0  0  0  0  0  0  0  0
    8.2036  -15.3316   27.7725 O   0  0  0  0  0  0  0  0  0  0  0  0
   10.5678  -15.2965   27.9932 C   0  0  2  0  0  0  0  0  0  0  0  0
   10.6326  -16.1696   26.8445 N   0  0  0  0  0  0  0  0  0  0  0  0
   10.6618  -16.0353   29.2634 C   0  0  0  0  0  0  0  0  0  0  0  0
   10.7331  -17.4497   29.2257 O   0  0  0  0  0  0  0  0  0  0  0  0
   10.6860  -15.5252   30.3871 O   0  0  0  0  0  0  0  0  0  0  0  0
  1  2  1  0
  2 12  2  0
  3  4  2  0
  3  2  1  0
  4  5  1  0
  5  6  1  0
  5 11  2  0
  7  8  1  1
  7  6  1  0
  9  7  1  0
 10  9  2  0
 12 11  1  0
 13  9  1  0
 14 13  1  0
 14 15  1  6
 15 16  1  0
 16 20  1  0
 17 16  2  0
 18 14  1  0
 19 18  2  0
 22 21  1  6
 22 24  1  0
 23 22  1  0
 24 26  1  0
 24 25  1  6
 25 18  1  0
 26 27  1  0
 28 26  2  0
M  END
$$$$
