YDT.pdb
     RDKit          3D

 28 28  0  0  1  0  0  0  0  0999 V2000
    8.7061  -11.3704   19.9884 O   0  0  0  0  0  0  0  0  0  0  0  0
    8.2023  -12.6808   20.0463 C   0  0  0  0  0  0  0  0  0  0  0  0
    7.8114  -13.1843   21.2614 C   0  0  0  0  0  0  0  0  0  0  0  0
    7.3115  -14.4774   21.3370 C   0  0  0  0  0  0  0  0  0  0  0  0
    7.2147  -15.2343   20.1947 C   0  0  0  0  0  0  0  0  0  0  0  0
    6.6921  -16.6110   20.2718 C   0  0  0  0  0  0  0  0  0  0  0  0
    7.8420  -17.5444   19.9101 C   0  0  2  0  0  0  0  0  0  0  0  0
    7.2367  -18.8381   19.6115 N   0  0  0  0  0  0  0  0  0  0  0  0
    8.7356  -17.7100   21.0646 C   0  0  0  0  0  0  0  0  0  0  0  0
    8.4223  -18.4092   22.0304 O   0  0  0  0  0  0  0  0  0  0  0  0
    7.6068  -14.7251   18.9859 C   0  0  0  0  0  0  0  0  0  0  0  0
    8.1037  -13.4398   18.9117 C   0  0  0  0  0  0  0  0  0  0  0  0
   10.0143  -17.0548   21.1028 N   0  0  0  0  0  0  0  0  0  0  0  0
   10.8848  -17.0457   22.2287 C   0  0  1  0  0  0  0  0  0  0  0  0
   12.2175  -16.3667   21.9406 C   0  0  0  0  0  0  0  0  0  0  0  0
   12.7828  -17.0874   20.7546 C   0  0  0  0  0  0  0  0  0  0  0  0
   12.9015  -18.3483   20.7054 O   0  0  0  0  0  0  0  0  0  0  0  0
   10.2626  -16.5792   23.4877 C   0  0  0  0  0  0  0  0  0  0  0  0
   10.2012  -15.3722   23.8157 O   0  0  0  0  0  0  0  0  0  0  0  0
   13.2214  -16.3977   19.6050 O   0  0  0  0  0  0  0  0  0  0  0  0
    7.0143  -17.1183   27.0319 C   0  0  0  0  0  0  0  0  0  0  0  0
    7.6914  -17.5129   25.7639 C   0  0  1  0  0  0  0  0  0  0  0  0
    7.0234  -16.8622   24.7123 O   0  0  0  0  0  0  0  0  0  0  0  0
    9.1585  -17.1466   25.7123 C   0  0  2  0  0  0  0  0  0  0  0  0
    9.6836  -17.5115   24.4173 N   0  0  0  0  0  0  0  0  0  0  0  0
    9.9227  -17.7511   26.8164 C   0  0  0  0  0  0  0  0  0  0  0  0
    9.6452  -17.3391   28.1432 O   0  0  0  0  0  0  0  0  0  0  0  0
   10.8044  -18.6058   26.6916 O   0  0  0  0  0  0  0  0  0  0  0  0
  1  2  1  0
  2 12  2  0
  3  4  2  0
  3  2  1  0
  4  5  1  0
  5  6  1  0
  5 11  2  0
  7  8  1  1
  7  6  1  0
  9  7  1  0
 10  9  2  0
 12 11  1  0
 13  9  1  0
 14 13  1  0
 14 15  1  6
 15 16  1  0
 16 20  1  0
 17 16  2  0
 18 14  1  0
 19 18  2  0
 22 21  1  1
 22 24  1  0
 23 22  1  0
 24 26  1  0
 24 25  1  6
 25 18  1  0
 26 27  1  0
 28 26  2  0
M  END
$$$$
