YDT.pdb
     RDKit          3D

 28 28  0  0  1  0  0  0  0  0999 V2000
    7.3346  -13.1624   16.2422 O   0  0  0  0  0  0  0  0  0  0  0  0
    7.4138  -13.5408   17.5931 C   0  0  0  0  0  0  0  0  0  0  0  0
    6.8571  -14.7346   17.9775 C   0  0  0  0  0  0  0  0  0  0  0  0
    6.9261  -15.1241   19.3085 C   0  0  0  0  0  0  0  0  0  0  0  0
    7.5508  -14.3096   20.2214 C   0  0  0  0  0  0  0  0  0  0  0  0
    7.6190  -14.7155   21.6373 C   0  0  0  0  0  0  0  0  0  0  0  0
    9.0757  -15.0542   21.9335 C   0  0  2  0  0  0  0  0  0  0  0  0
    9.4770  -16.0347   20.9302 N   0  0  0  0  0  0  0  0  0  0  0  0
    9.1856  -15.6801   23.2583 C   0  0  0  0  0  0  0  0  0  0  0  0
    8.5740  -15.2407   24.2343 O   0  0  0  0  0  0  0  0  0  0  0  0
    8.1038  -13.1198   19.8302 C   0  0  0  0  0  0  0  0  0  0  0  0
    8.0347  -12.7334   18.5072 C   0  0  0  0  0  0  0  0  0  0  0  0
   10.0180  -16.8348   23.4576 N   0  0  0  0  0  0  0  0  0  0  0  0
   10.1929  -17.5000   24.7037 C   0  0  1  0  0  0  0  0  0  0  0  0
   10.8145  -18.8824   24.5539 C   0  0  0  0  0  0  0  0  0  0  0  0
    9.7648  -19.7206   23.8897 C   0  0  0  0  0  0  0  0  0  0  0  0
    8.6410  -19.9680   24.4207 O   0  0  0  0  0  0  0  0  0  0  0  0
   10.8469  -16.6864   25.7525 C   0  0  0  0  0  0  0  0  0  0  0  0
   12.0019  -16.2168   25.6351 O   0  0  0  0  0  0  0  0  0  0  0  0
    9.9655  -20.2913   22.6154 O   0  0  0  0  0  0  0  0  0  0  0  0
   10.0305  -13.3708   27.2780 C   0  0  0  0  0  0  0  0  0  0  0  0
    9.9203  -14.4140   28.3370 C   0  0  1  0  0  0  0  0  0  0  0  0
    8.5692  -14.7942   28.4114 O   0  0  0  0  0  0  0  0  0  0  0  0
   10.7610  -15.6444   28.0757 C   0  0  2  0  0  0  0  0  0  0  0  0
   10.1714  -16.3878   26.9867 N   0  0  0  0  0  0  0  0  0  0  0  0
   10.9355  -16.4669   29.2845 C   0  0  0  0  0  0  0  0  0  0  0  0
   11.5566  -15.8885   30.4188 O   0  0  0  0  0  0  0  0  0  0  0  0
   10.5814  -17.6431   29.4062 O   0  0  0  0  0  0  0  0  0  0  0  0
  1  2  1  0
  2 12  2  0
  3  4  2  0
  3  2  1  0
  4  5  1  0
  5  6  1  0
  5 11  2  0
  7  8  1  6
  7  6  1  0
  9  7  1  0
 10  9  2  0
 12 11  1  0
 13  9  1  0
 14 13  1  0
 14 15  1  6
 15 16  1  0
 16 20  1  0
 17 16  2  0
 18 14  1  0
 19 18  2  0
 22 21  1  6
 22 24  1  0
 23 22  1  0
 24 26  1  0
 24 25  1  6
 25 18  1  0
 26 27  1  0
 28 26  2  0
M  END
$$$$
