YDT.pdb
     RDKit          3D

 28 28  0  0  1  0  0  0  0  0999 V2000
    5.2867  -10.3945   27.5379 O   0  0  0  0  0  0  0  0  0  0  0  0
    6.0651  -11.3935   26.9292 C   0  0  0  0  0  0  0  0  0  0  0  0
    6.6065  -12.3789   27.7157 C   0  0  0  0  0  0  0  0  0  0  0  0
    7.3785  -13.3738   27.1308 C   0  0  0  0  0  0  0  0  0  0  0  0
    7.5890  -13.3581   25.7734 C   0  0  0  0  0  0  0  0  0  0  0  0
    8.4151  -14.4080   25.1493 C   0  0  0  0  0  0  0  0  0  0  0  0
    7.4683  -15.3164   24.3728 C   0  0  2  0  0  0  0  0  0  0  0  0
    6.8210  -16.1704   25.3633 N   0  0  0  0  0  0  0  0  0  0  0  0
    8.2338  -16.1729   23.4568 C   0  0  0  0  0  0  0  0  0  0  0  0
    8.6138  -17.2979   23.7882 O   0  0  0  0  0  0  0  0  0  0  0  0
    7.0456  -12.3715   24.9952 C   0  0  0  0  0  0  0  0  0  0  0  0
    6.2785  -11.3829   25.5774 C   0  0  0  0  0  0  0  0  0  0  0  0
    8.5660  -15.7198   22.1338 N   0  0  0  0  0  0  0  0  0  0  0  0
    9.5100  -16.3515   21.2761 C   0  0  1  0  0  0  0  0  0  0  0  0
    9.4476  -15.8341   19.8449 C   0  0  0  0  0  0  0  0  0  0  0  0
    8.2351  -16.4764   19.2423 C   0  0  0  0  0  0  0  0  0  0  0  0
    7.4886  -15.8898   18.4028 O   0  0  0  0  0  0  0  0  0  0  0  0
   10.8898  -16.4052   21.8080 C   0  0  0  0  0  0  0  0  0  0  0  0
   11.7162  -15.4751   21.6650 O   0  0  0  0  0  0  0  0  0  0  0  0
    7.8468  -17.7908   19.5757 O   0  0  0  0  0  0  0  0  0  0  0  0
   11.7773  -17.5398   25.5465 C   0  0  0  0  0  0  0  0  0  0  0  0
   12.4784  -18.3479   24.5085 C   0  0  1  0  0  0  0  0  0  0  0  0
   11.7209  -19.5138   24.3030 O   0  0  0  0  0  0  0  0  0  0  0  0
   12.6460  -17.6339   23.1852 C   0  0  2  0  0  0  0  0  0  0  0  0
   11.3596  -17.5550   22.5332 N   0  0  0  0  0  0  0  0  0  0  0  0
   13.6662  -18.2693   22.3345 C   0  0  0  0  0  0  0  0  0  0  0  0
   15.0035  -18.3236   22.7990 O   0  0  0  0  0  0  0  0  0  0  0  0
   13.4604  -18.7732   21.2267 O   0  0  0  0  0  0  0  0  0  0  0  0
  1  2  1  0
  2 12  2  0
  3  4  2  0
  3  2  1  0
  4  5  1  0
  5  6  1  0
  5 11  2  0
  7  8  1  1
  7  6  1  0
  9  7  1  0
 10  9  2  0
 12 11  1  0
 13  9  1  0
 14 13  1  0
 14 15  1  6
 15 16  1  0
 16 20  1  0
 17 16  2  0
 18 14  1  0
 19 18  2  0
 22 21  1  1
 22 24  1  0
 23 22  1  0
 24 26  1  0
 24 25  1  6
 25 18  1  0
 26 27  1  0
 28 26  2  0
M  END
$$$$
