TEY.pdb
     RDKit          3D

 29 29  0  0  1  0  0  0  0  0999 V2000
    7.7009  -12.3459   19.9765 C   0  0  0  0  0  0  0  0  0  0  0  0
    8.1806  -13.2671   21.0602 C   0  0  1  0  0  0  0  0  0  0  0  0
    7.6676  -12.9330   22.3140 O   0  0  0  0  0  0  0  0  0  0  0  0
    7.8183  -14.6890   20.6905 C   0  0  2  0  0  0  0  0  0  0  0  0
    6.4109  -14.8456   20.3922 N   0  0  0  0  0  0  0  0  0  0  0  0
    8.1919  -15.6662   21.7340 C   0  0  0  0  0  0  0  0  0  0  0  0
    7.3324  -16.1583   22.5141 O   0  0  0  0  0  0  0  0  0  0  0  0
    9.5212  -16.0673   21.8795 N   0  0  0  0  0  0  0  0  0  0  0  0
    9.9584  -17.0761   22.8373 C   0  0  1  0  0  0  0  0  0  0  0  0
   11.2904  -17.5811   22.3724 C   0  0  0  0  0  0  0  0  0  0  0  0
   11.8637  -18.7002   23.1873 C   0  0  0  0  0  0  0  0  0  0  0  0
   13.1537  -19.0792   22.5059 C   0  0  0  0  0  0  0  0  0  0  0  0
   14.2160  -18.9800   23.1954 O   0  0  0  0  0  0  0  0  0  0  0  0
   10.1663  -16.4772   24.1745 C   0  0  0  0  0  0  0  0  0  0  0  0
   10.9485  -15.5102   24.3735 O   0  0  0  0  0  0  0  0  0  0  0  0
   13.2405  -19.5185   21.2098 O   0  0  0  0  0  0  0  0  0  0  0  0
    6.1337  -11.3461   25.5165 O   0  0  0  0  0  0  0  0  0  0  0  0
    6.6911  -12.5674   25.9486 C   0  0  0  0  0  0  0  0  0  0  0  0
    7.9136  -12.5259   26.5819 C   0  0  0  0  0  0  0  0  0  0  0  0
    8.4543  -13.7345   27.0055 C   0  0  0  0  0  0  0  0  0  0  0  0
    7.8219  -14.9407   26.8173 C   0  0  0  0  0  0  0  0  0  0  0  0
    8.4849  -16.1528   27.2926 C   0  0  0  0  0  0  0  0  0  0  0  0
    9.8074  -16.4611   26.6449 C   0  0  2  0  0  0  0  0  0  0  0  0
    9.4800  -16.9778   25.3027 N   0  0  0  0  0  0  0  0  0  0  0  0
   10.5044  -17.4929   27.4425 C   0  0  0  0  0  0  0  0  0  0  0  0
   10.6954  -18.6673   27.0367 O   0  0  0  0  0  0  0  0  0  0  0  0
    6.5986  -14.9291   26.1775 C   0  0  0  0  0  0  0  0  0  0  0  0
    6.0359  -13.7564   25.7458 C   0  0  0  0  0  0  0  0  0  0  0  0
   11.0052  -17.2142   28.7306 O   0  0  0  0  0  0  0  0  0  0  0  0
  2  3  1  0
  2  1  1  6
  4  2  1  0
  4  5  1  1
  6  7  2  0
  6  4  1  0
  8  6  1  0
  9  8  1  0
  9 10  1  6
 11 12  1  0
 11 10  1  0
 12 13  2  0
 14 24  1  0
 14  9  1  0
 15 14  2  0
 16 12  1  0
 18 17  1  0
 19 18  2  0
 20 19  1  0
 21 27  1  0
 21 20  2  0
 23 22  1  1
 22 21  1  0
 23 24  1  0
 23 25  1  0
 25 29  1  0
 26 25  2  0
 27 28  2  0
 28 18  1  0
M  END
$$$$
