TEY.pdb
     RDKit          3D

 29 29  0  0  1  0  0  0  0  0999 V2000
    8.9089  -12.7914   19.5269 C   0  0  0  0  0  0  0  0  0  0  0  0
    7.8471  -13.5064   18.7432 C   0  0  1  0  0  0  0  0  0  0  0  0
    7.6925  -12.9915   17.4556 O   0  0  0  0  0  0  0  0  0  0  0  0
    8.1814  -14.9816   18.6977 C   0  0  2  0  0  0  0  0  0  0  0  0
    7.2149  -15.7487   17.9417 N   0  0  0  0  0  0  0  0  0  0  0  0
    8.3143  -15.5816   20.0414 C   0  0  0  0  0  0  0  0  0  0  0  0
    7.3036  -15.8583   20.7425 O   0  0  0  0  0  0  0  0  0  0  0  0
    9.5777  -15.8556   20.5684 N   0  0  0  0  0  0  0  0  0  0  0  0
    9.7904  -16.4842   21.8669 C   0  0  1  0  0  0  0  0  0  0  0  0
   10.5327  -17.7630   21.6242 C   0  0  0  0  0  0  0  0  0  0  0  0
   11.8580  -17.6072   20.9427 C   0  0  0  0  0  0  0  0  0  0  0  0
   12.3699  -19.0080   20.7251 C   0  0  0  0  0  0  0  0  0  0  0  0
   13.6293  -19.1504   20.6384 O   0  0  0  0  0  0  0  0  0  0  0  0
   10.6520  -15.6407   22.7249 C   0  0  0  0  0  0  0  0  0  0  0  0
   11.5485  -14.8882   22.2596 O   0  0  0  0  0  0  0  0  0  0  0  0
   11.5667  -20.1146   20.6205 O   0  0  0  0  0  0  0  0  0  0  0  0
    9.9933  -17.2225   30.7320 O   0  0  0  0  0  0  0  0  0  0  0  0
   10.1239  -16.4406   29.5656 C   0  0  0  0  0  0  0  0  0  0  0  0
    9.3616  -16.7877   28.4721 C   0  0  0  0  0  0  0  0  0  0  0  0
    9.4961  -16.0102   27.3276 C   0  0  0  0  0  0  0  0  0  0  0  0
   10.3452  -14.9313   27.2549 C   0  0  0  0  0  0  0  0  0  0  0  0
   10.4172  -14.1890   25.9986 C   0  0  0  0  0  0  0  0  0  0  0  0
   11.3397  -14.7664   24.9599 C   0  0  2  0  0  0  0  0  0  0  0  0
   10.4980  -15.6476   24.1288 N   0  0  0  0  0  0  0  0  0  0  0  0
   12.3978  -15.5467   25.6367 C   0  0  0  0  0  0  0  0  0  0  0  0
   12.3934  -16.8019   25.7052 O   0  0  0  0  0  0  0  0  0  0  0  0
   11.0876  -14.6243   28.3777 C   0  0  0  0  0  0  0  0  0  0  0  0
   10.9810  -15.3692   29.5230 C   0  0  0  0  0  0  0  0  0  0  0  0
   13.4951  -14.9157   26.2577 O   0  0  0  0  0  0  0  0  0  0  0  0
  2  3  1  0
  2  1  1  6
  4  2  1  0
  4  5  1  6
  6  7  2  0
  6  4  1  0
  8  6  1  0
  9  8  1  0
  9 10  1  6
 11 12  1  0
 11 10  1  0
 12 13  2  0
 14 24  1  0
 14  9  1  0
 15 14  2  0
 16 12  1  0
 18 17  1  0
 19 18  2  0
 20 19  1  0
 21 27  1  0
 21 20  2  0
 23 22  1  1
 22 21  1  0
 23 24  1  0
 23 25  1  0
 25 29  1  0
 26 25  2  0
 27 28  2  0
 28 18  1  0
M  END
$$$$
