TEY.pdb
     RDKit          3D

 29 29  0  0  1  0  0  0  0  0999 V2000
    8.0889  -12.7296   18.2800 C   0  0  0  0  0  0  0  0  0  0  0  0
    8.6253  -13.5964   19.3817 C   0  0  1  0  0  0  0  0  0  0  0  0
    8.2575  -13.1423   20.6488 O   0  0  0  0  0  0  0  0  0  0  0  0
    8.1547  -15.0175   19.1604 C   0  0  2  0  0  0  0  0  0  0  0  0
    6.7225  -15.1072   18.9737 N   0  0  0  0  0  0  0  0  0  0  0  0
    8.5467  -15.9289   20.2553 C   0  0  0  0  0  0  0  0  0  0  0  0
    7.7042  -16.3575   21.0896 O   0  0  0  0  0  0  0  0  0  0  0  0
    9.8750  -16.3371   20.3902 N   0  0  0  0  0  0  0  0  0  0  0  0
   10.3407  -17.2295   21.4452 C   0  0  1  0  0  0  0  0  0  0  0  0
   11.6839  -17.7463   21.0279 C   0  0  0  0  0  0  0  0  0  0  0  0
   12.3284  -18.6911   21.9959 C   0  0  0  0  0  0  0  0  0  0  0  0
   13.6311  -19.1003   21.3578 C   0  0  0  0  0  0  0  0  0  0  0  0
   13.5601  -19.9020   20.3748 O   0  0  0  0  0  0  0  0  0  0  0  0
   10.5371  -16.4896   22.7117 C   0  0  0  0  0  0  0  0  0  0  0  0
   11.1965  -15.4185   22.7796 O   0  0  0  0  0  0  0  0  0  0  0  0
   14.8629  -18.6613   21.7705 O   0  0  0  0  0  0  0  0  0  0  0  0
    6.1614  -10.9689   27.1692 O   0  0  0  0  0  0  0  0  0  0  0  0
    6.7081  -12.0423   26.4357 C   0  0  0  0  0  0  0  0  0  0  0  0
    7.8690  -11.8120   25.7310 C   0  0  0  0  0  0  0  0  0  0  0  0
    8.4011  -12.8764   25.0123 C   0  0  0  0  0  0  0  0  0  0  0  0
    7.8193  -14.1218   24.9842 C   0  0  0  0  0  0  0  0  0  0  0  0
    8.4568  -15.1671   24.1870 C   0  0  0  0  0  0  0  0  0  0  0  0
    9.4693  -16.0077   24.9162 C   0  0  2  0  0  0  0  0  0  0  0  0
    9.9799  -16.9666   23.9186 N   0  0  0  0  0  0  0  0  0  0  0  0
    8.7955  -16.7197   26.0232 C   0  0  0  0  0  0  0  0  0  0  0  0
    8.1348  -17.7772   25.8633 O   0  0  0  0  0  0  0  0  0  0  0  0
    6.6569  -14.3017   25.7070 C   0  0  0  0  0  0  0  0  0  0  0  0
    6.1038  -13.2747   26.4264 C   0  0  0  0  0  0  0  0  0  0  0  0
    8.8555  -16.2444   27.3492 O   0  0  0  0  0  0  0  0  0  0  0  0
  2  3  1  0
  2  1  1  6
  4  2  1  0
  4  5  1  1
  6  7  2  0
  6  4  1  0
  8  6  1  0
  9  8  1  0
  9 10  1  6
 11 12  1  0
 11 10  1  0
 12 13  2  0
 14 24  1  0
 14  9  1  0
 15 14  2  0
 16 12  1  0
 18 17  1  0
 19 18  2  0
 20 19  1  0
 21 27  1  0
 21 20  2  0
 23 22  1  6
 22 21  1  0
 23 24  1  0
 23 25  1  0
 25 29  1  0
 26 25  2  0
 27 28  2  0
 28 18  1  0
M  END
$$$$
