TEY.pdb
     RDKit          3D

 29 29  0  0  1  0  0  0  0  0999 V2000
    9.6742  -13.8723   16.8381 C   0  0  0  0  0  0  0  0  0  0  0  0
    9.5089  -14.3842   18.2394 C   0  0  1  0  0  0  0  0  0  0  0  0
   10.3374  -13.7288   19.1510 O   0  0  0  0  0  0  0  0  0  0  0  0
    8.0557  -14.2535   18.6406 C   0  0  2  0  0  0  0  0  0  0  0  0
    7.5679  -12.8954   18.5324 N   0  0  0  0  0  0  0  0  0  0  0  0
    7.7921  -14.7428   20.0097 C   0  0  0  0  0  0  0  0  0  0  0  0
    7.7124  -13.9518   20.9883 O   0  0  0  0  0  0  0  0  0  0  0  0
    7.6259  -16.1080   20.2498 N   0  0  0  0  0  0  0  0  0  0  0  0
    7.4441  -16.6761   21.5804 C   0  0  1  0  0  0  0  0  0  0  0  0
    7.3839  -18.1649   21.4224 C   0  0  0  0  0  0  0  0  0  0  0  0
    6.2964  -18.6631   20.5199 C   0  0  0  0  0  0  0  0  0  0  0  0
    5.5253  -19.6720   21.3319 C   0  0  0  0  0  0  0  0  0  0  0  0
    5.6780  -20.8943   21.0211 O   0  0  0  0  0  0  0  0  0  0  0  0
    8.6097  -16.3800   22.4428 C   0  0  0  0  0  0  0  0  0  0  0  0
    9.7980  -16.4600   22.0328 O   0  0  0  0  0  0  0  0  0  0  0  0
    4.6871  -19.3489   22.3680 O   0  0  0  0  0  0  0  0  0  0  0  0
    5.4231  -11.6000   27.3066 O   0  0  0  0  0  0  0  0  0  0  0  0
    6.4703  -12.2512   26.6222 C   0  0  0  0  0  0  0  0  0  0  0  0
    7.6123  -12.5496   27.3322 C   0  0  0  0  0  0  0  0  0  0  0  0
    8.6384  -13.1927   26.6496 C   0  0  0  0  0  0  0  0  0  0  0  0
    8.5509  -13.5327   25.3202 C   0  0  0  0  0  0  0  0  0  0  0  0
    9.6934  -14.1972   24.6978 C   0  0  0  0  0  0  0  0  0  0  0  0
    9.6074  -15.6976   24.6271 C   0  0  2  0  0  0  0  0  0  0  0  0
    8.4299  -15.9875   23.7875 N   0  0  0  0  0  0  0  0  0  0  0  0
    9.4162  -16.2331   25.9920 C   0  0  0  0  0  0  0  0  0  0  0  0
   10.2728  -16.1188   26.9050 O   0  0  0  0  0  0  0  0  0  0  0  0
    7.3855  -13.2120   24.6531 C   0  0  0  0  0  0  0  0  0  0  0  0
    6.3538  -12.5775   25.2940 C   0  0  0  0  0  0  0  0  0  0  0  0
    8.2386  -16.9175   26.3563 O   0  0  0  0  0  0  0  0  0  0  0  0
  2  3  1  0
  2  1  1  6
  4  2  1  0
  4  5  1  1
  6  7  2  0
  6  4  1  0
  8  6  1  0
  9  8  1  0
  9 10  1  6
 11 12  1  0
 11 10  1  0
 12 13  2  0
 14 24  1  0
 14  9  1  0
 15 14  2  0
 16 12  1  0
 18 17  1  0
 19 18  2  0
 20 19  1  0
 21 27  1  0
 21 20  2  0
 23 22  1  1
 22 21  1  0
 23 24  1  0
 23 25  1  0
 25 29  1  0
 26 25  2  0
 27 28  2  0
 28 18  1  0
M  END
$$$$
