TEY.pdb
     RDKit          3D

 29 29  0  0  1  0  0  0  0  0999 V2000
    7.9237  -12.9375   18.3249 C   0  0  0  0  0  0  0  0  0  0  0  0
    8.5282  -13.7013   19.4669 C   0  0  1  0  0  0  0  0  0  0  0  0
    8.3277  -13.0744   20.6972 O   0  0  0  0  0  0  0  0  0  0  0  0
    7.9569  -15.1026   19.4761 C   0  0  2  0  0  0  0  0  0  0  0  0
    6.5101  -15.1144   19.4518 N   0  0  0  0  0  0  0  0  0  0  0  0
    8.4168  -15.9021   20.6304 C   0  0  0  0  0  0  0  0  0  0  0  0
    7.6598  -16.1414   21.6098 O   0  0  0  0  0  0  0  0  0  0  0  0
    9.7156  -16.4133   20.6602 N   0  0  0  0  0  0  0  0  0  0  0  0
   10.2620  -17.1606   21.7868 C   0  0  1  0  0  0  0  0  0  0  0  0
   11.5581  -17.7609   21.3339 C   0  0  0  0  0  0  0  0  0  0  0  0
   12.3038  -18.5259   22.3846 C   0  0  0  0  0  0  0  0  0  0  0  0
   13.5325  -19.0658   21.6984 C   0  0  0  0  0  0  0  0  0  0  0  0
   13.9679  -20.1883   22.1037 O   0  0  0  0  0  0  0  0  0  0  0  0
   10.5758  -16.2564   22.9155 C   0  0  0  0  0  0  0  0  0  0  0  0
   11.0525  -15.1022   22.7513 O   0  0  0  0  0  0  0  0  0  0  0  0
   14.1905  -18.4256   20.6798 O   0  0  0  0  0  0  0  0  0  0  0  0
    5.9253  -11.3249   27.9280 O   0  0  0  0  0  0  0  0  0  0  0  0
    6.6326  -12.2650   27.1502 C   0  0  0  0  0  0  0  0  0  0  0  0
    6.0338  -12.7242   25.9978 C   0  0  0  0  0  0  0  0  0  0  0  0
    6.7392  -13.6494   25.2371 C   0  0  0  0  0  0  0  0  0  0  0  0
    7.9861  -14.1089   25.5900 C   0  0  0  0  0  0  0  0  0  0  0  0
    8.6344  -15.0902   24.7232 C   0  0  0  0  0  0  0  0  0  0  0  0
    9.9190  -15.6686   25.2512 C   0  0  2  0  0  0  0  0  0  0  0  0
   10.3472  -16.6623   24.2488 N   0  0  0  0  0  0  0  0  0  0  0  0
    9.6536  -16.3230   26.5503 C   0  0  0  0  0  0  0  0  0  0  0  0
    9.7732  -15.7371   27.6560 O   0  0  0  0  0  0  0  0  0  0  0  0
    8.5432  -13.6181   26.7539 C   0  0  0  0  0  0  0  0  0  0  0  0
    7.8762  -12.7057   27.5288 C   0  0  0  0  0  0  0  0  0  0  0  0
    9.2430  -17.6697   26.6262 O   0  0  0  0  0  0  0  0  0  0  0  0
  2  3  1  0
  2  1  1  6
  4  2  1  0
  4  5  1  1
  6  7  2  0
  6  4  1  0
  8  6  1  0
  9  8  1  0
  9 10  1  6
 11 12  1  0
 11 10  1  0
 12 13  2  0
 14 24  1  0
 14  9  1  0
 15 14  2  0
 16 12  1  0
 18 17  1  0
 19 18  2  0
 20 19  1  0
 21 27  1  0
 21 20  2  0
 23 22  1  6
 22 21  1  0
 23 24  1  0
 23 25  1  0
 25 29  1  0
 26 25  2  0
 27 28  2  0
 28 18  1  0
M  END
$$$$
