SGN.pdb
     RDKit          3D

 19 18  0  0  1  0  0  0  0  0999 V2000
   12.1656   -6.4425   -6.9227 O   0  0  0  0  0  0  0  0  0  0  0  0
   12.8305   -6.7936   -8.1153 C   0  0  0  0  0  0  0  0  0  0  0  0
   14.1243   -7.4431   -7.7207 C   0  0  2  0  0  0  0  0  0  0  0  0
   14.9612   -6.5622   -6.9728 N   0  0  0  0  0  0  0  0  0  0  0  0
   14.8082   -7.9925   -8.9231 C   0  0  0  0  0  0  0  0  0  0  0  0
   14.2641   -8.8827   -9.6489 O   0  0  0  0  0  0  0  0  0  0  0  0
   16.1034   -7.5660   -9.3399 N   0  0  0  0  0  0  0  0  0  0  0  0
   16.7483   -8.1628  -10.4942 C   0  0  0  0  0  0  0  0  0  0  0  0
   17.8930   -7.2787  -10.8869 C   0  0  0  0  0  0  0  0  0  0  0  0
   18.2215   -6.2521  -10.2444 O   0  0  0  0  0  0  0  0  0  0  0  0
   22.1489   -5.6686  -13.3277 N   0  0  0  0  0  0  0  0  0  0  0  0
   21.9648   -7.0743  -13.5893 C   0  0  0  0  0  0  0  0  0  0  0  0
   22.8908   -7.6834  -14.1765 O   0  0  0  0  0  0  0  0  0  0  0  0
   20.7167   -7.6987  -13.1555 C   0  0  0  0  0  0  0  0  0  0  0  0
   19.7821   -6.7645  -12.3938 C   0  0  2  0  0  0  0  0  0  0  0  0
   18.6394   -7.6184  -12.0375 N   0  0  0  0  0  0  0  0  0  0  0  0
   19.2887   -5.6450  -13.2294 C   0  0  0  0  0  0  0  0  0  0  0  0
   18.3196   -5.7826  -13.9964 O   0  0  0  0  0  0  0  0  0  0  0  0
   19.9045   -4.4045  -13.1733 O   0  0  0  0  0  0  0  0  0  0  0  0
  1  2  1  0
  3  2  1  0
  3  5  1  0
  3  4  1  6
  5  6  2  0
  7  8  1  0
  7  5  1  0
  8  9  1  0
  9 10  2  0
  9 16  1  0
 12 11  1  0
 12 13  2  0
 14 12  1  0
 15 14  1  6
 16 15  1  0
 17 15  1  0
 17 19  1  0
 18 17  2  0
M  END
$$$$
