SGN.pdb
     RDKit          3D

 19 18  0  0  1  0  0  0  0  0999 V2000
   18.0989  -11.3871  -17.5368 O   0  0  0  0  0  0  0  0  0  0  0  0
   18.9076  -11.9466  -16.5265 C   0  0  0  0  0  0  0  0  0  0  0  0
   19.4118  -10.8085  -15.6886 C   0  0  2  0  0  0  0  0  0  0  0  0
   18.3513  -10.1079  -15.0405 N   0  0  0  0  0  0  0  0  0  0  0  0
   20.2687   -9.9098  -16.5092 C   0  0  0  0  0  0  0  0  0  0  0  0
   21.3239  -10.3332  -17.0770 O   0  0  0  0  0  0  0  0  0  0  0  0
   19.9714   -8.5303  -16.7135 N   0  0  0  0  0  0  0  0  0  0  0  0
   20.7532   -7.7286  -17.6357 C   0  0  0  0  0  0  0  0  0  0  0  0
   21.1334   -6.4613  -16.9316 C   0  0  0  0  0  0  0  0  0  0  0  0
   21.7484   -5.5213  -17.4908 O   0  0  0  0  0  0  0  0  0  0  0  0
   19.1413   -3.9310  -16.5354 N   0  0  0  0  0  0  0  0  0  0  0  0
   18.8302   -3.9880  -15.1289 C   0  0  0  0  0  0  0  0  0  0  0  0
   17.7534   -3.4687  -14.7491 O   0  0  0  0  0  0  0  0  0  0  0  0
   19.7844   -4.6448  -14.2378 C   0  0  0  0  0  0  0  0  0  0  0  0
   21.0948   -5.0431  -14.9091 C   0  0  2  0  0  0  0  0  0  0  0  0
   20.7816   -6.3182  -15.5706 N   0  0  0  0  0  0  0  0  0  0  0  0
   22.1872   -5.2753  -13.9356 C   0  0  0  0  0  0  0  0  0  0  0  0
   22.6889   -6.4019  -13.7761 O   0  0  0  0  0  0  0  0  0  0  0  0
   22.6797   -4.2285  -13.1722 O   0  0  0  0  0  0  0  0  0  0  0  0
  1  2  1  0
  3  2  1  0
  3  5  1  0
  3  4  1  6
  5  6  2  0
  7  8  1  0
  7  5  1  0
  8  9  1  0
  9 10  2  0
  9 16  1  0
 12 11  1  0
 12 13  2  0
 14 12  1  0
 15 14  1  1
 16 15  1  0
 17 15  1  0
 17 19  1  0
 18 17  2  0
M  END
$$$$
