SGN.pdb
     RDKit          3D

 19 18  0  0  1  0  0  0  0  0999 V2000
   14.0614  -11.2361  -10.4153 O   0  0  0  0  0  0  0  0  0  0  0  0
   14.2323   -9.8620  -10.6804 C   0  0  0  0  0  0  0  0  0  0  0  0
   14.5597   -9.2011   -9.3737 C   0  0  2  0  0  0  0  0  0  0  0  0
   13.4426   -9.1830   -8.4863 N   0  0  0  0  0  0  0  0  0  0  0  0
   15.1170   -7.8419   -9.6136 C   0  0  0  0  0  0  0  0  0  0  0  0
   14.3629   -6.8263   -9.7362 O   0  0  0  0  0  0  0  0  0  0  0  0
   16.5156   -7.5865   -9.7218 N   0  0  0  0  0  0  0  0  0  0  0  0
   17.0187   -6.2301   -9.8300 C   0  0  0  0  0  0  0  0  0  0  0  0
   18.4895   -6.3083  -10.1075 C   0  0  0  0  0  0  0  0  0  0  0  0
   19.2675   -7.0713   -9.4854 O   0  0  0  0  0  0  0  0  0  0  0  0
   22.3474   -6.9333  -13.2579 N   0  0  0  0  0  0  0  0  0  0  0  0
   21.1716   -7.7544  -13.1113 C   0  0  0  0  0  0  0  0  0  0  0  0
   21.1679   -8.8728  -13.6793 O   0  0  0  0  0  0  0  0  0  0  0  0
   20.0630   -7.2349  -12.3132 C   0  0  0  0  0  0  0  0  0  0  0  0
   20.3215   -5.8610  -11.7035 C   0  0  2  0  0  0  0  0  0  0  0  0
   19.0262   -5.4819  -11.1201 N   0  0  0  0  0  0  0  0  0  0  0  0
   20.6941   -4.8473  -12.7177 C   0  0  0  0  0  0  0  0  0  0  0  0
   19.8408   -4.3093  -13.4449 O   0  0  0  0  0  0  0  0  0  0  0  0
   22.0186   -4.4723  -12.8797 O   0  0  0  0  0  0  0  0  0  0  0  0
  1  2  1  0
  3  2  1  0
  3  5  1  0
  3  4  1  1
  5  6  2  0
  7  8  1  0
  7  5  1  0
  8  9  1  0
  9 10  2  0
  9 16  1  0
 12 11  1  0
 12 13  2  0
 14 12  1  0
 15 14  1  6
 16 15  1  0
 17 15  1  0
 17 19  1  0
 18 17  2  0
M  END
$$$$
