SGN.pdb
     RDKit          3D

 19 18  0  0  1  0  0  0  0  0999 V2000
   16.3945  -14.3911  -14.6651 O   0  0  0  0  0  0  0  0  0  0  0  0
   17.7041  -13.9929  -15.0031 C   0  0  0  0  0  0  0  0  0  0  0  0
   17.6094  -13.2179  -16.2845 C   0  0  2  0  0  0  0  0  0  0  0  0
   17.2836  -14.0531  -17.3944 N   0  0  0  0  0  0  0  0  0  0  0  0
   18.8595  -12.4408  -16.5056 C   0  0  0  0  0  0  0  0  0  0  0  0
   19.8578  -12.9451  -17.1091 O   0  0  0  0  0  0  0  0  0  0  0  0
   19.0237  -11.0955  -16.0623 N   0  0  0  0  0  0  0  0  0  0  0  0
   20.2607  -10.3775  -16.3045 C   0  0  0  0  0  0  0  0  0  0  0  0
   20.1094   -8.9999  -15.7339 C   0  0  0  0  0  0  0  0  0  0  0  0
   19.0154   -8.5405  -15.3256 O   0  0  0  0  0  0  0  0  0  0  0  0
   22.2799   -5.2281  -12.2088 N   0  0  0  0  0  0  0  0  0  0  0  0
   22.4488   -5.2989  -13.6388 C   0  0  0  0  0  0  0  0  0  0  0  0
   22.6601   -4.2264  -14.2539 O   0  0  0  0  0  0  0  0  0  0  0  0
   22.3644   -6.6099  -14.2790 C   0  0  0  0  0  0  0  0  0  0  0  0
   21.0951   -6.8259  -15.0965 C   0  0  2  0  0  0  0  0  0  0  0  0
   21.2558   -8.1780  -15.6514 N   0  0  0  0  0  0  0  0  0  0  0  0
   20.9705   -5.8691  -16.2207 C   0  0  0  0  0  0  0  0  0  0  0  0
   21.6042   -6.0221  -17.2796 O   0  0  0  0  0  0  0  0  0  0  0  0
   20.1341   -4.7688  -16.1148 O   0  0  0  0  0  0  0  0  0  0  0  0
  1  2  1  0
  3  2  1  0
  3  5  1  0
  3  4  1  6
  5  6  2  0
  7  8  1  0
  7  5  1  0
  8  9  1  0
  9 10  2  0
  9 16  1  0
 12 11  1  0
 12 13  2  0
 14 12  1  0
 15 14  1  6
 16 15  1  0
 17 15  1  0
 17 19  1  0
 18 17  2  0
M  END
$$$$
