SGN.pdb
     RDKit          3D

 19 18  0  0  1  0  0  0  0  0999 V2000
   21.7996   -8.3663  -16.9535 O   0  0  0  0  0  0  0  0  0  0  0  0
   21.6552   -8.2701  -15.5543 C   0  0  0  0  0  0  0  0  0  0  0  0
   20.5100   -9.1601  -15.1698 C   0  0  2  0  0  0  0  0  0  0  0  0
   19.3201   -8.8464  -15.8920 N   0  0  0  0  0  0  0  0  0  0  0  0
   20.3065   -9.1235  -13.6958 C   0  0  0  0  0  0  0  0  0  0  0  0
   21.2313   -9.4525  -12.8886 O   0  0  0  0  0  0  0  0  0  0  0  0
   19.0777   -8.7231  -13.0934 N   0  0  0  0  0  0  0  0  0  0  0  0
   18.9506   -8.6310  -11.6512 C   0  0  0  0  0  0  0  0  0  0  0  0
   17.5746   -8.1220  -11.3447 C   0  0  0  0  0  0  0  0  0  0  0  0
   16.6954   -7.9439  -12.2221 O   0  0  0  0  0  0  0  0  0  0  0  0
   13.2807   -6.8597   -8.9693 N   0  0  0  0  0  0  0  0  0  0  0  0
   13.8499   -8.1160   -8.5496 C   0  0  0  0  0  0  0  0  0  0  0  0
   13.1169   -8.8992   -7.8995 O   0  0  0  0  0  0  0  0  0  0  0  0
   15.2389   -8.3971   -8.9067 C   0  0  0  0  0  0  0  0  0  0  0  0
   15.9121   -7.2933   -9.7159 C   0  0  2  0  0  0  0  0  0  0  0  0
   17.2516   -7.8284  -10.0008 N   0  0  0  0  0  0  0  0  0  0  0  0
   16.0630   -6.0346   -8.9492 C   0  0  0  0  0  0  0  0  0  0  0  0
   15.2649   -5.0904   -9.0835 O   0  0  0  0  0  0  0  0  0  0  0  0
   17.1103   -5.8806   -8.0544 O   0  0  0  0  0  0  0  0  0  0  0  0
  1  2  1  0
  3  2  1  0
  3  5  1  0
  3  4  1  6
  5  6  2  0
  7  8  1  0
  7  5  1  0
  8  9  1  0
  9 10  2  0
  9 16  1  0
 12 11  1  0
 12 13  2  0
 14 12  1  0
 15 14  1  1
 16 15  1  0
 17 15  1  0
 17 19  1  0
 18 17  2  0
M  END
$$$$
