SGN.pdb
     RDKit          3D

 19 18  0  0  1  0  0  0  0  0999 V2000
   20.4175  -12.4610  -18.8423 O   0  0  0  0  0  0  0  0  0  0  0  0
   20.4542  -12.2299  -17.4520 C   0  0  0  0  0  0  0  0  0  0  0  0
   21.5045  -11.1863  -17.2089 C   0  0  2  0  0  0  0  0  0  0  0  0
   22.8162  -11.6669  -17.4987 N   0  0  0  0  0  0  0  0  0  0  0  0
   21.3870  -10.6556  -15.8232 C   0  0  0  0  0  0  0  0  0  0  0  0
   21.4871  -11.4155  -14.8095 O   0  0  0  0  0  0  0  0  0  0  0  0
   21.1566   -9.2774  -15.5387 N   0  0  0  0  0  0  0  0  0  0  0  0
   21.1906   -8.7828  -14.1755 C   0  0  0  0  0  0  0  0  0  0  0  0
   21.5461   -7.3276  -14.2254 C   0  0  0  0  0  0  0  0  0  0  0  0
   21.5747   -6.5909  -13.2100 O   0  0  0  0  0  0  0  0  0  0  0  0
   25.4426   -3.8852  -16.8428 N   0  0  0  0  0  0  0  0  0  0  0  0
   24.2451   -3.9763  -16.0453 C   0  0  0  0  0  0  0  0  0  0  0  0
   23.7347   -2.9058  -15.6369 O   0  0  0  0  0  0  0  0  0  0  0  0
   23.7030   -5.3042  -15.7646 C   0  0  0  0  0  0  0  0  0  0  0  0
   22.1980   -5.3257  -15.5183 C   0  0  2  0  0  0  0  0  0  0  0  0
   21.8652   -6.7573  -15.4783 N   0  0  0  0  0  0  0  0  0  0  0  0
   21.4305   -4.6962  -16.6181 C   0  0  0  0  0  0  0  0  0  0  0  0
   21.0590   -3.5110  -16.5579 O   0  0  0  0  0  0  0  0  0  0  0  0
   21.1061   -5.4241  -17.7521 O   0  0  0  0  0  0  0  0  0  0  0  0
  1  2  1  0
  3  2  1  0
  3  5  1  0
  3  4  1  1
  5  6  2  0
  7  8  1  0
  7  5  1  0
  8  9  1  0
  9 10  2  0
  9 16  1  0
 12 11  1  0
 12 13  2  0
 14 12  1  0
 15 14  1  6
 16 15  1  0
 17 15  1  0
 17 19  1  0
 18 17  2  0
M  END
$$$$
