SGN.pdb
     RDKit          3D

 19 18  0  0  1  0  0  0  0  0999 V2000
   16.7183  -24.4751   -4.5427 O   0  0  0  0  0  0  0  0  0  0  0  0
   17.8480  -24.7240   -5.3487 C   0  0  0  0  0  0  0  0  0  0  0  0
   17.3743  -25.5087   -6.5366 C   0  0  2  0  0  0  0  0  0  0  0  0
   17.1384  -26.8788   -6.2158 N   0  0  0  0  0  0  0  0  0  0  0  0
   18.3260  -25.3460   -7.6694 C   0  0  0  0  0  0  0  0  0  0  0  0
   19.2071  -26.2243   -7.9290 O   0  0  0  0  0  0  0  0  0  0  0  0
   18.3174  -24.2098   -8.5310 N   0  0  0  0  0  0  0  0  0  0  0  0
   19.2352  -24.1173   -9.6506 C   0  0  0  0  0  0  0  0  0  0  0  0
   19.0080  -22.7959  -10.3205 C   0  0  0  0  0  0  0  0  0  0  0  0
   18.0813  -22.0127  -10.0008 O   0  0  0  0  0  0  0  0  0  0  0  0
   19.9128  -18.6755  -13.3156 N   0  0  0  0  0  0  0  0  0  0  0  0
   21.0471  -19.5585  -13.4252 C   0  0  0  0  0  0  0  0  0  0  0  0
   22.0377  -19.1553  -14.0805 O   0  0  0  0  0  0  0  0  0  0  0  0
   20.9722  -20.8619  -12.7684 C   0  0  0  0  0  0  0  0  0  0  0  0
   19.6956  -21.0842  -11.9639 C   0  0  2  0  0  0  0  0  0  0  0  0
   19.8811  -22.4134  -11.3635 N   0  0  0  0  0  0  0  0  0  0  0  0
   18.4833  -21.1188  -12.8149 C   0  0  0  0  0  0  0  0  0  0  0  0
   18.2584  -22.0648  -13.5900 O   0  0  0  0  0  0  0  0  0  0  0  0
   17.5624  -20.0841  -12.7647 O   0  0  0  0  0  0  0  0  0  0  0  0
  1  2  1  0
  3  2  1  0
  3  5  1  0
  3  4  1  1
  5  6  2  0
  7  8  1  0
  7  5  1  0
  8  9  1  0
  9 10  2  0
  9 16  1  0
 12 11  1  0
 12 13  2  0
 14 12  1  0
 15 14  1  6
 16 15  1  0
 17 15  1  0
 17 19  1  0
 18 17  2  0
M  END
$$$$
