YLA.pdb
     RDKit          3D

 26 26  0  0  1  0  0  0  0  0999 V2000
   12.2089  -17.3662   32.0673 O   0  0  0  0  0  0  0  0  0  0  0  0
   11.7743  -17.0625   30.7796 C   0  0  0  0  0  0  0  0  0  0  0  0
   11.8405  -17.9783   29.7393 C   0  0  0  0  0  0  0  0  0  0  0  0
   11.3940  -17.6293   28.4689 C   0  0  0  0  0  0  0  0  0  0  0  0
   10.8784  -16.3781   28.2083 C   0  0  0  0  0  0  0  0  0  0  0  0
   10.4081  -16.0279   26.8454 C   0  0  0  0  0  0  0  0  0  0  0  0
    9.3301  -17.0210   26.4705 C   0  0  2  0  0  0  0  0  0  0  0  0
    9.9509  -18.1905   25.9443 N   0  0  0  0  0  0  0  0  0  0  0  0
    8.3911  -16.4539   25.4603 C   0  0  0  0  0  0  0  0  0  0  0  0
    7.6627  -17.2489   24.8327 O   0  0  0  0  0  0  0  0  0  0  0  0
   10.8268  -15.4903   29.2668 C   0  0  0  0  0  0  0  0  0  0  0  0
   11.2654  -15.8202   30.5327 C   0  0  0  0  0  0  0  0  0  0  0  0
    7.3073  -10.9715   26.0770 C   0  0  0  0  0  0  0  0  0  0  0  0
    7.2488  -12.5005   25.9500 C   0  0  1  0  0  0  0  0  0  0  0  0
    5.8855  -12.8604   26.5652 C   0  0  0  0  0  0  0  0  0  0  0  0
    7.3228  -12.8917   24.5242 C   0  0  0  0  0  0  0  0  0  0  0  0
    7.5605  -14.3567   24.2586 C   0  0  2  0  0  0  0  0  0  0  0  0
    8.3363  -15.0627   25.2299 N   0  0  0  0  0  0  0  0  0  0  0  0
    7.9735  -14.6859   22.8949 C   0  0  0  0  0  0  0  0  0  0  0  0
    7.1872  -14.4481   21.9148 O   0  0  0  0  0  0  0  0  0  0  0  0
   11.0436  -15.3259   20.9990 C   0  0  0  0  0  0  0  0  0  0  0  0
    9.5613  -15.6196   21.1801 C   0  0  2  0  0  0  0  0  0  0  0  0
    9.2198  -15.2692   22.5510 N   0  0  0  0  0  0  0  0  0  0  0  0
    9.3405  -17.0393   20.9061 C   0  0  0  0  0  0  0  0  0  0  0  0
    9.5393  -17.5090   19.6183 O   0  0  0  0  0  0  0  0  0  0  0  0
    8.9780  -17.8608   21.7814 O   0  0  0  0  0  0  0  0  0  0  0  0
  2  1  1  0
  2  3  2  0
  4  3  1  0
  5  4  2  0
  6  5  1  0
  7  6  1  0
  7  9  1  0
  7  8  1  6
  9 18  1  0
  9 10  2  0
 11 12  2  0
 11  5  1  0
 12  2  1  0
 14 13  1  6
 14 15  1  0
 16 14  1  0
 17 16  1  1
 18 17  1  0
 19 23  1  0
 19 17  1  0
 20 19  2  0
 22 21  1  1
 22 23  1  0
 22 24  1  0
 24 25  1  0
 26 24  2  0
M  END
$$$$
