YLA.pdb
     RDKit          3D

 26 26  0  0  1  0  0  0  0  0999 V2000
    5.9042  -19.0433   16.6501 O   0  0  0  0  0  0  0  0  0  0  0  0
    6.3845  -18.6496   17.8965 C   0  0  0  0  0  0  0  0  0  0  0  0
    5.8337  -17.5898   18.6025 C   0  0  0  0  0  0  0  0  0  0  0  0
    6.3475  -17.2329   19.8450 C   0  0  0  0  0  0  0  0  0  0  0  0
    7.4068  -17.9133   20.4055 C   0  0  0  0  0  0  0  0  0  0  0  0
    7.9385  -17.5149   21.7321 C   0  0  0  0  0  0  0  0  0  0  0  0
    8.6747  -16.2060   21.5493 C   0  0  2  0  0  0  0  0  0  0  0  0
    9.8906  -16.4606   20.8516 N   0  0  0  0  0  0  0  0  0  0  0  0
    8.9740  -15.5589   22.8591 C   0  0  0  0  0  0  0  0  0  0  0  0
   10.1429  -15.6307   23.2894 O   0  0  0  0  0  0  0  0  0  0  0  0
    7.9318  -18.9636   19.6757 C   0  0  0  0  0  0  0  0  0  0  0  0
    7.4341  -19.3305   18.4423 C   0  0  0  0  0  0  0  0  0  0  0  0
    8.0211  -11.5277   26.6073 C   0  0  0  0  0  0  0  0  0  0  0  0
    7.0467  -12.7140   26.5837 C   0  0  1  0  0  0  0  0  0  0  0  0
    5.7063  -12.0867   27.0035 C   0  0  0  0  0  0  0  0  0  0  0  0
    6.9774  -13.2832   25.2189 C   0  0  0  0  0  0  0  0  0  0  0  0
    8.0463  -14.2890   24.8737 C   0  0  2  0  0  0  0  0  0  0  0  0
    7.9614  -14.8903   23.5795 N   0  0  0  0  0  0  0  0  0  0  0  0
    8.3316  -15.2792   25.9114 C   0  0  0  0  0  0  0  0  0  0  0  0
    8.7895  -14.9025   27.0445 O   0  0  0  0  0  0  0  0  0  0  0  0
    7.8293  -18.9549   26.4366 C   0  0  0  0  0  0  0  0  0  0  0  0
    8.4439  -17.6194   26.8302 C   0  0  2  0  0  0  0  0  0  0  0  0
    8.1370  -16.6764   25.7646 N   0  0  0  0  0  0  0  0  0  0  0  0
    9.8846  -17.8107   26.9947 C   0  0  0  0  0  0  0  0  0  0  0  0
   10.7375  -17.3297   26.0149 O   0  0  0  0  0  0  0  0  0  0  0  0
   10.3933  -18.3913   27.9828 O   0  0  0  0  0  0  0  0  0  0  0  0
  2  1  1  0
  2  3  2  0
  4  3  1  0
  5  4  2  0
  6  5  1  0
  7  6  1  0
  7  9  1  0
  7  8  1  1
  9 18  1  0
  9 10  2  0
 11 12  2  0
 11  5  1  0
 12  2  1  0
 14 13  1  6
 14 15  1  0
 16 14  1  0
 17 16  1  1
 18 17  1  0
 19 23  1  0
 19 17  1  0
 20 19  2  0
 22 21  1  6
 22 23  1  0
 22 24  1  0
 24 25  1  0
 26 24  2  0
M  END
$$$$
