YLA.pdb
     RDKit          3D

 26 26  0  0  1  0  0  0  0  0999 V2000
    7.7272  -14.3190   15.9163 O   0  0  0  0  0  0  0  0  0  0  0  0
    8.0863  -14.2252   17.2585 C   0  0  0  0  0  0  0  0  0  0  0  0
    8.7468  -15.2488   17.9227 C   0  0  0  0  0  0  0  0  0  0  0  0
    9.0855  -15.1095   19.2648 C   0  0  0  0  0  0  0  0  0  0  0  0
    8.7787  -13.9640   19.9668 C   0  0  0  0  0  0  0  0  0  0  0  0
    9.1497  -13.8375   21.3978 C   0  0  0  0  0  0  0  0  0  0  0  0
    8.7860  -15.1402   22.0757 C   0  0  2  0  0  0  0  0  0  0  0  0
    7.4373  -15.4628   21.7491 N   0  0  0  0  0  0  0  0  0  0  0  0
    8.9349  -15.0466   23.5565 C   0  0  0  0  0  0  0  0  0  0  0  0
   10.0911  -15.0377   24.0252 O   0  0  0  0  0  0  0  0  0  0  0  0
    8.1207  -12.9641   19.2751 C   0  0  0  0  0  0  0  0  0  0  0  0
    7.7776  -13.0861   17.9443 C   0  0  0  0  0  0  0  0  0  0  0  0
    5.6083  -11.7784   26.4679 C   0  0  0  0  0  0  0  0  0  0  0  0
    6.8427  -12.5592   25.9945 C   0  0  1  0  0  0  0  0  0  0  0  0
    8.0111  -11.8422   26.6924 C   0  0  0  0  0  0  0  0  0  0  0  0
    6.7395  -13.9732   26.4203 C   0  0  0  0  0  0  0  0  0  0  0  0
    7.7522  -14.9140   25.8184 C   0  0  2  0  0  0  0  0  0  0  0  0
    7.7991  -14.9711   24.3906 N   0  0  0  0  0  0  0  0  0  0  0  0
    7.7968  -16.2490   26.4138 C   0  0  0  0  0  0  0  0  0  0  0  0
    7.8421  -16.3797   27.6851 O   0  0  0  0  0  0  0  0  0  0  0  0
    7.3541  -19.7931   25.3607 C   0  0  0  0  0  0  0  0  0  0  0  0
    7.9380  -18.7597   26.3131 C   0  0  2  0  0  0  0  0  0  0  0  0
    7.7940  -17.4595   25.6746 N   0  0  0  0  0  0  0  0  0  0  0  0
    9.3402  -19.1003   26.5525 C   0  0  0  0  0  0  0  0  0  0  0  0
    9.6364  -20.1214   27.4403 O   0  0  0  0  0  0  0  0  0  0  0  0
   10.2963  -18.5129   25.9928 O   0  0  0  0  0  0  0  0  0  0  0  0
  2  1  1  0
  2  3  2  0
  4  3  1  0
  5  4  2  0
  6  5  1  0
  7  6  1  0
  7  9  1  0
  7  8  1  1
  9 18  1  0
  9 10  2  0
 11 12  2  0
 11  5  1  0
 12  2  1  0
 14 13  1  1
 14 15  1  0
 16 14  1  0
 17 16  1  6
 18 17  1  0
 19 23  1  0
 19 17  1  0
 20 19  2  0
 22 21  1  6
 22 23  1  0
 22 24  1  0
 24 25  1  0
 26 24  2  0
M  END
$$$$
