YLA.pdb
     RDKit          3D

 26 26  0  0  1  0  0  0  0  0999 V2000
    4.6078  -21.5376   21.3911 O   0  0  0  0  0  0  0  0  0  0  0  0
    5.6767  -20.7356   21.7829 C   0  0  0  0  0  0  0  0  0  0  0  0
    6.3219  -19.8782   20.9032 C   0  0  0  0  0  0  0  0  0  0  0  0
    7.3858  -19.0958   21.3405 C   0  0  0  0  0  0  0  0  0  0  0  0
    7.8258  -19.1482   22.6455 C   0  0  0  0  0  0  0  0  0  0  0  0
    8.9625  -18.3045   23.0897 C   0  0  0  0  0  0  0  0  0  0  0  0
    8.6686  -16.8854   22.6555 C   0  0  2  0  0  0  0  0  0  0  0  0
    9.3385  -16.6381   21.4226 N   0  0  0  0  0  0  0  0  0  0  0  0
    9.1175  -15.8964   23.6774 C   0  0  0  0  0  0  0  0  0  0  0  0
   10.2635  -15.4177   23.5592 O   0  0  0  0  0  0  0  0  0  0  0  0
    7.1610  -20.0126   23.4953 C   0  0  0  0  0  0  0  0  0  0  0  0
    6.1043  -20.7953   23.0778 C   0  0  0  0  0  0  0  0  0  0  0  0
    5.7042  -12.3528   26.4046 C   0  0  0  0  0  0  0  0  0  0  0  0
    6.8970  -13.0062   25.6920 C   0  0  1  0  0  0  0  0  0  0  0  0
    7.8382  -11.8230   25.4079 C   0  0  0  0  0  0  0  0  0  0  0  0
    7.5314  -14.0047   26.5819 C   0  0  0  0  0  0  0  0  0  0  0  0
    8.6097  -14.8506   25.9535 C   0  0  2  0  0  0  0  0  0  0  0  0
    8.2663  -15.5217   24.7388 N   0  0  0  0  0  0  0  0  0  0  0  0
    9.3280  -15.7323   26.8729 C   0  0  0  0  0  0  0  0  0  0  0  0
    9.8446  -15.2560   27.9414 O   0  0  0  0  0  0  0  0  0  0  0  0
    9.6053  -19.3637   27.5215 C   0  0  0  0  0  0  0  0  0  0  0  0
   10.1929  -17.9654   27.6467 C   0  0  2  0  0  0  0  0  0  0  0  0
    9.5089  -17.1250   26.6747 N   0  0  0  0  0  0  0  0  0  0  0  0
   11.6294  -18.0488   27.3844 C   0  0  0  0  0  0  0  0  0  0  0  0
   12.4224  -18.7916   28.2434 O   0  0  0  0  0  0  0  0  0  0  0  0
   12.1862  -17.4793   26.4159 O   0  0  0  0  0  0  0  0  0  0  0  0
  2  1  1  0
  2  3  2  0
  4  3  1  0
  5  4  2  0
  6  5  1  0
  7  6  1  0
  7  9  1  0
  7  8  1  6
  9 18  1  0
  9 10  2  0
 11 12  2  0
 11  5  1  0
 12  2  1  0
 14 13  1  1
 14 15  1  0
 16 14  1  0
 17 16  1  1
 18 17  1  0
 19 23  1  0
 19 17  1  0
 20 19  2  0
 22 21  1  6
 22 23  1  0
 22 24  1  0
 24 25  1  0
 26 24  2  0
M  END
$$$$
