YLA.pdb
     RDKit          3D

 26 26  0  0  1  0  0  0  0  0999 V2000
    7.5869  -14.3389   15.7620 O   0  0  0  0  0  0  0  0  0  0  0  0
    7.8336  -14.1959   17.1250 C   0  0  0  0  0  0  0  0  0  0  0  0
    8.0577  -15.2840   17.9563 C   0  0  0  0  0  0  0  0  0  0  0  0
    8.3000  -15.0916   19.3126 C   0  0  0  0  0  0  0  0  0  0  0  0
    8.3246  -13.8293   19.8650 C   0  0  0  0  0  0  0  0  0  0  0  0
    8.5851  -13.6481   21.3143 C   0  0  0  0  0  0  0  0  0  0  0  0
    8.7153  -15.0258   21.9256 C   0  0  2  0  0  0  0  0  0  0  0  0
    7.4749  -15.7103   21.7749 N   0  0  0  0  0  0  0  0  0  0  0  0
    9.0748  -14.9514   23.3710 C   0  0  0  0  0  0  0  0  0  0  0  0
   10.2791  -14.8093   23.6640 O   0  0  0  0  0  0  0  0  0  0  0  0
    8.0976  -12.7677   19.0089 C   0  0  0  0  0  0  0  0  0  0  0  0
    7.8557  -12.9410   17.6617 C   0  0  0  0  0  0  0  0  0  0  0  0
    5.4122  -12.3734   26.5699 C   0  0  0  0  0  0  0  0  0  0  0  0
    6.7339  -12.8458   25.9476 C   0  0  1  0  0  0  0  0  0  0  0  0
    7.7378  -11.7583   26.3673 C   0  0  0  0  0  0  0  0  0  0  0  0
    7.1051  -14.1699   26.4956 C   0  0  0  0  0  0  0  0  0  0  0  0
    8.2229  -14.8850   25.7798 C   0  0  2  0  0  0  0  0  0  0  0  0
    8.0779  -15.0398   24.3659 N   0  0  0  0  0  0  0  0  0  0  0  0
    8.6820  -16.1203   26.4137 C   0  0  0  0  0  0  0  0  0  0  0  0
    8.8724  -16.1565   27.6778 O   0  0  0  0  0  0  0  0  0  0  0  0
    9.1213  -19.7077   25.4920 C   0  0  0  0  0  0  0  0  0  0  0  0
    9.4254  -18.5246   26.3997 C   0  0  2  0  0  0  0  0  0  0  0  0
    8.9449  -17.3298   25.7212 N   0  0  0  0  0  0  0  0  0  0  0  0
   10.8698  -18.4827   26.6264 C   0  0  0  0  0  0  0  0  0  0  0  0
   11.6139  -17.4925   26.0063 O   0  0  0  0  0  0  0  0  0  0  0  0
   11.4756  -19.3014   27.3578 O   0  0  0  0  0  0  0  0  0  0  0  0
  2  1  1  0
  2  3  2  0
  4  3  1  0
  5  4  2  0
  6  5  1  0
  7  6  1  0
  7  9  1  0
  7  8  1  1
  9 18  1  0
  9 10  2  0
 11 12  2  0
 11  5  1  0
 12  2  1  0
 14 13  1  1
 14 15  1  0
 16 14  1  0
 17 16  1  1
 18 17  1  0
 19 23  1  0
 19 17  1  0
 20 19  2  0
 22 21  1  6
 22 23  1  0
 22 24  1  0
 24 25  1  0
 26 24  2  0
M  END
$$$$
