YLA.pdb
     RDKit          3D

 26 26  0  0  1  0  0  0  0  0999 V2000
   10.8371  -14.2556   31.0001 O   0  0  0  0  0  0  0  0  0  0  0  0
   10.5079  -15.1025   29.9448 C   0  0  0  0  0  0  0  0  0  0  0  0
   10.1685  -14.6235   28.6876 C   0  0  0  0  0  0  0  0  0  0  0  0
    9.8468  -15.5086   27.6637 C   0  0  0  0  0  0  0  0  0  0  0  0
    9.8554  -16.8719   27.8649 C   0  0  0  0  0  0  0  0  0  0  0  0
    9.5088  -17.7971   26.7580 C   0  0  0  0  0  0  0  0  0  0  0  0
    8.0068  -17.7500   26.5834 C   0  0  2  0  0  0  0  0  0  0  0  0
    7.5266  -19.0797   26.4068 N   0  0  0  0  0  0  0  0  0  0  0  0
    7.6183  -16.9164   25.4095 C   0  0  0  0  0  0  0  0  0  0  0  0
    7.1247  -17.4972   24.4218 O   0  0  0  0  0  0  0  0  0  0  0  0
   10.1979  -17.3152   29.1287 C   0  0  0  0  0  0  0  0  0  0  0  0
   10.5196  -16.4512   30.1551 C   0  0  0  0  0  0  0  0  0  0  0  0
    7.2535  -11.4357   26.5869 C   0  0  0  0  0  0  0  0  0  0  0  0
    7.0642  -12.9177   26.2331 C   0  0  1  0  0  0  0  0  0  0  0  0
    5.5777  -13.1727   26.5363 C   0  0  0  0  0  0  0  0  0  0  0  0
    7.3734  -13.1385   24.8023 C   0  0  0  0  0  0  0  0  0  0  0  0
    7.5409  -14.5770   24.3829 C   0  0  2  0  0  0  0  0  0  0  0  0
    7.8070  -15.5180   25.4259 N   0  0  0  0  0  0  0  0  0  0  0  0
    8.4085  -14.7940   23.2258 C   0  0  0  0  0  0  0  0  0  0  0  0
    8.1888  -14.1620   22.1359 O   0  0  0  0  0  0  0  0  0  0  0  0
   11.7290  -15.8007   22.2967 C   0  0  0  0  0  0  0  0  0  0  0  0
   10.2499  -15.9787   21.9852 C   0  0  2  0  0  0  0  0  0  0  0  0
    9.5162  -15.6795   23.2063 N   0  0  0  0  0  0  0  0  0  0  0  0
   10.0392  -17.3569   21.5431 C   0  0  0  0  0  0  0  0  0  0  0  0
   10.6333  -17.7777   20.3647 O   0  0  0  0  0  0  0  0  0  0  0  0
    9.3441  -18.1848   22.1786 O   0  0  0  0  0  0  0  0  0  0  0  0
  2  1  1  0
  2  3  2  0
  4  3  1  0
  5  4  2  0
  6  5  1  0
  7  6  1  0
  7  9  1  0
  7  8  1  6
  9 18  1  0
  9 10  2  0
 11 12  2  0
 11  5  1  0
 12  2  1  0
 14 13  1  6
 14 15  1  0
 16 14  1  0
 17 16  1  1
 18 17  1  0
 19 23  1  0
 19 17  1  0
 20 19  2  0
 22 21  1  1
 22 23  1  0
 22 24  1  0
 24 25  1  0
 26 24  2  0
M  END
$$$$
