YLA.pdb
     RDKit          3D

 26 26  0  0  1  0  0  0  0  0999 V2000
    6.8196  -23.8331   28.9535 O   0  0  0  0  0  0  0  0  0  0  0  0
    7.1230  -22.5925   28.3984 C   0  0  0  0  0  0  0  0  0  0  0  0
    8.4275  -22.1909   28.1486 C   0  0  0  0  0  0  0  0  0  0  0  0
    8.6818  -20.9414   27.5925 C   0  0  0  0  0  0  0  0  0  0  0  0
    7.6578  -20.0749   27.2766 C   0  0  0  0  0  0  0  0  0  0  0  0
    7.9527  -18.7470   26.6842 C   0  0  0  0  0  0  0  0  0  0  0  0
    7.1891  -18.6538   25.3815 C   0  0  2  0  0  0  0  0  0  0  0  0
    7.7395  -19.5933   24.4625 N   0  0  0  0  0  0  0  0  0  0  0  0
    7.2627  -17.2822   24.8010 C   0  0  0  0  0  0  0  0  0  0  0  0
    7.9752  -17.1159   23.7904 O   0  0  0  0  0  0  0  0  0  0  0  0
    6.3706  -20.5063   27.5383 C   0  0  0  0  0  0  0  0  0  0  0  0
    6.1010  -21.7421   28.0893 C   0  0  0  0  0  0  0  0  0  0  0  0
    6.1935  -11.8646   24.8658 C   0  0  0  0  0  0  0  0  0  0  0  0
    6.3615  -12.4996   26.2536 C   0  0  1  0  0  0  0  0  0  0  0  0
    5.4063  -11.6829   27.1407 C   0  0  0  0  0  0  0  0  0  0  0  0
    5.9729  -13.9273   26.2058 C   0  0  0  0  0  0  0  0  0  0  0  0
    6.9422  -14.8468   25.5072 C   0  0  2  0  0  0  0  0  0  0  0  0
    6.5462  -16.2150   25.3834 N   0  0  0  0  0  0  0  0  0  0  0  0
    8.3364  -14.7246   25.9313 C   0  0  0  0  0  0  0  0  0  0  0  0
    9.1564  -14.0311   25.2369 O   0  0  0  0  0  0  0  0  0  0  0  0
   10.1567  -14.1068   28.7061 C   0  0  0  0  0  0  0  0  0  0  0  0
   10.2422  -15.0771   27.5367 C   0  0  2  0  0  0  0  0  0  0  0  0
    8.8799  -15.3324   27.0918 N   0  0  0  0  0  0  0  0  0  0  0  0
   10.9042  -16.2955   28.0020 C   0  0  0  0  0  0  0  0  0  0  0  0
   10.1980  -17.4869   27.9838 O   0  0  0  0  0  0  0  0  0  0  0  0
   12.0862  -16.3198   28.4198 O   0  0  0  0  0  0  0  0  0  0  0  0
  2  1  1  0
  2  3  2  0
  4  3  1  0
  5  4  2  0
  6  5  1  0
  7  6  1  0
  7  9  1  0
  7  8  1  6
  9 18  1  0
  9 10  2  0
 11 12  2  0
 11  5  1  0
 12  2  1  0
 14 13  1  6
 14 15  1  0
 16 14  1  0
 17 16  1  1
 18 17  1  0
 19 23  1  0
 19 17  1  0
 20 19  2  0
 22 21  1  1
 22 23  1  0
 22 24  1  0
 24 25  1  0
 26 24  2  0
M  END
$$$$
