YLA.pdb
     RDKit          3D

 26 26  0  0  1  0  0  0  0  0999 V2000
    5.3398  -19.8755   17.3303 O   0  0  0  0  0  0  0  0  0  0  0  0
    5.9324  -19.3360   18.4692 C   0  0  0  0  0  0  0  0  0  0  0  0
    5.3357  -18.3234   19.2067 C   0  0  0  0  0  0  0  0  0  0  0  0
    5.9661  -17.8156   20.3381 C   0  0  0  0  0  0  0  0  0  0  0  0
    7.1879  -18.2974   20.7556 C   0  0  0  0  0  0  0  0  0  0  0  0
    7.8417  -17.7407   21.9655 C   0  0  0  0  0  0  0  0  0  0  0  0
    8.2973  -16.3381   21.6279 C   0  0  2  0  0  0  0  0  0  0  0  0
    9.4036  -16.4211   20.7340 N   0  0  0  0  0  0  0  0  0  0  0  0
    8.6959  -15.5831   22.8505 C   0  0  0  0  0  0  0  0  0  0  0  0
    9.8994  -15.6014   23.1787 O   0  0  0  0  0  0  0  0  0  0  0  0
    7.7542  -19.3059   19.9982 C   0  0  0  0  0  0  0  0  0  0  0  0
    7.1426  -19.8206   18.8737 C   0  0  0  0  0  0  0  0  0  0  0  0
    7.8032  -11.4293   26.4826 C   0  0  0  0  0  0  0  0  0  0  0  0
    6.9675  -12.7058   26.6545 C   0  0  1  0  0  0  0  0  0  0  0  0
    5.6384  -12.1903   27.2327 C   0  0  0  0  0  0  0  0  0  0  0  0
    6.7719  -13.3616   25.3418 C   0  0  0  0  0  0  0  0  0  0  0  0
    7.8946  -14.2576   24.8837 C   0  0  2  0  0  0  0  0  0  0  0  0
    7.7355  -14.8749   23.6040 N   0  0  0  0  0  0  0  0  0  0  0  0
    8.3855  -15.2058   25.8830 C   0  0  0  0  0  0  0  0  0  0  0  0
    8.9790  -14.7776   26.9318 O   0  0  0  0  0  0  0  0  0  0  0  0
    7.9090  -18.8020   26.6999 C   0  0  0  0  0  0  0  0  0  0  0  0
    8.7002  -17.5100   26.8448 C   0  0  2  0  0  0  0  0  0  0  0  0
    8.2554  -16.6148   25.7866 N   0  0  0  0  0  0  0  0  0  0  0  0
   10.1226  -17.8305   26.7295 C   0  0  0  0  0  0  0  0  0  0  0  0
   10.7195  -18.5843   27.7266 O   0  0  0  0  0  0  0  0  0  0  0  0
   10.8366  -17.4566   25.7689 O   0  0  0  0  0  0  0  0  0  0  0  0
  2  1  1  0
  2  3  2  0
  4  3  1  0
  5  4  2  0
  6  5  1  0
  7  6  1  0
  7  9  1  0
  7  8  1  6
  9 18  1  0
  9 10  2  0
 11 12  2  0
 11  5  1  0
 12  2  1  0
 14 13  1  6
 14 15  1  0
 16 14  1  0
 17 16  1  1
 18 17  1  0
 19 23  1  0
 19 17  1  0
 20 19  2  0
 22 21  1  6
 22 23  1  0
 22 24  1  0
 24 25  1  0
 26 24  2  0
M  END
$$$$
