YLA.pdb
     RDKit          3D

 26 26  0  0  1  0  0  0  0  0999 V2000
    7.5437  -14.7611   15.2273 O   0  0  0  0  0  0  0  0  0  0  0  0
    7.9880  -14.5046   16.5219 C   0  0  0  0  0  0  0  0  0  0  0  0
    9.0476  -15.1950   17.0927 C   0  0  0  0  0  0  0  0  0  0  0  0
    9.4562  -14.9037   18.3902 C   0  0  0  0  0  0  0  0  0  0  0  0
    8.8283  -13.9319   19.1389 C   0  0  0  0  0  0  0  0  0  0  0  0
    9.2813  -13.6381   20.5208 C   0  0  0  0  0  0  0  0  0  0  0  0
    9.0829  -14.8956   21.3382 C   0  0  2  0  0  0  0  0  0  0  0  0
    7.7746  -15.4007   21.0869 N   0  0  0  0  0  0  0  0  0  0  0  0
    9.2471  -14.6317   22.7967 C   0  0  0  0  0  0  0  0  0  0  0  0
   10.4061  -14.4825   23.2337 O   0  0  0  0  0  0  0  0  0  0  0  0
    7.7767  -13.2634   18.5400 C   0  0  0  0  0  0  0  0  0  0  0  0
    7.3588  -13.5399   17.2546 C   0  0  0  0  0  0  0  0  0  0  0  0
    7.9445  -11.7082   26.9703 C   0  0  0  0  0  0  0  0  0  0  0  0
    6.9583  -12.8809   26.8726 C   0  0  1  0  0  0  0  0  0  0  0  0
    5.6187  -12.2613   27.3066 C   0  0  0  0  0  0  0  0  0  0  0  0
    6.9019  -13.3783   25.4794 C   0  0  0  0  0  0  0  0  0  0  0  0
    8.0811  -14.2035   25.0304 C   0  0  2  0  0  0  0  0  0  0  0  0
    8.1222  -14.5553   23.6454 N   0  0  0  0  0  0  0  0  0  0  0  0
    8.4095  -15.3426   25.8867 C   0  0  0  0  0  0  0  0  0  0  0  0
    8.4931  -15.1859   27.1532 O   0  0  0  0  0  0  0  0  0  0  0  0
    8.3177  -19.0154   25.6786 C   0  0  0  0  0  0  0  0  0  0  0  0
    8.9136  -17.7700   26.3189 C   0  0  2  0  0  0  0  0  0  0  0  0
    8.6532  -16.6582   25.4162 N   0  0  0  0  0  0  0  0  0  0  0  0
   10.3459  -17.9962   26.5108 C   0  0  0  0  0  0  0  0  0  0  0  0
   10.7559  -18.8743   27.5005 O   0  0  0  0  0  0  0  0  0  0  0  0
   11.2297  -17.4335   25.8219 O   0  0  0  0  0  0  0  0  0  0  0  0
  2  1  1  0
  2  3  2  0
  4  3  1  0
  5  4  2  0
  6  5  1  0
  7  6  1  0
  7  9  1  0
  7  8  1  1
  9 18  1  0
  9 10  2  0
 11 12  2  0
 11  5  1  0
 12  2  1  0
 14 13  1  6
 14 15  1  0
 16 14  1  0
 17 16  1  1
 18 17  1  0
 19 23  1  0
 19 17  1  0
 20 19  2  0
 22 21  1  6
 22 23  1  0
 22 24  1  0
 24 25  1  0
 26 24  2  0
M  END
$$$$
