MSM.pdb
     RDKit          3D

 23 22  0  0  1  0  0  0  0  0999 V2000
   27.8614  -17.0414  -15.2062 C   0  0  0  0  0  0  0  0  0  0  0  0
   26.6180  -15.8573  -15.7524 S   0  0  0  0  0  0  0  0  0  0  0  0
   24.9746  -16.5690  -15.4727 C   0  0  0  0  0  0  0  0  0  0  0  0
   25.0894  -17.6672  -14.4118 C   0  0  0  0  0  0  0  0  0  0  0  0
   25.6506  -18.9414  -15.0569 C   0  0  2  0  0  0  0  0  0  0  0  0
   24.6385  -19.4448  -15.9701 N   0  0  0  0  0  0  0  0  0  0  0  0
   25.9769  -19.8957  -13.9950 C   0  0  0  0  0  0  0  0  0  0  0  0
   25.0455  -20.6626  -13.6072 O   0  0  0  0  0  0  0  0  0  0  0  0
   29.6602  -20.0945  -12.0703 O   0  0  0  0  0  0  0  0  0  0  0  0
   29.0288  -21.3046  -12.3102 C   0  0  0  0  0  0  0  0  0  0  0  0
   27.5364  -21.0552  -12.3661 C   0  0  2  0  0  0  0  0  0  0  0  0
   27.2237  -20.0426  -13.3650 N   0  0  0  0  0  0  0  0  0  0  0  0
   26.9836  -20.6826  -11.0425 C   0  0  0  0  0  0  0  0  0  0  0  0
   26.5883  -19.4850  -10.8885 O   0  0  0  0  0  0  0  0  0  0  0  0
   28.9073  -20.5626   -5.2319 C   0  0  0  0  0  0  0  0  0  0  0  0
   28.1797  -18.9960   -5.7690 S   0  0  0  0  0  0  0  0  0  0  0  0
   26.7422  -19.4024   -6.8283 C   0  0  0  0  0  0  0  0  0  0  0  0
   27.1961  -19.8874   -8.1745 C   0  0  0  0  0  0  0  0  0  0  0  0
   26.3987  -21.0567   -8.6191 C   0  0  2  0  0  0  0  0  0  0  0  0
   26.8525  -21.5368   -9.9307 N   0  0  0  0  0  0  0  0  0  0  0  0
   24.9696  -20.8046   -8.6043 C   0  0  0  0  0  0  0  0  0  0  0  0
   24.3078  -20.3263   -9.5377 O   0  0  0  0  0  0  0  0  0  0  0  0
   24.2496  -21.1241   -7.4359 O   0  0  0  0  0  0  0  0  0  0  0  0
  1  2  1  0
  3  2  1  0
  4  3  1  0
  5  6  1  6
  5  7  1  0
  5  4  1  0
  7  8  2  0
 10  9  1  0
 11 10  1  1
 11 13  1  0
 12  7  1  0
 12 11  1  0
 13 14  2  0
 13 20  1  0
 15 16  1  0
 17 16  1  0
 18 17  1  0
 19 18  1  6
 20 19  1  0
 21 19  1  0
 21 23  1  0
 22 21  2  0
M  END
$$$$
