MSM.pdb
     RDKit          3D

 23 22  0  0  1  0  0  0  0  0999 V2000
   25.0746  -18.8569   -9.1202 C   0  0  0  0  0  0  0  0  0  0  0  0
   26.1405  -20.2898   -8.8818 S   0  0  0  0  0  0  0  0  0  0  0  0
   26.0742  -21.3185  -10.3729 C   0  0  0  0  0  0  0  0  0  0  0  0
   25.7104  -20.4303  -11.5661 C   0  0  0  0  0  0  0  0  0  0  0  0
   25.5314  -21.3040  -12.8148 C   0  0  2  0  0  0  0  0  0  0  0  0
   26.7735  -22.0312  -13.0147 N   0  0  0  0  0  0  0  0  0  0  0  0
   25.1977  -20.4359  -13.9461 C   0  0  0  0  0  0  0  0  0  0  0  0
   26.1660  -19.9881  -14.6303 O   0  0  0  0  0  0  0  0  0  0  0  0
   21.3082  -19.5510  -15.0344 O   0  0  0  0  0  0  0  0  0  0  0  0
   22.1838  -19.8545  -16.0648 C   0  0  0  0  0  0  0  0  0  0  0  0
   23.5785  -19.4538  -15.6323 C   0  0  2  0  0  0  0  0  0  0  0  0
   23.9071  -20.0520  -14.3457 N   0  0  0  0  0  0  0  0  0  0  0  0
   23.7481  -17.9821  -15.5914 C   0  0  0  0  0  0  0  0  0  0  0  0
   23.6106  -17.4073  -14.4666 O   0  0  0  0  0  0  0  0  0  0  0  0
   27.4969  -12.9737  -14.3622 C   0  0  0  0  0  0  0  0  0  0  0  0
   27.3822  -13.2293  -16.1493 S   0  0  0  0  0  0  0  0  0  0  0  0
   25.6690  -13.7665  -16.5099 C   0  0  0  0  0  0  0  0  0  0  0  0
   25.5389  -15.2550  -16.3659 C   0  0  0  0  0  0  0  0  0  0  0  0
   24.1361  -15.6921  -16.5715 C   0  0  2  0  0  0  0  0  0  0  0  0
   24.0508  -17.1535  -16.6889 N   0  0  0  0  0  0  0  0  0  0  0  0
   23.4945  -15.0250  -17.6893 C   0  0  0  0  0  0  0  0  0  0  0  0
   23.0761  -13.8576  -17.6941 O   0  0  0  0  0  0  0  0  0  0  0  0
   23.3211  -15.7491  -18.8857 O   0  0  0  0  0  0  0  0  0  0  0  0
  1  2  1  0
  3  2  1  0
  4  3  1  0
  5  6  1  6
  5  7  1  0
  5  4  1  0
  7  8  2  0
 10  9  1  0
 11 10  1  1
 11 13  1  0
 12  7  1  0
 12 11  1  0
 13 14  2  0
 13 20  1  0
 15 16  1  0
 17 16  1  0
 18 17  1  0
 19 18  1  6
 20 19  1  0
 21 19  1  0
 21 23  1  0
 22 21  2  0
M  END
$$$$
