MSM.pdb
     RDKit          3D

 23 22  0  0  1  0  0  0  0  0999 V2000
   19.4675  -14.1664  -14.0089 C   0  0  0  0  0  0  0  0  0  0  0  0
   21.0669  -13.9264  -13.2146 S   0  0  0  0  0  0  0  0  0  0  0  0
   22.2387  -13.2960  -14.4455 C   0  0  0  0  0  0  0  0  0  0  0  0
   22.3795  -11.7826  -14.2592 C   0  0  0  0  0  0  0  0  0  0  0  0
   23.2403  -11.2082  -15.3922 C   0  0  2  0  0  0  0  0  0  0  0  0
   24.5807  -11.7460  -15.2312 N   0  0  0  0  0  0  0  0  0  0  0  0
   23.2051   -9.7466  -15.3082 C   0  0  0  0  0  0  0  0  0  0  0  0
   23.5260   -9.2283  -14.1972 O   0  0  0  0  0  0  0  0  0  0  0  0
   21.4984   -7.2609  -18.1672 O   0  0  0  0  0  0  0  0  0  0  0  0
   22.6495   -6.7659  -17.5752 C   0  0  0  0  0  0  0  0  0  0  0  0
   22.7966   -7.4140  -16.2147 C   0  0  2  0  0  0  0  0  0  0  0  0
   22.8497   -8.8638  -16.3414 N   0  0  0  0  0  0  0  0  0  0  0  0
   21.7208   -7.0024  -15.2821 C   0  0  0  0  0  0  0  0  0  0  0  0
   20.6532   -7.6914  -15.2782 O   0  0  0  0  0  0  0  0  0  0  0  0
   18.2496   -5.4135   -8.7675 C   0  0  0  0  0  0  0  0  0  0  0  0
   19.7488   -5.9511   -9.6253 S   0  0  0  0  0  0  0  0  0  0  0  0
   19.6395   -5.3313  -11.3450 C   0  0  0  0  0  0  0  0  0  0  0  0
   20.7334   -5.9170  -12.1899 C   0  0  0  0  0  0  0  0  0  0  0  0
   20.6059   -5.4871  -13.6041 C   0  0  2  0  0  0  0  0  0  0  0  0
   21.7700   -5.9126  -14.3918 N   0  0  0  0  0  0  0  0  0  0  0  0
   20.3552   -4.0643  -13.7417 C   0  0  0  0  0  0  0  0  0  0  0  0
   21.2178   -3.1882  -13.9040 O   0  0  0  0  0  0  0  0  0  0  0  0
   19.0203   -3.6157  -13.6893 O   0  0  0  0  0  0  0  0  0  0  0  0
  1  2  1  0
  3  2  1  0
  4  3  1  0
  5  6  1  1
  5  7  1  0
  5  4  1  0
  7  8  2  0
 10  9  1  0
 11 10  1  6
 11 13  1  0
 12  7  1  0
 12 11  1  0
 13 14  2  0
 13 20  1  0
 15 16  1  0
 17 16  1  0
 18 17  1  0
 19 18  1  1
 20 19  1  0
 21 19  1  0
 21 23  1  0
 22 21  2  0
M  END
$$$$
