MSM.pdb
     RDKit          3D

 23 22  0  0  1  0  0  0  0  0999 V2000
   18.1231  -20.1205  -13.8751 C   0  0  0  0  0  0  0  0  0  0  0  0
   19.3274  -20.8873  -14.9744 S   0  0  0  0  0  0  0  0  0  0  0  0
   20.9442  -20.1177  -14.6931 C   0  0  0  0  0  0  0  0  0  0  0  0
   21.3585  -20.3632  -13.2395 C   0  0  0  0  0  0  0  0  0  0  0  0
   22.6310  -19.5630  -12.9309 C   0  0  2  0  0  0  0  0  0  0  0  0
   23.3088  -19.3257  -14.1941 N   0  0  0  0  0  0  0  0  0  0  0  0
   23.4470  -20.3318  -11.9885 C   0  0  0  0  0  0  0  0  0  0  0  0
   22.8947  -20.6780  -10.9018 O   0  0  0  0  0  0  0  0  0  0  0  0
   27.5176  -21.2504  -12.5176 O   0  0  0  0  0  0  0  0  0  0  0  0
   26.7236  -22.1695  -11.8502 C   0  0  0  0  0  0  0  0  0  0  0  0
   25.5916  -21.4180  -11.1821 C   0  0  2  0  0  0  0  0  0  0  0  0
   24.7835  -20.7222  -12.1739 N   0  0  0  0  0  0  0  0  0  0  0  0
   26.0813  -20.4798  -10.1446 C   0  0  0  0  0  0  0  0  0  0  0  0
   26.2608  -19.2694  -10.4867 O   0  0  0  0  0  0  0  0  0  0  0  0
   28.0857  -18.3458   -3.3350 C   0  0  0  0  0  0  0  0  0  0  0  0
   28.2701  -19.9937   -4.0578 S   0  0  0  0  0  0  0  0  0  0  0  0
   28.4826  -19.7717   -5.8631 C   0  0  0  0  0  0  0  0  0  0  0  0
   27.3428  -20.3989   -6.6120 C   0  0  0  0  0  0  0  0  0  0  0  0
   27.4966  -20.2119   -8.0757 C   0  0  2  0  0  0  0  0  0  0  0  0
   26.3677  -20.8044   -8.8047 N   0  0  0  0  0  0  0  0  0  0  0  0
   28.7710  -20.6932   -8.5760 C   0  0  0  0  0  0  0  0  0  0  0  0
   28.9966  -21.8334   -9.0085 O   0  0  0  0  0  0  0  0  0  0  0  0
   29.8633  -19.8029   -8.5801 O   0  0  0  0  0  0  0  0  0  0  0  0
  1  2  1  0
  3  2  1  0
  4  3  1  0
  5  6  1  6
  5  7  1  0
  5  4  1  0
  7  8  2  0
 10  9  1  0
 11 10  1  6
 11 13  1  0
 12  7  1  0
 12 11  1  0
 13 14  2  0
 13 20  1  0
 15 16  1  0
 17 16  1  0
 18 17  1  0
 19 18  1  1
 20 19  1  0
 21 19  1  0
 21 23  1  0
 22 21  2  0
M  END
$$$$
