MSM.pdb
     RDKit          3D

 23 22  0  0  1  0  0  0  0  0999 V2000
   24.7654  -15.5573  -14.7841 C   0  0  0  0  0  0  0  0  0  0  0  0
   23.4150  -16.5754  -15.4055 S   0  0  0  0  0  0  0  0  0  0  0  0
   23.0586  -16.0885  -17.1148 C   0  0  0  0  0  0  0  0  0  0  0  0
   22.6508  -14.6126  -17.1299 C   0  0  0  0  0  0  0  0  0  0  0  0
   21.1548  -14.5013  -17.4528 C   0  0  2  0  0  0  0  0  0  0  0  0
   20.9357  -15.1745  -18.7219 N   0  0  0  0  0  0  0  0  0  0  0  0
   20.7925  -13.0830  -17.4967 C   0  0  0  0  0  0  0  0  0  0  0  0
   21.4980  -12.3337  -18.2362 O   0  0  0  0  0  0  0  0  0  0  0  0
   17.7691  -11.4059  -15.2170 O   0  0  0  0  0  0  0  0  0  0  0  0
   17.9474  -10.8448  -16.4716 C   0  0  0  0  0  0  0  0  0  0  0  0
   19.3875  -11.0626  -16.8856 C   0  0  2  0  0  0  0  0  0  0  0  0
   19.7376  -12.4735  -16.7976 N   0  0  0  0  0  0  0  0  0  0  0  0
   20.3265  -10.2331  -16.0940 C   0  0  0  0  0  0  0  0  0  0  0  0
   20.7092  -10.6900  -14.9718 O   0  0  0  0  0  0  0  0  0  0  0  0
   26.3241   -9.5305  -17.9793 C   0  0  0  0  0  0  0  0  0  0  0  0
   25.3369   -8.1079  -17.4561 S   0  0  0  0  0  0  0  0  0  0  0  0
   23.8653   -8.7621  -16.5845 C   0  0  0  0  0  0  0  0  0  0  0  0
   22.8817   -7.6627  -16.3063 C   0  0  0  0  0  0  0  0  0  0  0  0
   21.6937   -8.1778  -15.5822 C   0  0  2  0  0  0  0  0  0  0  0  0
   20.8401   -8.9772  -16.4706 N   0  0  0  0  0  0  0  0  0  0  0  0
   20.9422   -7.1318  -14.9134 C   0  0  0  0  0  0  0  0  0  0  0  0
   19.7753   -6.7995  -15.1703 O   0  0  0  0  0  0  0  0  0  0  0  0
   21.5748   -6.4170  -13.8768 O   0  0  0  0  0  0  0  0  0  0  0  0
  1  2  1  0
  3  2  1  0
  4  3  1  0
  5  6  1  6
  5  7  1  0
  5  4  1  0
  7  8  2  0
 10  9  1  0
 11 10  1  1
 11 13  1  0
 12  7  1  0
 12 11  1  0
 13 14  2  0
 13 20  1  0
 15 16  1  0
 17 16  1  0
 18 17  1  0
 19 18  1  6
 20 19  1  0
 21 19  1  0
 21 23  1  0
 22 21  2  0
M  END
$$$$
