MSM.pdb
     RDKit          3D

 23 22  0  0  1  0  0  0  0  0999 V2000
   19.1114  -12.6687  -21.3684 C   0  0  0  0  0  0  0  0  0  0  0  0
   19.5020  -13.8865  -20.0992 S   0  0  0  0  0  0  0  0  0  0  0  0
   18.4700  -13.5621  -18.6448 C   0  0  0  0  0  0  0  0  0  0  0  0
   18.5785  -12.0770  -18.2873 C   0  0  0  0  0  0  0  0  0  0  0  0
   19.3302  -11.9272  -16.9579 C   0  0  2  0  0  0  0  0  0  0  0  0
   18.6972  -12.8190  -16.0010 N   0  0  0  0  0  0  0  0  0  0  0  0
   19.2708  -10.5232  -16.5454 C   0  0  0  0  0  0  0  0  0  0  0  0
   19.8145   -9.6760  -17.3153 O   0  0  0  0  0  0  0  0  0  0  0  0
   18.2507   -9.2267  -12.7675 O   0  0  0  0  0  0  0  0  0  0  0  0
   17.7450   -8.4268  -13.7799 C   0  0  0  0  0  0  0  0  0  0  0  0
   18.6090   -8.6181  -15.0085 C   0  0  2  0  0  0  0  0  0  0  0  0
   18.6688  -10.0256  -15.3780 N   0  0  0  0  0  0  0  0  0  0  0  0
   19.9696   -8.0598  -14.8256 C   0  0  0  0  0  0  0  0  0  0  0  0
   20.8623   -8.8330  -14.3572 O   0  0  0  0  0  0  0  0  0  0  0  0
   26.3465   -4.5562  -17.0981 C   0  0  0  0  0  0  0  0  0  0  0  0
   24.6462   -5.0320  -17.4916 S   0  0  0  0  0  0  0  0  0  0  0  0
   23.8399   -5.5083  -15.9179 C   0  0  0  0  0  0  0  0  0  0  0  0
   22.4268   -5.9533  -16.1598 C   0  0  0  0  0  0  0  0  0  0  0  0
   21.7373   -6.2634  -14.8833 C   0  0  2  0  0  0  0  0  0  0  0  0
   20.3707   -6.7436  -15.1251 N   0  0  0  0  0  0  0  0  0  0  0  0
   21.7595   -5.1561  -13.9455 C   0  0  0  0  0  0  0  0  0  0  0  0
   20.9129   -4.2532  -13.8692 O   0  0  0  0  0  0  0  0  0  0  0  0
   22.8290   -5.0801  -13.0310 O   0  0  0  0  0  0  0  0  0  0  0  0
  1  2  1  0
  3  2  1  0
  4  3  1  0
  5  6  1  1
  5  7  1  0
  5  4  1  0
  7  8  2  0
 10  9  1  0
 11 10  1  1
 11 13  1  0
 12  7  1  0
 12 11  1  0
 13 14  2  0
 13 20  1  0
 15 16  1  0
 17 16  1  0
 18 17  1  0
 19 18  1  6
 20 19  1  0
 21 19  1  0
 21 23  1  0
 22 21  2  0
M  END
$$$$
