MSM.pdb
     RDKit          3D

 23 22  0  0  1  0  0  0  0  0999 V2000
   12.5371  -13.8160  -16.2421 C   0  0  0  0  0  0  0  0  0  0  0  0
   13.2252  -12.8226  -14.9056 S   0  0  0  0  0  0  0  0  0  0  0  0
   14.9380  -12.3974  -15.3195 C   0  0  0  0  0  0  0  0  0  0  0  0
   15.5365  -11.5909  -14.1635 C   0  0  0  0  0  0  0  0  0  0  0  0
   16.9720  -11.1810  -14.5186 C   0  0  2  0  0  0  0  0  0  0  0  0
   17.8200  -12.3393  -14.2931 N   0  0  0  0  0  0  0  0  0  0  0  0
   17.3482  -10.0359  -13.6868 C   0  0  0  0  0  0  0  0  0  0  0  0
   17.6645  -10.2803  -12.4841 O   0  0  0  0  0  0  0  0  0  0  0  0
   18.7383   -5.4283  -13.2242 O   0  0  0  0  0  0  0  0  0  0  0  0
   18.3446   -6.4438  -14.0811 C   0  0  0  0  0  0  0  0  0  0  0  0
   17.7916   -7.5787  -13.2451 C   0  0  2  0  0  0  0  0  0  0  0  0
   17.3923   -8.6924  -14.0943 N   0  0  0  0  0  0  0  0  0  0  0  0
   16.6687   -7.1402  -12.3831 C   0  0  0  0  0  0  0  0  0  0  0  0
   15.5131   -7.0854  -12.9086 O   0  0  0  0  0  0  0  0  0  0  0  0
   13.2445   -6.3679   -5.3821 C   0  0  0  0  0  0  0  0  0  0  0  0
   14.7218   -6.9195   -6.2684 S   0  0  0  0  0  0  0  0  0  0  0  0
   14.5597   -6.3450   -7.9997 C   0  0  0  0  0  0  0  0  0  0  0  0
   15.7309   -6.8002   -8.8210 C   0  0  0  0  0  0  0  0  0  0  0  0
   15.5880   -6.3792  -10.2364 C   0  0  2  0  0  0  0  0  0  0  0  0
   16.7609   -6.7766  -11.0259 N   0  0  0  0  0  0  0  0  0  0  0  0
   15.2991   -4.9642  -10.3787 C   0  0  0  0  0  0  0  0  0  0  0  0
   14.2281   -4.4100  -10.0894 O   0  0  0  0  0  0  0  0  0  0  0  0
   16.3109   -4.1265  -10.8889 O   0  0  0  0  0  0  0  0  0  0  0  0
  1  2  1  0
  3  2  1  0
  4  3  1  0
  5  6  1  1
  5  7  1  0
  5  4  1  0
  7  8  2  0
 10  9  1  0
 11 10  1  6
 11 13  1  0
 12  7  1  0
 12 11  1  0
 13 14  2  0
 13 20  1  0
 15 16  1  0
 17 16  1  0
 18 17  1  0
 19 18  1  1
 20 19  1  0
 21 19  1  0
 21 23  1  0
 22 21  2  0
M  END
$$$$
