YIP.pdb
     RDKit          3D

 28 29  0  0  1  0  0  0  0  0999 V2000
    8.3480  -19.7870   17.0647 O   0  0  0  0  0  0  0  0  0  0  0  0
    8.6262  -19.1814   18.3000 C   0  0  0  0  0  0  0  0  0  0  0  0
    7.6571  -19.0391   19.2729 C   0  0  0  0  0  0  0  0  0  0  0  0
    7.9332  -18.4497   20.4718 C   0  0  0  0  0  0  0  0  0  0  0  0
    9.2154  -17.9868   20.7101 C   0  0  0  0  0  0  0  0  0  0  0  0
    9.5039  -17.3456   22.0225 C   0  0  0  0  0  0  0  0  0  0  0  0
    9.3236  -15.8466   21.8460 C   0  0  2  0  0  0  0  0  0  0  0  0
   10.2603  -15.3164   20.8971 N   0  0  0  0  0  0  0  0  0  0  0  0
    9.4871  -15.2002   23.1511 C   0  0  0  0  0  0  0  0  0  0  0  0
   10.6369  -14.7610   23.4321 O   0  0  0  0  0  0  0  0  0  0  0  0
   10.2247  -18.1032   19.7714 C   0  0  0  0  0  0  0  0  0  0  0  0
    9.8905  -18.7067   18.5778 C   0  0  0  0  0  0  0  0  0  0  0  0
    5.5214  -12.1617   25.4503 C   0  0  0  0  0  0  0  0  0  0  0  0
    6.8784  -12.7308   24.9365 C   0  0  0  0  0  0  0  0  0  0  0  0
    7.2999  -13.8569   25.8259 C   0  0  2  0  0  0  0  0  0  0  0  0
    7.3770  -13.3659   27.2605 C   0  0  0  0  0  0  0  0  0  0  0  0
    8.5499  -14.5108   25.3705 C   0  0  2  0  0  0  0  0  0  0  0  0
    8.3989  -15.0799   24.0458 N   0  0  0  0  0  0  0  0  0  0  0  0
    9.1454  -15.4598   26.3055 C   0  0  0  0  0  0  0  0  0  0  0  0
    8.7804  -16.7014   26.1854 O   0  0  0  0  0  0  0  0  0  0  0  0
   10.0727  -15.2307   27.3374 N   0  0  0  0  0  0  0  0  0  0  0  0
   10.3937  -13.9748   27.9666 C   0  0  0  0  0  0  0  0  0  0  0  0
   11.3204  -14.3190   29.1296 C   0  0  0  0  0  0  0  0  0  0  0  0
   12.0354  -15.5214   28.5462 C   0  0  0  0  0  0  0  0  0  0  0  0
   10.8922  -16.2805   27.9571 C   0  0  1  0  0  0  0  0  0  0  0  0
   10.1138  -17.0431   28.9539 C   0  0  0  0  0  0  0  0  0  0  0  0
    8.8303  -16.7179   29.3654 O   0  0  0  0  0  0  0  0  0  0  0  0
   10.6402  -18.0593   29.4725 O   0  0  0  0  0  0  0  0  0  0  0  0
  1  2  1  0
  2 12  2  0
  3  4  2  0
  3  2  1  0
  4  5  1  0
  5 11  2  0
  5  6  1  0
  7  6  1  0
  7  8  1  6
  9  7  1  0
  9 10  2  0
 12 11  1  0
 14 15  1  0
 14 13  1  0
 15 17  1  0
 15 16  1  1
 17 18  1  6
 17 19  1  0
 18  9  1  0
 19 21  1  0
 20 19  2  0
 21 25  1  0
 21 22  1  0
 23 22  1  0
 24 25  1  0
 24 23  1  0
 26 27  1  0
 25 26  1  1
 28 26  2  0
M  END
$$$$
