YIP.pdb
     RDKit          3D

 28 29  0  0  1  0  0  0  0  0999 V2000
    7.8050  -19.9850   17.0557 O   0  0  0  0  0  0  0  0  0  0  0  0
    8.2297  -19.3185   18.2156 C   0  0  0  0  0  0  0  0  0  0  0  0
    7.4511  -19.2772   19.3550 C   0  0  0  0  0  0  0  0  0  0  0  0
    7.8690  -18.6280   20.4795 C   0  0  0  0  0  0  0  0  0  0  0  0
    9.1019  -17.9994   20.4699 C   0  0  0  0  0  0  0  0  0  0  0  0
    9.5466  -17.2944   21.7036 C   0  0  0  0  0  0  0  0  0  0  0  0
    9.0000  -15.8774   21.6401 C   0  0  2  0  0  0  0  0  0  0  0  0
    9.6021  -15.1332   20.5712 N   0  0  0  0  0  0  0  0  0  0  0  0
    9.2465  -15.2240   22.9286 C   0  0  0  0  0  0  0  0  0  0  0  0
   10.3717  -14.6731   23.0847 O   0  0  0  0  0  0  0  0  0  0  0  0
    9.9226  -18.0090   19.3565 C   0  0  0  0  0  0  0  0  0  0  0  0
    9.4510  -18.6795   18.2482 C   0  0  0  0  0  0  0  0  0  0  0  0
    5.3960  -12.3175   25.4588 C   0  0  0  0  0  0  0  0  0  0  0  0
    6.7465  -12.8420   24.8840 C   0  0  0  0  0  0  0  0  0  0  0  0
    7.2376  -13.9621   25.7447 C   0  0  2  0  0  0  0  0  0  0  0  0
    7.3702  -13.4774   27.1774 C   0  0  0  0  0  0  0  0  0  0  0  0
    8.4806  -14.5815   25.2264 C   0  0  2  0  0  0  0  0  0  0  0  0
    8.2611  -15.2177   23.9424 N   0  0  0  0  0  0  0  0  0  0  0  0
    9.1860  -15.4591   26.1547 C   0  0  0  0  0  0  0  0  0  0  0  0
    9.0642  -16.7372   25.9531 O   0  0  0  0  0  0  0  0  0  0  0  0
    9.9936  -15.1256   27.2564 N   0  0  0  0  0  0  0  0  0  0  0  0
   10.1335  -13.8362   27.8841 C   0  0  0  0  0  0  0  0  0  0  0  0
   10.9859  -14.0714   29.1283 C   0  0  0  0  0  0  0  0  0  0  0  0
   11.8638  -15.2033   28.6327 C   0  0  0  0  0  0  0  0  0  0  0  0
   10.8563  -16.0803   27.9649 C   0  0  1  0  0  0  0  0  0  0  0  0
   10.0740  -16.9047   28.9080 C   0  0  0  0  0  0  0  0  0  0  0  0
   10.5717  -18.0038   29.5914 O   0  0  0  0  0  0  0  0  0  0  0  0
    8.8729  -16.5993   29.1140 O   0  0  0  0  0  0  0  0  0  0  0  0
  1  2  1  0
  2 12  2  0
  3  4  2  0
  3  2  1  0
  4  5  1  0
  5 11  2  0
  5  6  1  0
  7  6  1  0
  7  8  1  6
  9  7  1  0
  9 10  2  0
 12 11  1  0
 14 15  1  0
 14 13  1  0
 15 17  1  0
 15 16  1  1
 17 18  1  6
 17 19  1  0
 18  9  1  0
 19 21  1  0
 20 19  2  0
 21 25  1  0
 21 22  1  0
 23 22  1  0
 24 25  1  0
 24 23  1  0
 26 27  1  0
 25 26  1  1
 28 26  2  0
M  END
$$$$
