YIP.pdb
     RDKit          3D

 28 29  0  0  1  0  0  0  0  0999 V2000
   10.7760  -20.8141   17.2921 O   0  0  0  0  0  0  0  0  0  0  0  0
   10.5347  -20.0979   18.4747 C   0  0  0  0  0  0  0  0  0  0  0  0
   11.5667  -19.6010   19.2455 C   0  0  0  0  0  0  0  0  0  0  0  0
   11.3262  -18.9056   20.3941 C   0  0  0  0  0  0  0  0  0  0  0  0
   10.0160  -18.6977   20.7884 C   0  0  0  0  0  0  0  0  0  0  0  0
    9.7669  -17.9370   22.0438 C   0  0  0  0  0  0  0  0  0  0  0  0
    9.3264  -16.5371   21.6479 C   0  0  2  0  0  0  0  0  0  0  0  0
   10.0950  -16.0413   20.5422 N   0  0  0  0  0  0  0  0  0  0  0  0
    9.4666  -15.6572   22.8115 C   0  0  0  0  0  0  0  0  0  0  0  0
   10.5585  -15.0344   22.9297 O   0  0  0  0  0  0  0  0  0  0  0  0
    8.9440  -19.1729   20.0548 C   0  0  0  0  0  0  0  0  0  0  0  0
    9.2444  -19.8687   18.9033 C   0  0  0  0  0  0  0  0  0  0  0  0
    6.0203  -12.2362   26.4909 C   0  0  0  0  0  0  0  0  0  0  0  0
    7.3818  -12.9750   26.3188 C   0  0  0  0  0  0  0  0  0  0  0  0
    7.2631  -13.9555   25.1958 C   0  0  2  0  0  0  0  0  0  0  0  0
    6.1081  -14.9015   25.4713 C   0  0  0  0  0  0  0  0  0  0  0  0
    8.5352  -14.6626   24.9145 C   0  0  2  0  0  0  0  0  0  0  0  0
    8.4195  -15.5206   23.7516 N   0  0  0  0  0  0  0  0  0  0  0  0
    9.1365  -15.3595   26.0469 C   0  0  0  0  0  0  0  0  0  0  0  0
    9.1648  -16.6573   25.9826 O   0  0  0  0  0  0  0  0  0  0  0  0
    9.7011  -14.8300   27.2207 N   0  0  0  0  0  0  0  0  0  0  0  0
    9.4909  -13.5199   27.7826 C   0  0  0  0  0  0  0  0  0  0  0  0
   10.1940  -13.5324   29.1373 C   0  0  0  0  0  0  0  0  0  0  0  0
   11.3414  -14.4729   28.8270 C   0  0  0  0  0  0  0  0  0  0  0  0
   10.6327  -15.5612   28.0898 C   0  0  1  0  0  0  0  0  0  0  0  0
    9.9104  -16.4990   28.9729 C   0  0  0  0  0  0  0  0  0  0  0  0
   10.5207  -17.4433   29.7843 O   0  0  0  0  0  0  0  0  0  0  0  0
    8.6553  -16.4475   29.0000 O   0  0  0  0  0  0  0  0  0  0  0  0
  1  2  1  0
  2 12  2  0
  3  4  2  0
  3  2  1  0
  4  5  1  0
  5 11  2  0
  5  6  1  0
  7  6  1  0
  7  8  1  6
  9  7  1  0
  9 10  2  0
 12 11  1  0
 14 15  1  0
 14 13  1  0
 15 17  1  0
 15 16  1  1
 17 18  1  6
 17 19  1  0
 18  9  1  0
 19 21  1  0
 20 19  2  0
 21 25  1  0
 21 22  1  0
 23 22  1  0
 24 25  1  0
 24 23  1  0
 26 27  1  0
 25 26  1  1
 28 26  2  0
M  END
$$$$
