YIP.pdb
     RDKit          3D

 28 29  0  0  1  0  0  0  0  0999 V2000
   10.5648  -18.2756   29.4484 O   0  0  0  0  0  0  0  0  0  0  0  0
    9.7253  -18.6517   28.3884 C   0  0  0  0  0  0  0  0  0  0  0  0
   10.0437  -18.3689   27.0752 C   0  0  0  0  0  0  0  0  0  0  0  0
    9.2239  -18.7369   26.0488 C   0  0  0  0  0  0  0  0  0  0  0  0
    8.0491  -19.4082   26.3389 C   0  0  0  0  0  0  0  0  0  0  0  0
    7.1631  -19.8045   25.2098 C   0  0  0  0  0  0  0  0  0  0  0  0
    5.8500  -19.0574   25.3779 C   0  0  2  0  0  0  0  0  0  0  0  0
    4.7527  -19.8004   24.8274 N   0  0  0  0  0  0  0  0  0  0  0  0
    5.9696  -17.7509   24.7248 C   0  0  0  0  0  0  0  0  0  0  0  0
    5.6341  -17.6858   23.5094 O   0  0  0  0  0  0  0  0  0  0  0  0
    7.6807  -19.7173   27.6358 C   0  0  0  0  0  0  0  0  0  0  0  0
    8.5457  -19.3221   28.6338 C   0  0  0  0  0  0  0  0  0  0  0  0
    6.4811  -11.7877   26.2300 C   0  0  0  0  0  0  0  0  0  0  0  0
    6.4150  -12.8914   25.1315 C   0  0  0  0  0  0  0  0  0  0  0  0
    6.5992  -14.2285   25.7756 C   0  0  2  0  0  0  0  0  0  0  0  0
    7.8192  -14.1903   26.6786 C   0  0  0  0  0  0  0  0  0  0  0  0
    6.6415  -15.3377   24.7933 C   0  0  2  0  0  0  0  0  0  0  0  0
    6.4405  -16.6223   25.4344 N   0  0  0  0  0  0  0  0  0  0  0  0
    7.7960  -15.3500   23.9008 C   0  0  0  0  0  0  0  0  0  0  0  0
    8.8394  -16.0089   24.3088 O   0  0  0  0  0  0  0  0  0  0  0  0
    7.9546  -14.7453   22.6413 N   0  0  0  0  0  0  0  0  0  0  0  0
    7.1602  -13.6884   22.0685 C   0  0  0  0  0  0  0  0  0  0  0  0
    7.8669  -13.2937   20.7745 C   0  0  0  0  0  0  0  0  0  0  0  0
    8.4446  -14.6362   20.3728 C   0  0  0  0  0  0  0  0  0  0  0  0
    8.9972  -15.1151   21.6749 C   0  0  1  0  0  0  0  0  0  0  0  0
   10.2921  -14.4992   22.0287 C   0  0  0  0  0  0  0  0  0  0  0  0
   11.4975  -14.7920   21.4092 O   0  0  0  0  0  0  0  0  0  0  0  0
   10.3164  -13.6493   22.9537 O   0  0  0  0  0  0  0  0  0  0  0  0
  1  2  1  0
  2 12  2  0
  3  4  2  0
  3  2  1  0
  4  5  1  0
  5 11  2  0
  5  6  1  0
  7  6  1  0
  7  8  1  6
  9  7  1  0
  9 10  2  0
 12 11  1  0
 14 15  1  0
 14 13  1  0
 15 17  1  0
 15 16  1  6
 17 18  1  1
 17 19  1  0
 18  9  1  0
 19 21  1  0
 20 19  2  0
 21 25  1  0
 21 22  1  0
 23 22  1  0
 24 25  1  0
 24 23  1  0
 26 27  1  0
 25 26  1  1
 28 26  2  0
M  END
$$$$
