YIP.pdb
     RDKit          3D

 28 29  0  0  1  0  0  0  0  0999 V2000
   11.3633  -20.1697   30.4282 O   0  0  0  0  0  0  0  0  0  0  0  0
   10.6190  -19.9028   29.2686 C   0  0  0  0  0  0  0  0  0  0  0  0
   10.4851  -18.6219   28.7712 C   0  0  0  0  0  0  0  0  0  0  0  0
    9.7604  -18.3683   27.6436 C   0  0  0  0  0  0  0  0  0  0  0  0
    9.1492  -19.4238   26.9898 C   0  0  0  0  0  0  0  0  0  0  0  0
    8.3613  -19.1339   25.7602 C   0  0  0  0  0  0  0  0  0  0  0  0
    7.0190  -18.5732   26.2014 C   0  0  2  0  0  0  0  0  0  0  0  0
    5.9708  -19.5395   26.0386 N   0  0  0  0  0  0  0  0  0  0  0  0
    6.7371  -17.3669   25.4183 C   0  0  0  0  0  0  0  0  0  0  0  0
    6.0589  -17.5149   24.3637 O   0  0  0  0  0  0  0  0  0  0  0  0
    9.2501  -20.7265   27.4437 C   0  0  0  0  0  0  0  0  0  0  0  0
    9.9942  -20.9256   28.5870 C   0  0  0  0  0  0  0  0  0  0  0  0
    6.7618  -12.1534   27.4585 C   0  0  0  0  0  0  0  0  0  0  0  0
    6.3584  -13.3645   26.5642 C   0  0  0  0  0  0  0  0  0  0  0  0
    7.5011  -13.7018   25.6602 C   0  0  2  0  0  0  0  0  0  0  0  0
    7.7810  -12.5270   24.7401 C   0  0  0  0  0  0  0  0  0  0  0  0
    7.2970  -14.9742   24.9276 C   0  0  2  0  0  0  0  0  0  0  0  0
    7.2086  -16.1010   25.8355 N   0  0  0  0  0  0  0  0  0  0  0  0
    8.2259  -15.2303   23.8317 C   0  0  0  0  0  0  0  0  0  0  0  0
    9.3283  -15.8478   24.1360 O   0  0  0  0  0  0  0  0  0  0  0  0
    8.1074  -14.9041   22.4691 N   0  0  0  0  0  0  0  0  0  0  0  0
    7.1022  -14.0796   21.8478 C   0  0  0  0  0  0  0  0  0  0  0  0
    7.5428  -13.9124   20.3960 C   0  0  0  0  0  0  0  0  0  0  0  0
    8.2228  -15.2487   20.1743 C   0  0  0  0  0  0  0  0  0  0  0  0
    9.0278  -15.3753   21.4257 C   0  0  1  0  0  0  0  0  0  0  0  0
   10.2695  -14.5758   21.4121 C   0  0  0  0  0  0  0  0  0  0  0  0
   11.4256  -14.9304   20.7335 O   0  0  0  0  0  0  0  0  0  0  0  0
   10.2927  -13.4974   22.0563 O   0  0  0  0  0  0  0  0  0  0  0  0
  1  2  1  0
  2 12  2  0
  3  4  2  0
  3  2  1  0
  4  5  1  0
  5 11  2  0
  5  6  1  0
  7  6  1  0
  7  8  1  6
  9  7  1  0
  9 10  2  0
 12 11  1  0
 14 15  1  0
 14 13  1  0
 15 17  1  0
 15 16  1  6
 17 18  1  1
 17 19  1  0
 18  9  1  0
 19 21  1  0
 20 19  2  0
 21 25  1  0
 21 22  1  0
 23 22  1  0
 24 25  1  0
 24 23  1  0
 26 27  1  0
 25 26  1  6
 28 26  2  0
M  END
$$$$
