YIP.pdb
     RDKit          3D

 28 29  0  0  1  0  0  0  0  0999 V2000
   12.0393  -20.6103   31.0924 O   0  0  0  0  0  0  0  0  0  0  0  0
   11.3485  -20.0788   29.9923 C   0  0  0  0  0  0  0  0  0  0  0  0
   11.1295  -18.7221   29.8597 C   0  0  0  0  0  0  0  0  0  0  0  0
   10.4574  -18.2110   28.7883 C   0  0  0  0  0  0  0  0  0  0  0  0
    9.9880  -19.0783   27.8173 C   0  0  0  0  0  0  0  0  0  0  0  0
    9.2562  -18.5079   26.6528 C   0  0  0  0  0  0  0  0  0  0  0  0
    7.8780  -18.0919   27.1409 C   0  0  2  0  0  0  0  0  0  0  0  0
    7.0166  -19.2282   27.3020 N   0  0  0  0  0  0  0  0  0  0  0  0
    7.3092  -17.1435   26.1792 C   0  0  0  0  0  0  0  0  0  0  0  0
    6.5404  -17.6157   25.2961 O   0  0  0  0  0  0  0  0  0  0  0  0
   10.1791  -20.4458   27.8994 C   0  0  0  0  0  0  0  0  0  0  0  0
   10.8644  -20.9078   29.0027 C   0  0  0  0  0  0  0  0  0  0  0  0
    6.8783  -11.8435   27.3612 C   0  0  0  0  0  0  0  0  0  0  0  0
    6.4190  -13.1146   26.5849 C   0  0  0  0  0  0  0  0  0  0  0  0
    7.4471  -13.4498   25.5518 C   0  0  2  0  0  0  0  0  0  0  0  0
    7.3288  -12.4811   24.3886 C   0  0  0  0  0  0  0  0  0  0  0  0
    7.3942  -14.8697   25.1293 C   0  0  2  0  0  0  0  0  0  0  0  0
    7.6150  -15.7648   26.2482 N   0  0  0  0  0  0  0  0  0  0  0  0
    8.2231  -15.2203   23.9806 C   0  0  0  0  0  0  0  0  0  0  0  0
    9.4318  -15.6234   24.2371 O   0  0  0  0  0  0  0  0  0  0  0  0
    7.9068  -15.1876   22.6109 N   0  0  0  0  0  0  0  0  0  0  0  0
    6.7044  -14.6812   21.9994 C   0  0  0  0  0  0  0  0  0  0  0  0
    6.9553  -14.7243   20.4944 C   0  0  0  0  0  0  0  0  0  0  0  0
    7.8531  -15.9429   20.4145 C   0  0  0  0  0  0  0  0  0  0  0  0
    8.7900  -15.6874   21.5489 C   0  0  1  0  0  0  0  0  0  0  0  0
    9.8473  -14.7063   21.2317 C   0  0  0  0  0  0  0  0  0  0  0  0
   10.9727  -14.9817   20.4699 O   0  0  0  0  0  0  0  0  0  0  0  0
    9.7306  -13.5373   21.6771 O   0  0  0  0  0  0  0  0  0  0  0  0
  1  2  1  0
  2 12  2  0
  3  4  2  0
  3  2  1  0
  4  5  1  0
  5 11  2  0
  5  6  1  0
  7  6  1  0
  7  8  1  6
  9  7  1  0
  9 10  2  0
 12 11  1  0
 14 15  1  0
 14 13  1  0
 15 17  1  0
 15 16  1  6
 17 18  1  1
 17 19  1  0
 18  9  1  0
 19 21  1  0
 20 19  2  0
 21 25  1  0
 21 22  1  0
 23 22  1  0
 24 25  1  0
 24 23  1  0
 26 27  1  0
 25 26  1  6
 28 26  2  0
M  END
$$$$
