WPP.pdb
     RDKit          3D

 29 32  0  0  1  0  0  0  0  0999 V2000
   25.1543  -22.2211  -11.9265 N   0  0  0  0  0  0  0  0  0  0  0  0
   26.1065  -21.1397  -11.6288 C   0  0  1  0  0  0  0  0  0  0  0  0
   25.3717  -19.8189  -11.5401 C   0  0  0  0  0  0  0  0  0  0  0  0
   24.8811  -19.3707  -12.8608 C   0  0  0  0  0  0  0  0  0  0  0  0
   23.5853  -19.3184  -13.3097 C   0  0  0  0  0  0  0  0  0  0  0  0
   23.6547  -18.8386  -14.5765 N   0  0  0  0  0  0  0  0  0  0  0  0
   24.9380  -18.5965  -14.9170 C   0  0  0  0  0  0  0  0  0  0  0  0
   25.5195  -18.1120  -16.0746 C   0  0  0  0  0  0  0  0  0  0  0  0
   26.8722  -17.9519  -16.1805 C   0  0  0  0  0  0  0  0  0  0  0  0
   27.6883  -18.2825  -15.1024 C   0  0  0  0  0  0  0  0  0  0  0  0
   27.1138  -18.7671  -13.9426 C   0  0  0  0  0  0  0  0  0  0  0  0
   25.7462  -18.9238  -13.8489 C   0  0  0  0  0  0  0  0  0  0  0  0
   26.6845  -21.4574  -10.2893 C   0  0  0  0  0  0  0  0  0  0  0  0
   25.9245  -21.8941   -9.3705 O   0  0  0  0  0  0  0  0  0  0  0  0
   28.0681  -21.2659  -10.0732 N   0  0  0  0  0  0  0  0  0  0  0  0
   29.0447  -20.8354  -11.0423 C   0  0  0  0  0  0  0  0  0  0  0  0
   30.3050  -21.5800  -10.5631 C   0  0  0  0  0  0  0  0  0  0  0  0
   30.2148  -21.3459   -9.0718 C   0  0  0  0  0  0  0  0  0  0  0  0
   28.7321  -21.4872   -8.8033 C   0  0  1  0  0  0  0  0  0  0  0  0
   28.2599  -20.5225   -7.7918 C   0  0  0  0  0  0  0  0  0  0  0  0
   27.4889  -19.5893   -8.1849 O   0  0  0  0  0  0  0  0  0  0  0  0
   28.6221  -20.5879   -6.4223 N   0  0  0  0  0  0  0  0  0  0  0  0
   29.4770  -21.5665   -5.7953 C   0  0  0  0  0  0  0  0  0  0  0  0
   28.8670  -21.7481   -4.4376 C   0  0  0  0  0  0  0  0  0  0  0  0
   27.8273  -20.6504   -4.2652 C   0  0  0  0  0  0  0  0  0  0  0  0
   28.2086  -19.6844   -5.3742 C   0  0  1  0  0  0  0  0  0  0  0  0
   29.2377  -18.7317   -4.9818 C   0  0  0  0  0  0  0  0  0  0  0  0
   30.3858  -18.8068   -5.4774 O   0  0  0  0  0  0  0  0  0  0  0  0
   28.9619  -17.7376   -4.0616 O   0  0  0  0  0  0  0  0  0  0  0  0
  2  1  1  1
  2 13  1  0
  3  4  1  0
  3  2  1  0
  4 12  1  0
  5  6  1  0
  5  4  2  0
  6  7  1  0
  7 12  2  0
  7  8  1  0
  8  9  2  0
  9 10  1  0
 11 10  2  0
 12 11  1  0
 13 14  2  0
 13 15  1  0
 15 16  1  0
 16 17  1  0
 18 17  1  0
 19 20  1  1
 19 15  1  0
 19 18  1  0
 20 21  2  0
 22 20  1  0
 23 24  1  0
 23 22  1  0
 25 26  1  0
 25 24  1  0
 26 22  1  0
 26 27  1  1
 27 28  2  0
 27 29  1  0
M  END
$$$$
