WPP.pdb
     RDKit          3D

 29 32  0  0  1  0  0  0  0  0999 V2000
   25.7016  -22.2092  -12.1296 N   0  0  0  0  0  0  0  0  0  0  0  0
   25.7528  -20.9931  -11.3030 C   0  0  1  0  0  0  0  0  0  0  0  0
   24.3496  -20.5762  -10.9163 C   0  0  0  0  0  0  0  0  0  0  0  0
   23.6711  -19.8444  -12.0073 C   0  0  0  0  0  0  0  0  0  0  0  0
   24.1132  -19.6350  -13.2894 C   0  0  0  0  0  0  0  0  0  0  0  0
   23.1392  -18.9156  -13.9007 N   0  0  0  0  0  0  0  0  0  0  0  0
   22.1232  -18.6788  -13.0445 C   0  0  0  0  0  0  0  0  0  0  0  0
   20.9244  -18.0034  -13.1849 C   0  0  0  0  0  0  0  0  0  0  0  0
   20.0401  -17.8967  -12.1490 C   0  0  0  0  0  0  0  0  0  0  0  0
   20.3475  -18.4786  -10.9224 C   0  0  0  0  0  0  0  0  0  0  0  0
   21.5435  -19.1551  -10.7752 C   0  0  0  0  0  0  0  0  0  0  0  0
   22.4277  -19.2555  -11.8297 C   0  0  0  0  0  0  0  0  0  0  0  0
   26.4995  -21.3677  -10.0655 C   0  0  0  0  0  0  0  0  0  0  0  0
   25.8760  -21.9119   -9.1024 O   0  0  0  0  0  0  0  0  0  0  0  0
   27.8871  -21.1091   -9.9936 N   0  0  0  0  0  0  0  0  0  0  0  0
   28.7461  -20.6852  -11.0709 C   0  0  0  0  0  0  0  0  0  0  0  0
   30.0792  -21.3533  -10.6846 C   0  0  0  0  0  0  0  0  0  0  0  0
   30.1208  -21.0523   -9.2032 C   0  0  0  0  0  0  0  0  0  0  0  0
   28.6785  -21.2419   -8.7859 C   0  0  1  0  0  0  0  0  0  0  0  0
   28.2611  -20.2504   -7.7761 C   0  0  0  0  0  0  0  0  0  0  0  0
   27.4146  -19.3695   -8.1327 O   0  0  0  0  0  0  0  0  0  0  0  0
   28.7545  -20.2357   -6.4467 N   0  0  0  0  0  0  0  0  0  0  0  0
   29.7359  -21.1248   -5.8740 C   0  0  0  0  0  0  0  0  0  0  0  0
   29.2718  -21.2963   -4.4585 C   0  0  0  0  0  0  0  0  0  0  0  0
   28.1732  -20.2703   -4.2219 C   0  0  0  0  0  0  0  0  0  0  0  0
   28.3745  -19.3237   -5.3933 C   0  0  1  0  0  0  0  0  0  0  0  0
   29.3611  -18.2847   -5.1331 C   0  0  0  0  0  0  0  0  0  0  0  0
   30.4751  -18.3181   -5.7055 O   0  0  0  0  0  0  0  0  0  0  0  0
   29.0824  -17.2539   -4.2553 O   0  0  0  0  0  0  0  0  0  0  0  0
  2  1  1  6
  2 13  1  0
  3  4  1  0
  3  2  1  0
  4 12  1  0
  5  6  1  0
  5  4  2  0
  6  7  1  0
  7 12  2  0
  7  8  1  0
  8  9  2  0
  9 10  1  0
 11 10  2  0
 12 11  1  0
 13 14  2  0
 13 15  1  0
 15 16  1  0
 16 17  1  0
 18 17  1  0
 19 20  1  1
 19 15  1  0
 19 18  1  0
 20 21  2  0
 22 20  1  0
 23 24  1  0
 23 22  1  0
 25 26  1  0
 25 24  1  0
 26 22  1  0
 26 27  1  1
 27 28  2  0
 27 29  1  0
M  END
$$$$
