WPP.pdb
     RDKit          3D

 29 32  0  0  1  0  0  0  0  0999 V2000
   25.1824  -22.3201  -12.1702 N   0  0  0  0  0  0  0  0  0  0  0  0
   26.0483  -21.1910  -11.7960 C   0  0  1  0  0  0  0  0  0  0  0  0
   25.2126  -19.9419  -11.6135 C   0  0  0  0  0  0  0  0  0  0  0  0
   24.7353  -19.4038  -12.9053 C   0  0  0  0  0  0  0  0  0  0  0  0
   23.4851  -19.5171  -13.4598 C   0  0  0  0  0  0  0  0  0  0  0  0
   23.5472  -18.8573  -14.6433 N   0  0  0  0  0  0  0  0  0  0  0  0
   24.7824  -18.3473  -14.8319 C   0  0  0  0  0  0  0  0  0  0  0  0
   25.3384  -17.6083  -15.8604 C   0  0  0  0  0  0  0  0  0  0  0  0
   26.6414  -17.1992  -15.8215 C   0  0  0  0  0  0  0  0  0  0  0  0
   27.4317  -17.5310  -14.7247 C   0  0  0  0  0  0  0  0  0  0  0  0
   26.8825  -18.2690  -13.6935 C   0  0  0  0  0  0  0  0  0  0  0  0
   25.5650  -18.6757  -13.7453 C   0  0  0  0  0  0  0  0  0  0  0  0
   26.6567  -21.5566  -10.4824 C   0  0  0  0  0  0  0  0  0  0  0  0
   25.9389  -22.1181   -9.5981 O   0  0  0  0  0  0  0  0  0  0  0  0
   28.0215  -21.2703  -10.2520 N   0  0  0  0  0  0  0  0  0  0  0  0
   28.9811  -20.7928  -11.2160 C   0  0  0  0  0  0  0  0  0  0  0  0
   30.2809  -21.4441  -10.7071 C   0  0  0  0  0  0  0  0  0  0  0  0
   30.1544  -21.1908   -9.2216 C   0  0  0  0  0  0  0  0  0  0  0  0
   28.6807  -21.4253   -8.9698 C   0  0  1  0  0  0  0  0  0  0  0  0
   28.1316  -20.4767   -7.9821 C   0  0  0  0  0  0  0  0  0  0  0  0
   27.2922  -19.6154   -8.3984 O   0  0  0  0  0  0  0  0  0  0  0  0
   28.4929  -20.4820   -6.6108 N   0  0  0  0  0  0  0  0  0  0  0  0
   29.3641  -21.4199   -5.9452 C   0  0  0  0  0  0  0  0  0  0  0  0
   28.7554  -21.5589   -4.5819 C   0  0  0  0  0  0  0  0  0  0  0  0
   27.6962  -20.4739   -4.4535 C   0  0  0  0  0  0  0  0  0  0  0  0
   28.0620  -19.5454   -5.5993 C   0  0  1  0  0  0  0  0  0  0  0  0
   29.0734  -18.5600   -5.2437 C   0  0  0  0  0  0  0  0  0  0  0  0
   28.7686  -17.5747   -4.5325 O   0  0  0  0  0  0  0  0  0  0  0  0
   30.3762  -18.6986   -5.6847 O   0  0  0  0  0  0  0  0  0  0  0  0
  2  1  1  1
  2 13  1  0
  3  4  1  0
  3  2  1  0
  4 12  1  0
  5  6  1  0
  5  4  2  0
  6  7  1  0
  7 12  2  0
  7  8  1  0
  8  9  2  0
  9 10  1  0
 11 10  2  0
 12 11  1  0
 13 14  2  0
 13 15  1  0
 15 16  1  0
 16 17  1  0
 18 17  1  0
 19 20  1  1
 19 15  1  0
 19 18  1  0
 20 21  2  0
 22 20  1  0
 23 24  1  0
 23 22  1  0
 25 26  1  0
 25 24  1  0
 26 22  1  0
 26 27  1  1
 27 28  2  0
 27 29  1  0
M  END
$$$$
