WPP.pdb
     RDKit          3D

 29 32  0  0  1  0  0  0  0  0999 V2000
   18.7560  -25.2843    3.5981 N   0  0  0  0  0  0  0  0  0  0  0  0
   18.2213  -24.2862    4.5375 C   0  0  1  0  0  0  0  0  0  0  0  0
   17.0643  -24.8796    5.3131 C   0  0  0  0  0  0  0  0  0  0  0  0
   15.7925  -24.7855    4.5649 C   0  0  0  0  0  0  0  0  0  0  0  0
   15.6144  -24.5713    3.2212 C   0  0  0  0  0  0  0  0  0  0  0  0
   14.2723  -24.5700    3.0244 N   0  0  0  0  0  0  0  0  0  0  0  0
   13.6266  -24.7746    4.1917 C   0  0  0  0  0  0  0  0  0  0  0  0
   12.2836  -24.8572    4.5118 C   0  0  0  0  0  0  0  0  0  0  0  0
   11.8681  -25.0750    5.7950 C   0  0  0  0  0  0  0  0  0  0  0  0
   12.8133  -25.2174    6.8069 C   0  0  0  0  0  0  0  0  0  0  0  0
   14.1569  -25.1362    6.4940 C   0  0  0  0  0  0  0  0  0  0  0  0
   14.5630  -24.9160    5.1939 C   0  0  0  0  0  0  0  0  0  0  0  0
   19.3303  -23.9816    5.4897 C   0  0  0  0  0  0  0  0  0  0  0  0
   20.0271  -24.9335    5.9596 O   0  0  0  0  0  0  0  0  0  0  0  0
   19.5816  -22.6374    5.8468 N   0  0  0  0  0  0  0  0  0  0  0  0
   18.9403  -21.4637    5.3087 C   0  0  0  0  0  0  0  0  0  0  0  0
   20.0780  -20.4280    5.3833 C   0  0  0  0  0  0  0  0  0  0  0  0
   20.6254  -20.7168    6.7631 C   0  0  0  0  0  0  0  0  0  0  0  0
   20.5584  -22.2269    6.8368 C   0  0  1  0  0  0  0  0  0  0  0  0
   20.1701  -22.6974    8.1802 C   0  0  0  0  0  0  0  0  0  0  0  0
   18.9887  -23.1477    8.3261 O   0  0  0  0  0  0  0  0  0  0  0  0
   21.0415  -22.6697    9.2986 N   0  0  0  0  0  0  0  0  0  0  0  0
   22.4197  -22.2431    9.3162 C   0  0  0  0  0  0  0  0  0  0  0  0
   23.0589  -23.1592   10.3164 C   0  0  0  0  0  0  0  0  0  0  0  0
   21.9347  -23.9045   11.0209 C   0  0  0  0  0  0  0  0  0  0  0  0
   20.7247  -23.0628   10.6517 C   0  0  1  0  0  0  0  0  0  0  0  0
   20.5060  -21.9397   11.5525 C   0  0  0  0  0  0  0  0  0  0  0  0
   20.8209  -20.7798   11.1991 O   0  0  0  0  0  0  0  0  0  0  0  0
   19.9511  -22.1386   12.8029 O   0  0  0  0  0  0  0  0  0  0  0  0
  2  1  1  6
  2 13  1  0
  3  4  1  0
  3  2  1  0
  4 12  1  0
  5  6  1  0
  5  4  2  0
  6  7  1  0
  7 12  2  0
  7  8  1  0
  8  9  2  0
  9 10  1  0
 11 10  2  0
 12 11  1  0
 13 14  2  0
 13 15  1  0
 15 16  1  0
 16 17  1  0
 18 17  1  0
 19 20  1  1
 19 15  1  0
 19 18  1  0
 20 21  2  0
 22 20  1  0
 23 24  1  0
 23 22  1  0
 25 26  1  0
 25 24  1  0
 26 22  1  0
 26 27  1  1
 27 28  2  0
 27 29  1  0
M  END
$$$$
