WPP.pdb
     RDKit          3D

 29 32  0  0  1  0  0  0  0  0999 V2000
   21.6637  -21.7290  -12.6088 N   0  0  0  0  0  0  0  0  0  0  0  0
   22.1170  -20.7519  -13.6111 C   0  0  1  0  0  0  0  0  0  0  0  0
   22.7718  -19.5745  -12.9202 C   0  0  0  0  0  0  0  0  0  0  0  0
   23.2694  -19.9313  -11.5745 C   0  0  0  0  0  0  0  0  0  0  0  0
   22.5588  -20.0146  -10.4035 C   0  0  0  0  0  0  0  0  0  0  0  0
   23.4570  -20.3771   -9.4539 N   0  0  0  0  0  0  0  0  0  0  0  0
   24.6839  -20.5181   -9.9980 C   0  0  0  0  0  0  0  0  0  0  0  0
   25.9084  -20.8669   -9.4577 C   0  0  0  0  0  0  0  0  0  0  0  0
   27.0332  -20.9431  -10.2297 C   0  0  0  0  0  0  0  0  0  0  0  0
   26.9506  -20.6642  -11.5910 C   0  0  0  0  0  0  0  0  0  0  0  0
   25.7302  -20.3152  -12.1373 C   0  0  0  0  0  0  0  0  0  0  0  0
   24.6020  -20.2421  -11.3464 C   0  0  0  0  0  0  0  0  0  0  0  0
   23.1438  -21.4549  -14.4362 C   0  0  0  0  0  0  0  0  0  0  0  0
   24.0455  -22.1380  -13.8595 O   0  0  0  0  0  0  0  0  0  0  0  0
   23.0885  -21.3454  -15.8443 N   0  0  0  0  0  0  0  0  0  0  0  0
   22.0588  -20.7046  -16.6235 C   0  0  0  0  0  0  0  0  0  0  0  0
   22.0572  -21.5651  -17.9011 C   0  0  0  0  0  0  0  0  0  0  0  0
   23.5435  -21.7056  -18.1423 C   0  0  0  0  0  0  0  0  0  0  0  0
   24.0908  -21.8847  -16.7428 C   0  0  1  0  0  0  0  0  0  0  0  0
   25.3811  -21.1925  -16.5619 C   0  0  0  0  0  0  0  0  0  0  0  0
   25.3669  -20.0712  -15.9600 O   0  0  0  0  0  0  0  0  0  0  0  0
   26.6171  -21.7133  -17.0224 N   0  0  0  0  0  0  0  0  0  0  0  0
   26.8445  -23.0010  -17.6321 C   0  0  0  0  0  0  0  0  0  0  0  0
   28.2016  -23.3936  -17.1295 C   0  0  0  0  0  0  0  0  0  0  0  0
   28.7983  -22.1682  -16.4528 C   0  0  0  0  0  0  0  0  0  0  0  0
   27.9031  -21.0575  -16.9759 C   0  0  1  0  0  0  0  0  0  0  0  0
   28.3356  -20.5235  -18.2598 C   0  0  0  0  0  0  0  0  0  0  0  0
   27.8280  -20.9518  -19.3220 O   0  0  0  0  0  0  0  0  0  0  0  0
   29.3074  -19.5423  -18.3221 O   0  0  0  0  0  0  0  0  0  0  0  0
  2  1  1  1
  2 13  1  0
  3  4  1  0
  3  2  1  0
  4 12  1  0
  5  6  1  0
  5  4  2  0
  6  7  1  0
  7 12  2  0
  7  8  1  0
  8  9  2  0
  9 10  1  0
 11 10  2  0
 12 11  1  0
 13 14  2  0
 13 15  1  0
 15 16  1  0
 16 17  1  0
 18 17  1  0
 19 20  1  6
 19 15  1  0
 19 18  1  0
 20 21  2  0
 22 20  1  0
 23 24  1  0
 23 22  1  0
 25 26  1  0
 25 24  1  0
 26 22  1  0
 26 27  1  6
 27 28  2  0
 27 29  1  0
M  END
$$$$
