WPP.pdb
     RDKit          3D

 29 32  0  0  1  0  0  0  0  0999 V2000
   22.5285  -19.6737  -17.9133 N   0  0  0  0  0  0  0  0  0  0  0  0
   22.9228  -18.7195  -16.8650 C   0  0  1  0  0  0  0  0  0  0  0  0
   21.7805  -18.5273  -15.8901 C   0  0  0  0  0  0  0  0  0  0  0  0
   20.6525  -17.7913  -16.5000 C   0  0  0  0  0  0  0  0  0  0  0  0
   19.5317  -18.3063  -17.1015 C   0  0  0  0  0  0  0  0  0  0  0  0
   18.8013  -17.2337  -17.4964 N   0  0  0  0  0  0  0  0  0  0  0  0
   19.4305  -16.0881  -17.1603 C   0  0  0  0  0  0  0  0  0  0  0  0
   19.1014  -14.7568  -17.3403 C   0  0  0  0  0  0  0  0  0  0  0  0
   19.9198  -13.7541  -16.9026 C   0  0  0  0  0  0  0  0  0  0  0  0
   21.1129  -14.0738  -16.2609 C   0  0  0  0  0  0  0  0  0  0  0  0
   21.4478  -15.4020  -16.0777 C   0  0  0  0  0  0  0  0  0  0  0  0
   20.6121  -16.4049  -16.5244 C   0  0  0  0  0  0  0  0  0  0  0  0
   24.0675  -19.3505  -16.1435 C   0  0  0  0  0  0  0  0  0  0  0  0
   24.1592  -20.6165  -16.1070 O   0  0  0  0  0  0  0  0  0  0  0  0
   25.0267  -18.5231  -15.5166 N   0  0  0  0  0  0  0  0  0  0  0  0
   25.1935  -17.1022  -15.6944 C   0  0  0  0  0  0  0  0  0  0  0  0
   26.7148  -16.9442  -15.5111 C   0  0  0  0  0  0  0  0  0  0  0  0
   26.9418  -17.8282  -14.3055 C   0  0  0  0  0  0  0  0  0  0  0  0
   26.0213  -18.9989  -14.5747 C   0  0  1  0  0  0  0  0  0  0  0  0
   25.3790  -19.4913  -13.3411 C   0  0  0  0  0  0  0  0  0  0  0  0
   24.1461  -19.2238  -13.1737 O   0  0  0  0  0  0  0  0  0  0  0  0
   26.0646  -20.2374  -12.3490 N   0  0  0  0  0  0  0  0  0  0  0  0
   27.4658  -20.5809  -12.3334 C   0  0  0  0  0  0  0  0  0  0  0  0
   27.4868  -21.9444  -11.7098 C   0  0  0  0  0  0  0  0  0  0  0  0
   26.0935  -22.2029  -11.1554 C   0  0  0  0  0  0  0  0  0  0  0  0
   25.4977  -20.8052  -11.1481 C   0  0  1  0  0  0  0  0  0  0  0  0
   25.8071  -20.0519   -9.9408 C   0  0  0  0  0  0  0  0  0  0  0  0
   26.7430  -19.2191   -9.9420 O   0  0  0  0  0  0  0  0  0  0  0  0
   25.0756  -20.2457   -8.7840 O   0  0  0  0  0  0  0  0  0  0  0  0
  2  1  1  6
  2 13  1  0
  3  4  1  0
  3  2  1  0
  4 12  1  0
  5  6  1  0
  5  4  2  0
  6  7  1  0
  7 12  2  0
  7  8  1  0
  8  9  2  0
  9 10  1  0
 11 10  2  0
 12 11  1  0
 13 14  2  0
 13 15  1  0
 15 16  1  0
 16 17  1  0
 18 17  1  0
 19 20  1  1
 19 15  1  0
 19 18  1  0
 20 21  2  0
 22 20  1  0
 23 24  1  0
 23 22  1  0
 25 26  1  0
 25 24  1  0
 26 22  1  0
 26 27  1  1
 27 28  2  0
 27 29  1  0
M  END
$$$$
