KIC.pdb
     RDKit          3D

 24 23  0  0  1  0  0  0  0  0999 V2000
   23.1185  -14.4149  -18.1861 N   0  0  0  0  0  0  0  0  0  0  0  0
   21.9013  -13.9519  -17.6027 C   0  0  1  0  0  0  0  0  0  0  0  0
   21.0827  -14.9920  -16.9280 C   0  0  0  0  0  0  0  0  0  0  0  0
   20.7962  -16.1945  -17.7382 C   0  0  0  0  0  0  0  0  0  0  0  0
   19.9634  -17.2536  -17.1096 C   0  0  0  0  0  0  0  0  0  0  0  0
   19.6929  -18.4063  -18.0893 C   0  0  0  0  0  0  0  0  0  0  0  0
   18.8838  -19.4178  -17.4474 N   0  0  0  0  0  0  0  0  0  0  0  0
   22.1929  -12.7871  -16.7247 C   0  0  0  0  0  0  0  0  0  0  0  0
   21.4321  -12.4884  -15.7555 O   0  0  0  0  0  0  0  0  0  0  0  0
   27.3353  -11.7536  -15.3266 C   0  0  0  0  0  0  0  0  0  0  0  0
   25.8347  -11.8760  -15.3917 C   0  0  0  0  0  0  0  0  0  0  0  0
   25.1410  -10.6717  -15.9244 C   0  0  2  0  0  0  0  0  0  0  0  0
   25.4647   -9.4468  -15.0595 C   0  0  0  0  0  0  0  0  0  0  0  0
   23.6725  -10.8073  -16.1488 C   0  0  2  0  0  0  0  0  0  0  0  0
   23.3303  -11.9678  -16.9371 N   0  0  0  0  0  0  0  0  0  0  0  0
   22.9900   -9.5688  -16.5438 C   0  0  0  0  0  0  0  0  0  0  0  0
   23.2428   -8.9213  -17.5859 O   0  0  0  0  0  0  0  0  0  0  0  0
   21.9668   -9.0413  -15.7149 N   0  0  0  0  0  0  0  0  0  0  0  0
   21.2654   -7.8604  -16.0332 C   0  0  1  0  0  0  0  0  0  0  0  0
   19.7964   -7.8419  -15.9335 C   0  0  0  0  0  0  0  0  0  0  0  0
   18.9259   -9.2628  -16.5676 S   0  0  0  0  0  0  0  0  0  0  0  0
   21.9219   -6.6764  -15.3547 C   0  0  0  0  0  0  0  0  0  0  0  0
   22.9474   -6.8373  -14.4431 O   0  0  0  0  0  0  0  0  0  0  0  0
   21.5391   -5.5153  -15.6139 O   0  0  0  0  0  0  0  0  0  0  0  0
  2  1  1  1
  2  3  1  0
  4  3  1  0
  4  5  1  0
  5  6  1  0
  6  7  1  0
  8  9  2  0
  8  2  1  0
 10 11  1  0
 11 12  1  0
 12 14  1  0
 12 13  1  1
 14 15  1  6
 15  8  1  0
 16 18  1  0
 16 14  1  0
 17 16  2  0
 19 22  1  0
 19 18  1  0
 19 20  1  1
 20 21  1  0
 22 23  1  0
 24 22  2  0
M  END
$$$$
