KIC.pdb
     RDKit          3D

 24 23  0  0  1  0  0  0  0  0999 V2000
   28.7211  -22.0867  -16.5656 N   0  0  0  0  0  0  0  0  0  0  0  0
   28.0842  -20.9333  -16.0174 C   0  0  1  0  0  0  0  0  0  0  0  0
   27.4703  -20.0132  -17.0091 C   0  0  0  0  0  0  0  0  0  0  0  0
   28.4147  -19.3829  -17.9554 C   0  0  0  0  0  0  0  0  0  0  0  0
   28.1649  -19.5947  -19.4056 C   0  0  0  0  0  0  0  0  0  0  0  0
   29.1798  -18.8250  -20.2654 C   0  0  0  0  0  0  0  0  0  0  0  0
   28.9649  -19.1214  -21.6638 N   0  0  0  0  0  0  0  0  0  0  0  0
   27.1312  -21.3593  -14.9577 C   0  0  0  0  0  0  0  0  0  0  0  0
   26.3927  -22.3786  -15.1097 O   0  0  0  0  0  0  0  0  0  0  0  0
   28.7818  -21.0087   -9.8539 C   0  0  0  0  0  0  0  0  0  0  0  0
   28.0801  -21.4253  -11.1209 C   0  0  0  0  0  0  0  0  0  0  0  0
   26.7396  -20.8080  -11.3141 C   0  0  2  0  0  0  0  0  0  0  0  0
   25.7875  -21.2457  -10.1939 C   0  0  0  0  0  0  0  0  0  0  0  0
   26.1208  -20.9936  -12.6586 C   0  0  2  0  0  0  0  0  0  0  0  0
   27.0121  -20.6438  -13.7396 N   0  0  0  0  0  0  0  0  0  0  0  0
   24.7556  -20.4692  -12.7891 C   0  0  0  0  0  0  0  0  0  0  0  0
   24.4582  -19.2526  -12.7659 O   0  0  0  0  0  0  0  0  0  0  0  0
   23.6746  -21.3722  -12.9575 N   0  0  0  0  0  0  0  0  0  0  0  0
   22.3531  -20.9392  -13.1900 C   0  0  1  0  0  0  0  0  0  0  0  0
   21.5802  -21.5339  -14.2932 C   0  0  0  0  0  0  0  0  0  0  0  0
   19.9171  -20.9357  -14.5285 S   0  0  0  0  0  0  0  0  0  0  0  0
   21.5896  -20.9006  -11.8828 C   0  0  0  0  0  0  0  0  0  0  0  0
   20.4379  -20.1519  -11.7352 O   0  0  0  0  0  0  0  0  0  0  0  0
   21.9970  -21.5570  -10.9005 O   0  0  0  0  0  0  0  0  0  0  0  0
  2  1  1  6
  2  3  1  0
  4  3  1  0
  4  5  1  0
  5  6  1  0
  6  7  1  0
  8  9  2  0
  8  2  1  0
 10 11  1  0
 11 12  1  0
 12 14  1  0
 12 13  1  1
 14 15  1  6
 15  8  1  0
 16 18  1  0
 16 14  1  0
 17 16  2  0
 19 22  1  0
 19 18  1  0
 19 20  1  6
 20 21  1  0
 22 23  1  0
 24 22  2  0
M  END
$$$$
