KIC.pdb
     RDKit          3D

 24 23  0  0  1  0  0  0  0  0999 V2000
   23.8886  -13.1885  -19.7309 N   0  0  0  0  0  0  0  0  0  0  0  0
   24.1730  -11.8485  -19.3309 C   0  0  1  0  0  0  0  0  0  0  0  0
   24.3304  -10.8729  -20.4402 C   0  0  0  0  0  0  0  0  0  0  0  0
   25.5149  -11.0790  -21.2998 C   0  0  0  0  0  0  0  0  0  0  0  0
   25.5704  -12.3382  -22.0882 C   0  0  0  0  0  0  0  0  0  0  0  0
   26.8382  -12.3993  -22.9546 C   0  0  0  0  0  0  0  0  0  0  0  0
   26.8797  -13.6500  -23.6783 N   0  0  0  0  0  0  0  0  0  0  0  0
   23.1701  -11.4173  -18.3206 C   0  0  0  0  0  0  0  0  0  0  0  0
   21.9340  -11.6487  -18.4819 O   0  0  0  0  0  0  0  0  0  0  0  0
   23.4583  -12.9849  -13.4311 C   0  0  0  0  0  0  0  0  0  0  0  0
   23.0382  -12.4041  -14.7567 C   0  0  0  0  0  0  0  0  0  0  0  0
   22.9504  -10.9185  -14.7783 C   0  0  2  0  0  0  0  0  0  0  0  0
   21.9770  -10.4287  -13.6986 C   0  0  0  0  0  0  0  0  0  0  0  0
   22.6521  -10.2992  -16.1021 C   0  0  2  0  0  0  0  0  0  0  0  0
   23.5567  -10.7326  -17.1409 N   0  0  0  0  0  0  0  0  0  0  0  0
   22.4000   -8.8531  -16.0660 C   0  0  0  0  0  0  0  0  0  0  0  0
   23.2744   -7.9866  -15.8343 O   0  0  0  0  0  0  0  0  0  0  0  0
   21.0895   -8.3672  -16.3083 N   0  0  0  0  0  0  0  0  0  0  0  0
   20.7814   -6.9915  -16.3265 C   0  0  1  0  0  0  0  0  0  0  0  0
   20.2541   -6.3842  -17.5599 C   0  0  0  0  0  0  0  0  0  0  0  0
   19.8151   -4.6577  -17.4864 S   0  0  0  0  0  0  0  0  0  0  0  0
   19.9766   -6.6308  -15.0955 C   0  0  0  0  0  0  0  0  0  0  0  0
   19.9999   -5.3580  -14.5586 O   0  0  0  0  0  0  0  0  0  0  0  0
   19.2666   -7.4943  -14.5369 O   0  0  0  0  0  0  0  0  0  0  0  0
  2  1  1  6
  2  3  1  0
  4  3  1  0
  4  5  1  0
  5  6  1  0
  6  7  1  0
  8  9  2  0
  8  2  1  0
 10 11  1  0
 11 12  1  0
 12 14  1  0
 12 13  1  1
 14 15  1  6
 15  8  1  0
 16 18  1  0
 16 14  1  0
 17 16  2  0
 19 22  1  0
 19 18  1  0
 19 20  1  6
 20 21  1  0
 22 23  1  0
 24 22  2  0
M  END
$$$$
