KIC.pdb
     RDKit          3D

 24 23  0  0  1  0  0  0  0  0999 V2000
   11.5472  -19.5071    1.4525 N   0  0  0  0  0  0  0  0  0  0  0  0
   12.3542  -18.3842    1.8053 C   0  0  1  0  0  0  0  0  0  0  0  0
   11.6252  -17.2437    2.4176 C   0  0  0  0  0  0  0  0  0  0  0  0
   10.5964  -16.6180    1.5606 C   0  0  0  0  0  0  0  0  0  0  0  0
   10.7038  -15.1531    1.3309 C   0  0  0  0  0  0  0  0  0  0  0  0
    9.5625  -14.6428    0.4372 C   0  0  0  0  0  0  0  0  0  0  0  0
    9.7095  -13.2220    0.2147 N   0  0  0  0  0  0  0  0  0  0  0  0
   13.5007  -18.8475    2.6320 C   0  0  0  0  0  0  0  0  0  0  0  0
   13.4178  -19.8948    3.3418 O   0  0  0  0  0  0  0  0  0  0  0  0
   18.1762  -19.7344    0.5343 C   0  0  0  0  0  0  0  0  0  0  0  0
   16.9959  -19.7036    1.4708 C   0  0  0  0  0  0  0  0  0  0  0  0
   17.1059  -18.7036    2.5678 C   0  0  2  0  0  0  0  0  0  0  0  0
   18.3502  -18.9849    3.4195 C   0  0  0  0  0  0  0  0  0  0  0  0
   15.8926  -18.5274    3.4174 C   0  0  2  0  0  0  0  0  0  0  0  0
   14.7277  -18.1378    2.6581 N   0  0  0  0  0  0  0  0  0  0  0  0
   16.1081  -17.7644    4.6533 C   0  0  0  0  0  0  0  0  0  0  0  0
   16.3084  -16.5287    4.6979 O   0  0  0  0  0  0  0  0  0  0  0  0
   16.0922  -18.4390    5.9011 N   0  0  0  0  0  0  0  0  0  0  0  0
   16.2704  -17.7685    7.1286 C   0  0  1  0  0  0  0  0  0  0  0  0
   15.1013  -17.4985    7.9821 C   0  0  0  0  0  0  0  0  0  0  0  0
   15.4190  -17.1607    9.7037 S   0  0  0  0  0  0  0  0  0  0  0  0
   17.4287  -18.3844    7.8850 C   0  0  0  0  0  0  0  0  0  0  0  0
   18.1005  -17.6935    8.8749 O   0  0  0  0  0  0  0  0  0  0  0  0
   17.8010  -19.5477    7.6203 O   0  0  0  0  0  0  0  0  0  0  0  0
  2  1  1  1
  2  3  1  0
  4  3  1  0
  4  5  1  0
  5  6  1  0
  6  7  1  0
  8  9  2  0
  8  2  1  0
 10 11  1  0
 11 12  1  0
 12 14  1  0
 12 13  1  1
 14 15  1  6
 15  8  1  0
 16 18  1  0
 16 14  1  0
 17 16  2  0
 19 22  1  0
 19 18  1  0
 19 20  1  1
 20 21  1  0
 22 23  1  0
 24 22  2  0
M  END
$$$$
