KIC.pdb
     RDKit          3D

 24 23  0  0  1  0  0  0  0  0999 V2000
   27.5147  -23.1602  -16.1275 N   0  0  0  0  0  0  0  0  0  0  0  0
   27.1815  -21.8467  -15.6800 C   0  0  1  0  0  0  0  0  0  0  0  0
   26.8019  -20.8873  -16.7488 C   0  0  0  0  0  0  0  0  0  0  0  0
   27.8075  -20.6991  -17.8155 C   0  0  0  0  0  0  0  0  0  0  0  0
   29.1641  -20.2560  -17.3986 C   0  0  0  0  0  0  0  0  0  0  0  0
   30.0778  -20.0356  -18.6144 C   0  0  0  0  0  0  0  0  0  0  0  0
   29.5745  -18.9433  -19.4165 N   0  0  0  0  0  0  0  0  0  0  0  0
   26.1620  -21.9425  -14.6011 C   0  0  0  0  0  0  0  0  0  0  0  0
   25.1942  -22.7575  -14.6825 O   0  0  0  0  0  0  0  0  0  0  0  0
   27.5024  -20.8855   -9.3244 C   0  0  0  0  0  0  0  0  0  0  0  0
   26.8869  -21.4234  -10.5905 C   0  0  0  0  0  0  0  0  0  0  0  0
   25.7344  -20.6312  -11.1000 C   0  0  2  0  0  0  0  0  0  0  0  0
   24.6204  -20.5776  -10.0468 C   0  0  0  0  0  0  0  0  0  0  0  0
   25.2032  -21.0322  -12.4349 C   0  0  2  0  0  0  0  0  0  0  0  0
   26.2329  -21.1281  -13.4428 N   0  0  0  0  0  0  0  0  0  0  0  0
   23.9898  -20.3212  -12.8570 C   0  0  0  0  0  0  0  0  0  0  0  0
   23.9574  -19.1179  -13.2036 O   0  0  0  0  0  0  0  0  0  0  0  0
   22.7517  -21.0130  -12.8897 N   0  0  0  0  0  0  0  0  0  0  0  0
   21.5558  -20.4082  -13.3278 C   0  0  1  0  0  0  0  0  0  0  0  0
   21.0549  -20.6931  -14.6828 C   0  0  0  0  0  0  0  0  0  0  0  0
   22.1803  -20.4092  -16.0362 S   0  0  0  0  0  0  0  0  0  0  0  0
   20.4913  -20.5460  -12.2597 C   0  0  0  0  0  0  0  0  0  0  0  0
   20.6522  -21.3891  -11.1771 O   0  0  0  0  0  0  0  0  0  0  0  0
   19.4323  -19.8876  -12.3429 O   0  0  0  0  0  0  0  0  0  0  0  0
  2  1  1  6
  2  3  1  0
  4  3  1  0
  4  5  1  0
  5  6  1  0
  6  7  1  0
  8  9  2  0
  8  2  1  0
 10 11  1  0
 11 12  1  0
 12 14  1  0
 12 13  1  1
 14 15  1  6
 15  8  1  0
 16 18  1  0
 16 14  1  0
 17 16  2  0
 19 22  1  0
 19 18  1  0
 19 20  1  6
 20 21  1  0
 22 23  1  0
 24 22  2  0
M  END
$$$$
