KIC.pdb
     RDKit          3D

 24 23  0  0  1  0  0  0  0  0999 V2000
   28.5703  -22.1927  -15.6049 N   0  0  0  0  0  0  0  0  0  0  0  0
   27.9949  -20.9917  -15.0920 C   0  0  1  0  0  0  0  0  0  0  0  0
   27.7299  -19.9322  -16.0990 C   0  0  0  0  0  0  0  0  0  0  0  0
   28.0512  -20.2934  -17.4958 C   0  0  0  0  0  0  0  0  0  0  0  0
   26.9144  -20.3995  -18.4479 C   0  0  0  0  0  0  0  0  0  0  0  0
   26.9125  -19.2325  -19.4477 C   0  0  0  0  0  0  0  0  0  0  0  0
   25.7938  -19.3628  -20.3540 N   0  0  0  0  0  0  0  0  0  0  0  0
   26.7942  -21.3325  -14.2827 C   0  0  0  0  0  0  0  0  0  0  0  0
   26.1155  -22.3763  -14.5220 O   0  0  0  0  0  0  0  0  0  0  0  0
   27.2661  -20.8902   -9.0262 C   0  0  0  0  0  0  0  0  0  0  0  0
   26.8161  -21.3060  -10.4031 C   0  0  0  0  0  0  0  0  0  0  0  0
   25.6002  -20.6009  -10.8928 C   0  0  2  0  0  0  0  0  0  0  0  0
   24.4036  -20.9141   -9.9855 C   0  0  0  0  0  0  0  0  0  0  0  0
   25.2608  -20.8029  -12.3312 C   0  0  2  0  0  0  0  0  0  0  0  0
   26.3633  -20.5053  -13.2150 N   0  0  0  0  0  0  0  0  0  0  0  0
   23.9680  -20.2439  -12.7462 C   0  0  0  0  0  0  0  0  0  0  0  0
   23.6751  -19.0268  -12.7030 O   0  0  0  0  0  0  0  0  0  0  0  0
   22.9587  -21.1111  -13.2379 N   0  0  0  0  0  0  0  0  0  0  0  0
   21.7294  -20.6371  -13.7401 C   0  0  1  0  0  0  0  0  0  0  0  0
   21.2645  -21.0905  -15.0616 C   0  0  0  0  0  0  0  0  0  0  0  0
   22.5139  -21.3953  -16.2965 S   0  0  0  0  0  0  0  0  0  0  0  0
   20.6647  -20.7400  -12.6682 C   0  0  0  0  0  0  0  0  0  0  0  0
   19.4690  -20.0544  -12.7628 O   0  0  0  0  0  0  0  0  0  0  0  0
   20.8550  -21.4593  -11.6641 O   0  0  0  0  0  0  0  0  0  0  0  0
  2  1  1  6
  2  3  1  0
  4  3  1  0
  4  5  1  0
  5  6  1  0
  6  7  1  0
  8  9  2  0
  8  2  1  0
 10 11  1  0
 11 12  1  0
 12 14  1  0
 12 13  1  1
 14 15  1  6
 15  8  1  0
 16 18  1  0
 16 14  1  0
 17 16  2  0
 19 22  1  0
 19 18  1  0
 19 20  1  6
 20 21  1  0
 22 23  1  0
 24 22  2  0
M  END
$$$$
