IWD.pdb
     RDKit          3D

 31 32  0  0  1  0  0  0  0  0999 V2000
    7.1858  -12.4263   18.1878 C   0  0  0  0  0  0  0  0  0  0  0  0
    7.0792  -13.6952   19.0070 C   0  0  0  0  0  0  0  0  0  0  0  0
    7.8220  -13.6222   20.3125 C   0  0  2  0  0  0  0  0  0  0  0  0
    9.2587  -13.1799   20.1244 C   0  0  0  0  0  0  0  0  0  0  0  0
    7.8239  -14.9284   21.0574 C   0  0  2  0  0  0  0  0  0  0  0  0
    6.4681  -15.4365   21.2673 N   0  0  0  0  0  0  0  0  0  0  0  0
    8.5221  -14.8598   22.3503 C   0  0  0  0  0  0  0  0  0  0  0  0
    8.9274  -13.7541   22.7966 O   0  0  0  0  0  0  0  0  0  0  0  0
    8.7917  -16.0046   23.1826 N   0  0  0  0  0  0  0  0  0  0  0  0
    9.6426  -15.9256   24.3309 C   0  0  1  0  0  0  0  0  0  0  0  0
    8.9388  -16.1338   25.6545 C   0  0  0  0  0  0  0  0  0  0  0  0
    7.7187  -15.3169   25.8157 C   0  0  0  0  0  0  0  0  0  0  0  0
    6.4121  -15.7292   25.5936 C   0  0  0  0  0  0  0  0  0  0  0  0
    5.5985  -14.7058   25.8800 N   0  0  0  0  0  0  0  0  0  0  0  0
    6.3489  -13.6467   26.2801 C   0  0  0  0  0  0  0  0  0  0  0  0
    6.0304  -12.3672   26.6782 C   0  0  0  0  0  0  0  0  0  0  0  0
    7.0022  -11.4524   27.0379 C   0  0  0  0  0  0  0  0  0  0  0  0
    8.3144  -11.8193   26.9997 C   0  0  0  0  0  0  0  0  0  0  0  0
    8.6522  -13.0840   26.6081 C   0  0  0  0  0  0  0  0  0  0  0  0
    7.6755  -14.0122   26.2449 C   0  0  0  0  0  0  0  0  0  0  0  0
   10.7092  -16.9437   24.2258 C   0  0  0  0  0  0  0  0  0  0  0  0
   10.5038  -18.0330   23.6233 O   0  0  0  0  0  0  0  0  0  0  0  0
   11.9619  -16.6854   24.8063 N   0  0  0  0  0  0  0  0  0  0  0  0
   13.0259  -17.6774   24.9146 C   0  0  1  0  0  0  0  0  0  0  0  0
   14.3760  -17.0366   24.6843 C   0  0  0  0  0  0  0  0  0  0  0  0
   14.4842  -16.2299   23.4751 C   0  0  0  0  0  0  0  0  0  0  0  0
   14.2351  -16.7747   22.3623 O   0  0  0  0  0  0  0  0  0  0  0  0
   12.9200  -18.4201   26.1872 C   0  0  0  0  0  0  0  0  0  0  0  0
   12.1163  -17.9948   27.0610 O   0  0  0  0  0  0  0  0  0  0  0  0
   14.8464  -14.8901   23.4531 O   0  0  0  0  0  0  0  0  0  0  0  0
   13.6374  -19.5580   26.5035 O   0  0  0  0  0  0  0  0  0  0  0  0
  2  3  1  0
  2  1  1  0
  3  4  1  6
  5  6  1  1
  5  3  1  0
  7  8  2  0
  7  5  1  0
  9  7  1  0
 10 21  1  0
 10  9  1  0
 10 11  1  1
 12 11  1  0
 13 12  2  0
 14 13  1  0
 15 14  1  0
 15 20  2  0
 16 15  1  0
 17 16  2  0
 17 18  1  0
 18 19  2  0
 19 20  1  0
 20 12  1  0
 21 23  1  0
 22 21  2  0
 23 24  1  0
 24 28  1  0
 25 26  1  0
 24 25  1  1
 26 30  1  0
 27 26  2  0
 28 29  2  0
 28 31  1  0
M  END
$$$$
