IWD.pdb
     RDKit          3D

 31 32  0  0  1  0  0  0  0  0999 V2000
    7.3109  -12.1509   19.7516 C   0  0  0  0  0  0  0  0  0  0  0  0
    7.3094  -13.5642   20.2950 C   0  0  0  0  0  0  0  0  0  0  0  0
    8.6835  -14.1699   20.3752 C   0  0  2  0  0  0  0  0  0  0  0  0
    9.3893  -14.1562   19.0347 C   0  0  0  0  0  0  0  0  0  0  0  0
    8.6697  -15.5838   20.8869 C   0  0  2  0  0  0  0  0  0  0  0  0
    7.3240  -16.1574   20.8630 N   0  0  0  0  0  0  0  0  0  0  0  0
    9.2307  -15.7183   22.2400 C   0  0  0  0  0  0  0  0  0  0  0  0
   10.3835  -15.2811   22.4971 O   0  0  0  0  0  0  0  0  0  0  0  0
    8.5385  -16.3369   23.3419 N   0  0  0  0  0  0  0  0  0  0  0  0
    9.1392  -16.4783   24.6334 C   0  0  1  0  0  0  0  0  0  0  0  0
    8.1602  -16.4934   25.7875 C   0  0  0  0  0  0  0  0  0  0  0  0
    7.1896  -15.3802   25.7602 C   0  0  0  0  0  0  0  0  0  0  0  0
    5.8429  -15.4650   25.4354 C   0  0  0  0  0  0  0  0  0  0  0  0
    5.3074  -14.2446   25.5592 N   0  0  0  0  0  0  0  0  0  0  0  0
    6.2756  -13.3781   25.9549 C   0  0  0  0  0  0  0  0  0  0  0  0
    6.2746  -12.0268   26.2215 C   0  0  0  0  0  0  0  0  0  0  0  0
    7.4209  -11.3597   26.6109 C   0  0  0  0  0  0  0  0  0  0  0  0
    8.5886  -12.0514   26.7361 C   0  0  0  0  0  0  0  0  0  0  0  0
    8.6116  -13.3927   26.4767 C   0  0  0  0  0  0  0  0  0  0  0  0
    7.4574  -14.0718   26.0844 C   0  0  0  0  0  0  0  0  0  0  0  0
    9.9104  -17.7384   24.6837 C   0  0  0  0  0  0  0  0  0  0  0  0
    9.8395  -18.5758   23.7426 O   0  0  0  0  0  0  0  0  0  0  0  0
   10.7285  -17.9965   25.7959 N   0  0  0  0  0  0  0  0  0  0  0  0
   11.9629  -18.7713   25.7327 C   0  0  1  0  0  0  0  0  0  0  0  0
   12.9155  -18.1726   24.7225 C   0  0  0  0  0  0  0  0  0  0  0  0
   13.2148  -19.0165   23.5725 C   0  0  0  0  0  0  0  0  0  0  0  0
   12.6866  -20.1630   23.5120 O   0  0  0  0  0  0  0  0  0  0  0  0
   12.5422  -18.9417   27.0809 C   0  0  0  0  0  0  0  0  0  0  0  0
   12.4386  -17.9881   27.8995 O   0  0  0  0  0  0  0  0  0  0  0  0
   14.0487  -18.6516   22.5246 O   0  0  0  0  0  0  0  0  0  0  0  0
   13.1962  -20.0748   27.5256 O   0  0  0  0  0  0  0  0  0  0  0  0
  2  3  1  0
  2  1  1  0
  3  4  1  6
  5  6  1  1
  5  3  1  0
  7  8  2  0
  7  5  1  0
  9  7  1  0
 10 21  1  0
 10  9  1  0
 10 11  1  1
 12 11  1  0
 13 12  2  0
 14 13  1  0
 15 14  1  0
 15 20  2  0
 16 15  1  0
 17 16  2  0
 17 18  1  0
 18 19  2  0
 19 20  1  0
 20 12  1  0
 21 23  1  0
 22 21  2  0
 23 24  1  0
 24 28  1  0
 25 26  1  0
 24 25  1  6
 26 30  1  0
 27 26  2  0
 28 29  2  0
 28 31  1  0
M  END
$$$$
