IWD.pdb
     RDKit          3D

 31 32  0  0  1  0  0  0  0  0999 V2000
    7.0174  -13.1074   19.9230 C   0  0  0  0  0  0  0  0  0  0  0  0
    8.4347  -12.9885   19.4038 C   0  0  0  0  0  0  0  0  0  0  0  0
    8.8740  -14.1818   18.6010 C   0  0  2  0  0  0  0  0  0  0  0  0
    8.1995  -14.2339   17.2455 C   0  0  0  0  0  0  0  0  0  0  0  0
    8.6192  -15.4857   19.3053 C   0  0  2  0  0  0  0  0  0  0  0  0
    7.2437  -15.9466   19.1151 N   0  0  0  0  0  0  0  0  0  0  0  0
    8.9205  -15.4381   20.7443 C   0  0  0  0  0  0  0  0  0  0  0  0
   10.0770  -15.1384   21.1426 O   0  0  0  0  0  0  0  0  0  0  0  0
    7.9583  -15.7194   21.7791 N   0  0  0  0  0  0  0  0  0  0  0  0
    8.2888  -15.6294   23.1689 C   0  0  1  0  0  0  0  0  0  0  0  0
    7.0967  -15.5759   24.0999 C   0  0  0  0  0  0  0  0  0  0  0  0
    7.4099  -15.0361   25.4387 C   0  0  0  0  0  0  0  0  0  0  0  0
    8.0230  -15.7161   26.4818 C   0  0  0  0  0  0  0  0  0  0  0  0
    8.1532  -14.8698   27.5106 N   0  0  0  0  0  0  0  0  0  0  0  0
    7.6392  -13.6639   27.1551 C   0  0  0  0  0  0  0  0  0  0  0  0
    7.5130  -12.4641   27.8197 C   0  0  0  0  0  0  0  0  0  0  0  0
    6.9319  -11.3594   27.2261 C   0  0  0  0  0  0  0  0  0  0  0  0
    6.4680  -11.4523   25.9478 C   0  0  0  0  0  0  0  0  0  0  0  0
    6.5835  -12.6332   25.2702 C   0  0  0  0  0  0  0  0  0  0  0  0
    7.1703  -13.7515   25.8639 C   0  0  0  0  0  0  0  0  0  0  0  0
    9.1088  -16.7962   23.5578 C   0  0  0  0  0  0  0  0  0  0  0  0
    8.7964  -17.9587   23.1797 O   0  0  0  0  0  0  0  0  0  0  0  0
   10.2466  -16.5976   24.3570 N   0  0  0  0  0  0  0  0  0  0  0  0
   11.3923  -17.5005   24.3761 C   0  0  1  0  0  0  0  0  0  0  0  0
   12.0414  -17.5650   23.0120 C   0  0  0  0  0  0  0  0  0  0  0  0
   13.2405  -18.3897   22.9314 C   0  0  0  0  0  0  0  0  0  0  0  0
   14.3660  -17.8333   23.0764 O   0  0  0  0  0  0  0  0  0  0  0  0
   12.3199  -17.1443   25.4692 C   0  0  0  0  0  0  0  0  0  0  0  0
   13.3598  -17.8415   25.6201 O   0  0  0  0  0  0  0  0  0  0  0  0
   13.2399  -19.7588   22.7030 O   0  0  0  0  0  0  0  0  0  0  0  0
   12.1407  -16.0960   26.3515 O   0  0  0  0  0  0  0  0  0  0  0  0
  2  3  1  0
  2  1  1  0
  3  4  1  6
  5  6  1  1
  5  3  1  0
  7  8  2  0
  7  5  1  0
  9  7  1  0
 10 21  1  0
 10  9  1  0
 10 11  1  1
 12 11  1  0
 13 12  2  0
 14 13  1  0
 15 14  1  0
 15 20  2  0
 16 15  1  0
 17 16  2  0
 17 18  1  0
 18 19  2  0
 19 20  1  0
 20 12  1  0
 21 23  1  0
 22 21  2  0
 23 24  1  0
 24 28  1  0
 25 26  1  0
 24 25  1  6
 26 30  1  0
 27 26  2  0
 28 29  2  0
 28 31  1  0
M  END
$$$$
