IWD.pdb
     RDKit          3D

 31 32  0  0  1  0  0  0  0  0999 V2000
    6.4874  -12.3335   18.7738 C   0  0  0  0  0  0  0  0  0  0  0  0
    6.8738  -13.7273   19.2219 C   0  0  0  0  0  0  0  0  0  0  0  0
    8.0381  -13.7426   20.1735 C   0  0  2  0  0  0  0  0  0  0  0  0
    9.2883  -13.1559   19.5507 C   0  0  0  0  0  0  0  0  0  0  0  0
    8.3638  -15.1220   20.6760 C   0  0  2  0  0  0  0  0  0  0  0  0
    7.1606  -15.9367   20.8461 N   0  0  0  0  0  0  0  0  0  0  0  0
    9.1288  -15.1179   21.9324 C   0  0  0  0  0  0  0  0  0  0  0  0
   10.1522  -14.3936   22.0517 O   0  0  0  0  0  0  0  0  0  0  0  0
    8.7876  -15.9099   23.0866 N   0  0  0  0  0  0  0  0  0  0  0  0
    9.5730  -15.8869   24.2830 C   0  0  1  0  0  0  0  0  0  0  0  0
    8.8036  -16.1921   25.5500 C   0  0  0  0  0  0  0  0  0  0  0  0
    7.6282  -15.3218   25.7577 C   0  0  0  0  0  0  0  0  0  0  0  0
    6.2951  -15.6936   25.6526 C   0  0  0  0  0  0  0  0  0  0  0  0
    5.5414  -14.6268   25.9450 N   0  0  0  0  0  0  0  0  0  0  0  0
    6.3562  -13.5795   26.2348 C   0  0  0  0  0  0  0  0  0  0  0  0
    6.1132  -12.2709   26.5892 C   0  0  0  0  0  0  0  0  0  0  0  0
    7.1406  -11.3780   26.8300 C   0  0  0  0  0  0  0  0  0  0  0  0
    8.4326  -11.7967   26.7152 C   0  0  0  0  0  0  0  0  0  0  0  0
    8.6958  -13.0910   26.3650 C   0  0  0  0  0  0  0  0  0  0  0  0
    7.6628  -13.9972   26.1217 C   0  0  0  0  0  0  0  0  0  0  0  0
   10.6669  -16.8753   24.1743 C   0  0  0  0  0  0  0  0  0  0  0  0
   10.4191  -18.0859   23.9198 O   0  0  0  0  0  0  0  0  0  0  0  0
   11.9934  -16.4514   24.3577 N   0  0  0  0  0  0  0  0  0  0  0  0
   13.1521  -17.3255   24.2110 C   0  0  1  0  0  0  0  0  0  0  0  0
   14.3343  -16.5549   23.6681 C   0  0  0  0  0  0  0  0  0  0  0  0
   15.5803  -17.3062   23.5808 C   0  0  0  0  0  0  0  0  0  0  0  0
   15.7013  -18.1694   22.6658 O   0  0  0  0  0  0  0  0  0  0  0  0
   13.4278  -18.0434   25.4724 C   0  0  0  0  0  0  0  0  0  0  0  0
   13.9561  -19.1865   25.4049 O   0  0  0  0  0  0  0  0  0  0  0  0
   16.6586  -17.1438   24.4396 O   0  0  0  0  0  0  0  0  0  0  0  0
   13.1521  -17.5594   26.7369 O   0  0  0  0  0  0  0  0  0  0  0  0
  2  3  1  0
  2  1  1  0
  3  4  1  6
  5  6  1  1
  5  3  1  0
  7  8  2  0
  7  5  1  0
  9  7  1  0
 10 21  1  0
 10  9  1  0
 10 11  1  1
 12 11  1  0
 13 12  2  0
 14 13  1  0
 15 14  1  0
 15 20  2  0
 16 15  1  0
 17 16  2  0
 17 18  1  0
 18 19  2  0
 19 20  1  0
 20 12  1  0
 21 23  1  0
 22 21  2  0
 23 24  1  0
 24 28  1  0
 25 26  1  0
 24 25  1  1
 26 30  1  0
 27 26  2  0
 28 29  2  0
 28 31  1  0
M  END
$$$$
