NGW.pdb
     RDKit          3D

 27 28  0  0  1  0  0  0  0  0999 V2000
    9.9004  -15.2677   15.0491 N   0  0  0  0  0  0  0  0  0  0  0  0
    8.5490  -15.6241   15.3266 C   0  0  0  0  0  0  0  0  0  0  0  0
    7.7605  -15.7843   14.3721 O   0  0  0  0  0  0  0  0  0  0  0  0
    8.0535  -15.8093   16.7066 C   0  0  0  0  0  0  0  0  0  0  0  0
    8.4037  -17.1787   17.1905 C   0  0  2  0  0  0  0  0  0  0  0  0
    7.7284  -18.1509   16.3773 N   0  0  0  0  0  0  0  0  0  0  0  0
    8.0571  -17.3262   18.6362 C   0  0  0  0  0  0  0  0  0  0  0  0
    6.9453  -16.9016   19.0399 O   0  0  0  0  0  0  0  0  0  0  0  0
    8.9277  -17.9243   19.5728 N   0  0  0  0  0  0  0  0  0  0  0  0
    8.5579  -18.1515   20.9628 C   0  0  0  0  0  0  0  0  0  0  0  0
    9.3051  -17.1380   21.7745 C   0  0  0  0  0  0  0  0  0  0  0  0
   10.1909  -16.3910   21.2483 O   0  0  0  0  0  0  0  0  0  0  0  0
    9.0653  -16.9619   23.1579 N   0  0  0  0  0  0  0  0  0  0  0  0
    9.8869  -16.0312   23.9466 C   0  0  1  0  0  0  0  0  0  0  0  0
    9.2946  -14.6536   23.9064 C   0  0  0  0  0  0  0  0  0  0  0  0
    8.1491  -14.4024   24.7486 C   0  0  0  0  0  0  0  0  0  0  0  0
    7.2053  -15.3812   25.0945 C   0  0  0  0  0  0  0  0  0  0  0  0
    6.2897  -14.8486   25.9081 N   0  0  0  0  0  0  0  0  0  0  0  0
    6.5740  -13.5563   26.1244 C   0  0  0  0  0  0  0  0  0  0  0  0
    5.9439  -12.5866   26.8688 C   0  0  0  0  0  0  0  0  0  0  0  0
    6.4653  -11.3067   26.9037 C   0  0  0  0  0  0  0  0  0  0  0  0
    7.5918  -11.0001   26.2101 C   0  0  0  0  0  0  0  0  0  0  0  0
    8.2185  -11.9819   25.4646 C   0  0  0  0  0  0  0  0  0  0  0  0
    7.7388  -13.2741   25.3982 C   0  0  0  0  0  0  0  0  0  0  0  0
   10.1332  -16.6192   25.2447 C   0  0  0  0  0  0  0  0  0  0  0  0
   10.8895  -16.0882   26.0944 O   0  0  0  0  0  0  0  0  0  0  0  0
    9.5345  -17.8145   25.6121 O   0  0  0  0  0  0  0  0  0  0  0  0
  2  3  2  0
  2  1  1  0
  4  2  1  0
  5  4  1  0
  5  6  1  6
  7  8  2  0
  7  5  1  0
  9  7  1  0
 10  9  1  0
 11 10  1  0
 11 12  2  0
 13 11  1  0
 14 13  1  0
 14 25  1  0
 14 15  1  1
 16 15  1  0
 17 16  2  0
 18 17  1  0
 19 18  1  0
 19 24  2  0
 20 21  2  0
 20 19  1  0
 21 22  1  0
 22 23  2  0
 24 23  1  0
 24 16  1  0
 25 27  1  0
 26 25  2  0
M  END
$$$$
