NGW.pdb
     RDKit          3D

 27 28  0  0  1  0  0  0  0  0999 V2000
    7.3962  -20.4574   16.8197 N   0  0  0  0  0  0  0  0  0  0  0  0
    8.2042  -20.3848   17.9912 C   0  0  0  0  0  0  0  0  0  0  0  0
    8.2428  -21.3695   18.7576 O   0  0  0  0  0  0  0  0  0  0  0  0
    8.9958  -19.1825   18.3257 C   0  0  0  0  0  0  0  0  0  0  0  0
    8.9210  -18.9199   19.7946 C   0  0  2  0  0  0  0  0  0  0  0  0
    7.5486  -18.7180   20.1661 N   0  0  0  0  0  0  0  0  0  0  0  0
    9.7738  -17.7489   20.1598 C   0  0  0  0  0  0  0  0  0  0  0  0
   11.0008  -17.7846   19.8905 O   0  0  0  0  0  0  0  0  0  0  0  0
    9.2594  -16.5990   20.7969 N   0  0  0  0  0  0  0  0  0  0  0  0
   10.0708  -15.4241   21.0827 C   0  0  0  0  0  0  0  0  0  0  0  0
   10.4351  -15.4998   22.5339 C   0  0  0  0  0  0  0  0  0  0  0  0
   11.2303  -14.6579   23.0617 O   0  0  0  0  0  0  0  0  0  0  0  0
    9.9171  -16.5046   23.3849 N   0  0  0  0  0  0  0  0  0  0  0  0
   10.2615  -16.5242   24.8147 C   0  0  1  0  0  0  0  0  0  0  0  0
    9.9050  -15.2142   25.4527 C   0  0  0  0  0  0  0  0  0  0  0  0
    8.5016  -14.8935   25.5629 C   0  0  0  0  0  0  0  0  0  0  0  0
    7.4722  -15.8356   25.4178 C   0  0  0  0  0  0  0  0  0  0  0  0
    6.2926  -15.2387   25.6086 N   0  0  0  0  0  0  0  0  0  0  0  0
    6.4817  -13.9384   25.8745 C   0  0  0  0  0  0  0  0  0  0  0  0
    5.6015  -12.9135   26.1323 C   0  0  0  0  0  0  0  0  0  0  0  0
    6.0865  -11.6403   26.3673 C   0  0  0  0  0  0  0  0  0  0  0  0
    7.4218  -11.3944   26.3453 C   0  0  0  0  0  0  0  0  0  0  0  0
    8.2991  -12.4314   26.0855 C   0  0  0  0  0  0  0  0  0  0  0  0
    7.8654  -13.7193   25.8459 C   0  0  0  0  0  0  0  0  0  0  0  0
    9.7187  -17.7284   25.4038 C   0  0  0  0  0  0  0  0  0  0  0  0
    8.8434  -18.4243   24.8334 O   0  0  0  0  0  0  0  0  0  0  0  0
   10.1493  -18.1728   26.6444 O   0  0  0  0  0  0  0  0  0  0  0  0
  2  3  2  0
  2  1  1  0
  4  2  1  0
  5  4  1  0
  5  6  1  6
  7  8  2  0
  7  5  1  0
  9  7  1  0
 10  9  1  0
 11 10  1  0
 11 12  2  0
 13 11  1  0
 14 13  1  0
 14 25  1  0
 14 15  1  1
 16 15  1  0
 17 16  2  0
 18 17  1  0
 19 18  1  0
 19 24  2  0
 20 21  2  0
 20 19  1  0
 21 22  1  0
 22 23  2  0
 24 23  1  0
 24 16  1  0
 25 27  1  0
 26 25  2  0
M  END
$$$$
