NGW.pdb
     RDKit          3D

 27 28  0  0  1  0  0  0  0  0999 V2000
    1.6666  -18.6442   21.8990 N   0  0  0  0  0  0  0  0  0  0  0  0
    2.9154  -18.9471   21.2831 C   0  0  0  0  0  0  0  0  0  0  0  0
    2.9545  -19.8352   20.4065 O   0  0  0  0  0  0  0  0  0  0  0  0
    4.1626  -18.2439   21.6495 C   0  0  0  0  0  0  0  0  0  0  0  0
    5.3028  -18.7864   20.8509 C   0  0  2  0  0  0  0  0  0  0  0  0
    6.0146  -19.7496   21.6433 N   0  0  0  0  0  0  0  0  0  0  0  0
    6.1928  -17.6779   20.3916 C   0  0  0  0  0  0  0  0  0  0  0  0
    6.0722  -17.2507   19.2159 O   0  0  0  0  0  0  0  0  0  0  0  0
    7.1675  -17.0867   21.2242 N   0  0  0  0  0  0  0  0  0  0  0  0
    7.9289  -15.9077   20.8357 C   0  0  0  0  0  0  0  0  0  0  0  0
    8.8297  -15.5827   21.9878 C   0  0  0  0  0  0  0  0  0  0  0  0
    9.5687  -14.5466   21.9787 O   0  0  0  0  0  0  0  0  0  0  0  0
    8.9039  -16.4061   23.1362 N   0  0  0  0  0  0  0  0  0  0  0  0
    9.8813  -16.1222   24.1980 C   0  0  1  0  0  0  0  0  0  0  0  0
    9.1997  -16.0803   25.5336 C   0  0  0  0  0  0  0  0  0  0  0  0
    7.9687  -15.3313   25.6237 C   0  0  0  0  0  0  0  0  0  0  0  0
    6.6989  -15.8887   25.4115 C   0  0  0  0  0  0  0  0  0  0  0  0
    5.7649  -14.9527   25.5999 N   0  0  0  0  0  0  0  0  0  0  0  0
    6.3486  -13.7912   25.9285 C   0  0  0  0  0  0  0  0  0  0  0  0
    5.8321  -12.5481   26.2103 C   0  0  0  0  0  0  0  0  0  0  0  0
    6.6885  -11.5062   26.5140 C   0  0  0  0  0  0  0  0  0  0  0  0
    8.0324  -11.7000   26.5357 C   0  0  0  0  0  0  0  0  0  0  0  0
    8.5424  -12.9536   26.2511 C   0  0  0  0  0  0  0  0  0  0  0  0
    7.7300  -14.0258   25.9435 C   0  0  0  0  0  0  0  0  0  0  0  0
   11.0040  -17.0208   24.0442 C   0  0  0  0  0  0  0  0  0  0  0  0
   10.9999  -17.9733   23.2265 O   0  0  0  0  0  0  0  0  0  0  0  0
   12.1518  -16.8660   24.8063 O   0  0  0  0  0  0  0  0  0  0  0  0
  2  3  2  0
  2  1  1  0
  4  2  1  0
  5  4  1  0
  5  6  1  1
  7  8  2  0
  7  5  1  0
  9  7  1  0
 10  9  1  0
 11 10  1  0
 11 12  2  0
 13 11  1  0
 14 13  1  0
 14 25  1  0
 14 15  1  1
 16 15  1  0
 17 16  2  0
 18 17  1  0
 19 18  1  0
 19 24  2  0
 20 21  2  0
 20 19  1  0
 21 22  1  0
 22 23  2  0
 24 23  1  0
 24 16  1  0
 25 27  1  0
 26 25  2  0
M  END
$$$$
