NGW.pdb
     RDKit          3D

 27 28  0  0  1  0  0  0  0  0999 V2000
    8.9610  -21.7788   19.8085 N   0  0  0  0  0  0  0  0  0  0  0  0
    8.8314  -20.7814   18.7990 C   0  0  0  0  0  0  0  0  0  0  0  0
    8.7175  -21.1409   17.6089 O   0  0  0  0  0  0  0  0  0  0  0  0
    8.8279  -19.3382   19.1171 C   0  0  0  0  0  0  0  0  0  0  0  0
    9.0084  -19.1436   20.5874 C   0  0  2  0  0  0  0  0  0  0  0  0
    7.7385  -19.2965   21.2405 N   0  0  0  0  0  0  0  0  0  0  0  0
    9.6198  -17.8094   20.8664 C   0  0  0  0  0  0  0  0  0  0  0  0
   10.8275  -17.6224   20.5734 O   0  0  0  0  0  0  0  0  0  0  0  0
    8.8972  -16.7449   21.4473 N   0  0  0  0  0  0  0  0  0  0  0  0
    9.4704  -15.4231   21.6588 C   0  0  0  0  0  0  0  0  0  0  0  0
    9.8284  -15.3404   23.1111 C   0  0  0  0  0  0  0  0  0  0  0  0
   10.2842  -14.2670   23.6207 O   0  0  0  0  0  0  0  0  0  0  0  0
    9.6791  -16.4446   23.9835 N   0  0  0  0  0  0  0  0  0  0  0  0
   10.1526  -16.3683   25.3739 C   0  0  1  0  0  0  0  0  0  0  0  0
    8.9918  -16.4295   26.3220 C   0  0  0  0  0  0  0  0  0  0  0  0
    7.8691  -15.5640   26.0482 C   0  0  0  0  0  0  0  0  0  0  0  0
    6.6496  -16.0118   25.5184 C   0  0  0  0  0  0  0  0  0  0  0  0
    5.8052  -14.9823   25.4134 N   0  0  0  0  0  0  0  0  0  0  0  0
    6.4013  -13.8626   25.8475 C   0  0  0  0  0  0  0  0  0  0  0  0
    5.9648  -12.5613   25.9351 C   0  0  0  0  0  0  0  0  0  0  0  0
    6.8159  -11.5875   26.4236 C   0  0  0  0  0  0  0  0  0  0  0  0
    8.0765  -11.9049   26.8163 C   0  0  0  0  0  0  0  0  0  0  0  0
    8.5063  -13.2162   26.7247 C   0  0  0  0  0  0  0  0  0  0  0  0
    7.6952  -14.2245   26.2454 C   0  0  0  0  0  0  0  0  0  0  0  0
   11.2175  -17.3306   25.5523 C   0  0  0  0  0  0  0  0  0  0  0  0
   11.5665  -18.1276   24.6474 O   0  0  0  0  0  0  0  0  0  0  0  0
   11.9098  -17.4151   26.7505 O   0  0  0  0  0  0  0  0  0  0  0  0
  2  3  2  0
  2  1  1  0
  4  2  1  0
  5  4  1  0
  5  6  1  1
  7  8  2  0
  7  5  1  0
  9  7  1  0
 10  9  1  0
 11 10  1  0
 11 12  2  0
 13 11  1  0
 14 13  1  0
 14 25  1  0
 14 15  1  1
 16 15  1  0
 17 16  2  0
 18 17  1  0
 19 18  1  0
 19 24  2  0
 20 21  2  0
 20 19  1  0
 21 22  1  0
 22 23  2  0
 24 23  1  0
 24 16  1  0
 25 27  1  0
 26 25  2  0
M  END
$$$$
