NGW.pdb
     RDKit          3D

 27 28  0  0  1  0  0  0  0  0999 V2000
    7.8633  -12.7158   16.2987 N   0  0  0  0  0  0  0  0  0  0  0  0
    8.0328  -14.1304   16.3268 C   0  0  0  0  0  0  0  0  0  0  0  0
    8.5012  -14.7006   15.3198 O   0  0  0  0  0  0  0  0  0  0  0  0
    7.6719  -14.9410   17.5087 C   0  0  0  0  0  0  0  0  0  0  0  0
    8.5647  -14.5907   18.6543 C   0  0  2  0  0  0  0  0  0  0  0  0
    9.9311  -14.6312   18.2142 N   0  0  0  0  0  0  0  0  0  0  0  0
    8.3238  -15.5126   19.8049 C   0  0  0  0  0  0  0  0  0  0  0  0
    7.2074  -15.4846   20.3813 O   0  0  0  0  0  0  0  0  0  0  0  0
    9.2997  -16.4177   20.2752 N   0  0  0  0  0  0  0  0  0  0  0  0
    9.0765  -17.3007   21.4115 C   0  0  0  0  0  0  0  0  0  0  0  0
    9.7966  -16.6900   22.5746 C   0  0  0  0  0  0  0  0  0  0  0  0
   10.9232  -16.1163   22.4287 O   0  0  0  0  0  0  0  0  0  0  0  0
    9.2638  -16.7203   23.8851 N   0  0  0  0  0  0  0  0  0  0  0  0
   10.0555  -16.2342   25.0255 C   0  0  1  0  0  0  0  0  0  0  0  0
    9.6897  -14.8147   25.3441 C   0  0  0  0  0  0  0  0  0  0  0  0
    8.3325  -14.5612   25.7664 C   0  0  0  0  0  0  0  0  0  0  0  0
    7.3635  -15.5638   25.9216 C   0  0  0  0  0  0  0  0  0  0  0  0
    6.2237  -15.0179   26.3538 N   0  0  0  0  0  0  0  0  0  0  0  0
    6.3817  -13.6941   26.4956 C   0  0  0  0  0  0  0  0  0  0  0  0
    5.5191  -12.7015   26.8983 C   0  0  0  0  0  0  0  0  0  0  0  0
    5.9588  -11.3914   26.9413 C   0  0  0  0  0  0  0  0  0  0  0  0
    7.2324  -11.0779   26.5897 C   0  0  0  0  0  0  0  0  0  0  0  0
    8.0925  -12.0829   26.1863 C   0  0  0  0  0  0  0  0  0  0  0  0
    7.7025  -13.4053   26.1275 C   0  0  0  0  0  0  0  0  0  0  0  0
    9.9713  -17.2058   26.0935 C   0  0  0  0  0  0  0  0  0  0  0  0
    9.2150  -18.2062   26.0387 O   0  0  0  0  0  0  0  0  0  0  0  0
   10.7352  -17.0713   27.2426 O   0  0  0  0  0  0  0  0  0  0  0  0
  2  3  2  0
  2  1  1  0
  4  2  1  0
  5  4  1  0
  5  6  1  6
  7  8  2  0
  7  5  1  0
  9  7  1  0
 10  9  1  0
 11 10  1  0
 11 12  2  0
 13 11  1  0
 14 13  1  0
 14 25  1  0
 14 15  1  1
 16 15  1  0
 17 16  2  0
 18 17  1  0
 19 18  1  0
 19 24  2  0
 20 21  2  0
 20 19  1  0
 21 22  1  0
 22 23  2  0
 24 23  1  0
 24 16  1  0
 25 27  1  0
 26 25  2  0
M  END
$$$$
