NGW.pdb
     RDKit          3D

 27 28  0  0  1  0  0  0  0  0999 V2000
    6.4028  -19.7524   16.8281 N   0  0  0  0  0  0  0  0  0  0  0  0
    7.7987  -19.5010   16.9655 C   0  0  0  0  0  0  0  0  0  0  0  0
    8.5519  -20.4447   17.2825 O   0  0  0  0  0  0  0  0  0  0  0  0
    8.3803  -18.1604   16.7449 C   0  0  0  0  0  0  0  0  0  0  0  0
    9.4118  -17.8783   17.7883 C   0  0  2  0  0  0  0  0  0  0  0  0
   10.3355  -18.9764   17.8442 N   0  0  0  0  0  0  0  0  0  0  0  0
    8.7626  -17.6301   19.1107 C   0  0  0  0  0  0  0  0  0  0  0  0
    7.9876  -16.6482   19.2312 O   0  0  0  0  0  0  0  0  0  0  0  0
    8.9826  -18.4539   20.2357 N   0  0  0  0  0  0  0  0  0  0  0  0
    8.2522  -18.2965   21.4856 C   0  0  0  0  0  0  0  0  0  0  0  0
    9.1663  -17.5722   22.4259 C   0  0  0  0  0  0  0  0  0  0  0  0
   10.3607  -17.2821   22.0962 O   0  0  0  0  0  0  0  0  0  0  0  0
    8.7503  -17.1771   23.7194 N   0  0  0  0  0  0  0  0  0  0  0  0
    9.6773  -16.4772   24.6216 C   0  0  1  0  0  0  0  0  0  0  0  0
    9.3921  -15.0045   24.6189 C   0  0  0  0  0  0  0  0  0  0  0  0
    8.1119  -14.5787   25.1331 C   0  0  0  0  0  0  0  0  0  0  0  0
    7.0128  -15.4351   25.2966 C   0  0  0  0  0  0  0  0  0  0  0  0
    5.9916  -14.7531   25.8221 N   0  0  0  0  0  0  0  0  0  0  0  0
    6.3535  -13.4772   26.0187 C   0  0  0  0  0  0  0  0  0  0  0  0
    5.6716  -12.3931   26.5199 C   0  0  0  0  0  0  0  0  0  0  0  0
    6.3045  -11.1666   26.6006 C   0  0  0  0  0  0  0  0  0  0  0  0
    7.5908  -11.0242   26.1895 C   0  0  0  0  0  0  0  0  0  0  0  0
    8.2684  -12.1201   25.6870 C   0  0  0  0  0  0  0  0  0  0  0  0
    7.6820  -13.3653   25.5871 C   0  0  0  0  0  0  0  0  0  0  0  0
    9.6822  -17.1584   25.8974 C   0  0  0  0  0  0  0  0  0  0  0  0
    8.7838  -17.9677   26.2347 O   0  0  0  0  0  0  0  0  0  0  0  0
   10.6965  -16.9428   26.8178 O   0  0  0  0  0  0  0  0  0  0  0  0
  2  3  2  0
  2  1  1  0
  4  2  1  0
  5  4  1  0
  5  6  1  1
  7  8  2  0
  7  5  1  0
  9  7  1  0
 10  9  1  0
 11 10  1  0
 11 12  2  0
 13 11  1  0
 14 13  1  0
 14 25  1  0
 14 15  1  1
 16 15  1  0
 17 16  2  0
 18 17  1  0
 19 18  1  0
 19 24  2  0
 20 21  2  0
 20 19  1  0
 21 22  1  0
 22 23  2  0
 24 23  1  0
 24 16  1  0
 25 27  1  0
 26 25  2  0
M  END
$$$$
