NGW.pdb
     RDKit          3D

 27 28  0  0  1  0  0  0  0  0999 V2000
   12.5055  -18.5981   16.7624 N   0  0  0  0  0  0  0  0  0  0  0  0
   12.4591  -17.7414   17.9001 C   0  0  0  0  0  0  0  0  0  0  0  0
   13.5323  -17.3795   18.4252 O   0  0  0  0  0  0  0  0  0  0  0  0
   11.1824  -17.2695   18.4759 C   0  0  0  0  0  0  0  0  0  0  0  0
   11.1884  -17.4743   19.9558 C   0  0  2  0  0  0  0  0  0  0  0  0
   10.7150  -18.7982   20.2484 N   0  0  0  0  0  0  0  0  0  0  0  0
   10.3641  -16.4273   20.6312 C   0  0  0  0  0  0  0  0  0  0  0  0
   10.7949  -15.2474   20.6698 O   0  0  0  0  0  0  0  0  0  0  0  0
    9.1169  -16.7067   21.2307 N   0  0  0  0  0  0  0  0  0  0  0  0
    8.2980  -15.6833   21.8652 C   0  0  0  0  0  0  0  0  0  0  0  0
    8.5641  -15.7753   23.3366 C   0  0  0  0  0  0  0  0  0  0  0  0
    7.7325  -15.3269   24.1892 O   0  0  0  0  0  0  0  0  0  0  0  0
    9.7458  -16.3613   23.8489 N   0  0  0  0  0  0  0  0  0  0  0  0
   10.0373  -16.3193   25.2899 C   0  0  1  0  0  0  0  0  0  0  0  0
    9.6138  -15.0011   25.8672 C   0  0  0  0  0  0  0  0  0  0  0  0
    8.1984  -14.7182   25.8990 C   0  0  0  0  0  0  0  0  0  0  0  0
    7.2040  -15.7073   25.8654 C   0  0  0  0  0  0  0  0  0  0  0  0
    6.0011  -15.1318   25.9430 N   0  0  0  0  0  0  0  0  0  0  0  0
    6.1411  -13.8010   26.0264 C   0  0  0  0  0  0  0  0  0  0  0  0
    5.2219  -12.7820   26.1164 C   0  0  0  0  0  0  0  0  0  0  0  0
    5.6593  -11.4720   26.1798 C   0  0  0  0  0  0  0  0  0  0  0  0
    6.9862  -11.1844   26.1535 C   0  0  0  0  0  0  0  0  0  0  0  0
    7.9030  -12.2157   26.0630 C   0  0  0  0  0  0  0  0  0  0  0  0
    7.5174  -13.5392   25.9985 C   0  0  0  0  0  0  0  0  0  0  0  0
    9.5134  -17.5204   25.9020 C   0  0  0  0  0  0  0  0  0  0  0  0
    9.5490  -17.7180   27.1412 O   0  0  0  0  0  0  0  0  0  0  0  0
    8.9399  -18.5216   25.1332 O   0  0  0  0  0  0  0  0  0  0  0  0
  2  3  2  0
  2  1  1  0
  4  2  1  0
  5  4  1  0
  5  6  1  6
  7  8  2  0
  7  5  1  0
  9  7  1  0
 10  9  1  0
 11 10  1  0
 11 12  2  0
 13 11  1  0
 14 13  1  0
 14 25  1  0
 14 15  1  1
 16 15  1  0
 17 16  2  0
 18 17  1  0
 19 18  1  0
 19 24  2  0
 20 21  2  0
 20 19  1  0
 21 22  1  0
 22 23  2  0
 24 23  1  0
 24 16  1  0
 25 27  1  0
 26 25  2  0
M  END
$$$$
