NGW.pdb
     RDKit          3D

 27 28  0  0  1  0  0  0  0  0999 V2000
    3.4249  -19.7392   20.2495 N   0  0  0  0  0  0  0  0  0  0  0  0
    4.6250  -19.4259   19.5480 C   0  0  0  0  0  0  0  0  0  0  0  0
    5.0441  -20.2252   18.6855 O   0  0  0  0  0  0  0  0  0  0  0  0
    5.3868  -18.1869   19.8099 C   0  0  0  0  0  0  0  0  0  0  0  0
    6.8207  -18.5190   20.0660 C   0  0  2  0  0  0  0  0  0  0  0  0
    6.9234  -19.2280   21.3106 N   0  0  0  0  0  0  0  0  0  0  0  0
    7.6527  -17.2781   20.0629 C   0  0  0  0  0  0  0  0  0  0  0  0
    7.7749  -16.6324   18.9917 O   0  0  0  0  0  0  0  0  0  0  0  0
    8.3106  -16.7972   21.2156 N   0  0  0  0  0  0  0  0  0  0  0  0
    9.0349  -15.5343   21.2432 C   0  0  0  0  0  0  0  0  0  0  0  0
    9.5819  -15.3862   22.6300 C   0  0  0  0  0  0  0  0  0  0  0  0
   10.2631  -14.3656   22.9677 O   0  0  0  0  0  0  0  0  0  0  0  0
    9.3703  -16.3673   23.6275 N   0  0  0  0  0  0  0  0  0  0  0  0
   10.0333  -16.2586   24.9358 C   0  0  1  0  0  0  0  0  0  0  0  0
    9.0126  -16.2327   26.0348 C   0  0  0  0  0  0  0  0  0  0  0  0
    7.8453  -15.4075   25.8326 C   0  0  0  0  0  0  0  0  0  0  0  0
    6.6060  -15.9016   25.3988 C   0  0  0  0  0  0  0  0  0  0  0  0
    5.7229  -14.9011   25.3426 N   0  0  0  0  0  0  0  0  0  0  0  0
    6.3118  -13.7567   25.7180 C   0  0  0  0  0  0  0  0  0  0  0  0
    5.8405  -12.4688   25.8208 C   0  0  0  0  0  0  0  0  0  0  0  0
    6.6924  -11.4612   26.2337 C   0  0  0  0  0  0  0  0  0  0  0  0
    7.9878  -11.7326   26.5375 C   0  0  0  0  0  0  0  0  0  0  0  0
    8.4526  -13.0307   26.4314 C   0  0  0  0  0  0  0  0  0  0  0  0
    7.6423  -14.0714   26.0252 C   0  0  0  0  0  0  0  0  0  0  0  0
   11.0753  -17.2588   25.0099 C   0  0  0  0  0  0  0  0  0  0  0  0
   11.2537  -18.1164   24.1107 O   0  0  0  0  0  0  0  0  0  0  0  0
   11.9360  -17.3139   26.0954 O   0  0  0  0  0  0  0  0  0  0  0  0
  2  3  2  0
  2  1  1  0
  4  2  1  0
  5  4  1  0
  5  6  1  1
  7  8  2  0
  7  5  1  0
  9  7  1  0
 10  9  1  0
 11 10  1  0
 11 12  2  0
 13 11  1  0
 14 13  1  0
 14 25  1  0
 14 15  1  1
 16 15  1  0
 17 16  2  0
 18 17  1  0
 19 18  1  0
 19 24  2  0
 20 21  2  0
 20 19  1  0
 21 22  1  0
 22 23  2  0
 24 23  1  0
 24 16  1  0
 25 27  1  0
 26 25  2  0
M  END
$$$$
