NGW.pdb
     RDKit          3D

 27 28  0  0  1  0  0  0  0  0999 V2000
    8.5398  -15.1254   14.8132 N   0  0  0  0  0  0  0  0  0  0  0  0
    8.6951  -16.3755   15.4794 C   0  0  0  0  0  0  0  0  0  0  0  0
    9.4408  -17.2390   14.9726 O   0  0  0  0  0  0  0  0  0  0  0  0
    8.0020  -16.6800   16.7486 C   0  0  0  0  0  0  0  0  0  0  0  0
    8.9688  -16.6005   17.8849 C   0  0  2  0  0  0  0  0  0  0  0  0
    9.5721  -17.8893   18.0790 N   0  0  0  0  0  0  0  0  0  0  0  0
    8.2836  -16.1158   19.1207 C   0  0  0  0  0  0  0  0  0  0  0  0
    7.9467  -14.9072   19.1931 O   0  0  0  0  0  0  0  0  0  0  0  0
    7.9967  -16.9595   20.2154 N   0  0  0  0  0  0  0  0  0  0  0  0
    7.2925  -16.4999   21.4043 C   0  0  0  0  0  0  0  0  0  0  0  0
    8.3289  -15.9180   22.3161 C   0  0  0  0  0  0  0  0  0  0  0  0
    8.8843  -14.8019   22.0604 O   0  0  0  0  0  0  0  0  0  0  0  0
    8.7399  -16.5759   23.4996 N   0  0  0  0  0  0  0  0  0  0  0  0
    9.8151  -16.0152   24.3319 C   0  0  1  0  0  0  0  0  0  0  0  0
    9.2872  -15.6550   25.6890 C   0  0  0  0  0  0  0  0  0  0  0  0
    8.0482  -14.9156   25.7409 C   0  0  0  0  0  0  0  0  0  0  0  0
    6.7801  -15.5151   25.7140 C   0  0  0  0  0  0  0  0  0  0  0  0
    5.8397  -14.5715   25.8107 N   0  0  0  0  0  0  0  0  0  0  0  0
    6.4174  -13.3650   25.9005 C   0  0  0  0  0  0  0  0  0  0  0  0
    5.8927  -12.0983   26.0087 C   0  0  0  0  0  0  0  0  0  0  0  0
    6.7435  -11.0106   26.0745 C   0  0  0  0  0  0  0  0  0  0  0  0
    8.0899  -11.1827   26.0328 C   0  0  0  0  0  0  0  0  0  0  0  0
    8.6082  -12.4602   25.9241 C   0  0  0  0  0  0  0  0  0  0  0  0
    7.8017  -13.5780   25.8564 C   0  0  0  0  0  0  0  0  0  0  0  0
   10.9572  -16.9002   24.2682 C   0  0  0  0  0  0  0  0  0  0  0  0
   12.0908  -16.5723   24.6965 O   0  0  0  0  0  0  0  0  0  0  0  0
   10.8470  -18.1698   23.7222 O   0  0  0  0  0  0  0  0  0  0  0  0
  2  3  2  0
  2  1  1  0
  4  2  1  0
  5  4  1  0
  5  6  1  1
  7  8  2  0
  7  5  1  0
  9  7  1  0
 10  9  1  0
 11 10  1  0
 11 12  2  0
 13 11  1  0
 14 13  1  0
 14 25  1  0
 14 15  1  1
 16 15  1  0
 17 16  2  0
 18 17  1  0
 19 18  1  0
 19 24  2  0
 20 21  2  0
 20 19  1  0
 21 22  1  0
 22 23  2  0
 24 23  1  0
 24 16  1  0
 25 27  1  0
 26 25  2  0
M  END
$$$$
