VRK.pdb
     RDKit          3D

 28 27  0  0  1  0  0  0  0  0999 V2000
   10.8206  -23.1180   15.9647 C   0  0  0  0  0  0  0  0  0  0  0  0
   11.0453  -22.0702   17.0031 C   0  0  2  0  0  0  0  0  0  0  0  0
   10.8240  -22.6373   18.3875 C   0  0  0  0  0  0  0  0  0  0  0  0
   10.1629  -20.8547   16.7996 C   0  0  2  0  0  0  0  0  0  0  0  0
   10.5676  -20.2395   15.5528 N   0  0  0  0  0  0  0  0  0  0  0  0
   10.3428  -19.8589   17.8773 C   0  0  0  0  0  0  0  0  0  0  0  0
   11.4820  -19.3793   18.0785 O   0  0  0  0  0  0  0  0  0  0  0  0
    7.9134  -12.1323   22.4939 N   0  0  0  0  0  0  0  0  0  0  0  0
    8.0655  -13.0711   21.4181 C   0  0  0  0  0  0  0  0  0  0  0  0
    8.1027  -12.6446   20.2222 N   0  0  0  0  0  0  0  0  0  0  0  0
    8.1745  -14.4544   21.6744 N   0  0  0  0  0  0  0  0  0  0  0  0
    8.0642  -15.4534   20.6368 C   0  0  0  0  0  0  0  0  0  0  0  0
    8.2297  -16.8494   21.2462 C   0  0  0  0  0  0  0  0  0  0  0  0
    8.1410  -17.8165   20.1002 C   0  0  0  0  0  0  0  0  0  0  0  0
    9.4935  -18.4740   19.8091 C   0  0  2  0  0  0  0  0  0  0  0  0
    9.2924  -19.4077   18.7076 N   0  0  0  0  0  0  0  0  0  0  0  0
   10.0352  -19.1703   21.0049 C   0  0  0  0  0  0  0  0  0  0  0  0
    9.4503  -20.2048   21.4560 O   0  0  0  0  0  0  0  0  0  0  0  0
    8.2503  -13.2697   19.4064 N   0  0  0  0  0  0  0  0  0  0  0  0
   11.1779  -18.7267   21.6615 C   0  0  2  0  0  0  0  0  0  0  0  0
   11.8198  -19.4699   22.7981 C   0  0  0  0  0  0  0  0  0  0  0  0
   13.2586  -19.1018   22.6203 C   0  0  0  0  0  0  0  0  0  0  0  0
   14.3521  -20.0192   22.8813 C   0  0  0  0  0  0  0  0  0  0  0  0
   15.7327  -19.5589   22.6445 C   0  0  0  0  0  0  0  0  0  0  0  0
   16.7311  -20.7127   22.9686 N   0  0  0  0  0  0  0  0  0  0  0  0
   17.5655  -20.8463   21.7902 C   0  0  0  0  0  0  0  0  0  0  0  0
   11.1505  -18.8498   23.9695 O   0  0  0  0  0  0  0  0  0  0  0  0
   11.0183  -19.3887   25.2293 O   0  0  0  0  0  0  0  0  0  0  0  0
  2  1  1  6
  3  2  1  0
  4  5  1  6
  4  2  1  0
  6  4  1  0
  7  6  2  0
  9 10  2  0
  9  8  1  0
 11  9  1  0
 12 11  1  0
 12 13  1  0
 14 13  1  0
 15 14  1  1
 15 16  1  0
 16  6  1  0
 17 15  1  0
 17 18  2  0
 19 17  1  0
 20 19  1  0
 20 26  1  0
 20 21  1  6
 22 21  1  0
 23 22  1  0
 24 23  1  0
 24 25  1  0
 26 27  1  0
 28 26  2  0
M  END
$$$$
