VRK.pdb
     RDKit          3D

 28 27  0  0  1  0  0  0  0  0999 V2000
    7.0397  -11.6447   24.9509 C   0  0  0  0  0  0  0  0  0  0  0  0
    6.1570  -12.2773   25.9743 C   0  0  2  0  0  0  0  0  0  0  0  0
    5.7322  -11.2618   27.0113 C   0  0  0  0  0  0  0  0  0  0  0  0
    6.8156  -13.4608   26.6550 C   0  0  2  0  0  0  0  0  0  0  0  0
    8.0643  -12.9881   27.2153 N   0  0  0  0  0  0  0  0  0  0  0  0
    7.1276  -14.5419   25.6963 C   0  0  0  0  0  0  0  0  0  0  0  0
    6.5318  -15.6385   25.8009 O   0  0  0  0  0  0  0  0  0  0  0  0
    8.8701  -14.1143   17.8822 N   0  0  0  0  0  0  0  0  0  0  0  0
    8.6425  -13.3333   19.0654 C   0  0  0  0  0  0  0  0  0  0  0  0
    9.0444  -12.1289   19.1014 N   0  0  0  0  0  0  0  0  0  0  0  0
    7.9799  -13.8865   20.1817 N   0  0  0  0  0  0  0  0  0  0  0  0
    7.3067  -15.1638   20.1380 C   0  0  0  0  0  0  0  0  0  0  0  0
    7.3827  -15.8334   21.5140 C   0  0  0  0  0  0  0  0  0  0  0  0
    8.3265  -14.9980   22.3314 C   0  0  0  0  0  0  0  0  0  0  0  0
    8.4372  -15.5133   23.7696 C   0  0  2  0  0  0  0  0  0  0  0  0
    8.0713  -14.4126   24.6528 N   0  0  0  0  0  0  0  0  0  0  0  0
    9.8056  -16.0069   24.0731 C   0  0  0  0  0  0  0  0  0  0  0  0
   10.7365  -15.1798   24.3281 O   0  0  0  0  0  0  0  0  0  0  0  0
    8.9873  -11.5422   19.9561 N   0  0  0  0  0  0  0  0  0  0  0  0
   10.1131  -17.3630   24.0896 C   0  0  1  0  0  0  0  0  0  0  0  0
   11.4723  -17.8986   24.4391 C   0  0  0  0  0  0  0  0  0  0  0  0
   11.1200  -19.1758   25.1332 C   0  0  0  0  0  0  0  0  0  0  0  0
   11.3491  -19.4012   26.5481 C   0  0  0  0  0  0  0  0  0  0  0  0
   10.8751  -20.6615   27.1489 C   0  0  0  0  0  0  0  0  0  0  0  0
   11.2097  -20.6724   28.6724 N   0  0  0  0  0  0  0  0  0  0  0  0
   10.6742  -21.9214   29.1784 C   0  0  0  0  0  0  0  0  0  0  0  0
   12.0795  -18.0589   23.0937 O   0  0  0  0  0  0  0  0  0  0  0  0
   13.4207  -18.0476   22.7834 O   0  0  0  0  0  0  0  0  0  0  0  0
  2  1  1  6
  3  2  1  0
  4  5  1  6
  4  2  1  0
  6  4  1  0
  7  6  2  0
  9 10  2  0
  9  8  1  0
 11  9  1  0
 12 11  1  0
 12 13  1  0
 14 13  1  0
 15 14  1  6
 15 16  1  0
 16  6  1  0
 17 15  1  0
 17 18  2  0
 19 17  1  0
 20 19  1  0
 20 26  1  0
 20 21  1  1
 22 21  1  0
 23 22  1  0
 24 23  1  0
 24 25  1  0
 26 27  1  0
 28 26  2  0
M  END
$$$$
