VRK.pdb
     RDKit          3D

 28 27  0  0  1  0  0  0  0  0999 V2000
   16.3275  -22.6230   12.3982 C   0  0  0  0  0  0  0  0  0  0  0  0
   15.0980  -23.2989   11.8902 C   0  0  2  0  0  0  0  0  0  0  0  0
   15.0908  -23.3236   10.3781 C   0  0  0  0  0  0  0  0  0  0  0  0
   13.8272  -22.6476   12.3986 C   0  0  2  0  0  0  0  0  0  0  0  0
   13.7807  -21.3126   11.8398 N   0  0  0  0  0  0  0  0  0  0  0  0
   13.8248  -22.5241   13.8718 C   0  0  0  0  0  0  0  0  0  0  0  0
   14.2297  -21.4602   14.3937 O   0  0  0  0  0  0  0  0  0  0  0  0
    8.5396  -26.4932   18.3686 N   0  0  0  0  0  0  0  0  0  0  0  0
    8.0979  -25.3102   17.6851 C   0  0  0  0  0  0  0  0  0  0  0  0
    6.8663  -25.1789   17.4032 N   0  0  0  0  0  0  0  0  0  0  0  0
    9.0126  -24.2974   17.3262 N   0  0  0  0  0  0  0  0  0  0  0  0
   10.4192  -24.3636   17.6481 C   0  0  0  0  0  0  0  0  0  0  0  0
   11.2374  -24.4880   16.3588 C   0  0  0  0  0  0  0  0  0  0  0  0
   12.6732  -24.5988   16.7865 C   0  0  0  0  0  0  0  0  0  0  0  0
   13.5290  -23.4770   16.1903 C   0  0  2  0  0  0  0  0  0  0  0  0
   13.3870  -23.5483   14.7411 N   0  0  0  0  0  0  0  0  0  0  0  0
   14.9544  -23.6000   16.5921 C   0  0  0  0  0  0  0  0  0  0  0  0
   15.6902  -24.4877   16.0568 O   0  0  0  0  0  0  0  0  0  0  0  0
    6.4912  -24.3580   16.8900 N   0  0  0  0  0  0  0  0  0  0  0  0
   15.5253  -22.7667   17.5478 C   0  0  2  0  0  0  0  0  0  0  0  0
   16.9739  -22.8291   17.9402 C   0  0  0  0  0  0  0  0  0  0  0  0
   17.3013  -21.3788   18.1034 C   0  0  0  0  0  0  0  0  0  0  0  0
   18.6140  -20.8990   18.4934 C   0  0  0  0  0  0  0  0  0  0  0  0
   18.8118  -19.4490   18.6736 C   0  0  0  0  0  0  0  0  0  0  0  0
   20.2499  -19.1811   19.2151 N   0  0  0  0  0  0  0  0  0  0  0  0
   20.4130  -17.7405   19.1870 C   0  0  0  0  0  0  0  0  0  0  0  0
   16.9026  -23.6053   19.2039 O   0  0  0  0  0  0  0  0  0  0  0  0
   15.7889  -23.8156   19.9853 O   0  0  0  0  0  0  0  0  0  0  0  0
  2  1  1  6
  3  2  1  0
  4  5  1  6
  4  2  1  0
  6  4  1  0
  7  6  2  0
  9 10  2  0
  9  8  1  0
 11  9  1  0
 12 11  1  0
 12 13  1  0
 14 13  1  0
 15 14  1  1
 15 16  1  0
 16  6  1  0
 17 15  1  0
 17 18  2  0
 19 17  1  0
 20 19  1  0
 20 26  1  0
 20 21  1  6
 22 21  1  0
 23 22  1  0
 24 23  1  0
 24 25  1  0
 26 27  1  0
 28 26  2  0
M  END
$$$$
