VRK.pdb
     RDKit          3D

 28 27  0  0  1  0  0  0  0  0999 V2000
    5.3863  -12.0857   25.4579 C   0  0  0  0  0  0  0  0  0  0  0  0
    6.4102  -12.5721   26.4282 C   0  0  2  0  0  0  0  0  0  0  0  0
    7.7708  -12.0011   26.0966 C   0  0  0  0  0  0  0  0  0  0  0  0
    6.4874  -14.0850   26.4790 C   0  0  2  0  0  0  0  0  0  0  0  0
    7.5424  -14.4258   27.4104 N   0  0  0  0  0  0  0  0  0  0  0  0
    6.8382  -14.6615   25.1637 C   0  0  0  0  0  0  0  0  0  0  0  0
    6.2871  -15.7252   24.7991 O   0  0  0  0  0  0  0  0  0  0  0  0
    7.2814  -14.4424   16.9316 N   0  0  0  0  0  0  0  0  0  0  0  0
    8.5878  -14.2912   17.5081 C   0  0  0  0  0  0  0  0  0  0  0  0
    9.4837  -15.1542   17.2514 N   0  0  0  0  0  0  0  0  0  0  0  0
    8.8850  -13.1994   18.3512 N   0  0  0  0  0  0  0  0  0  0  0  0
    8.1954  -12.9635   19.5983 C   0  0  0  0  0  0  0  0  0  0  0  0
    8.5931  -14.0360   20.6177 C   0  0  0  0  0  0  0  0  0  0  0  0
    8.0383  -13.5812   21.9375 C   0  0  0  0  0  0  0  0  0  0  0  0
    8.1419  -14.6774   23.0024 C   0  0  2  0  0  0  0  0  0  0  0  0
    7.7716  -14.0772   24.2784 N   0  0  0  0  0  0  0  0  0  0  0  0
    9.5087  -15.2573   23.0637 C   0  0  0  0  0  0  0  0  0  0  0  0
   10.4614  -14.5843   23.5690 O   0  0  0  0  0  0  0  0  0  0  0  0
    9.4436  -15.7769   16.4216 N   0  0  0  0  0  0  0  0  0  0  0  0
    9.7915  -16.5305   22.5814 C   0  0  2  0  0  0  0  0  0  0  0  0
   11.0984  -17.2326   22.8167 C   0  0  0  0  0  0  0  0  0  0  0  0
   10.7051  -18.2647   23.8253 C   0  0  0  0  0  0  0  0  0  0  0  0
   10.9307  -18.1105   25.2503 C   0  0  0  0  0  0  0  0  0  0  0  0
   10.4919  -19.1879   26.1561 C   0  0  0  0  0  0  0  0  0  0  0  0
   10.7032  -18.7443   27.6366 N   0  0  0  0  0  0  0  0  0  0  0  0
   10.1898  -19.8334   28.4449 C   0  0  0  0  0  0  0  0  0  0  0  0
   11.3976  -17.7582   21.4606 O   0  0  0  0  0  0  0  0  0  0  0  0
   12.3962  -17.3384   20.6112 O   0  0  0  0  0  0  0  0  0  0  0  0
  2  1  1  6
  3  2  1  0
  4  5  1  1
  4  2  1  0
  6  4  1  0
  7  6  2  0
  9 10  2  0
  9  8  1  0
 11  9  1  0
 12 11  1  0
 12 13  1  0
 14 13  1  0
 15 14  1  6
 15 16  1  0
 16  6  1  0
 17 15  1  0
 17 18  2  0
 19 17  1  0
 20 19  1  0
 20 26  1  0
 20 21  1  1
 22 21  1  0
 23 22  1  0
 24 23  1  0
 24 25  1  0
 26 27  1  0
 28 26  2  0
M  END
$$$$
