VRK.pdb
     RDKit          3D

 28 27  0  0  1  0  0  0  0  0999 V2000
    8.0405  -14.9261   17.8808 C   0  0  0  0  0  0  0  0  0  0  0  0
    7.4998  -13.7528   18.6275 C   0  0  2  0  0  0  0  0  0  0  0  0
    7.3684  -12.5552   17.7134 C   0  0  0  0  0  0  0  0  0  0  0  0
    8.3490  -13.3900   19.8294 C   0  0  2  0  0  0  0  0  0  0  0  0
    9.6422  -12.9755   19.3268 N   0  0  0  0  0  0  0  0  0  0  0  0
    8.5588  -14.5485   20.7235 C   0  0  0  0  0  0  0  0  0  0  0  0
    7.5821  -15.0163   21.3524 O   0  0  0  0  0  0  0  0  0  0  0  0
   12.9970  -15.1815   17.9578 N   0  0  0  0  0  0  0  0  0  0  0  0
   14.1667  -15.1238   18.7887 C   0  0  0  0  0  0  0  0  0  0  0  0
   14.9440  -14.1233   18.6985 N   0  0  0  0  0  0  0  0  0  0  0  0
   14.4592  -16.1607   19.6999 N   0  0  0  0  0  0  0  0  0  0  0  0
   13.4355  -16.9716   20.3173 C   0  0  0  0  0  0  0  0  0  0  0  0
   12.2585  -16.0846   20.7359 C   0  0  0  0  0  0  0  0  0  0  0  0
   11.3000  -16.9824   21.4651 C   0  0  0  0  0  0  0  0  0  0  0  0
   10.0340  -16.2320   21.8899 C   0  0  2  0  0  0  0  0  0  0  0  0
    9.8128  -15.1706   20.9152 N   0  0  0  0  0  0  0  0  0  0  0  0
   10.1584  -15.6766   23.2626 C   0  0  0  0  0  0  0  0  0  0  0  0
   11.0737  -14.8347   23.5259 O   0  0  0  0  0  0  0  0  0  0  0  0
   15.7555  -13.9826   19.3307 N   0  0  0  0  0  0  0  0  0  0  0  0
    9.2969  -16.0483   24.2889 C   0  0  1  0  0  0  0  0  0  0  0  0
    9.3915  -15.5043   25.6859 C   0  0  0  0  0  0  0  0  0  0  0  0
    8.0797  -14.7984   25.8204 C   0  0  0  0  0  0  0  0  0  0  0  0
    7.9406  -13.4874   26.4264 C   0  0  0  0  0  0  0  0  0  0  0  0
    6.5898  -12.9135   26.5672 C   0  0  0  0  0  0  0  0  0  0  0  0
    6.6946  -11.4625   27.1302 N   0  0  0  0  0  0  0  0  0  0  0  0
    5.3272  -10.9985   27.2638 C   0  0  0  0  0  0  0  0  0  0  0  0
    9.5199  -16.7528   26.4791 O   0  0  0  0  0  0  0  0  0  0  0  0
    9.9877  -16.8708   27.7684 O   0  0  0  0  0  0  0  0  0  0  0  0
  2  1  1  6
  3  2  1  0
  4  5  1  6
  4  2  1  0
  6  4  1  0
  7  6  2  0
  9 10  2  0
  9  8  1  0
 11  9  1  0
 12 11  1  0
 12 13  1  0
 14 13  1  0
 15 14  1  6
 15 16  1  0
 16  6  1  0
 17 15  1  0
 17 18  2  0
 19 17  1  0
 20 19  1  0
 20 26  1  0
 20 21  1  1
 22 21  1  0
 23 22  1  0
 24 23  1  0
 24 25  1  0
 26 27  1  0
 28 26  2  0
M  END
$$$$
