VRK.pdb
     RDKit          3D

 28 27  0  0  1  0  0  0  0  0999 V2000
    7.2441  -12.6815   20.9313 C   0  0  0  0  0  0  0  0  0  0  0  0
    8.0097  -12.7446   19.6521 C   0  0  2  0  0  0  0  0  0  0  0  0
    7.4288  -13.7983   18.7359 C   0  0  0  0  0  0  0  0  0  0  0  0
    9.4850  -13.0136   19.8729 C   0  0  2  0  0  0  0  0  0  0  0  0
   10.1220  -12.9826   18.5728 N   0  0  0  0  0  0  0  0  0  0  0  0
    9.7175  -14.3497   20.4613 C   0  0  0  0  0  0  0  0  0  0  0  0
    9.2611  -14.6006   21.6002 O   0  0  0  0  0  0  0  0  0  0  0  0
    9.4848  -17.9923   13.8826 N   0  0  0  0  0  0  0  0  0  0  0  0
    9.8921  -18.1989   15.2439 C   0  0  0  0  0  0  0  0  0  0  0  0
    9.0523  -18.6533   16.0815 N   0  0  0  0  0  0  0  0  0  0  0  0
   11.2087  -17.9050   15.6581 N   0  0  0  0  0  0  0  0  0  0  0  0
   11.6680  -18.1137   17.0116 C   0  0  0  0  0  0  0  0  0  0  0  0
   10.8653  -17.2282   17.9703 C   0  0  0  0  0  0  0  0  0  0  0  0
   11.3642  -17.5503   19.3501 C   0  0  0  0  0  0  0  0  0  0  0  0
   10.6887  -16.6790   20.4134 C   0  0  2  0  0  0  0  0  0  0  0  0
   10.4340  -15.3773   19.8080 N   0  0  0  0  0  0  0  0  0  0  0  0
   11.5308  -16.5443   21.6304 C   0  0  0  0  0  0  0  0  0  0  0  0
   12.4329  -15.6503   21.6820 O   0  0  0  0  0  0  0  0  0  0  0  0
    9.3009  -18.8707   17.0658 N   0  0  0  0  0  0  0  0  0  0  0  0
   11.3674  -17.3729   22.7351 C   0  0  2  0  0  0  0  0  0  0  0  0
   12.2467  -17.3125   23.9515 C   0  0  0  0  0  0  0  0  0  0  0  0
   11.3217  -17.8167   25.0133 C   0  0  0  0  0  0  0  0  0  0  0  0
   11.7655  -18.1864   26.3444 C   0  0  0  0  0  0  0  0  0  0  0  0
   10.8112  -18.8564   27.2469 C   0  0  0  0  0  0  0  0  0  0  0  0
   11.4609  -19.0365   28.6536 N   0  0  0  0  0  0  0  0  0  0  0  0
   10.4971  -19.7897   29.4325 C   0  0  0  0  0  0  0  0  0  0  0  0
   13.3379  -18.2448   23.5714 O   0  0  0  0  0  0  0  0  0  0  0  0
   14.6424  -18.2161   24.0101 O   0  0  0  0  0  0  0  0  0  0  0  0
  2  1  1  1
  3  2  1  0
  4  5  1  6
  4  2  1  0
  6  4  1  0
  7  6  2  0
  9 10  2  0
  9  8  1  0
 11  9  1  0
 12 11  1  0
 12 13  1  0
 14 13  1  0
 15 14  1  6
 15 16  1  0
 16  6  1  0
 17 15  1  0
 17 18  2  0
 19 17  1  0
 20 19  1  0
 20 26  1  0
 20 21  1  1
 22 21  1  0
 23 22  1  0
 24 23  1  0
 24 25  1  0
 26 27  1  0
 28 26  2  0
M  END
$$$$
