VRK.pdb
     RDKit          3D

 28 27  0  0  1  0  0  0  0  0999 V2000
    6.6640  -11.5469   25.5862 C   0  0  0  0  0  0  0  0  0  0  0  0
    6.0247  -12.4440   26.5926 C   0  0  2  0  0  0  0  0  0  0  0  0
    5.9067  -11.7456   27.9289 C   0  0  0  0  0  0  0  0  0  0  0  0
    6.7732  -13.7512   26.7614 C   0  0  2  0  0  0  0  0  0  0  0  0
    8.0778  -13.4276   27.2999 N   0  0  0  0  0  0  0  0  0  0  0  0
    6.9729  -14.4404   25.4689 C   0  0  0  0  0  0  0  0  0  0  0  0
    6.0669  -15.1855   25.0304 O   0  0  0  0  0  0  0  0  0  0  0  0
    9.1724  -12.7719   17.7466 N   0  0  0  0  0  0  0  0  0  0  0  0
    8.5057  -14.0430   17.7064 C   0  0  0  0  0  0  0  0  0  0  0  0
    8.8129  -14.8772   16.7991 N   0  0  0  0  0  0  0  0  0  0  0  0
    7.5190  -14.3733   18.6596 N   0  0  0  0  0  0  0  0  0  0  0  0
    7.4631  -13.7677   19.9698 C   0  0  0  0  0  0  0  0  0  0  0  0
    8.3405  -14.5623   20.9424 C   0  0  0  0  0  0  0  0  0  0  0  0
    8.0941  -13.9722   22.3017 C   0  0  0  0  0  0  0  0  0  0  0  0
    8.3294  -14.9980   23.4147 C   0  0  2  0  0  0  0  0  0  0  0  0
    8.1412  -14.3084   24.6853 N   0  0  0  0  0  0  0  0  0  0  0  0
    9.6861  -15.5987   23.3310 C   0  0  0  0  0  0  0  0  0  0  0  0
   10.7137  -14.8509   23.3550 O   0  0  0  0  0  0  0  0  0  0  0  0
    8.4293  -15.8415   16.7683 N   0  0  0  0  0  0  0  0  0  0  0  0
    9.8789  -16.9719   23.2260 C   0  0  2  0  0  0  0  0  0  0  0  0
   11.2354  -17.6150   23.1745 C   0  0  0  0  0  0  0  0  0  0  0  0
   11.0059  -18.8593   23.9722 C   0  0  0  0  0  0  0  0  0  0  0  0
   11.0649  -18.8968   25.4216 C   0  0  0  0  0  0  0  0  0  0  0  0
   10.6724  -20.1386   26.1130 C   0  0  0  0  0  0  0  0  0  0  0  0
   10.7440  -19.9223   27.6562 N   0  0  0  0  0  0  0  0  0  0  0  0
   10.3555  -21.1898   28.2439 C   0  0  0  0  0  0  0  0  0  0  0  0
   11.4057  -17.8246   21.7146 O   0  0  0  0  0  0  0  0  0  0  0  0
   10.4170  -18.0940   20.7954 O   0  0  0  0  0  0  0  0  0  0  0  0
  2  1  1  6
  3  2  1  0
  4  5  1  6
  4  2  1  0
  6  4  1  0
  7  6  2  0
  9 10  2  0
  9  8  1  0
 11  9  1  0
 12 11  1  0
 12 13  1  0
 14 13  1  0
 15 14  1  6
 15 16  1  0
 16  6  1  0
 17 15  1  0
 17 18  2  0
 19 17  1  0
 20 19  1  0
 20 26  1  0
 20 21  1  1
 22 21  1  0
 23 22  1  0
 24 23  1  0
 24 25  1  0
 26 27  1  0
 28 26  2  0
M  END
$$$$
