VRK.pdb
     RDKit          3D

 28 27  0  0  1  0  0  0  0  0999 V2000
    5.0968  -21.1307   21.9773 C   0  0  0  0  0  0  0  0  0  0  0  0
    5.7041  -21.7505   23.1912 C   0  0  2  0  0  0  0  0  0  0  0  0
    4.6625  -22.5174   23.9747 C   0  0  0  0  0  0  0  0  0  0  0  0
    6.3729  -20.7293   24.0898 C   0  0  2  0  0  0  0  0  0  0  0  0
    5.3193  -19.9481   24.7032 N   0  0  0  0  0  0  0  0  0  0  0  0
    7.2366  -19.8058   23.3238 C   0  0  0  0  0  0  0  0  0  0  0  0
    8.2607  -20.2564   22.7612 O   0  0  0  0  0  0  0  0  0  0  0  0
    8.5310  -11.9975   18.0942 N   0  0  0  0  0  0  0  0  0  0  0  0
    7.9013  -13.1232   18.7251 C   0  0  0  0  0  0  0  0  0  0  0  0
    7.4265  -14.0545   18.0034 N   0  0  0  0  0  0  0  0  0  0  0  0
    7.8060  -13.2056   20.1306 N   0  0  0  0  0  0  0  0  0  0  0  0
    7.0342  -14.2241   20.8040 C   0  0  0  0  0  0  0  0  0  0  0  0
    7.9770  -15.2708   21.4065 C   0  0  0  0  0  0  0  0  0  0  0  0
    7.0951  -16.3279   22.0075 C   0  0  0  0  0  0  0  0  0  0  0  0
    7.9134  -17.4934   22.5717 C   0  0  2  0  0  0  0  0  0  0  0  0
    6.9739  -18.4245   23.1850 N   0  0  0  0  0  0  0  0  0  0  0  0
    8.9234  -17.0295   23.5581 C   0  0  0  0  0  0  0  0  0  0  0  0
    8.5560  -16.6670   24.7198 O   0  0  0  0  0  0  0  0  0  0  0  0
    7.0344  -14.9298   18.4009 N   0  0  0  0  0  0  0  0  0  0  0  0
   10.2794  -16.9759   23.2547 C   0  0  1  0  0  0  0  0  0  0  0  0
   11.3433  -16.6758   24.2718 C   0  0  0  0  0  0  0  0  0  0  0  0
   11.3600  -17.9419   25.0681 C   0  0  0  0  0  0  0  0  0  0  0  0
   11.9935  -18.0549   26.3686 C   0  0  0  0  0  0  0  0  0  0  0  0
   12.0245  -19.3736   27.0275 C   0  0  0  0  0  0  0  0  0  0  0  0
   12.8433  -19.2769   28.3517 N   0  0  0  0  0  0  0  0  0  0  0  0
   12.8409  -20.6161   28.9080 C   0  0  0  0  0  0  0  0  0  0  0  0
   12.5281  -16.4619   23.4030 O   0  0  0  0  0  0  0  0  0  0  0  0
   13.6583  -15.7370   23.7069 O   0  0  0  0  0  0  0  0  0  0  0  0
  2  1  1  6
  3  2  1  0
  4  5  1  6
  4  2  1  0
  6  4  1  0
  7  6  2  0
  9 10  2  0
  9  8  1  0
 11  9  1  0
 12 11  1  0
 12 13  1  0
 14 13  1  0
 15 14  1  1
 15 16  1  0
 16  6  1  0
 17 15  1  0
 17 18  2  0
 19 17  1  0
 20 19  1  0
 20 26  1  0
 20 21  1  1
 22 21  1  0
 23 22  1  0
 24 23  1  0
 24 25  1  0
 26 27  1  0
 28 26  2  0
M  END
$$$$
