VRK.pdb
     RDKit          3D

 28 27  0  0  1  0  0  0  0  0999 V2000
    8.4940  -12.8772   27.0182 C   0  0  0  0  0  0  0  0  0  0  0  0
    7.4846  -12.3365   26.0615 C   0  0  2  0  0  0  0  0  0  0  0  0
    6.7017  -11.2085   26.6953 C   0  0  0  0  0  0  0  0  0  0  0  0
    6.5320  -13.4037   25.5602 C   0  0  2  0  0  0  0  0  0  0  0  0
    5.8590  -13.9513   26.7196 N   0  0  0  0  0  0  0  0  0  0  0  0
    7.2489  -14.5075   24.8872 C   0  0  0  0  0  0  0  0  0  0  0  0
    7.1972  -15.6571   25.3812 O   0  0  0  0  0  0  0  0  0  0  0  0
    8.4949  -12.5071   17.6354 N   0  0  0  0  0  0  0  0  0  0  0  0
    8.4512  -13.9423   17.6299 C   0  0  0  0  0  0  0  0  0  0  0  0
    8.4738  -14.5603   16.5203 N   0  0  0  0  0  0  0  0  0  0  0  0
    8.3849  -14.6692   18.8376 N   0  0  0  0  0  0  0  0  0  0  0  0
    7.1492  -15.2013   19.3635 C   0  0  0  0  0  0  0  0  0  0  0  0
    7.0321  -14.8565   20.8518 C   0  0  0  0  0  0  0  0  0  0  0  0
    8.4220  -14.9574   21.4126 C   0  0  0  0  0  0  0  0  0  0  0  0
    8.4127  -15.4595   22.8597 C   0  0  2  0  0  0  0  0  0  0  0  0
    8.0007  -14.3432   23.7022 N   0  0  0  0  0  0  0  0  0  0  0  0
    9.7446  -15.9740   23.2719 C   0  0  0  0  0  0  0  0  0  0  0  0
   10.3184  -16.8740   22.5817 O   0  0  0  0  0  0  0  0  0  0  0  0
    8.3032  -15.5813   16.4416 N   0  0  0  0  0  0  0  0  0  0  0  0
   10.3997  -15.5005   24.4034 C   0  0  2  0  0  0  0  0  0  0  0  0
   11.8118  -15.8707   24.7571 C   0  0  0  0  0  0  0  0  0  0  0  0
   11.6041  -17.1343   25.5301 C   0  0  0  0  0  0  0  0  0  0  0  0
   10.9959  -17.1700   26.8470 C   0  0  0  0  0  0  0  0  0  0  0  0
   10.8702  -18.4693   27.5325 C   0  0  0  0  0  0  0  0  0  0  0  0
   10.3028  -18.2495   28.9688 N   0  0  0  0  0  0  0  0  0  0  0  0
   10.1228  -19.5778   29.5223 C   0  0  0  0  0  0  0  0  0  0  0  0
   12.4150  -16.0465   23.4119 O   0  0  0  0  0  0  0  0  0  0  0  0
   11.8488  -16.6747   22.3257 O   0  0  0  0  0  0  0  0  0  0  0  0
  2  1  1  1
  3  2  1  0
  4  5  1  1
  4  2  1  0
  6  4  1  0
  7  6  2  0
  9 10  2  0
  9  8  1  0
 11  9  1  0
 12 11  1  0
 12 13  1  0
 14 13  1  0
 15 14  1  6
 15 16  1  0
 16  6  1  0
 17 15  1  0
 17 18  2  0
 19 17  1  0
 20 19  1  0
 20 26  1  0
 20 21  1  1
 22 21  1  0
 23 22  1  0
 24 23  1  0
 24 25  1  0
 26 27  1  0
 28 26  2  0
M  END
$$$$
