ILI.pdb
     RDKit          3D

 25 24  0  0  1  0  0  0  0  0999 V2000
    6.5673  -21.3398   25.9948 C   0  0  0  0  0  0  0  0  0  0  0  0
    6.1153  -20.7999   24.6658 C   0  0  0  0  0  0  0  0  0  0  0  0
    6.8729  -19.5577   24.3330 C   0  0  2  0  0  0  0  0  0  0  0  0
    6.7312  -18.5180   25.4542 C   0  0  0  0  0  0  0  0  0  0  0  0
    6.4718  -18.9095   23.0242 C   0  0  2  0  0  0  0  0  0  0  0  0
    6.6276  -19.9555   21.9758 N   0  0  0  0  0  0  0  0  0  0  0  0
    7.3359  -17.7864   22.6127 C   0  0  0  0  0  0  0  0  0  0  0  0
    8.5482  -18.0399   22.2569 O   0  0  0  0  0  0  0  0  0  0  0  0
    8.8933  -14.0661   19.6900 C   0  0  0  0  0  0  0  0  0  0  0  0
    7.4234  -14.2369   20.1353 C   0  0  2  0  0  0  0  0  0  0  0  0
    6.6753  -13.1216   19.4728 C   0  0  0  0  0  0  0  0  0  0  0  0
    7.3241  -14.2782   21.6121 C   0  0  0  0  0  0  0  0  0  0  0  0
    8.0235  -15.3784   22.3246 C   0  0  2  0  0  0  0  0  0  0  0  0
    6.9976  -16.4276   22.5530 N   0  0  0  0  0  0  0  0  0  0  0  0
    8.6338  -15.0678   23.6074 C   0  0  0  0  0  0  0  0  0  0  0  0
    9.8191  -14.5784   23.5876 O   0  0  0  0  0  0  0  0  0  0  0  0
    6.0676  -11.9976   26.5834 C   0  0  0  0  0  0  0  0  0  0  0  0
    7.1978  -12.7351   25.9064 C   0  0  0  0  0  0  0  0  0  0  0  0
    7.8739  -13.7363   26.8042 C   0  0  2  0  0  0  0  0  0  0  0  0
    8.5596  -13.0531   27.9371 C   0  0  0  0  0  0  0  0  0  0  0  0
    8.7300  -14.7357   26.0743 C   0  0  2  0  0  0  0  0  0  0  0  0
    8.0835  -15.2348   24.8849 N   0  0  0  0  0  0  0  0  0  0  0  0
    9.2682  -15.8217   26.9247 C   0  0  0  0  0  0  0  0  0  0  0  0
    9.0206  -17.1814   26.6464 O   0  0  0  0  0  0  0  0  0  0  0  0
    9.9757  -15.6422   27.9446 O   0  0  0  0  0  0  0  0  0  0  0  0
  2  1  1  0
  3  2  1  0
  3  4  1  1
  5  7  1  0
  5  3  1  0
  5  6  1  6
  7  8  2  0
 10  9  1  1
 11 10  1  0
 12 10  1  0
 13 12  1  1
 14 13  1  0
 14  7  1  0
 15 13  1  0
 15 16  2  0
 17 18  1  0
 18 19  1  0
 19 21  1  0
 19 20  1  1
 21 22  1  6
 21 23  1  0
 22 15  1  0
 23 24  1  0
 25 23  2  0
M  END
$$$$
