ILI.pdb
     RDKit          3D

 25 24  0  0  1  0  0  0  0  0999 V2000
   14.1928  -20.7767   21.1991 C   0  0  0  0  0  0  0  0  0  0  0  0
   13.2879  -19.8935   20.3846 C   0  0  0  0  0  0  0  0  0  0  0  0
   12.6838  -18.8399   21.2522 C   0  0  2  0  0  0  0  0  0  0  0  0
   11.9567  -19.4718   22.4482 C   0  0  0  0  0  0  0  0  0  0  0  0
   11.7194  -17.9157   20.5382 C   0  0  2  0  0  0  0  0  0  0  0  0
   12.5199  -17.1872   19.5153 N   0  0  0  0  0  0  0  0  0  0  0  0
   11.1190  -16.8801   21.4009 C   0  0  0  0  0  0  0  0  0  0  0  0
   11.8712  -15.9286   21.8362 O   0  0  0  0  0  0  0  0  0  0  0  0
    8.3207  -13.3426   21.1056 C   0  0  0  0  0  0  0  0  0  0  0  0
    7.6456  -14.7326   21.1029 C   0  0  2  0  0  0  0  0  0  0  0  0
    6.2013  -14.4724   20.8045 C   0  0  0  0  0  0  0  0  0  0  0  0
    7.9124  -15.4479   22.3716 C   0  0  0  0  0  0  0  0  0  0  0  0
    9.3284  -15.7112   22.7358 C   0  0  2  0  0  0  0  0  0  0  0  0
    9.7858  -16.7903   21.8237 N   0  0  0  0  0  0  0  0  0  0  0  0
    9.6045  -16.1357   24.0989 C   0  0  0  0  0  0  0  0  0  0  0  0
   10.0053  -17.3427   24.2653 O   0  0  0  0  0  0  0  0  0  0  0  0
   10.2282  -12.3759   28.1055 C   0  0  0  0  0  0  0  0  0  0  0  0
   10.4562  -13.5064   27.1310 C   0  0  0  0  0  0  0  0  0  0  0  0
    9.9150  -14.8247   27.6157 C   0  0  2  0  0  0  0  0  0  0  0  0
   10.5750  -15.2322   28.8880 C   0  0  0  0  0  0  0  0  0  0  0  0
    9.8828  -15.8995   26.5630 C   0  0  2  0  0  0  0  0  0  0  0  0
    9.4894  -15.3827   25.2746 N   0  0  0  0  0  0  0  0  0  0  0  0
    9.1215  -17.1109   26.9439 C   0  0  0  0  0  0  0  0  0  0  0  0
    7.7954  -17.3256   26.5162 O   0  0  0  0  0  0  0  0  0  0  0  0
    9.5696  -18.0358   27.6628 O   0  0  0  0  0  0  0  0  0  0  0  0
  2  1  1  0
  3  2  1  0
  3  4  1  1
  5  7  1  0
  5  3  1  0
  5  6  1  6
  7  8  2  0
 10  9  1  1
 11 10  1  0
 12 10  1  0
 13 12  1  1
 14 13  1  0
 14  7  1  0
 15 13  1  0
 15 16  2  0
 17 18  1  0
 18 19  1  0
 19 21  1  0
 19 20  1  1
 21 22  1  6
 21 23  1  0
 22 15  1  0
 23 24  1  0
 25 23  2  0
M  END
$$$$
