ILI.pdb
     RDKit          3D

 25 24  0  0  1  0  0  0  0  0999 V2000
    6.6945  -21.4611   25.6017 C   0  0  0  0  0  0  0  0  0  0  0  0
    6.4300  -20.7938   24.2801 C   0  0  0  0  0  0  0  0  0  0  0  0
    7.1734  -19.5019   24.2006 C   0  0  2  0  0  0  0  0  0  0  0  0
    6.9223  -18.6524   25.4550 C   0  0  0  0  0  0  0  0  0  0  0  0
    6.8482  -18.6646   22.9811 C   0  0  2  0  0  0  0  0  0  0  0  0
    7.0872  -19.5385   21.7993 N   0  0  0  0  0  0  0  0  0  0  0  0
    7.7200  -17.4876   22.8022 C   0  0  0  0  0  0  0  0  0  0  0  0
    8.9440  -17.6760   22.4459 O   0  0  0  0  0  0  0  0  0  0  0  0
    8.4755  -14.4129   19.7707 C   0  0  0  0  0  0  0  0  0  0  0  0
    7.2443  -14.2092   20.6820 C   0  0  2  0  0  0  0  0  0  0  0  0
    6.4560  -13.1070   20.0445 C   0  0  0  0  0  0  0  0  0  0  0  0
    7.6621  -13.9632   22.0810 C   0  0  0  0  0  0  0  0  0  0  0  0
    8.3755  -15.0536   22.7946 C   0  0  2  0  0  0  0  0  0  0  0  0
    7.3780  -16.1393   22.9730 N   0  0  0  0  0  0  0  0  0  0  0  0
    8.9369  -14.7478   24.1007 C   0  0  0  0  0  0  0  0  0  0  0  0
    9.2460  -13.5248   24.3323 O   0  0  0  0  0  0  0  0  0  0  0  0
    7.1711  -12.1980   26.7727 C   0  0  0  0  0  0  0  0  0  0  0  0
    8.2184  -13.0985   26.1629 C   0  0  0  0  0  0  0  0  0  0  0  0
    8.6419  -14.2177   27.0760 C   0  0  2  0  0  0  0  0  0  0  0  0
    9.0593  -13.6876   28.4046 C   0  0  0  0  0  0  0  0  0  0  0  0
    9.6214  -15.1777   26.4569 C   0  0  2  0  0  0  0  0  0  0  0  0
    9.1860  -15.6320   25.1585 N   0  0  0  0  0  0  0  0  0  0  0  0
   10.0303  -16.2939   27.3397 C   0  0  0  0  0  0  0  0  0  0  0  0
   11.0567  -16.1532   28.2958 O   0  0  0  0  0  0  0  0  0  0  0  0
    9.5180  -17.4386   27.3227 O   0  0  0  0  0  0  0  0  0  0  0  0
  2  1  1  0
  3  2  1  0
  3  4  1  1
  5  7  1  0
  5  3  1  0
  5  6  1  6
  7  8  2  0
 10  9  1  6
 11 10  1  0
 12 10  1  0
 13 12  1  1
 14 13  1  0
 14  7  1  0
 15 13  1  0
 15 16  2  0
 17 18  1  0
 18 19  1  0
 19 21  1  0
 19 20  1  1
 21 22  1  6
 21 23  1  0
 22 15  1  0
 23 24  1  0
 25 23  2  0
M  END
$$$$
