ILI.pdb
     RDKit          3D

 25 24  0  0  1  0  0  0  0  0999 V2000
    6.8529  -20.6667   26.9675 C   0  0  0  0  0  0  0  0  0  0  0  0
    6.6901  -20.6116   25.4733 C   0  0  0  0  0  0  0  0  0  0  0  0
    7.2355  -19.3264   24.9455 C   0  0  2  0  0  0  0  0  0  0  0  0
    6.5806  -18.1286   25.6489 C   0  0  0  0  0  0  0  0  0  0  0  0
    7.0823  -19.1467   23.4495 C   0  0  2  0  0  0  0  0  0  0  0  0
    7.7759  -20.3030   22.8174 N   0  0  0  0  0  0  0  0  0  0  0  0
    7.7338  -17.9363   22.9131 C   0  0  0  0  0  0  0  0  0  0  0  0
    9.0209  -17.8741   22.9218 O   0  0  0  0  0  0  0  0  0  0  0  0
    8.9419  -13.3644   20.6882 C   0  0  0  0  0  0  0  0  0  0  0  0
    7.4926  -13.7213   20.2878 C   0  0  2  0  0  0  0  0  0  0  0  0
    6.7522  -12.4198   20.2740 C   0  0  0  0  0  0  0  0  0  0  0  0
    6.9390  -14.7567   21.1901 C   0  0  0  0  0  0  0  0  0  0  0  0
    7.8974  -15.6241   21.9223 C   0  0  2  0  0  0  0  0  0  0  0  0
    7.1129  -16.8022   22.3722 N   0  0  0  0  0  0  0  0  0  0  0  0
    8.5594  -15.0605   23.0879 C   0  0  0  0  0  0  0  0  0  0  0  0
    9.6871  -14.4805   22.8961 O   0  0  0  0  0  0  0  0  0  0  0  0
    6.8769  -10.8930   26.7677 C   0  0  0  0  0  0  0  0  0  0  0  0
    7.9167  -11.9764   26.6106 C   0  0  0  0  0  0  0  0  0  0  0  0
    7.4683  -13.1033   25.7192 C   0  0  2  0  0  0  0  0  0  0  0  0
    6.2176  -13.7242   26.2395 C   0  0  0  0  0  0  0  0  0  0  0  0
    8.5545  -14.0884   25.3814 C   0  0  2  0  0  0  0  0  0  0  0  0
    8.1155  -15.0674   24.4167 N   0  0  0  0  0  0  0  0  0  0  0  0
    9.2121  -14.7055   26.5557 C   0  0  0  0  0  0  0  0  0  0  0  0
    9.3082  -16.1036   26.7096 O   0  0  0  0  0  0  0  0  0  0  0  0
    9.7318  -14.0631   27.4991 O   0  0  0  0  0  0  0  0  0  0  0  0
  2  1  1  0
  3  2  1  0
  3  4  1  1
  5  7  1  0
  5  3  1  0
  5  6  1  6
  7  8  2  0
 10  9  1  1
 11 10  1  0
 12 10  1  0
 13 12  1  1
 14 13  1  0
 14  7  1  0
 15 13  1  0
 15 16  2  0
 17 18  1  0
 18 19  1  0
 19 21  1  0
 19 20  1  1
 21 22  1  6
 21 23  1  0
 22 15  1  0
 23 24  1  0
 25 23  2  0
M  END
$$$$
