ILI.pdb
     RDKit          3D

 25 24  0  0  1  0  0  0  0  0999 V2000
   10.5179  -20.2520   19.9446 C   0  0  0  0  0  0  0  0  0  0  0  0
   10.0982  -18.8277   19.7055 C   0  0  0  0  0  0  0  0  0  0  0  0
   10.1137  -18.0666   20.9894 C   0  0  2  0  0  0  0  0  0  0  0  0
    9.3175  -18.8103   22.0717 C   0  0  0  0  0  0  0  0  0  0  0  0
    9.5801  -16.6528   20.8875 C   0  0  2  0  0  0  0  0  0  0  0  0
   10.5282  -15.9113   20.0107 N   0  0  0  0  0  0  0  0  0  0  0  0
    9.5502  -15.9210   22.1685 C   0  0  0  0  0  0  0  0  0  0  0  0
   10.6642  -15.5106   22.6698 O   0  0  0  0  0  0  0  0  0  0  0  0
    6.9139  -13.9584   26.6993 C   0  0  0  0  0  0  0  0  0  0  0  0
    7.0205  -13.1253   25.4022 C   0  0  2  0  0  0  0  0  0  0  0  0
    5.7732  -12.2978   25.3577 C   0  0  0  0  0  0  0  0  0  0  0  0
    7.2410  -14.0040   24.2310 C   0  0  0  0  0  0  0  0  0  0  0  0
    8.5292  -14.7394   24.1473 C   0  0  2  0  0  0  0  0  0  0  0  0
    8.4258  -15.5987   22.9404 N   0  0  0  0  0  0  0  0  0  0  0  0
    8.8914  -15.5913   25.2688 C   0  0  0  0  0  0  0  0  0  0  0  0
    8.6306  -16.8424   25.1604 O   0  0  0  0  0  0  0  0  0  0  0  0
   11.2059  -13.2730   29.5852 C   0  0  0  0  0  0  0  0  0  0  0  0
   11.2862  -14.1643   28.3691 C   0  0  0  0  0  0  0  0  0  0  0  0
   10.6813  -15.5247   28.5906 C   0  0  2  0  0  0  0  0  0  0  0  0
   11.5999  -16.3898   29.3831 C   0  0  0  0  0  0  0  0  0  0  0  0
   10.1477  -16.1702   27.3404 C   0  0  2  0  0  0  0  0  0  0  0  0
    9.5012  -15.2156   26.4728 N   0  0  0  0  0  0  0  0  0  0  0  0
    9.3186  -17.3742   27.5756 C   0  0  0  0  0  0  0  0  0  0  0  0
    9.8620  -18.6745   27.5404 O   0  0  0  0  0  0  0  0  0  0  0  0
    8.0889  -17.3540   27.8216 O   0  0  0  0  0  0  0  0  0  0  0  0
  2  1  1  0
  3  2  1  0
  3  4  1  1
  5  7  1  0
  5  3  1  0
  5  6  1  6
  7  8  2  0
 10  9  1  1
 11 10  1  0
 12 10  1  0
 13 12  1  1
 14 13  1  0
 14  7  1  0
 15 13  1  0
 15 16  2  0
 17 18  1  0
 18 19  1  0
 19 21  1  0
 19 20  1  6
 21 22  1  1
 21 23  1  0
 22 15  1  0
 23 24  1  0
 25 23  2  0
M  END
$$$$
