ILI.pdb
     RDKit          3D

 25 24  0  0  1  0  0  0  0  0999 V2000
   10.2829  -20.0572   20.0513 C   0  0  0  0  0  0  0  0  0  0  0  0
    9.8790  -18.6406   19.7481 C   0  0  0  0  0  0  0  0  0  0  0  0
    9.9060  -17.8218   20.9958 C   0  0  2  0  0  0  0  0  0  0  0  0
    9.1929  -18.5541   22.1419 C   0  0  0  0  0  0  0  0  0  0  0  0
    9.2963  -16.4425   20.8549 C   0  0  2  0  0  0  0  0  0  0  0  0
   10.1668  -15.6969   19.9041 N   0  0  0  0  0  0  0  0  0  0  0  0
    9.2833  -15.6538   22.1018 C   0  0  0  0  0  0  0  0  0  0  0  0
   10.3879  -15.1325   22.5127 O   0  0  0  0  0  0  0  0  0  0  0  0
    5.3198  -12.8839   25.9184 C   0  0  0  0  0  0  0  0  0  0  0  0
    6.8059  -13.2497   25.7045 C   0  0  2  0  0  0  0  0  0  0  0  0
    7.5423  -11.9459   25.7199 C   0  0  0  0  0  0  0  0  0  0  0  0
    6.9753  -14.0596   24.4765 C   0  0  0  0  0  0  0  0  0  0  0  0
    8.3268  -14.6026   24.1838 C   0  0  2  0  0  0  0  0  0  0  0  0
    8.1845  -15.3843   22.9290 N   0  0  0  0  0  0  0  0  0  0  0  0
    8.9333  -15.4703   25.1807 C   0  0  0  0  0  0  0  0  0  0  0  0
    8.7987  -16.7349   25.0144 O   0  0  0  0  0  0  0  0  0  0  0  0
   10.7446  -13.3414   29.8623 C   0  0  0  0  0  0  0  0  0  0  0  0
   10.9272  -14.0221   28.5270 C   0  0  0  0  0  0  0  0  0  0  0  0
   10.5702  -15.4841   28.5534 C   0  0  2  0  0  0  0  0  0  0  0  0
   11.5688  -16.2586   29.3429 C   0  0  0  0  0  0  0  0  0  0  0  0
   10.2650  -16.0661   27.1998 C   0  0  2  0  0  0  0  0  0  0  0  0
    9.6605  -15.0968   26.3183 N   0  0  0  0  0  0  0  0  0  0  0  0
    9.5180  -17.3441   27.2339 C   0  0  0  0  0  0  0  0  0  0  0  0
   10.1701  -18.5927   27.1791 O   0  0  0  0  0  0  0  0  0  0  0  0
    8.2696  -17.4364   27.3126 O   0  0  0  0  0  0  0  0  0  0  0  0
  2  1  1  0
  3  2  1  0
  3  4  1  1
  5  7  1  0
  5  3  1  0
  5  6  1  6
  7  8  2  0
 10  9  1  6
 11 10  1  0
 12 10  1  0
 13 12  1  1
 14 13  1  0
 14  7  1  0
 15 13  1  0
 15 16  2  0
 17 18  1  0
 18 19  1  0
 19 21  1  0
 19 20  1  6
 21 22  1  6
 21 23  1  0
 22 15  1  0
 23 24  1  0
 25 23  2  0
M  END
$$$$
