ILI.pdb
     RDKit          3D

 25 24  0  0  1  0  0  0  0  0999 V2000
    7.7557  -19.5566   19.6346 C   0  0  0  0  0  0  0  0  0  0  0  0
    7.8253  -18.0564   19.5524 C   0  0  0  0  0  0  0  0  0  0  0  0
    8.1772  -17.4860   20.8860 C   0  0  2  0  0  0  0  0  0  0  0  0
    7.2832  -18.0800   21.9842 C   0  0  0  0  0  0  0  0  0  0  0  0
    8.0943  -15.9757   20.9645 C   0  0  2  0  0  0  0  0  0  0  0  0
    9.0952  -15.4521   19.9941 N   0  0  0  0  0  0  0  0  0  0  0  0
    8.4655  -15.4143   22.2776 C   0  0  0  0  0  0  0  0  0  0  0  0
    9.7097  -15.4012   22.6126 O   0  0  0  0  0  0  0  0  0  0  0  0
    5.9192  -12.2123   26.8961 C   0  0  0  0  0  0  0  0  0  0  0  0
    7.2140  -12.9149   26.4298 C   0  0  2  0  0  0  0  0  0  0  0  0
    8.3012  -11.8994   26.6014 C   0  0  0  0  0  0  0  0  0  0  0  0
    7.0560  -13.4495   25.0580 C   0  0  0  0  0  0  0  0  0  0  0  0
    8.1271  -14.3328   24.5293 C   0  0  2  0  0  0  0  0  0  0  0  0
    7.6099  -14.8700   23.2450 N   0  0  0  0  0  0  0  0  0  0  0  0
    8.5341  -15.4617   25.3506 C   0  0  0  0  0  0  0  0  0  0  0  0
    7.6636  -16.3818   25.5521 O   0  0  0  0  0  0  0  0  0  0  0  0
   12.3582  -18.5232   23.9992 C   0  0  0  0  0  0  0  0  0  0  0  0
   11.1295  -17.8819   24.5981 C   0  0  0  0  0  0  0  0  0  0  0  0
   11.2578  -17.6201   26.0748 C   0  0  2  0  0  0  0  0  0  0  0  0
   11.6464  -18.8621   26.8007 C   0  0  0  0  0  0  0  0  0  0  0  0
   10.0837  -16.8944   26.6740 C   0  0  2  0  0  0  0  0  0  0  0  0
    9.7772  -15.6792   25.9590 N   0  0  0  0  0  0  0  0  0  0  0  0
   10.1721  -16.6839   28.1369 C   0  0  0  0  0  0  0  0  0  0  0  0
    9.9511  -17.7288   29.0571 O   0  0  0  0  0  0  0  0  0  0  0  0
   10.4440  -15.5879   28.6827 O   0  0  0  0  0  0  0  0  0  0  0  0
  2  1  1  0
  3  2  1  0
  3  4  1  1
  5  7  1  0
  5  3  1  0
  5  6  1  6
  7  8  2  0
 10  9  1  6
 11 10  1  0
 12 10  1  0
 13 12  1  1
 14 13  1  0
 14  7  1  0
 15 13  1  0
 15 16  2  0
 17 18  1  0
 18 19  1  0
 19 21  1  0
 19 20  1  1
 21 22  1  6
 21 23  1  0
 22 15  1  0
 23 24  1  0
 25 23  2  0
M  END
$$$$
