ILI.pdb
     RDKit          3D

 25 24  0  0  1  0  0  0  0  0999 V2000
    5.8390  -10.9160   28.0681 C   0  0  0  0  0  0  0  0  0  0  0  0
    5.1772  -11.9849   27.2424 C   0  0  0  0  0  0  0  0  0  0  0  0
    6.2081  -12.7833   26.5162 C   0  0  2  0  0  0  0  0  0  0  0  0
    7.1361  -11.8651   25.7074 C   0  0  0  0  0  0  0  0  0  0  0  0
    5.6452  -13.8369   25.5852 C   0  0  2  0  0  0  0  0  0  0  0  0
    5.1317  -14.9309   26.4553 N   0  0  0  0  0  0  0  0  0  0  0  0
    6.6449  -14.4577   24.6950 C   0  0  0  0  0  0  0  0  0  0  0  0
    7.3120  -15.4710   25.1295 O   0  0  0  0  0  0  0  0  0  0  0  0
    9.0129  -13.7580   19.0088 C   0  0  0  0  0  0  0  0  0  0  0  0
    8.9538  -14.6795   20.2479 C   0  0  2  0  0  0  0  0  0  0  0  0
    8.5019  -16.0108   19.7320 C   0  0  0  0  0  0  0  0  0  0  0  0
    8.1017  -14.0856   21.3032 C   0  0  0  0  0  0  0  0  0  0  0  0
    8.0172  -14.7925   22.6071 C   0  0  2  0  0  0  0  0  0  0  0  0
    6.9754  -14.0771   23.3873 N   0  0  0  0  0  0  0  0  0  0  0  0
    9.2210  -14.8482   23.4211 C   0  0  0  0  0  0  0  0  0  0  0  0
    9.7520  -13.7299   23.7564 O   0  0  0  0  0  0  0  0  0  0  0  0
    9.6165  -14.4071   28.0788 C   0  0  0  0  0  0  0  0  0  0  0  0
   10.1154  -14.4506   26.6544 C   0  0  0  0  0  0  0  0  0  0  0  0
   10.5848  -15.8171   26.2326 C   0  0  2  0  0  0  0  0  0  0  0  0
   11.5797  -16.3574   27.2014 C   0  0  0  0  0  0  0  0  0  0  0  0
   11.0138  -15.9014   24.7927 C   0  0  2  0  0  0  0  0  0  0  0  0
    9.8861  -15.9858   23.8967 N   0  0  0  0  0  0  0  0  0  0  0  0
   12.0365  -16.9356   24.5152 C   0  0  0  0  0  0  0  0  0  0  0  0
   11.7251  -18.1316   23.8369 O   0  0  0  0  0  0  0  0  0  0  0  0
   13.2429  -16.8500   24.8470 O   0  0  0  0  0  0  0  0  0  0  0  0
  2  1  1  0
  3  2  1  0
  3  4  1  6
  5  7  1  0
  5  3  1  0
  5  6  1  1
  7  8  2  0
 10  9  1  6
 11 10  1  0
 12 10  1  0
 13 12  1  6
 14 13  1  0
 14  7  1  0
 15 13  1  0
 15 16  2  0
 17 18  1  0
 18 19  1  0
 19 21  1  0
 19 20  1  1
 21 22  1  6
 21 23  1  0
 22 15  1  0
 23 24  1  0
 25 23  2  0
M  END
$$$$
