KRK.pdb
     RDKit          3D

 30 29  0  0  1  0  0  0  0  0999 V2000
    4.7779  -21.4737   21.7389 N   0  0  0  0  0  0  0  0  0  0  0  0
    5.1096  -20.8083   22.9751 C   0  0  1  0  0  0  0  0  0  0  0  0
    5.7743  -21.8484   23.8886 C   0  0  0  0  0  0  0  0  0  0  0  0
    4.9639  -23.1080   23.9253 C   0  0  0  0  0  0  0  0  0  0  0  0
    4.0548  -23.1467   25.1202 C   0  0  0  0  0  0  0  0  0  0  0  0
    4.5722  -24.1520   26.1120 C   0  0  0  0  0  0  0  0  0  0  0  0
    3.6040  -24.3569   27.1861 N   0  0  0  0  0  0  0  0  0  0  0  0
    6.0780  -19.7038   22.7805 C   0  0  0  0  0  0  0  0  0  0  0  0
    7.3332  -19.9231   22.7386 O   0  0  0  0  0  0  0  0  0  0  0  0
    9.3673  -12.8465   20.0775 N   0  0  0  0  0  0  0  0  0  0  0  0
    8.2868  -13.1116   19.2063 C   0  0  0  0  0  0  0  0  0  0  0  0
    8.1378  -12.4975   18.0743 N   0  0  0  0  0  0  0  0  0  0  0  0
    7.3136  -14.1026   19.5912 N   0  0  0  0  0  0  0  0  0  0  0  0
    7.7327  -15.1311   20.5103 C   0  0  0  0  0  0  0  0  0  0  0  0
    7.1243  -14.8919   21.8763 C   0  0  0  0  0  0  0  0  0  0  0  0
    6.0872  -15.9732   22.0917 C   0  0  0  0  0  0  0  0  0  0  0  0
    6.7100  -17.2908   22.4556 C   0  0  2  0  0  0  0  0  0  0  0  0
    5.7053  -18.3399   22.6276 N   0  0  0  0  0  0  0  0  0  0  0  0
    7.5609  -17.1756   23.6704 C   0  0  0  0  0  0  0  0  0  0  0  0
    6.9923  -17.1165   24.7983 O   0  0  0  0  0  0  0  0  0  0  0  0
    7.3631  -12.7608   17.4558 N   0  0  0  0  0  0  0  0  0  0  0  0
    8.9701  -17.1316   23.5876 C   0  0  1  0  0  0  0  0  0  0  0  0
    9.8073  -17.0032   24.8464 C   0  0  0  0  0  0  0  0  0  0  0  0
   10.2279  -18.3856   25.1210 C   0  0  0  0  0  0  0  0  0  0  0  0
   10.4022  -18.9736   26.4291 C   0  0  0  0  0  0  0  0  0  0  0  0
   10.7911  -20.3503   26.7170 C   0  0  0  0  0  0  0  0  0  0  0  0
   10.8491  -20.7114   28.2016 N   0  0  0  0  0  0  0  0  0  0  0  0
    9.5395  -20.8838   28.7648 C   0  0  0  0  0  0  0  0  0  0  0  0
   10.9842  -16.2181   24.2879 O   0  0  0  0  0  0  0  0  0  0  0  0
   11.1563  -16.2567   22.8780 O   0  0  0  0  0  0  0  0  0  0  0  0
  2  1  1  6
  3  2  1  0
  4  5  1  0
  4  3  1  0
  6  7  1  0
  6  5  1  0
  8  2  1  0
  9  8  2  0
 10 11  1  0
 11 12  2  0
 11 13  1  0
 13 14  1  0
 14 15  1  0
 15 16  1  0
 17 16  1  1
 17 19  1  0
 17 18  1  0
 18  8  1  0
 19 20  2  0
 21 22  1  0
 21 19  1  0
 22 28  1  0
 22 23  1  1
 24 23  1  0
 25 24  1  0
 26 25  1  0
 27 26  1  0
 28 30  2  0
 28 29  1  0
M  END
$$$$
