KRK.pdb
     RDKit          3D

 30 29  0  0  1  0  0  0  0  0999 V2000
    6.3325  -20.3236   22.6576 N   0  0  0  0  0  0  0  0  0  0  0  0
    6.4143  -19.0581   23.3452 C   0  0  1  0  0  0  0  0  0  0  0  0
    6.7178  -19.3594   24.8201 C   0  0  0  0  0  0  0  0  0  0  0  0
    6.3574  -20.7755   25.1508 C   0  0  0  0  0  0  0  0  0  0  0  0
    6.7015  -21.1168   26.5723 C   0  0  0  0  0  0  0  0  0  0  0  0
    6.4579  -22.5817   26.8098 C   0  0  0  0  0  0  0  0  0  0  0  0
    6.8008  -22.9421   28.1830 N   0  0  0  0  0  0  0  0  0  0  0  0
    7.5113  -18.2052   22.8307 C   0  0  0  0  0  0  0  0  0  0  0  0
    8.6445  -18.6995   22.5198 O   0  0  0  0  0  0  0  0  0  0  0  0
    8.2055  -12.2512   17.3073 N   0  0  0  0  0  0  0  0  0  0  0  0
    7.7541  -13.5703   17.5376 C   0  0  0  0  0  0  0  0  0  0  0  0
    8.3252  -14.6050   17.0046 N   0  0  0  0  0  0  0  0  0  0  0  0
    6.6155  -13.7727   18.3977 N   0  0  0  0  0  0  0  0  0  0  0  0
    6.8383  -13.7426   19.8217 C   0  0  0  0  0  0  0  0  0  0  0  0
    8.0534  -14.5726   20.1789 C   0  0  0  0  0  0  0  0  0  0  0  0
    8.1063  -14.6482   21.6897 C   0  0  0  0  0  0  0  0  0  0  0  0
    8.5359  -16.0036   22.1743 C   0  0  2  0  0  0  0  0  0  0  0  0
    7.4019  -16.7997   22.6433 N   0  0  0  0  0  0  0  0  0  0  0  0
    9.5773  -15.9008   23.2316 C   0  0  0  0  0  0  0  0  0  0  0  0
    9.2102  -15.6336   24.4118 O   0  0  0  0  0  0  0  0  0  0  0  0
    7.9736  -15.5435   17.2230 N   0  0  0  0  0  0  0  0  0  0  0  0
   10.9467  -16.0931   22.9452 C   0  0  2  0  0  0  0  0  0  0  0  0
   11.9742  -16.0602   24.0611 C   0  0  0  0  0  0  0  0  0  0  0  0
   11.7770  -17.3463   24.7468 C   0  0  0  0  0  0  0  0  0  0  0  0
   11.6191  -17.5311   26.1710 C   0  0  0  0  0  0  0  0  0  0  0  0
   11.4469  -18.8019   26.8675 C   0  0  0  0  0  0  0  0  0  0  0  0
   11.3623  -18.7007   28.3908 N   0  0  0  0  0  0  0  0  0  0  0  0
   11.2682  -19.9922   29.0113 C   0  0  0  0  0  0  0  0  0  0  0  0
   13.2485  -16.1189   23.2329 O   0  0  0  0  0  0  0  0  0  0  0  0
   14.4426  -15.7047   23.8822 O   0  0  0  0  0  0  0  0  0  0  0  0
  2  1  1  6
  3  2  1  0
  4  5  1  0
  4  3  1  0
  6  7  1  0
  6  5  1  0
  8  2  1  0
  9  8  2  0
 10 11  1  0
 11 12  2  0
 11 13  1  0
 13 14  1  0
 14 15  1  0
 15 16  1  0
 17 16  1  1
 17 19  1  0
 17 18  1  0
 18  8  1  0
 19 20  2  0
 21 22  1  0
 21 19  1  0
 22 28  1  0
 22 23  1  1
 24 23  1  0
 25 24  1  0
 26 25  1  0
 27 26  1  0
 28 30  2  0
 28 29  1  0
M  END
$$$$
