KRK.pdb
     RDKit          3D

 30 29  0  0  1  0  0  0  0  0999 V2000
    9.0282  -15.6012   18.4019 N   0  0  0  0  0  0  0  0  0  0  0  0
    8.4999  -14.4813   19.1420 C   0  0  1  0  0  0  0  0  0  0  0  0
    7.3556  -13.8841   18.3102 C   0  0  0  0  0  0  0  0  0  0  0  0
    7.2591  -14.5709   16.9821 C   0  0  0  0  0  0  0  0  0  0  0  0
    8.5121  -14.3913   16.1737 C   0  0  0  0  0  0  0  0  0  0  0  0
    8.3075  -14.9622   14.7975 C   0  0  0  0  0  0  0  0  0  0  0  0
    9.4991  -14.7613   13.9772 N   0  0  0  0  0  0  0  0  0  0  0  0
    7.9346  -14.8849   20.4508 C   0  0  0  0  0  0  0  0  0  0  0  0
    7.2605  -14.0687   21.1613 O   0  0  0  0  0  0  0  0  0  0  0  0
    7.6985  -22.4314   25.0298 N   0  0  0  0  0  0  0  0  0  0  0  0
    7.1341  -21.5322   25.9623 C   0  0  0  0  0  0  0  0  0  0  0  0
    6.6586  -21.9201   27.1042 N   0  0  0  0  0  0  0  0  0  0  0  0
    7.0856  -20.1303   25.6308 N   0  0  0  0  0  0  0  0  0  0  0  0
    7.5845  -19.7301   24.3389 C   0  0  0  0  0  0  0  0  0  0  0  0
    7.3114  -18.2591   24.1051 C   0  0  0  0  0  0  0  0  0  0  0  0
    7.8172  -17.9327   22.7163 C   0  0  0  0  0  0  0  0  0  0  0  0
    7.5758  -16.4963   22.3488 C   0  0  2  0  0  0  0  0  0  0  0  0
    8.0888  -16.1809   21.0158 N   0  0  0  0  0  0  0  0  0  0  0  0
    8.1468  -15.5698   23.3631 C   0  0  0  0  0  0  0  0  0  0  0  0
    9.3995  -15.3990   23.3823 O   0  0  0  0  0  0  0  0  0  0  0  0
    6.1906  -21.2400   27.7130 N   0  0  0  0  0  0  0  0  0  0  0  0
    7.3275  -14.8887   24.2901 C   0  0  2  0  0  0  0  0  0  0  0  0
    7.9259  -13.8550   25.2257 C   0  0  0  0  0  0  0  0  0  0  0  0
    6.7527  -13.1139   25.7132 C   0  0  0  0  0  0  0  0  0  0  0  0
    6.7821  -11.9466   26.5641 C   0  0  0  0  0  0  0  0  0  0  0  0
    5.6270  -11.2361   27.1030 C   0  0  0  0  0  0  0  0  0  0  0  0
    5.9581  -10.0934   28.0636 N   0  0  0  0  0  0  0  0  0  0  0  0
    4.7749   -9.4614   28.5759 C   0  0  0  0  0  0  0  0  0  0  0  0
    8.4358  -14.7742   26.3248 O   0  0  0  0  0  0  0  0  0  0  0  0
    9.5343  -14.2955   27.0886 O   0  0  0  0  0  0  0  0  0  0  0  0
  2  1  1  6
  3  2  1  0
  4  5  1  0
  4  3  1  0
  6  7  1  0
  6  5  1  0
  8  2  1  0
  9  8  2  0
 10 11  1  0
 11 12  2  0
 11 13  1  0
 13 14  1  0
 14 15  1  0
 15 16  1  0
 17 16  1  1
 17 19  1  0
 17 18  1  0
 18  8  1  0
 19 20  2  0
 21 22  1  0
 21 19  1  0
 22 28  1  0
 22 23  1  6
 24 23  1  0
 25 24  1  0
 26 25  1  0
 27 26  1  0
 28 30  2  0
 28 29  1  0
M  END
$$$$
