KRK.pdb
     RDKit          3D

 30 29  0  0  1  0  0  0  0  0999 V2000
   10.5677  -19.1482   17.8032 N   0  0  0  0  0  0  0  0  0  0  0  0
    9.9749  -19.6056   19.0362 C   0  0  1  0  0  0  0  0  0  0  0  0
   10.5764  -20.9838   19.3475 C   0  0  0  0  0  0  0  0  0  0  0  0
   10.6183  -21.8289   18.1111 C   0  0  0  0  0  0  0  0  0  0  0  0
   11.1892  -23.1898   18.3899 C   0  0  0  0  0  0  0  0  0  0  0  0
   11.2450  -23.9819   17.1126 C   0  0  0  0  0  0  0  0  0  0  0  0
   11.8082  -25.3073   17.3559 N   0  0  0  0  0  0  0  0  0  0  0  0
   10.2883  -18.7154   20.1785 C   0  0  0  0  0  0  0  0  0  0  0  0
   11.4624  -18.6598   20.6723 O   0  0  0  0  0  0  0  0  0  0  0  0
    9.3961  -12.3190   20.3570 N   0  0  0  0  0  0  0  0  0  0  0  0
    8.2830  -12.5408   19.5152 C   0  0  0  0  0  0  0  0  0  0  0  0
    8.2264  -12.0887   18.3014 N   0  0  0  0  0  0  0  0  0  0  0  0
    7.1683  -13.2986   20.0257 N   0  0  0  0  0  0  0  0  0  0  0  0
    7.3949  -14.1235   21.1861 C   0  0  0  0  0  0  0  0  0  0  0  0
    8.6322  -14.9741   20.9901 C   0  0  0  0  0  0  0  0  0  0  0  0
    8.7064  -15.9215   22.1683 C   0  0  0  0  0  0  0  0  0  0  0  0
    9.7014  -17.0247   21.9461 C   0  0  2  0  0  0  0  0  0  0  0  0
    9.3356  -17.8680   20.8083 N   0  0  0  0  0  0  0  0  0  0  0  0
    9.8861  -17.8483   23.1711 C   0  0  0  0  0  0  0  0  0  0  0  0
    8.9331  -18.5908   23.5447 O   0  0  0  0  0  0  0  0  0  0  0  0
    7.4189  -12.3217   17.7135 N   0  0  0  0  0  0  0  0  0  0  0  0
   11.0877  -17.8161   23.9124 C   0  0  2  0  0  0  0  0  0  0  0  0
   11.2468  -18.6786   25.1505 C   0  0  0  0  0  0  0  0  0  0  0  0
   12.6236  -19.1844   25.0414 C   0  0  0  0  0  0  0  0  0  0  0  0
   13.2932  -20.0310   26.0017 C   0  0  0  0  0  0  0  0  0  0  0  0
   14.6465  -20.5661   25.8921 C   0  0  0  0  0  0  0  0  0  0  0  0
   15.1458  -21.3253   27.1218 N   0  0  0  0  0  0  0  0  0  0  0  0
   16.5079  -21.7543   26.9728 C   0  0  0  0  0  0  0  0  0  0  0  0
   11.1882  -17.5987   26.2199 O   0  0  0  0  0  0  0  0  0  0  0  0
   11.0774  -18.0469   27.5637 O   0  0  0  0  0  0  0  0  0  0  0  0
  2  1  1  6
  3  2  1  0
  4  5  1  0
  4  3  1  0
  6  7  1  0
  6  5  1  0
  8  2  1  0
  9  8  2  0
 10 11  1  0
 11 12  2  0
 11 13  1  0
 13 14  1  0
 14 15  1  0
 15 16  1  0
 17 16  1  1
 17 19  1  0
 17 18  1  0
 18  8  1  0
 19 20  2  0
 21 22  1  0
 21 19  1  0
 22 28  1  0
 22 23  1  6
 24 23  1  0
 25 24  1  0
 26 25  1  0
 27 26  1  0
 28 30  2  0
 28 29  1  0
M  END
$$$$
