KRK.pdb
     RDKit          3D

 30 29  0  0  1  0  0  0  0  0999 V2000
    9.5055  -16.7856   18.0933 N   0  0  0  0  0  0  0  0  0  0  0  0
    8.6781  -17.3229   19.1458 C   0  0  1  0  0  0  0  0  0  0  0  0
    9.0591  -18.8008   19.3158 C   0  0  0  0  0  0  0  0  0  0  0  0
    8.7065  -19.5780   18.0844 C   0  0  0  0  0  0  0  0  0  0  0  0
    9.0630  -21.0302   18.2255 C   0  0  0  0  0  0  0  0  0  0  0  0
    8.7680  -21.7468   16.9366 C   0  0  0  0  0  0  0  0  0  0  0  0
    9.1427  -23.1549   17.0359 N   0  0  0  0  0  0  0  0  0  0  0  0
    8.9105  -16.6514   20.4460 C   0  0  0  0  0  0  0  0  0  0  0  0
   10.0787  -16.5702   20.9501 O   0  0  0  0  0  0  0  0  0  0  0  0
    8.3219  -12.7502   25.7397 N   0  0  0  0  0  0  0  0  0  0  0  0
    7.1910  -12.4812   26.5432 C   0  0  0  0  0  0  0  0  0  0  0  0
    7.1535  -11.4968   27.3859 N   0  0  0  0  0  0  0  0  0  0  0  0
    6.0355  -13.3339   26.4208 N   0  0  0  0  0  0  0  0  0  0  0  0
    5.8315  -14.0087   25.1632 C   0  0  0  0  0  0  0  0  0  0  0  0
    7.1456  -14.5502   24.6407 C   0  0  0  0  0  0  0  0  0  0  0  0
    6.8955  -15.0209   23.2240 C   0  0  0  0  0  0  0  0  0  0  0  0
    8.1338  -15.5855   22.5880 C   0  0  2  0  0  0  0  0  0  0  0  0
    7.8817  -16.0548   21.2257 N   0  0  0  0  0  0  0  0  0  0  0  0
    8.7263  -16.6707   23.4151 C   0  0  0  0  0  0  0  0  0  0  0  0
    8.1295  -17.7845   23.4610 O   0  0  0  0  0  0  0  0  0  0  0  0
    6.3054  -11.3401   27.9411 N   0  0  0  0  0  0  0  0  0  0  0  0
    9.9245  -16.4820   24.1386 C   0  0  2  0  0  0  0  0  0  0  0  0
   10.5146  -17.6185   24.9522 C   0  0  0  0  0  0  0  0  0  0  0  0
   11.9553  -17.5306   24.6693 C   0  0  0  0  0  0  0  0  0  0  0  0
   12.9950  -18.2887   25.3264 C   0  0  0  0  0  0  0  0  0  0  0  0
   14.4286  -18.2000   25.0686 C   0  0  0  0  0  0  0  0  0  0  0  0
   15.2921  -19.1842   25.8584 N   0  0  0  0  0  0  0  0  0  0  0  0
   16.6920  -19.0027   25.5954 C   0  0  0  0  0  0  0  0  0  0  0  0
   10.2416  -17.0943   26.3535 O   0  0  0  0  0  0  0  0  0  0  0  0
    9.8378  -15.7355   26.4513 O   0  0  0  0  0  0  0  0  0  0  0  0
  2  1  1  6
  3  2  1  0
  4  5  1  0
  4  3  1  0
  6  7  1  0
  6  5  1  0
  8  2  1  0
  9  8  2  0
 10 11  1  0
 11 12  2  0
 11 13  1  0
 13 14  1  0
 14 15  1  0
 15 16  1  0
 17 16  1  1
 17 19  1  0
 17 18  1  0
 18  8  1  0
 19 20  2  0
 21 22  1  0
 21 19  1  0
 22 28  1  0
 22 23  1  6
 24 23  1  0
 25 24  1  0
 26 25  1  0
 27 26  1  0
 28 30  2  0
 28 29  1  0
M  END
$$$$
