KRK.pdb
     RDKit          3D

 30 29  0  0  1  0  0  0  0  0999 V2000
    8.7667  -20.8016   19.2583 N   0  0  0  0  0  0  0  0  0  0  0  0
    8.6795  -21.0943   20.6682 C   0  0  1  0  0  0  0  0  0  0  0  0
    9.4028  -22.4285   20.9024 C   0  0  0  0  0  0  0  0  0  0  0  0
    9.6426  -23.1304   19.6006 C   0  0  0  0  0  0  0  0  0  0  0  0
   10.2501  -24.4882   19.8076 C   0  0  0  0  0  0  0  0  0  0  0  0
   10.6120  -25.0845   18.4752 C   0  0  0  0  0  0  0  0  0  0  0  0
    9.6930  -26.1664   18.1315 N   0  0  0  0  0  0  0  0  0  0  0  0
    9.3539  -20.0708   21.5007 C   0  0  0  0  0  0  0  0  0  0  0  0
    9.5312  -20.2456   22.7510 O   0  0  0  0  0  0  0  0  0  0  0  0
    9.0768  -13.0143   18.3020 N   0  0  0  0  0  0  0  0  0  0  0  0
    8.6157  -12.5111   19.5393 C   0  0  0  0  0  0  0  0  0  0  0  0
    8.5091  -11.2415   19.7788 N   0  0  0  0  0  0  0  0  0  0  0  0
    8.2501  -13.4453   20.5742 N   0  0  0  0  0  0  0  0  0  0  0  0
    8.2208  -14.8455   20.2324 C   0  0  0  0  0  0  0  0  0  0  0  0
    7.8148  -15.6696   21.4362 C   0  0  0  0  0  0  0  0  0  0  0  0
    8.0990  -17.1167   21.0951 C   0  0  0  0  0  0  0  0  0  0  0  0
    9.4499  -17.5584   21.5815 C   0  0  2  0  0  0  0  0  0  0  0  0
    9.8493  -18.8374   20.9948 N   0  0  0  0  0  0  0  0  0  0  0  0
    9.5007  -17.6243   23.0668 C   0  0  0  0  0  0  0  0  0  0  0  0
    8.4828  -18.0507   23.6840 O   0  0  0  0  0  0  0  0  0  0  0  0
    8.0935  -10.9280   20.6626 N   0  0  0  0  0  0  0  0  0  0  0  0
   10.6474  -17.2252   23.7882 C   0  0  1  0  0  0  0  0  0  0  0  0
   10.6505  -17.2666   25.3049 C   0  0  0  0  0  0  0  0  0  0  0  0
   11.2363  -18.5806   25.6108 C   0  0  0  0  0  0  0  0  0  0  0  0
   11.5175  -19.0956   26.9310 C   0  0  0  0  0  0  0  0  0  0  0  0
   12.0694  -20.4080   27.2512 C   0  0  0  0  0  0  0  0  0  0  0  0
   12.1008  -20.7531   28.7405 N   0  0  0  0  0  0  0  0  0  0  0  0
   12.4675  -22.1226   28.9678 C   0  0  0  0  0  0  0  0  0  0  0  0
   11.6754  -16.1785   25.5851 O   0  0  0  0  0  0  0  0  0  0  0  0
   12.4386  -15.7292   24.4739 O   0  0  0  0  0  0  0  0  0  0  0  0
  2  1  1  6
  3  2  1  0
  4  5  1  0
  4  3  1  0
  6  7  1  0
  6  5  1  0
  8  2  1  0
  9  8  2  0
 10 11  1  0
 11 12  2  0
 11 13  1  0
 13 14  1  0
 14 15  1  0
 15 16  1  0
 17 16  1  1
 17 19  1  0
 17 18  1  0
 18  8  1  0
 19 20  2  0
 21 22  1  0
 21 19  1  0
 22 28  1  0
 22 23  1  1
 24 23  1  0
 25 24  1  0
 26 25  1  0
 27 26  1  0
 28 30  2  0
 28 29  1  0
M  END
$$$$
