KRK.pdb
     RDKit          3D

 30 29  0  0  1  0  0  0  0  0999 V2000
    5.4873  -20.7476   22.1544 N   0  0  0  0  0  0  0  0  0  0  0  0
    5.8397  -19.8155   23.1974 C   0  0  1  0  0  0  0  0  0  0  0  0
    6.6699  -20.5850   24.2352 C   0  0  0  0  0  0  0  0  0  0  0  0
    5.8258  -21.6142   24.9229 C   0  0  0  0  0  0  0  0  0  0  0  0
    6.5786  -22.2993   26.0273 C   0  0  0  0  0  0  0  0  0  0  0  0
    5.6436  -23.1970   26.7901 C   0  0  0  0  0  0  0  0  0  0  0  0
    6.3725  -23.9498   27.8076 N   0  0  0  0  0  0  0  0  0  0  0  0
    6.6760  -18.6987   22.6986 C   0  0  0  0  0  0  0  0  0  0  0  0
    7.7092  -18.9131   21.9832 O   0  0  0  0  0  0  0  0  0  0  0  0
    8.3018  -12.0269   19.4660 N   0  0  0  0  0  0  0  0  0  0  0  0
    8.0743  -13.2767   18.8470 C   0  0  0  0  0  0  0  0  0  0  0  0
    7.9483  -13.4055   17.5631 N   0  0  0  0  0  0  0  0  0  0  0  0
    7.9788  -14.4527   19.6748 N   0  0  0  0  0  0  0  0  0  0  0  0
    8.5717  -14.3973   20.9876 C   0  0  0  0  0  0  0  0  0  0  0  0
    7.5781  -13.8445   21.9877 C   0  0  0  0  0  0  0  0  0  0  0  0
    6.6180  -14.9663   22.3205 C   0  0  0  0  0  0  0  0  0  0  0  0
    7.3261  -16.2746   22.5289 C   0  0  2  0  0  0  0  0  0  0  0  0
    6.4093  -17.3275   22.9653 N   0  0  0  0  0  0  0  0  0  0  0  0
    8.4585  -16.1366   23.4837 C   0  0  0  0  0  0  0  0  0  0  0  0
    8.1939  -15.9358   24.7038 O   0  0  0  0  0  0  0  0  0  0  0  0
    7.8120  -14.3392   17.1608 N   0  0  0  0  0  0  0  0  0  0  0  0
    9.8023  -16.2244   23.0584 C   0  0  2  0  0  0  0  0  0  0  0  0
   10.9319  -16.1390   24.0677 C   0  0  0  0  0  0  0  0  0  0  0  0
   10.9473  -17.4766   24.6791 C   0  0  0  0  0  0  0  0  0  0  0  0
   11.8602  -17.9290   25.7034 C   0  0  0  0  0  0  0  0  0  0  0  0
   11.8332  -19.2212   26.3810 C   0  0  0  0  0  0  0  0  0  0  0  0
   12.8479  -19.3814   27.5136 N   0  0  0  0  0  0  0  0  0  0  0  0
   12.7813  -20.6835   28.1153 C   0  0  0  0  0  0  0  0  0  0  0  0
   12.1110  -16.0044   23.1165 O   0  0  0  0  0  0  0  0  0  0  0  0
   11.9336  -16.5395   21.8122 O   0  0  0  0  0  0  0  0  0  0  0  0
  2  1  1  6
  3  2  1  0
  4  5  1  0
  4  3  1  0
  6  7  1  0
  6  5  1  0
  8  2  1  0
  9  8  2  0
 10 11  1  0
 11 12  2  0
 11 13  1  0
 13 14  1  0
 14 15  1  0
 15 16  1  0
 17 16  1  1
 17 19  1  0
 17 18  1  0
 18  8  1  0
 19 20  2  0
 21 22  1  0
 21 19  1  0
 22 28  1  0
 22 23  1  1
 24 23  1  0
 25 24  1  0
 26 25  1  0
 27 26  1  0
 28 30  2  0
 28 29  1  0
M  END
$$$$
