HDN.pdb
     RDKit          3D

 27 27  0  0  1  0  0  0  0  0999 V2000
   17.9824  -13.2265  -17.7642 N   0  0  0  0  0  0  0  0  0  0  0  0
   18.4436  -12.4603  -16.6187 C   0  0  1  0  0  0  0  0  0  0  0  0
   19.9001  -12.8320  -16.4269 C   0  0  0  0  0  0  0  0  0  0  0  0
   20.1219  -14.2594  -16.1477 C   0  0  0  0  0  0  0  0  0  0  0  0
   19.5178  -15.0292  -15.1493 C   0  0  0  0  0  0  0  0  0  0  0  0
   19.9927  -16.2940  -15.2167 N   0  0  0  0  0  0  0  0  0  0  0  0
   20.8839  -16.3335  -16.2384 C   0  0  0  0  0  0  0  0  0  0  0  0
   20.9479  -15.0971  -16.7872 N   0  0  0  0  0  0  0  0  0  0  0  0
   18.3312  -11.0164  -16.8399 C   0  0  0  0  0  0  0  0  0  0  0  0
   18.4378  -10.6055  -18.0376 O   0  0  0  0  0  0  0  0  0  0  0  0
   18.1127  -10.0571  -15.8107 N   0  0  0  0  0  0  0  0  0  0  0  0
   17.9642   -8.6876  -16.1669 C   0  0  1  0  0  0  0  0  0  0  0  0
   16.5118   -8.2344  -16.1058 C   0  0  0  0  0  0  0  0  0  0  0  0
   16.3546   -6.8430  -16.5313 C   0  0  0  0  0  0  0  0  0  0  0  0
   16.8797   -6.4406  -17.6011 O   0  0  0  0  0  0  0  0  0  0  0  0
   18.7432   -7.7544  -15.3244 C   0  0  0  0  0  0  0  0  0  0  0  0
   19.1682   -8.2142  -14.2282 O   0  0  0  0  0  0  0  0  0  0  0  0
   15.6442   -5.9245  -15.8056 O   0  0  0  0  0  0  0  0  0  0  0  0
   21.8834   -4.0104  -13.4823 N   0  0  0  0  0  0  0  0  0  0  0  0
   22.2600   -5.2521  -14.0478 C   0  0  0  0  0  0  0  0  0  0  0  0
   23.4620   -5.6029  -13.8976 O   0  0  0  0  0  0  0  0  0  0  0  0
   21.3069   -6.0911  -14.7685 C   0  0  0  0  0  0  0  0  0  0  0  0
   19.9122   -5.5754  -14.8422 C   0  0  2  0  0  0  0  0  0  0  0  0
   19.0447   -6.4224  -15.6363 N   0  0  0  0  0  0  0  0  0  0  0  0
   19.8848   -4.1864  -15.3509 C   0  0  0  0  0  0  0  0  0  0  0  0
   19.7979   -3.9438  -16.7435 O   0  0  0  0  0  0  0  0  0  0  0  0
   19.9322   -3.1478  -14.6559 O   0  0  0  0  0  0  0  0  0  0  0  0
  2  1  1  6
  2  9  1  0
  3  2  1  0
  3  4  1  0
  4  8  1  0
  4  5  2  0
  5  6  1  0
  7  6  1  0
  8  7  2  0
  9 10  2  0
 11  9  1  0
 11 12  1  0
 12 16  1  0
 12 13  1  1
 14 13  1  0
 15 14  2  0
 16 17  2  0
 18 14  1  0
 19 20  1  0
 20 22  1  0
 21 20  2  0
 23 22  1  6
 23 25  1  0
 24 16  1  0
 24 23  1  0
 25 27  2  0
 25 26  1  0
M  END
$$$$
