HDN.pdb
     RDKit          3D

 27 27  0  0  1  0  0  0  0  0999 V2000
   25.3909  -19.0825  -16.1163 N   0  0  0  0  0  0  0  0  0  0  0  0
   24.4282  -17.9941  -16.0972 C   0  0  1  0  0  0  0  0  0  0  0  0
   24.7225  -17.1549  -17.3242 C   0  0  0  0  0  0  0  0  0  0  0  0
   26.0559  -17.3857  -17.9016 C   0  0  0  0  0  0  0  0  0  0  0  0
   27.0112  -18.3142  -17.4780 C   0  0  0  0  0  0  0  0  0  0  0  0
   28.1080  -18.2111  -18.2631 N   0  0  0  0  0  0  0  0  0  0  0  0
   27.8599  -17.2352  -19.1719 C   0  0  0  0  0  0  0  0  0  0  0  0
   26.6176  -16.7498  -18.9376 N   0  0  0  0  0  0  0  0  0  0  0  0
   23.0468  -18.4789  -16.1548 C   0  0  0  0  0  0  0  0  0  0  0  0
   22.1305  -17.6032  -16.2455 O   0  0  0  0  0  0  0  0  0  0  0  0
   22.6714  -19.8518  -16.1164 N   0  0  0  0  0  0  0  0  0  0  0  0
   21.2939  -20.1917  -16.2227 C   0  0  1  0  0  0  0  0  0  0  0  0
   21.0795  -21.6974  -16.2940 C   0  0  0  0  0  0  0  0  0  0  0  0
   19.6905  -22.0382  -16.6040 C   0  0  0  0  0  0  0  0  0  0  0  0
   19.3533  -23.2364  -16.7851 O   0  0  0  0  0  0  0  0  0  0  0  0
   20.4581  -19.6890  -15.1108 C   0  0  0  0  0  0  0  0  0  0  0  0
   20.9441  -19.8033  -13.9513 O   0  0  0  0  0  0  0  0  0  0  0  0
   18.7047  -21.0938  -16.7115 O   0  0  0  0  0  0  0  0  0  0  0  0
   16.9592  -17.1851  -12.0884 N   0  0  0  0  0  0  0  0  0  0  0  0
   17.4193  -16.4587  -13.2128 C   0  0  0  0  0  0  0  0  0  0  0  0
   17.0829  -15.2453  -13.2810 O   0  0  0  0  0  0  0  0  0  0  0  0
   18.2456  -17.0785  -14.2446 C   0  0  0  0  0  0  0  0  0  0  0  0
   18.4371  -18.5503  -14.1278 C   0  0  2  0  0  0  0  0  0  0  0  0
   19.1907  -19.1052  -15.2345 N   0  0  0  0  0  0  0  0  0  0  0  0
   17.1391  -19.2460  -13.9862 C   0  0  0  0  0  0  0  0  0  0  0  0
   16.4870  -19.2796  -12.7295 O   0  0  0  0  0  0  0  0  0  0  0  0
   16.5195  -19.8388  -14.8965 O   0  0  0  0  0  0  0  0  0  0  0  0
  2  1  1  6
  2  9  1  0
  3  2  1  0
  3  4  1  0
  4  8  1  0
  4  5  2  0
  5  6  1  0
  7  6  1  0
  8  7  2  0
  9 10  2  0
 11  9  1  0
 11 12  1  0
 12 16  1  0
 12 13  1  1
 14 13  1  0
 15 14  2  0
 16 17  2  0
 18 14  1  0
 19 20  1  0
 20 22  1  0
 21 20  2  0
 23 22  1  6
 23 25  1  0
 24 16  1  0
 24 23  1  0
 25 27  2  0
 25 26  1  0
M  END
$$$$
