HDN.pdb
     RDKit          3D

 27 27  0  0  1  0  0  0  0  0999 V2000
   29.4620  -30.3436  -17.0417 N   0  0  0  0  0  0  0  0  0  0  0  0
   28.7573  -29.4150  -17.9094 C   0  0  1  0  0  0  0  0  0  0  0  0
   28.2775  -30.2315  -19.0925 C   0  0  0  0  0  0  0  0  0  0  0  0
   29.3533  -30.6607  -19.9995 C   0  0  0  0  0  0  0  0  0  0  0  0
   30.0467  -31.8743  -19.9739 C   0  0  0  0  0  0  0  0  0  0  0  0
   30.9635  -31.8820  -20.9685 N   0  0  0  0  0  0  0  0  0  0  0  0
   30.8594  -30.6962  -21.6186 C   0  0  0  0  0  0  0  0  0  0  0  0
   29.8832  -29.9737  -21.0195 N   0  0  0  0  0  0  0  0  0  0  0  0
   27.6084  -28.7992  -17.2406 C   0  0  0  0  0  0  0  0  0  0  0  0
   27.1817  -29.3659  -16.1864 O   0  0  0  0  0  0  0  0  0  0  0  0
   26.9488  -27.6207  -17.6916 N   0  0  0  0  0  0  0  0  0  0  0  0
   26.0467  -26.9582  -16.8132 C   0  0  1  0  0  0  0  0  0  0  0  0
   26.1681  -25.4432  -16.9038 C   0  0  0  0  0  0  0  0  0  0  0  0
   27.4446  -24.9640  -16.3722 C   0  0  0  0  0  0  0  0  0  0  0  0
   27.8769  -25.3909  -15.2709 O   0  0  0  0  0  0  0  0  0  0  0  0
   24.6239  -27.2914  -17.0415 C   0  0  0  0  0  0  0  0  0  0  0  0
   24.2317  -27.2723  -18.2414 O   0  0  0  0  0  0  0  0  0  0  0  0
   28.2203  -24.0462  -17.0288 O   0  0  0  0  0  0  0  0  0  0  0  0
   22.5081  -30.7072  -15.6404 N   0  0  0  0  0  0  0  0  0  0  0  0
   21.7966  -29.8374  -14.7797 C   0  0  0  0  0  0  0  0  0  0  0  0
   21.3569  -30.3346  -13.7075 O   0  0  0  0  0  0  0  0  0  0  0  0
   21.5817  -28.4319  -15.1110 C   0  0  0  0  0  0  0  0  0  0  0  0
   22.2973  -27.9309  -16.3167 C   0  0  2  0  0  0  0  0  0  0  0  0
   23.6884  -27.6218  -16.0524 N   0  0  0  0  0  0  0  0  0  0  0  0
   21.6079  -26.7564  -16.8947 C   0  0  0  0  0  0  0  0  0  0  0  0
   21.7139  -25.4922  -16.2651 O   0  0  0  0  0  0  0  0  0  0  0  0
   20.9055  -26.7517  -17.9294 O   0  0  0  0  0  0  0  0  0  0  0  0
  2  1  1  1
  2  9  1  0
  3  2  1  0
  3  4  1  0
  4  8  1  0
  4  5  2  0
  5  6  1  0
  7  6  1  0
  8  7  2  0
  9 10  2  0
 11  9  1  0
 11 12  1  0
 12 16  1  0
 12 13  1  6
 14 13  1  0
 15 14  2  0
 16 17  2  0
 18 14  1  0
 19 20  1  0
 20 22  1  0
 21 20  2  0
 23 22  1  1
 23 25  1  0
 24 16  1  0
 24 23  1  0
 25 27  2  0
 25 26  1  0
M  END
$$$$
