HDN.pdb
     RDKit          3D

 27 27  0  0  1  0  0  0  0  0999 V2000
   24.4950  -11.9755  -18.6845 N   0  0  0  0  0  0  0  0  0  0  0  0
   24.0034  -11.6985  -17.3453 C   0  0  1  0  0  0  0  0  0  0  0  0
   25.1868  -11.1549  -16.5704 C   0  0  0  0  0  0  0  0  0  0  0  0
   26.2322  -12.1530  -16.2958 C   0  0  0  0  0  0  0  0  0  0  0  0
   26.2271  -13.5035  -16.6570 C   0  0  0  0  0  0  0  0  0  0  0  0
   27.3660  -14.0846  -16.2152 N   0  0  0  0  0  0  0  0  0  0  0  0
   28.0865  -13.1249  -15.5832 C   0  0  0  0  0  0  0  0  0  0  0  0
   27.3862  -11.9673  -15.6424 N   0  0  0  0  0  0  0  0  0  0  0  0
   22.9231  -10.7089  -17.3483 C   0  0  0  0  0  0  0  0  0  0  0  0
   22.9568   -9.8197  -18.2554 O   0  0  0  0  0  0  0  0  0  0  0  0
   21.8515  -10.6814  -16.4112 N   0  0  0  0  0  0  0  0  0  0  0  0
   20.8265   -9.7069  -16.5665 C   0  0  1  0  0  0  0  0  0  0  0  0
   19.4485  -10.2693  -16.2453 C   0  0  0  0  0  0  0  0  0  0  0  0
   18.3855   -9.3007  -16.5166 C   0  0  0  0  0  0  0  0  0  0  0  0
   17.3721   -9.2419  -15.7738 O   0  0  0  0  0  0  0  0  0  0  0  0
   21.0057   -8.5003  -15.7302 C   0  0  0  0  0  0  0  0  0  0  0  0
   21.7698   -8.6210  -14.7325 O   0  0  0  0  0  0  0  0  0  0  0  0
   18.4343   -8.4259  -17.5690 O   0  0  0  0  0  0  0  0  0  0  0  0
   21.6374   -3.5898  -14.0561 N   0  0  0  0  0  0  0  0  0  0  0  0
   22.5865   -4.4730  -14.6240 C   0  0  0  0  0  0  0  0  0  0  0  0
   23.7986   -4.1363  -14.5363 O   0  0  0  0  0  0  0  0  0  0  0  0
   22.1874   -5.7158  -15.2780 C   0  0  0  0  0  0  0  0  0  0  0  0
   20.7379   -6.0494  -15.2118 C   0  0  2  0  0  0  0  0  0  0  0  0
   20.4074   -7.2526  -15.9491 N   0  0  0  0  0  0  0  0  0  0  0  0
   19.9092   -4.9151  -15.6760 C   0  0  0  0  0  0  0  0  0  0  0  0
   18.9683   -5.1049  -16.7174 O   0  0  0  0  0  0  0  0  0  0  0  0
   19.9464   -3.7469  -15.2312 O   0  0  0  0  0  0  0  0  0  0  0  0
  2  1  1  6
  2  9  1  0
  3  2  1  0
  3  4  1  0
  4  8  1  0
  4  5  2  0
  5  6  1  0
  7  6  1  0
  8  7  2  0
  9 10  2  0
 11  9  1  0
 11 12  1  0
 12 16  1  0
 12 13  1  1
 14 13  1  0
 15 14  2  0
 16 17  2  0
 18 14  1  0
 19 20  1  0
 20 22  1  0
 21 20  2  0
 23 22  1  6
 23 25  1  0
 24 16  1  0
 24 23  1  0
 25 27  2  0
 25 26  1  0
M  END
$$$$
