HDN.pdb
     RDKit          3D

 27 27  0  0  1  0  0  0  0  0999 V2000
   17.5541  -11.9000  -16.1541 N   0  0  0  0  0  0  0  0  0  0  0  0
   17.7750  -10.5811  -16.7229 C   0  0  1  0  0  0  0  0  0  0  0  0
   16.4113   -9.9243  -16.7960 C   0  0  0  0  0  0  0  0  0  0  0  0
   15.4599  -10.6166  -17.6793 C   0  0  0  0  0  0  0  0  0  0  0  0
   15.7028  -11.7506  -18.4599 C   0  0  0  0  0  0  0  0  0  0  0  0
   14.5757  -12.0740  -19.1344 N   0  0  0  0  0  0  0  0  0  0  0  0
   13.6293  -11.1645  -18.7925 C   0  0  0  0  0  0  0  0  0  0  0  0
   14.1817  -10.2941  -17.9143 N   0  0  0  0  0  0  0  0  0  0  0  0
   18.6678   -9.7662  -15.8951 C   0  0  0  0  0  0  0  0  0  0  0  0
   18.8343  -10.1340  -14.6902 O   0  0  0  0  0  0  0  0  0  0  0  0
   19.3520   -8.6033  -16.3499 N   0  0  0  0  0  0  0  0  0  0  0  0
   20.3174   -7.9962  -15.4992 C   0  0  1  0  0  0  0  0  0  0  0  0
   21.5316   -8.8891  -15.2824 C   0  0  0  0  0  0  0  0  0  0  0  0
   22.4977   -8.2852  -14.3638 C   0  0  0  0  0  0  0  0  0  0  0  0
   22.5537   -8.6564  -13.1634 O   0  0  0  0  0  0  0  0  0  0  0  0
   20.8212   -6.6938  -15.9866 C   0  0  0  0  0  0  0  0  0  0  0  0
   21.0038   -6.5967  -17.2320 O   0  0  0  0  0  0  0  0  0  0  0  0
   23.3729   -7.3060  -14.7514 O   0  0  0  0  0  0  0  0  0  0  0  0
   19.3404   -1.7041  -15.8408 N   0  0  0  0  0  0  0  0  0  0  0  0
   18.5445   -2.8246  -15.5023 C   0  0  0  0  0  0  0  0  0  0  0  0
   17.3057   -2.6242  -15.3784 O   0  0  0  0  0  0  0  0  0  0  0  0
   19.1240   -4.1505  -15.3078 C   0  0  0  0  0  0  0  0  0  0  0  0
   20.6031   -4.2415  -15.4519 C   0  0  2  0  0  0  0  0  0  0  0  0
   21.1085   -5.5751  -15.1938 N   0  0  0  0  0  0  0  0  0  0  0  0
   21.2838   -3.2544  -14.5852 C   0  0  0  0  0  0  0  0  0  0  0  0
   21.2443   -1.8773  -14.9136 O   0  0  0  0  0  0  0  0  0  0  0  0
   21.9233   -3.5100  -13.5414 O   0  0  0  0  0  0  0  0  0  0  0  0
  2  1  1  1
  2  9  1  0
  3  2  1  0
  3  4  1  0
  4  8  1  0
  4  5  2  0
  5  6  1  0
  7  6  1  0
  8  7  2  0
  9 10  2  0
 11  9  1  0
 11 12  1  0
 12 16  1  0
 12 13  1  6
 14 13  1  0
 15 14  2  0
 16 17  2  0
 18 14  1  0
 19 20  1  0
 20 22  1  0
 21 20  2  0
 23 22  1  1
 23 25  1  0
 24 16  1  0
 24 23  1  0
 25 27  2  0
 25 26  1  0
M  END
$$$$
