HDN.pdb
     RDKit          3D

 27 27  0  0  1  0  0  0  0  0999 V2000
   24.4540  -16.0724  -18.2910 N   0  0  0  0  0  0  0  0  0  0  0  0
   24.6450  -17.4099  -17.7558 C   0  0  1  0  0  0  0  0  0  0  0  0
   25.5363  -17.2498  -16.5407 C   0  0  0  0  0  0  0  0  0  0  0  0
   26.9238  -16.8795  -16.8605 C   0  0  0  0  0  0  0  0  0  0  0  0
   27.4656  -16.6462  -18.1279 C   0  0  0  0  0  0  0  0  0  0  0  0
   28.7763  -16.3371  -17.9994 N   0  0  0  0  0  0  0  0  0  0  0  0
   29.0682  -16.3718  -16.6753 C   0  0  0  0  0  0  0  0  0  0  0  0
   27.9384  -16.7007  -16.0051 N   0  0  0  0  0  0  0  0  0  0  0  0
   23.3790  -18.0301  -17.3568 C   0  0  0  0  0  0  0  0  0  0  0  0
   22.4775  -17.2602  -16.8994 O   0  0  0  0  0  0  0  0  0  0  0  0
   23.0988  -19.4230  -17.4487 N   0  0  0  0  0  0  0  0  0  0  0  0
   21.8155  -19.8941  -17.0544 C   0  0  1  0  0  0  0  0  0  0  0  0
   21.4908  -21.2503  -17.6657 C   0  0  0  0  0  0  0  0  0  0  0  0
   21.5692  -21.2247  -19.1268 C   0  0  0  0  0  0  0  0  0  0  0  0
   22.2794  -22.0612  -19.7417 O   0  0  0  0  0  0  0  0  0  0  0  0
   21.6419  -20.0275  -15.5917 C   0  0  0  0  0  0  0  0  0  0  0  0
   22.6215  -19.6728  -14.8787 O   0  0  0  0  0  0  0  0  0  0  0  0
   20.8900  -20.3104  -19.8870 O   0  0  0  0  0  0  0  0  0  0  0  0
   20.0093  -20.2820  -10.6692 N   0  0  0  0  0  0  0  0  0  0  0  0
   20.2730  -19.1230  -11.4377 C   0  0  0  0  0  0  0  0  0  0  0  0
   20.3335  -18.0293  -10.8128 O   0  0  0  0  0  0  0  0  0  0  0  0
   20.4690  -19.1853  -12.8831 C   0  0  0  0  0  0  0  0  0  0  0  0
   20.3300  -20.5328  -13.5010 C   0  0  2  0  0  0  0  0  0  0  0  0
   20.4982  -20.5073  -14.9403 N   0  0  0  0  0  0  0  0  0  0  0  0
   19.0343  -21.1509  -13.1432 C   0  0  0  0  0  0  0  0  0  0  0  0
   17.8616  -20.8000  -13.8555 O   0  0  0  0  0  0  0  0  0  0  0  0
   18.8461  -21.9914  -12.2366 O   0  0  0  0  0  0  0  0  0  0  0  0
  2  1  1  1
  2  9  1  0
  3  2  1  0
  3  4  1  0
  4  8  1  0
  4  5  2  0
  5  6  1  0
  7  6  1  0
  8  7  2  0
  9 10  2  0
 11  9  1  0
 11 12  1  0
 12 16  1  0
 12 13  1  6
 14 13  1  0
 15 14  2  0
 16 17  2  0
 18 14  1  0
 19 20  1  0
 20 22  1  0
 21 20  2  0
 23 22  1  6
 23 25  1  0
 24 16  1  0
 24 23  1  0
 25 27  2  0
 25 26  1  0
M  END
$$$$
