HDN.pdb
     RDKit          3D

 27 27  0  0  1  0  0  0  0  0999 V2000
   24.3735  -14.1665  -19.7975 N   0  0  0  0  0  0  0  0  0  0  0  0
   23.2608  -13.2537  -19.9984 C   0  0  1  0  0  0  0  0  0  0  0  0
   22.0731  -13.8829  -19.2985 C   0  0  0  0  0  0  0  0  0  0  0  0
   21.6132  -15.1387  -19.9117 C   0  0  0  0  0  0  0  0  0  0  0  0
   21.0191  -15.2983  -21.1671 C   0  0  0  0  0  0  0  0  0  0  0  0
   20.7351  -16.6068  -21.3597 N   0  0  0  0  0  0  0  0  0  0  0  0
   21.1393  -17.2723  -20.2491 C   0  0  0  0  0  0  0  0  0  0  0  0
   21.6661  -16.3698  -19.3877 N   0  0  0  0  0  0  0  0  0  0  0  0
   23.5227  -11.9307  -19.4258 C   0  0  0  0  0  0  0  0  0  0  0  0
   23.9457  -11.8931  -18.2282 O   0  0  0  0  0  0  0  0  0  0  0  0
   23.3359  -10.7006  -20.1181 N   0  0  0  0  0  0  0  0  0  0  0  0
   23.6673   -9.4836  -19.4600 C   0  0  1  0  0  0  0  0  0  0  0  0
   24.0055   -8.3734  -20.4457 C   0  0  0  0  0  0  0  0  0  0  0  0
   24.4467   -7.1545  -19.7664 C   0  0  0  0  0  0  0  0  0  0  0  0
   25.1458   -7.2238  -18.7231 O   0  0  0  0  0  0  0  0  0  0  0  0
   22.6029   -8.9643  -18.5739 C   0  0  0  0  0  0  0  0  0  0  0  0
   21.4242   -9.0262  -19.0219 O   0  0  0  0  0  0  0  0  0  0  0  0
   24.1301   -5.9013  -20.2185 O   0  0  0  0  0  0  0  0  0  0  0  0
   19.9916   -8.8332  -13.5025 N   0  0  0  0  0  0  0  0  0  0  0  0
   20.9232   -7.9229  -14.0567 C   0  0  0  0  0  0  0  0  0  0  0  0
   20.8263   -6.7195  -13.6923 O   0  0  0  0  0  0  0  0  0  0  0  0
   21.9498   -8.3514  -15.0022 C   0  0  0  0  0  0  0  0  0  0  0  0
   21.7126   -7.9914  -16.4273 C   0  0  2  0  0  0  0  0  0  0  0  0
   22.7902   -8.4176  -17.2978 N   0  0  0  0  0  0  0  0  0  0  0  0
   21.4719   -6.5393  -16.5762 C   0  0  0  0  0  0  0  0  0  0  0  0
   22.5008   -5.6973  -17.0643 O   0  0  0  0  0  0  0  0  0  0  0  0
   20.4087   -5.9388  -16.3063 O   0  0  0  0  0  0  0  0  0  0  0  0
  2  1  1  1
  2  9  1  0
  3  2  1  0
  3  4  1  0
  4  8  1  0
  4  5  2  0
  5  6  1  0
  7  6  1  0
  8  7  2  0
  9 10  2  0
 11  9  1  0
 11 12  1  0
 12 16  1  0
 12 13  1  6
 14 13  1  0
 15 14  2  0
 16 17  2  0
 18 14  1  0
 19 20  1  0
 20 22  1  0
 21 20  2  0
 23 22  1  1
 23 25  1  0
 24 16  1  0
 24 23  1  0
 25 27  2  0
 25 26  1  0
M  END
$$$$
