HDN.pdb
     RDKit          3D

 27 27  0  0  1  0  0  0  0  0999 V2000
   15.4890   -7.6222   -7.7920 N   0  0  0  0  0  0  0  0  0  0  0  0
   15.1340   -7.5146   -9.1970 C   0  0  1  0  0  0  0  0  0  0  0  0
   14.9563   -6.0347   -9.4705 C   0  0  0  0  0  0  0  0  0  0  0  0
   13.7688   -5.4462   -8.8318 C   0  0  0  0  0  0  0  0  0  0  0  0
   12.4311   -5.6544   -9.1801 C   0  0  0  0  0  0  0  0  0  0  0  0
   11.6406   -4.9286   -8.3566 N   0  0  0  0  0  0  0  0  0  0  0  0
   12.4563   -4.2681   -7.4975 C   0  0  0  0  0  0  0  0  0  0  0  0
   13.7357   -4.5932   -7.8001 N   0  0  0  0  0  0  0  0  0  0  0  0
   16.1784   -8.0529  -10.0723 C   0  0  0  0  0  0  0  0  0  0  0  0
   17.3754   -7.9879   -9.6509 O   0  0  0  0  0  0  0  0  0  0  0  0
   15.9394   -8.6369  -11.3487 N   0  0  0  0  0  0  0  0  0  0  0  0
   17.0467   -9.1071  -12.1083 C   0  0  1  0  0  0  0  0  0  0  0  0
   16.6237  -10.0990  -13.1833 C   0  0  0  0  0  0  0  0  0  0  0  0
   16.2566  -11.3971  -12.6159 C   0  0  0  0  0  0  0  0  0  0  0  0
   16.6643  -11.7318  -11.4740 O   0  0  0  0  0  0  0  0  0  0  0  0
   17.8149   -8.0394  -12.7847 C   0  0  0  0  0  0  0  0  0  0  0  0
   17.1382   -7.1104  -13.3072 O   0  0  0  0  0  0  0  0  0  0  0  0
   15.4678  -12.2974  -13.2810 O   0  0  0  0  0  0  0  0  0  0  0  0
   21.5927   -4.9744  -14.8552 N   0  0  0  0  0  0  0  0  0  0  0  0
   21.8889   -5.3970  -13.5372 C   0  0  0  0  0  0  0  0  0  0  0  0
   22.8990   -4.8784  -12.9885 O   0  0  0  0  0  0  0  0  0  0  0  0
   21.0669   -6.3826  -12.8413 C   0  0  0  0  0  0  0  0  0  0  0  0
   19.9237   -6.9396  -13.6157 C   0  0  2  0  0  0  0  0  0  0  0  0
   19.2100   -7.9732  -12.8926 N   0  0  0  0  0  0  0  0  0  0  0  0
   20.3692   -7.4444  -14.9330 C   0  0  0  0  0  0  0  0  0  0  0  0
   20.4432   -6.5646  -16.0404 O   0  0  0  0  0  0  0  0  0  0  0  0
   20.7054   -8.6202  -15.1945 O   0  0  0  0  0  0  0  0  0  0  0  0
  2  1  1  1
  2  9  1  0
  3  2  1  0
  3  4  1  0
  4  8  1  0
  4  5  2  0
  5  6  1  0
  7  6  1  0
  8  7  2  0
  9 10  2  0
 11  9  1  0
 11 12  1  0
 12 16  1  0
 12 13  1  6
 14 13  1  0
 15 14  2  0
 16 17  2  0
 18 14  1  0
 19 20  1  0
 20 22  1  0
 21 20  2  0
 23 22  1  1
 23 25  1  0
 24 16  1  0
 24 23  1  0
 25 27  2  0
 25 26  1  0
M  END
$$$$
