HDN.pdb
     RDKit          3D

 27 27  0  0  1  0  0  0  0  0999 V2000
   20.8066  -11.4061  -16.0175 N   0  0  0  0  0  0  0  0  0  0  0  0
   20.1742  -10.2717  -16.6695 C   0  0  1  0  0  0  0  0  0  0  0  0
   18.7465  -10.6946  -16.9510 C   0  0  0  0  0  0  0  0  0  0  0  0
   18.6279  -11.7912  -17.9246 C   0  0  0  0  0  0  0  0  0  0  0  0
   18.1062  -13.0685  -17.6996 C   0  0  0  0  0  0  0  0  0  0  0  0
   18.1799  -13.7853  -18.8445 N   0  0  0  0  0  0  0  0  0  0  0  0
   18.7381  -12.9826  -19.7846 C   0  0  0  0  0  0  0  0  0  0  0  0
   19.0011  -11.7845  -19.2106 N   0  0  0  0  0  0  0  0  0  0  0  0
   20.1734   -9.0778  -15.8203 C   0  0  0  0  0  0  0  0  0  0  0  0
   19.7668   -9.2196  -14.6248 O   0  0  0  0  0  0  0  0  0  0  0  0
   20.5944   -7.7856  -16.2446 N   0  0  0  0  0  0  0  0  0  0  0  0
   20.5823   -6.7156  -15.3070 C   0  0  1  0  0  0  0  0  0  0  0  0
   21.9768   -6.3943  -14.7869 C   0  0  0  0  0  0  0  0  0  0  0  0
   21.9591   -5.3024  -13.8126 C   0  0  0  0  0  0  0  0  0  0  0  0
   21.1707   -5.3350  -12.8330 O   0  0  0  0  0  0  0  0  0  0  0  0
   20.0170   -5.4544  -15.8337 C   0  0  0  0  0  0  0  0  0  0  0  0
   20.4665   -5.0633  -16.9467 O   0  0  0  0  0  0  0  0  0  0  0  0
   22.7802   -4.2110  -13.9114 O   0  0  0  0  0  0  0  0  0  0  0  0
   17.1768   -1.0929  -16.7189 N   0  0  0  0  0  0  0  0  0  0  0  0
   16.4248   -2.0748  -16.0305 C   0  0  0  0  0  0  0  0  0  0  0  0
   15.1971   -1.8378  -15.8668 O   0  0  0  0  0  0  0  0  0  0  0  0
   17.0351   -3.3050  -15.5346 C   0  0  0  0  0  0  0  0  0  0  0  0
   18.4989   -3.4449  -15.7679 C   0  0  2  0  0  0  0  0  0  0  0  0
   19.0389   -4.6689  -15.2103 N   0  0  0  0  0  0  0  0  0  0  0  0
   19.2349   -2.2716  -15.2478 C   0  0  0  0  0  0  0  0  0  0  0  0
   19.3930   -1.1194  -16.0562 O   0  0  0  0  0  0  0  0  0  0  0  0
   19.7610   -2.1756  -14.1174 O   0  0  0  0  0  0  0  0  0  0  0  0
  2  1  1  1
  2  9  1  0
  3  2  1  0
  3  4  1  0
  4  8  1  0
  4  5  2  0
  5  6  1  0
  7  6  1  0
  8  7  2  0
  9 10  2  0
 11  9  1  0
 11 12  1  0
 12 16  1  0
 12 13  1  6
 14 13  1  0
 15 14  2  0
 16 17  2  0
 18 14  1  0
 19 20  1  0
 20 22  1  0
 21 20  2  0
 23 22  1  1
 23 25  1  0
 24 16  1  0
 24 23  1  0
 25 27  2  0
 25 26  1  0
M  END
$$$$
