DTP.pdb
     RDKit          3D

 23 23  0  0  1  0  0  0  0  0999 V2000
   17.2754  -13.1960  -16.8704 N   0  0  0  0  0  0  0  0  0  0  0  0
   17.1690  -11.8643  -16.2592 C   0  0  1  0  0  0  0  0  0  0  0  0
   16.5178  -12.0653  -14.9137 C   0  0  0  0  0  0  0  0  0  0  0  0
   15.1063  -12.4654  -15.1596 C   0  0  0  0  0  0  0  0  0  0  0  0
   14.3247  -11.8562  -15.9096 O   0  0  0  0  0  0  0  0  0  0  0  0
   18.5181  -11.2605  -16.1466 C   0  0  0  0  0  0  0  0  0  0  0  0
   19.4369  -11.9847  -15.6819 O   0  0  0  0  0  0  0  0  0  0  0  0
   14.6556  -13.6027  -14.4922 O   0  0  0  0  0  0  0  0  0  0  0  0
   20.6779  -10.1609  -18.8581 C   0  0  0  0  0  0  0  0  0  0  0  0
   20.4202   -9.0075  -17.9568 C   0  0  1  0  0  0  0  0  0  0  0  0
   19.1833   -8.4504  -18.3847 O   0  0  0  0  0  0  0  0  0  0  0  0
   20.1977   -9.3965  -16.4850 C   0  0  2  0  0  0  0  0  0  0  0  0
   18.8244   -9.9449  -16.5238 N   0  0  0  0  0  0  0  0  0  0  0  0
   20.2476   -8.2434  -15.5776 C   0  0  0  0  0  0  0  0  0  0  0  0
   19.2034   -7.5003  -15.5374 O   0  0  0  0  0  0  0  0  0  0  0  0
   21.3010   -7.8383  -14.7287 N   0  0  0  0  0  0  0  0  0  0  0  0
   22.5490   -8.5917  -14.5323 C   0  0  0  0  0  0  0  0  0  0  0  0
   22.7996   -8.4260  -13.0381 C   0  0  0  0  0  0  0  0  0  0  0  0
   22.4573   -6.9708  -12.8678 C   0  0  0  0  0  0  0  0  0  0  0  0
   21.3943   -6.6956  -13.8707 C   0  0  1  0  0  0  0  0  0  0  0  0
   21.7523   -5.4564  -14.6005 C   0  0  0  0  0  0  0  0  0  0  0  0
   21.8071   -4.3630  -14.0159 O   0  0  0  0  0  0  0  0  0  0  0  0
   22.0277   -5.5248  -15.9487 O   0  0  0  0  0  0  0  0  0  0  0  0
  2  1  1  1
  3  4  1  0
  3  2  1  0
  4  8  1  0
  4  5  2  0
  6  2  1  0
  7  6  2  0
 10  9  1  6
 10 12  1  0
 11 10  1  0
 12 14  1  0
 12 13  1  6
 13  6  1  0
 14 16  1  0
 15 14  2  0
 16 20  1  0
 16 17  1  0
 17 18  1  0
 19 18  1  0
 20 21  1  6
 20 19  1  0
 21 23  1  0
 22 21  2  0
M  END
$$$$
