DTP.pdb
     RDKit          3D

 23 23  0  0  1  0  0  0  0  0999 V2000
   14.0409  -13.0723  -13.3418 N   0  0  0  0  0  0  0  0  0  0  0  0
   13.6127  -11.6698  -13.2526 C   0  0  1  0  0  0  0  0  0  0  0  0
   12.1344  -11.6953  -12.9550 C   0  0  0  0  0  0  0  0  0  0  0  0
   11.4311  -12.0069  -14.2283 C   0  0  0  0  0  0  0  0  0  0  0  0
   10.4645  -12.7819  -14.3246 O   0  0  0  0  0  0  0  0  0  0  0  0
   14.3879  -10.9806  -12.1936 C   0  0  0  0  0  0  0  0  0  0  0  0
   14.5596  -11.5980  -11.1103 O   0  0  0  0  0  0  0  0  0  0  0  0
   11.9082  -11.3741  -15.3746 O   0  0  0  0  0  0  0  0  0  0  0  0
   17.7526  -10.3517  -12.2365 C   0  0  0  0  0  0  0  0  0  0  0  0
   17.1477   -9.0169  -11.9882 C   0  0  1  0  0  0  0  0  0  0  0  0
   16.8894   -8.4637  -13.2730 O   0  0  0  0  0  0  0  0  0  0  0  0
   15.7777   -9.0670  -11.2897 C   0  0  2  0  0  0  0  0  0  0  0  0
   14.9337   -9.6958  -12.3293 N   0  0  0  0  0  0  0  0  0  0  0  0
   15.2557   -7.7340  -10.9640 C   0  0  0  0  0  0  0  0  0  0  0  0
   14.6027   -7.1325  -11.8892 O   0  0  0  0  0  0  0  0  0  0  0  0
   15.3726   -7.0164   -9.7534 N   0  0  0  0  0  0  0  0  0  0  0  0
   15.9795   -7.5499   -8.5242 C   0  0  0  0  0  0  0  0  0  0  0  0
   15.0600   -7.0002   -7.4401 C   0  0  0  0  0  0  0  0  0  0  0  0
   14.8590   -5.5969   -7.9440 C   0  0  0  0  0  0  0  0  0  0  0  0
   14.9209   -5.6974   -9.4265 C   0  0  1  0  0  0  0  0  0  0  0  0
   15.8283   -4.6382   -9.9274 C   0  0  0  0  0  0  0  0  0  0  0  0
   16.9435   -4.9193  -10.3941 O   0  0  0  0  0  0  0  0  0  0  0  0
   15.4228   -3.3226   -9.8720 O   0  0  0  0  0  0  0  0  0  0  0  0
  2  1  1  1
  3  4  1  0
  3  2  1  0
  4  8  1  0
  4  5  2  0
  6  2  1  0
  7  6  2  0
 10  9  1  6
 10 12  1  0
 11 10  1  0
 12 14  1  0
 12 13  1  6
 13  6  1  0
 14 16  1  0
 15 14  2  0
 16 20  1  0
 16 17  1  0
 17 18  1  0
 19 18  1  0
 20 21  1  1
 20 19  1  0
 21 23  1  0
 22 21  2  0
M  END
$$$$
