DTP.pdb
     RDKit          3D

 23 23  0  0  1  0  0  0  0  0999 V2000
   17.2776   -6.0549   -9.5076 N   0  0  0  0  0  0  0  0  0  0  0  0
   16.8929   -6.1429  -10.9227 C   0  0  1  0  0  0  0  0  0  0  0  0
   15.7824   -5.1424  -11.1239 C   0  0  0  0  0  0  0  0  0  0  0  0
   14.5318   -5.7576  -10.6040 C   0  0  0  0  0  0  0  0  0  0  0  0
   14.4677   -6.8843  -10.0835 O   0  0  0  0  0  0  0  0  0  0  0  0
   18.0704   -5.8556  -11.7761 C   0  0  0  0  0  0  0  0  0  0  0  0
   18.6090   -4.7245  -11.6537 O   0  0  0  0  0  0  0  0  0  0  0  0
   13.3688   -4.9987  -10.7207 O   0  0  0  0  0  0  0  0  0  0  0  0
   21.2744   -6.6730  -11.4254 C   0  0  0  0  0  0  0  0  0  0  0  0
   20.8971   -7.2636  -12.7362 C   0  0  1  0  0  0  0  0  0  0  0  0
   20.2916   -8.5155  -12.4369 O   0  0  0  0  0  0  0  0  0  0  0  0
   19.8221   -6.4693  -13.4981 C   0  0  2  0  0  0  0  0  0  0  0  0
   18.6112   -6.7615  -12.7001 N   0  0  0  0  0  0  0  0  0  0  0  0
   19.6357   -6.9407  -14.8760 C   0  0  0  0  0  0  0  0  0  0  0  0
   18.9240   -7.9962  -15.0293 O   0  0  0  0  0  0  0  0  0  0  0  0
   20.1366   -6.3802  -16.0716 N   0  0  0  0  0  0  0  0  0  0  0  0
   20.8687   -5.1069  -16.1518 C   0  0  0  0  0  0  0  0  0  0  0  0
   20.3168   -4.4923  -17.4326 C   0  0  0  0  0  0  0  0  0  0  0  0
   20.2920   -5.7045  -18.3236 C   0  0  0  0  0  0  0  0  0  0  0  0
   20.0263   -6.8541  -17.4184 C   0  0  1  0  0  0  0  0  0  0  0  0
   20.9987   -7.9277  -17.7316 C   0  0  0  0  0  0  0  0  0  0  0  0
   21.8740   -8.2560  -16.9153 O   0  0  0  0  0  0  0  0  0  0  0  0
   20.9254   -8.5681  -18.9493 O   0  0  0  0  0  0  0  0  0  0  0  0
  2  1  1  1
  3  4  1  0
  3  2  1  0
  4  8  1  0
  4  5  2  0
  6  2  1  0
  7  6  2  0
 10  9  1  1
 10 12  1  0
 11 10  1  0
 12 14  1  0
 12 13  1  1
 13  6  1  0
 14 16  1  0
 15 14  2  0
 16 20  1  0
 16 17  1  0
 17 18  1  0
 19 18  1  0
 20 21  1  6
 20 19  1  0
 21 23  1  0
 22 21  2  0
M  END
$$$$
