DTP.pdb
     RDKit          3D

 23 23  0  0  1  0  0  0  0  0999 V2000
   19.8002   -6.8438  -15.4026 N   0  0  0  0  0  0  0  0  0  0  0  0
   19.3711   -7.7795  -14.3546 C   0  0  1  0  0  0  0  0  0  0  0  0
   20.6253   -8.4296  -13.8262 C   0  0  0  0  0  0  0  0  0  0  0  0
   21.0252   -9.4793  -14.8014 C   0  0  0  0  0  0  0  0  0  0  0  0
   20.3662   -9.7893  -15.8084 O   0  0  0  0  0  0  0  0  0  0  0  0
   18.6336   -7.0414  -13.3017 C   0  0  0  0  0  0  0  0  0  0  0  0
   19.1795   -6.0095  -12.8309 O   0  0  0  0  0  0  0  0  0  0  0  0
   22.2229  -10.1442  -14.5451 O   0  0  0  0  0  0  0  0  0  0  0  0
   16.3237   -4.8019  -13.7063 C   0  0  0  0  0  0  0  0  0  0  0  0
   15.6490   -5.8478  -12.8939 C   0  0  1  0  0  0  0  0  0  0  0  0
   15.2392   -6.8502  -13.8163 O   0  0  0  0  0  0  0  0  0  0  0  0
   16.5772   -6.5701  -11.9019 C   0  0  2  0  0  0  0  0  0  0  0  0
   17.3780   -7.4233  -12.8070 N   0  0  0  0  0  0  0  0  0  0  0  0
   15.8452   -7.4094  -10.9452 C   0  0  0  0  0  0  0  0  0  0  0  0
   15.6634   -8.6340  -11.2791 O   0  0  0  0  0  0  0  0  0  0  0  0
   15.3108   -7.0481   -9.6889 N   0  0  0  0  0  0  0  0  0  0  0  0
   15.4755   -5.7275   -9.0624 C   0  0  0  0  0  0  0  0  0  0  0  0
   15.6877   -6.0852   -7.5961 C   0  0  0  0  0  0  0  0  0  0  0  0
   14.6514   -7.1632   -7.4296 C   0  0  0  0  0  0  0  0  0  0  0  0
   14.5649   -7.8351   -8.7535 C   0  0  1  0  0  0  0  0  0  0  0  0
   13.1342   -7.9601   -9.1195 C   0  0  0  0  0  0  0  0  0  0  0  0
   12.3993   -8.7855   -8.5547 O   0  0  0  0  0  0  0  0  0  0  0  0
   12.6170   -7.1450  -10.1025 O   0  0  0  0  0  0  0  0  0  0  0  0
  2  1  1  6
  3  4  1  0
  3  2  1  0
  4  8  1  0
  4  5  2  0
  6  2  1  0
  7  6  2  0
 10  9  1  6
 10 12  1  0
 11 10  1  0
 12 14  1  0
 12 13  1  6
 13  6  1  0
 14 16  1  0
 15 14  2  0
 16 20  1  0
 16 17  1  0
 17 18  1  0
 19 18  1  0
 20 21  1  6
 20 19  1  0
 21 23  1  0
 22 21  2  0
M  END
$$$$
