DTP.pdb
     RDKit          3D

 23 23  0  0  1  0  0  0  0  0999 V2000
   16.2484  -12.4025  -16.4479 N   0  0  0  0  0  0  0  0  0  0  0  0
   16.5443  -11.4226  -15.3941 C   0  0  1  0  0  0  0  0  0  0  0  0
   16.8582  -12.2173  -14.1513 C   0  0  0  0  0  0  0  0  0  0  0  0
   15.6060  -12.9051  -13.7367 C   0  0  0  0  0  0  0  0  0  0  0  0
   15.4999  -14.1328  -13.5759 O   0  0  0  0  0  0  0  0  0  0  0  0
   17.6788  -10.5670  -15.8163 C   0  0  0  0  0  0  0  0  0  0  0  0
   18.6526  -11.1354  -16.3757 O   0  0  0  0  0  0  0  0  0  0  0  0
   14.4925  -12.0953  -13.5207 O   0  0  0  0  0  0  0  0  0  0  0  0
   17.7264   -8.0816  -18.4065 C   0  0  0  0  0  0  0  0  0  0  0  0
   18.0998   -7.4195  -17.1293 C   0  0  1  0  0  0  0  0  0  0  0  0
   16.8722   -7.0886  -16.4912 O   0  0  0  0  0  0  0  0  0  0  0  0
   18.8341   -8.3370  -16.1362 C   0  0  2  0  0  0  0  0  0  0  0  0
   17.7274   -9.1778  -15.6298 N   0  0  0  0  0  0  0  0  0  0  0  0
   19.4466   -7.5985  -15.0249 C   0  0  0  0  0  0  0  0  0  0  0  0
   18.6556   -7.1950  -14.0999 O   0  0  0  0  0  0  0  0  0  0  0  0
   20.8067   -7.2714  -14.8312 N   0  0  0  0  0  0  0  0  0  0  0  0
   21.8971   -7.6762  -15.7318 C   0  0  0  0  0  0  0  0  0  0  0  0
   23.0167   -8.0195  -14.7563 C   0  0  0  0  0  0  0  0  0  0  0  0
   22.8791   -6.8841  -13.7786 C   0  0  0  0  0  0  0  0  0  0  0  0
   21.4295   -6.5525  -13.7607 C   0  0  1  0  0  0  0  0  0  0  0  0
   21.2862   -5.0836  -13.8947 C   0  0  0  0  0  0  0  0  0  0  0  0
   20.8353   -4.5771  -14.9341 O   0  0  0  0  0  0  0  0  0  0  0  0
   21.6610   -4.2722  -12.8461 O   0  0  0  0  0  0  0  0  0  0  0  0
  2  1  1  6
  3  4  1  0
  3  2  1  0
  4  8  1  0
  4  5  2  0
  6  2  1  0
  7  6  2  0
 10  9  1  6
 10 12  1  0
 11 10  1  0
 12 14  1  0
 12 13  1  1
 13  6  1  0
 14 16  1  0
 15 14  2  0
 16 20  1  0
 16 17  1  0
 17 18  1  0
 19 18  1  0
 20 21  1  6
 20 19  1  0
 21 23  1  0
 22 21  2  0
M  END
$$$$
