DTP.pdb
     RDKit          3D

 23 23  0  0  1  0  0  0  0  0999 V2000
   19.6938  -13.4058  -16.8975 N   0  0  0  0  0  0  0  0  0  0  0  0
   20.0295  -12.0721  -17.4142 C   0  0  1  0  0  0  0  0  0  0  0  0
   18.7362  -11.4668  -17.8996 C   0  0  0  0  0  0  0  0  0  0  0  0
   18.3141  -12.2302  -19.1045 C   0  0  0  0  0  0  0  0  0  0  0  0
   17.1322  -12.4681  -19.4061 O   0  0  0  0  0  0  0  0  0  0  0  0
   20.6590  -11.2676  -16.3400 C   0  0  0  0  0  0  0  0  0  0  0  0
   20.0953  -11.2670  -15.2145 O   0  0  0  0  0  0  0  0  0  0  0  0
   19.3317  -12.6984  -19.9336 O   0  0  0  0  0  0  0  0  0  0  0  0
   24.2226  -11.4711  -15.0348 C   0  0  0  0  0  0  0  0  0  0  0  0
   23.9163  -10.1015  -15.5242 C   0  0  1  0  0  0  0  0  0  0  0  0
   24.1972  -10.1167  -16.9186 O   0  0  0  0  0  0  0  0  0  0  0  0
   22.4315   -9.7127  -15.4178 C   0  0  2  0  0  0  0  0  0  0  0  0
   21.8320  -10.5169  -16.5051 N   0  0  0  0  0  0  0  0  0  0  0  0
   22.1976   -8.2850  -15.6678 C   0  0  0  0  0  0  0  0  0  0  0  0
   22.2007   -7.9099  -16.8939 O   0  0  0  0  0  0  0  0  0  0  0  0
   21.9623   -7.2558  -14.7298 N   0  0  0  0  0  0  0  0  0  0  0  0
   21.8142   -7.4667  -13.2816 C   0  0  0  0  0  0  0  0  0  0  0  0
   20.6957   -6.4958  -12.9223 C   0  0  0  0  0  0  0  0  0  0  0  0
   21.1077   -5.2983  -13.7347 C   0  0  0  0  0  0  0  0  0  0  0  0
   21.7764   -5.8519  -14.9421 C   0  0  1  0  0  0  0  0  0  0  0  0
   23.0533   -5.1264  -15.1409 C   0  0  0  0  0  0  0  0  0  0  0  0
   23.0649   -3.9218  -15.4394 O   0  0  0  0  0  0  0  0  0  0  0  0
   24.2433   -5.8046  -14.9909 O   0  0  0  0  0  0  0  0  0  0  0  0
  2  1  1  1
  3  4  1  0
  3  2  1  0
  4  8  1  0
  4  5  2  0
  6  2  1  0
  7  6  2  0
 10  9  1  6
 10 12  1  0
 11 10  1  0
 12 14  1  0
 12 13  1  6
 13  6  1  0
 14 16  1  0
 15 14  2  0
 16 20  1  0
 16 17  1  0
 17 18  1  0
 19 18  1  0
 20 21  1  1
 20 19  1  0
 21 23  1  0
 22 21  2  0
M  END
$$$$
