DTP.pdb
     RDKit          3D

 23 23  0  0  1  0  0  0  0  0999 V2000
   17.6472  -12.7268  -15.8870 N   0  0  0  0  0  0  0  0  0  0  0  0
   19.0401  -12.2844  -16.0364 C   0  0  1  0  0  0  0  0  0  0  0  0
   19.6264  -13.1002  -17.1614 C   0  0  0  0  0  0  0  0  0  0  0  0
   21.0911  -12.8408  -17.1805 C   0  0  0  0  0  0  0  0  0  0  0  0
   21.6191  -11.8351  -17.6847 O   0  0  0  0  0  0  0  0  0  0  0  0
   19.0712  -10.8299  -16.3206 C   0  0  0  0  0  0  0  0  0  0  0  0
   18.7536  -10.4624  -17.4818 O   0  0  0  0  0  0  0  0  0  0  0  0
   21.9026  -13.8057  -16.5867 O   0  0  0  0  0  0  0  0  0  0  0  0
   16.8592   -8.5309  -15.7730 C   0  0  0  0  0  0  0  0  0  0  0  0
   18.0449   -7.9943  -15.0552 C   0  0  1  0  0  0  0  0  0  0  0  0
   18.0267   -8.6018  -13.7691 O   0  0  0  0  0  0  0  0  0  0  0  0
   19.3931   -8.4034  -15.6736 C   0  0  2  0  0  0  0  0  0  0  0  0
   19.4301   -9.8529  -15.3806 N   0  0  0  0  0  0  0  0  0  0  0  0
   20.5366   -7.7378  -15.0373 C   0  0  0  0  0  0  0  0  0  0  0  0
   21.0786   -8.3494  -14.0492 O   0  0  0  0  0  0  0  0  0  0  0  0
   21.1314   -6.5015  -15.3723 N   0  0  0  0  0  0  0  0  0  0  0  0
   20.7573   -5.6860  -16.5380 C   0  0  0  0  0  0  0  0  0  0  0  0
   22.1073   -5.1741  -17.0260 C   0  0  0  0  0  0  0  0  0  0  0  0
   22.7542   -4.8272  -15.7126 C   0  0  0  0  0  0  0  0  0  0  0  0
   22.2043   -5.8013  -14.7326 C   0  0  1  0  0  0  0  0  0  0  0  0
   21.7669   -5.0547  -13.5294 C   0  0  0  0  0  0  0  0  0  0  0  0
   22.5943   -4.5547  -12.7511 O   0  0  0  0  0  0  0  0  0  0  0  0
   20.4198   -4.9165  -13.2756 O   0  0  0  0  0  0  0  0  0  0  0  0
  2  1  1  6
  3  4  1  0
  3  2  1  0
  4  8  1  0
  4  5  2  0
  6  2  1  0
  7  6  2  0
 10  9  1  6
 10 12  1  0
 11 10  1  0
 12 14  1  0
 12 13  1  1
 13  6  1  0
 14 16  1  0
 15 14  2  0
 16 20  1  0
 16 17  1  0
 17 18  1  0
 19 18  1  0
 20 21  1  1
 20 19  1  0
 21 23  1  0
 22 21  2  0
M  END
$$$$
