DTP.pdb
     RDKit          3D

 23 23  0  0  1  0  0  0  0  0999 V2000
   17.7882  -16.1553  -16.9711 N   0  0  0  0  0  0  0  0  0  0  0  0
   17.6640  -15.0514  -16.0097 C   0  0  1  0  0  0  0  0  0  0  0  0
   17.7861  -15.6670  -14.6382 C   0  0  0  0  0  0  0  0  0  0  0  0
   16.5242  -16.4080  -14.3710 C   0  0  0  0  0  0  0  0  0  0  0  0
   16.4508  -17.6404  -14.2289 O   0  0  0  0  0  0  0  0  0  0  0  0
   18.7204  -14.0448  -16.2706 C   0  0  0  0  0  0  0  0  0  0  0  0
   19.8691  -14.4746  -16.5538 O   0  0  0  0  0  0  0  0  0  0  0  0
   15.3614  -15.6455  -14.2784 O   0  0  0  0  0  0  0  0  0  0  0  0
   18.7982  -11.6883  -19.0206 C   0  0  0  0  0  0  0  0  0  0  0  0
   18.8697  -10.9219  -17.7491 C   0  0  1  0  0  0  0  0  0  0  0  0
   17.5228  -10.7448  -17.3274 O   0  0  0  0  0  0  0  0  0  0  0  0
   19.5552  -11.6770  -16.5971 C   0  0  2  0  0  0  0  0  0  0  0  0
   18.5145  -12.6584  -16.2203 N   0  0  0  0  0  0  0  0  0  0  0  0
   19.8610  -10.8112  -15.4514 C   0  0  0  0  0  0  0  0  0  0  0  0
   18.9166  -10.6277  -14.6037 O   0  0  0  0  0  0  0  0  0  0  0  0
   21.0707  -10.1480  -15.1496 N   0  0  0  0  0  0  0  0  0  0  0  0
   22.3056  -10.2674  -15.9398 C   0  0  0  0  0  0  0  0  0  0  0  0
   23.3815  -10.3091  -14.8611 C   0  0  0  0  0  0  0  0  0  0  0  0
   22.8726   -9.2406  -13.9321 C   0  0  0  0  0  0  0  0  0  0  0  0
   21.3909   -9.2883  -14.0500 C   0  0  1  0  0  0  0  0  0  0  0  0
   20.8940   -7.9049  -14.2381 C   0  0  0  0  0  0  0  0  0  0  0  0
   20.4587   -7.5254  -15.3366 O   0  0  0  0  0  0  0  0  0  0  0  0
   20.9180   -7.0304  -13.1737 O   0  0  0  0  0  0  0  0  0  0  0  0
  2  1  1  6
  3  4  1  0
  3  2  1  0
  4  8  1  0
  4  5  2  0
  6  2  1  0
  7  6  2  0
 10  9  1  6
 10 12  1  0
 11 10  1  0
 12 14  1  0
 12 13  1  1
 13  6  1  0
 14 16  1  0
 15 14  2  0
 16 20  1  0
 16 17  1  0
 17 18  1  0
 19 18  1  0
 20 21  1  6
 20 19  1  0
 21 23  1  0
 22 21  2  0
M  END
$$$$
