REY.pdb
     RDKit          3D

 33 33  0  0  1  0  0  0  0  0999 V2000
   32.8196  -25.0020  -15.1269 N   0  0  0  0  0  0  0  0  0  0  0  0
   33.5126  -25.6298  -16.2227 C   0  0  0  0  0  0  0  0  0  0  0  0
   34.5176  -26.3829  -15.9917 N   0  0  0  0  0  0  0  0  0  0  0  0
   33.1028  -25.4232  -17.5556 N   0  0  0  0  0  0  0  0  0  0  0  0
   31.6962  -25.4658  -17.9893 C   0  0  0  0  0  0  0  0  0  0  0  0
   31.2082  -24.1579  -18.4858 C   0  0  0  0  0  0  0  0  0  0  0  0
   30.5832  -23.2328  -17.5078 C   0  0  0  0  0  0  0  0  0  0  0  0
   29.2392  -23.6099  -17.0062 C   0  0  2  0  0  0  0  0  0  0  0  0
   28.4947  -24.2753  -18.0602 N   0  0  0  0  0  0  0  0  0  0  0  0
   28.4709  -22.4261  -16.5114 C   0  0  0  0  0  0  0  0  0  0  0  0
   29.0056  -21.5849  -15.7265 O   0  0  0  0  0  0  0  0  0  0  0  0
   35.0991  -26.8646  -16.6878 N   0  0  0  0  0  0  0  0  0  0  0  0
   27.1322  -22.1550  -16.8653 C   0  0  1  0  0  0  0  0  0  0  0  0
   26.3601  -21.0391  -16.3773 C   0  0  0  0  0  0  0  0  0  0  0  0
   25.5379  -20.3678  -17.4302 C   0  0  0  0  0  0  0  0  0  0  0  0
   24.5281  -21.3516  -17.9779 C   0  0  0  0  0  0  0  0  0  0  0  0
   23.7448  -20.7319  -19.0908 O   0  0  0  0  0  0  0  0  0  0  0  0
   22.5164  -20.6046  -19.0411 C   0  0  0  0  0  0  0  0  0  0  0  0
   25.4791  -21.4099  -15.2477 O   0  0  0  0  0  0  0  0  0  0  0  0
   24.8407  -22.4943  -15.2016 O   0  0  0  0  0  0  0  0  0  0  0  0
   24.4561  -20.2987  -20.1967 O   0  0  0  0  0  0  0  0  0  0  0  0
   21.6546  -21.0876   -7.3121 C   0  0  0  0  0  0  0  0  0  0  0  0
   22.4193  -20.7754   -8.4306 C   0  0  0  0  0  0  0  0  0  0  0  0
   21.8679  -20.1638   -9.5299 C   0  0  0  0  0  0  0  0  0  0  0  0
   22.6402  -19.8634  -10.6240 C   0  0  0  0  0  0  0  0  0  0  0  0
   24.0082  -20.1543  -10.6885 C   0  0  0  0  0  0  0  0  0  0  0  0
   24.8010  -19.8372  -11.8906 C   0  0  2  0  0  0  0  0  0  0  0  0
   24.4829  -20.7827  -13.0173 N   0  0  0  0  0  0  0  0  0  0  0  0
   25.3482  -20.5006  -14.1660 C   0  0  0  0  0  0  0  0  0  0  0  0
   23.0912  -20.6065  -13.4403 O   0  0  0  0  0  0  0  0  0  0  0  0
   22.1291  -21.5227  -13.0680 C   0  0  0  0  0  0  0  0  0  0  0  0
   24.5331  -20.7718   -9.5627 C   0  0  0  0  0  0  0  0  0  0  0  0
   23.7599  -21.0743   -8.4628 O   0  0  0  0  0  0  0  0  0  0  0  0
  2  3  2  0
  2  1  1  0
  4  2  1  0
  5  4  1  0
  6  5  1  0
  7  6  1  0
  8  7  1  0
  8 10  1  0
  8  9  1  6
 10 12  1  0
 10 11  2  0
 12 13  1  0
 13 14  1  6
 14 15  1  0
 16 20  1  0
 16 15  1  0
 17 16  2  0
 18 28  1  0
 18 13  1  0
 19 18  2  0
 22 21  1  0
 23 22  2  0
 24 23  1  0
 25 31  1  0
 25 24  2  0
 27 26  1  1
 26 25  1  0
 27 29  1  0
 27 28  1  0
 29 30  1  0
 31 32  2  0
 32 22  1  0
 33 29  2  0
M  END
$$$$
