REY.pdb
     RDKit          3D

 33 33  0  0  1  0  0  0  0  0999 V2000
   17.6683  -14.5631  -14.6637 N   0  0  0  0  0  0  0  0  0  0  0  0
   18.0797  -13.5888  -15.6420 C   0  0  0  0  0  0  0  0  0  0  0  0
   18.0034  -12.3435  -15.3703 N   0  0  0  0  0  0  0  0  0  0  0  0
   18.5640  -13.9866  -16.9047 N   0  0  0  0  0  0  0  0  0  0  0  0
   18.8391  -15.3875  -17.2653 C   0  0  0  0  0  0  0  0  0  0  0  0
   19.5050  -16.1408  -16.1770 C   0  0  0  0  0  0  0  0  0  0  0  0
   20.9324  -16.5057  -16.3570 C   0  0  0  0  0  0  0  0  0  0  0  0
   21.2550  -17.3565  -17.5283 C   0  0  2  0  0  0  0  0  0  0  0  0
   20.0963  -18.1558  -17.8839 N   0  0  0  0  0  0  0  0  0  0  0  0
   22.4271  -18.2486  -17.2698 C   0  0  0  0  0  0  0  0  0  0  0  0
   22.3470  -19.2044  -16.4394 O   0  0  0  0  0  0  0  0  0  0  0  0
   18.1983  -11.5614  -16.0067 N   0  0  0  0  0  0  0  0  0  0  0  0
   23.6778  -18.1065  -17.9073 C   0  0  2  0  0  0  0  0  0  0  0  0
   24.8229  -18.9516  -17.6742 C   0  0  0  0  0  0  0  0  0  0  0  0
   25.9503  -18.7164  -18.6276 C   0  0  0  0  0  0  0  0  0  0  0  0
   26.5198  -20.0474  -19.0655 C   0  0  0  0  0  0  0  0  0  0  0  0
   27.5726  -19.8479  -20.1086 O   0  0  0  0  0  0  0  0  0  0  0  0
   27.8611  -18.7296  -20.5486 C   0  0  0  0  0  0  0  0  0  0  0  0
   25.3366  -18.8417  -16.2909 O   0  0  0  0  0  0  0  0  0  0  0  0
   25.0131  -17.9083  -15.5100 O   0  0  0  0  0  0  0  0  0  0  0  0
   28.2234  -20.9789  -20.5711 O   0  0  0  0  0  0  0  0  0  0  0  0
   25.5706  -21.8979   -8.3243 C   0  0  0  0  0  0  0  0  0  0  0  0
   25.4524  -21.6125   -9.6799 C   0  0  0  0  0  0  0  0  0  0  0  0
   26.4641  -21.8960  -10.5647 C   0  0  0  0  0  0  0  0  0  0  0  0
   26.3274  -21.6070  -11.8994 C   0  0  0  0  0  0  0  0  0  0  0  0
   25.1746  -21.0180  -12.4328 C   0  0  0  0  0  0  0  0  0  0  0  0
   25.0732  -20.7010  -13.8692 C   0  0  2  0  0  0  0  0  0  0  0  0
   26.3695  -20.1488  -14.3975 N   0  0  0  0  0  0  0  0  0  0  0  0
   26.2354  -19.8352  -15.8229 C   0  0  0  0  0  0  0  0  0  0  0  0
   27.4350  -21.1435  -14.2476 O   0  0  0  0  0  0  0  0  0  0  0  0
   28.4006  -20.9880  -13.2745 C   0  0  0  0  0  0  0  0  0  0  0  0
   24.1731  -20.7444  -11.5129 C   0  0  0  0  0  0  0  0  0  0  0  0
   24.3077  -21.0338  -10.1723 O   0  0  0  0  0  0  0  0  0  0  0  0
  2  3  2  0
  2  1  1  0
  4  2  1  0
  5  4  1  0
  6  5  1  0
  7  6  1  0
  8  7  1  0
  8 10  1  0
  8  9  1  1
 10 12  1  0
 10 11  2  0
 12 13  1  0
 13 14  1  6
 14 15  1  0
 16 20  1  0
 16 15  1  0
 17 16  2  0
 18 28  1  0
 18 13  1  0
 19 18  2  0
 22 21  1  0
 23 22  2  0
 24 23  1  0
 25 31  1  0
 25 24  2  0
 27 26  1  1
 26 25  1  0
 27 29  1  0
 27 28  1  0
 29 30  1  0
 31 32  2  0
 32 22  1  0
 33 29  2  0
M  END
$$$$
