REY.pdb
     RDKit          3D

 33 33  0  0  1  0  0  0  0  0999 V2000
   15.3632  -19.7695  -15.5344 N   0  0  0  0  0  0  0  0  0  0  0  0
   15.6455  -19.0882  -14.2968 C   0  0  0  0  0  0  0  0  0  0  0  0
   15.0443  -19.4390  -13.2263 N   0  0  0  0  0  0  0  0  0  0  0  0
   16.5759  -18.0304  -14.2454 N   0  0  0  0  0  0  0  0  0  0  0  0
   18.0160  -18.2014  -14.5006 C   0  0  0  0  0  0  0  0  0  0  0  0
   18.7365  -18.7966  -13.3509 C   0  0  0  0  0  0  0  0  0  0  0  0
   20.2078  -18.9585  -13.4613 C   0  0  0  0  0  0  0  0  0  0  0  0
   20.6904  -19.9873  -14.4145 C   0  0  2  0  0  0  0  0  0  0  0  0
   19.6543  -20.9829  -14.6226 N   0  0  0  0  0  0  0  0  0  0  0  0
   21.9437  -20.6505  -13.9395 C   0  0  0  0  0  0  0  0  0  0  0  0
   21.9601  -21.3117  -12.8568 O   0  0  0  0  0  0  0  0  0  0  0  0
   15.1789  -19.0454  -12.2874 N   0  0  0  0  0  0  0  0  0  0  0  0
   23.1713  -20.5983  -14.6332 C   0  0  1  0  0  0  0  0  0  0  0  0
   24.4053  -21.1843  -14.1710 C   0  0  0  0  0  0  0  0  0  0  0  0
   25.4272  -21.3657  -15.2471 C   0  0  0  0  0  0  0  0  0  0  0  0
   26.5970  -22.1512  -14.6974 C   0  0  0  0  0  0  0  0  0  0  0  0
   27.6388  -22.3449  -15.7525 O   0  0  0  0  0  0  0  0  0  0  0  0
   27.4974  -21.9199  -16.9044 C   0  0  0  0  0  0  0  0  0  0  0  0
   25.0134  -20.4215  -13.0585 O   0  0  0  0  0  0  0  0  0  0  0  0
   25.0171  -19.1632  -13.0094 O   0  0  0  0  0  0  0  0  0  0  0  0
   28.7860  -23.0283  -15.3871 O   0  0  0  0  0  0  0  0  0  0  0  0
   29.6938  -18.6620   -5.7754 C   0  0  0  0  0  0  0  0  0  0  0  0
   28.8578  -19.2385   -6.7251 C   0  0  0  0  0  0  0  0  0  0  0  0
   27.5387  -18.8727   -6.8377 C   0  0  0  0  0  0  0  0  0  0  0  0
   26.7300  -19.4534   -7.7825 C   0  0  0  0  0  0  0  0  0  0  0  0
   27.1870  -20.4336   -8.6717 C   0  0  0  0  0  0  0  0  0  0  0  0
   26.2824  -21.0516   -9.6584 C   0  0  1  0  0  0  0  0  0  0  0  0
   26.5192  -20.4961  -11.0367 N   0  0  0  0  0  0  0  0  0  0  0  0
   25.6206  -21.1422  -11.9975 C   0  0  0  0  0  0  0  0  0  0  0  0
   27.8989  -20.7615  -11.4527 O   0  0  0  0  0  0  0  0  0  0  0  0
   28.3073  -22.0503  -11.7280 C   0  0  0  0  0  0  0  0  0  0  0  0
   28.5227  -20.7802   -8.5309 C   0  0  0  0  0  0  0  0  0  0  0  0
   29.3369  -20.1985   -7.5834 O   0  0  0  0  0  0  0  0  0  0  0  0
  2  3  2  0
  2  1  1  0
  4  2  1  0
  5  4  1  0
  6  5  1  0
  7  6  1  0
  8  7  1  0
  8 10  1  0
  8  9  1  1
 10 12  1  0
 10 11  2  0
 12 13  1  0
 13 14  1  1
 14 15  1  0
 16 20  1  0
 16 15  1  0
 17 16  2  0
 18 28  1  0
 18 13  1  0
 19 18  2  0
 22 21  1  0
 23 22  2  0
 24 23  1  0
 25 31  1  0
 25 24  2  0
 27 26  1  1
 26 25  1  0
 27 29  1  0
 27 28  1  0
 29 30  1  0
 31 32  2  0
 32 22  1  0
 33 29  2  0
M  END
$$$$
