REY.pdb
     RDKit          3D

 33 33  0  0  1  0  0  0  0  0999 V2000
   27.8055  -25.6794  -16.6761 N   0  0  0  0  0  0  0  0  0  0  0  0
   29.0615  -25.0162  -16.9166 C   0  0  0  0  0  0  0  0  0  0  0  0
   30.0298  -25.6600  -17.4443 N   0  0  0  0  0  0  0  0  0  0  0  0
   29.2454  -23.6614  -16.5733 N   0  0  0  0  0  0  0  0  0  0  0  0
   28.1402  -22.7562  -16.2160 C   0  0  0  0  0  0  0  0  0  0  0  0
   28.5847  -21.3568  -16.0183 C   0  0  0  0  0  0  0  0  0  0  0  0
   27.5801  -20.3678  -15.5537 C   0  0  0  0  0  0  0  0  0  0  0  0
   26.4556  -20.0831  -16.4779 C   0  0  2  0  0  0  0  0  0  0  0  0
   26.9300  -19.2782  -17.5892 N   0  0  0  0  0  0  0  0  0  0  0  0
   25.3258  -19.3845  -15.7908 C   0  0  0  0  0  0  0  0  0  0  0  0
   25.5135  -18.2883  -15.1802 O   0  0  0  0  0  0  0  0  0  0  0  0
   30.9342  -25.2760  -17.7433 N   0  0  0  0  0  0  0  0  0  0  0  0
   24.0012  -19.8698  -15.7660 C   0  0  2  0  0  0  0  0  0  0  0  0
   22.8919  -19.2070  -15.1258 C   0  0  0  0  0  0  0  0  0  0  0  0
   22.2359  -18.1686  -15.9782 C   0  0  0  0  0  0  0  0  0  0  0  0
   21.9212  -18.7612  -17.3336 C   0  0  0  0  0  0  0  0  0  0  0  0
   21.7942  -17.6810  -18.3599 O   0  0  0  0  0  0  0  0  0  0  0  0
   20.9016  -16.8276  -18.3117 C   0  0  0  0  0  0  0  0  0  0  0  0
   21.8610  -20.1567  -14.6517 O   0  0  0  0  0  0  0  0  0  0  0  0
   21.4694  -21.1415  -15.3318 O   0  0  0  0  0  0  0  0  0  0  0  0
   22.7274  -17.6708  -19.3825 O   0  0  0  0  0  0  0  0  0  0  0  0
   16.1372  -23.9521   -9.0310 C   0  0  0  0  0  0  0  0  0  0  0  0
   17.0896  -23.1175   -9.6051 C   0  0  0  0  0  0  0  0  0  0  0  0
   18.4237  -23.4444   -9.6069 C   0  0  0  0  0  0  0  0  0  0  0  0
   19.3482  -22.6071  -10.1797 C   0  0  0  0  0  0  0  0  0  0  0  0
   18.9991  -21.3938  -10.7849 C   0  0  0  0  0  0  0  0  0  0  0  0
   20.0233  -20.5091  -11.3697 C   0  0  1  0  0  0  0  0  0  0  0  0
   20.2994  -20.8700  -12.8043 N   0  0  0  0  0  0  0  0  0  0  0  0
   21.2875  -19.9475  -13.3706 C   0  0  0  0  0  0  0  0  0  0  0  0
   19.0693  -20.7614  -13.5930 O   0  0  0  0  0  0  0  0  0  0  0  0
   18.6311  -19.5295  -14.0333 C   0  0  0  0  0  0  0  0  0  0  0  0
   17.6449  -21.0939  -10.7655 C   0  0  0  0  0  0  0  0  0  0  0  0
   16.7146  -21.9329  -10.1913 O   0  0  0  0  0  0  0  0  0  0  0  0
  2  3  2  0
  2  1  1  0
  4  2  1  0
  5  4  1  0
  6  5  1  0
  7  6  1  0
  8  7  1  0
  8 10  1  0
  8  9  1  6
 10 12  1  0
 10 11  2  0
 12 13  1  0
 13 14  1  1
 14 15  1  0
 16 20  1  0
 16 15  1  0
 17 16  2  0
 18 28  1  0
 18 13  1  0
 19 18  2  0
 22 21  1  0
 23 22  2  0
 24 23  1  0
 25 31  1  0
 25 24  2  0
 27 26  1  1
 26 25  1  0
 27 29  1  0
 27 28  1  0
 29 30  1  0
 31 32  2  0
 32 22  1  0
 33 29  2  0
M  END
$$$$
