REY.pdb
     RDKit          3D

 33 33  0  0  1  0  0  0  0  0999 V2000
   16.6459  -13.9203  -18.3253 N   0  0  0  0  0  0  0  0  0  0  0  0
   16.8998  -15.3384  -18.3237 C   0  0  0  0  0  0  0  0  0  0  0  0
   15.9479  -16.1552  -18.5630 N   0  0  0  0  0  0  0  0  0  0  0  0
   18.1875  -15.8458  -18.0560 N   0  0  0  0  0  0  0  0  0  0  0  0
   19.3412  -14.9964  -17.7156 C   0  0  0  0  0  0  0  0  0  0  0  0
   19.3214  -14.5379  -16.3069 C   0  0  0  0  0  0  0  0  0  0  0  0
   20.4294  -13.6651  -15.8447 C   0  0  0  0  0  0  0  0  0  0  0  0
   20.8834  -12.6160  -16.7897 C   0  0  2  0  0  0  0  0  0  0  0  0
   21.6944  -13.2177  -17.8329 N   0  0  0  0  0  0  0  0  0  0  0  0
   21.6586  -11.5373  -16.1028 C   0  0  0  0  0  0  0  0  0  0  0  0
   21.2050  -10.9723  -15.0613 O   0  0  0  0  0  0  0  0  0  0  0  0
   16.0022  -17.1807  -18.5641 N   0  0  0  0  0  0  0  0  0  0  0  0
   22.9173  -11.0741  -16.5408 C   0  0  1  0  0  0  0  0  0  0  0  0
   23.6657  -10.0090  -15.9203 C   0  0  0  0  0  0  0  0  0  0  0  0
   25.1269  -10.0349  -16.2358 C   0  0  0  0  0  0  0  0  0  0  0  0
   25.7386  -11.2949  -15.6653 C   0  0  0  0  0  0  0  0  0  0  0  0
   27.1756  -11.4056  -16.0644 O   0  0  0  0  0  0  0  0  0  0  0  0
   27.7089  -10.6019  -16.8370 C   0  0  0  0  0  0  0  0  0  0  0  0
   23.1291   -8.6707  -16.2525 O   0  0  0  0  0  0  0  0  0  0  0  0
   22.7359   -8.3552  -17.4064 O   0  0  0  0  0  0  0  0  0  0  0  0
   27.8989  -12.4575  -15.5287 O   0  0  0  0  0  0  0  0  0  0  0  0
   20.1029   -0.4434  -15.0041 C   0  0  0  0  0  0  0  0  0  0  0  0
   20.6129   -1.7219  -14.8083 C   0  0  0  0  0  0  0  0  0  0  0  0
   19.8014   -2.8299  -14.8284 C   0  0  0  0  0  0  0  0  0  0  0  0
   20.3246   -4.0837  -14.6337 C   0  0  0  0  0  0  0  0  0  0  0  0
   21.6877   -4.3090  -14.4070 C   0  0  0  0  0  0  0  0  0  0  0  0
   22.2099   -5.6688  -14.1789 C   0  0  2  0  0  0  0  0  0  0  0  0
   22.5797   -6.3346  -15.4768 N   0  0  0  0  0  0  0  0  0  0  0  0
   23.0539   -7.6978  -15.2221 C   0  0  0  0  0  0  0  0  0  0  0  0
   23.6594   -5.5907  -16.1309 O   0  0  0  0  0  0  0  0  0  0  0  0
   23.3846   -4.7555  -17.1941 C   0  0  0  0  0  0  0  0  0  0  0  0
   22.4787   -3.1696  -14.3924 C   0  0  0  0  0  0  0  0  0  0  0  0
   21.9560   -1.9096  -14.5879 O   0  0  0  0  0  0  0  0  0  0  0  0
  2  3  2  0
  2  1  1  0
  4  2  1  0
  5  4  1  0
  6  5  1  0
  7  6  1  0
  8  7  1  0
  8 10  1  0
  8  9  1  6
 10 12  1  0
 10 11  2  0
 12 13  1  0
 13 14  1  1
 14 15  1  0
 16 20  1  0
 16 15  1  0
 17 16  2  0
 18 28  1  0
 18 13  1  0
 19 18  2  0
 22 21  1  0
 23 22  2  0
 24 23  1  0
 25 31  1  0
 25 24  2  0
 27 26  1  6
 26 25  1  0
 27 29  1  0
 27 28  1  0
 29 30  1  0
 31 32  2  0
 32 22  1  0
 33 29  2  0
M  END
$$$$
