REY.pdb
     RDKit          3D

 33 33  0  0  1  0  0  0  0  0999 V2000
   24.4150  -21.1165  -10.5790 N   0  0  0  0  0  0  0  0  0  0  0  0
   25.4253  -20.8162   -9.5969 C   0  0  0  0  0  0  0  0  0  0  0  0
   25.0840  -20.5330   -8.3995 N   0  0  0  0  0  0  0  0  0  0  0  0
   26.7936  -20.8242   -9.9359 N   0  0  0  0  0  0  0  0  0  0  0  0
   27.3003  -21.2183  -11.2612 C   0  0  0  0  0  0  0  0  0  0  0  0
   27.6384  -20.0563  -12.1159 C   0  0  0  0  0  0  0  0  0  0  0  0
   27.2184  -20.0949  -13.5390 C   0  0  0  0  0  0  0  0  0  0  0  0
   26.2595  -21.1615  -13.9169 C   0  0  2  0  0  0  0  0  0  0  0  0
   26.9295  -22.1480  -14.7452 N   0  0  0  0  0  0  0  0  0  0  0  0
   25.0684  -20.6171  -14.6389 C   0  0  0  0  0  0  0  0  0  0  0  0
   25.0976  -20.4287  -15.8932 O   0  0  0  0  0  0  0  0  0  0  0  0
   25.7046  -20.2425   -7.6346 N   0  0  0  0  0  0  0  0  0  0  0  0
   23.8532  -20.2796  -14.0063 C   0  0  2  0  0  0  0  0  0  0  0  0
   22.6698  -19.8157  -14.6876 C   0  0  0  0  0  0  0  0  0  0  0  0
   21.4061  -20.4495  -14.2012 C   0  0  0  0  0  0  0  0  0  0  0  0
   21.5324  -21.9535  -14.2979 C   0  0  0  0  0  0  0  0  0  0  0  0
   20.2717  -22.6147  -13.8401 O   0  0  0  0  0  0  0  0  0  0  0  0
   19.9025  -23.7081  -14.2825 C   0  0  0  0  0  0  0  0  0  0  0  0
   22.5205  -18.3449  -14.6269 O   0  0  0  0  0  0  0  0  0  0  0  0
   22.4568  -17.7048  -13.5443 O   0  0  0  0  0  0  0  0  0  0  0  0
   19.5206  -21.9477  -12.8874 O   0  0  0  0  0  0  0  0  0  0  0  0
   28.6585  -17.4319  -16.2546 C   0  0  0  0  0  0  0  0  0  0  0  0
   27.3524  -16.9904  -16.4345 C   0  0  0  0  0  0  0  0  0  0  0  0
   26.8499  -15.9260  -15.7265 C   0  0  0  0  0  0  0  0  0  0  0  0
   25.5578  -15.5051  -15.9193 C   0  0  0  0  0  0  0  0  0  0  0  0
   24.6887  -16.1196  -16.8289 C   0  0  0  0  0  0  0  0  0  0  0  0
   23.2993  -15.6538  -16.9922 C   0  0  2  0  0  0  0  0  0  0  0  0
   22.4221  -16.1572  -15.8780 N   0  0  0  0  0  0  0  0  0  0  0  0
   22.4458  -17.6223  -15.8460 C   0  0  0  0  0  0  0  0  0  0  0  0
   21.0384  -15.7281  -16.0979 O   0  0  0  0  0  0  0  0  0  0  0  0
   20.0575  -16.6571  -16.3774 C   0  0  0  0  0  0  0  0  0  0  0  0
   25.2271  -17.1908  -17.5266 C   0  0  0  0  0  0  0  0  0  0  0  0
   26.5241  -17.6152  -17.3351 O   0  0  0  0  0  0  0  0  0  0  0  0
  2  3  2  0
  2  1  1  0
  4  2  1  0
  5  4  1  0
  6  5  1  0
  7  6  1  0
  8  7  1  0
  8 10  1  0
  8  9  1  6
 10 12  1  0
 10 11  2  0
 12 13  1  0
 13 14  1  6
 14 15  1  0
 16 20  1  0
 16 15  1  0
 17 16  2  0
 18 28  1  0
 18 13  1  0
 19 18  2  0
 22 21  1  0
 23 22  2  0
 24 23  1  0
 25 31  1  0
 25 24  2  0
 27 26  1  1
 26 25  1  0
 27 29  1  0
 27 28  1  0
 29 30  1  0
 31 32  2  0
 32 22  1  0
 33 29  2  0
M  END
$$$$
