REY.pdb
     RDKit          3D

 33 33  0  0  1  0  0  0  0  0999 V2000
   14.0619  -16.2859  -16.6127 N   0  0  0  0  0  0  0  0  0  0  0  0
   14.2485  -14.9032  -16.2539 C   0  0  0  0  0  0  0  0  0  0  0  0
   13.7300  -14.4496  -15.1788 N   0  0  0  0  0  0  0  0  0  0  0  0
   14.9939  -14.0334  -17.0756 N   0  0  0  0  0  0  0  0  0  0  0  0
   16.3868  -14.2902  -17.4783 C   0  0  0  0  0  0  0  0  0  0  0  0
   17.3422  -14.1688  -16.3524 C   0  0  0  0  0  0  0  0  0  0  0  0
   18.1320  -12.9169  -16.2432 C   0  0  0  0  0  0  0  0  0  0  0  0
   19.1115  -12.6562  -17.3260 C   0  0  2  0  0  0  0  0  0  0  0  0
   20.1223  -13.6985  -17.3301 N   0  0  0  0  0  0  0  0  0  0  0  0
   19.7632  -11.3176  -17.1848 C   0  0  0  0  0  0  0  0  0  0  0  0
   20.6042  -11.0974  -16.2608 O   0  0  0  0  0  0  0  0  0  0  0  0
   13.7757  -13.4837  -14.8329 N   0  0  0  0  0  0  0  0  0  0  0  0
   19.5058  -10.2248  -18.0394 C   0  0  2  0  0  0  0  0  0  0  0  0
   20.0960   -8.9159  -17.9049 C   0  0  0  0  0  0  0  0  0  0  0  0
   19.6948   -7.9596  -18.9819 C   0  0  0  0  0  0  0  0  0  0  0  0
   20.5565   -6.7197  -18.8950 C   0  0  0  0  0  0  0  0  0  0  0  0
   20.1423   -5.7216  -19.9286 O   0  0  0  0  0  0  0  0  0  0  0  0
   19.1886   -5.9180  -20.6898 C   0  0  0  0  0  0  0  0  0  0  0  0
   19.8144   -8.2994  -16.5896 O   0  0  0  0  0  0  0  0  0  0  0  0
   18.7710   -8.5403  -15.9271 O   0  0  0  0  0  0  0  0  0  0  0  0
   20.8769   -4.5506  -20.0037 O   0  0  0  0  0  0  0  0  0  0  0  0
   20.0211   -5.3831   -8.5439 C   0  0  0  0  0  0  0  0  0  0  0  0
   20.3214   -5.9148   -9.7930 C   0  0  0  0  0  0  0  0  0  0  0  0
   21.3401   -5.4090  -10.5631 C   0  0  0  0  0  0  0  0  0  0  0  0
   21.6211   -5.9486  -11.7934 C   0  0  0  0  0  0  0  0  0  0  0  0
   20.9038   -7.0244  -12.3305 C   0  0  0  0  0  0  0  0  0  0  0  0
   21.2199   -7.5627  -13.6662 C   0  0  2  0  0  0  0  0  0  0  0  0
   20.5676   -6.7474  -14.7499 N   0  0  0  0  0  0  0  0  0  0  0  0
   20.7652   -7.3945  -16.0499 C   0  0  0  0  0  0  0  0  0  0  0  0
   21.1740   -5.4147  -14.8068 O   0  0  0  0  0  0  0  0  0  0  0  0
   20.6696   -4.3869  -14.0368 C   0  0  0  0  0  0  0  0  0  0  0  0
   19.8822   -7.5107  -11.5280 C   0  0  0  0  0  0  0  0  0  0  0  0
   19.5982   -6.9710  -10.2922 O   0  0  0  0  0  0  0  0  0  0  0  0
  2  3  2  0
  2  1  1  0
  4  2  1  0
  5  4  1  0
  6  5  1  0
  7  6  1  0
  8  7  1  0
  8 10  1  0
  8  9  1  1
 10 12  1  0
 10 11  2  0
 12 13  1  0
 13 14  1  6
 14 15  1  0
 16 20  1  0
 16 15  1  0
 17 16  2  0
 18 28  1  0
 18 13  1  0
 19 18  2  0
 22 21  1  0
 23 22  2  0
 24 23  1  0
 25 31  1  0
 25 24  2  0
 27 26  1  1
 26 25  1  0
 27 29  1  0
 27 28  1  0
 29 30  1  0
 31 32  2  0
 32 22  1  0
 33 29  2  0
M  END
$$$$
