REY.pdb
     RDKit          3D

 33 33  0  0  1  0  0  0  0  0999 V2000
   21.0163  -14.9190  -15.7711 N   0  0  0  0  0  0  0  0  0  0  0  0
   21.5398  -14.6683  -17.0897 C   0  0  0  0  0  0  0  0  0  0  0  0
   20.8796  -13.9449  -17.9090 N   0  0  0  0  0  0  0  0  0  0  0  0
   22.7736  -15.2145  -17.4977 N   0  0  0  0  0  0  0  0  0  0  0  0
   23.5985  -16.0862  -16.6445 C   0  0  0  0  0  0  0  0  0  0  0  0
   23.7448  -15.5676  -15.2644 C   0  0  0  0  0  0  0  0  0  0  0  0
   24.4061  -16.4389  -14.2611 C   0  0  0  0  0  0  0  0  0  0  0  0
   25.5434  -17.2591  -14.7445 C   0  0  2  0  0  0  0  0  0  0  0  0
   25.4557  -17.4125  -16.1856 N   0  0  0  0  0  0  0  0  0  0  0  0
   25.5841  -18.6043  -14.0923 C   0  0  0  0  0  0  0  0  0  0  0  0
   24.5222  -19.1552  -13.6699 O   0  0  0  0  0  0  0  0  0  0  0  0
   21.1593  -13.6816  -18.8615 N   0  0  0  0  0  0  0  0  0  0  0  0
   26.7674  -19.3481  -13.8995 C   0  0  1  0  0  0  0  0  0  0  0  0
   26.8308  -20.6539  -13.2906 C   0  0  0  0  0  0  0  0  0  0  0  0
   27.8061  -21.5784  -13.9458 C   0  0  0  0  0  0  0  0  0  0  0  0
   27.5306  -21.6232  -15.4322 C   0  0  0  0  0  0  0  0  0  0  0  0
   28.5392  -22.4825  -16.1253 O   0  0  0  0  0  0  0  0  0  0  0  0
   29.4679  -23.0284  -15.5194 C   0  0  0  0  0  0  0  0  0  0  0  0
   27.1311  -20.5905  -11.8432 O   0  0  0  0  0  0  0  0  0  0  0  0
   28.2540  -20.2462  -11.3888 O   0  0  0  0  0  0  0  0  0  0  0  0
   28.3932  -22.6478  -17.4920 O   0  0  0  0  0  0  0  0  0  0  0  0
   28.9455  -20.4154   -3.6583 C   0  0  0  0  0  0  0  0  0  0  0  0
   28.5170  -20.2816   -4.9742 C   0  0  0  0  0  0  0  0  0  0  0  0
   29.0419  -21.0525   -5.9826 C   0  0  0  0  0  0  0  0  0  0  0  0
   28.6047  -20.9055   -7.2753 C   0  0  0  0  0  0  0  0  0  0  0  0
   27.6184  -19.9816   -7.6409 C   0  0  0  0  0  0  0  0  0  0  0  0
   27.1905  -19.8360   -9.0444 C   0  0  2  0  0  0  0  0  0  0  0  0
   26.3502  -21.0053   -9.4813 N   0  0  0  0  0  0  0  0  0  0  0  0
   26.1053  -20.9336  -10.9245 C   0  0  0  0  0  0  0  0  0  0  0  0
   25.0550  -20.9741   -8.7967 O   0  0  0  0  0  0  0  0  0  0  0  0
   24.8949  -21.6058   -7.5806 C   0  0  0  0  0  0  0  0  0  0  0  0
   27.1101  -19.2192   -6.5996 C   0  0  0  0  0  0  0  0  0  0  0  0
   27.5471  -19.3650   -5.3007 O   0  0  0  0  0  0  0  0  0  0  0  0
  2  3  2  0
  2  1  1  0
  4  2  1  0
  5  4  1  0
  6  5  1  0
  7  6  1  0
  8  7  1  0
  8 10  1  0
  8  9  1  6
 10 12  1  0
 10 11  2  0
 12 13  1  0
 13 14  1  1
 14 15  1  0
 16 20  1  0
 16 15  1  0
 17 16  2  0
 18 28  1  0
 18 13  1  0
 19 18  2  0
 22 21  1  0
 23 22  2  0
 24 23  1  0
 25 31  1  0
 25 24  2  0
 27 26  1  6
 26 25  1  0
 27 29  1  0
 27 28  1  0
 29 30  1  0
 31 32  2  0
 32 22  1  0
 33 29  2  0
M  END
$$$$
