REY.pdb
     RDKit          3D

 33 33  0  0  1  0  0  0  0  0999 V2000
   27.2861  -14.0975  -18.5477 N   0  0  0  0  0  0  0  0  0  0  0  0
   26.6267  -13.5811  -19.7199 C   0  0  0  0  0  0  0  0  0  0  0  0
   27.1811  -12.6584  -20.4068 N   0  0  0  0  0  0  0  0  0  0  0  0
   25.3695  -14.0749  -20.1234 N   0  0  0  0  0  0  0  0  0  0  0  0
   24.7304  -15.2582  -19.5236 C   0  0  0  0  0  0  0  0  0  0  0  0
   25.5851  -16.4668  -19.5865 C   0  0  0  0  0  0  0  0  0  0  0  0
   25.0072  -17.7515  -19.1190 C   0  0  0  0  0  0  0  0  0  0  0  0
   25.8711  -18.9505  -19.2461 C   0  0  2  0  0  0  0  0  0  0  0  0
   26.2000  -19.1682  -20.6434 N   0  0  0  0  0  0  0  0  0  0  0  0
   25.2225  -20.1736  -18.6806 C   0  0  0  0  0  0  0  0  0  0  0  0
   24.0491  -20.5079  -19.0283 O   0  0  0  0  0  0  0  0  0  0  0  0
   26.8049  -12.2076  -21.2494 N   0  0  0  0  0  0  0  0  0  0  0  0
   25.8415  -21.0294  -17.7451 C   0  0  2  0  0  0  0  0  0  0  0  0
   25.1815  -22.1074  -17.0508 C   0  0  0  0  0  0  0  0  0  0  0  0
   26.0637  -23.2854  -16.7878 C   0  0  0  0  0  0  0  0  0  0  0  0
   25.2450  -24.3926  -16.1623 C   0  0  0  0  0  0  0  0  0  0  0  0
   26.1222  -25.5449  -15.7895 O   0  0  0  0  0  0  0  0  0  0  0  0
   27.3494  -25.5124  -15.9325 C   0  0  0  0  0  0  0  0  0  0  0  0
   24.5737  -21.6715  -15.7740 O   0  0  0  0  0  0  0  0  0  0  0  0
   25.1291  -20.8557  -14.9919 O   0  0  0  0  0  0  0  0  0  0  0  0
   25.5007  -26.6674  -15.2697 O   0  0  0  0  0  0  0  0  0  0  0  0
   19.5411  -18.7912   -9.4769 C   0  0  0  0  0  0  0  0  0  0  0  0
   20.2433  -19.1598  -10.6189 C   0  0  0  0  0  0  0  0  0  0  0  0
   19.6019  -19.4078  -11.8079 C   0  0  0  0  0  0  0  0  0  0  0  0
   20.3136  -19.7698  -12.9242 C   0  0  0  0  0  0  0  0  0  0  0  0
   21.7070  -19.9066  -12.9230 C   0  0  0  0  0  0  0  0  0  0  0  0
   22.4352  -20.3199  -14.1366 C   0  0  1  0  0  0  0  0  0  0  0  0
   22.6304  -21.8115  -14.1727 N   0  0  0  0  0  0  0  0  0  0  0  0
   23.3055  -22.1975  -15.4149 C   0  0  0  0  0  0  0  0  0  0  0  0
   21.3308  -22.4872  -14.1308 O   0  0  0  0  0  0  0  0  0  0  0  0
   20.7082  -22.7246  -12.9226 C   0  0  0  0  0  0  0  0  0  0  0  0
   22.3231  -19.6495  -11.7071 C   0  0  0  0  0  0  0  0  0  0  0  0
   21.6110  -19.2856  -10.5848 O   0  0  0  0  0  0  0  0  0  0  0  0
  2  3  2  0
  2  1  1  0
  4  2  1  0
  5  4  1  0
  6  5  1  0
  7  6  1  0
  8  7  1  0
  8 10  1  0
  8  9  1  6
 10 12  1  0
 10 11  2  0
 12 13  1  0
 13 14  1  6
 14 15  1  0
 16 20  1  0
 16 15  1  0
 17 16  2  0
 18 28  1  0
 18 13  1  0
 19 18  2  0
 22 21  1  0
 23 22  2  0
 24 23  1  0
 25 31  1  0
 25 24  2  0
 27 26  1  1
 26 25  1  0
 27 29  1  0
 27 28  1  0
 29 30  1  0
 31 32  2  0
 32 22  1  0
 33 29  2  0
M  END
$$$$
