REY.pdb
     RDKit          3D

 33 33  0  0  1  0  0  0  0  0999 V2000
   27.2830  -18.6352  -23.8089 N   0  0  0  0  0  0  0  0  0  0  0  0
   26.9289  -18.0712  -22.5315 C   0  0  0  0  0  0  0  0  0  0  0  0
   26.5684  -16.8487  -22.4540 N   0  0  0  0  0  0  0  0  0  0  0  0
   26.9778  -18.8473  -21.3557 N   0  0  0  0  0  0  0  0  0  0  0  0
   27.2835  -20.2877  -21.3447 C   0  0  0  0  0  0  0  0  0  0  0  0
   26.1724  -21.1068  -20.8066 C   0  0  0  0  0  0  0  0  0  0  0  0
   25.9751  -21.1296  -19.3356 C   0  0  0  0  0  0  0  0  0  0  0  0
   26.9924  -21.8624  -18.5431 C   0  0  2  0  0  0  0  0  0  0  0  0
   27.2975  -23.1255  -19.1906 N   0  0  0  0  0  0  0  0  0  0  0  0
   26.5416  -22.1077  -17.1385 C   0  0  0  0  0  0  0  0  0  0  0  0
   25.7572  -23.0665  -16.8648 O   0  0  0  0  0  0  0  0  0  0  0  0
   26.3111  -16.3354  -21.6025 N   0  0  0  0  0  0  0  0  0  0  0  0
   26.9385  -21.3198  -16.0374 C   0  0  2  0  0  0  0  0  0  0  0  0
   26.4887  -21.5123  -14.6808 C   0  0  0  0  0  0  0  0  0  0  0  0
   27.3629  -20.8616  -13.6572 C   0  0  0  0  0  0  0  0  0  0  0  0
   26.8187  -21.1547  -12.2768 C   0  0  0  0  0  0  0  0  0  0  0  0
   27.7184  -20.5834  -11.2279 O   0  0  0  0  0  0  0  0  0  0  0  0
   28.6576  -19.8290  -11.5045 C   0  0  0  0  0  0  0  0  0  0  0  0
   25.0950  -21.0594  -14.4759 O   0  0  0  0  0  0  0  0  0  0  0  0
   24.6043  -20.0592  -15.0628 O   0  0  0  0  0  0  0  0  0  0  0  0
   27.4576  -20.9350   -9.9146 O   0  0  0  0  0  0  0  0  0  0  0  0
   16.7986  -21.0071  -11.4275 C   0  0  0  0  0  0  0  0  0  0  0  0
   18.1225  -21.3570  -11.6680 C   0  0  0  0  0  0  0  0  0  0  0  0
   19.0867  -21.2303  -10.6980 C   0  0  0  0  0  0  0  0  0  0  0  0
   20.3882  -21.5820  -10.9553 C   0  0  0  0  0  0  0  0  0  0  0  0
   20.8072  -22.0810  -12.1945 C   0  0  0  0  0  0  0  0  0  0  0  0
   22.2192  -22.4266  -12.4412 C   0  0  2  0  0  0  0  0  0  0  0  0
   22.8984  -21.3764  -13.2779 N   0  0  0  0  0  0  0  0  0  0  0  0
   24.2735  -21.7868  -13.5760 C   0  0  0  0  0  0  0  0  0  0  0  0
   22.9494  -20.1087  -12.5450 O   0  0  0  0  0  0  0  0  0  0  0  0
   22.0716  -19.0901  -12.8540 C   0  0  0  0  0  0  0  0  0  0  0  0
   19.8095  -22.1959  -13.1513 C   0  0  0  0  0  0  0  0  0  0  0  0
   18.5020  -21.8437  -12.8955 O   0  0  0  0  0  0  0  0  0  0  0  0
  2  3  2  0
  2  1  1  0
  4  2  1  0
  5  4  1  0
  6  5  1  0
  7  6  1  0
  8  7  1  0
  8 10  1  0
  8  9  1  6
 10 12  1  0
 10 11  2  0
 12 13  1  0
 13 14  1  6
 14 15  1  0
 16 20  1  0
 16 15  1  0
 17 16  2  0
 18 28  1  0
 18 13  1  0
 19 18  2  0
 22 21  1  0
 23 22  2  0
 24 23  1  0
 25 31  1  0
 25 24  2  0
 27 26  1  6
 26 25  1  0
 27 29  1  0
 27 28  1  0
 29 30  1  0
 31 32  2  0
 32 22  1  0
 33 29  2  0
M  END
$$$$
