REY.pdb
     RDKit          3D

 33 33  0  0  1  0  0  0  0  0999 V2000
   31.8762  -24.0950  -12.6306 N   0  0  0  0  0  0  0  0  0  0  0  0
   32.2843  -23.0673  -11.7072 C   0  0  0  0  0  0  0  0  0  0  0  0
   33.4234  -23.1423  -11.1350 N   0  0  0  0  0  0  0  0  0  0  0  0
   31.4421  -21.9747  -11.4172 N   0  0  0  0  0  0  0  0  0  0  0  0
   30.3598  -21.5238  -12.3081 C   0  0  0  0  0  0  0  0  0  0  0  0
   29.1006  -21.2360  -11.5825 C   0  0  0  0  0  0  0  0  0  0  0  0
   27.9424  -20.7431  -12.3691 C   0  0  0  0  0  0  0  0  0  0  0  0
   28.2565  -19.9944  -13.6103 C   0  0  2  0  0  0  0  0  0  0  0  0
   29.0479  -18.8215  -13.2850 N   0  0  0  0  0  0  0  0  0  0  0  0
   27.0216  -19.5850  -14.3479 C   0  0  0  0  0  0  0  0  0  0  0  0
   26.3287  -18.5961  -13.9587 O   0  0  0  0  0  0  0  0  0  0  0  0
   33.8020  -22.4983  -10.4303 N   0  0  0  0  0  0  0  0  0  0  0  0
   26.5410  -20.2422  -15.5002 C   0  0  1  0  0  0  0  0  0  0  0  0
   25.3368  -19.8875  -16.2101 C   0  0  0  0  0  0  0  0  0  0  0  0
   25.4309  -20.0767  -17.6901 C   0  0  0  0  0  0  0  0  0  0  0  0
   25.6584  -18.7358  -18.3515 C   0  0  0  0  0  0  0  0  0  0  0  0
   26.6899  -18.8519  -19.4279 O   0  0  0  0  0  0  0  0  0  0  0  0
   27.7100  -18.1542  -19.4414 C   0  0  0  0  0  0  0  0  0  0  0  0
   24.1489  -20.6145  -15.7102 O   0  0  0  0  0  0  0  0  0  0  0  0
   24.2106  -21.7662  -15.2048 O   0  0  0  0  0  0  0  0  0  0  0  0
   26.4578  -19.7840  -20.4249 O   0  0  0  0  0  0  0  0  0  0  0  0
   18.2465  -20.0405   -9.5093 C   0  0  0  0  0  0  0  0  0  0  0  0
   19.2518  -19.9573  -10.4662 C   0  0  0  0  0  0  0  0  0  0  0  0
   19.7769  -18.7486  -10.8533 C   0  0  0  0  0  0  0  0  0  0  0  0
   20.7695  -18.6880  -11.7993 C   0  0  0  0  0  0  0  0  0  0  0  0
   21.2985  -19.8280  -12.4164 C   0  0  0  0  0  0  0  0  0  0  0  0
   22.3489  -19.7219  -13.4457 C   0  0  1  0  0  0  0  0  0  0  0  0
   21.8429  -20.1753  -14.7884 N   0  0  0  0  0  0  0  0  0  0  0  0
   22.8813  -19.9836  -15.8047 C   0  0  0  0  0  0  0  0  0  0  0  0
   20.6732  -19.3824  -15.1759 O   0  0  0  0  0  0  0  0  0  0  0  0
   20.8323  -18.1998  -15.8685 C   0  0  0  0  0  0  0  0  0  0  0  0
   20.7462  -21.0315  -12.0033 C   0  0  0  0  0  0  0  0  0  0  0  0
   19.7497  -21.0952  -11.0536 O   0  0  0  0  0  0  0  0  0  0  0  0
  2  3  2  0
  2  1  1  0
  4  2  1  0
  5  4  1  0
  6  5  1  0
  7  6  1  0
  8  7  1  0
  8 10  1  0
  8  9  1  1
 10 12  1  0
 10 11  2  0
 12 13  1  0
 13 14  1  1
 14 15  1  0
 16 20  1  0
 16 15  1  0
 17 16  2  0
 18 28  1  0
 18 13  1  0
 19 18  2  0
 22 21  1  0
 23 22  2  0
 24 23  1  0
 25 31  1  0
 25 24  2  0
 27 26  1  1
 26 25  1  0
 27 29  1  0
 27 28  1  0
 29 30  1  0
 31 32  2  0
 32 22  1  0
 33 29  2  0
M  END
$$$$
