REY.pdb
     RDKit          3D

 33 33  0  0  1  0  0  0  0  0999 V2000
   30.0185  -21.9731  -10.6252 N   0  0  0  0  0  0  0  0  0  0  0  0
   29.1884  -21.4226   -9.5844 C   0  0  0  0  0  0  0  0  0  0  0  0
   29.7198  -21.0072   -8.5001 N   0  0  0  0  0  0  0  0  0  0  0  0
   27.7899  -21.3375   -9.7389 N   0  0  0  0  0  0  0  0  0  0  0  0
   27.1246  -21.1736  -11.0423 C   0  0  0  0  0  0  0  0  0  0  0  0
   28.0138  -20.5857  -12.0714 C   0  0  0  0  0  0  0  0  0  0  0  0
   27.3864  -19.8125  -13.1721 C   0  0  0  0  0  0  0  0  0  0  0  0
   26.2477  -20.4588  -13.8689 C   0  0  2  0  0  0  0  0  0  0  0  0
   26.7287  -21.1484  -15.0526 N   0  0  0  0  0  0  0  0  0  0  0  0
   25.1892  -19.4735  -14.2504 C   0  0  0  0  0  0  0  0  0  0  0  0
   24.6166  -18.7603  -13.3712 O   0  0  0  0  0  0  0  0  0  0  0  0
   29.2333  -20.5995   -7.6928 N   0  0  0  0  0  0  0  0  0  0  0  0
   24.7545  -19.2618  -15.5759 C   0  0  1  0  0  0  0  0  0  0  0  0
   23.6985  -18.3592  -15.9632 C   0  0  0  0  0  0  0  0  0  0  0  0
   23.7819  -17.9081  -17.3861 C   0  0  0  0  0  0  0  0  0  0  0  0
   24.9845  -17.0064  -17.5544 C   0  0  0  0  0  0  0  0  0  0  0  0
   25.1026  -16.5517  -18.9741 O   0  0  0  0  0  0  0  0  0  0  0  0
   25.5775  -17.2715  -19.8594 C   0  0  0  0  0  0  0  0  0  0  0  0
   22.3525  -18.9232  -15.7192 O   0  0  0  0  0  0  0  0  0  0  0  0
   22.0926  -20.1509  -15.8242 O   0  0  0  0  0  0  0  0  0  0  0  0
   24.6535  -15.2752  -19.2662 O   0  0  0  0  0  0  0  0  0  0  0  0
   21.8519  -21.2465   -9.4667 C   0  0  0  0  0  0  0  0  0  0  0  0
   21.3138  -20.4559  -10.4760 C   0  0  0  0  0  0  0  0  0  0  0  0
   21.6184  -19.1209  -10.5824 C   0  0  0  0  0  0  0  0  0  0  0  0
   21.0771  -18.3578  -11.5866 C   0  0  0  0  0  0  0  0  0  0  0  0
   20.1997  -18.8791  -12.5451 C   0  0  0  0  0  0  0  0  0  0  0  0
   19.6198  -18.0229  -13.5961 C   0  0  2  0  0  0  0  0  0  0  0  0
   19.9778  -18.5271  -14.9680 N   0  0  0  0  0  0  0  0  0  0  0  0
   21.3061  -18.0389  -15.3492 C   0  0  0  0  0  0  0  0  0  0  0  0
   19.0104  -18.0322  -15.9510 O   0  0  0  0  0  0  0  0  0  0  0  0
   19.4035  -17.1381  -16.9254 C   0  0  0  0  0  0  0  0  0  0  0  0
   19.9128  -20.2293  -12.4088 C   0  0  0  0  0  0  0  0  0  0  0  0
   20.4551  -20.9978  -11.4016 O   0  0  0  0  0  0  0  0  0  0  0  0
  2  3  2  0
  2  1  1  0
  4  2  1  0
  5  4  1  0
  6  5  1  0
  7  6  1  0
  8  7  1  0
  8 10  1  0
  8  9  1  6
 10 12  1  0
 10 11  2  0
 12 13  1  0
 13 14  1  1
 14 15  1  0
 16 20  1  0
 16 15  1  0
 17 16  2  0
 18 28  1  0
 18 13  1  0
 19 18  2  0
 22 21  1  0
 23 22  2  0
 24 23  1  0
 25 31  1  0
 25 24  2  0
 27 26  1  1
 26 25  1  0
 27 29  1  0
 27 28  1  0
 29 30  1  0
 31 32  2  0
 32 22  1  0
 33 29  2  0
M  END
$$$$
