CQN.pdb
     RDKit          3D

 24 23  0  0  1  0  0  0  0  0999 V2000
    7.6886  -13.5121   17.4460 N   0  0  0  0  0  0  0  0  0  0  0  0
    8.3209  -13.2357   18.7243 C   0  0  1  0  0  0  0  0  0  0  0  0
    7.2908  -13.2591   19.8351 C   0  0  0  0  0  0  0  0  0  0  0  0
    8.1101  -13.1697   21.4553 S   0  0  0  0  0  0  0  0  0  0  0  0
    9.3704  -14.2565   18.9406 C   0  0  0  0  0  0  0  0  0  0  0  0
    9.2056  -15.4666   18.5999 O   0  0  0  0  0  0  0  0  0  0  0  0
   15.3931  -13.7744   18.0713 N   0  0  0  0  0  0  0  0  0  0  0  0
   15.3411  -15.0471   18.7067 C   0  0  0  0  0  0  0  0  0  0  0  0
   16.3683  -15.7377   18.7911 O   0  0  0  0  0  0  0  0  0  0  0  0
   14.0438  -15.4987   19.2480 C   0  0  0  0  0  0  0  0  0  0  0  0
   12.9599  -14.4549   19.0780 C   0  0  0  0  0  0  0  0  0  0  0  0
   11.6685  -14.9709   19.6669 C   0  0  2  0  0  0  0  0  0  0  0  0
   10.6369  -13.9624   19.5434 N   0  0  0  0  0  0  0  0  0  0  0  0
   11.8288  -15.4333   21.0610 C   0  0  0  0  0  0  0  0  0  0  0  0
   11.6765  -14.5974   21.9900 O   0  0  0  0  0  0  0  0  0  0  0  0
   10.3374  -18.4768   25.3360 N   0  0  0  0  0  0  0  0  0  0  0  0
   11.2421  -18.9546   24.3030 C   0  0  0  0  0  0  0  0  0  0  0  0
   12.0583  -19.8567   24.5780 O   0  0  0  0  0  0  0  0  0  0  0  0
   11.1881  -18.3776   22.9587 C   0  0  0  0  0  0  0  0  0  0  0  0
   12.1632  -17.2567   22.7913 C   0  0  2  0  0  0  0  0  0  0  0  0
   12.1438  -16.7629   21.4120 N   0  0  0  0  0  0  0  0  0  0  0  0
   13.5310  -17.5797   23.2072 C   0  0  0  0  0  0  0  0  0  0  0  0
   14.3680  -17.9631   22.3070 O   0  0  0  0  0  0  0  0  0  0  0  0
   14.0462  -17.5227   24.4742 O   0  0  0  0  0  0  0  0  0  0  0  0
  2  1  1  6
  2  3  1  0
  4  3  1  0
  5  2  1  0
  6  5  2  0
  7  8  1  0
  8  9  2  0
 10  8  1  0
 10 11  1  0
 12 11  1  1
 12 13  1  0
 13  5  1  0
 14 21  1  0
 14 12  1  0
 15 14  2  0
 16 17  1  0
 17 19  1  0
 18 17  2  0
 20 19  1  6
 20 22  1  0
 20 21  1  0
 22 24  1  0
 23 22  2  0
M  END
$$$$
