CQN.pdb
     RDKit          3D

 24 23  0  0  1  0  0  0  0  0999 V2000
    0.1629  -20.3548   20.2065 N   0  0  0  0  0  0  0  0  0  0  0  0
    1.4454  -21.0303   20.3014 C   0  0  1  0  0  0  0  0  0  0  0  0
    2.5175  -20.2217   19.5999 C   0  0  0  0  0  0  0  0  0  0  0  0
    2.3298  -20.3577   17.7969 S   0  0  0  0  0  0  0  0  0  0  0  0
    1.7578  -21.2094   21.7370 C   0  0  0  0  0  0  0  0  0  0  0  0
    1.2161  -20.4941   22.6327 O   0  0  0  0  0  0  0  0  0  0  0  0
    2.3141  -26.3571   24.9246 N   0  0  0  0  0  0  0  0  0  0  0  0
    2.6880  -25.4072   25.9167 C   0  0  0  0  0  0  0  0  0  0  0  0
    2.8260  -25.7675   27.0957 O   0  0  0  0  0  0  0  0  0  0  0  0
    2.8994  -24.0090   25.4923 C   0  0  0  0  0  0  0  0  0  0  0  0
    2.6415  -23.8164   24.0125 C   0  0  0  0  0  0  0  0  0  0  0  0
    2.9145  -22.3792   23.6376 C   0  0  2  0  0  0  0  0  0  0  0  0
    2.6835  -22.1906   22.2207 N   0  0  0  0  0  0  0  0  0  0  0  0
    4.2643  -21.9364   24.0438 C   0  0  0  0  0  0  0  0  0  0  0  0
    4.6030  -22.0768   25.2482 O   0  0  0  0  0  0  0  0  0  0  0  0
    9.1304  -20.2281   24.1656 N   0  0  0  0  0  0  0  0  0  0  0  0
    8.0369  -19.3247   24.4849 C   0  0  0  0  0  0  0  0  0  0  0  0
    8.2899  -18.2293   25.0253 O   0  0  0  0  0  0  0  0  0  0  0  0
    6.6583  -19.7047   24.1719 C   0  0  0  0  0  0  0  0  0  0  0  0
    6.5822  -21.0494   23.5230 C   0  0  2  0  0  0  0  0  0  0  0  0
    5.1989  -21.3632   23.1560 N   0  0  0  0  0  0  0  0  0  0  0  0
    7.1677  -22.1353   24.3143 C   0  0  0  0  0  0  0  0  0  0  0  0
    8.2030  -22.7415   23.8465 O   0  0  0  0  0  0  0  0  0  0  0  0
    6.7374  -22.6003   25.5278 O   0  0  0  0  0  0  0  0  0  0  0  0
  2  1  1  1
  2  3  1  0
  4  3  1  0
  5  2  1  0
  6  5  2  0
  7  8  1  0
  8  9  2  0
 10  8  1  0
 10 11  1  0
 12 11  1  6
 12 13  1  0
 13  5  1  0
 14 21  1  0
 14 12  1  0
 15 14  2  0
 16 17  1  0
 17 19  1  0
 18 17  2  0
 20 19  1  1
 20 22  1  0
 20 21  1  0
 22 24  1  0
 23 22  2  0
M  END
$$$$
