CQN.pdb
     RDKit          3D

 24 23  0  0  1  0  0  0  0  0999 V2000
    6.8341  -15.3524   19.0916 N   0  0  0  0  0  0  0  0  0  0  0  0
    7.6767  -14.5299   19.9423 C   0  0  1  0  0  0  0  0  0  0  0  0
    7.4617  -13.0625   19.6325 C   0  0  0  0  0  0  0  0  0  0  0  0
    9.0592  -12.2028   19.5177 S   0  0  0  0  0  0  0  0  0  0  0  0
    7.3386  -14.8391   21.3496 C   0  0  0  0  0  0  0  0  0  0  0  0
    6.1425  -14.8167   21.7696 O   0  0  0  0  0  0  0  0  0  0  0  0
    6.6092  -18.5694   25.4329 N   0  0  0  0  0  0  0  0  0  0  0  0
    7.1286  -18.8731   24.1429 C   0  0  0  0  0  0  0  0  0  0  0  0
    7.4334  -20.0417   23.8592 O   0  0  0  0  0  0  0  0  0  0  0  0
    7.2849  -17.7644   23.1805 C   0  0  0  0  0  0  0  0  0  0  0  0
    6.8189  -16.4419   23.7526 C   0  0  0  0  0  0  0  0  0  0  0  0
    7.9547  -15.4476   23.7095 C   0  0  2  0  0  0  0  0  0  0  0  0
    8.3216  -15.1828   22.3341 N   0  0  0  0  0  0  0  0  0  0  0  0
    9.1127  -15.8777   24.5201 C   0  0  0  0  0  0  0  0  0  0  0  0
    9.4601  -17.0869   24.4730 O   0  0  0  0  0  0  0  0  0  0  0  0
    9.4347  -13.9430   30.1659 N   0  0  0  0  0  0  0  0  0  0  0  0
    9.9316  -14.7693   29.0776 C   0  0  0  0  0  0  0  0  0  0  0  0
   10.6971  -15.7198   29.3353 O   0  0  0  0  0  0  0  0  0  0  0  0
    9.5325  -14.4815   27.6989 C   0  0  0  0  0  0  0  0  0  0  0  0
   10.2628  -15.3377   26.7147 C   0  0  2  0  0  0  0  0  0  0  0  0
    9.8542  -15.0078   25.3468 N   0  0  0  0  0  0  0  0  0  0  0  0
   10.1398  -16.7775   26.9595 C   0  0  0  0  0  0  0  0  0  0  0  0
    9.0510  -17.3661   26.6041 O   0  0  0  0  0  0  0  0  0  0  0  0
   11.0679  -17.6011   27.5376 O   0  0  0  0  0  0  0  0  0  0  0  0
  2  1  1  6
  2  3  1  0
  4  3  1  0
  5  2  1  0
  6  5  2  0
  7  8  1  0
  8  9  2  0
 10  8  1  0
 10 11  1  0
 12 11  1  6
 12 13  1  0
 13  5  1  0
 14 21  1  0
 14 12  1  0
 15 14  2  0
 16 17  1  0
 17 19  1  0
 18 17  2  0
 20 19  1  1
 20 22  1  0
 20 21  1  0
 22 24  1  0
 23 22  2  0
M  END
$$$$
