DFT.pdb
     RDKit          3D

 27 27  0  0  1  0  0  0  0  0999 V2000
    8.9809  -17.2782   20.4312 N   0  0  0  0  0  0  0  0  0  0  0  0
   10.2488  -17.0457   21.0600 C   0  0  1  0  0  0  0  0  0  0  0  0
   11.3278  -16.5712   20.1471 C   0  0  0  0  0  0  0  0  0  0  0  0
   11.3439  -17.3064   18.8719 C   0  0  0  0  0  0  0  0  0  0  0  0
   10.2829  -17.4126   18.2099 O   0  0  0  0  0  0  0  0  0  0  0  0
   10.1151  -16.2552   22.2962 C   0  0  0  0  0  0  0  0  0  0  0  0
   11.0982  -15.9521   23.0275 O   0  0  0  0  0  0  0  0  0  0  0  0
   12.4811  -17.8777   18.3867 O   0  0  0  0  0  0  0  0  0  0  0  0
    8.8593  -15.8011   22.7177 N   0  0  0  0  0  0  0  0  0  0  0  0
    8.6174  -15.0869   23.9472 C   0  0  1  0  0  0  0  0  0  0  0  0
    7.5455  -14.0723   23.9251 C   0  0  0  0  0  0  0  0  0  0  0  0
    7.2812  -13.3602   25.1801 C   0  0  0  0  0  0  0  0  0  0  0  0
    8.0478  -12.3213   25.6564 C   0  0  0  0  0  0  0  0  0  0  0  0
    7.7469  -11.6994   26.8502 C   0  0  0  0  0  0  0  0  0  0  0  0
    6.6613  -12.1008   27.6101 C   0  0  0  0  0  0  0  0  0  0  0  0
    5.9016  -13.1277   27.1415 C   0  0  0  0  0  0  0  0  0  0  0  0
    6.2005  -13.7444   25.9573 C   0  0  0  0  0  0  0  0  0  0  0  0
    8.3037  -16.1117   24.9800 C   0  0  0  0  0  0  0  0  0  0  0  0
    7.2265  -16.7552   24.9377 O   0  0  0  0  0  0  0  0  0  0  0  0
   10.8358  -18.5963   25.2609 C   0  0  0  0  0  0  0  0  0  0  0  0
    9.4633  -18.7543   25.8614 C   0  0  1  0  0  0  0  0  0  0  0  0
    9.4308  -19.9579   26.5980 O   0  0  0  0  0  0  0  0  0  0  0  0
    9.1413  -17.6154   26.8196 C   0  0  2  0  0  0  0  0  0  0  0  0
    9.2094  -16.3855   26.0324 N   0  0  0  0  0  0  0  0  0  0  0  0
   10.1328  -17.5039   27.8978 C   0  0  0  0  0  0  0  0  0  0  0  0
   10.2730  -18.4323   28.9159 O   0  0  0  0  0  0  0  0  0  0  0  0
   10.9028  -16.5079   27.9015 O   0  0  0  0  0  0  0  0  0  0  0  0
  2  1  1  6
  2  3  1  0
  4  8  1  0
  4  3  1  0
  5  4  2  0
  6  2  1  0
  7  6  2  0
  9  6  1  0
 10 11  1  6
 10  9  1  0
 11 12  1  0
 12 17  2  0
 13 14  2  0
 13 12  1  0
 14 15  1  0
 15 16  2  0
 17 16  1  0
 18 24  1  0
 18 10  1  0
 19 18  2  0
 21 20  1  1
 21 22  1  0
 23 21  1  0
 23 24  1  6
 25 23  1  0
 25 26  1  0
 27 25  2  0
M  END
$$$$
