DFT.pdb
     RDKit          3D

 27 27  0  0  1  0  0  0  0  0999 V2000
    9.7390  -17.4807   20.7865 N   0  0  0  0  0  0  0  0  0  0  0  0
   10.9644  -17.1013   21.4278 C   0  0  1  0  0  0  0  0  0  0  0  0
   12.0423  -16.6409   20.5062 C   0  0  0  0  0  0  0  0  0  0  0  0
   12.1458  -17.4829   19.3032 C   0  0  0  0  0  0  0  0  0  0  0  0
   11.4298  -18.5092   19.2075 O   0  0  0  0  0  0  0  0  0  0  0  0
   10.7327  -16.2086   22.5768 C   0  0  0  0  0  0  0  0  0  0  0  0
   11.6697  -15.6626   23.2226 O   0  0  0  0  0  0  0  0  0  0  0  0
   12.9995  -17.1801   18.2861 O   0  0  0  0  0  0  0  0  0  0  0  0
    9.4303  -15.9273   23.0077 N   0  0  0  0  0  0  0  0  0  0  0  0
    9.1043  -15.0944   24.1390 C   0  0  1  0  0  0  0  0  0  0  0  0
    7.8625  -14.3020   24.0435 C   0  0  0  0  0  0  0  0  0  0  0  0
    7.5372  -13.4398   25.1848 C   0  0  0  0  0  0  0  0  0  0  0  0
    8.2157  -12.2848   25.5000 C   0  0  0  0  0  0  0  0  0  0  0  0
    7.8614  -11.5233   26.5941 C   0  0  0  0  0  0  0  0  0  0  0  0
    6.8091  -11.8967   27.4128 C   0  0  0  0  0  0  0  0  0  0  0  0
    6.1365  -13.0383   27.1034 C   0  0  0  0  0  0  0  0  0  0  0  0
    6.4883  -13.7934   26.0181 C   0  0  0  0  0  0  0  0  0  0  0  0
    9.0234  -15.9950   25.3213 C   0  0  0  0  0  0  0  0  0  0  0  0
    8.0987  -16.8382   25.4223 O   0  0  0  0  0  0  0  0  0  0  0  0
   10.8963  -18.6086   25.8425 C   0  0  0  0  0  0  0  0  0  0  0  0
   11.1651  -17.8550   27.1190 C   0  0  1  0  0  0  0  0  0  0  0  0
   12.3386  -17.0890   26.9501 O   0  0  0  0  0  0  0  0  0  0  0  0
   10.0288  -16.8961   27.4482 C   0  0  2  0  0  0  0  0  0  0  0  0
    9.9842  -15.9235   26.3579 N   0  0  0  0  0  0  0  0  0  0  0  0
   10.2758  -16.1535   28.6913 C   0  0  0  0  0  0  0  0  0  0  0  0
   10.4403  -14.7796   28.7495 O   0  0  0  0  0  0  0  0  0  0  0  0
   10.3431  -16.7989   29.7702 O   0  0  0  0  0  0  0  0  0  0  0  0
  2  1  1  6
  2  3  1  0
  4  8  1  0
  4  3  1  0
  5  4  2  0
  6  2  1  0
  7  6  2  0
  9  6  1  0
 10 11  1  6
 10  9  1  0
 11 12  1  0
 12 17  2  0
 13 14  2  0
 13 12  1  0
 14 15  1  0
 15 16  2  0
 17 16  1  0
 18 24  1  0
 18 10  1  0
 19 18  2  0
 21 20  1  6
 21 22  1  0
 23 21  1  0
 23 24  1  6
 25 23  1  0
 25 26  1  0
 27 25  2  0
M  END
$$$$
