DFT.pdb
     RDKit          3D

 27 27  0  0  1  0  0  0  0  0999 V2000
    7.3538  -17.2808   20.5503 N   0  0  0  0  0  0  0  0  0  0  0  0
    8.4322  -16.3396   20.6409 C   0  0  1  0  0  0  0  0  0  0  0  0
    8.4118  -15.2568   19.6161 C   0  0  0  0  0  0  0  0  0  0  0  0
    8.5621  -15.7796   18.2482 C   0  0  0  0  0  0  0  0  0  0  0  0
    7.9342  -16.8130   17.9124 O   0  0  0  0  0  0  0  0  0  0  0  0
    8.6320  -15.8601   22.0196 C   0  0  0  0  0  0  0  0  0  0  0  0
    9.5900  -15.1093   22.3538 O   0  0  0  0  0  0  0  0  0  0  0  0
    9.3662  -15.1724   17.3319 O   0  0  0  0  0  0  0  0  0  0  0  0
    7.7447  -16.2313   23.0373 N   0  0  0  0  0  0  0  0  0  0  0  0
    7.9020  -15.8829   24.4280 C   0  0  1  0  0  0  0  0  0  0  0  0
    6.7217  -15.3129   25.1068 C   0  0  0  0  0  0  0  0  0  0  0  0
    6.8341  -13.9295   25.5817 C   0  0  0  0  0  0  0  0  0  0  0  0
    7.4334  -12.9142   24.8721 C   0  0  0  0  0  0  0  0  0  0  0  0
    7.5116  -11.6349   25.3818 C   0  0  0  0  0  0  0  0  0  0  0  0
    6.9884  -11.3297   26.6269 C   0  0  0  0  0  0  0  0  0  0  0  0
    6.3951  -12.3318   27.3306 C   0  0  0  0  0  0  0  0  0  0  0  0
    6.3179  -13.6006   26.8247 C   0  0  0  0  0  0  0  0  0  0  0  0
    8.3230  -17.1244   25.1328 C   0  0  0  0  0  0  0  0  0  0  0  0
    7.5355  -18.0956   25.2455 O   0  0  0  0  0  0  0  0  0  0  0  0
   10.6427  -19.5477   24.2514 C   0  0  0  0  0  0  0  0  0  0  0  0
   11.1612  -19.0602   25.5792 C   0  0  1  0  0  0  0  0  0  0  0  0
   12.1340  -18.0650   25.3438 O   0  0  0  0  0  0  0  0  0  0  0  0
   10.0512  -18.4354   26.4139 C   0  0  2  0  0  0  0  0  0  0  0  0
    9.6180  -17.2406   25.6916 N   0  0  0  0  0  0  0  0  0  0  0  0
   10.5297  -18.0031   27.7338 C   0  0  0  0  0  0  0  0  0  0  0  0
   10.8102  -18.8719   28.7752 O   0  0  0  0  0  0  0  0  0  0  0  0
   10.6961  -16.7717   27.9357 O   0  0  0  0  0  0  0  0  0  0  0  0
  2  1  1  1
  2  3  1  0
  4  8  1  0
  4  3  1  0
  5  4  2  0
  6  2  1  0
  7  6  2  0
  9  6  1  0
 10 11  1  1
 10  9  1  0
 11 12  1  0
 12 17  2  0
 13 14  2  0
 13 12  1  0
 14 15  1  0
 15 16  2  0
 17 16  1  0
 18 24  1  0
 18 10  1  0
 19 18  2  0
 21 20  1  6
 21 22  1  0
 23 21  1  0
 23 24  1  6
 25 23  1  0
 25 26  1  0
 27 25  2  0
M  END
$$$$
