DFT.pdb
     RDKit          3D

 27 27  0  0  1  0  0  0  0  0999 V2000
    8.1980  -17.5511   19.8276 N   0  0  0  0  0  0  0  0  0  0  0  0
    9.5419  -17.0989   20.0431 C   0  0  1  0  0  0  0  0  0  0  0  0
   10.2219  -16.5451   18.8373 C   0  0  0  0  0  0  0  0  0  0  0  0
   10.4600  -17.5718   17.8095 C   0  0  0  0  0  0  0  0  0  0  0  0
    9.8669  -18.6747   17.8932 O   0  0  0  0  0  0  0  0  0  0  0  0
    9.6526  -16.2479   21.2407 C   0  0  0  0  0  0  0  0  0  0  0  0
   10.7542  -15.8059   21.6700 O   0  0  0  0  0  0  0  0  0  0  0  0
   11.3087  -17.3596   16.7657 O   0  0  0  0  0  0  0  0  0  0  0  0
    8.5101  -15.8907   21.9675 N   0  0  0  0  0  0  0  0  0  0  0  0
    8.5234  -15.1234   23.1886 C   0  0  1  0  0  0  0  0  0  0  0  0
    7.3393  -14.2842   23.4577 C   0  0  0  0  0  0  0  0  0  0  0  0
    7.3027  -13.5832   24.7458 C   0  0  0  0  0  0  0  0  0  0  0  0
    6.5563  -13.9909   25.8276 C   0  0  0  0  0  0  0  0  0  0  0  0
    6.5620  -13.2795   27.0092 C   0  0  0  0  0  0  0  0  0  0  0  0
    7.3207  -12.1294   27.1461 C   0  0  0  0  0  0  0  0  0  0  0  0
    8.0599  -11.7241   26.0780 C   0  0  0  0  0  0  0  0  0  0  0  0
    8.0538  -12.4300   24.9060 C   0  0  0  0  0  0  0  0  0  0  0  0
    8.6997  -16.0966   24.3009 C   0  0  0  0  0  0  0  0  0  0  0  0
    7.8692  -17.0206   24.4815 O   0  0  0  0  0  0  0  0  0  0  0  0
   12.0896  -18.5401   26.7188 C   0  0  0  0  0  0  0  0  0  0  0  0
   11.5579  -17.5285   25.7374 C   0  0  1  0  0  0  0  0  0  0  0  0
   11.4916  -18.1309   24.4626 O   0  0  0  0  0  0  0  0  0  0  0  0
   10.1522  -17.0773   26.1107 C   0  0  2  0  0  0  0  0  0  0  0  0
    9.8050  -16.0049   25.1800 N   0  0  0  0  0  0  0  0  0  0  0  0
   10.0938  -16.5188   27.4681 C   0  0  0  0  0  0  0  0  0  0  0  0
    9.7391  -17.2509   28.5889 O   0  0  0  0  0  0  0  0  0  0  0  0
   10.3821  -15.3037   27.6277 O   0  0  0  0  0  0  0  0  0  0  0  0
  2  1  1  6
  2  3  1  0
  4  8  1  0
  4  3  1  0
  5  4  2  0
  6  2  1  0
  7  6  2  0
  9  6  1  0
 10 11  1  1
 10  9  1  0
 11 12  1  0
 12 17  2  0
 13 14  2  0
 13 12  1  0
 14 15  1  0
 15 16  2  0
 17 16  1  0
 18 24  1  0
 18 10  1  0
 19 18  2  0
 21 20  1  1
 21 22  1  0
 23 21  1  0
 23 24  1  6
 25 23  1  0
 25 26  1  0
 27 25  2  0
M  END
$$$$
