DFT.pdb
     RDKit          3D

 27 27  0  0  1  0  0  0  0  0999 V2000
    9.0344  -16.9556   19.9093 N   0  0  0  0  0  0  0  0  0  0  0  0
   10.2638  -16.9749   20.6477 C   0  0  1  0  0  0  0  0  0  0  0  0
   11.4850  -16.6732   19.8473 C   0  0  0  0  0  0  0  0  0  0  0  0
   11.5098  -17.4038   18.5695 C   0  0  0  0  0  0  0  0  0  0  0  0
   10.9044  -16.9291   17.5780 O   0  0  0  0  0  0  0  0  0  0  0  0
   10.1646  -16.2131   21.9049 C   0  0  0  0  0  0  0  0  0  0  0  0
   11.1699  -15.9075   22.6043 O   0  0  0  0  0  0  0  0  0  0  0  0
   12.1732  -18.5852   18.4307 O   0  0  0  0  0  0  0  0  0  0  0  0
    8.9184  -15.7909   22.3843 N   0  0  0  0  0  0  0  0  0  0  0  0
    8.7243  -14.9998   23.5745 C   0  0  1  0  0  0  0  0  0  0  0  0
    7.5874  -14.0585   23.5673 C   0  0  0  0  0  0  0  0  0  0  0  0
    7.3617  -13.2827   24.7917 C   0  0  0  0  0  0  0  0  0  0  0  0
    8.0715  -12.1548   25.1348 C   0  0  0  0  0  0  0  0  0  0  0  0
    7.8124  -11.4760   26.3072 C   0  0  0  0  0  0  0  0  0  0  0  0
    6.8273  -11.9079   27.1791 C   0  0  0  0  0  0  0  0  0  0  0  0
    6.1238  -13.0228   26.8422 C   0  0  0  0  0  0  0  0  0  0  0  0
    6.3813  -13.6959   25.6792 C   0  0  0  0  0  0  0  0  0  0  0  0
    8.5618  -15.9589   24.7011 C   0  0  0  0  0  0  0  0  0  0  0  0
    7.5424  -16.6873   24.7805 O   0  0  0  0  0  0  0  0  0  0  0  0
   11.8757  -17.5953   25.3020 C   0  0  0  0  0  0  0  0  0  0  0  0
   10.5676  -18.2340   25.6898 C   0  0  1  0  0  0  0  0  0  0  0  0
   10.8394  -19.3666   26.4870 O   0  0  0  0  0  0  0  0  0  0  0  0
    9.7072  -17.2838   26.5120 C   0  0  2  0  0  0  0  0  0  0  0  0
    9.5499  -16.0732   25.7078 N   0  0  0  0  0  0  0  0  0  0  0  0
   10.3601  -16.8958   27.7694 C   0  0  0  0  0  0  0  0  0  0  0  0
   10.7033  -15.5930   28.0904 O   0  0  0  0  0  0  0  0  0  0  0  0
   10.6258  -17.7964   28.6081 O   0  0  0  0  0  0  0  0  0  0  0  0
  2  1  1  6
  2  3  1  0
  4  8  1  0
  4  3  1  0
  5  4  2  0
  6  2  1  0
  7  6  2  0
  9  6  1  0
 10 11  1  6
 10  9  1  0
 11 12  1  0
 12 17  2  0
 13 14  2  0
 13 12  1  0
 14 15  1  0
 15 16  2  0
 17 16  1  0
 18 24  1  0
 18 10  1  0
 19 18  2  0
 21 20  1  1
 21 22  1  0
 23 21  1  0
 23 24  1  6
 25 23  1  0
 25 26  1  0
 27 25  2  0
M  END
$$$$
