DFT.pdb
     RDKit          3D

 27 27  0  0  1  0  0  0  0  0999 V2000
   10.4996  -16.3683   19.3151 N   0  0  0  0  0  0  0  0  0  0  0  0
    9.5171  -16.8185   20.2579 C   0  0  1  0  0  0  0  0  0  0  0  0
    9.4066  -18.2991   20.3951 C   0  0  0  0  0  0  0  0  0  0  0  0
    9.6419  -18.9971   19.1206 C   0  0  0  0  0  0  0  0  0  0  0  0
   10.2436  -18.4005   18.1947 O   0  0  0  0  0  0  0  0  0  0  0  0
    9.6135  -16.1005   21.5408 C   0  0  0  0  0  0  0  0  0  0  0  0
   10.7147  -15.8252   22.0930 O   0  0  0  0  0  0  0  0  0  0  0  0
    9.2241  -20.2771   18.9152 O   0  0  0  0  0  0  0  0  0  0  0  0
    8.4568  -15.6883   22.2139 N   0  0  0  0  0  0  0  0  0  0  0  0
    8.4496  -14.9626   23.4603 C   0  0  1  0  0  0  0  0  0  0  0  0
    7.2854  -14.0914   23.7140 C   0  0  0  0  0  0  0  0  0  0  0  0
    7.2201  -13.4378   25.0257 C   0  0  0  0  0  0  0  0  0  0  0  0
    8.0354  -12.3995   25.4141 C   0  0  0  0  0  0  0  0  0  0  0  0
    7.9256  -11.8345   26.6676 C   0  0  0  0  0  0  0  0  0  0  0  0
    6.9894  -12.2944   27.5780 C   0  0  0  0  0  0  0  0  0  0  0  0
    6.1818  -13.3209   27.1965 C   0  0  0  0  0  0  0  0  0  0  0  0
    6.2911  -13.8811   25.9531 C   0  0  0  0  0  0  0  0  0  0  0  0
    8.5501  -15.9776   24.5443 C   0  0  0  0  0  0  0  0  0  0  0  0
    7.6887  -16.8842   24.6550 O   0  0  0  0  0  0  0  0  0  0  0  0
   11.8241  -18.6142   26.8880 C   0  0  0  0  0  0  0  0  0  0  0  0
   11.2998  -17.5784   25.9279 C   0  0  1  0  0  0  0  0  0  0  0  0
   11.1720  -18.1710   24.6532 O   0  0  0  0  0  0  0  0  0  0  0  0
    9.9239  -17.0780   26.3467 C   0  0  2  0  0  0  0  0  0  0  0  0
    9.6162  -15.9460   25.4745 N   0  0  0  0  0  0  0  0  0  0  0  0
    9.9135  -16.5840   27.7300 C   0  0  0  0  0  0  0  0  0  0  0  0
    9.6847  -17.3876   28.8345 O   0  0  0  0  0  0  0  0  0  0  0  0
   10.1244  -15.3589   27.9291 O   0  0  0  0  0  0  0  0  0  0  0  0
  2  1  1  6
  2  3  1  0
  4  8  1  0
  4  3  1  0
  5  4  2  0
  6  2  1  0
  7  6  2  0
  9  6  1  0
 10 11  1  1
 10  9  1  0
 11 12  1  0
 12 17  2  0
 13 14  2  0
 13 12  1  0
 14 15  1  0
 15 16  2  0
 17 16  1  0
 18 24  1  0
 18 10  1  0
 19 18  2  0
 21 20  1  1
 21 22  1  0
 23 21  1  0
 23 24  1  6
 25 23  1  0
 25 26  1  0
 27 25  2  0
M  END
$$$$
