DYY.pdb
     RDKit          3D

 33 34  0  0  1  0  0  0  0  0999 V2000
   28.3381  -22.8752  -17.3242 N   0  0  0  0  0  0  0  0  0  0  0  0
   27.6851  -21.6705  -16.8811 C   0  0  1  0  0  0  0  0  0  0  0  0
   26.6182  -21.2057  -17.8393 C   0  0  0  0  0  0  0  0  0  0  0  0
   27.1235  -20.0004  -18.5419 C   0  0  0  0  0  0  0  0  0  0  0  0
   26.7886  -18.8447  -18.2059 O   0  0  0  0  0  0  0  0  0  0  0  0
   27.0566  -21.8567  -15.5351 C   0  0  0  0  0  0  0  0  0  0  0  0
   26.5016  -22.9520  -15.2513 O   0  0  0  0  0  0  0  0  0  0  0  0
   28.0042  -20.1106  -19.6199 O   0  0  0  0  0  0  0  0  0  0  0  0
   28.3189  -21.2754   -7.0416 O   0  0  0  0  0  0  0  0  0  0  0  0
   28.0167  -20.9623   -8.3617 C   0  0  0  0  0  0  0  0  0  0  0  0
   28.9444  -21.2423   -9.3332 C   0  0  0  0  0  0  0  0  0  0  0  0
   28.6488  -20.9343  -10.6381 C   0  0  0  0  0  0  0  0  0  0  0  0
   27.4308  -20.3495  -10.9657 C   0  0  0  0  0  0  0  0  0  0  0  0
   27.2015  -20.0299  -12.3653 C   0  0  0  0  0  0  0  0  0  0  0  0
   26.5001  -21.0585  -13.1960 C   0  0  2  0  0  0  0  0  0  0  0  0
   27.0549  -20.8556  -14.5583 N   0  0  0  0  0  0  0  0  0  0  0  0
   25.0468  -20.8820  -13.3506 C   0  0  0  0  0  0  0  0  0  0  0  0
   24.5620  -19.9758  -14.1249 O   0  0  0  0  0  0  0  0  0  0  0  0
   26.5137  -20.0767   -9.9775 C   0  0  0  0  0  0  0  0  0  0  0  0
   26.8098  -20.3838   -8.6810 C   0  0  0  0  0  0  0  0  0  0  0  0
   16.2831  -21.4222  -13.7386 O   0  0  0  0  0  0  0  0  0  0  0  0
   17.6541  -21.6969  -13.6438 C   0  0  0  0  0  0  0  0  0  0  0  0
   18.1465  -22.3081  -12.5165 C   0  0  0  0  0  0  0  0  0  0  0  0
   19.4899  -22.5866  -12.4036 C   0  0  0  0  0  0  0  0  0  0  0  0
   20.4127  -22.2712  -13.4057 C   0  0  0  0  0  0  0  0  0  0  0  0
   21.8505  -22.5680  -13.2707 C   0  0  0  0  0  0  0  0  0  0  0  0
   22.6063  -21.3193  -12.8581 C   0  0  2  0  0  0  0  0  0  0  0  0
   24.0370  -21.6571  -12.6996 N   0  0  0  0  0  0  0  0  0  0  0  0
   22.1022  -20.8636  -11.5677 C   0  0  0  0  0  0  0  0  0  0  0  0
   22.6112  -21.1937  -10.4667 O   0  0  0  0  0  0  0  0  0  0  0  0
   19.8791  -21.6541  -14.5310 C   0  0  0  0  0  0  0  0  0  0  0  0
   18.5346  -21.3749  -14.6459 C   0  0  0  0  0  0  0  0  0  0  0  0
   21.0103  -20.0224  -11.5033 O   0  0  0  0  0  0  0  0  0  0  0  0
  2  1  1  6
  2  3  1  0
  4  8  1  0
  4  3  1  0
  5  4  2  0
  6 16  1  0
  6  2  1  0
  7  6  2  0
  9 10  1  0
 10 11  2  0
 11 12  1  0
 13 12  2  0
 13 14  1  0
 15 14  1  1
 15 16  1  0
 17 28  1  0
 17 15  1  0
 18 17  2  0
 19 13  1  0
 20 10  1  0
 20 19  2  0
 21 22  1  0
 22 23  2  0
 23 24  1  0
 25 24  2  0
 25 26  1  0
 27 26  1  1
 27 29  1  0
 27 28  1  0
 29 33  1  0
 30 29  2  0
 31 25  1  0
 32 22  1  0
 32 31  2  0
M  END
$$$$
