DYY.pdb
     RDKit          3D

 33 34  0  0  1  0  0  0  0  0999 V2000
   18.2272  -13.0886  -17.4817 N   0  0  0  0  0  0  0  0  0  0  0  0
   18.0668  -11.6573  -17.4839 C   0  0  1  0  0  0  0  0  0  0  0  0
   16.8927  -11.2064  -16.6529 C   0  0  0  0  0  0  0  0  0  0  0  0
   15.6495  -11.5667  -17.3782 C   0  0  0  0  0  0  0  0  0  0  0  0
   15.6214  -11.7146  -18.6184 O   0  0  0  0  0  0  0  0  0  0  0  0
   19.2947  -10.9722  -16.9702 C   0  0  0  0  0  0  0  0  0  0  0  0
   20.0728  -11.5861  -16.1917 O   0  0  0  0  0  0  0  0  0  0  0  0
   14.4462  -11.7573  -16.6958 O   0  0  0  0  0  0  0  0  0  0  0  0
   25.3021   -4.3927  -17.2645 O   0  0  0  0  0  0  0  0  0  0  0  0
   24.3472   -5.3834  -17.4615 C   0  0  0  0  0  0  0  0  0  0  0  0
   23.0720   -5.0094  -17.8031 C   0  0  0  0  0  0  0  0  0  0  0  0
   22.1265   -5.9856  -17.9983 C   0  0  0  0  0  0  0  0  0  0  0  0
   22.4586   -7.3277  -17.8519 C   0  0  0  0  0  0  0  0  0  0  0  0
   21.3970   -8.3010  -18.0506 C   0  0  0  0  0  0  0  0  0  0  0  0
   20.8565   -8.9822  -16.8325 C   0  0  2  0  0  0  0  0  0  0  0  0
   19.6273   -9.6590  -17.3182 N   0  0  0  0  0  0  0  0  0  0  0  0
   20.3971   -8.0981  -15.7487 C   0  0  0  0  0  0  0  0  0  0  0  0
   19.2668   -7.4869  -15.8184 O   0  0  0  0  0  0  0  0  0  0  0  0
   23.7426   -7.6825  -17.5093 C   0  0  0  0  0  0  0  0  0  0  0  0
   24.6807   -6.7103  -17.3157 C   0  0  0  0  0  0  0  0  0  0  0  0
   17.9469   -4.6896   -8.0960 O   0  0  0  0  0  0  0  0  0  0  0  0
   18.6162   -5.4153   -9.0907 C   0  0  0  0  0  0  0  0  0  0  0  0
   17.9183   -6.3155   -9.8584 C   0  0  0  0  0  0  0  0  0  0  0  0
   18.5571   -7.0384  -10.8405 C   0  0  0  0  0  0  0  0  0  0  0  0
   19.9226   -6.9035  -11.1093 C   0  0  0  0  0  0  0  0  0  0  0  0
   20.5975   -7.6882  -12.1592 C   0  0  0  0  0  0  0  0  0  0  0  0
   20.5077   -6.9673  -13.4908 C   0  0  2  0  0  0  0  0  0  0  0  0
   21.1061   -7.8220  -14.5383 N   0  0  0  0  0  0  0  0  0  0  0  0
   21.2812   -5.7331  -13.4158 C   0  0  0  0  0  0  0  0  0  0  0  0
   22.5218   -5.6774  -13.6104 O   0  0  0  0  0  0  0  0  0  0  0  0
   20.5962   -5.9843  -10.3135 C   0  0  0  0  0  0  0  0  0  0  0  0
   19.9584   -5.2596   -9.3302 C   0  0  0  0  0  0  0  0  0  0  0  0
   20.6593   -4.5375  -13.1194 O   0  0  0  0  0  0  0  0  0  0  0  0
  2  1  1  1
  2  3  1  0
  4  8  1  0
  4  3  1  0
  5  4  2  0
  6 16  1  0
  6  2  1  0
  7  6  2  0
  9 10  1  0
 10 11  2  0
 11 12  1  0
 13 12  2  0
 13 14  1  0
 15 14  1  6
 15 16  1  0
 17 28  1  0
 17 15  1  0
 18 17  2  0
 19 13  1  0
 20 10  1  0
 20 19  2  0
 21 22  1  0
 22 23  2  0
 23 24  1  0
 25 24  2  0
 25 26  1  0
 27 26  1  1
 27 29  1  0
 27 28  1  0
 29 33  1  0
 30 29  2  0
 31 25  1  0
 32 22  1  0
 32 31  2  0
M  END
$$$$
