DYY.pdb
     RDKit          3D

 33 34  0  0  1  0  0  0  0  0999 V2000
   25.2823  -12.7395  -16.1462 N   0  0  0  0  0  0  0  0  0  0  0  0
   24.2825  -11.9332  -16.7978 C   0  0  1  0  0  0  0  0  0  0  0  0
   22.9073  -12.5461  -16.7227 C   0  0  0  0  0  0  0  0  0  0  0  0
   22.9565  -13.8711  -17.3887 C   0  0  0  0  0  0  0  0  0  0  0  0
   23.8689  -14.1834  -18.1829 O   0  0  0  0  0  0  0  0  0  0  0  0
   24.2170  -10.5618  -16.2012 C   0  0  0  0  0  0  0  0  0  0  0  0
   24.4435  -10.4043  -14.9714 O   0  0  0  0  0  0  0  0  0  0  0  0
   21.9733  -14.8340  -17.1520 O   0  0  0  0  0  0  0  0  0  0  0  0
   24.5835   -1.7373  -17.1911 O   0  0  0  0  0  0  0  0  0  0  0  0
   24.6718   -3.1237  -17.1428 C   0  0  0  0  0  0  0  0  0  0  0  0
   24.7528   -3.8192  -18.3229 C   0  0  0  0  0  0  0  0  0  0  0  0
   24.8400   -5.1886  -18.2786 C   0  0  0  0  0  0  0  0  0  0  0  0
   24.8460   -5.8554  -17.0586 C   0  0  0  0  0  0  0  0  0  0  0  0
   24.9156   -7.3071  -17.0944 C   0  0  0  0  0  0  0  0  0  0  0  0
   23.8447   -8.0616  -16.3705 C   0  0  2  0  0  0  0  0  0  0  0  0
   23.9108   -9.4246  -16.9557 N   0  0  0  0  0  0  0  0  0  0  0  0
   22.4634   -7.6138  -16.6124 C   0  0  0  0  0  0  0  0  0  0  0  0
   21.9244   -7.7082  -17.7771 O   0  0  0  0  0  0  0  0  0  0  0  0
   24.7643   -5.1403  -15.8865 C   0  0  0  0  0  0  0  0  0  0  0  0
   24.6775   -3.7790  -15.9331 C   0  0  0  0  0  0  0  0  0  0  0  0
   14.0992   -4.8532  -16.2690 O   0  0  0  0  0  0  0  0  0  0  0  0
   15.3633   -5.3661  -15.9480 C   0  0  0  0  0  0  0  0  0  0  0  0
   16.1961   -4.6494  -15.1235 C   0  0  0  0  0  0  0  0  0  0  0  0
   17.4418   -5.1354  -14.7962 C   0  0  0  0  0  0  0  0  0  0  0  0
   17.9235   -6.3587  -15.2724 C   0  0  0  0  0  0  0  0  0  0  0  0
   19.2623   -6.8659  -14.9205 C   0  0  0  0  0  0  0  0  0  0  0  0
   20.2517   -6.5409  -16.0235 C   0  0  2  0  0  0  0  0  0  0  0  0
   21.5843   -7.0507  -15.6356 N   0  0  0  0  0  0  0  0  0  0  0  0
   20.3443   -5.0925  -16.1668 C   0  0  0  0  0  0  0  0  0  0  0  0
   19.7028   -4.4366  -17.0262 O   0  0  0  0  0  0  0  0  0  0  0  0
   17.0544   -7.0559  -16.1032 C   0  0  0  0  0  0  0  0  0  0  0  0
   15.8071   -6.5712  -16.4317 C   0  0  0  0  0  0  0  0  0  0  0  0
   21.1668   -4.3607  -15.3350 O   0  0  0  0  0  0  0  0  0  0  0  0
  2  1  1  1
  2  3  1  0
  4  8  1  0
  4  3  1  0
  5  4  2  0
  6 16  1  0
  6  2  1  0
  7  6  2  0
  9 10  1  0
 10 11  2  0
 11 12  1  0
 13 12  2  0
 13 14  1  0
 15 14  1  6
 15 16  1  0
 17 28  1  0
 17 15  1  0
 18 17  2  0
 19 13  1  0
 20 10  1  0
 20 19  2  0
 21 22  1  0
 22 23  2  0
 23 24  1  0
 25 24  2  0
 25 26  1  0
 27 26  1  1
 27 29  1  0
 27 28  1  0
 29 33  1  0
 30 29  2  0
 31 25  1  0
 32 22  1  0
 32 31  2  0
M  END
$$$$
