DYY.pdb
     RDKit          3D

 33 34  0  0  1  0  0  0  0  0999 V2000
   16.9466   -6.0718  -18.7287 N   0  0  0  0  0  0  0  0  0  0  0  0
   17.5853   -5.5982  -17.5279 C   0  0  1  0  0  0  0  0  0  0  0  0
   18.0958   -4.1863  -17.6635 C   0  0  0  0  0  0  0  0  0  0  0  0
   19.2418   -4.1994  -18.6060 C   0  0  0  0  0  0  0  0  0  0  0  0
   20.1272   -5.0798  -18.5651 O   0  0  0  0  0  0  0  0  0  0  0  0
   16.6507   -5.6479  -16.3595 C   0  0  0  0  0  0  0  0  0  0  0  0
   15.4166   -5.4652  -16.5388 O   0  0  0  0  0  0  0  0  0  0  0  0
   19.3785   -3.2165  -19.5884 O   0  0  0  0  0  0  0  0  0  0  0  0
   18.0669  -12.0326  -15.1330 O   0  0  0  0  0  0  0  0  0  0  0  0
   17.3940  -10.8325  -14.9355 C   0  0  0  0  0  0  0  0  0  0  0  0
   17.0931  -10.4504  -13.6524 C   0  0  0  0  0  0  0  0  0  0  0  0
   16.4285   -9.2655  -13.4540 C   0  0  0  0  0  0  0  0  0  0  0  0
   16.0686   -8.4697  -14.5357 C   0  0  0  0  0  0  0  0  0  0  0  0
   15.3451   -7.2422  -14.2466 C   0  0  0  0  0  0  0  0  0  0  0  0
   16.1581   -6.0330  -13.9045 C   0  0  2  0  0  0  0  0  0  0  0  0
   17.0879   -5.8916  -15.0535 N   0  0  0  0  0  0  0  0  0  0  0  0
   17.0312   -6.1546  -12.7255 C   0  0  0  0  0  0  0  0  0  0  0  0
   18.1681   -6.7535  -12.7945 O   0  0  0  0  0  0  0  0  0  0  0  0
   16.3795   -8.8698  -15.8144 C   0  0  0  0  0  0  0  0  0  0  0  0
   17.0401  -10.0482  -16.0091 C   0  0  0  0  0  0  0  0  0  0  0  0
   15.1215   -0.0034   -9.4813 O   0  0  0  0  0  0  0  0  0  0  0  0
   15.9595   -1.1069   -9.6910 C   0  0  0  0  0  0  0  0  0  0  0  0
   16.5250   -1.7430   -8.6127 C   0  0  0  0  0  0  0  0  0  0  0  0
   17.3512   -2.8286   -8.7970 C   0  0  0  0  0  0  0  0  0  0  0  0
   17.6577   -3.3371  -10.0629 C   0  0  0  0  0  0  0  0  0  0  0  0
   18.5495   -4.4963  -10.2485 C   0  0  0  0  0  0  0  0  0  0  0  0
   17.7367   -5.7746  -10.3282 C   0  0  2  0  0  0  0  0  0  0  0  0
   16.7482   -5.6452  -11.4200 N   0  0  0  0  0  0  0  0  0  0  0  0
   17.0095   -5.9537   -9.0767 C   0  0  0  0  0  0  0  0  0  0  0  0
   15.7567   -5.9015   -8.9872 O   0  0  0  0  0  0  0  0  0  0  0  0
   17.0682   -2.6691  -11.1297 C   0  0  0  0  0  0  0  0  0  0  0  0
   16.2407   -1.5825  -10.9471 C   0  0  0  0  0  0  0  0  0  0  0  0
   17.6920   -6.1973   -7.9025 O   0  0  0  0  0  0  0  0  0  0  0  0
  2  1  1  6
  2  3  1  0
  4  8  1  0
  4  3  1  0
  5  4  2  0
  6 16  1  0
  6  2  1  0
  7  6  2  0
  9 10  1  0
 10 11  2  0
 11 12  1  0
 13 12  2  0
 13 14  1  0
 15 14  1  6
 15 16  1  0
 17 28  1  0
 17 15  1  0
 18 17  2  0
 19 13  1  0
 20 10  1  0
 20 19  2  0
 21 22  1  0
 22 23  2  0
 23 24  1  0
 25 24  2  0
 25 26  1  0
 27 26  1  1
 27 29  1  0
 27 28  1  0
 29 33  1  0
 30 29  2  0
 31 25  1  0
 32 22  1  0
 32 31  2  0
M  END
$$$$
