DYY.pdb
     RDKit          3D

 33 34  0  0  1  0  0  0  0  0999 V2000
   19.5479   -8.3958  -16.5768 N   0  0  0  0  0  0  0  0  0  0  0  0
   20.4875   -7.3464  -16.2767 C   0  0  1  0  0  0  0  0  0  0  0  0
   21.6345   -7.8246  -15.4233 C   0  0  0  0  0  0  0  0  0  0  0  0
   21.0878   -8.2410  -14.1082 C   0  0  0  0  0  0  0  0  0  0  0  0
   19.8821   -8.0989  -13.8134 O   0  0  0  0  0  0  0  0  0  0  0  0
   21.0522   -6.7487  -17.5276 C   0  0  0  0  0  0  0  0  0  0  0  0
   21.1286   -7.4469  -18.5741 O   0  0  0  0  0  0  0  0  0  0  0  0
   21.9085   -8.8153  -13.1354 O   0  0  0  0  0  0  0  0  0  0  0  0
   16.6201   -5.5466  -22.3373 O   0  0  0  0  0  0  0  0  0  0  0  0
   17.7023   -5.1280  -21.5719 C   0  0  0  0  0  0  0  0  0  0  0  0
   17.4774   -4.7242  -20.2800 C   0  0  0  0  0  0  0  0  0  0  0  0
   18.5442   -4.3100  -19.5215 C   0  0  0  0  0  0  0  0  0  0  0  0
   19.8277   -4.3013  -20.0558 C   0  0  0  0  0  0  0  0  0  0  0  0
   20.9016   -3.8258  -19.1989 C   0  0  0  0  0  0  0  0  0  0  0  0
   21.9834   -4.8004  -18.8527 C   0  0  2  0  0  0  0  0  0  0  0  0
   21.5083   -5.4281  -17.5936 N   0  0  0  0  0  0  0  0  0  0  0  0
   23.2923   -4.2185  -18.5135 C   0  0  0  0  0  0  0  0  0  0  0  0
   23.4677   -3.5573  -17.4236 O   0  0  0  0  0  0  0  0  0  0  0  0
   20.0328   -4.7101  -21.3530 C   0  0  0  0  0  0  0  0  0  0  0  0
   18.9706   -5.1213  -22.1051 C   0  0  0  0  0  0  0  0  0  0  0  0
   31.6030   -1.1598  -18.5486 O   0  0  0  0  0  0  0  0  0  0  0  0
   30.4318   -1.8550  -18.8786 C   0  0  0  0  0  0  0  0  0  0  0  0
   29.9104   -2.7643  -17.9908 C   0  0  0  0  0  0  0  0  0  0  0  0
   28.7610   -3.4577  -18.2958 C   0  0  0  0  0  0  0  0  0  0  0  0
   28.0714   -3.2829  -19.4996 C   0  0  0  0  0  0  0  0  0  0  0  0
   26.8449   -4.0363  -19.8183 C   0  0  0  0  0  0  0  0  0  0  0  0
   25.7163   -3.6131  -18.8974 C   0  0  2  0  0  0  0  0  0  0  0  0
   24.4789   -4.3118  -19.3056 N   0  0  0  0  0  0  0  0  0  0  0  0
   25.4965   -2.1788  -19.0436 C   0  0  0  0  0  0  0  0  0  0  0  0
   25.9182   -1.3239  -18.2241 O   0  0  0  0  0  0  0  0  0  0  0  0
   28.6274   -2.3556  -20.3729 C   0  0  0  0  0  0  0  0  0  0  0  0
   29.7777   -1.6603  -20.0691 C   0  0  0  0  0  0  0  0  0  0  0  0
   24.7943   -1.6877  -20.1251 O   0  0  0  0  0  0  0  0  0  0  0  0
  2  1  1  6
  2  3  1  0
  4  8  1  0
  4  3  1  0
  5  4  2  0
  6 16  1  0
  6  2  1  0
  7  6  2  0
  9 10  1  0
 10 11  2  0
 11 12  1  0
 13 12  2  0
 13 14  1  0
 15 14  1  1
 15 16  1  0
 17 28  1  0
 17 15  1  0
 18 17  2  0
 19 13  1  0
 20 10  1  0
 20 19  2  0
 21 22  1  0
 22 23  2  0
 23 24  1  0
 25 24  2  0
 25 26  1  0
 27 26  1  6
 27 29  1  0
 27 28  1  0
 29 33  1  0
 30 29  2  0
 31 25  1  0
 32 22  1  0
 32 31  2  0
M  END
$$$$
