DYY.pdb
     RDKit          3D

 33 34  0  0  1  0  0  0  0  0999 V2000
   28.6142  -21.1222  -16.7734 N   0  0  0  0  0  0  0  0  0  0  0  0
   27.5501  -20.4684  -17.4907 C   0  0  1  0  0  0  0  0  0  0  0  0
   27.7678  -20.4781  -18.9823 C   0  0  0  0  0  0  0  0  0  0  0  0
   29.0563  -19.7984  -19.2642 C   0  0  0  0  0  0  0  0  0  0  0  0
   29.9153  -20.2900  -20.0267 O   0  0  0  0  0  0  0  0  0  0  0  0
   26.2283  -21.1111  -17.2063 C   0  0  0  0  0  0  0  0  0  0  0  0
   25.2171  -20.7861  -17.8847 O   0  0  0  0  0  0  0  0  0  0  0  0
   29.3646  -18.5674  -18.6817 O   0  0  0  0  0  0  0  0  0  0  0  0
   21.0559  -27.7491  -14.4059 O   0  0  0  0  0  0  0  0  0  0  0  0
   22.0454  -26.8573  -14.8032 C   0  0  0  0  0  0  0  0  0  0  0  0
   23.2458  -26.8677  -14.1386 C   0  0  0  0  0  0  0  0  0  0  0  0
   24.2252  -25.9881  -14.5286 C   0  0  0  0  0  0  0  0  0  0  0  0
   24.0014  -25.1044  -15.5784 C   0  0  0  0  0  0  0  0  0  0  0  0
   25.0774  -24.1869  -15.9162 C   0  0  0  0  0  0  0  0  0  0  0  0
   24.7523  -22.7260  -15.9289 C   0  0  2  0  0  0  0  0  0  0  0  0
   26.0568  -22.0727  -16.2053 N   0  0  0  0  0  0  0  0  0  0  0  0
   24.3071  -22.1525  -14.6483 C   0  0  0  0  0  0  0  0  0  0  0  0
   24.8599  -22.4903  -13.5365 O   0  0  0  0  0  0  0  0  0  0  0  0
   22.7914  -25.1095  -16.2324 C   0  0  0  0  0  0  0  0  0  0  0  0
   21.8193  -25.9849  -15.8428 C   0  0  0  0  0  0  0  0  0  0  0  0
   28.1051  -21.3579   -9.7109 O   0  0  0  0  0  0  0  0  0  0  0  0
   26.9553  -20.9476  -10.3991 C   0  0  0  0  0  0  0  0  0  0  0  0
   27.0237  -20.7068  -11.7498 C   0  0  0  0  0  0  0  0  0  0  0  0
   25.9059  -20.3028  -12.4443 C   0  0  0  0  0  0  0  0  0  0  0  0
   24.6629  -20.1172  -11.8314 C   0  0  0  0  0  0  0  0  0  0  0  0
   23.4741  -19.6775  -12.5843 C   0  0  0  0  0  0  0  0  0  0  0  0
   22.7310  -20.8787  -13.1374 C   0  0  2  0  0  0  0  0  0  0  0  0
   23.2616  -21.1917  -14.4815 N   0  0  0  0  0  0  0  0  0  0  0  0
   21.3187  -20.5416  -13.2746 C   0  0  0  0  0  0  0  0  0  0  0  0
   20.5602  -20.3149  -12.2981 O   0  0  0  0  0  0  0  0  0  0  0  0
   24.6312  -20.3700  -10.4651 C   0  0  0  0  0  0  0  0  0  0  0  0
   25.7490  -20.7747   -9.7683 C   0  0  0  0  0  0  0  0  0  0  0  0
   20.7410  -20.4540  -14.5246 O   0  0  0  0  0  0  0  0  0  0  0  0
  2  1  1  1
  2  3  1  0
  4  8  1  0
  4  3  1  0
  5  4  2  0
  6 16  1  0
  6  2  1  0
  7  6  2  0
  9 10  1  0
 10 11  2  0
 11 12  1  0
 13 12  2  0
 13 14  1  0
 15 14  1  1
 15 16  1  0
 17 28  1  0
 17 15  1  0
 18 17  2  0
 19 13  1  0
 20 10  1  0
 20 19  2  0
 21 22  1  0
 22 23  2  0
 23 24  1  0
 25 24  2  0
 25 26  1  0
 27 26  1  6
 27 29  1  0
 27 28  1  0
 29 33  1  0
 30 29  2  0
 31 25  1  0
 32 22  1  0
 32 31  2  0
M  END
$$$$
