DYY.pdb
     RDKit          3D

 33 34  0  0  1  0  0  0  0  0999 V2000
   23.1186   -9.1204  -22.6371 N   0  0  0  0  0  0  0  0  0  0  0  0
   23.0076   -8.9067  -21.2171 C   0  0  1  0  0  0  0  0  0  0  0  0
   23.8395   -9.8788  -20.4200 C   0  0  0  0  0  0  0  0  0  0  0  0
   23.2008  -11.2149  -20.5117 C   0  0  0  0  0  0  0  0  0  0  0  0
   23.6439  -12.1148  -21.2563 O   0  0  0  0  0  0  0  0  0  0  0  0
   23.4230   -7.5181  -20.8426 C   0  0  0  0  0  0  0  0  0  0  0  0
   24.2575   -6.9015  -21.5580 O   0  0  0  0  0  0  0  0  0  0  0  0
   22.0651  -11.5242  -19.7604 O   0  0  0  0  0  0  0  0  0  0  0  0
   23.2701    0.8875  -20.4187 O   0  0  0  0  0  0  0  0  0  0  0  0
   23.1193   -0.4943  -20.4279 C   0  0  0  0  0  0  0  0  0  0  0  0
   24.0251   -1.2502  -21.1284 C   0  0  0  0  0  0  0  0  0  0  0  0
   23.8789   -2.6153  -21.1395 C   0  0  0  0  0  0  0  0  0  0  0  0
   22.8309   -3.2174  -20.4523 C   0  0  0  0  0  0  0  0  0  0  0  0
   22.7282   -4.6654  -20.5322 C   0  0  0  0  0  0  0  0  0  0  0  0
   23.2692   -5.4544  -19.3812 C   0  0  2  0  0  0  0  0  0  0  0  0
   22.9209   -6.8585  -19.7161 N   0  0  0  0  0  0  0  0  0  0  0  0
   22.6346   -5.2095  -18.0756 C   0  0  0  0  0  0  0  0  0  0  0  0
   21.4559   -5.6532  -17.8116 O   0  0  0  0  0  0  0  0  0  0  0  0
   21.9332   -2.4424  -19.7557 C   0  0  0  0  0  0  0  0  0  0  0  0
   22.0807   -1.0855  -19.7462 C   0  0  0  0  0  0  0  0  0  0  0  0
   23.0058  -10.7210  -15.3510 O   0  0  0  0  0  0  0  0  0  0  0  0
   23.0558   -9.3331  -15.1633 C   0  0  0  0  0  0  0  0  0  0  0  0
   24.1374   -8.6250  -15.6275 C   0  0  0  0  0  0  0  0  0  0  0  0
   24.2059   -7.2611  -15.4531 C   0  0  0  0  0  0  0  0  0  0  0  0
   23.2027   -6.5316  -14.8079 C   0  0  0  0  0  0  0  0  0  0  0  0
   23.2901   -5.0719  -14.6208 C   0  0  0  0  0  0  0  0  0  0  0  0
   22.4987   -4.3575  -15.6997 C   0  0  2  0  0  0  0  0  0  0  0  0
   23.2162   -4.4899  -16.9857 N   0  0  0  0  0  0  0  0  0  0  0  0
   22.4181   -2.9392  -15.3692 C   0  0  0  0  0  0  0  0  0  0  0  0
   22.9532   -2.0336  -16.0576 O   0  0  0  0  0  0  0  0  0  0  0  0
   22.1242   -7.2805  -14.3518 C   0  0  0  0  0  0  0  0  0  0  0  0
   22.0538   -8.6456  -14.5257 C   0  0  0  0  0  0  0  0  0  0  0  0
   21.7264   -2.5223  -14.2505 O   0  0  0  0  0  0  0  0  0  0  0  0
  2  1  1  6
  2  3  1  0
  4  8  1  0
  4  3  1  0
  5  4  2  0
  6 16  1  0
  6  2  1  0
  7  6  2  0
  9 10  1  0
 10 11  2  0
 11 12  1  0
 13 12  2  0
 13 14  1  0
 15 14  1  6
 15 16  1  0
 17 28  1  0
 17 15  1  0
 18 17  2  0
 19 13  1  0
 20 10  1  0
 20 19  2  0
 21 22  1  0
 22 23  2  0
 23 24  1  0
 25 24  2  0
 25 26  1  0
 27 26  1  1
 27 29  1  0
 27 28  1  0
 29 33  1  0
 30 29  2  0
 31 25  1  0
 32 22  1  0
 32 31  2  0
M  END
$$$$
