DYG.pdb
     RDKit          3D

 25 25  0  0  1  0  0  0  0  0999 V2000
    7.6102  -16.6764   21.6259 N   0  0  0  0  0  0  0  0  0  0  0  0
    8.8308  -15.9130   21.5124 C   0  0  1  0  0  0  0  0  0  0  0  0
    8.6091  -14.6038   20.7913 C   0  0  0  0  0  0  0  0  0  0  0  0
    8.3170  -14.8959   19.3787 C   0  0  0  0  0  0  0  0  0  0  0  0
    8.2104  -16.0749   18.9971 O   0  0  0  0  0  0  0  0  0  0  0  0
    9.4211  -15.6703   22.8783 C   0  0  0  0  0  0  0  0  0  0  0  0
   10.4676  -14.9615   22.9624 O   0  0  0  0  0  0  0  0  0  0  0  0
    8.1620  -13.8674   18.4818 O   0  0  0  0  0  0  0  0  0  0  0  0
    5.7793  -10.6233   25.9831 O   0  0  0  0  0  0  0  0  0  0  0  0
    6.4462  -11.8351   26.0842 C   0  0  0  0  0  0  0  0  0  0  0  0
    7.7627  -11.9298   26.4799 C   0  0  0  0  0  0  0  0  0  0  0  0
    8.3935  -13.1757   26.5670 C   0  0  0  0  0  0  0  0  0  0  0  0
    7.7400  -14.3493   26.2660 C   0  0  0  0  0  0  0  0  0  0  0  0
    8.4393  -15.6182   26.3634 C   0  0  0  0  0  0  0  0  0  0  0  0
    9.4673  -15.9266   25.3461 C   0  0  2  0  0  0  0  0  0  0  0  0
    8.8474  -16.2041   24.0490 N   0  0  0  0  0  0  0  0  0  0  0  0
   10.3047  -17.0641   25.7733 C   0  0  0  0  0  0  0  0  0  0  0  0
   10.8038  -17.0584   26.9106 O   0  0  0  0  0  0  0  0  0  0  0  0
    6.4127  -14.2219   25.8699 C   0  0  0  0  0  0  0  0  0  0  0  0
    5.7823  -13.0021   25.7808 C   0  0  0  0  0  0  0  0  0  0  0  0
   10.5715  -18.1781   24.9299 N   0  0  0  0  0  0  0  0  0  0  0  0
   11.3882  -19.2696   25.3774 C   0  0  0  0  0  0  0  0  0  0  0  0
   12.8233  -19.1485   25.0342 C   0  0  0  0  0  0  0  0  0  0  0  0
   13.6208  -20.0888   25.3248 O   0  0  0  0  0  0  0  0  0  0  0  0
   13.3967  -18.0582   24.4004 O   0  0  0  0  0  0  0  0  0  0  0  0
  2  3  1  0
  2  1  1  1
  4  8  1  0
  4  3  1  0
  5  4  2  0
  6  2  1  0
  7  6  2  0
  9 10  1  0
 10 20  2  0
 10 11  1  0
 11 12  2  0
 12 13  1  0
 13 14  1  0
 15 14  1  1
 15 16  1  0
 16  6  1  0
 17 15  1  0
 17 21  1  0
 18 17  2  0
 19 13  2  0
 20 19  1  0
 22 21  1  0
 23 22  1  0
 24 23  2  0
 25 23  1  0
M  END
$$$$
