DYG.pdb
     RDKit          3D

 25 25  0  0  1  0  0  0  0  0999 V2000
    7.5807  -20.9728   23.9637 N   0  0  0  0  0  0  0  0  0  0  0  0
    6.4317  -20.4119   23.2925 C   0  0  1  0  0  0  0  0  0  0  0  0
    5.1441  -21.0577   23.7489 C   0  0  0  0  0  0  0  0  0  0  0  0
    5.2813  -22.5162   23.6074 C   0  0  0  0  0  0  0  0  0  0  0  0
    6.3537  -23.0038   23.2086 O   0  0  0  0  0  0  0  0  0  0  0  0
    6.3800  -18.9206   23.5086 C   0  0  0  0  0  0  0  0  0  0  0  0
    5.4442  -18.2668   22.9598 O   0  0  0  0  0  0  0  0  0  0  0  0
    4.2258  -23.3392   23.9157 O   0  0  0  0  0  0  0  0  0  0  0  0
    9.5005  -19.6443   29.8722 O   0  0  0  0  0  0  0  0  0  0  0  0
    8.8503  -18.8891   28.9077 C   0  0  0  0  0  0  0  0  0  0  0  0
    7.6510  -19.2706   28.3466 C   0  0  0  0  0  0  0  0  0  0  0  0
    7.0324  -18.4751   27.3760 C   0  0  0  0  0  0  0  0  0  0  0  0
    7.5832  -17.2909   26.9408 C   0  0  0  0  0  0  0  0  0  0  0  0
    6.9078  -16.5032   25.9250 C   0  0  0  0  0  0  0  0  0  0  0  0
    7.1982  -16.8007   24.5058 C   0  0  2  0  0  0  0  0  0  0  0  0
    7.3329  -18.2433   24.2947 N   0  0  0  0  0  0  0  0  0  0  0  0
    8.4158  -16.0965   24.0597 C   0  0  0  0  0  0  0  0  0  0  0  0
    8.4825  -14.8620   24.1787 O   0  0  0  0  0  0  0  0  0  0  0  0
    8.7934  -16.9322   27.5252 C   0  0  0  0  0  0  0  0  0  0  0  0
    9.4107  -17.7066   28.4804 C   0  0  0  0  0  0  0  0  0  0  0  0
    9.5283  -16.7759   23.4902 N   0  0  0  0  0  0  0  0  0  0  0  0
   10.6833  -16.0572   23.0341 C   0  0  0  0  0  0  0  0  0  0  0  0
   11.7799  -16.9106   22.5229 C   0  0  0  0  0  0  0  0  0  0  0  0
   11.6409  -18.1695   22.5049 O   0  0  0  0  0  0  0  0  0  0  0  0
   12.9920  -16.4402   22.0444 O   0  0  0  0  0  0  0  0  0  0  0  0
  2  3  1  0
  2  1  1  1
  4  8  1  0
  4  3  1  0
  5  4  2  0
  6  2  1  0
  7  6  2  0
  9 10  1  0
 10 20  2  0
 10 11  1  0
 11 12  2  0
 12 13  1  0
 13 14  1  0
 15 14  1  1
 15 16  1  0
 16  6  1  0
 17 15  1  0
 17 21  1  0
 18 17  2  0
 19 13  2  0
 20 19  1  0
 22 21  1  0
 23 22  1  0
 24 23  2  0
 25 23  1  0
M  END
$$$$
