DYG.pdb
     RDKit          3D

 25 25  0  0  1  0  0  0  0  0999 V2000
   10.2199  -16.9141   19.3934 N   0  0  0  0  0  0  0  0  0  0  0  0
    8.9745  -17.0813   20.1050 C   0  0  1  0  0  0  0  0  0  0  0  0
    8.5910  -18.5375   20.2311 C   0  0  0  0  0  0  0  0  0  0  0  0
    8.2786  -19.0526   18.8883 C   0  0  0  0  0  0  0  0  0  0  0  0
    9.1780  -19.5521   18.1895 O   0  0  0  0  0  0  0  0  0  0  0  0
    9.0631  -16.4389   21.4661 C   0  0  0  0  0  0  0  0  0  0  0  0
   10.1311  -16.5866   22.1310 O   0  0  0  0  0  0  0  0  0  0  0  0
    6.9942  -18.9823   18.4066 O   0  0  0  0  0  0  0  0  0  0  0  0
    6.7811  -11.5830   28.6478 O   0  0  0  0  0  0  0  0  0  0  0  0
    6.8828  -12.1506   27.3865 C   0  0  0  0  0  0  0  0  0  0  0  0
    5.8106  -12.2521   26.5270 C   0  0  0  0  0  0  0  0  0  0  0  0
    5.9620  -12.8331   25.2632 C   0  0  0  0  0  0  0  0  0  0  0  0
    7.1706  -13.3244   24.8238 C   0  0  0  0  0  0  0  0  0  0  0  0
    7.2768  -13.9265   23.5067 C   0  0  0  0  0  0  0  0  0  0  0  0
    8.1405  -15.1169   23.3527 C   0  0  2  0  0  0  0  0  0  0  0  0
    8.0031  -15.6882   22.0116 N   0  0  0  0  0  0  0  0  0  0  0  0
    7.8290  -16.1287   24.3806 C   0  0  0  0  0  0  0  0  0  0  0  0
    6.6936  -16.6310   24.4151 O   0  0  0  0  0  0  0  0  0  0  0  0
    8.2339  -13.2079   25.7130 C   0  0  0  0  0  0  0  0  0  0  0  0
    8.0966  -12.6383   26.9579 C   0  0  0  0  0  0  0  0  0  0  0  0
    8.7810  -16.5573   25.3469 N   0  0  0  0  0  0  0  0  0  0  0  0
    8.4939  -17.6408   26.2425 C   0  0  0  0  0  0  0  0  0  0  0  0
    9.5628  -17.9296   27.2254 C   0  0  0  0  0  0  0  0  0  0  0  0
   10.7734  -17.9401   26.8529 O   0  0  0  0  0  0  0  0  0  0  0  0
    9.3521  -18.2011   28.5675 O   0  0  0  0  0  0  0  0  0  0  0  0
  2  3  1  0
  2  1  1  1
  4  8  1  0
  4  3  1  0
  5  4  2  0
  6  2  1  0
  7  6  2  0
  9 10  1  0
 10 20  2  0
 10 11  1  0
 11 12  2  0
 12 13  1  0
 13 14  1  0
 15 14  1  6
 15 16  1  0
 16  6  1  0
 17 15  1  0
 17 21  1  0
 18 17  2  0
 19 13  2  0
 20 19  1  0
 22 21  1  0
 23 22  1  0
 24 23  2  0
 25 23  1  0
M  END
$$$$
