DYG.pdb
     RDKit          3D

 25 25  0  0  1  0  0  0  0  0999 V2000
    7.9127  -17.2823   21.3823 N   0  0  0  0  0  0  0  0  0  0  0  0
    8.9028  -16.2589   21.1418 C   0  0  1  0  0  0  0  0  0  0  0  0
    8.3676  -15.1565   20.2577 C   0  0  0  0  0  0  0  0  0  0  0  0
    8.1204  -15.7148   18.9186 C   0  0  0  0  0  0  0  0  0  0  0  0
    7.0947  -15.3956   18.2918 O   0  0  0  0  0  0  0  0  0  0  0  0
    9.3952  -15.6943   22.4502 C   0  0  0  0  0  0  0  0  0  0  0  0
   10.3021  -14.8106   22.4190 O   0  0  0  0  0  0  0  0  0  0  0  0
    9.0220  -16.5879   18.3606 O   0  0  0  0  0  0  0  0  0  0  0  0
    5.7949  -10.3584   26.1810 O   0  0  0  0  0  0  0  0  0  0  0  0
    6.4171  -11.5964   26.1210 C   0  0  0  0  0  0  0  0  0  0  0  0
    5.7174  -12.7757   25.9864 C   0  0  0  0  0  0  0  0  0  0  0  0
    6.3895  -14.0016   25.9303 C   0  0  0  0  0  0  0  0  0  0  0  0
    7.7614  -14.0879   26.0060 C   0  0  0  0  0  0  0  0  0  0  0  0
    8.4139  -15.3840   25.9517 C   0  0  0  0  0  0  0  0  0  0  0  0
    9.4610  -15.5941   24.9289 C   0  0  2  0  0  0  0  0  0  0  0  0
    8.8803  -16.1182   23.6912 N   0  0  0  0  0  0  0  0  0  0  0  0
   10.5122  -16.4998   25.4313 C   0  0  0  0  0  0  0  0  0  0  0  0
   11.1839  -16.1626   26.4201 O   0  0  0  0  0  0  0  0  0  0  0  0
    8.4401  -12.8813   26.1414 C   0  0  0  0  0  0  0  0  0  0  0  0
    7.7895  -11.6702   26.1975 C   0  0  0  0  0  0  0  0  0  0  0  0
   10.7959  -17.7550   24.8249 N   0  0  0  0  0  0  0  0  0  0  0  0
   11.8592  -18.5890   25.3067 C   0  0  0  0  0  0  0  0  0  0  0  0
   11.5631  -19.2983   26.5721 C   0  0  0  0  0  0  0  0  0  0  0  0
   12.4446  -20.0405   27.0981 O   0  0  0  0  0  0  0  0  0  0  0  0
   10.3630  -19.2226   27.2602 O   0  0  0  0  0  0  0  0  0  0  0  0
  2  3  1  0
  2  1  1  1
  4  8  1  0
  4  3  1  0
  5  4  2  0
  6  2  1  0
  7  6  2  0
  9 10  1  0
 10 20  2  0
 10 11  1  0
 11 12  2  0
 12 13  1  0
 13 14  1  0
 15 14  1  1
 15 16  1  0
 16  6  1  0
 17 15  1  0
 17 21  1  0
 18 17  2  0
 19 13  2  0
 20 19  1  0
 22 21  1  0
 23 22  1  0
 24 23  2  0
 25 23  1  0
M  END
$$$$
