DYG.pdb
     RDKit          3D

 25 25  0  0  1  0  0  0  0  0999 V2000
   10.0611  -18.6066   19.7818 N   0  0  0  0  0  0  0  0  0  0  0  0
   11.1959  -17.7152   19.8354 C   0  0  1  0  0  0  0  0  0  0  0  0
   11.3914  -16.9761   18.5320 C   0  0  0  0  0  0  0  0  0  0  0  0
   11.8523  -17.9380   17.5180 C   0  0  0  0  0  0  0  0  0  0  0  0
   11.9222  -19.1483   17.7958 O   0  0  0  0  0  0  0  0  0  0  0  0
   11.0390  -16.7418   20.9760 C   0  0  0  0  0  0  0  0  0  0  0  0
   11.9858  -15.9332   21.2094 O   0  0  0  0  0  0  0  0  0  0  0  0
   12.2053  -17.5000   16.2650 O   0  0  0  0  0  0  0  0  0  0  0  0
    7.0774  -13.0885   17.4594 O   0  0  0  0  0  0  0  0  0  0  0  0
    7.4222  -13.5246   18.7300 C   0  0  0  0  0  0  0  0  0  0  0  0
    8.1436  -12.7507   19.6127 C   0  0  0  0  0  0  0  0  0  0  0  0
    8.4680  -13.2341   20.8850 C   0  0  0  0  0  0  0  0  0  0  0  0
    8.0885  -14.4872   21.3102 C   0  0  0  0  0  0  0  0  0  0  0  0
    8.4559  -14.9484   22.6372 C   0  0  0  0  0  0  0  0  0  0  0  0
    9.7409  -15.6629   22.7951 C   0  0  2  0  0  0  0  0  0  0  0  0
    9.8822  -16.7080   21.7793 N   0  0  0  0  0  0  0  0  0  0  0  0
    9.8598  -16.2377   24.1489 C   0  0  0  0  0  0  0  0  0  0  0  0
    9.7051  -15.5021   25.1377 O   0  0  0  0  0  0  0  0  0  0  0  0
    7.3616  -15.2447   20.3978 C   0  0  0  0  0  0  0  0  0  0  0  0
    7.0369  -14.7795   19.1443 C   0  0  0  0  0  0  0  0  0  0  0  0
   10.1500  -17.6119   24.3749 N   0  0  0  0  0  0  0  0  0  0  0  0
   10.2263  -18.1459   25.7043 C   0  0  0  0  0  0  0  0  0  0  0  0
   11.5983  -18.2479   26.2514 C   0  0  0  0  0  0  0  0  0  0  0  0
   12.5467  -18.6298   25.5036 O   0  0  0  0  0  0  0  0  0  0  0  0
   11.9539  -17.9531   27.5576 O   0  0  0  0  0  0  0  0  0  0  0  0
  2  3  1  0
  2  1  1  6
  4  8  1  0
  4  3  1  0
  5  4  2  0
  6  2  1  0
  7  6  2  0
  9 10  1  0
 10 20  2  0
 10 11  1  0
 11 12  2  0
 12 13  1  0
 13 14  1  0
 15 14  1  1
 15 16  1  0
 16  6  1  0
 17 15  1  0
 17 21  1  0
 18 17  2  0
 19 13  2  0
 20 19  1  0
 22 21  1  0
 23 22  1  0
 24 23  2  0
 25 23  1  0
M  END
$$$$
