DYG.pdb
     RDKit          3D

 25 25  0  0  1  0  0  0  0  0999 V2000
    9.5461  -18.8292   21.0344 N   0  0  0  0  0  0  0  0  0  0  0  0
   10.6186  -17.8684   21.1440 C   0  0  1  0  0  0  0  0  0  0  0  0
   10.8985  -17.1866   19.8249 C   0  0  0  0  0  0  0  0  0  0  0  0
   11.6080  -18.1367   18.9531 C   0  0  0  0  0  0  0  0  0  0  0  0
   11.8302  -19.2952   19.3473 O   0  0  0  0  0  0  0  0  0  0  0  0
   10.2970  -16.8493   22.2075 C   0  0  0  0  0  0  0  0  0  0  0  0
   11.1717  -15.9765   22.4863 O   0  0  0  0  0  0  0  0  0  0  0  0
   12.0247  -17.7447   17.7044 O   0  0  0  0  0  0  0  0  0  0  0  0
    7.3160  -12.5985   18.5934 O   0  0  0  0  0  0  0  0  0  0  0  0
    7.3978  -13.2046   19.8381 C   0  0  0  0  0  0  0  0  0  0  0  0
    6.6493  -14.3103   20.1786 C   0  0  0  0  0  0  0  0  0  0  0  0
    6.7661  -14.8876   21.4478 C   0  0  0  0  0  0  0  0  0  0  0  0
    7.6210  -14.3866   22.4035 C   0  0  0  0  0  0  0  0  0  0  0  0
    7.7017  -15.0151   23.7101 C   0  0  0  0  0  0  0  0  0  0  0  0
    8.8564  -15.8958   23.9890 C   0  0  2  0  0  0  0  0  0  0  0  0
    9.0652  -16.8418   22.8910 N   0  0  0  0  0  0  0  0  0  0  0  0
    8.6725  -16.6155   25.2640 C   0  0  0  0  0  0  0  0  0  0  0  0
    7.5300  -16.9605   25.6084 O   0  0  0  0  0  0  0  0  0  0  0  0
    8.3631  -13.2707   22.0308 C   0  0  0  0  0  0  0  0  0  0  0  0
    8.2563  -12.6950   20.7857 C   0  0  0  0  0  0  0  0  0  0  0  0
    9.7572  -16.9329   26.1279 N   0  0  0  0  0  0  0  0  0  0  0  0
    9.5533  -17.6930   27.3275 C   0  0  0  0  0  0  0  0  0  0  0  0
   10.7714  -17.8974   28.1439 C   0  0  0  0  0  0  0  0  0  0  0  0
   11.9040  -17.5795   27.6740 O   0  0  0  0  0  0  0  0  0  0  0  0
   10.7870  -18.4258   29.4245 O   0  0  0  0  0  0  0  0  0  0  0  0
  2  3  1  0
  2  1  1  6
  4  8  1  0
  4  3  1  0
  5  4  2  0
  6  2  1  0
  7  6  2  0
  9 10  1  0
 10 20  2  0
 10 11  1  0
 11 12  2  0
 12 13  1  0
 13 14  1  0
 15 14  1  6
 15 16  1  0
 16  6  1  0
 17 15  1  0
 17 21  1  0
 18 17  2  0
 19 13  2  0
 20 19  1  0
 22 21  1  0
 23 22  1  0
 24 23  2  0
 25 23  1  0
M  END
$$$$
