DYG.pdb
     RDKit          3D

 25 25  0  0  1  0  0  0  0  0999 V2000
   11.2128  -17.2401   19.2288 N   0  0  0  0  0  0  0  0  0  0  0  0
   10.8063  -17.9029   20.4457 C   0  0  1  0  0  0  0  0  0  0  0  0
   11.6591  -19.1160   20.7360 C   0  0  0  0  0  0  0  0  0  0  0  0
   11.5370  -20.0501   19.6053 C   0  0  0  0  0  0  0  0  0  0  0  0
   10.4134  -20.4320   19.2331 O   0  0  0  0  0  0  0  0  0  0  0  0
   10.8498  -16.9375   21.6030 C   0  0  0  0  0  0  0  0  0  0  0  0
   11.8816  -16.2165   21.7445 O   0  0  0  0  0  0  0  0  0  0  0  0
   12.6633  -20.5003   18.9608 O   0  0  0  0  0  0  0  0  0  0  0  0
    7.1584  -12.9688   18.2128 O   0  0  0  0  0  0  0  0  0  0  0  0
    7.4902  -13.4542   19.4689 C   0  0  0  0  0  0  0  0  0  0  0  0
    6.7717  -14.4482   20.0967 C   0  0  0  0  0  0  0  0  0  0  0  0
    7.1452  -14.9058   21.3652 C   0  0  0  0  0  0  0  0  0  0  0  0
    8.2315  -14.3929   22.0374 C   0  0  0  0  0  0  0  0  0  0  0  0
    8.5753  -14.8942   23.3562 C   0  0  0  0  0  0  0  0  0  0  0  0
    9.7936  -15.7215   23.4908 C   0  0  2  0  0  0  0  0  0  0  0  0
    9.7869  -16.8174   22.5198 N   0  0  0  0  0  0  0  0  0  0  0  0
    9.9228  -16.2472   24.8635 C   0  0  0  0  0  0  0  0  0  0  0  0
   10.0140  -15.4519   25.8132 O   0  0  0  0  0  0  0  0  0  0  0  0
    8.9369  -13.3912   21.3786 C   0  0  0  0  0  0  0  0  0  0  0  0
    8.5788  -12.9337   20.1313 C   0  0  0  0  0  0  0  0  0  0  0  0
    9.9510  -17.6401   25.1508 N   0  0  0  0  0  0  0  0  0  0  0  0
   10.9157  -18.1919   26.0583 C   0  0  0  0  0  0  0  0  0  0  0  0
   10.4459  -18.3205   27.4564 C   0  0  0  0  0  0  0  0  0  0  0  0
    9.2356  -18.0747   27.7382 O   0  0  0  0  0  0  0  0  0  0  0  0
   11.2396  -18.6991   28.5269 O   0  0  0  0  0  0  0  0  0  0  0  0
  2  3  1  0
  2  1  1  6
  4  8  1  0
  4  3  1  0
  5  4  2  0
  6  2  1  0
  7  6  2  0
  9 10  1  0
 10 20  2  0
 10 11  1  0
 11 12  2  0
 12 13  1  0
 13 14  1  0
 15 14  1  1
 15 16  1  0
 16  6  1  0
 17 15  1  0
 17 21  1  0
 18 17  2  0
 19 13  2  0
 20 19  1  0
 22 21  1  0
 23 22  1  0
 24 23  2  0
 25 23  1  0
M  END
$$$$
