DYG.pdb
     RDKit          3D

 25 25  0  0  1  0  0  0  0  0999 V2000
    9.3170  -17.9620   20.4572 N   0  0  0  0  0  0  0  0  0  0  0  0
   10.5431  -17.2919   20.8219 C   0  0  1  0  0  0  0  0  0  0  0  0
   11.1167  -16.5034   19.6675 C   0  0  0  0  0  0  0  0  0  0  0  0
   11.3381  -17.4245   18.5412 C   0  0  0  0  0  0  0  0  0  0  0  0
   11.5716  -16.9733   17.4060 O   0  0  0  0  0  0  0  0  0  0  0  0
   10.3113  -16.3944   22.0110 C   0  0  0  0  0  0  0  0  0  0  0  0
   11.3026  -15.7720   22.4953 O   0  0  0  0  0  0  0  0  0  0  0  0
   11.2870  -18.7821   18.7431 O   0  0  0  0  0  0  0  0  0  0  0  0
    6.0993  -11.0427   27.7724 O   0  0  0  0  0  0  0  0  0  0  0  0
    6.4647  -11.9067   26.7509 C   0  0  0  0  0  0  0  0  0  0  0  0
    7.3029  -11.5327   25.7233 C   0  0  0  0  0  0  0  0  0  0  0  0
    7.6435  -12.4402   24.7143 C   0  0  0  0  0  0  0  0  0  0  0  0
    7.1648  -13.7308   24.6990 C   0  0  0  0  0  0  0  0  0  0  0  0
    7.5398  -14.6343   23.6258 C   0  0  0  0  0  0  0  0  0  0  0  0
    8.8648  -15.2871   23.6961 C   0  0  2  0  0  0  0  0  0  0  0  0
    9.0377  -16.2316   22.5907 N   0  0  0  0  0  0  0  0  0  0  0  0
    9.0468  -15.9686   24.9922 C   0  0  0  0  0  0  0  0  0  0  0  0
    9.0105  -15.3025   26.0399 O   0  0  0  0  0  0  0  0  0  0  0  0
    6.3214  -14.0791   25.7489 C   0  0  0  0  0  0  0  0  0  0  0  0
    5.9799  -13.1951   26.7464 C   0  0  0  0  0  0  0  0  0  0  0  0
    9.2674  -17.3700   25.0965 N   0  0  0  0  0  0  0  0  0  0  0  0
    9.4700  -17.9971   26.3709 C   0  0  0  0  0  0  0  0  0  0  0  0
   10.8857  -18.2720   26.7061 C   0  0  0  0  0  0  0  0  0  0  0  0
   11.6052  -17.3531   27.1986 O   0  0  0  0  0  0  0  0  0  0  0  0
   11.5209  -19.4895   26.5227 O   0  0  0  0  0  0  0  0  0  0  0  0
  2  3  1  0
  2  1  1  6
  4  8  1  0
  4  3  1  0
  5  4  2  0
  6  2  1  0
  7  6  2  0
  9 10  1  0
 10 20  2  0
 10 11  1  0
 11 12  2  0
 12 13  1  0
 13 14  1  0
 15 14  1  1
 15 16  1  0
 16  6  1  0
 17 15  1  0
 17 21  1  0
 18 17  2  0
 19 13  2  0
 20 19  1  0
 22 21  1  0
 23 22  1  0
 24 23  2  0
 25 23  1  0
M  END
$$$$
