DYG.pdb
     RDKit          3D

 25 25  0  0  1  0  0  0  0  0999 V2000
    7.7154  -17.3740   19.1712 N   0  0  0  0  0  0  0  0  0  0  0  0
    8.5737  -16.2401   18.9204 C   0  0  1  0  0  0  0  0  0  0  0  0
    8.0560  -15.3836   17.7883 C   0  0  0  0  0  0  0  0  0  0  0  0
    8.1086  -16.1735   16.5476 C   0  0  0  0  0  0  0  0  0  0  0  0
    8.1816  -17.4138   16.6031 O   0  0  0  0  0  0  0  0  0  0  0  0
    8.7301  -15.4189   20.1751 C   0  0  0  0  0  0  0  0  0  0  0  0
    9.4877  -14.4044   20.1376 O   0  0  0  0  0  0  0  0  0  0  0  0
    8.0769  -15.5416   15.3285 O   0  0  0  0  0  0  0  0  0  0  0  0
    7.0904  -11.7050   28.0870 O   0  0  0  0  0  0  0  0  0  0  0  0
    7.0802  -12.4947   26.9470 C   0  0  0  0  0  0  0  0  0  0  0  0
    7.4540  -13.8209   26.9564 C   0  0  0  0  0  0  0  0  0  0  0  0
    7.4273  -14.5780   25.7801 C   0  0  0  0  0  0  0  0  0  0  0  0
    7.0327  -14.0431   24.5746 C   0  0  0  0  0  0  0  0  0  0  0  0
    7.0294  -14.8664   23.3784 C   0  0  0  0  0  0  0  0  0  0  0  0
    8.2582  -14.9056   22.5566 C   0  0  2  0  0  0  0  0  0  0  0  0
    8.0648  -15.7456   21.3731 N   0  0  0  0  0  0  0  0  0  0  0  0
    9.4060  -15.3859   23.3501 C   0  0  0  0  0  0  0  0  0  0  0  0
    9.8485  -14.6778   24.2695 O   0  0  0  0  0  0  0  0  0  0  0  0
    6.6613  -12.7028   24.5964 C   0  0  0  0  0  0  0  0  0  0  0  0
    6.6836  -11.9489   25.7472 C   0  0  0  0  0  0  0  0  0  0  0  0
   10.0374  -16.6367   23.1042 N   0  0  0  0  0  0  0  0  0  0  0  0
   11.0649  -17.1335   23.9736 C   0  0  0  0  0  0  0  0  0  0  0  0
   10.5706  -17.7442   25.2284 C   0  0  0  0  0  0  0  0  0  0  0  0
   10.5142  -17.0496   26.2862 O   0  0  0  0  0  0  0  0  0  0  0  0
   10.1482  -19.0574   25.3572 O   0  0  0  0  0  0  0  0  0  0  0  0
  2  3  1  0
  2  1  1  1
  4  8  1  0
  4  3  1  0
  5  4  2  0
  6  2  1  0
  7  6  2  0
  9 10  1  0
 10 20  2  0
 10 11  1  0
 11 12  2  0
 12 13  1  0
 13 14  1  0
 15 14  1  1
 15 16  1  0
 16  6  1  0
 17 15  1  0
 17 21  1  0
 18 17  2  0
 19 13  2  0
 20 19  1  0
 22 21  1  0
 23 22  1  0
 24 23  2  0
 25 23  1  0
M  END
$$$$
