DYG.pdb
     RDKit          3D

 25 25  0  0  1  0  0  0  0  0999 V2000
    8.5538  -17.8828   19.4331 N   0  0  0  0  0  0  0  0  0  0  0  0
    9.8459  -17.3171   19.7428 C   0  0  1  0  0  0  0  0  0  0  0  0
   10.3962  -16.5099   18.5900 C   0  0  0  0  0  0  0  0  0  0  0  0
   10.5618  -17.4056   17.4340 C   0  0  0  0  0  0  0  0  0  0  0  0
    9.6274  -18.1483   17.0843 O   0  0  0  0  0  0  0  0  0  0  0  0
    9.7577  -16.4693   20.9864 C   0  0  0  0  0  0  0  0  0  0  0  0
   10.8048  -15.8789   21.3857 O   0  0  0  0  0  0  0  0  0  0  0  0
   11.7476  -17.4218   16.7411 O   0  0  0  0  0  0  0  0  0  0  0  0
    6.6483  -11.4388   27.6237 O   0  0  0  0  0  0  0  0  0  0  0  0
    6.8336  -12.2162   26.4903 C   0  0  0  0  0  0  0  0  0  0  0  0
    7.5504  -11.7801   25.3973 C   0  0  0  0  0  0  0  0  0  0  0  0
    7.7106  -12.6009   24.2755 C   0  0  0  0  0  0  0  0  0  0  0  0
    7.1679  -13.8644   24.2100 C   0  0  0  0  0  0  0  0  0  0  0  0
    7.3541  -14.6764   23.0206 C   0  0  0  0  0  0  0  0  0  0  0  0
    8.5539  -15.5377   22.9463 C   0  0  2  0  0  0  0  0  0  0  0  0
    8.5569  -16.3182   21.7074 N   0  0  0  0  0  0  0  0  0  0  0  0
    8.6344  -16.4290   24.1195 C   0  0  0  0  0  0  0  0  0  0  0  0
    7.7062  -17.2230   24.3449 O   0  0  0  0  0  0  0  0  0  0  0  0
    6.4502  -14.2767   25.3279 C   0  0  0  0  0  0  0  0  0  0  0  0
    6.2865  -13.4781   26.4363 C   0  0  0  0  0  0  0  0  0  0  0  0
    9.7388  -16.4174   25.0160 N   0  0  0  0  0  0  0  0  0  0  0  0
    9.8383  -17.3699   26.0843 C   0  0  0  0  0  0  0  0  0  0  0  0
   11.0825  -17.2767   26.8813 C   0  0  0  0  0  0  0  0  0  0  0  0
   11.9881  -16.4593   26.5401 O   0  0  0  0  0  0  0  0  0  0  0  0
   11.3585  -18.0316   28.0098 O   0  0  0  0  0  0  0  0  0  0  0  0
  2  3  1  0
  2  1  1  6
  4  8  1  0
  4  3  1  0
  5  4  2  0
  6  2  1  0
  7  6  2  0
  9 10  1  0
 10 20  2  0
 10 11  1  0
 11 12  2  0
 12 13  1  0
 13 14  1  0
 15 14  1  1
 15 16  1  0
 16  6  1  0
 17 15  1  0
 17 21  1  0
 18 17  2  0
 19 13  2  0
 20 19  1  0
 22 21  1  0
 23 22  1  0
 24 23  2  0
 25 23  1  0
M  END
$$$$
