DYG.pdb
     RDKit          3D

 25 25  0  0  1  0  0  0  0  0999 V2000
    8.0752  -20.6122   22.0851 N   0  0  0  0  0  0  0  0  0  0  0  0
    9.4145  -20.0830   21.9774 C   0  0  1  0  0  0  0  0  0  0  0  0
    9.8909  -20.0485   20.5438 C   0  0  0  0  0  0  0  0  0  0  0  0
    9.8579  -21.4200   20.0110 C   0  0  0  0  0  0  0  0  0  0  0  0
    9.4036  -22.3460   20.7060 O   0  0  0  0  0  0  0  0  0  0  0  0
    9.4804  -18.7066   22.5890 C   0  0  0  0  0  0  0  0  0  0  0  0
    8.5411  -17.8939   22.3405 O   0  0  0  0  0  0  0  0  0  0  0  0
   10.3285  -21.6779   18.7466 O   0  0  0  0  0  0  0  0  0  0  0  0
    7.0865  -20.8693   27.9400 O   0  0  0  0  0  0  0  0  0  0  0  0
    7.9159  -19.9301   27.3455 C   0  0  0  0  0  0  0  0  0  0  0  0
    7.4579  -18.7108   26.8960 C   0  0  0  0  0  0  0  0  0  0  0  0
    8.3332  -17.7947   26.3023 C   0  0  0  0  0  0  0  0  0  0  0  0
    9.6737  -18.0630   26.1406 C   0  0  0  0  0  0  0  0  0  0  0  0
   10.5418  -17.0839   25.5109 C   0  0  0  0  0  0  0  0  0  0  0  0
   10.5168  -16.9774   24.0362 C   0  0  2  0  0  0  0  0  0  0  0  0
   10.5455  -18.3050   23.4191 N   0  0  0  0  0  0  0  0  0  0  0  0
   11.6419  -16.1561   23.5494 C   0  0  0  0  0  0  0  0  0  0  0  0
   11.8197  -15.0236   24.0275 O   0  0  0  0  0  0  0  0  0  0  0  0
   10.1064  -19.3011   26.6040 C   0  0  0  0  0  0  0  0  0  0  0  0
    9.2547  -20.2094   27.1894 C   0  0  0  0  0  0  0  0  0  0  0  0
   12.5406  -16.6074   22.5432 N   0  0  0  0  0  0  0  0  0  0  0  0
   13.6467  -15.7983   22.1184 C   0  0  0  0  0  0  0  0  0  0  0  0
   14.5332  -16.4387   21.1203 C   0  0  0  0  0  0  0  0  0  0  0  0
   15.0801  -17.5499   21.3863 O   0  0  0  0  0  0  0  0  0  0  0  0
   14.8318  -15.9133   19.8737 O   0  0  0  0  0  0  0  0  0  0  0  0
  2  3  1  0
  2  1  1  6
  4  8  1  0
  4  3  1  0
  5  4  2  0
  6  2  1  0
  7  6  2  0
  9 10  1  0
 10 20  2  0
 10 11  1  0
 11 12  2  0
 12 13  1  0
 13 14  1  0
 15 14  1  1
 15 16  1  0
 16  6  1  0
 17 15  1  0
 17 21  1  0
 18 17  2  0
 19 13  2  0
 20 19  1  0
 22 21  1  0
 23 22  1  0
 24 23  2  0
 25 23  1  0
M  END
$$$$
