SME.pdb
     RDKit          3D

 24 23  0  0  1  0  0  0  0  0999 V2000
    7.8808  -18.1619   20.6145 O   0  0  0  0  0  0  0  0  0  0  0  0
    7.0387  -17.1572   20.2065 C   0  0  0  0  0  0  0  0  0  0  0  0
    7.7016  -15.8182   20.0850 C   0  0  2  0  0  0  0  0  0  0  0  0
    8.6716  -15.7253   19.0512 N   0  0  0  0  0  0  0  0  0  0  0  0
    8.3298  -15.4019   21.3731 C   0  0  0  0  0  0  0  0  0  0  0  0
    9.5853  -15.4698   21.5493 O   0  0  0  0  0  0  0  0  0  0  0  0
    7.1908  -12.0712   28.4495 C   0  0  0  0  0  0  0  0  0  0  0  0
    6.3930  -12.6069   26.9144 S   0  0  0  0  0  0  0  0  0  0  0  0
    7.6136  -13.4285   25.8592 C   0  0  0  0  0  0  0  0  0  0  0  0
    6.9981  -13.8633   24.5469 C   0  0  0  0  0  0  0  0  0  0  0  0
    8.0991  -14.5562   23.7540 C   0  0  2  0  0  0  0  0  0  0  0  0
    7.5570  -14.9122   22.4587 N   0  0  0  0  0  0  0  0  0  0  0  0
    8.5918  -15.7762   24.4750 C   0  0  0  0  0  0  0  0  0  0  0  0
    7.8463  -16.7691   24.6089 O   0  0  0  0  0  0  0  0  0  0  0  0
    9.9011  -15.7856   24.9970 N   0  0  0  0  0  0  0  0  0  0  0  0
   10.4574  -16.9359   25.6938 C   0  0  1  0  0  0  0  0  0  0  0  0
   11.9320  -17.0257   25.4145 C   0  0  0  0  0  0  0  0  0  0  0  0
   12.2625  -16.9985   23.9601 C   0  0  0  0  0  0  0  0  0  0  0  0
   13.6628  -16.6366   23.6613 C   0  0  0  0  0  0  0  0  0  0  0  0
   14.0592  -15.4649   23.4406 O   0  0  0  0  0  0  0  0  0  0  0  0
   10.2461  -16.7108   27.1685 C   0  0  0  0  0  0  0  0  0  0  0  0
    9.7404  -15.6490   27.6153 O   0  0  0  0  0  0  0  0  0  0  0  0
   14.6097  -17.6500   23.6195 O   0  0  0  0  0  0  0  0  0  0  0  0
   10.6094  -17.6830   28.0821 O   0  0  0  0  0  0  0  0  0  0  0  0
  2  3  1  0
  2  1  1  0
  3  4  1  6
  5  6  2  0
  5  3  1  0
  7  8  1  0
  8  9  1  0
  9 10  1  0
 11 10  1  1
 11 13  1  0
 11 12  1  0
 12  5  1  0
 13 15  1  0
 14 13  2  0
 15 16  1  0
 16 21  1  0
 16 17  1  1
 18 17  1  0
 19 18  1  0
 20 19  2  0
 21 22  2  0
 21 24  1  0
 23 19  1  0
M  END
$$$$
