SME.pdb
     RDKit          3D

 24 23  0  0  1  0  0  0  0  0999 V2000
    9.2895  -18.6231   20.8759 O   0  0  0  0  0  0  0  0  0  0  0  0
    8.1489  -17.9071   20.6085 C   0  0  0  0  0  0  0  0  0  0  0  0
    8.3856  -16.4430   20.3907 C   0  0  2  0  0  0  0  0  0  0  0  0
    9.3085  -16.1362   19.3551 N   0  0  0  0  0  0  0  0  0  0  0  0
    8.8301  -15.7698   21.6463 C   0  0  0  0  0  0  0  0  0  0  0  0
   10.0607  -15.5862   21.8986 O   0  0  0  0  0  0  0  0  0  0  0  0
    6.6510  -11.4996   27.8892 C   0  0  0  0  0  0  0  0  0  0  0  0
    6.0534  -12.5182   26.5161 S   0  0  0  0  0  0  0  0  0  0  0  0
    7.4601  -13.3269   25.7127 C   0  0  0  0  0  0  0  0  0  0  0  0
    7.0121  -14.1525   24.5262 C   0  0  0  0  0  0  0  0  0  0  0  0
    8.2718  -14.7276   23.8911 C   0  0  2  0  0  0  0  0  0  0  0  0
    7.9021  -15.3044   22.6147 N   0  0  0  0  0  0  0  0  0  0  0  0
    8.8945  -15.7637   24.7796 C   0  0  0  0  0  0  0  0  0  0  0  0
    8.3064  -16.8453   24.9892 O   0  0  0  0  0  0  0  0  0  0  0  0
   10.1462  -15.5003   25.3720 N   0  0  0  0  0  0  0  0  0  0  0  0
   10.8747  -16.4998   26.1391 C   0  0  1  0  0  0  0  0  0  0  0  0
   12.3526  -16.2852   25.9654 C   0  0  0  0  0  0  0  0  0  0  0  0
   12.8098  -16.4247   24.5524 C   0  0  0  0  0  0  0  0  0  0  0  0
   14.2516  -16.1755   24.3522 C   0  0  0  0  0  0  0  0  0  0  0  0
   15.0516  -15.8716   25.2721 O   0  0  0  0  0  0  0  0  0  0  0  0
   10.5132  -16.3024   27.5884 C   0  0  0  0  0  0  0  0  0  0  0  0
   10.9378  -17.0682   28.4919 O   0  0  0  0  0  0  0  0  0  0  0  0
   14.7655  -16.2818   23.0677 O   0  0  0  0  0  0  0  0  0  0  0  0
    9.6917  -15.2567   27.9668 O   0  0  0  0  0  0  0  0  0  0  0  0
  2  3  1  0
  2  1  1  0
  3  4  1  6
  5  6  2  0
  5  3  1  0
  7  8  1  0
  8  9  1  0
  9 10  1  0
 11 10  1  1
 11 13  1  0
 11 12  1  0
 12  5  1  0
 13 15  1  0
 14 13  2  0
 15 16  1  0
 16 21  1  0
 16 17  1  1
 18 17  1  0
 19 18  1  0
 20 19  2  0
 21 22  2  0
 21 24  1  0
 23 19  1  0
M  END
$$$$
