SME.pdb
     RDKit          3D

 24 23  0  0  1  0  0  0  0  0999 V2000
    8.7244  -18.6634   20.2378 O   0  0  0  0  0  0  0  0  0  0  0  0
    7.6038  -17.8716   20.1905 C   0  0  0  0  0  0  0  0  0  0  0  0
    7.8943  -16.4167   19.9759 C   0  0  2  0  0  0  0  0  0  0  0  0
    8.7140  -16.1324   18.8509 N   0  0  0  0  0  0  0  0  0  0  0  0
    8.5090  -15.7990   21.1875 C   0  0  0  0  0  0  0  0  0  0  0  0
    9.7687  -15.7098   21.3180 O   0  0  0  0  0  0  0  0  0  0  0  0
    7.2880  -11.5574   27.7107 C   0  0  0  0  0  0  0  0  0  0  0  0
    6.4803  -12.4790   26.3771 S   0  0  0  0  0  0  0  0  0  0  0  0
    7.7317  -13.3772   25.4255 C   0  0  0  0  0  0  0  0  0  0  0  0
    7.1121  -14.0914   24.2439 C   0  0  0  0  0  0  0  0  0  0  0  0
    8.2530  -14.7612   23.4885 C   0  0  2  0  0  0  0  0  0  0  0  0
    7.7179  -15.2836   22.2478 N   0  0  0  0  0  0  0  0  0  0  0  0
    8.8639  -15.8609   24.3060 C   0  0  0  0  0  0  0  0  0  0  0  0
    8.2177  -16.9045   24.5357 O   0  0  0  0  0  0  0  0  0  0  0  0
   10.1708  -15.7001   24.8091 N   0  0  0  0  0  0  0  0  0  0  0  0
   10.8873  -16.7727   25.4832 C   0  0  1  0  0  0  0  0  0  0  0  0
   12.3678  -16.5471   25.3499 C   0  0  0  0  0  0  0  0  0  0  0  0
   12.8565  -16.6356   23.9433 C   0  0  0  0  0  0  0  0  0  0  0  0
   14.3069  -16.4047   23.7878 C   0  0  0  0  0  0  0  0  0  0  0  0
   15.0773  -17.1551   23.1381 O   0  0  0  0  0  0  0  0  0  0  0  0
   10.5077  -16.7176   26.9402 C   0  0  0  0  0  0  0  0  0  0  0  0
   10.9459  -17.5503   27.7754 O   0  0  0  0  0  0  0  0  0  0  0  0
   14.8642  -15.2884   24.3950 O   0  0  0  0  0  0  0  0  0  0  0  0
    9.6539  -15.7333   27.4024 O   0  0  0  0  0  0  0  0  0  0  0  0
  2  3  1  0
  2  1  1  0
  3  4  1  6
  5  6  2  0
  5  3  1  0
  7  8  1  0
  8  9  1  0
  9 10  1  0
 11 10  1  1
 11 13  1  0
 11 12  1  0
 12  5  1  0
 13 15  1  0
 14 13  2  0
 15 16  1  0
 16 21  1  0
 16 17  1  1
 18 17  1  0
 19 18  1  0
 20 19  2  0
 21 22  2  0
 21 24  1  0
 23 19  1  0
M  END
$$$$
