SME.pdb
     RDKit          3D

 24 23  0  0  1  0  0  0  0  0999 V2000
    6.6723  -20.5427   22.7087 O   0  0  0  0  0  0  0  0  0  0  0  0
    5.5058  -19.9548   23.1313 C   0  0  0  0  0  0  0  0  0  0  0  0
    5.1975  -18.6549   22.4515 C   0  0  2  0  0  0  0  0  0  0  0  0
    5.0481  -18.7408   21.0413 N   0  0  0  0  0  0  0  0  0  0  0  0
    6.2250  -17.6188   22.7643 C   0  0  0  0  0  0  0  0  0  0  0  0
    7.1758  -17.3664   21.9618 O   0  0  0  0  0  0  0  0  0  0  0  0
    6.4933  -11.2555   26.3880 C   0  0  0  0  0  0  0  0  0  0  0  0
    7.0117  -12.8482   27.0770 S   0  0  0  0  0  0  0  0  0  0  0  0
    7.5834  -13.9236   25.7373 C   0  0  0  0  0  0  0  0  0  0  0  0
    6.5982  -15.0421   25.4752 C   0  0  0  0  0  0  0  0  0  0  0  0
    7.1851  -15.8901   24.3540 C   0  0  2  0  0  0  0  0  0  0  0  0
    6.1889  -16.8689   23.9693 N   0  0  0  0  0  0  0  0  0  0  0  0
    8.4479  -16.5670   24.7991 C   0  0  0  0  0  0  0  0  0  0  0  0
    8.3939  -17.5637   25.5496 O   0  0  0  0  0  0  0  0  0  0  0  0
    9.6897  -16.0644   24.3609 N   0  0  0  0  0  0  0  0  0  0  0  0
   10.9389  -16.7849   24.5574 C   0  0  1  0  0  0  0  0  0  0  0  0
   12.0361  -16.1048   23.7866 C   0  0  0  0  0  0  0  0  0  0  0  0
   13.3697  -16.7503   23.9593 C   0  0  0  0  0  0  0  0  0  0  0  0
   14.4541  -16.1248   23.1758 C   0  0  0  0  0  0  0  0  0  0  0  0
   14.3054  -15.1164   22.4412 O   0  0  0  0  0  0  0  0  0  0  0  0
   11.2604  -16.7301   26.0284 C   0  0  0  0  0  0  0  0  0  0  0  0
   10.9277  -15.7530   26.7477 O   0  0  0  0  0  0  0  0  0  0  0  0
   15.7236  -16.6801   23.2495 O   0  0  0  0  0  0  0  0  0  0  0  0
   11.9407  -17.7706   26.6334 O   0  0  0  0  0  0  0  0  0  0  0  0
  2  3  1  0
  2  1  1  0
  3  4  1  6
  5  6  2  0
  5  3  1  0
  7  8  1  0
  8  9  1  0
  9 10  1  0
 11 10  1  1
 11 13  1  0
 11 12  1  0
 12  5  1  0
 13 15  1  0
 14 13  2  0
 15 16  1  0
 16 21  1  0
 16 17  1  6
 18 17  1  0
 19 18  1  0
 20 19  2  0
 21 22  2  0
 21 24  1  0
 23 19  1  0
M  END
$$$$
