SME.pdb
     RDKit          3D

 24 23  0  0  1  0  0  0  0  0999 V2000
    7.7602  -15.9452   19.6696 O   0  0  0  0  0  0  0  0  0  0  0  0
    6.6983  -15.0852   19.8020 C   0  0  0  0  0  0  0  0  0  0  0  0
    7.0766  -13.7214   20.2961 C   0  0  2  0  0  0  0  0  0  0  0  0
    7.7557  -12.9110   19.3472 N   0  0  0  0  0  0  0  0  0  0  0  0
    7.9002  -13.8007   21.5382 C   0  0  0  0  0  0  0  0  0  0  0  0
    9.1681  -13.7524   21.4956 O   0  0  0  0  0  0  0  0  0  0  0  0
    6.9905  -11.8077   27.9714 C   0  0  0  0  0  0  0  0  0  0  0  0
    5.8096  -11.7517   26.5993 S   0  0  0  0  0  0  0  0  0  0  0  0
    6.6248  -12.3134   25.0833 C   0  0  0  0  0  0  0  0  0  0  0  0
    7.0777  -13.7521   25.2064 C   0  0  0  0  0  0  0  0  0  0  0  0
    8.0517  -14.0049   24.0626 C   0  0  2  0  0  0  0  0  0  0  0  0
    7.3078  -13.9332   22.8216 N   0  0  0  0  0  0  0  0  0  0  0  0
    8.7119  -15.3443   24.2073 C   0  0  0  0  0  0  0  0  0  0  0  0
    8.1124  -16.3804   23.8514 O   0  0  0  0  0  0  0  0  0  0  0  0
   10.0114  -15.4165   24.7485 N   0  0  0  0  0  0  0  0  0  0  0  0
   10.8044  -16.6366   24.7198 C   0  0  1  0  0  0  0  0  0  0  0  0
   12.2044  -16.3138   24.2769 C   0  0  0  0  0  0  0  0  0  0  0  0
   13.1040  -17.5032   24.2418 C   0  0  0  0  0  0  0  0  0  0  0  0
   14.4874  -17.2071   23.8180 C   0  0  0  0  0  0  0  0  0  0  0  0
   15.3959  -18.0690   23.7153 O   0  0  0  0  0  0  0  0  0  0  0  0
   10.8427  -17.1784   26.1252 C   0  0  0  0  0  0  0  0  0  0  0  0
   10.6271  -16.4487   27.1272 O   0  0  0  0  0  0  0  0  0  0  0  0
   14.8146  -15.8941   23.5108 O   0  0  0  0  0  0  0  0  0  0  0  0
   11.1206  -18.5137   26.3512 O   0  0  0  0  0  0  0  0  0  0  0  0
  2  3  1  0
  2  1  1  0
  3  4  1  6
  5  6  2  0
  5  3  1  0
  7  8  1  0
  8  9  1  0
  9 10  1  0
 11 10  1  1
 11 13  1  0
 11 12  1  0
 12  5  1  0
 13 15  1  0
 14 13  2  0
 15 16  1  0
 16 21  1  0
 16 17  1  1
 18 17  1  0
 19 18  1  0
 20 19  2  0
 21 22  2  0
 21 24  1  0
 23 19  1  0
M  END
$$$$
