SME.pdb
     RDKit          3D

 24 23  0  0  1  0  0  0  0  0999 V2000
    7.9380  -18.3638   20.7680 O   0  0  0  0  0  0  0  0  0  0  0  0
    7.0824  -17.4370   20.2258 C   0  0  0  0  0  0  0  0  0  0  0  0
    7.7003  -16.0878   20.0142 C   0  0  2  0  0  0  0  0  0  0  0  0
    8.6687  -16.0320   18.9762 N   0  0  0  0  0  0  0  0  0  0  0  0
    8.3117  -15.5649   21.2712 C   0  0  0  0  0  0  0  0  0  0  0  0
    9.5702  -15.5485   21.4378 O   0  0  0  0  0  0  0  0  0  0  0  0
    7.0884  -11.5281   27.9231 C   0  0  0  0  0  0  0  0  0  0  0  0
    6.2741  -12.4090   26.5663 S   0  0  0  0  0  0  0  0  0  0  0  0
    7.5159  -13.3130   25.6075 C   0  0  0  0  0  0  0  0  0  0  0  0
    6.9111  -13.9132   24.3568 C   0  0  0  0  0  0  0  0  0  0  0  0
    8.0503  -14.5766   23.5933 C   0  0  2  0  0  0  0  0  0  0  0  0
    7.5187  -15.0628   22.3365 N   0  0  0  0  0  0  0  0  0  0  0  0
    8.6436  -15.7023   24.3879 C   0  0  0  0  0  0  0  0  0  0  0  0
    8.0517  -16.7996   24.4591 O   0  0  0  0  0  0  0  0  0  0  0  0
    9.8722  -15.5048   25.0501 N   0  0  0  0  0  0  0  0  0  0  0  0
   10.6939  -16.6099   25.5209 C   0  0  1  0  0  0  0  0  0  0  0  0
   12.1339  -16.3443   25.1795 C   0  0  0  0  0  0  0  0  0  0  0  0
   13.0641  -17.4023   25.6698 C   0  0  0  0  0  0  0  0  0  0  0  0
   14.4865  -17.1523   25.3609 C   0  0  0  0  0  0  0  0  0  0  0  0
   14.9054  -16.1660   24.7050 O   0  0  0  0  0  0  0  0  0  0  0  0
   10.5442  -16.6723   27.0189 C   0  0  0  0  0  0  0  0  0  0  0  0
   10.1528  -15.6838   27.6916 O   0  0  0  0  0  0  0  0  0  0  0  0
   15.4292  -18.0605   25.8213 O   0  0  0  0  0  0  0  0  0  0  0  0
   10.8385  -17.8378   27.7018 O   0  0  0  0  0  0  0  0  0  0  0  0
  2  3  1  0
  2  1  1  0
  3  4  1  6
  5  6  2  0
  5  3  1  0
  7  8  1  0
  8  9  1  0
  9 10  1  0
 11 10  1  1
 11 13  1  0
 11 12  1  0
 12  5  1  0
 13 15  1  0
 14 13  2  0
 15 16  1  0
 16 21  1  0
 16 17  1  1
 18 17  1  0
 19 18  1  0
 20 19  2  0
 21 22  2  0
 21 24  1  0
 23 19  1  0
M  END
$$$$
