SME.pdb
     RDKit          3D

 24 23  0  0  1  0  0  0  0  0999 V2000
    7.3691  -17.9978   20.9258 O   0  0  0  0  0  0  0  0  0  0  0  0
    6.4683  -17.0078   20.6204 C   0  0  0  0  0  0  0  0  0  0  0  0
    7.0945  -15.6673   20.3794 C   0  0  2  0  0  0  0  0  0  0  0  0
    7.8517  -15.5702   19.1812 N   0  0  0  0  0  0  0  0  0  0  0  0
    7.9543  -15.2530   21.5267 C   0  0  0  0  0  0  0  0  0  0  0  0
    9.2169  -15.3804   21.4873 O   0  0  0  0  0  0  0  0  0  0  0  0
    6.1957  -11.2672   26.6805 C   0  0  0  0  0  0  0  0  0  0  0  0
    7.0488  -12.6763   27.4336 S   0  0  0  0  0  0  0  0  0  0  0  0
    8.0371  -13.5219   26.1741 C   0  0  0  0  0  0  0  0  0  0  0  0
    7.2143  -13.8140   24.9381 C   0  0  0  0  0  0  0  0  0  0  0  0
    8.1515  -14.4700   23.9320 C   0  0  2  0  0  0  0  0  0  0  0  0
    7.4040  -14.6989   22.7124 N   0  0  0  0  0  0  0  0  0  0  0  0
    8.6957  -15.7607   24.4693 C   0  0  0  0  0  0  0  0  0  0  0  0
    7.9547  -16.7611   24.5673 O   0  0  0  0  0  0  0  0  0  0  0  0
   10.0482  -15.8278   24.8607 N   0  0  0  0  0  0  0  0  0  0  0  0
   10.6918  -17.0765   25.2411 C   0  0  1  0  0  0  0  0  0  0  0  0
   12.0244  -17.1830   24.5533 C   0  0  0  0  0  0  0  0  0  0  0  0
   12.9207  -16.0194   24.8139 C   0  0  0  0  0  0  0  0  0  0  0  0
   14.2251  -16.0901   24.1250 C   0  0  0  0  0  0  0  0  0  0  0  0
   15.3363  -15.9782   24.7006 O   0  0  0  0  0  0  0  0  0  0  0  0
   10.9066  -17.0331   26.7318 C   0  0  0  0  0  0  0  0  0  0  0  0
   10.6632  -16.0023   27.4108 O   0  0  0  0  0  0  0  0  0  0  0  0
   14.2340  -16.2933   22.7524 O   0  0  0  0  0  0  0  0  0  0  0  0
   11.3847  -18.1445   27.4008 O   0  0  0  0  0  0  0  0  0  0  0  0
  2  3  1  0
  2  1  1  0
  3  4  1  6
  5  6  2  0
  5  3  1  0
  7  8  1  0
  8  9  1  0
  9 10  1  0
 11 10  1  1
 11 13  1  0
 11 12  1  0
 12  5  1  0
 13 15  1  0
 14 13  2  0
 15 16  1  0
 16 21  1  0
 16 17  1  6
 18 17  1  0
 19 18  1  0
 20 19  2  0
 21 22  2  0
 21 24  1  0
 23 19  1  0
M  END
$$$$
