SME.pdb
     RDKit          3D

 24 23  0  0  1  0  0  0  0  0999 V2000
    8.3791  -18.4923   20.3804 O   0  0  0  0  0  0  0  0  0  0  0  0
    7.1649  -17.8539   20.3247 C   0  0  0  0  0  0  0  0  0  0  0  0
    7.2645  -16.3719   20.1221 C   0  0  2  0  0  0  0  0  0  0  0  0
    7.8778  -15.9771   18.9030 N   0  0  0  0  0  0  0  0  0  0  0  0
    7.9785  -15.7135   21.2552 C   0  0  0  0  0  0  0  0  0  0  0  0
    9.2336  -15.5242   21.2258 O   0  0  0  0  0  0  0  0  0  0  0  0
    7.2680  -11.4755   27.8579 C   0  0  0  0  0  0  0  0  0  0  0  0
    6.3667  -12.3969   26.5855 S   0  0  0  0  0  0  0  0  0  0  0  0
    7.5464  -13.2986   25.5492 C   0  0  0  0  0  0  0  0  0  0  0  0
    6.8452  -14.0036   24.4085 C   0  0  0  0  0  0  0  0  0  0  0  0
    7.9314  -14.6503   23.5584 C   0  0  2  0  0  0  0  0  0  0  0  0
    7.2916  -15.2690   22.4154 N   0  0  0  0  0  0  0  0  0  0  0  0
    8.6973  -15.6679   24.3513 C   0  0  0  0  0  0  0  0  0  0  0  0
    8.1448  -16.7291   24.7094 O   0  0  0  0  0  0  0  0  0  0  0  0
   10.0423  -15.4104   24.6852 N   0  0  0  0  0  0  0  0  0  0  0  0
   10.9660  -16.4636   25.0801 C   0  0  1  0  0  0  0  0  0  0  0  0
   12.3658  -16.0724   24.6953 C   0  0  0  0  0  0  0  0  0  0  0  0
   13.4002  -17.0444   25.1541 C   0  0  0  0  0  0  0  0  0  0  0  0
   14.7184  -16.8794   24.5090 C   0  0  0  0  0  0  0  0  0  0  0  0
   15.5490  -17.8085   24.3489 O   0  0  0  0  0  0  0  0  0  0  0  0
   10.8828  -16.5927   26.5789 C   0  0  0  0  0  0  0  0  0  0  0  0
   11.3531  -17.5871   27.1897 O   0  0  0  0  0  0  0  0  0  0  0  0
   15.0714  -15.6199   24.0462 O   0  0  0  0  0  0  0  0  0  0  0  0
   10.2771  -15.6042   27.3322 O   0  0  0  0  0  0  0  0  0  0  0  0
  2  3  1  0
  2  1  1  0
  3  4  1  6
  5  6  2  0
  5  3  1  0
  7  8  1  0
  8  9  1  0
  9 10  1  0
 11 10  1  1
 11 13  1  0
 11 12  1  0
 12  5  1  0
 13 15  1  0
 14 13  2  0
 15 16  1  0
 16 21  1  0
 16 17  1  1
 18 17  1  0
 19 18  1  0
 20 19  2  0
 21 22  2  0
 21 24  1  0
 23 19  1  0
M  END
$$$$
