SNW.pdb
     RDKit          3D

 29 30  0  0  1  0  0  0  0  0999 V2000
    9.1868  -17.3588   17.3373 O   0  0  0  0  0  0  0  0  0  0  0  0
   10.1448  -18.2277   17.8603 C   0  0  0  0  0  0  0  0  0  0  0  0
    9.9932  -18.1831   19.3652 C   0  0  2  0  0  0  0  0  0  0  0  0
    8.6572  -18.7250   19.6337 N   0  0  0  0  0  0  0  0  0  0  0  0
   10.1144  -16.7755   19.8935 C   0  0  0  0  0  0  0  0  0  0  0  0
   11.1903  -16.2059   19.7072 O   0  0  0  0  0  0  0  0  0  0  0  0
    8.2934  -12.5925   18.7680 N   0  0  0  0  0  0  0  0  0  0  0  0
    7.7598  -13.8080   19.3273 C   0  0  0  0  0  0  0  0  0  0  0  0
    7.3060  -14.6324   18.4926 O   0  0  0  0  0  0  0  0  0  0  0  0
    7.7582  -14.0360   20.7874 C   0  0  0  0  0  0  0  0  0  0  0  0
    8.9097  -14.8997   21.1835 C   0  0  2  0  0  0  0  0  0  0  0  0
    9.0368  -16.1818   20.5548 N   0  0  0  0  0  0  0  0  0  0  0  0
    9.2302  -14.9099   22.6007 C   0  0  0  0  0  0  0  0  0  0  0  0
    9.3235  -13.8061   23.2170 O   0  0  0  0  0  0  0  0  0  0  0  0
    9.4563  -16.0598   23.3854 N   0  0  0  0  0  0  0  0  0  0  0  0
    9.9838  -16.0147   24.7265 C   0  0  1  0  0  0  0  0  0  0  0  0
    9.0002  -16.4274   25.7855 C   0  0  0  0  0  0  0  0  0  0  0  0
    7.8175  -15.5197   25.7005 C   0  0  0  0  0  0  0  0  0  0  0  0
    6.5688  -15.8344   25.2147 C   0  0  0  0  0  0  0  0  0  0  0  0
    5.7647  -14.7350   25.3073 N   0  0  0  0  0  0  0  0  0  0  0  0
    6.4529  -13.7108   25.8403 C   0  0  0  0  0  0  0  0  0  0  0  0
    6.0994  -12.4039   26.1389 C   0  0  0  0  0  0  0  0  0  0  0  0
    7.0368  -11.5512   26.6964 C   0  0  0  0  0  0  0  0  0  0  0  0
    8.3078  -12.0206   26.9446 C   0  0  0  0  0  0  0  0  0  0  0  0
    8.6463  -13.3405   26.6376 C   0  0  0  0  0  0  0  0  0  0  0  0
    7.7324  -14.1956   26.0864 C   0  0  0  0  0  0  0  0  0  0  0  0
   11.2617  -16.7351   24.7760 C   0  0  0  0  0  0  0  0  0  0  0  0
   12.0709  -16.7937   25.9175 O   0  0  0  0  0  0  0  0  0  0  0  0
   11.6735  -17.3366   23.7584 O   0  0  0  0  0  0  0  0  0  0  0  0
  2  3  1  0
  2  1  1  0
  3  4  1  6
  5  3  1  0
  5  6  2  0
  7  8  1  0
  8  9  2  0
 10  8  1  0
 11 10  1  1
 11 12  1  0
 12  5  1  0
 13 11  1  0
 14 13  2  0
 15 13  1  0
 16 17  1  1
 16 15  1  0
 18 17  1  0
 19 18  2  0
 20 21  1  0
 20 19  1  0
 21 26  2  0
 22 21  1  0
 22 23  2  0
 23 24  1  0
 24 25  2  0
 26 18  1  0
 26 25  1  0
 27 16  1  0
 28 27  1  0
 29 27  2  0
M  END
$$$$
