SNW.pdb
     RDKit          3D

 29 30  0  0  1  0  0  0  0  0999 V2000
    5.9897  -20.8225   20.6623 O   0  0  0  0  0  0  0  0  0  0  0  0
    6.1094  -20.2995   21.9501 C   0  0  0  0  0  0  0  0  0  0  0  0
    7.5865  -20.0755   22.1901 C   0  0  2  0  0  0  0  0  0  0  0  0
    7.6802  -19.5607   23.5601 N   0  0  0  0  0  0  0  0  0  0  0  0
    8.1646  -19.0875   21.2078 C   0  0  0  0  0  0  0  0  0  0  0  0
    7.7595  -19.1607   20.0471 O   0  0  0  0  0  0  0  0  0  0  0  0
    7.2026  -13.6290   21.6342 N   0  0  0  0  0  0  0  0  0  0  0  0
    8.0982  -14.5832   21.0322 C   0  0  0  0  0  0  0  0  0  0  0  0
    9.0773  -14.0899   20.4157 O   0  0  0  0  0  0  0  0  0  0  0  0
    7.8508  -16.0355   21.1479 C   0  0  0  0  0  0  0  0  0  0  0  0
    9.0367  -16.7230   21.7394 C   0  0  2  0  0  0  0  0  0  0  0  0
    9.1095  -18.1507   21.6326 N   0  0  0  0  0  0  0  0  0  0  0  0
    9.4865  -16.2096   23.0221 C   0  0  0  0  0  0  0  0  0  0  0  0
   10.0653  -15.0825   23.0636 O   0  0  0  0  0  0  0  0  0  0  0  0
    9.3409  -16.8588   24.2657 N   0  0  0  0  0  0  0  0  0  0  0  0
   10.0431  -16.4560   25.4587 C   0  0  1  0  0  0  0  0  0  0  0  0
    9.1594  -16.2937   26.6638 C   0  0  0  0  0  0  0  0  0  0  0  0
    7.9323  -15.5536   26.2441 C   0  0  0  0  0  0  0  0  0  0  0  0
    6.7713  -16.0974   25.7433 C   0  0  0  0  0  0  0  0  0  0  0  0
    5.8858  -15.0922   25.4802 N   0  0  0  0  0  0  0  0  0  0  0  0
    6.4356  -13.9068   25.7953 C   0  0  0  0  0  0  0  0  0  0  0  0
    5.9589  -12.6071   25.7185 C   0  0  0  0  0  0  0  0  0  0  0  0
    6.7650  -11.5570   26.1234 C   0  0  0  0  0  0  0  0  0  0  0  0
    8.0304  -11.8256   26.5968 C   0  0  0  0  0  0  0  0  0  0  0  0
    8.4940  -13.1413   26.6674 C   0  0  0  0  0  0  0  0  0  0  0  0
    7.7106  -14.1900   26.2713 C   0  0  0  0  0  0  0  0  0  0  0  0
   11.1970  -17.3379   25.6708 C   0  0  0  0  0  0  0  0  0  0  0  0
   12.1611  -17.1221   26.6634 O   0  0  0  0  0  0  0  0  0  0  0  0
   11.3518  -18.3421   24.9398 O   0  0  0  0  0  0  0  0  0  0  0  0
  2  3  1  0
  2  1  1  0
  3  4  1  1
  5  3  1  0
  5  6  2  0
  7  8  1  0
  8  9  2  0
 10  8  1  0
 11 10  1  1
 11 12  1  0
 12  5  1  0
 13 11  1  0
 14 13  2  0
 15 13  1  0
 16 17  1  1
 16 15  1  0
 18 17  1  0
 19 18  2  0
 20 21  1  0
 20 19  1  0
 21 26  2  0
 22 21  1  0
 22 23  2  0
 23 24  1  0
 24 25  2  0
 26 18  1  0
 26 25  1  0
 27 16  1  0
 28 27  1  0
 29 27  2  0
M  END
$$$$
