SNW.pdb
     RDKit          3D

 29 30  0  0  1  0  0  0  0  0999 V2000
    5.4642  -18.0385   20.8751 O   0  0  0  0  0  0  0  0  0  0  0  0
    6.6163  -18.2604   21.6299 C   0  0  0  0  0  0  0  0  0  0  0  0
    7.6892  -17.3611   21.0555 C   0  0  2  0  0  0  0  0  0  0  0  0
    7.5911  -17.5251   19.6015 N   0  0  0  0  0  0  0  0  0  0  0  0
    9.0613  -17.7517   21.5454 C   0  0  0  0  0  0  0  0  0  0  0  0
    9.6298  -18.6566   20.9332 O   0  0  0  0  0  0  0  0  0  0  0  0
   12.6440  -14.8156   21.9185 N   0  0  0  0  0  0  0  0  0  0  0  0
   12.1406  -16.0807   21.4483 C   0  0  0  0  0  0  0  0  0  0  0  0
   11.7388  -16.0923   20.2565 O   0  0  0  0  0  0  0  0  0  0  0  0
   12.1095  -17.2629   22.3346 C   0  0  0  0  0  0  0  0  0  0  0  0
   10.9234  -17.2075   23.2395 C   0  0  2  0  0  0  0  0  0  0  0  0
    9.6253  -17.0952   22.6416 N   0  0  0  0  0  0  0  0  0  0  0  0
   11.0848  -16.4046   24.4398 C   0  0  0  0  0  0  0  0  0  0  0  0
   12.2552  -16.1235   24.8377 O   0  0  0  0  0  0  0  0  0  0  0  0
   10.0384  -15.8904   25.2333 N   0  0  0  0  0  0  0  0  0  0  0  0
    9.8912  -16.1799   26.6381 C   0  0  1  0  0  0  0  0  0  0  0  0
    8.4844  -16.5114   27.0507 C   0  0  0  0  0  0  0  0  0  0  0  0
    7.5585  -15.5887   26.3288 C   0  0  0  0  0  0  0  0  0  0  0  0
    6.5472  -15.9435   25.4653 C   0  0  0  0  0  0  0  0  0  0  0  0
    5.9302  -14.8127   25.0131 N   0  0  0  0  0  0  0  0  0  0  0  0
    6.5101  -13.7289   25.5572 C   0  0  0  0  0  0  0  0  0  0  0  0
    6.2601  -12.3716   25.4253 C   0  0  0  0  0  0  0  0  0  0  0  0
    7.0352  -11.4615   26.1235 C   0  0  0  0  0  0  0  0  0  0  0  0
    8.0440  -11.9249   26.9391 C   0  0  0  0  0  0  0  0  0  0  0  0
    8.2814  -13.2960   27.0601 C   0  0  0  0  0  0  0  0  0  0  0  0
    7.5251  -14.2083   26.3773 C   0  0  0  0  0  0  0  0  0  0  0  0
   10.8894  -17.1777   27.0411 C   0  0  0  0  0  0  0  0  0  0  0  0
   11.0601  -18.4055   26.3895 O   0  0  0  0  0  0  0  0  0  0  0  0
   11.6398  -16.9445   28.0155 O   0  0  0  0  0  0  0  0  0  0  0  0
  2  3  1  0
  2  1  1  0
  3  4  1  6
  5  3  1  0
  5  6  2  0
  7  8  1  0
  8  9  2  0
 10  8  1  0
 11 10  1  6
 11 12  1  0
 12  5  1  0
 13 11  1  0
 14 13  2  0
 15 13  1  0
 16 17  1  6
 16 15  1  0
 18 17  1  0
 19 18  2  0
 20 21  1  0
 20 19  1  0
 21 26  2  0
 22 21  1  0
 22 23  2  0
 23 24  1  0
 24 25  2  0
 26 18  1  0
 26 25  1  0
 27 16  1  0
 28 27  1  0
 29 27  2  0
M  END
$$$$
