SNW.pdb
     RDKit          3D

 29 30  0  0  1  0  0  0  0  0999 V2000
    9.5706  -13.2775   17.9198 O   0  0  0  0  0  0  0  0  0  0  0  0
    9.1154  -13.3630   19.2358 C   0  0  0  0  0  0  0  0  0  0  0  0
    7.9216  -14.2928   19.2206 C   0  0  2  0  0  0  0  0  0  0  0  0
    6.7528  -13.4164   19.0911 N   0  0  0  0  0  0  0  0  0  0  0  0
    7.8386  -15.1099   20.4857 C   0  0  0  0  0  0  0  0  0  0  0  0
    7.3951  -14.5402   21.4835 O   0  0  0  0  0  0  0  0  0  0  0  0
    5.7826  -18.3359   20.7830 N   0  0  0  0  0  0  0  0  0  0  0  0
    6.9385  -19.1601   20.5387 C   0  0  0  0  0  0  0  0  0  0  0  0
    6.7531  -20.1334   19.7638 O   0  0  0  0  0  0  0  0  0  0  0  0
    8.2370  -18.8556   21.1750 C   0  0  0  0  0  0  0  0  0  0  0  0
    8.3140  -17.4105   21.5417 C   0  0  2  0  0  0  0  0  0  0  0  0
    8.2530  -16.4437   20.4849 N   0  0  0  0  0  0  0  0  0  0  0  0
    9.2690  -17.0761   22.5846 C   0  0  0  0  0  0  0  0  0  0  0  0
   10.5030  -17.2765   22.3744 O   0  0  0  0  0  0  0  0  0  0  0  0
    8.9526  -16.5345   23.8478 N   0  0  0  0  0  0  0  0  0  0  0  0
    9.9320  -16.3027   24.8802 C   0  0  1  0  0  0  0  0  0  0  0  0
    9.8098  -14.9628   25.5502 C   0  0  0  0  0  0  0  0  0  0  0  0
    8.3595  -14.6195   25.6422 C   0  0  0  0  0  0  0  0  0  0  0  0
    7.2960  -15.4751   25.4649 C   0  0  0  0  0  0  0  0  0  0  0  0
    6.1327  -14.7803   25.6317 N   0  0  0  0  0  0  0  0  0  0  0  0
    6.4063  -13.4948   25.9133 C   0  0  0  0  0  0  0  0  0  0  0  0
    5.5924  -12.4012   26.1657 C   0  0  0  0  0  0  0  0  0  0  0  0
    6.1643  -11.1690   26.4328 C   0  0  0  0  0  0  0  0  0  0  0  0
    7.5369  -11.0537   26.4424 C   0  0  0  0  0  0  0  0  0  0  0  0
    8.3414  -12.1664   26.1861 C   0  0  0  0  0  0  0  0  0  0  0  0
    7.7925  -13.3906   25.9205 C   0  0  0  0  0  0  0  0  0  0  0  0
    9.9483  -17.4414   25.8063 C   0  0  0  0  0  0  0  0  0  0  0  0
    9.7601  -18.7686   25.4011 O   0  0  0  0  0  0  0  0  0  0  0  0
   10.1376  -17.2436   27.0278 O   0  0  0  0  0  0  0  0  0  0  0  0
  2  3  1  0
  2  1  1  0
  3  4  1  1
  5  3  1  0
  5  6  2  0
  7  8  1  0
  8  9  2  0
 10  8  1  0
 11 10  1  6
 11 12  1  0
 12  5  1  0
 13 11  1  0
 14 13  2  0
 15 13  1  0
 16 17  1  1
 16 15  1  0
 18 17  1  0
 19 18  2  0
 20 21  1  0
 20 19  1  0
 21 26  2  0
 22 21  1  0
 22 23  2  0
 23 24  1  0
 24 25  2  0
 26 18  1  0
 26 25  1  0
 27 16  1  0
 28 27  1  0
 29 27  2  0
M  END
$$$$
