SNW.pdb
     RDKit          3D

 29 30  0  0  1  0  0  0  0  0999 V2000
    6.8667  -17.0721   22.8434 O   0  0  0  0  0  0  0  0  0  0  0  0
    6.7944  -15.7918   22.2940 C   0  0  0  0  0  0  0  0  0  0  0  0
    7.6216  -15.8177   21.0272 C   0  0  2  0  0  0  0  0  0  0  0  0
    6.8904  -16.6959   20.1080 N   0  0  0  0  0  0  0  0  0  0  0  0
    9.0101  -16.3491   21.2820 C   0  0  0  0  0  0  0  0  0  0  0  0
    9.2159  -17.5252   20.9800 O   0  0  0  0  0  0  0  0  0  0  0  0
   14.7000  -14.6470   22.8597 N   0  0  0  0  0  0  0  0  0  0  0  0
   13.7369  -15.4918   22.2011 C   0  0  0  0  0  0  0  0  0  0  0  0
   14.0925  -16.6866   22.0335 O   0  0  0  0  0  0  0  0  0  0  0  0
   12.4312  -14.9568   21.7622 C   0  0  0  0  0  0  0  0  0  0  0  0
   11.3168  -15.7998   22.2878 C   0  0  2  0  0  0  0  0  0  0  0  0
    9.9868  -15.5168   21.8336 N   0  0  0  0  0  0  0  0  0  0  0  0
   11.3929  -16.1343   23.6998 C   0  0  0  0  0  0  0  0  0  0  0  0
   12.4659  -16.6320   24.1559 O   0  0  0  0  0  0  0  0  0  0  0  0
   10.3611  -15.9566   24.6448 N   0  0  0  0  0  0  0  0  0  0  0  0
   10.4512  -16.4042   26.0123 C   0  0  1  0  0  0  0  0  0  0  0  0
    9.9410  -15.4094   27.0170 C   0  0  0  0  0  0  0  0  0  0  0  0
    8.6027  -14.9310   26.5591 C   0  0  0  0  0  0  0  0  0  0  0  0
    7.6090  -15.6879   25.9809 C   0  0  0  0  0  0  0  0  0  0  0  0
    6.5401  -14.8845   25.7057 N   0  0  0  0  0  0  0  0  0  0  0  0
    6.8074  -13.6239   26.0880 C   0  0  0  0  0  0  0  0  0  0  0  0
    6.0657  -12.4539   26.0297 C   0  0  0  0  0  0  0  0  0  0  0  0
    6.6083  -11.2745   26.5105 C   0  0  0  0  0  0  0  0  0  0  0  0
    7.8800  -11.2870   27.0397 C   0  0  0  0  0  0  0  0  0  0  0  0
    8.6126  -12.4752   27.0906 C   0  0  0  0  0  0  0  0  0  0  0  0
    8.0915  -13.6487   26.6199 C   0  0  0  0  0  0  0  0  0  0  0  0
    9.8574  -17.7412   26.1316 C   0  0  0  0  0  0  0  0  0  0  0  0
    9.9022  -18.5037   27.3054 O   0  0  0  0  0  0  0  0  0  0  0  0
    9.2750  -18.2504   25.1474 O   0  0  0  0  0  0  0  0  0  0  0  0
  2  3  1  0
  2  1  1  0
  3  4  1  6
  5  3  1  0
  5  6  2  0
  7  8  1  0
  8  9  2  0
 10  8  1  0
 11 10  1  1
 11 12  1  0
 12  5  1  0
 13 11  1  0
 14 13  2  0
 15 13  1  0
 16 17  1  1
 16 15  1  0
 18 17  1  0
 19 18  2  0
 20 21  1  0
 20 19  1  0
 21 26  2  0
 22 21  1  0
 22 23  2  0
 23 24  1  0
 24 25  2  0
 26 18  1  0
 26 25  1  0
 27 16  1  0
 28 27  1  0
 29 27  2  0
M  END
$$$$
