SNW.pdb
     RDKit          3D

 29 30  0  0  1  0  0  0  0  0999 V2000
    9.9055  -12.5945   20.0907 O   0  0  0  0  0  0  0  0  0  0  0  0
    8.7792  -12.6493   19.2692 C   0  0  0  0  0  0  0  0  0  0  0  0
    8.7061  -14.0611   18.7296 C   0  0  2  0  0  0  0  0  0  0  0  0
    7.5189  -14.0831   17.8689 N   0  0  0  0  0  0  0  0  0  0  0  0
    8.5792  -15.0737   19.8403 C   0  0  0  0  0  0  0  0  0  0  0  0
    7.5847  -14.9818   20.5609 O   0  0  0  0  0  0  0  0  0  0  0  0
   10.7876  -17.1035   18.4943 N   0  0  0  0  0  0  0  0  0  0  0  0
   10.7786  -18.3323   19.2460 C   0  0  0  0  0  0  0  0  0  0  0  0
   11.1976  -19.3452   18.6292 O   0  0  0  0  0  0  0  0  0  0  0  0
   10.2993  -18.3647   20.6435 C   0  0  0  0  0  0  0  0  0  0  0  0
    9.7409  -17.0369   21.0361 C   0  0  2  0  0  0  0  0  0  0  0  0
    9.5614  -16.0522   20.0098 N   0  0  0  0  0  0  0  0  0  0  0  0
   10.2364  -16.4915   22.2884 C   0  0  0  0  0  0  0  0  0  0  0  0
   11.3244  -15.8409   22.2870 O   0  0  0  0  0  0  0  0  0  0  0  0
    9.6104  -16.6168   23.5460 N   0  0  0  0  0  0  0  0  0  0  0  0
   10.1904  -16.1317   24.7736 C   0  0  1  0  0  0  0  0  0  0  0  0
    9.8454  -14.7036   25.0912 C   0  0  0  0  0  0  0  0  0  0  0  0
    8.3904  -14.6391   25.4209 C   0  0  0  0  0  0  0  0  0  0  0  0
    7.4813  -15.6700   25.3484 C   0  0  0  0  0  0  0  0  0  0  0  0
    6.2546  -15.2099   25.7322 N   0  0  0  0  0  0  0  0  0  0  0  0
    6.3367  -13.9074   26.0536 C   0  0  0  0  0  0  0  0  0  0  0  0
    5.3921  -12.9940   26.4958 C   0  0  0  0  0  0  0  0  0  0  0  0
    5.7711  -11.6879   26.7548 C   0  0  0  0  0  0  0  0  0  0  0  0
    7.0854  -11.3203   26.5671 C   0  0  0  0  0  0  0  0  0  0  0  0
    8.0236  -12.2540   26.1212 C   0  0  0  0  0  0  0  0  0  0  0  0
    7.6657  -13.5480   25.8607 C   0  0  0  0  0  0  0  0  0  0  0  0
    9.9049  -17.0774   25.8591 C   0  0  0  0  0  0  0  0  0  0  0  0
   10.3986  -16.9296   27.1613 O   0  0  0  0  0  0  0  0  0  0  0  0
    9.1856  -18.0774   25.6363 O   0  0  0  0  0  0  0  0  0  0  0  0
  2  3  1  0
  2  1  1  0
  3  4  1  6
  5  3  1  0
  5  6  2  0
  7  8  1  0
  8  9  2  0
 10  8  1  0
 11 10  1  6
 11 12  1  0
 12  5  1  0
 13 11  1  0
 14 13  2  0
 15 13  1  0
 16 17  1  1
 16 15  1  0
 18 17  1  0
 19 18  2  0
 20 21  1  0
 20 19  1  0
 21 26  2  0
 22 21  1  0
 22 23  2  0
 23 24  1  0
 24 25  2  0
 26 18  1  0
 26 25  1  0
 27 16  1  0
 28 27  1  0
 29 27  2  0
M  END
$$$$
