SNW.pdb
     RDKit          3D

 29 30  0  0  1  0  0  0  0  0999 V2000
    6.4876  -17.9957   19.9703 O   0  0  0  0  0  0  0  0  0  0  0  0
    7.1756  -19.1120   20.4465 C   0  0  0  0  0  0  0  0  0  0  0  0
    7.9028  -18.6701   21.6978 C   0  0  2  0  0  0  0  0  0  0  0  0
    7.2232  -17.4427   22.1247 N   0  0  0  0  0  0  0  0  0  0  0  0
    9.3628  -18.4054   21.4267 C   0  0  0  0  0  0  0  0  0  0  0  0
    9.7626  -18.6315   20.2840 O   0  0  0  0  0  0  0  0  0  0  0  0
   10.8809  -15.8623   19.3964 N   0  0  0  0  0  0  0  0  0  0  0  0
   11.2515  -15.4786   20.7344 C   0  0  0  0  0  0  0  0  0  0  0  0
   12.4537  -15.1410   20.8856 O   0  0  0  0  0  0  0  0  0  0  0  0
   10.2615  -15.4957   21.8315 C   0  0  0  0  0  0  0  0  0  0  0  0
   10.5707  -16.5905   22.7983 C   0  0  2  0  0  0  0  0  0  0  0  0
   10.1877  -17.9267   22.4471 N   0  0  0  0  0  0  0  0  0  0  0  0
   10.3573  -16.2712   24.1997 C   0  0  0  0  0  0  0  0  0  0  0  0
   10.7355  -15.1429   24.6367 O   0  0  0  0  0  0  0  0  0  0  0  0
    9.7537  -17.1161   25.1540 N   0  0  0  0  0  0  0  0  0  0  0  0
    9.7061  -16.8156   26.5633 C   0  0  1  0  0  0  0  0  0  0  0  0
    8.3139  -16.6875   27.1153 C   0  0  0  0  0  0  0  0  0  0  0  0
    7.5397  -15.7794   26.2177 C   0  0  0  0  0  0  0  0  0  0  0  0
    6.7458  -16.1488   25.1558 C   0  0  0  0  0  0  0  0  0  0  0  0
    6.2102  -15.0282   24.5890 N   0  0  0  0  0  0  0  0  0  0  0  0
    6.6318  -13.9369   25.2509 C   0  0  0  0  0  0  0  0  0  0  0  0
    6.3802  -12.5847   25.0767 C   0  0  0  0  0  0  0  0  0  0  0  0
    6.9642  -11.6640   25.9300 C   0  0  0  0  0  0  0  0  0  0  0  0
    7.7874  -12.1121   26.9396 C   0  0  0  0  0  0  0  0  0  0  0  0
    8.0294  -13.4783   27.1003 C   0  0  0  0  0  0  0  0  0  0  0  0
    7.4605  -14.4008   26.2661 C   0  0  0  0  0  0  0  0  0  0  0  0
   10.5614  -17.7574   27.2955 C   0  0  0  0  0  0  0  0  0  0  0  0
   11.2243  -18.8308   26.6876 O   0  0  0  0  0  0  0  0  0  0  0  0
   10.7232  -17.6171   28.5288 O   0  0  0  0  0  0  0  0  0  0  0  0
  2  3  1  0
  2  1  1  0
  3  4  1  6
  5  3  1  0
  5  6  2  0
  7  8  1  0
  8  9  2  0
 10  8  1  0
 11 10  1  6
 11 12  1  0
 12  5  1  0
 13 11  1  0
 14 13  2  0
 15 13  1  0
 16 17  1  1
 16 15  1  0
 18 17  1  0
 19 18  2  0
 20 21  1  0
 20 19  1  0
 21 26  2  0
 22 21  1  0
 22 23  2  0
 23 24  1  0
 24 25  2  0
 26 18  1  0
 26 25  1  0
 27 16  1  0
 28 27  1  0
 29 27  2  0
M  END
$$$$
