QIS.pdb
     RDKit          3D

 24 23  0  0  1  0  0  0  0  0999 V2000
   27.6729  -27.5987  -16.4278 N   0  0  0  0  0  0  0  0  0  0  0  0
   27.7279  -27.2432  -17.8241 C   0  0  0  0  0  0  0  0  0  0  0  0
   27.4561  -28.0965  -18.7074 O   0  0  0  0  0  0  0  0  0  0  0  0
   28.1077  -25.8619  -18.1365 C   0  0  0  0  0  0  0  0  0  0  0  0
   28.2672  -25.0542  -16.8953 C   0  0  0  0  0  0  0  0  0  0  0  0
   28.6339  -23.6391  -17.2203 C   0  0  2  0  0  0  0  0  0  0  0  0
   30.0550  -23.4237  -17.2383 N   0  0  0  0  0  0  0  0  0  0  0  0
   27.9358  -22.7697  -16.2397 C   0  0  0  0  0  0  0  0  0  0  0  0
   28.2442  -22.9146  -15.0306 O   0  0  0  0  0  0  0  0  0  0  0  0
   28.4414  -17.8757  -16.4544 C   0  0  0  0  0  0  0  0  0  0  0  0
   28.1837  -19.3236  -15.9770 C   0  0  0  0  0  0  0  0  0  0  0  0
   26.7150  -19.5597  -15.9586 C   0  0  2  0  0  0  0  0  0  0  0  0
   25.9850  -18.4961  -15.1630 C   0  0  0  0  0  0  0  0  0  0  0  0
   26.3132  -20.9428  -15.5764 C   0  0  2  0  0  0  0  0  0  0  0  0
   26.9669  -21.8132  -16.5969 N   0  0  0  0  0  0  0  0  0  0  0  0
   24.8900  -21.2409  -15.5362 C   0  0  0  0  0  0  0  0  0  0  0  0
   24.2045  -21.1760  -16.5870 O   0  0  0  0  0  0  0  0  0  0  0  0
   20.9609  -22.4755  -12.9997 O   0  0  0  0  0  0  0  0  0  0  0  0
   22.3553  -22.3612  -12.9487 C   0  0  0  0  0  0  0  0  0  0  0  0
   22.7894  -21.7296  -14.2470 C   0  0  2  0  0  0  0  0  0  0  0  0
   24.2288  -21.6138  -14.3465 N   0  0  0  0  0  0  0  0  0  0  0  0
   22.1042  -20.4452  -14.4596 C   0  0  0  0  0  0  0  0  0  0  0  0
   22.5061  -19.3944  -13.9088 O   0  0  0  0  0  0  0  0  0  0  0  0
   20.9956  -20.3764  -15.2785 O   0  0  0  0  0  0  0  0  0  0  0  0
  1  2  1  0
  2  3  2  0
  4  5  1  0
  4  2  1  0
  5  6  1  0
  6  7  1  1
  8  9  2  0
  8  6  1  0
 11 10  1  0
 11 12  1  0
 12 14  1  0
 12 13  1  1
 14 15  1  6
 15  8  1  0
 16 14  1  0
 17 16  2  0
 18 19  1  0
 20 19  1  1
 20 21  1  0
 21 16  1  0
 22 20  1  0
 22 24  1  0
 23 22  2  0
M  END
$$$$
