QIS.pdb
     RDKit          3D

 24 23  0  0  1  0  0  0  0  0999 V2000
   19.7325  -16.7570  -15.8093 N   0  0  0  0  0  0  0  0  0  0  0  0
   20.4669  -17.3680  -16.8892 C   0  0  0  0  0  0  0  0  0  0  0  0
   20.0184  -18.3949  -17.4607 O   0  0  0  0  0  0  0  0  0  0  0  0
   21.7319  -16.7304  -17.2676 C   0  0  0  0  0  0  0  0  0  0  0  0
   22.0111  -15.5416  -16.4148 C   0  0  0  0  0  0  0  0  0  0  0  0
   22.2343  -14.3212  -17.2534 C   0  0  2  0  0  0  0  0  0  0  0  0
   23.1319  -14.5579  -18.3509 N   0  0  0  0  0  0  0  0  0  0  0  0
   22.7115  -13.2474  -16.3455 C   0  0  0  0  0  0  0  0  0  0  0  0
   22.0590  -13.0657  -15.2876 O   0  0  0  0  0  0  0  0  0  0  0  0
   27.9392  -12.2259  -15.7994 C   0  0  0  0  0  0  0  0  0  0  0  0
   26.4426  -12.4375  -15.4733 C   0  0  0  0  0  0  0  0  0  0  0  0
   25.6972  -11.2101  -15.8615 C   0  0  2  0  0  0  0  0  0  0  0  0
   26.2674   -9.9729  -15.1971 C   0  0  0  0  0  0  0  0  0  0  0  0
   24.2174  -11.3110  -15.7186 C   0  0  2  0  0  0  0  0  0  0  0  0
   23.8360  -12.4437  -16.6118 N   0  0  0  0  0  0  0  0  0  0  0  0
   23.4283  -10.1404  -16.0690 C   0  0  0  0  0  0  0  0  0  0  0  0
   23.1858   -9.8841  -17.2748 O   0  0  0  0  0  0  0  0  0  0  0  0
   19.9467   -7.5744  -16.3758 O   0  0  0  0  0  0  0  0  0  0  0  0
   20.7343   -8.6962  -16.0908 C   0  0  0  0  0  0  0  0  0  0  0  0
   21.9833   -8.1922  -15.4133 C   0  0  2  0  0  0  0  0  0  0  0  0
   22.9052   -9.2620  -15.0961 N   0  0  0  0  0  0  0  0  0  0  0  0
   21.6477   -7.3704  -14.2401 C   0  0  0  0  0  0  0  0  0  0  0  0
   21.8870   -7.7687  -13.0768 O   0  0  0  0  0  0  0  0  0  0  0  0
   21.0576   -6.1339  -14.4039 O   0  0  0  0  0  0  0  0  0  0  0  0
  1  2  1  0
  2  3  2  0
  4  5  1  0
  4  2  1  0
  5  6  1  0
  6  7  1  6
  8  9  2  0
  8  6  1  0
 11 10  1  0
 11 12  1  0
 12 14  1  0
 12 13  1  1
 14 15  1  6
 15  8  1  0
 16 14  1  0
 17 16  2  0
 18 19  1  0
 20 19  1  1
 20 21  1  0
 21 16  1  0
 22 20  1  0
 22 24  1  0
 23 22  2  0
M  END
$$$$
