QIS.pdb
     RDKit          3D

 24 23  0  0  1  0  0  0  0  0999 V2000
   22.6815  -15.6540  -18.7985 N   0  0  0  0  0  0  0  0  0  0  0  0
   21.4484  -15.4978  -19.5292 C   0  0  0  0  0  0  0  0  0  0  0  0
   21.1440  -16.3087  -20.4413 O   0  0  0  0  0  0  0  0  0  0  0  0
   20.5970  -14.3665  -19.1481 C   0  0  0  0  0  0  0  0  0  0  0  0
   21.2217  -13.5667  -18.0579 C   0  0  0  0  0  0  0  0  0  0  0  0
   21.4060  -12.1410  -18.4775 C   0  0  2  0  0  0  0  0  0  0  0  0
   22.2012  -12.0106  -19.6678 N   0  0  0  0  0  0  0  0  0  0  0  0
   21.9864  -11.4153  -17.3193 C   0  0  0  0  0  0  0  0  0  0  0  0
   21.3307  -11.4371  -16.2481 O   0  0  0  0  0  0  0  0  0  0  0  0
   27.0584  -11.8075  -16.1626 C   0  0  0  0  0  0  0  0  0  0  0  0
   25.5236  -11.6628  -16.0427 C   0  0  0  0  0  0  0  0  0  0  0  0
   25.1746  -10.2221  -16.1679 C   0  0  2  0  0  0  0  0  0  0  0  0
   25.9135   -9.3746  -15.1516 C   0  0  0  0  0  0  0  0  0  0  0  0
   23.7121   -9.9381  -16.2011 C   0  0  2  0  0  0  0  0  0  0  0  0
   23.2098  -10.7208  -17.3679 N   0  0  0  0  0  0  0  0  0  0  0  0
   23.3014   -8.5502  -16.3452 C   0  0  0  0  0  0  0  0  0  0  0  0
   23.5568   -7.9261  -17.4052 O   0  0  0  0  0  0  0  0  0  0  0  0
   20.5638   -4.9796  -16.2089 O   0  0  0  0  0  0  0  0  0  0  0  0
   20.8232   -6.3492  -16.0780 C   0  0  0  0  0  0  0  0  0  0  0  0
   22.1920   -6.4771  -15.4592 C   0  0  2  0  0  0  0  0  0  0  0  0
   22.6087   -7.8572  -15.3295 N   0  0  0  0  0  0  0  0  0  0  0  0
   22.2616   -5.7447  -14.1851 C   0  0  0  0  0  0  0  0  0  0  0  0
   22.2890   -6.3489  -13.0882 O   0  0  0  0  0  0  0  0  0  0  0  0
   22.2983   -4.3654  -14.1778 O   0  0  0  0  0  0  0  0  0  0  0  0
  1  2  1  0
  2  3  2  0
  4  5  1  0
  4  2  1  0
  5  6  1  0
  6  7  1  6
  8  9  2  0
  8  6  1  0
 11 10  1  0
 11 12  1  0
 12 14  1  0
 12 13  1  1
 14 15  1  6
 15  8  1  0
 16 14  1  0
 17 16  2  0
 18 19  1  0
 20 19  1  1
 20 21  1  0
 21 16  1  0
 22 20  1  0
 22 24  1  0
 23 22  2  0
M  END
$$$$
