QIS.pdb
     RDKit          3D

 24 23  0  0  1  0  0  0  0  0999 V2000
   18.7081   -9.0754  -20.3408 N   0  0  0  0  0  0  0  0  0  0  0  0
   18.8498  -10.3664  -20.9671 C   0  0  0  0  0  0  0  0  0  0  0  0
   18.1776  -10.6524  -21.9910 O   0  0  0  0  0  0  0  0  0  0  0  0
   19.8031  -11.2949  -20.3512 C   0  0  0  0  0  0  0  0  0  0  0  0
   20.5002  -10.6626  -19.1968 C   0  0  0  0  0  0  0  0  0  0  0  0
   21.4546  -11.6225  -18.5562 C   0  0  2  0  0  0  0  0  0  0  0  0
   20.8354  -12.8720  -18.2074 N   0  0  0  0  0  0  0  0  0  0  0  0
   22.0493  -10.9318  -17.3840 C   0  0  0  0  0  0  0  0  0  0  0  0
   21.5107  -11.1393  -16.2682 O   0  0  0  0  0  0  0  0  0  0  0  0
   26.8795  -11.4741  -15.9867 C   0  0  0  0  0  0  0  0  0  0  0  0
   25.3557  -11.2231  -16.0638 C   0  0  0  0  0  0  0  0  0  0  0  0
   25.1252   -9.7598  -16.2009 C   0  0  2  0  0  0  0  0  0  0  0  0
   25.9066   -8.9690  -15.1707 C   0  0  0  0  0  0  0  0  0  0  0  0
   23.6910   -9.3607  -16.2674 C   0  0  2  0  0  0  0  0  0  0  0  0
   23.1634  -10.0754  -17.4662 N   0  0  0  0  0  0  0  0  0  0  0  0
   23.3946   -7.9418  -16.3890 C   0  0  0  0  0  0  0  0  0  0  0  0
   23.7720   -7.3059  -17.4046 O   0  0  0  0  0  0  0  0  0  0  0  0
   20.0540   -6.3216  -15.2932 O   0  0  0  0  0  0  0  0  0  0  0  0
   20.9527   -5.6496  -16.1304 C   0  0  0  0  0  0  0  0  0  0  0  0
   22.3255   -5.8343  -15.5353 C   0  0  2  0  0  0  0  0  0  0  0  0
   22.6816   -7.2307  -15.4002 N   0  0  0  0  0  0  0  0  0  0  0  0
   22.4517   -5.0949  -14.2697 C   0  0  0  0  0  0  0  0  0  0  0  0
   22.2978   -3.8526  -14.2239 O   0  0  0  0  0  0  0  0  0  0  0  0
   22.7447   -5.7652  -13.0997 O   0  0  0  0  0  0  0  0  0  0  0  0
  1  2  1  0
  2  3  2  0
  4  5  1  0
  4  2  1  0
  5  6  1  0
  6  7  1  1
  8  9  2  0
  8  6  1  0
 11 10  1  0
 11 12  1  0
 12 14  1  0
 12 13  1  1
 14 15  1  6
 15  8  1  0
 16 14  1  0
 17 16  2  0
 18 19  1  0
 20 19  1  1
 20 21  1  0
 21 16  1  0
 22 20  1  0
 22 24  1  0
 23 22  2  0
M  END
$$$$
