MYC.pdb
     RDKit          3D

 27 27  0  0  1  0  0  0  0  0999 V2000
    9.0994  -16.0050   29.0577 C   0  0  0  0  0  0  0  0  0  0  0  0
    8.7955  -17.6835   29.6735 S   0  0  0  0  0  0  0  0  0  0  0  0
    7.6850  -18.5002   28.5172 C   0  0  0  0  0  0  0  0  0  0  0  0
    8.1241  -18.3536   27.1178 C   0  0  0  0  0  0  0  0  0  0  0  0
    7.2605  -18.8055   26.0151 C   0  0  2  0  0  0  0  0  0  0  0  0
    7.3162  -20.2906   26.0526 N   0  0  0  0  0  0  0  0  0  0  0  0
    7.5282  -18.3830   24.6577 C   0  0  0  0  0  0  0  0  0  0  0  0
    8.1186  -19.0387   23.7520 O   0  0  0  0  0  0  0  0  0  0  0  0
    8.2330  -12.3858   18.0454 O   0  0  0  0  0  0  0  0  0  0  0  0
    7.8733  -13.0616   19.2220 C   0  0  0  0  0  0  0  0  0  0  0  0
    7.4124  -14.3536   19.1616 C   0  0  0  0  0  0  0  0  0  0  0  0
    7.0537  -15.0295   20.3284 C   0  0  0  0  0  0  0  0  0  0  0  0
    7.1487  -14.4310   21.5650 C   0  0  0  0  0  0  0  0  0  0  0  0
    6.7778  -15.1617   22.7664 C   0  0  0  0  0  0  0  0  0  0  0  0
    7.5583  -16.4209   23.0419 C   0  0  2  0  0  0  0  0  0  0  0  0
    7.0950  -17.0715   24.2387 N   0  0  0  0  0  0  0  0  0  0  0  0
    8.9605  -15.9658   23.2835 C   0  0  0  0  0  0  0  0  0  0  0  0
    9.1747  -15.1687   24.2143 O   0  0  0  0  0  0  0  0  0  0  0  0
    7.6116  -13.1361   21.6127 C   0  0  0  0  0  0  0  0  0  0  0  0
    7.9734  -12.4505   20.4495 C   0  0  0  0  0  0  0  0  0  0  0  0
   10.0466  -16.4096   22.4920 N   0  0  0  0  0  0  0  0  0  0  0  0
   11.4027  -15.9882   22.7776 C   0  0  1  0  0  0  0  0  0  0  0  0
   11.8618  -16.4527   24.1373 C   0  0  0  0  0  0  0  0  0  0  0  0
   11.4140  -18.1732   24.4155 S   0  0  0  0  0  0  0  0  0  0  0  0
   12.3189  -16.4568   21.7231 C   0  0  0  0  0  0  0  0  0  0  0  0
   13.6458  -16.0731   21.7186 O   0  0  0  0  0  0  0  0  0  0  0  0
   11.9171  -17.2161   20.8024 O   0  0  0  0  0  0  0  0  0  0  0  0
  2  1  1  0
  3  2  1  0
  4  3  1  0
  4  5  1  0
  5  7  1  0
  5  6  1  6
  7  8  2  0
  9 10  1  0
 10 11  2  0
 10 20  1  0
 11 12  1  0
 12 13  2  0
 13 14  1  0
 15 14  1  1
 16 15  1  0
 16  7  1  0
 17 18  2  0
 17 15  1  0
 19 13  1  0
 20 19  2  0
 21 17  1  0
 22 25  1  0
 22 21  1  0
 22 23  1  1
 24 23  1  0
 25 26  1  0
 27 25  2  0
M  END
$$$$
