MYC.pdb
     RDKit          3D

 27 27  0  0  1  0  0  0  0  0999 V2000
    8.3354  -11.7227   19.4817 C   0  0  0  0  0  0  0  0  0  0  0  0
    7.8332  -13.1072   18.4234 S   0  0  0  0  0  0  0  0  0  0  0  0
    7.6824  -14.5673   19.4638 C   0  0  0  0  0  0  0  0  0  0  0  0
    7.7518  -14.2434   20.9000 C   0  0  0  0  0  0  0  0  0  0  0  0
    8.0141  -15.3004   21.8899 C   0  0  2  0  0  0  0  0  0  0  0  0
    6.7392  -16.0557   22.0089 N   0  0  0  0  0  0  0  0  0  0  0  0
    8.4561  -14.9579   23.2241 C   0  0  0  0  0  0  0  0  0  0  0  0
    8.1262  -13.9453   23.9058 O   0  0  0  0  0  0  0  0  0  0  0  0
    5.5060  -11.1542   26.9591 O   0  0  0  0  0  0  0  0  0  0  0  0
    6.2953  -12.3004   26.7755 C   0  0  0  0  0  0  0  0  0  0  0  0
    7.6519  -12.2434   26.9798 C   0  0  0  0  0  0  0  0  0  0  0  0
    8.4406  -13.3801   26.7986 C   0  0  0  0  0  0  0  0  0  0  0  0
    7.8918  -14.5830   26.4136 C   0  0  0  0  0  0  0  0  0  0  0  0
    8.7355  -15.7550   26.2417 C   0  0  0  0  0  0  0  0  0  0  0  0
    9.8537  -15.6236   25.2403 C   0  0  2  0  0  0  0  0  0  0  0  0
    9.3810  -15.8373   23.8982 N   0  0  0  0  0  0  0  0  0  0  0  0
   10.8047  -16.7273   25.5703 C   0  0  0  0  0  0  0  0  0  0  0  0
   10.6156  -17.3840   26.6098 O   0  0  0  0  0  0  0  0  0  0  0  0
    6.5315  -14.6276   26.2117 C   0  0  0  0  0  0  0  0  0  0  0  0
    5.7328  -13.4945   26.3905 C   0  0  0  0  0  0  0  0  0  0  0  0
   11.9075  -17.0481   24.7432 N   0  0  0  0  0  0  0  0  0  0  0  0
   12.2392  -18.4246   24.4379 C   0  0  1  0  0  0  0  0  0  0  0  0
   11.0761  -19.1600   23.8198 C   0  0  0  0  0  0  0  0  0  0  0  0
   10.2173  -20.1557   25.0484 S   0  0  0  0  0  0  0  0  0  0  0  0
   13.4253  -18.4858   23.5659 C   0  0  0  0  0  0  0  0  0  0  0  0
   14.3254  -19.5283   23.6699 O   0  0  0  0  0  0  0  0  0  0  0  0
   13.6478  -17.5925   22.7067 O   0  0  0  0  0  0  0  0  0  0  0  0
  2  1  1  0
  3  2  1  0
  4  3  1  0
  4  5  1  0
  5  7  1  0
  5  6  1  1
  7  8  2  0
  9 10  1  0
 10 11  2  0
 10 20  1  0
 11 12  1  0
 12 13  2  0
 13 14  1  0
 15 14  1  1
 16 15  1  0
 16  7  1  0
 17 18  2  0
 17 15  1  0
 19 13  1  0
 20 19  2  0
 21 17  1  0
 22 25  1  0
 22 21  1  0
 22 23  1  6
 24 23  1  0
 25 26  1  0
 27 25  2  0
M  END
$$$$
