MYC.pdb
     RDKit          3D

 27 27  0  0  1  0  0  0  0  0999 V2000
    7.7315  -12.2165   19.5379 C   0  0  0  0  0  0  0  0  0  0  0  0
    7.8061  -13.2904   18.0784 S   0  0  0  0  0  0  0  0  0  0  0  0
    8.0257  -14.9817   18.6516 C   0  0  0  0  0  0  0  0  0  0  0  0
    7.7672  -15.1235   20.0957 C   0  0  0  0  0  0  0  0  0  0  0  0
    7.9485  -16.4240   20.7605 C   0  0  2  0  0  0  0  0  0  0  0  0
    6.9551  -17.3323   20.1295 N   0  0  0  0  0  0  0  0  0  0  0  0
    7.8074  -16.5363   22.1958 C   0  0  0  0  0  0  0  0  0  0  0  0
    6.7560  -16.8044   22.8451 O   0  0  0  0  0  0  0  0  0  0  0  0
   10.5143  -16.2835   30.7271 O   0  0  0  0  0  0  0  0  0  0  0  0
   10.4650  -16.3082   29.3244 C   0  0  0  0  0  0  0  0  0  0  0  0
   10.1035  -17.4584   28.6674 C   0  0  0  0  0  0  0  0  0  0  0  0
   10.0530  -17.4879   27.2733 C   0  0  0  0  0  0  0  0  0  0  0  0
   10.3600  -16.3778   26.5184 C   0  0  0  0  0  0  0  0  0  0  0  0
   10.2894  -16.4329   25.0669 C   0  0  0  0  0  0  0  0  0  0  0  0
    8.9196  -16.2561   24.4643 C   0  0  2  0  0  0  0  0  0  0  0  0
    8.9677  -16.3256   23.0279 N   0  0  0  0  0  0  0  0  0  0  0  0
    8.5036  -14.8716   24.8405 C   0  0  0  0  0  0  0  0  0  0  0  0
    9.0790  -13.9104   24.2998 O   0  0  0  0  0  0  0  0  0  0  0  0
   10.7210  -15.2313   27.1880 C   0  0  0  0  0  0  0  0  0  0  0  0
   10.7747  -15.1917   28.5843 C   0  0  0  0  0  0  0  0  0  0  0  0
    7.4818  -14.6198   25.7869 N   0  0  0  0  0  0  0  0  0  0  0  0
    7.1354  -13.2674   26.1730 C   0  0  1  0  0  0  0  0  0  0  0  0
    5.7572  -13.1914   26.7817 C   0  0  0  0  0  0  0  0  0  0  0  0
    5.4141  -11.5347   27.3945 S   0  0  0  0  0  0  0  0  0  0  0  0
    8.1487  -12.7201   27.0919 C   0  0  0  0  0  0  0  0  0  0  0  0
    8.8009  -13.5389   27.9930 O   0  0  0  0  0  0  0  0  0  0  0  0
    8.4450  -11.4963   27.0794 O   0  0  0  0  0  0  0  0  0  0  0  0
  2  1  1  0
  3  2  1  0
  4  3  1  0
  4  5  1  0
  5  7  1  0
  5  6  1  6
  7  8  2  0
  9 10  1  0
 10 11  2  0
 10 20  1  0
 11 12  1  0
 12 13  2  0
 13 14  1  0
 15 14  1  1
 16 15  1  0
 16  7  1  0
 17 18  2  0
 17 15  1  0
 19 13  1  0
 20 19  2  0
 21 17  1  0
 22 25  1  0
 22 21  1  0
 22 23  1  1
 24 23  1  0
 25 26  1  0
 27 25  2  0
M  END
$$$$
