MYC.pdb
     RDKit          3D

 27 27  0  0  1  0  0  0  0  0999 V2000
    8.1205  -13.5241   16.5485 C   0  0  0  0  0  0  0  0  0  0  0  0
    6.7305  -13.8847   17.6561 S   0  0  0  0  0  0  0  0  0  0  0  0
    7.0351  -15.4867   18.4163 C   0  0  0  0  0  0  0  0  0  0  0  0
    8.0031  -15.4075   19.5250 C   0  0  0  0  0  0  0  0  0  0  0  0
    7.7412  -14.5356   20.6814 C   0  0  2  0  0  0  0  0  0  0  0  0
    7.6984  -13.1544   20.1333 N   0  0  0  0  0  0  0  0  0  0  0  0
    8.6388  -14.5380   21.8158 C   0  0  0  0  0  0  0  0  0  0  0  0
    9.8741  -14.2678   21.8178 O   0  0  0  0  0  0  0  0  0  0  0  0
   10.7434  -14.9317   30.5153 O   0  0  0  0  0  0  0  0  0  0  0  0
   10.0691  -14.8801   29.2852 C   0  0  0  0  0  0  0  0  0  0  0  0
   10.0725  -13.7235   28.5451 C   0  0  0  0  0  0  0  0  0  0  0  0
    9.4038  -13.6674   27.3217 C   0  0  0  0  0  0  0  0  0  0  0  0
    8.7263  -14.7568   26.8211 C   0  0  0  0  0  0  0  0  0  0  0  0
    8.0461  -14.6743   25.5384 C   0  0  0  0  0  0  0  0  0  0  0  0
    8.9055  -14.8887   24.3193 C   0  0  2  0  0  0  0  0  0  0  0  0
    8.1163  -14.8832   23.1162 N   0  0  0  0  0  0  0  0  0  0  0  0
    9.4794  -16.2582   24.4824 C   0  0  0  0  0  0  0  0  0  0  0  0
    8.7007  -17.2270   24.5318 O   0  0  0  0  0  0  0  0  0  0  0  0
    8.7299  -15.9099   27.5719 C   0  0  0  0  0  0  0  0  0  0  0  0
    9.3966  -15.9762   28.7987 C   0  0  0  0  0  0  0  0  0  0  0  0
   10.8724  -16.4874   24.5821 N   0  0  0  0  0  0  0  0  0  0  0  0
   11.4050  -17.8307   24.6828 C   0  0  1  0  0  0  0  0  0  0  0  0
   12.5320  -18.0640   23.7077 C   0  0  0  0  0  0  0  0  0  0  0  0
   12.1269  -17.4014   22.0844 S   0  0  0  0  0  0  0  0  0  0  0  0
   11.8362  -18.1099   26.0638 C   0  0  0  0  0  0  0  0  0  0  0  0
   12.4275  -19.3151   26.3892 O   0  0  0  0  0  0  0  0  0  0  0  0
   11.6772  -17.2601   26.9793 O   0  0  0  0  0  0  0  0  0  0  0  0
  2  1  1  0
  3  2  1  0
  4  3  1  0
  4  5  1  0
  5  7  1  0
  5  6  1  6
  7  8  2  0
  9 10  1  0
 10 11  2  0
 10 20  1  0
 11 12  1  0
 12 13  2  0
 13 14  1  0
 15 14  1  1
 16 15  1  0
 16  7  1  0
 17 18  2  0
 17 15  1  0
 19 13  1  0
 20 19  2  0
 21 17  1  0
 22 25  1  0
 22 21  1  0
 22 23  1  6
 24 23  1  0
 25 26  1  0
 27 25  2  0
M  END
$$$$
