MYC.pdb
     RDKit          3D

 27 27  0  0  1  0  0  0  0  0999 V2000
    4.6282  -17.9533   17.6147 C   0  0  0  0  0  0  0  0  0  0  0  0
    5.8112  -17.7972   18.9804 S   0  0  0  0  0  0  0  0  0  0  0  0
    6.8923  -16.4064   18.6144 C   0  0  0  0  0  0  0  0  0  0  0  0
    7.8529  -16.1405   19.7002 C   0  0  0  0  0  0  0  0  0  0  0  0
    7.8179  -14.8624   20.4291 C   0  0  2  0  0  0  0  0  0  0  0  0
    8.1440  -13.8220   19.4185 N   0  0  0  0  0  0  0  0  0  0  0  0
    8.6727  -14.6528   21.5771 C   0  0  0  0  0  0  0  0  0  0  0  0
    9.9159  -14.4216   21.5765 O   0  0  0  0  0  0  0  0  0  0  0  0
   10.4833  -15.0738   30.3730 O   0  0  0  0  0  0  0  0  0  0  0  0
    9.8710  -14.9189   29.1194 C   0  0  0  0  0  0  0  0  0  0  0  0
    9.2505  -15.9862   28.5184 C   0  0  0  0  0  0  0  0  0  0  0  0
    8.6404  -15.8371   27.2725 C   0  0  0  0  0  0  0  0  0  0  0  0
    8.6397  -14.6290   26.6114 C   0  0  0  0  0  0  0  0  0  0  0  0
    7.9875  -14.4985   25.3182 C   0  0  0  0  0  0  0  0  0  0  0  0
    8.8630  -14.7163   24.1112 C   0  0  2  0  0  0  0  0  0  0  0  0
    8.0910  -14.7055   22.8970 N   0  0  0  0  0  0  0  0  0  0  0  0
    9.4272  -16.0889   24.2810 C   0  0  0  0  0  0  0  0  0  0  0  0
    8.6807  -17.0660   24.0924 O   0  0  0  0  0  0  0  0  0  0  0  0
    9.2647  -13.5670   27.2235 C   0  0  0  0  0  0  0  0  0  0  0  0
    9.8788  -13.7062   28.4715 C   0  0  0  0  0  0  0  0  0  0  0  0
   10.7759  -16.3122   24.6474 N   0  0  0  0  0  0  0  0  0  0  0  0
   11.3154  -17.6535   24.7371 C   0  0  1  0  0  0  0  0  0  0  0  0
   12.2494  -17.9621   23.5935 C   0  0  0  0  0  0  0  0  0  0  0  0
   13.0383  -19.5635   23.8202 S   0  0  0  0  0  0  0  0  0  0  0  0
   11.9861  -17.8515   26.0340 C   0  0  0  0  0  0  0  0  0  0  0  0
   12.2847  -19.1214   26.4881 O   0  0  0  0  0  0  0  0  0  0  0  0
   12.3030  -16.8718   26.7588 O   0  0  0  0  0  0  0  0  0  0  0  0
  2  1  1  0
  3  2  1  0
  4  3  1  0
  4  5  1  0
  5  7  1  0
  5  6  1  6
  7  8  2  0
  9 10  1  0
 10 11  2  0
 10 20  1  0
 11 12  1  0
 12 13  2  0
 13 14  1  0
 15 14  1  1
 16 15  1  0
 16  7  1  0
 17 18  2  0
 17 15  1  0
 19 13  1  0
 20 19  2  0
 21 17  1  0
 22 25  1  0
 22 21  1  0
 22 23  1  6
 24 23  1  0
 25 26  1  0
 27 25  2  0
M  END
$$$$
