MYC.pdb
     RDKit          3D

 27 27  0  0  1  0  0  0  0  0999 V2000
    8.5476  -11.6775   19.4212 C   0  0  0  0  0  0  0  0  0  0  0  0
    7.2868  -12.8900   18.9421 S   0  0  0  0  0  0  0  0  0  0  0  0
    7.8526  -14.5116   19.4780 C   0  0  0  0  0  0  0  0  0  0  0  0
    8.7236  -14.4389   20.6648 C   0  0  0  0  0  0  0  0  0  0  0  0
    9.2681  -15.6672   21.2654 C   0  0  2  0  0  0  0  0  0  0  0  0
    8.1949  -16.6860   21.1233 N   0  0  0  0  0  0  0  0  0  0  0  0
    9.7092  -15.6730   22.6431 C   0  0  0  0  0  0  0  0  0  0  0  0
   10.7534  -15.1400   23.1170 O   0  0  0  0  0  0  0  0  0  0  0  0
    6.3903  -10.6668   26.8301 O   0  0  0  0  0  0  0  0  0  0  0  0
    6.7636  -11.9959   26.5763 C   0  0  0  0  0  0  0  0  0  0  0  0
    5.8065  -12.9771   26.4936 C   0  0  0  0  0  0  0  0  0  0  0  0
    6.1726  -14.2996   26.2413 C   0  0  0  0  0  0  0  0  0  0  0  0
    7.4901  -14.6613   26.0686 C   0  0  0  0  0  0  0  0  0  0  0  0
    7.8433  -16.0456   25.7967 C   0  0  0  0  0  0  0  0  0  0  0  0
    9.1321  -16.2641   25.0471 C   0  0  2  0  0  0  0  0  0  0  0  0
    8.9034  -16.3522   23.6293 N   0  0  0  0  0  0  0  0  0  0  0  0
    9.6334  -17.5923   25.5118 C   0  0  0  0  0  0  0  0  0  0  0  0
    8.8804  -18.5780   25.4177 O   0  0  0  0  0  0  0  0  0  0  0  0
    8.4400  -13.6695   26.1540 C   0  0  0  0  0  0  0  0  0  0  0  0
    8.0834  -12.3417   26.4065 C   0  0  0  0  0  0  0  0  0  0  0  0
   10.9299  -17.7643   26.0527 N   0  0  0  0  0  0  0  0  0  0  0  0
   11.3928  -19.0656   26.4892 C   0  0  1  0  0  0  0  0  0  0  0  0
   12.8231  -19.3196   26.0830 C   0  0  0  0  0  0  0  0  0  0  0  0
   13.1446  -18.6893   24.4284 S   0  0  0  0  0  0  0  0  0  0  0  0
   11.2250  -19.2083   27.9460 C   0  0  0  0  0  0  0  0  0  0  0  0
   10.6739  -18.1883   28.6968 O   0  0  0  0  0  0  0  0  0  0  0  0
   11.5784  -20.2599   28.5417 O   0  0  0  0  0  0  0  0  0  0  0  0
  2  1  1  0
  3  2  1  0
  4  3  1  0
  4  5  1  0
  5  7  1  0
  5  6  1  1
  7  8  2  0
  9 10  1  0
 10 11  2  0
 10 20  1  0
 11 12  1  0
 12 13  2  0
 13 14  1  0
 15 14  1  1
 16 15  1  0
 16  7  1  0
 17 18  2  0
 17 15  1  0
 19 13  1  0
 20 19  2  0
 21 17  1  0
 22 25  1  0
 22 21  1  0
 22 23  1  1
 24 23  1  0
 25 26  1  0
 27 25  2  0
M  END
$$$$
