CRE.pdb
     RDKit          3D

 27 26  0  0  1  0  0  0  0  0999 V2000
    7.4821  -16.8836   28.5812 N   0  0  0  0  0  0  0  0  0  0  0  0
    7.6748  -15.7915   27.6789 C   0  0  1  0  0  0  0  0  0  0  0  0
    8.7720  -14.8500   28.1328 C   0  0  0  0  0  0  0  0  0  0  0  0
    8.6330  -13.2588   27.2849 S   0  0  0  0  0  0  0  0  0  0  0  0
    8.0576  -16.3025   26.3451 C   0  0  0  0  0  0  0  0  0  0  0  0
    8.7955  -17.2966   26.2613 O   0  0  0  0  0  0  0  0  0  0  0  0
    6.9240  -12.2581   19.5482 N   0  0  0  0  0  0  0  0  0  0  0  0
    7.8043  -13.1502   18.8673 C   0  0  0  0  0  0  0  0  0  0  0  0
    8.4407  -12.7337   17.8269 N   0  0  0  0  0  0  0  0  0  0  0  0
    7.9893  -14.4713   19.3096 N   0  0  0  0  0  0  0  0  0  0  0  0
    7.0825  -14.9834   20.3156 C   0  0  0  0  0  0  0  0  0  0  0  0
    7.8221  -15.7858   21.3830 C   0  0  0  0  0  0  0  0  0  0  0  0
    7.4251  -15.3338   22.7441 C   0  0  0  0  0  0  0  0  0  0  0  0
    8.0855  -16.0645   23.8588 C   0  0  2  0  0  0  0  0  0  0  0  0
    7.6068  -15.6902   25.1516 N   0  0  0  0  0  0  0  0  0  0  0  0
    9.5821  -15.9300   23.8146 C   0  0  0  0  0  0  0  0  0  0  0  0
   10.1774  -14.8960   24.2079 O   0  0  0  0  0  0  0  0  0  0  0  0
    9.0358  -13.3692   17.2733 N   0  0  0  0  0  0  0  0  0  0  0  0
   10.3999  -16.9759   23.3213 C   0  0  2  0  0  0  0  0  0  0  0  0
   11.8631  -16.8907   23.2883 C   0  0  0  0  0  0  0  0  0  0  0  0
   12.4843  -17.9340   24.1500 C   0  0  0  0  0  0  0  0  0  0  0  0
   13.9766  -18.0509   24.0519 C   0  0  0  0  0  0  0  0  0  0  0  0
   14.4827  -19.1101   25.0043 O   0  0  0  0  0  0  0  0  0  0  0  0
   13.7153  -19.6118   25.8514 C   0  0  0  0  0  0  0  0  0  0  0  0
   12.3406  -16.9521   21.8974 O   0  0  0  0  0  0  0  0  0  0  0  0
   11.5356  -17.6198   20.9469 O   0  0  0  0  0  0  0  0  0  0  0  0
   15.8020  -19.5243   24.9356 O   0  0  0  0  0  0  0  0  0  0  0  0
  2  5  1  0
  2  1  1  1
  3  4  1  0
  3  2  1  0
  5  6  2  0
  8  7  1  0
  8 10  1  0
  9  8  2  0
 11 10  1  0
 11 12  1  0
 13 12  1  0
 14 13  1  6
 14 15  1  0
 15  5  1  0
 16 14  1  0
 17 16  2  0
 18 16  1  0
 19 18  1  0
 19 24  1  0
 19 20  1  6
 21 20  1  0
 22 21  1  0
 23 22  2  0
 24 25  1  0
 26 22  1  0
 27 24  2  0
M  END
$$$$
