CRE.pdb
     RDKit          3D

 27 26  0  0  1  0  0  0  0  0999 V2000
    7.6149  -13.4669   18.5768 N   0  0  0  0  0  0  0  0  0  0  0  0
    8.7881  -13.8192   19.3142 C   0  0  1  0  0  0  0  0  0  0  0  0
    9.5079  -12.6084   19.8730 C   0  0  0  0  0  0  0  0  0  0  0  0
    8.3933  -11.6302   20.9079 S   0  0  0  0  0  0  0  0  0  0  0  0
    8.4228  -14.6809   20.4590 C   0  0  0  0  0  0  0  0  0  0  0  0
    7.2559  -15.0886   20.5679 O   0  0  0  0  0  0  0  0  0  0  0  0
   11.0843  -18.5432   18.3311 N   0  0  0  0  0  0  0  0  0  0  0  0
   11.9005  -19.3434   19.1844 C   0  0  0  0  0  0  0  0  0  0  0  0
   13.1652  -19.4242   18.9502 N   0  0  0  0  0  0  0  0  0  0  0  0
   11.3513  -20.0431   20.2725 N   0  0  0  0  0  0  0  0  0  0  0  0
    9.9431  -19.8606   20.5556 C   0  0  0  0  0  0  0  0  0  0  0  0
    9.7195  -18.8143   21.6444 C   0  0  0  0  0  0  0  0  0  0  0  0
    9.6279  -17.4534   21.0492 C   0  0  0  0  0  0  0  0  0  0  0  0
    9.3966  -16.3601   22.0310 C   0  0  2  0  0  0  0  0  0  0  0  0
    9.3676  -15.0588   21.4423 N   0  0  0  0  0  0  0  0  0  0  0  0
   10.3973  -16.3864   23.1524 C   0  0  0  0  0  0  0  0  0  0  0  0
   11.6349  -16.3047   22.9530 O   0  0  0  0  0  0  0  0  0  0  0  0
   13.7765  -20.0333   19.5157 N   0  0  0  0  0  0  0  0  0  0  0  0
    9.9856  -16.5059   24.5024 C   0  0  1  0  0  0  0  0  0  0  0  0
   10.8864  -16.2563   25.6317 C   0  0  0  0  0  0  0  0  0  0  0  0
   10.1985  -15.5004   26.7144 C   0  0  0  0  0  0  0  0  0  0  0  0
    9.4515  -14.2758   26.2755 C   0  0  0  0  0  0  0  0  0  0  0  0
    8.8378  -13.5808   27.4694 O   0  0  0  0  0  0  0  0  0  0  0  0
    9.0038  -14.0406   28.6180 C   0  0  0  0  0  0  0  0  0  0  0  0
   11.4608  -17.5248   26.1086 O   0  0  0  0  0  0  0  0  0  0  0  0
   12.4790  -17.4674   27.0870 O   0  0  0  0  0  0  0  0  0  0  0  0
    8.0893  -12.4304   27.2869 O   0  0  0  0  0  0  0  0  0  0  0  0
  2  5  1  0
  2  1  1  1
  3  4  1  0
  3  2  1  0
  5  6  2  0
  8  7  1  0
  8 10  1  0
  9  8  2  0
 11 10  1  0
 11 12  1  0
 13 12  1  0
 14 13  1  6
 14 15  1  0
 15  5  1  0
 16 14  1  0
 17 16  2  0
 18 16  1  0
 19 18  1  0
 19 24  1  0
 19 20  1  1
 21 20  1  0
 22 21  1  0
 23 22  2  0
 24 25  1  0
 26 22  1  0
 27 24  2  0
M  END
$$$$
