CRE.pdb
     RDKit          3D

 27 26  0  0  1  0  0  0  0  0999 V2000
    9.4345  -16.4834   28.0610 N   0  0  0  0  0  0  0  0  0  0  0  0
    9.2541  -15.5513   26.9919 C   0  0  1  0  0  0  0  0  0  0  0  0
   10.1904  -14.3640   27.0929 C   0  0  0  0  0  0  0  0  0  0  0  0
    9.5901  -13.1867   28.3273 S   0  0  0  0  0  0  0  0  0  0  0  0
    9.5214  -16.2133   25.6969 C   0  0  0  0  0  0  0  0  0  0  0  0
   10.1697  -17.2711   25.6747 O   0  0  0  0  0  0  0  0  0  0  0  0
    6.9699  -12.0131   19.5440 N   0  0  0  0  0  0  0  0  0  0  0  0
    7.4019  -13.3076   19.1286 C   0  0  0  0  0  0  0  0  0  0  0  0
    7.5130  -13.5595   17.8696 N   0  0  0  0  0  0  0  0  0  0  0  0
    7.7074  -14.3097   20.0653 N   0  0  0  0  0  0  0  0  0  0  0  0
    8.4949  -15.4395   19.6179 C   0  0  0  0  0  0  0  0  0  0  0  0
    8.8342  -16.3802   20.7712 C   0  0  0  0  0  0  0  0  0  0  0  0
    8.5856  -15.7139   22.0785 C   0  0  0  0  0  0  0  0  0  0  0  0
    9.4221  -16.2163   23.2011 C   0  0  2  0  0  0  0  0  0  0  0  0
    9.0585  -15.6759   24.4724 N   0  0  0  0  0  0  0  0  0  0  0  0
   10.8886  -15.9936   22.9570 C   0  0  0  0  0  0  0  0  0  0  0  0
   11.5923  -15.2656   23.7007 O   0  0  0  0  0  0  0  0  0  0  0  0
    7.8588  -14.4721   17.5348 N   0  0  0  0  0  0  0  0  0  0  0  0
   11.5527  -16.6019   21.8638 C   0  0  1  0  0  0  0  0  0  0  0  0
   13.0100  -16.5763   21.7067 C   0  0  0  0  0  0  0  0  0  0  0  0
   13.6928  -17.1144   22.9155 C   0  0  0  0  0  0  0  0  0  0  0  0
   14.1978  -16.0873   23.8852 C   0  0  0  0  0  0  0  0  0  0  0  0
   15.6340  -16.3788   24.2561 O   0  0  0  0  0  0  0  0  0  0  0  0
   15.8956  -17.2004   25.1587 C   0  0  0  0  0  0  0  0  0  0  0  0
   13.3975  -17.2879   20.4780 O   0  0  0  0  0  0  0  0  0  0  0  0
   14.4510  -16.7519   19.7034 O   0  0  0  0  0  0  0  0  0  0  0  0
   16.6618  -15.7315   23.5915 O   0  0  0  0  0  0  0  0  0  0  0  0
  2  5  1  0
  2  1  1  1
  3  4  1  0
  3  2  1  0
  5  6  2  0
  8  7  1  0
  8 10  1  0
  9  8  2  0
 11 10  1  0
 11 12  1  0
 13 12  1  0
 14 13  1  6
 14 15  1  0
 15  5  1  0
 16 14  1  0
 17 16  2  0
 18 16  1  0
 19 18  1  0
 19 24  1  0
 19 20  1  6
 21 20  1  0
 22 21  1  0
 23 22  2  0
 24 25  1  0
 26 22  1  0
 27 24  2  0
M  END
$$$$
