CRE.pdb
     RDKit          3D

 27 26  0  0  1  0  0  0  0  0999 V2000
    7.2033  -14.9453   18.5176 N   0  0  0  0  0  0  0  0  0  0  0  0
    8.4369  -14.4433   19.0377 C   0  0  1  0  0  0  0  0  0  0  0  0
    8.2342  -13.2967   20.0075 C   0  0  0  0  0  0  0  0  0  0  0  0
    7.9014  -11.7609   19.1126 S   0  0  0  0  0  0  0  0  0  0  0  0
    9.1487  -15.5151   19.7665 C   0  0  0  0  0  0  0  0  0  0  0  0
    8.4998  -16.4440   20.2723 O   0  0  0  0  0  0  0  0  0  0  0  0
   11.9246  -21.5554   17.6269 N   0  0  0  0  0  0  0  0  0  0  0  0
   12.9737  -20.6707   17.2380 C   0  0  0  0  0  0  0  0  0  0  0  0
   13.8995  -21.1004   16.4512 N   0  0  0  0  0  0  0  0  0  0  0  0
   13.0152  -19.3428   17.6963 N   0  0  0  0  0  0  0  0  0  0  0  0
   13.8094  -19.0553   18.8724 C   0  0  0  0  0  0  0  0  0  0  0  0
   12.9683  -18.4228   19.9780 C   0  0  0  0  0  0  0  0  0  0  0  0
   12.1537  -17.3011   19.4370 C   0  0  0  0  0  0  0  0  0  0  0  0
   11.2826  -16.6270   20.4367 C   0  0  2  0  0  0  0  0  0  0  0  0
   10.5568  -15.5164   19.9073 N   0  0  0  0  0  0  0  0  0  0  0  0
   12.0498  -16.1958   21.6555 C   0  0  0  0  0  0  0  0  0  0  0  0
   13.1391  -15.5745   21.5809 O   0  0  0  0  0  0  0  0  0  0  0  0
   14.6596  -20.4809   16.1304 N   0  0  0  0  0  0  0  0  0  0  0  0
   11.5737  -16.4737   22.9602 C   0  0  2  0  0  0  0  0  0  0  0  0
   12.4629  -16.6020   24.1187 C   0  0  0  0  0  0  0  0  0  0  0  0
   11.9977  -17.6750   25.0402 C   0  0  0  0  0  0  0  0  0  0  0  0
   12.8400  -17.8888   26.2630 C   0  0  0  0  0  0  0  0  0  0  0  0
   12.2590  -18.9965   27.1119 O   0  0  0  0  0  0  0  0  0  0  0  0
   12.5387  -20.1882   26.8673 C   0  0  0  0  0  0  0  0  0  0  0  0
   13.8494  -16.8078   23.6699 O   0  0  0  0  0  0  0  0  0  0  0  0
   14.1464  -17.9854   22.9471 O   0  0  0  0  0  0  0  0  0  0  0  0
   11.4139  -18.6868   28.1639 O   0  0  0  0  0  0  0  0  0  0  0  0
  2  5  1  0
  2  1  1  1
  3  4  1  0
  3  2  1  0
  5  6  2  0
  8  7  1  0
  8 10  1  0
  9  8  2  0
 11 10  1  0
 11 12  1  0
 13 12  1  0
 14 13  1  6
 14 15  1  0
 15  5  1  0
 16 14  1  0
 17 16  2  0
 18 16  1  0
 19 18  1  0
 19 24  1  0
 19 20  1  6
 21 20  1  0
 22 21  1  0
 23 22  2  0
 24 25  1  0
 26 22  1  0
 27 24  2  0
M  END
$$$$
