CRE.pdb
     RDKit          3D

 27 26  0  0  1  0  0  0  0  0999 V2000
   15.7100  -15.4940   14.9159 N   0  0  0  0  0  0  0  0  0  0  0  0
   14.6680  -16.3363   15.4147 C   0  0  1  0  0  0  0  0  0  0  0  0
   15.1861  -17.6749   15.9007 C   0  0  0  0  0  0  0  0  0  0  0  0
   15.4150  -18.8086   14.5105 S   0  0  0  0  0  0  0  0  0  0  0  0
   13.9972  -15.6826   16.5589 C   0  0  0  0  0  0  0  0  0  0  0  0
   14.6028  -14.8146   17.2066 O   0  0  0  0  0  0  0  0  0  0  0  0
    7.4767  -12.1785   21.4670 N   0  0  0  0  0  0  0  0  0  0  0  0
    7.8223  -12.7550   20.2089 C   0  0  0  0  0  0  0  0  0  0  0  0
    8.3249  -12.0043   19.2899 N   0  0  0  0  0  0  0  0  0  0  0  0
    7.6248  -14.1230   19.9548 N   0  0  0  0  0  0  0  0  0  0  0  0
    8.3307  -14.7146   18.8375 C   0  0  0  0  0  0  0  0  0  0  0  0
    9.8436  -14.6467   19.0286 C   0  0  0  0  0  0  0  0  0  0  0  0
   10.5411  -15.3715   17.9319 C   0  0  0  0  0  0  0  0  0  0  0  0
   12.0216  -15.4248   18.0655 C   0  0  2  0  0  0  0  0  0  0  0  0
   12.6768  -16.0170   16.9427 N   0  0  0  0  0  0  0  0  0  0  0  0
   12.4507  -16.1208   19.3270 C   0  0  0  0  0  0  0  0  0  0  0  0
   12.2338  -17.3414   19.5301 O   0  0  0  0  0  0  0  0  0  0  0  0
    8.6312  -12.3966   18.3862 N   0  0  0  0  0  0  0  0  0  0  0  0
   13.1276  -15.4236   20.3575 C   0  0  2  0  0  0  0  0  0  0  0  0
   13.5913  -16.0767   21.5854 C   0  0  0  0  0  0  0  0  0  0  0  0
   14.8118  -15.4137   22.1217 C   0  0  0  0  0  0  0  0  0  0  0  0
   16.0901  -15.7316   21.4039 C   0  0  0  0  0  0  0  0  0  0  0  0
   17.2403  -14.9681   22.0198 O   0  0  0  0  0  0  0  0  0  0  0  0
   18.0093  -15.5321   22.8251 C   0  0  0  0  0  0  0  0  0  0  0  0
   12.5001  -16.1294   22.5717 O   0  0  0  0  0  0  0  0  0  0  0  0
   11.3031  -15.4386   22.2765 O   0  0  0  0  0  0  0  0  0  0  0  0
   17.4403  -13.6387   21.6885 O   0  0  0  0  0  0  0  0  0  0  0  0
  2  5  1  0
  2  1  1  1
  3  4  1  0
  3  2  1  0
  5  6  2  0
  8  7  1  0
  8 10  1  0
  9  8  2  0
 11 10  1  0
 11 12  1  0
 13 12  1  0
 14 13  1  6
 14 15  1  0
 15  5  1  0
 16 14  1  0
 17 16  2  0
 18 16  1  0
 19 18  1  0
 19 24  1  0
 19 20  1  6
 21 20  1  0
 22 21  1  0
 23 22  2  0
 24 25  1  0
 26 22  1  0
 27 24  2  0
M  END
$$$$
