CQQ.pdb
     RDKit          3D

 25 24  0  0  1  0  0  0  0  0999 V2000
   21.6950  -12.6858  -18.2159 N   0  0  0  0  0  0  0  0  0  0  0  0
   22.1521  -11.9996  -17.0436 C   0  0  1  0  0  0  0  0  0  0  0  0
   23.6421  -11.7725  -17.1456 C   0  0  0  0  0  0  0  0  0  0  0  0
   23.8911  -10.5208  -18.4580 S   0  0  0  0  0  0  0  0  0  0  0  0
   21.3958  -10.7604  -16.8539 C   0  0  0  0  0  0  0  0  0  0  0  0
   20.9461  -10.1757  -17.8994 O   0  0  0  0  0  0  0  0  0  0  0  0
   17.0995   -9.6922  -12.5917 N   0  0  0  0  0  0  0  0  0  0  0  0
   16.9415  -10.1814  -13.9226 C   0  0  0  0  0  0  0  0  0  0  0  0
   15.8437  -10.7619  -14.1641 O   0  0  0  0  0  0  0  0  0  0  0  0
   18.0198   -9.9777  -14.8825 C   0  0  0  0  0  0  0  0  0  0  0  0
   19.2365   -9.2878  -14.4619 C   0  0  0  0  0  0  0  0  0  0  0  0
   20.3553   -9.0378  -15.3894 C   0  0  2  0  0  0  0  0  0  0  0  0
   21.1767  -10.2386  -15.5628 N   0  0  0  0  0  0  0  0  0  0  0  0
   21.2384   -7.9516  -14.9799 C   0  0  0  0  0  0  0  0  0  0  0  0
   22.2418   -8.1431  -14.2053 O   0  0  0  0  0  0  0  0  0  0  0  0
   21.2057   -2.4771  -17.8953 N   0  0  0  0  0  0  0  0  0  0  0  0
   21.9539   -2.0933  -16.7507 C   0  0  0  0  0  0  0  0  0  0  0  0
   22.3901   -0.8966  -16.6465 O   0  0  0  0  0  0  0  0  0  0  0  0
   22.2100   -3.0793  -15.6987 C   0  0  0  0  0  0  0  0  0  0  0  0
   21.6328   -4.4246  -15.9784 C   0  0  0  0  0  0  0  0  0  0  0  0
   21.8330   -5.4754  -14.9310 C   0  0  2  0  0  0  0  0  0  0  0  0
   21.0531   -6.6289  -15.4020 N   0  0  0  0  0  0  0  0  0  0  0  0
   21.5970   -5.1537  -13.5525 C   0  0  0  0  0  0  0  0  0  0  0  0
   20.4545   -5.5418  -12.8754 O   0  0  0  0  0  0  0  0  0  0  0  0
   22.4391   -4.4781  -12.8812 O   0  0  0  0  0  0  0  0  0  0  0  0
  2  1  1  6
  3  4  1  0
  3  2  1  0
  5  2  1  0
  5  6  2  0
  7  8  1  0
  8 10  1  0
  9  8  2  0
 10 11  1  0
 12 11  1  1
 12 13  1  0
 13  5  1  0
 14 12  1  0
 15 14  2  0
 16 17  1  0
 17 19  1  0
 18 17  2  0
 20 19  1  0
 21 20  1  6
 21 22  1  0
 21 23  1  0
 22 14  1  0
 23 24  1  0
 25 23  2  0
M  END
$$$$
