CQQ.pdb
     RDKit          3D

 25 24  0  0  1  0  0  0  0  0999 V2000
   28.0862  -21.2828  -15.7839 N   0  0  0  0  0  0  0  0  0  0  0  0
   27.2813  -20.3074  -15.1094 C   0  0  1  0  0  0  0  0  0  0  0  0
   26.8507  -19.2462  -16.0946 C   0  0  0  0  0  0  0  0  0  0  0  0
   28.3554  -18.3015  -16.5358 S   0  0  0  0  0  0  0  0  0  0  0  0
   26.1537  -20.9567  -14.4383 C   0  0  0  0  0  0  0  0  0  0  0  0
   25.5770  -21.9215  -15.0495 O   0  0  0  0  0  0  0  0  0  0  0  0
   24.5716  -20.6942   -8.2116 N   0  0  0  0  0  0  0  0  0  0  0  0
   25.8320  -20.7349   -8.8790 C   0  0  0  0  0  0  0  0  0  0  0  0
   26.8471  -20.5939   -8.1373 O   0  0  0  0  0  0  0  0  0  0  0  0
   25.8604  -20.9372  -10.3226 C   0  0  0  0  0  0  0  0  0  0  0  0
   24.6045  -20.9911  -11.0662 C   0  0  0  0  0  0  0  0  0  0  0  0
   24.5684  -21.1614  -12.5305 C   0  0  2  0  0  0  0  0  0  0  0  0
   25.7266  -20.5272  -13.1653 N   0  0  0  0  0  0  0  0  0  0  0  0
   23.3678  -20.6273  -13.1637 C   0  0  0  0  0  0  0  0  0  0  0  0
   23.2548  -19.3893  -13.4772 O   0  0  0  0  0  0  0  0  0  0  0  0
   20.8930  -22.7746  -17.9226 N   0  0  0  0  0  0  0  0  0  0  0  0
   19.8104  -21.9158  -17.5941 C   0  0  0  0  0  0  0  0  0  0  0  0
   18.8706  -21.7239  -18.4384 O   0  0  0  0  0  0  0  0  0  0  0  0
   19.7852  -21.2647  -16.2827 C   0  0  0  0  0  0  0  0  0  0  0  0
   20.9812  -21.5538  -15.4417 C   0  0  0  0  0  0  0  0  0  0  0  0
   21.0106  -20.9391  -14.0769 C   0  0  2  0  0  0  0  0  0  0  0  0
   22.2590  -21.4256  -13.4723 N   0  0  0  0  0  0  0  0  0  0  0  0
   19.8707  -21.0748  -13.2156 C   0  0  0  0  0  0  0  0  0  0  0  0
   18.6543  -20.4702  -13.4785 O   0  0  0  0  0  0  0  0  0  0  0  0
   19.9309  -21.7629  -12.1484 O   0  0  0  0  0  0  0  0  0  0  0  0
  2  1  1  6
  3  4  1  0
  3  2  1  0
  5  2  1  0
  5  6  2  0
  7  8  1  0
  8 10  1  0
  9  8  2  0
 10 11  1  0
 12 11  1  1
 12 13  1  0
 13  5  1  0
 14 12  1  0
 15 14  2  0
 16 17  1  0
 17 19  1  0
 18 17  2  0
 20 19  1  0
 21 20  1  6
 21 22  1  0
 21 23  1  0
 22 14  1  0
 23 24  1  0
 25 23  2  0
M  END
$$$$
