CQQ.pdb
     RDKit          3D

 25 24  0  0  1  0  0  0  0  0999 V2000
   26.5963  -20.7980  -10.1504 N   0  0  0  0  0  0  0  0  0  0  0  0
   25.2420  -20.9697  -10.5871 C   0  0  1  0  0  0  0  0  0  0  0  0
   24.3481  -20.0130   -9.8335 C   0  0  0  0  0  0  0  0  0  0  0  0
   24.5498  -20.3998   -8.0557 S   0  0  0  0  0  0  0  0  0  0  0  0
   25.1536  -20.8117  -12.0400 C   0  0  0  0  0  0  0  0  0  0  0  0
   25.5687  -19.7104  -12.5418 O   0  0  0  0  0  0  0  0  0  0  0  0
   26.6820  -25.0645  -16.1179 N   0  0  0  0  0  0  0  0  0  0  0  0
   26.1002  -24.0945  -16.9875 C   0  0  0  0  0  0  0  0  0  0  0  0
   26.2486  -24.3120  -18.2249 O   0  0  0  0  0  0  0  0  0  0  0  0
   25.3914  -22.9605  -16.4068 C   0  0  0  0  0  0  0  0  0  0  0  0
   25.2732  -22.8529  -14.9551 C   0  0  0  0  0  0  0  0  0  0  0  0
   24.6272  -21.6973  -14.3056 C   0  0  2  0  0  0  0  0  0  0  0  0
   24.6289  -21.8411  -12.8475 N   0  0  0  0  0  0  0  0  0  0  0  0
   23.2496  -21.4693  -14.7273 C   0  0  0  0  0  0  0  0  0  0  0  0
   22.2702  -21.4920  -13.9003 O   0  0  0  0  0  0  0  0  0  0  0  0
   20.1712  -17.4253  -17.0870 N   0  0  0  0  0  0  0  0  0  0  0  0
   19.8043  -17.7603  -15.7564 C   0  0  0  0  0  0  0  0  0  0  0  0
   18.7370  -17.2747  -15.2484 O   0  0  0  0  0  0  0  0  0  0  0  0
   20.6569  -18.6673  -14.9852 C   0  0  0  0  0  0  0  0  0  0  0  0
   21.8707  -19.1253  -15.7188 C   0  0  0  0  0  0  0  0  0  0  0  0
   21.7510  -20.4033  -16.4894 C   0  0  2  0  0  0  0  0  0  0  0  0
   22.9014  -21.2108  -16.0592 N   0  0  0  0  0  0  0  0  0  0  0  0
   21.5896  -20.3569  -17.9147 C   0  0  0  0  0  0  0  0  0  0  0  0
   20.4064  -20.6932  -18.5481 O   0  0  0  0  0  0  0  0  0  0  0  0
   22.5469  -20.0060  -18.6740 O   0  0  0  0  0  0  0  0  0  0  0  0
  2  1  1  1
  3  4  1  0
  3  2  1  0
  5  2  1  0
  5  6  2  0
  7  8  1  0
  8 10  1  0
  9  8  2  0
 10 11  1  0
 12 11  1  6
 12 13  1  0
 13  5  1  0
 14 12  1  0
 15 14  2  0
 16 17  1  0
 17 19  1  0
 18 17  2  0
 20 19  1  0
 21 20  1  6
 21 22  1  0
 21 23  1  0
 22 14  1  0
 23 24  1  0
 25 23  2  0
M  END
$$$$
