CQQ.pdb
     RDKit          3D

 25 24  0  0  1  0  0  0  0  0999 V2000
   26.4116  -20.9131  -17.5366 N   0  0  0  0  0  0  0  0  0  0  0  0
   26.3579  -19.6597  -16.8435 C   0  0  1  0  0  0  0  0  0  0  0  0
   27.6045  -18.8638  -17.1513 C   0  0  0  0  0  0  0  0  0  0  0  0
   29.0062  -19.7833  -16.4161 S   0  0  0  0  0  0  0  0  0  0  0  0
   25.1251  -18.9458  -17.1812 C   0  0  0  0  0  0  0  0  0  0  0  0
   24.6764  -19.0707  -18.3729 O   0  0  0  0  0  0  0  0  0  0  0  0
   19.9507  -19.0970  -14.2121 N   0  0  0  0  0  0  0  0  0  0  0  0
   19.6563  -18.0263  -15.1080 C   0  0  0  0  0  0  0  0  0  0  0  0
   18.4455  -17.6613  -15.1431 O   0  0  0  0  0  0  0  0  0  0  0  0
   20.7392  -17.4419  -15.8899 C   0  0  0  0  0  0  0  0  0  0  0  0
   22.0785  -18.0184  -15.8072 C   0  0  0  0  0  0  0  0  0  0  0  0
   23.2150  -17.4713  -16.5712 C   0  0  2  0  0  0  0  0  0  0  0  0
   24.4641  -18.1525  -16.2215 N   0  0  0  0  0  0  0  0  0  0  0  0
   23.4238  -16.0396  -16.3867 C   0  0  0  0  0  0  0  0  0  0  0  0
   23.8928  -15.5532  -15.2971 O   0  0  0  0  0  0  0  0  0  0  0  0
   26.1677  -12.7502  -20.3319 N   0  0  0  0  0  0  0  0  0  0  0  0
   25.6698  -11.6508  -19.5830 C   0  0  0  0  0  0  0  0  0  0  0  0
   26.0583  -10.4648  -19.8577 O   0  0  0  0  0  0  0  0  0  0  0  0
   24.7086  -11.8948  -18.5055 C   0  0  0  0  0  0  0  0  0  0  0  0
   24.3687  -13.3331  -18.3134 C   0  0  0  0  0  0  0  0  0  0  0  0
   23.3466  -13.6506  -17.2667 C   0  0  2  0  0  0  0  0  0  0  0  0
   23.1280  -15.0996  -17.3822 N   0  0  0  0  0  0  0  0  0  0  0  0
   22.1283  -12.8938  -17.2155 C   0  0  0  0  0  0  0  0  0  0  0  0
   22.0083  -11.7102  -16.5091 O   0  0  0  0  0  0  0  0  0  0  0  0
   21.0828  -13.2884  -17.8216 O   0  0  0  0  0  0  0  0  0  0  0  0
  2  1  1  6
  3  4  1  0
  3  2  1  0
  5  2  1  0
  5  6  2  0
  7  8  1  0
  8 10  1  0
  9  8  2  0
 10 11  1  0
 12 11  1  1
 12 13  1  0
 13  5  1  0
 14 12  1  0
 15 14  2  0
 16 17  1  0
 17 19  1  0
 18 17  2  0
 20 19  1  0
 21 20  1  6
 21 22  1  0
 21 23  1  0
 22 14  1  0
 23 24  1  0
 25 23  2  0
M  END
$$$$
