CQQ.pdb
     RDKit          3D

 25 24  0  0  1  0  0  0  0  0999 V2000
   27.8122  -21.3641  -16.3232 N   0  0  0  0  0  0  0  0  0  0  0  0
   27.3855  -20.3849  -15.3676 C   0  0  1  0  0  0  0  0  0  0  0  0
   27.0941  -19.0847  -16.0795 C   0  0  0  0  0  0  0  0  0  0  0  0
   28.7077  -18.4160  -16.6273 S   0  0  0  0  0  0  0  0  0  0  0  0
   26.2427  -20.8871  -14.6024 C   0  0  0  0  0  0  0  0  0  0  0  0
   25.5404  -21.8175  -15.1297 O   0  0  0  0  0  0  0  0  0  0  0  0
   25.1866  -20.4545   -8.2445 N   0  0  0  0  0  0  0  0  0  0  0  0
   26.3445  -20.8340   -8.9867 C   0  0  0  0  0  0  0  0  0  0  0  0
   27.4182  -20.9098   -8.3222 O   0  0  0  0  0  0  0  0  0  0  0  0
   26.2111  -21.1063  -10.4129 C   0  0  0  0  0  0  0  0  0  0  0  0
   25.0042  -20.6806  -11.1166 C   0  0  0  0  0  0  0  0  0  0  0  0
   24.8184  -20.9098  -12.5614 C   0  0  2  0  0  0  0  0  0  0  0  0
   25.9359  -20.3583  -13.3322 N   0  0  0  0  0  0  0  0  0  0  0  0
   23.5863  -20.3460  -13.1013 C   0  0  0  0  0  0  0  0  0  0  0  0
   23.5703  -19.2469  -13.7610 O   0  0  0  0  0  0  0  0  0  0  0  0
   22.3790  -20.7601  -17.7807 N   0  0  0  0  0  0  0  0  0  0  0  0
   20.9931  -20.5561  -17.5461 C   0  0  0  0  0  0  0  0  0  0  0  0
   20.1926  -20.4234  -18.5334 O   0  0  0  0  0  0  0  0  0  0  0  0
   20.4996  -20.5069  -16.1683 C   0  0  0  0  0  0  0  0  0  0  0  0
   21.5627  -20.6853  -15.1392 C   0  0  0  0  0  0  0  0  0  0  0  0
   21.1296  -20.6385  -13.7068 C   0  0  2  0  0  0  0  0  0  0  0  0
   22.3394  -20.9629  -12.9375 N   0  0  0  0  0  0  0  0  0  0  0  0
   19.9751  -21.3835  -13.2926 C   0  0  0  0  0  0  0  0  0  0  0  0
   20.0395  -22.7047  -12.8867 O   0  0  0  0  0  0  0  0  0  0  0  0
   18.8186  -20.8558  -13.2876 O   0  0  0  0  0  0  0  0  0  0  0  0
  2  1  1  6
  3  4  1  0
  3  2  1  0
  5  2  1  0
  5  6  2  0
  7  8  1  0
  8 10  1  0
  9  8  2  0
 10 11  1  0
 12 11  1  1
 12 13  1  0
 13  5  1  0
 14 12  1  0
 15 14  2  0
 16 17  1  0
 17 19  1  0
 18 17  2  0
 20 19  1  0
 21 20  1  6
 21 22  1  0
 21 23  1  0
 22 14  1  0
 23 24  1  0
 25 23  2  0
M  END
$$$$
