CQQ.pdb
     RDKit          3D

 25 24  0  0  1  0  0  0  0  0999 V2000
   27.3279  -18.0948  -16.6582 N   0  0  0  0  0  0  0  0  0  0  0  0
   27.4076  -19.1122  -15.6518 C   0  0  1  0  0  0  0  0  0  0  0  0
   26.5854  -18.6972  -14.4543 C   0  0  0  0  0  0  0  0  0  0  0  0
   27.4624  -17.2883  -13.6816 S   0  0  0  0  0  0  0  0  0  0  0  0
   27.0010  -20.4055  -16.2047 C   0  0  0  0  0  0  0  0  0  0  0  0
   26.1046  -20.4034  -17.1177 O   0  0  0  0  0  0  0  0  0  0  0  0
   30.5022  -25.6679  -16.2789 N   0  0  0  0  0  0  0  0  0  0  0  0
   29.2344  -26.1531  -16.7183 C   0  0  0  0  0  0  0  0  0  0  0  0
   29.1952  -27.3804  -17.0223 O   0  0  0  0  0  0  0  0  0  0  0  0
   28.1071  -25.2304  -16.7770 C   0  0  0  0  0  0  0  0  0  0  0  0
   28.2675  -23.8661  -16.2811 C   0  0  0  0  0  0  0  0  0  0  0  0
   27.1657  -22.8866  -16.3136 C   0  0  2  0  0  0  0  0  0  0  0  0
   27.5819  -21.6035  -15.7415 N   0  0  0  0  0  0  0  0  0  0  0  0
   25.9635  -23.3175  -15.6089 C   0  0  0  0  0  0  0  0  0  0  0  0
   25.8781  -23.2974  -14.3299 O   0  0  0  0  0  0  0  0  0  0  0  0
   21.8788  -20.2697  -15.7756 N   0  0  0  0  0  0  0  0  0  0  0  0
   21.2748  -21.0902  -14.7860 C   0  0  0  0  0  0  0  0  0  0  0  0
   20.1522  -20.7528  -14.2771 O   0  0  0  0  0  0  0  0  0  0  0  0
   21.9493  -22.3204  -14.3664 C   0  0  0  0  0  0  0  0  0  0  0  0
   23.2686  -22.5403  -15.0237 C   0  0  0  0  0  0  0  0  0  0  0  0
   23.4772  -23.8637  -15.6918 C   0  0  2  0  0  0  0  0  0  0  0  0
   24.8231  -23.7815  -16.2769 N   0  0  0  0  0  0  0  0  0  0  0  0
   22.4881  -24.3572  -16.6072 C   0  0  0  0  0  0  0  0  0  0  0  0
   22.5161  -24.0831  -17.9631 O   0  0  0  0  0  0  0  0  0  0  0  0
   21.5192  -25.0751  -16.2046 O   0  0  0  0  0  0  0  0  0  0  0  0
  2  1  1  6
  3  4  1  0
  3  2  1  0
  5  2  1  0
  5  6  2  0
  7  8  1  0
  8 10  1  0
  9  8  2  0
 10 11  1  0
 12 11  1  1
 12 13  1  0
 13  5  1  0
 14 12  1  0
 15 14  2  0
 16 17  1  0
 17 19  1  0
 18 17  2  0
 20 19  1  0
 21 20  1  6
 21 22  1  0
 21 23  1  0
 22 14  1  0
 23 24  1  0
 25 23  2  0
M  END
$$$$
