CQQ.pdb
     RDKit          3D

 25 24  0  0  1  0  0  0  0  0999 V2000
   17.9900  -25.7239   -6.3851 N   0  0  0  0  0  0  0  0  0  0  0  0
   16.8478  -25.8521   -5.5288 C   0  0  1  0  0  0  0  0  0  0  0  0
   17.1716  -26.8046   -4.4018 C   0  0  0  0  0  0  0  0  0  0  0  0
   18.5251  -26.0344   -3.4396 S   0  0  0  0  0  0  0  0  0  0  0  0
   16.4159  -24.5346   -5.0585 C   0  0  0  0  0  0  0  0  0  0  0  0
   16.8581  -23.5091   -5.6829 O   0  0  0  0  0  0  0  0  0  0  0  0
   12.1839  -22.3912   -7.1102 N   0  0  0  0  0  0  0  0  0  0  0  0
   12.3576  -21.3463   -6.1544 C   0  0  0  0  0  0  0  0  0  0  0  0
   11.7051  -20.2862   -6.3800 O   0  0  0  0  0  0  0  0  0  0  0  0
   13.2416  -21.5697   -5.0167 C   0  0  0  0  0  0  0  0  0  0  0  0
   14.0264  -22.7994   -4.9462 C   0  0  0  0  0  0  0  0  0  0  0  0
   14.8039  -23.1644   -3.7475 C   0  0  2  0  0  0  0  0  0  0  0  0
   15.5447  -24.4110   -3.9572 N   0  0  0  0  0  0  0  0  0  0  0  0
   14.0001  -23.3236   -2.5408 C   0  0  0  0  0  0  0  0  0  0  0  0
   13.0564  -24.1874   -2.4584 O   0  0  0  0  0  0  0  0  0  0  0  0
   16.3493  -24.6979    2.2875 N   0  0  0  0  0  0  0  0  0  0  0  0
   16.4587  -23.2842    2.2046 C   0  0  0  0  0  0  0  0  0  0  0  0
   17.4229  -22.6844    2.7909 O   0  0  0  0  0  0  0  0  0  0  0  0
   15.4624  -22.5323    1.4388 C   0  0  0  0  0  0  0  0  0  0  0  0
   14.4269  -23.3870    0.7920 C   0  0  0  0  0  0  0  0  0  0  0  0
   13.4660  -22.7018   -0.1293 C   0  0  2  0  0  0  0  0  0  0  0  0
   14.2017  -22.5473   -1.3924 N   0  0  0  0  0  0  0  0  0  0  0  0
   12.8119  -21.4984    0.2991 C   0  0  0  0  0  0  0  0  0  0  0  0
   12.0559  -21.4251    1.4555 O   0  0  0  0  0  0  0  0  0  0  0  0
   12.8925  -20.4278   -0.3817 O   0  0  0  0  0  0  0  0  0  0  0  0
  2  1  1  6
  3  4  1  0
  3  2  1  0
  5  2  1  0
  5  6  2  0
  7  8  1  0
  8 10  1  0
  9  8  2  0
 10 11  1  0
 12 11  1  6
 12 13  1  0
 13  5  1  0
 14 12  1  0
 15 14  2  0
 16 17  1  0
 17 19  1  0
 18 17  2  0
 20 19  1  0
 21 20  1  1
 21 22  1  0
 21 23  1  0
 22 14  1  0
 23 24  1  0
 25 23  2  0
M  END
$$$$
