CQQ.pdb
     RDKit          3D

 25 24  0  0  1  0  0  0  0  0999 V2000
   29.0322  -10.7286  -20.6782 N   0  0  0  0  0  0  0  0  0  0  0  0
   28.6447   -9.3923  -20.3344 C   0  0  1  0  0  0  0  0  0  0  0  0
   28.5524   -8.5589  -21.5910 C   0  0  0  0  0  0  0  0  0  0  0  0
   30.2697   -8.2815  -22.1612 S   0  0  0  0  0  0  0  0  0  0  0  0
   27.3992   -9.4074  -19.5649 C   0  0  0  0  0  0  0  0  0  0  0  0
   26.4589  -10.1715  -19.9759 O   0  0  0  0  0  0  0  0  0  0  0  0
   26.4976  -11.5958  -14.3388 N   0  0  0  0  0  0  0  0  0  0  0  0
   26.4830  -12.1014  -15.6729 C   0  0  0  0  0  0  0  0  0  0  0  0
   26.5791  -13.3582  -15.7813 O   0  0  0  0  0  0  0  0  0  0  0  0
   26.3549  -11.1639  -16.7820 C   0  0  0  0  0  0  0  0  0  0  0  0
   26.2652   -9.7323  -16.5070 C   0  0  0  0  0  0  0  0  0  0  0  0
   26.0559   -8.7409  -17.5784 C   0  0  2  0  0  0  0  0  0  0  0  0
   27.2514   -8.6058  -18.4147 N   0  0  0  0  0  0  0  0  0  0  0  0
   25.6976   -7.4109  -17.0988 C   0  0  0  0  0  0  0  0  0  0  0  0
   26.5800   -6.5609  -16.7210 O   0  0  0  0  0  0  0  0  0  0  0  0
   22.8954   -3.6369  -20.2111 N   0  0  0  0  0  0  0  0  0  0  0  0
   22.7390   -2.8966  -19.0090 C   0  0  0  0  0  0  0  0  0  0  0  0
   22.3106   -1.6934  -19.0530 O   0  0  0  0  0  0  0  0  0  0  0  0
   23.0672   -3.5298  -17.7301 C   0  0  0  0  0  0  0  0  0  0  0  0
   23.5426   -4.9366  -17.8569 C   0  0  0  0  0  0  0  0  0  0  0  0
   23.9512   -5.6271  -16.5930 C   0  0  2  0  0  0  0  0  0  0  0  0
   24.3703   -6.9706  -17.0172 N   0  0  0  0  0  0  0  0  0  0  0  0
   23.0552   -5.6382  -15.4720 C   0  0  0  0  0  0  0  0  0  0  0  0
   23.1190   -4.7077  -14.4500 O   0  0  0  0  0  0  0  0  0  0  0  0
   22.1508   -6.5247  -15.3614 O   0  0  0  0  0  0  0  0  0  0  0  0
  2  1  1  6
  3  4  1  0
  3  2  1  0
  5  2  1  0
  5  6  2  0
  7  8  1  0
  8 10  1  0
  9  8  2  0
 10 11  1  0
 12 11  1  1
 12 13  1  0
 13  5  1  0
 14 12  1  0
 15 14  2  0
 16 17  1  0
 17 19  1  0
 18 17  2  0
 20 19  1  0
 21 20  1  6
 21 22  1  0
 21 23  1  0
 22 14  1  0
 23 24  1  0
 25 23  2  0
M  END
$$$$
