CQQ.pdb
     RDKit          3D

 25 24  0  0  1  0  0  0  0  0999 V2000
   14.1087  -10.6908  -10.3838 N   0  0  0  0  0  0  0  0  0  0  0  0
   14.6019   -9.3531  -10.5304 C   0  0  1  0  0  0  0  0  0  0  0  0
   15.0108   -8.8193   -9.1776 C   0  0  0  0  0  0  0  0  0  0  0  0
   13.4803   -8.6938   -8.1812 S   0  0  0  0  0  0  0  0  0  0  0  0
   15.6879   -9.3175  -11.5118 C   0  0  0  0  0  0  0  0  0  0  0  0
   16.4620  -10.3343  -11.5750 O   0  0  0  0  0  0  0  0  0  0  0  0
   15.3315   -8.9606  -17.2964 N   0  0  0  0  0  0  0  0  0  0  0  0
   16.7408   -8.7725  -17.1774 C   0  0  0  0  0  0  0  0  0  0  0  0
   17.3988   -8.8822  -18.2523 O   0  0  0  0  0  0  0  0  0  0  0  0
   17.3046   -8.4695  -15.8674 C   0  0  0  0  0  0  0  0  0  0  0  0
   16.4289   -8.4294  -14.6992 C   0  0  0  0  0  0  0  0  0  0  0  0
   16.9478   -8.1920  -13.3395 C   0  0  2  0  0  0  0  0  0  0  0  0
   15.8656   -8.1994  -12.3518 N   0  0  0  0  0  0  0  0  0  0  0  0
   17.6765   -6.9374  -13.1897 C   0  0  0  0  0  0  0  0  0  0  0  0
   17.2516   -5.9865  -12.4420 O   0  0  0  0  0  0  0  0  0  0  0  0
   20.4915   -5.0462   -9.5144 N   0  0  0  0  0  0  0  0  0  0  0  0
   21.3060   -5.9682  -10.2242 C   0  0  0  0  0  0  0  0  0  0  0  0
   22.2358   -6.5979   -9.6142 O   0  0  0  0  0  0  0  0  0  0  0  0
   21.0619   -6.1887  -11.6512 C   0  0  0  0  0  0  0  0  0  0  0  0
   19.9415   -5.3767  -12.2048 C   0  0  0  0  0  0  0  0  0  0  0  0
   19.7026   -5.4738  -13.6796 C   0  0  2  0  0  0  0  0  0  0  0  0
   18.8860   -6.6842  -13.8492 N   0  0  0  0  0  0  0  0  0  0  0  0
   20.8165   -5.4079  -14.5820 C   0  0  0  0  0  0  0  0  0  0  0  0
   21.1186   -6.4184  -15.4776 O   0  0  0  0  0  0  0  0  0  0  0  0
   21.5951   -4.4030  -14.5938 O   0  0  0  0  0  0  0  0  0  0  0  0
  2  1  1  1
  3  4  1  0
  3  2  1  0
  5  2  1  0
  5  6  2  0
  7  8  1  0
  8 10  1  0
  9  8  2  0
 10 11  1  0
 12 11  1  6
 12 13  1  0
 13  5  1  0
 14 12  1  0
 15 14  2  0
 16 17  1  0
 17 19  1  0
 18 17  2  0
 20 19  1  0
 21 20  1  1
 21 22  1  0
 21 23  1  0
 22 14  1  0
 23 24  1  0
 25 23  2  0
M  END
$$$$
