CQQ.pdb
     RDKit          3D

 25 24  0  0  1  0  0  0  0  0999 V2000
   24.2596  -10.6815  -15.1239 N   0  0  0  0  0  0  0  0  0  0  0  0
   24.3924  -10.4921  -16.5384 C   0  0  1  0  0  0  0  0  0  0  0  0
   24.7033  -11.8172  -17.1938 C   0  0  0  0  0  0  0  0  0  0  0  0
   26.1014  -12.5452  -16.2628 S   0  0  0  0  0  0  0  0  0  0  0  0
   23.1911   -9.8537  -17.0797 C   0  0  0  0  0  0  0  0  0  0  0  0
   23.2026   -9.5229  -18.3156 O   0  0  0  0  0  0  0  0  0  0  0  0
   18.5743  -12.4404  -17.2250 N   0  0  0  0  0  0  0  0  0  0  0  0
   19.5667  -12.2267  -18.2276 C   0  0  0  0  0  0  0  0  0  0  0  0
   19.7627  -13.1956  -19.0169 O   0  0  0  0  0  0  0  0  0  0  0  0
   20.2580  -10.9439  -18.2747 C   0  0  0  0  0  0  0  0  0  0  0  0
   19.9035   -9.9001  -17.3166 C   0  0  0  0  0  0  0  0  0  0  0  0
   20.8946   -8.9327  -16.8103 C   0  0  2  0  0  0  0  0  0  0  0  0
   22.0682   -9.6166  -16.2611 N   0  0  0  0  0  0  0  0  0  0  0  0
   20.3813   -8.0364  -15.7805 C   0  0  0  0  0  0  0  0  0  0  0  0
   19.6248   -8.4496  -14.8314 O   0  0  0  0  0  0  0  0  0  0  0  0
   20.5520   -7.7298  -11.0277 N   0  0  0  0  0  0  0  0  0  0  0  0
   20.1543   -6.3673  -10.9744 C   0  0  0  0  0  0  0  0  0  0  0  0
   19.8976   -5.8222   -9.8474 O   0  0  0  0  0  0  0  0  0  0  0  0
   20.0500   -5.6024  -12.2187 C   0  0  0  0  0  0  0  0  0  0  0  0
   20.4083   -6.3808  -13.4381 C   0  0  0  0  0  0  0  0  0  0  0  0
   20.1746   -5.7130  -14.7575 C   0  0  2  0  0  0  0  0  0  0  0  0
   20.6770   -6.6675  -15.7561 N   0  0  0  0  0  0  0  0  0  0  0  0
   20.6444   -4.3729  -14.9646 C   0  0  0  0  0  0  0  0  0  0  0  0
   21.6237   -4.0545  -15.8888 O   0  0  0  0  0  0  0  0  0  0  0  0
   20.1791   -3.4010  -14.2900 O   0  0  0  0  0  0  0  0  0  0  0  0
  2  1  1  1
  3  4  1  0
  3  2  1  0
  5  2  1  0
  5  6  2  0
  7  8  1  0
  8 10  1  0
  9  8  2  0
 10 11  1  0
 12 11  1  1
 12 13  1  0
 13  5  1  0
 14 12  1  0
 15 14  2  0
 16 17  1  0
 17 19  1  0
 18 17  2  0
 20 19  1  0
 21 20  1  1
 21 22  1  0
 21 23  1  0
 22 14  1  0
 23 24  1  0
 25 23  2  0
M  END
$$$$
