CQQ.pdb
     RDKit          3D

 25 24  0  0  1  0  0  0  0  0999 V2000
   25.2574  -20.6982  -15.3104 N   0  0  0  0  0  0  0  0  0  0  0  0
   24.5691  -21.7757  -14.6628 C   0  0  1  0  0  0  0  0  0  0  0  0
   25.5705  -22.6495  -13.9446 C   0  0  0  0  0  0  0  0  0  0  0  0
   26.7356  -23.2628  -15.2165 S   0  0  0  0  0  0  0  0  0  0  0  0
   23.5271  -21.2526  -13.7773 C   0  0  0  0  0  0  0  0  0  0  0  0
   23.6964  -20.0811  -13.2917 O   0  0  0  0  0  0  0  0  0  0  0  0
   18.2482  -20.8432  -15.8558 N   0  0  0  0  0  0  0  0  0  0  0  0
   18.2499  -20.2215  -14.5716 C   0  0  0  0  0  0  0  0  0  0  0  0
   17.1481  -20.2486  -13.9506 O   0  0  0  0  0  0  0  0  0  0  0  0
   19.4848  -19.6239  -14.0780 C   0  0  0  0  0  0  0  0  0  0  0  0
   20.7321  -20.3794  -14.1593 C   0  0  0  0  0  0  0  0  0  0  0  0
   21.1276  -21.3516  -13.1235 C   0  0  2  0  0  0  0  0  0  0  0  0
   22.3829  -22.0194  -13.4769 N   0  0  0  0  0  0  0  0  0  0  0  0
   20.1323  -22.3860  -12.8651 C   0  0  0  0  0  0  0  0  0  0  0  0
   19.9474  -23.3703  -13.6656 O   0  0  0  0  0  0  0  0  0  0  0  0
   19.0665  -24.1815   -7.2392 N   0  0  0  0  0  0  0  0  0  0  0  0
   18.0983  -25.0023   -7.8767 C   0  0  0  0  0  0  0  0  0  0  0  0
   17.5014  -25.9165   -7.2126 O   0  0  0  0  0  0  0  0  0  0  0  0
   17.7930  -24.7825   -9.2919 C   0  0  0  0  0  0  0  0  0  0  0  0
   18.5817  -23.6827   -9.9162 C   0  0  0  0  0  0  0  0  0  0  0  0
   18.3513  -23.4309  -11.3739 C   0  0  2  0  0  0  0  0  0  0  0  0
   19.3121  -22.3768  -11.7297 N   0  0  0  0  0  0  0  0  0  0  0  0
   17.0208  -23.1705  -11.8447 C   0  0  0  0  0  0  0  0  0  0  0  0
   16.1514  -24.1744  -12.2330 O   0  0  0  0  0  0  0  0  0  0  0  0
   16.5758  -21.9832  -11.9356 O   0  0  0  0  0  0  0  0  0  0  0  0
  2  1  1  1
  3  4  1  0
  3  2  1  0
  5  2  1  0
  5  6  2  0
  7  8  1  0
  8 10  1  0
  9  8  2  0
 10 11  1  0
 12 11  1  6
 12 13  1  0
 13  5  1  0
 14 12  1  0
 15 14  2  0
 16 17  1  0
 17 19  1  0
 18 17  2  0
 20 19  1  0
 21 20  1  1
 21 22  1  0
 21 23  1  0
 22 14  1  0
 23 24  1  0
 25 23  2  0
M  END
$$$$
