EKY.pdb
     RDKit          3D

 31 31  0  0  1  0  0  0  0  0999 V2000
   10.6913  -18.4527   18.6922 N   0  0  0  0  0  0  0  0  0  0  0  0
   11.7743  -18.2350   19.6024 C   0  0  1  0  0  0  0  0  0  0  0  0
   13.0286  -17.8438   18.8524 C   0  0  0  0  0  0  0  0  0  0  0  0
   12.8706  -18.2903   17.4198 C   0  0  0  0  0  0  0  0  0  0  0  0
   14.1070  -17.9706   16.6727 C   0  0  0  0  0  0  0  0  0  0  0  0
   15.1498  -18.6003   16.9108 O   0  0  0  0  0  0  0  0  0  0  0  0
   11.3990  -17.1932   20.6062 C   0  0  0  0  0  0  0  0  0  0  0  0
   12.2440  -16.7639   21.4269 O   0  0  0  0  0  0  0  0  0  0  0  0
   14.1370  -16.9827   15.7082 O   0  0  0  0  0  0  0  0  0  0  0  0
   10.0936  -16.6476   20.6801 N   0  0  0  0  0  0  0  0  0  0  0  0
    9.6752  -15.5871   21.5485 C   0  0  1  0  0  0  0  0  0  0  0  0
    8.3492  -15.0637   21.0522 C   0  0  0  0  0  0  0  0  0  0  0  0
    8.4333  -14.4053   19.7216 C   0  0  0  0  0  0  0  0  0  0  0  0
    7.1442  -13.8909   19.1722 C   0  0  0  0  0  0  0  0  0  0  0  0
    7.4282  -13.3336   17.7842 C   0  0  0  0  0  0  0  0  0  0  0  0
    6.2572  -12.7529   17.1898 N   0  0  0  0  0  0  0  0  0  0  0  0
    9.5844  -15.9799   22.9595 C   0  0  0  0  0  0  0  0  0  0  0  0
    9.0808  -17.0747   23.2707 O   0  0  0  0  0  0  0  0  0  0  0  0
   10.4895  -15.9694   31.6726 O   0  0  0  0  0  0  0  0  0  0  0  0
   10.5528  -15.6209   30.3414 C   0  0  0  0  0  0  0  0  0  0  0  0
   10.2089  -14.3265   29.9926 C   0  0  0  0  0  0  0  0  0  0  0  0
   10.2675  -13.9580   28.6524 C   0  0  0  0  0  0  0  0  0  0  0  0
   10.6497  -14.8110   27.6474 C   0  0  0  0  0  0  0  0  0  0  0  0
   10.7083  -14.4365   26.2215 C   0  0  0  0  0  0  0  0  0  0  0  0
    9.9635  -15.4089   25.3931 C   0  0  2  0  0  0  0  0  0  0  0  0
   10.0651  -15.1228   23.9675 N   0  0  0  0  0  0  0  0  0  0  0  0
    8.5343  -15.4579   25.7182 C   0  0  0  0  0  0  0  0  0  0  0  0
    7.7314  -14.6689   25.1732 O   0  0  0  0  0  0  0  0  0  0  0  0
   10.9869  -16.1039   28.0464 C   0  0  0  0  0  0  0  0  0  0  0  0
   10.9459  -16.5185   29.3582 C   0  0  0  0  0  0  0  0  0  0  0  0
    8.0209  -16.3676   26.6300 O   0  0  0  0  0  0  0  0  0  0  0  0
  2  1  1  6
  3  2  1  0
  3  4  1  0
  5  9  1  0
  5  4  1  0
  6  5  2  0
  7  2  1  0
  7  8  2  0
 10  7  1  0
 11 10  1  0
 11 12  1  6
 13 12  1  0
 13 14  1  0
 14 15  1  0
 16 15  1  0
 17 26  1  0
 17 11  1  0
 18 17  2  0
 19 20  1  0
 20 30  2  0
 20 21  1  0
 21 22  2  0
 22 23  1  0
 23 24  1  0
 25 24  1  1
 25 26  1  0
 25 27  1  0
 27 31  1  0
 28 27  2  0
 29 23  2  0
 30 29  1  0
M  END
$$$$
