EKY.pdb
     RDKit          3D

 31 31  0  0  1  0  0  0  0  0999 V2000
    6.3515  -15.3571   20.0012 N   0  0  0  0  0  0  0  0  0  0  0  0
    7.5170  -15.8856   20.6423 C   0  0  1  0  0  0  0  0  0  0  0  0
    8.6381  -14.8697   20.6285 C   0  0  0  0  0  0  0  0  0  0  0  0
    9.6261  -15.2837   19.5660 C   0  0  0  0  0  0  0  0  0  0  0  0
   10.7373  -14.3074   19.5298 C   0  0  0  0  0  0  0  0  0  0  0  0
   10.6638  -13.3193   18.7821 O   0  0  0  0  0  0  0  0  0  0  0  0
    7.1880  -16.3068   22.0380 C   0  0  0  0  0  0  0  0  0  0  0  0
    6.5946  -15.5246   22.8176 O   0  0  0  0  0  0  0  0  0  0  0  0
   11.8656  -14.4631   20.3105 O   0  0  0  0  0  0  0  0  0  0  0  0
    7.5235  -17.5877   22.5420 N   0  0  0  0  0  0  0  0  0  0  0  0
    7.2399  -18.0713   23.8609 C   0  0  1  0  0  0  0  0  0  0  0  0
    7.2400  -19.5803   23.8224 C   0  0  0  0  0  0  0  0  0  0  0  0
    6.8938  -20.2057   25.1261 C   0  0  0  0  0  0  0  0  0  0  0  0
    6.9994  -21.6938   25.1777 C   0  0  0  0  0  0  0  0  0  0  0  0
    6.4090  -22.1489   26.5050 C   0  0  0  0  0  0  0  0  0  0  0  0
    6.4057  -23.5795   26.6280 N   0  0  0  0  0  0  0  0  0  0  0  0
    8.1686  -17.5768   24.8839 C   0  0  0  0  0  0  0  0  0  0  0  0
    9.3964  -17.6203   24.6847 O   0  0  0  0  0  0  0  0  0  0  0  0
    7.6493  -10.9884   24.2754 O   0  0  0  0  0  0  0  0  0  0  0  0
    7.7463  -12.0614   25.1339 C   0  0  0  0  0  0  0  0  0  0  0  0
    6.6668  -12.3342   25.9558 C   0  0  0  0  0  0  0  0  0  0  0  0
    6.7482  -13.4144   26.8287 C   0  0  0  0  0  0  0  0  0  0  0  0
    7.8465  -14.2320   26.9230 C   0  0  0  0  0  0  0  0  0  0  0  0
    7.9500  -15.3755   27.8498 C   0  0  0  0  0  0  0  0  0  0  0  0
    8.5287  -16.5526   27.1672 C   0  0  2  0  0  0  0  0  0  0  0  0
    7.6776  -17.0513   26.0941 N   0  0  0  0  0  0  0  0  0  0  0  0
    8.7716  -17.6767   28.0772 C   0  0  0  0  0  0  0  0  0  0  0  0
    8.1972  -18.7735   27.8996 O   0  0  0  0  0  0  0  0  0  0  0  0
    8.9088  -13.9187   26.0758 C   0  0  0  0  0  0  0  0  0  0  0  0
    8.8786  -12.8619   25.1946 C   0  0  0  0  0  0  0  0  0  0  0  0
    9.6355  -17.5722   29.1568 O   0  0  0  0  0  0  0  0  0  0  0  0
  2  1  1  1
  3  2  1  0
  3  4  1  0
  5  9  1  0
  5  4  1  0
  6  5  2  0
  7  2  1  0
  7  8  2  0
 10  7  1  0
 11 10  1  0
 11 12  1  6
 13 12  1  0
 13 14  1  0
 14 15  1  0
 16 15  1  0
 17 26  1  0
 17 11  1  0
 18 17  2  0
 19 20  1  0
 20 30  2  0
 20 21  1  0
 21 22  2  0
 22 23  1  0
 23 24  1  0
 25 24  1  1
 25 26  1  0
 25 27  1  0
 27 31  1  0
 28 27  2  0
 29 23  2  0
 30 29  1  0
M  END
$$$$
