EKY.pdb
     RDKit          3D

 31 31  0  0  1  0  0  0  0  0999 V2000
    9.8669  -19.0842   18.8077 N   0  0  0  0  0  0  0  0  0  0  0  0
   11.0797  -18.3257   18.8610 C   0  0  1  0  0  0  0  0  0  0  0  0
   11.4738  -17.8556   17.4780 C   0  0  0  0  0  0  0  0  0  0  0  0
   12.7722  -17.0967   17.5987 C   0  0  0  0  0  0  0  0  0  0  0  0
   13.3622  -16.9273   16.2524 C   0  0  0  0  0  0  0  0  0  0  0  0
   12.6611  -16.4956   15.3235 O   0  0  0  0  0  0  0  0  0  0  0  0
   10.9223  -17.1723   19.7983 C   0  0  0  0  0  0  0  0  0  0  0  0
   11.9239  -16.5306   20.1945 O   0  0  0  0  0  0  0  0  0  0  0  0
   14.6828  -17.2379   15.9947 O   0  0  0  0  0  0  0  0  0  0  0  0
    9.6570  -16.7529   20.2781 N   0  0  0  0  0  0  0  0  0  0  0  0
    9.4220  -15.6804   21.1992 C   0  0  1  0  0  0  0  0  0  0  0  0
    8.1230  -15.0096   20.8237 C   0  0  0  0  0  0  0  0  0  0  0  0
    8.2046  -14.2249   19.5634 C   0  0  0  0  0  0  0  0  0  0  0  0
    6.9574  -13.5072   19.1666 C   0  0  0  0  0  0  0  0  0  0  0  0
    7.2082  -12.8712   17.8064 C   0  0  0  0  0  0  0  0  0  0  0  0
    7.2577  -13.8506   16.7576 N   0  0  0  0  0  0  0  0  0  0  0  0
    9.4027  -16.1021   22.6046 C   0  0  0  0  0  0  0  0  0  0  0  0
    9.0671  -17.2630   22.9026 O   0  0  0  0  0  0  0  0  0  0  0  0
   10.8229  -16.0023   31.2983 O   0  0  0  0  0  0  0  0  0  0  0  0
   10.6772  -15.5994   29.9890 C   0  0  0  0  0  0  0  0  0  0  0  0
   11.2301  -16.3945   29.0003 C   0  0  0  0  0  0  0  0  0  0  0  0
   11.0920  -16.0022   27.6727 C   0  0  0  0  0  0  0  0  0  0  0  0
   10.4337  -14.8625   27.2834 C   0  0  0  0  0  0  0  0  0  0  0  0
   10.2869  -14.4299   25.8804 C   0  0  0  0  0  0  0  0  0  0  0  0
    9.7909  -15.5399   25.0388 C   0  0  2  0  0  0  0  0  0  0  0  0
    9.7629  -15.1983   23.6221 N   0  0  0  0  0  0  0  0  0  0  0  0
    8.4362  -15.9689   25.4017 C   0  0  0  0  0  0  0  0  0  0  0  0
    8.2621  -16.9224   26.1921 O   0  0  0  0  0  0  0  0  0  0  0  0
    9.8933  -14.0938   28.3136 C   0  0  0  0  0  0  0  0  0  0  0  0
   10.0019  -14.4374   29.6420 C   0  0  0  0  0  0  0  0  0  0  0  0
    7.3083  -15.3444   24.8913 O   0  0  0  0  0  0  0  0  0  0  0  0
  2  1  1  6
  3  2  1  0
  3  4  1  0
  5  9  1  0
  5  4  1  0
  6  5  2  0
  7  2  1  0
  7  8  2  0
 10  7  1  0
 11 10  1  0
 11 12  1  6
 13 12  1  0
 13 14  1  0
 14 15  1  0
 16 15  1  0
 17 26  1  0
 17 11  1  0
 18 17  2  0
 19 20  1  0
 20 30  2  0
 20 21  1  0
 21 22  2  0
 22 23  1  0
 23 24  1  0
 25 24  1  1
 25 26  1  0
 25 27  1  0
 27 31  1  0
 28 27  2  0
 29 23  2  0
 30 29  1  0
M  END
$$$$
