EKY.pdb
     RDKit          3D

 31 31  0  0  1  0  0  0  0  0999 V2000
   11.1753  -18.2433   16.4648 N   0  0  0  0  0  0  0  0  0  0  0  0
   10.3081  -17.1137   16.6094 C   0  0  1  0  0  0  0  0  0  0  0  0
    9.2568  -17.1080   15.5214 C   0  0  0  0  0  0  0  0  0  0  0  0
    9.9638  -16.9873   14.1939 C   0  0  0  0  0  0  0  0  0  0  0  0
    8.9630  -17.0338   13.1051 C   0  0  0  0  0  0  0  0  0  0  0  0
    9.3279  -16.8886   11.9276 O   0  0  0  0  0  0  0  0  0  0  0  0
    9.6806  -17.1192   17.9658 C   0  0  0  0  0  0  0  0  0  0  0  0
    8.8381  -16.2466   18.2827 O   0  0  0  0  0  0  0  0  0  0  0  0
    7.6212  -17.2359   13.3612 O   0  0  0  0  0  0  0  0  0  0  0  0
    9.9998  -18.0925   18.9444 N   0  0  0  0  0  0  0  0  0  0  0  0
    9.4160  -18.1935   20.2494 C   0  0  1  0  0  0  0  0  0  0  0  0
    9.7667  -19.5454   20.8219 C   0  0  0  0  0  0  0  0  0  0  0  0
    8.8833  -20.6398   20.3394 C   0  0  0  0  0  0  0  0  0  0  0  0
    9.2617  -22.0163   20.7759 C   0  0  0  0  0  0  0  0  0  0  0  0
    8.1976  -22.9711   20.2530 C   0  0  0  0  0  0  0  0  0  0  0  0
    8.4554  -24.3280   20.6454 N   0  0  0  0  0  0  0  0  0  0  0  0
    9.8228  -17.1199   21.1634 C   0  0  0  0  0  0  0  0  0  0  0  0
   10.9865  -16.6800   21.1297 O   0  0  0  0  0  0  0  0  0  0  0  0
    8.0789  -12.2151   17.7010 O   0  0  0  0  0  0  0  0  0  0  0  0
    8.0941  -12.7536   18.9689 C   0  0  0  0  0  0  0  0  0  0  0  0
    9.1836  -12.4794   19.7771 C   0  0  0  0  0  0  0  0  0  0  0  0
    9.2148  -13.0153   21.0606 C   0  0  0  0  0  0  0  0  0  0  0  0
    8.2193  -13.8072   21.5760 C   0  0  0  0  0  0  0  0  0  0  0  0
    8.2431  -14.3891   22.9317 C   0  0  0  0  0  0  0  0  0  0  0  0
    9.2148  -15.5011   23.0078 C   0  0  2  0  0  0  0  0  0  0  0  0
    8.9013  -16.5822   22.0818 N   0  0  0  0  0  0  0  0  0  0  0  0
    9.2973  -16.0953   24.3460 C   0  0  0  0  0  0  0  0  0  0  0  0
    8.9258  -17.2733   24.5421 O   0  0  0  0  0  0  0  0  0  0  0  0
    7.1424  -14.0559   20.7259 C   0  0  0  0  0  0  0  0  0  0  0  0
    7.0632  -13.5498   19.4483 C   0  0  0  0  0  0  0  0  0  0  0  0
    9.7835  -15.3863   25.4340 O   0  0  0  0  0  0  0  0  0  0  0  0
  2  1  1  6
  3  2  1  0
  3  4  1  0
  5  9  1  0
  5  4  1  0
  6  5  2  0
  7  2  1  0
  7  8  2  0
 10  7  1  0
 11 10  1  0
 11 12  1  1
 13 12  1  0
 13 14  1  0
 14 15  1  0
 16 15  1  0
 17 26  1  0
 17 11  1  0
 18 17  2  0
 19 20  1  0
 20 30  2  0
 20 21  1  0
 21 22  2  0
 22 23  1  0
 23 24  1  0
 25 24  1  1
 25 26  1  0
 25 27  1  0
 27 31  1  0
 28 27  2  0
 29 23  2  0
 30 29  1  0
M  END
$$$$
