EKY.pdb
     RDKit          3D

 31 31  0  0  1  0  0  0  0  0999 V2000
    9.4245  -17.6884   17.2697 N   0  0  0  0  0  0  0  0  0  0  0  0
    9.3330  -18.5135   18.4358 C   0  0  1  0  0  0  0  0  0  0  0  0
   10.7039  -18.9999   18.8517 C   0  0  0  0  0  0  0  0  0  0  0  0
   11.5316  -19.1775   17.6027 C   0  0  0  0  0  0  0  0  0  0  0  0
   12.8672  -19.6941   17.9750 C   0  0  0  0  0  0  0  0  0  0  0  0
   13.5031  -20.3923   17.1695 O   0  0  0  0  0  0  0  0  0  0  0  0
    8.6677  -17.7631   19.5440 C   0  0  0  0  0  0  0  0  0  0  0  0
    8.8775  -16.5370   19.7004 O   0  0  0  0  0  0  0  0  0  0  0  0
   13.4341  -19.4206   19.2042 O   0  0  0  0  0  0  0  0  0  0  0  0
    7.7826  -18.3873   20.4572 N   0  0  0  0  0  0  0  0  0  0  0  0
    7.1062  -17.7429   21.5440 C   0  0  1  0  0  0  0  0  0  0  0  0
    5.8795  -18.5534   21.8858 C   0  0  0  0  0  0  0  0  0  0  0  0
    4.7975  -18.4459   20.8716 C   0  0  0  0  0  0  0  0  0  0  0  0
    3.6146  -19.3293   21.0920 C   0  0  0  0  0  0  0  0  0  0  0  0
    2.6837  -19.1536   19.9004 C   0  0  0  0  0  0  0  0  0  0  0  0
    1.5015  -19.9598   20.0201 N   0  0  0  0  0  0  0  0  0  0  0  0
    7.9473  -17.5465   22.7303 C   0  0  0  0  0  0  0  0  0  0  0  0
    8.7080  -18.4545   23.1124 O   0  0  0  0  0  0  0  0  0  0  0  0
   10.8750  -13.9393   30.2303 O   0  0  0  0  0  0  0  0  0  0  0  0
   10.2929  -14.1067   28.9931 C   0  0  0  0  0  0  0  0  0  0  0  0
   11.0045  -14.8003   28.0298 C   0  0  0  0  0  0  0  0  0  0  0  0
   10.4310  -14.9784   26.7749 C   0  0  0  0  0  0  0  0  0  0  0  0
    9.1899  -14.5018   26.4337 C   0  0  0  0  0  0  0  0  0  0  0  0
    8.5731  -14.6758   25.1047 C   0  0  0  0  0  0  0  0  0  0  0  0
    8.6131  -16.0945   24.6900 C   0  0  2  0  0  0  0  0  0  0  0  0
    7.8992  -16.3327   23.4418 N   0  0  0  0  0  0  0  0  0  0  0  0
    8.0360  -16.9974   25.6912 C   0  0  0  0  0  0  0  0  0  0  0  0
    8.7762  -17.6827   26.4306 O   0  0  0  0  0  0  0  0  0  0  0  0
    8.5108  -13.8100   27.4360 C   0  0  0  0  0  0  0  0  0  0  0  0
    9.0333  -13.6066   28.6930 C   0  0  0  0  0  0  0  0  0  0  0  0
    6.6655  -17.1273   25.8576 O   0  0  0  0  0  0  0  0  0  0  0  0
  2  1  1  6
  3  2  1  0
  3  4  1  0
  5  9  1  0
  5  4  1  0
  6  5  2  0
  7  2  1  0
  7  8  2  0
 10  7  1  0
 11 10  1  0
 11 12  1  1
 13 12  1  0
 13 14  1  0
 14 15  1  0
 16 15  1  0
 17 26  1  0
 17 11  1  0
 18 17  2  0
 19 20  1  0
 20 30  2  0
 20 21  1  0
 21 22  2  0
 22 23  1  0
 23 24  1  0
 25 24  1  1
 25 26  1  0
 25 27  1  0
 27 31  1  0
 28 27  2  0
 29 23  2  0
 30 29  1  0
M  END
$$$$
