EKY.pdb
     RDKit          3D

 31 31  0  0  1  0  0  0  0  0999 V2000
    7.7337  -12.6469   19.5411 N   0  0  0  0  0  0  0  0  0  0  0  0
    8.2198  -13.9929   19.5728 C   0  0  1  0  0  0  0  0  0  0  0  0
    9.7243  -14.0185   19.4149 C   0  0  0  0  0  0  0  0  0  0  0  0
   10.3128  -13.0626   20.4231 C   0  0  0  0  0  0  0  0  0  0  0  0
   11.7852  -13.0495   20.2774 C   0  0  0  0  0  0  0  0  0  0  0  0
   12.4783  -13.8151   20.9660 O   0  0  0  0  0  0  0  0  0  0  0  0
    7.7993  -14.6601   20.8423 C   0  0  0  0  0  0  0  0  0  0  0  0
    7.5095  -13.9802   21.8551 O   0  0  0  0  0  0  0  0  0  0  0  0
   12.4188  -12.2028   19.3894 O   0  0  0  0  0  0  0  0  0  0  0  0
    7.7082  -16.0686   20.9639 N   0  0  0  0  0  0  0  0  0  0  0  0
    7.2326  -16.7830   22.1117 C   0  0  1  0  0  0  0  0  0  0  0  0
    6.9911  -18.2178   21.7101 C   0  0  0  0  0  0  0  0  0  0  0  0
    6.4468  -19.0569   22.8105 C   0  0  0  0  0  0  0  0  0  0  0  0
    6.2199  -20.4939   22.4762 C   0  0  0  0  0  0  0  0  0  0  0  0
    5.5659  -21.1474   23.6856 C   0  0  0  0  0  0  0  0  0  0  0  0
    5.2944  -22.5395   23.4614 N   0  0  0  0  0  0  0  0  0  0  0  0
    8.1335  -16.7107   23.2678 C   0  0  0  0  0  0  0  0  0  0  0  0
    9.3537  -16.9068   23.1205 O   0  0  0  0  0  0  0  0  0  0  0  0
    7.1674  -10.2085   25.3127 O   0  0  0  0  0  0  0  0  0  0  0  0
    7.3469  -11.5253   25.6757 C   0  0  0  0  0  0  0  0  0  0  0  0
    6.2807  -12.1890   26.2571 C   0  0  0  0  0  0  0  0  0  0  0  0
    6.4451  -13.5193   26.6295 C   0  0  0  0  0  0  0  0  0  0  0  0
    7.6134  -14.2175   26.4524 C   0  0  0  0  0  0  0  0  0  0  0  0
    7.8045  -15.6255   26.8502 C   0  0  0  0  0  0  0  0  0  0  0  0
    8.4357  -16.3974   25.7583 C   0  0  2  0  0  0  0  0  0  0  0  0
    7.6243  -16.4198   24.5477 N   0  0  0  0  0  0  0  0  0  0  0  0
    8.6959  -17.7936   26.1241 C   0  0  0  0  0  0  0  0  0  0  0  0
    9.4542  -18.0693   27.0797 O   0  0  0  0  0  0  0  0  0  0  0  0
    8.6591  -13.5080   25.8631 C   0  0  0  0  0  0  0  0  0  0  0  0
    8.5481  -12.1917   25.4766 C   0  0  0  0  0  0  0  0  0  0  0  0
    8.1205  -18.8509   25.4358 O   0  0  0  0  0  0  0  0  0  0  0  0
  2  1  1  1
  3  2  1  0
  3  4  1  0
  5  9  1  0
  5  4  1  0
  6  5  2  0
  7  2  1  0
  7  8  2  0
 10  7  1  0
 11 10  1  0
 11 12  1  6
 13 12  1  0
 13 14  1  0
 14 15  1  0
 16 15  1  0
 17 26  1  0
 17 11  1  0
 18 17  2  0
 19 20  1  0
 20 30  2  0
 20 21  1  0
 21 22  2  0
 22 23  1  0
 23 24  1  0
 25 24  1  1
 25 26  1  0
 25 27  1  0
 27 31  1  0
 28 27  2  0
 29 23  2  0
 30 29  1  0
M  END
$$$$
