EKY.pdb
     RDKit          3D

 31 31  0  0  1  0  0  0  0  0999 V2000
   11.7001  -19.0216   18.3594 N   0  0  0  0  0  0  0  0  0  0  0  0
   11.3736  -17.6441   18.5710 C   0  0  1  0  0  0  0  0  0  0  0  0
   10.8335  -17.0247   17.3008 C   0  0  0  0  0  0  0  0  0  0  0  0
   11.5182  -17.6903   16.1326 C   0  0  0  0  0  0  0  0  0  0  0  0
   10.9328  -17.1813   14.8727 C   0  0  0  0  0  0  0  0  0  0  0  0
    9.7541  -17.4488   14.5899 O   0  0  0  0  0  0  0  0  0  0  0  0
   10.3941  -17.5158   19.6926 C   0  0  0  0  0  0  0  0  0  0  0  0
    9.9386  -16.3937   20.0169 O   0  0  0  0  0  0  0  0  0  0  0  0
   11.6650  -16.4096   13.9922 O   0  0  0  0  0  0  0  0  0  0  0  0
    9.9387  -18.6347   20.4327 N   0  0  0  0  0  0  0  0  0  0  0  0
    9.0634  -18.5911   21.5666 C   0  0  1  0  0  0  0  0  0  0  0  0
    8.5530  -19.9880   21.8250 C   0  0  0  0  0  0  0  0  0  0  0  0
    7.5094  -20.0507   22.8823 C   0  0  0  0  0  0  0  0  0  0  0  0
    6.9663  -21.4100   23.1749 C   0  0  0  0  0  0  0  0  0  0  0  0
    5.9368  -21.2621   24.2866 C   0  0  0  0  0  0  0  0  0  0  0  0
    5.3514  -22.5228   24.6464 N   0  0  0  0  0  0  0  0  0  0  0  0
    9.6859  -18.0331   22.7726 C   0  0  0  0  0  0  0  0  0  0  0  0
   10.8732  -18.2943   23.0391 O   0  0  0  0  0  0  0  0  0  0  0  0
   10.6260  -13.6645   30.3512 O   0  0  0  0  0  0  0  0  0  0  0  0
   10.1351  -14.1083   29.1430 C   0  0  0  0  0  0  0  0  0  0  0  0
    9.5099  -15.3425   29.1107 C   0  0  0  0  0  0  0  0  0  0  0  0
    9.0084  -15.8056   27.8985 C   0  0  0  0  0  0  0  0  0  0  0  0
    9.0987  -15.1035   26.7226 C   0  0  0  0  0  0  0  0  0  0  0  0
    8.5791  -15.5858   25.4287 C   0  0  0  0  0  0  0  0  0  0  0  0
    9.4915  -16.5886   24.8385 C   0  0  2  0  0  0  0  0  0  0  0  0
    8.9457  -17.2007   23.6335 N   0  0  0  0  0  0  0  0  0  0  0  0
    9.8139  -17.6800   25.7635 C   0  0  0  0  0  0  0  0  0  0  0  0
    8.9657  -18.5603   26.0279 O   0  0  0  0  0  0  0  0  0  0  0  0
    9.7362  -13.8660   26.8041 C   0  0  0  0  0  0  0  0  0  0  0  0
   10.2493  -13.3626   27.9778 C   0  0  0  0  0  0  0  0  0  0  0  0
   11.0545  -17.7802   26.3748 O   0  0  0  0  0  0  0  0  0  0  0  0
  2  1  1  6
  3  2  1  0
  3  4  1  0
  5  9  1  0
  5  4  1  0
  6  5  2  0
  7  2  1  0
  7  8  2  0
 10  7  1  0
 11 10  1  0
 11 12  1  1
 13 12  1  0
 13 14  1  0
 14 15  1  0
 16 15  1  0
 17 26  1  0
 17 11  1  0
 18 17  2  0
 19 20  1  0
 20 30  2  0
 20 21  1  0
 21 22  2  0
 22 23  1  0
 23 24  1  0
 25 24  1  1
 25 26  1  0
 25 27  1  0
 27 31  1  0
 28 27  2  0
 29 23  2  0
 30 29  1  0
M  END
$$$$
