EKY.pdb
     RDKit          3D

 31 31  0  0  1  0  0  0  0  0999 V2000
    9.6704  -15.7177   19.8221 N   0  0  0  0  0  0  0  0  0  0  0  0
    8.5294  -14.9571   20.2324 C   0  0  1  0  0  0  0  0  0  0  0  0
    7.6036  -14.7136   19.0607 C   0  0  0  0  0  0  0  0  0  0  0  0
    8.4394  -14.2274   17.9025 C   0  0  0  0  0  0  0  0  0  0  0  0
    7.5739  -14.0662   16.7134 C   0  0  0  0  0  0  0  0  0  0  0  0
    7.0355  -15.0623   16.2049 O   0  0  0  0  0  0  0  0  0  0  0  0
    7.8188  -15.6582   21.3447 C   0  0  0  0  0  0  0  0  0  0  0  0
    6.8108  -15.1426   21.8833 O   0  0  0  0  0  0  0  0  0  0  0  0
    7.3440  -12.8285   16.1458 O   0  0  0  0  0  0  0  0  0  0  0  0
    8.2399  -16.9176   21.8381 N   0  0  0  0  0  0  0  0  0  0  0  0
    7.6715  -17.6147   22.9538 C   0  0  1  0  0  0  0  0  0  0  0  0
    7.6487  -19.0888   22.6298 C   0  0  0  0  0  0  0  0  0  0  0  0
    7.0431  -19.9214   23.7025 C   0  0  0  0  0  0  0  0  0  0  0  0
    6.9099  -21.3759   23.3946 C   0  0  0  0  0  0  0  0  0  0  0  0
    6.2363  -22.0369   24.5891 C   0  0  0  0  0  0  0  0  0  0  0  0
    6.1324  -23.4597   24.4265 N   0  0  0  0  0  0  0  0  0  0  0  0
    8.3703  -17.3712   24.2210 C   0  0  0  0  0  0  0  0  0  0  0  0
    9.6118  -17.4432   24.2721 O   0  0  0  0  0  0  0  0  0  0  0  0
    7.4614  -10.6894   24.7305 O   0  0  0  0  0  0  0  0  0  0  0  0
    7.4379  -11.9012   25.3852 C   0  0  0  0  0  0  0  0  0  0  0  0
    8.6315  -12.5882   25.5213 C   0  0  0  0  0  0  0  0  0  0  0  0
    8.6254  -13.8136   26.1801 C   0  0  0  0  0  0  0  0  0  0  0  0
    7.4946  -14.3856   26.7070 C   0  0  0  0  0  0  0  0  0  0  0  0
    7.4719  -15.6878   27.4004 C   0  0  0  0  0  0  0  0  0  0  0  0
    8.2590  -16.6927   26.6540 C   0  0  2  0  0  0  0  0  0  0  0  0
    7.6425  -17.0553   25.3839 N   0  0  0  0  0  0  0  0  0  0  0  0
    8.4531  -17.9372   27.4053 C   0  0  0  0  0  0  0  0  0  0  0  0
    7.8685  -18.9868   27.0578 O   0  0  0  0  0  0  0  0  0  0  0  0
    6.3165  -13.6572   26.5459 C   0  0  0  0  0  0  0  0  0  0  0  0
    6.2687  -12.4412   25.9029 C   0  0  0  0  0  0  0  0  0  0  0  0
    9.2808  -18.0013   28.5159 O   0  0  0  0  0  0  0  0  0  0  0  0
  2  1  1  6
  3  2  1  0
  3  4  1  0
  5  9  1  0
  5  4  1  0
  6  5  2  0
  7  2  1  0
  7  8  2  0
 10  7  1  0
 11 10  1  0
 11 12  1  6
 13 12  1  0
 13 14  1  0
 14 15  1  0
 16 15  1  0
 17 26  1  0
 17 11  1  0
 18 17  2  0
 19 20  1  0
 20 30  2  0
 20 21  1  0
 21 22  2  0
 22 23  1  0
 23 24  1  0
 25 24  1  1
 25 26  1  0
 25 27  1  0
 27 31  1  0
 28 27  2  0
 29 23  2  0
 30 29  1  0
M  END
$$$$
