CYG.pdb
     RDKit          3D

 23 23  0  0  1  0  0  0  0  0999 V2000
   21.3108  -13.1104  -16.4983 N   0  0  0  0  0  0  0  0  0  0  0  0
   20.9922  -11.7474  -16.7800 C   0  0  1  0  0  0  0  0  0  0  0  0
   19.5156  -11.4979  -16.5881 C   0  0  0  0  0  0  0  0  0  0  0  0
   18.5353  -12.4811  -17.7256 S   0  0  0  0  0  0  0  0  0  0  0  0
   21.7661  -10.7788  -15.9833 C   0  0  0  0  0  0  0  0  0  0  0  0
   22.0469  -11.0799  -14.7953 O   0  0  0  0  0  0  0  0  0  0  0  0
   28.1786  -12.3130  -16.5861 O   0  0  0  0  0  0  0  0  0  0  0  0
   27.2205  -11.3184  -16.4586 C   0  0  0  0  0  0  0  0  0  0  0  0
   26.4588  -11.0350  -17.5667 C   0  0  0  0  0  0  0  0  0  0  0  0
   25.4806  -10.0435  -17.4937 C   0  0  0  0  0  0  0  0  0  0  0  0
   25.2536   -9.3342  -16.3342 C   0  0  0  0  0  0  0  0  0  0  0  0
   24.2446   -8.2921  -16.3079 C   0  0  0  0  0  0  0  0  0  0  0  0
   22.9562   -8.5882  -15.5965 C   0  0  2  0  0  0  0  0  0  0  0  0
   22.2167   -9.5274  -16.4668 N   0  0  0  0  0  0  0  0  0  0  0  0
   22.1523   -7.3508  -15.5359 C   0  0  0  0  0  0  0  0  0  0  0  0
   22.5880   -6.3552  -14.8658 O   0  0  0  0  0  0  0  0  0  0  0  0
   26.0329   -9.6398  -15.2376 C   0  0  0  0  0  0  0  0  0  0  0  0
   27.0108  -10.6285  -15.3050 C   0  0  0  0  0  0  0  0  0  0  0  0
   20.9056   -7.1572  -16.1741 N   0  0  0  0  0  0  0  0  0  0  0  0
   20.1726   -5.9199  -15.9817 C   0  0  0  0  0  0  0  0  0  0  0  0
   20.3375   -4.9894  -17.1056 C   0  0  0  0  0  0  0  0  0  0  0  0
   21.4888   -4.7914  -17.5497 O   0  0  0  0  0  0  0  0  0  0  0  0
   19.2384   -4.3509  -17.6540 O   0  0  0  0  0  0  0  0  0  0  0  0
  2  5  1  0
  2  1  1  1
  3  2  1  0
  4  3  1  0
  5  6  2  0
  8  7  1  0
  8 18  2  0
  9  8  1  0
 10  9  2  0
 10 11  1  0
 11 17  2  0
 12 11  1  0
 13 12  1  6
 14 13  1  0
 14  5  1  0
 15 19  1  0
 15 13  1  0
 16 15  2  0
 17 18  1  0
 20 21  1  0
 20 19  1  0
 21 23  1  0
 22 21  2  0
M  END
$$$$
