CYG.pdb
     RDKit          3D

 23 23  0  0  1  0  0  0  0  0999 V2000
   18.9282  -23.5396  -10.5821 N   0  0  0  0  0  0  0  0  0  0  0  0
   19.2418  -23.3478  -11.9617 C   0  0  1  0  0  0  0  0  0  0  0  0
   18.0243  -23.5911  -12.8207 C   0  0  0  0  0  0  0  0  0  0  0  0
   18.4259  -23.4804  -14.5666 S   0  0  0  0  0  0  0  0  0  0  0  0
   19.8047  -22.0199  -12.2647 C   0  0  0  0  0  0  0  0  0  0  0  0
   19.3768  -21.0332  -11.6135 O   0  0  0  0  0  0  0  0  0  0  0  0
   25.8223  -21.2524   -8.9522 O   0  0  0  0  0  0  0  0  0  0  0  0
   25.1212  -21.1218  -10.1416 C   0  0  0  0  0  0  0  0  0  0  0  0
   24.0528  -20.2577  -10.1488 C   0  0  0  0  0  0  0  0  0  0  0  0
   23.3128  -20.0883  -11.3188 C   0  0  0  0  0  0  0  0  0  0  0  0
   23.6239  -20.7673  -12.4770 C   0  0  0  0  0  0  0  0  0  0  0  0
   22.8123  -20.5832  -13.6653 C   0  0  0  0  0  0  0  0  0  0  0  0
   21.3315  -20.4201  -13.4787 C   0  0  2  0  0  0  0  0  0  0  0  0
   20.7984  -21.7790  -13.2431 N   0  0  0  0  0  0  0  0  0  0  0  0
   20.7418  -19.9525  -14.7494 C   0  0  0  0  0  0  0  0  0  0  0  0
   20.5852  -20.7815  -15.7077 O   0  0  0  0  0  0  0  0  0  0  0  0
   24.7014  -21.6281  -12.4409 C   0  0  0  0  0  0  0  0  0  0  0  0
   25.4435  -21.8009  -11.2756 C   0  0  0  0  0  0  0  0  0  0  0  0
   20.3172  -18.6297  -15.0124 N   0  0  0  0  0  0  0  0  0  0  0  0
   19.8087  -18.2746  -16.3240 C   0  0  0  0  0  0  0  0  0  0  0  0
   20.8592  -17.7637  -17.2137 C   0  0  0  0  0  0  0  0  0  0  0  0
   20.8266  -16.5580  -17.5413 O   0  0  0  0  0  0  0  0  0  0  0  0
   21.8580  -18.6044  -17.6740 O   0  0  0  0  0  0  0  0  0  0  0  0
  2  5  1  0
  2  1  1  1
  3  2  1  0
  4  3  1  0
  5  6  2  0
  8  7  1  0
  8 18  2  0
  9  8  1  0
 10  9  2  0
 10 11  1  0
 11 17  2  0
 12 11  1  0
 13 12  1  6
 14 13  1  0
 14  5  1  0
 15 19  1  0
 15 13  1  0
 16 15  2  0
 17 18  1  0
 20 21  1  0
 20 19  1  0
 21 23  1  0
 22 21  2  0
M  END
$$$$
