CYG.pdb
     RDKit          3D

 23 23  0  0  1  0  0  0  0  0999 V2000
   19.6767   -9.3622  -15.7663 N   0  0  0  0  0  0  0  0  0  0  0  0
   20.6732   -8.4700  -16.2657 C   0  0  1  0  0  0  0  0  0  0  0  0
   20.6807   -8.4756  -17.7754 C   0  0  0  0  0  0  0  0  0  0  0  0
   21.2528  -10.0508  -18.4183 S   0  0  0  0  0  0  0  0  0  0  0  0
   20.5326   -7.0871  -15.7760 C   0  0  0  0  0  0  0  0  0  0  0  0
   19.3721   -6.6228  -15.6394 O   0  0  0  0  0  0  0  0  0  0  0  0
   18.3476   -6.9116   -9.5319 O   0  0  0  0  0  0  0  0  0  0  0  0
   19.1766   -6.3819  -10.5094 C   0  0  0  0  0  0  0  0  0  0  0  0
   20.2601   -7.1365  -10.8899 C   0  0  0  0  0  0  0  0  0  0  0  0
   21.1266   -6.6512  -11.8691 C   0  0  0  0  0  0  0  0  0  0  0  0
   20.9267   -5.4278  -12.4712 C   0  0  0  0  0  0  0  0  0  0  0  0
   21.8667   -4.9476  -13.4664 C   0  0  0  0  0  0  0  0  0  0  0  0
   21.4017   -4.8896  -14.8927 C   0  0  2  0  0  0  0  0  0  0  0  0
   21.6198   -6.2426  -15.4477 N   0  0  0  0  0  0  0  0  0  0  0  0
   22.2892   -3.9796  -15.6445 C   0  0  0  0  0  0  0  0  0  0  0  0
   23.4960   -4.3299  -15.8707 O   0  0  0  0  0  0  0  0  0  0  0  0
   19.8310   -4.6918  -12.0698 C   0  0  0  0  0  0  0  0  0  0  0  0
   18.9629   -5.1715  -11.0927 C   0  0  0  0  0  0  0  0  0  0  0  0
   21.9151   -2.7162  -16.1572 N   0  0  0  0  0  0  0  0  0  0  0  0
   22.8853   -1.8988  -16.8611 C   0  0  0  0  0  0  0  0  0  0  0  0
   22.3493   -0.5816  -17.2271 C   0  0  0  0  0  0  0  0  0  0  0  0
   23.1299    0.2630  -17.7166 O   0  0  0  0  0  0  0  0  0  0  0  0
   21.0101   -0.2907  -17.0314 O   0  0  0  0  0  0  0  0  0  0  0  0
  2  5  1  0
  2  1  1  6
  3  2  1  0
  4  3  1  0
  5  6  2  0
  8  7  1  0
  8 18  2  0
  9  8  1  0
 10  9  2  0
 10 11  1  0
 11 17  2  0
 12 11  1  0
 13 12  1  1
 14 13  1  0
 14  5  1  0
 15 19  1  0
 15 13  1  0
 16 15  2  0
 17 18  1  0
 20 21  1  0
 20 19  1  0
 21 23  1  0
 22 21  2  0
M  END
$$$$
