CYG.pdb
     RDKit          3D

 23 23  0  0  1  0  0  0  0  0999 V2000
   23.1896  -33.3226  -14.5335 N   0  0  0  0  0  0  0  0  0  0  0  0
   23.7154  -33.9562  -13.3670 C   0  0  1  0  0  0  0  0  0  0  0  0
   24.8905  -34.8339  -13.7248 C   0  0  0  0  0  0  0  0  0  0  0  0
   24.6980  -36.4868  -13.0521 S   0  0  0  0  0  0  0  0  0  0  0  0
   24.1063  -33.0139  -12.3034 C   0  0  0  0  0  0  0  0  0  0  0  0
   24.6524  -31.9331  -12.6418 O   0  0  0  0  0  0  0  0  0  0  0  0
   20.1205  -27.8234  -12.0373 O   0  0  0  0  0  0  0  0  0  0  0  0
   20.7980  -28.8363  -11.3751 C   0  0  0  0  0  0  0  0  0  0  0  0
   21.8411  -28.4657  -10.5609 C   0  0  0  0  0  0  0  0  0  0  0  0
   22.5567  -29.4442   -9.8713 C   0  0  0  0  0  0  0  0  0  0  0  0
   22.2462  -30.7822   -9.9831 C   0  0  0  0  0  0  0  0  0  0  0  0
   23.0327  -31.7708   -9.2698 C   0  0  0  0  0  0  0  0  0  0  0  0
   24.3064  -32.2414   -9.9102 C   0  0  2  0  0  0  0  0  0  0  0  0
   23.9080  -33.2440  -10.9212 N   0  0  0  0  0  0  0  0  0  0  0  0
   25.1083  -32.9602   -8.8995 C   0  0  0  0  0  0  0  0  0  0  0  0
   24.8647  -34.1923   -8.6701 O   0  0  0  0  0  0  0  0  0  0  0  0
   21.1945  -31.1253  -10.8074 C   0  0  0  0  0  0  0  0  0  0  0  0
   20.4768  -30.1526  -11.4981 C   0  0  0  0  0  0  0  0  0  0  0  0
   26.1574  -32.3945   -8.1390 N   0  0  0  0  0  0  0  0  0  0  0  0
   26.8980  -33.2125   -7.1971 C   0  0  0  0  0  0  0  0  0  0  0  0
   26.1889  -33.3824   -5.9225 C   0  0  0  0  0  0  0  0  0  0  0  0
   26.7960  -33.9194   -4.9712 O   0  0  0  0  0  0  0  0  0  0  0  0
   24.8792  -32.9551   -5.7867 O   0  0  0  0  0  0  0  0  0  0  0  0
  2  5  1  0
  2  1  1  6
  3  2  1  0
  4  3  1  0
  5  6  2  0
  8  7  1  0
  8 18  2  0
  9  8  1  0
 10  9  2  0
 10 11  1  0
 11 17  2  0
 12 11  1  0
 13 12  1  1
 14 13  1  0
 14  5  1  0
 15 19  1  0
 15 13  1  0
 16 15  2  0
 17 18  1  0
 20 21  1  0
 20 19  1  0
 21 23  1  0
 22 21  2  0
M  END
$$$$
