CYG.pdb
     RDKit          3D

 23 23  0  0  1  0  0  0  0  0999 V2000
   27.2501  -22.6974  -17.1881 N   0  0  0  0  0  0  0  0  0  0  0  0
   26.7370  -21.5774  -16.4664 C   0  0  1  0  0  0  0  0  0  0  0  0
   25.4698  -21.0680  -17.1098 C   0  0  0  0  0  0  0  0  0  0  0  0
   25.8294  -20.0766  -18.5622 S   0  0  0  0  0  0  0  0  0  0  0  0
   26.4927  -21.8509  -15.0390 C   0  0  0  0  0  0  0  0  0  0  0  0
   26.0174  -22.9715  -14.7241 O   0  0  0  0  0  0  0  0  0  0  0  0
   27.2006  -20.5599   -6.1592 O   0  0  0  0  0  0  0  0  0  0  0  0
   27.2259  -20.5409   -7.5457 C   0  0  0  0  0  0  0  0  0  0  0  0
   28.3833  -20.9576   -8.1581 C   0  0  0  0  0  0  0  0  0  0  0  0
   28.4630  -20.9587   -9.5505 C   0  0  0  0  0  0  0  0  0  0  0  0
   27.4070  -20.5510  -10.3365 C   0  0  0  0  0  0  0  0  0  0  0  0
   27.5401  -20.5417  -11.7811 C   0  0  0  0  0  0  0  0  0  0  0  0
   26.5108  -21.2875  -12.5800 C   0  0  2  0  0  0  0  0  0  0  0  0
   26.7579  -20.9338  -13.9943 N   0  0  0  0  0  0  0  0  0  0  0  0
   25.1737  -20.7587  -12.2427 C   0  0  0  0  0  0  0  0  0  0  0  0
   24.8133  -19.6270  -12.7111 O   0  0  0  0  0  0  0  0  0  0  0  0
   26.2577  -20.1379   -9.6949 C   0  0  0  0  0  0  0  0  0  0  0  0
   26.1728  -20.1348   -8.3052 C   0  0  0  0  0  0  0  0  0  0  0  0
   24.2222  -21.4109  -11.4252 N   0  0  0  0  0  0  0  0  0  0  0  0
   22.9880  -20.7387  -11.0648 C   0  0  0  0  0  0  0  0  0  0  0  0
   21.8605  -21.1419  -11.9148 C   0  0  0  0  0  0  0  0  0  0  0  0
   20.7213  -20.7099  -11.6359 O   0  0  0  0  0  0  0  0  0  0  0  0
   22.0635  -21.9808  -12.9971 O   0  0  0  0  0  0  0  0  0  0  0  0
  2  5  1  0
  2  1  1  6
  3  2  1  0
  4  3  1  0
  5  6  2  0
  8  7  1  0
  8 18  2  0
  9  8  1  0
 10  9  2  0
 10 11  1  0
 11 17  2  0
 12 11  1  0
 13 12  1  1
 14 13  1  0
 14  5  1  0
 15 19  1  0
 15 13  1  0
 16 15  2  0
 17 18  1  0
 20 21  1  0
 20 19  1  0
 21 23  1  0
 22 21  2  0
M  END
$$$$
