NFH.pdb
     RDKit          3D

 30 31  0  0  1  0  0  0  0  0999 V2000
   33.5692  -29.1304  -20.7989 N   0  0  0  0  0  0  0  0  0  0  0  0
   33.0259  -30.1675  -21.6173 C   0  0  0  0  0  0  0  0  0  0  0  0
   33.0596  -30.0624  -22.8613 O   0  0  0  0  0  0  0  0  0  0  0  0
   32.4328  -31.3496  -20.9309 C   0  0  0  0  0  0  0  0  0  0  0  0
   32.5193  -31.1457  -19.4304 C   0  0  2  0  0  0  0  0  0  0  0  0
   33.7876  -31.6357  -18.9608 N   0  0  0  0  0  0  0  0  0  0  0  0
   31.4348  -31.8679  -18.7204 C   0  0  0  0  0  0  0  0  0  0  0  0
   31.3320  -33.1281  -18.7809 O   0  0  0  0  0  0  0  0  0  0  0  0
   30.4564  -31.1772  -17.9359 N   0  0  0  0  0  0  0  0  0  0  0  0
   29.3551  -31.8410  -17.2983 C   0  0  1  0  0  0  0  0  0  0  0  0
   28.7504  -30.9211  -16.2620 C   0  0  0  0  0  0  0  0  0  0  0  0
   27.6418  -31.5804  -15.5311 C   0  0  0  0  0  0  0  0  0  0  0  0
   27.8451  -32.5677  -14.5998 C   0  0  0  0  0  0  0  0  0  0  0  0
   26.7988  -33.1575  -13.9411 C   0  0  0  0  0  0  0  0  0  0  0  0
   25.5047  -32.7418  -14.2273 C   0  0  0  0  0  0  0  0  0  0  0  0
   25.2708  -31.7612  -15.1495 C   0  0  0  0  0  0  0  0  0  0  0  0
   26.3435  -31.1924  -15.7903 C   0  0  0  0  0  0  0  0  0  0  0  0
   28.2653  -32.1665  -18.2784 C   0  0  0  0  0  0  0  0  0  0  0  0
   27.8878  -31.2393  -19.0348 O   0  0  0  0  0  0  0  0  0  0  0  0
   27.7419  -33.4870  -18.2825 N   0  0  0  0  0  0  0  0  0  0  0  0
   26.6413  -33.7472  -19.2316 C   0  0  1  0  0  0  0  0  0  0  0  0
   27.0447  -34.9420  -19.9915 C   0  0  0  0  0  0  0  0  0  0  0  0
   26.1344  -35.4342  -21.0211 C   0  0  0  0  0  0  0  0  0  0  0  0
   25.3837  -34.5302  -21.7864 C   0  0  0  0  0  0  0  0  0  0  0  0
   24.6463  -35.2454  -22.6408 N   0  0  0  0  0  0  0  0  0  0  0  0
   24.8865  -36.5557  -22.4613 C   0  0  0  0  0  0  0  0  0  0  0  0
   25.7923  -36.6294  -21.4728 N   0  0  0  0  0  0  0  0  0  0  0  0
   25.3590  -33.7673  -18.5445 C   0  0  0  0  0  0  0  0  0  0  0  0
   24.1749  -33.7430  -19.2500 O   0  0  0  0  0  0  0  0  0  0  0  0
   25.2906  -33.8081  -17.3025 O   0  0  0  0  0  0  0  0  0  0  0  0
  1  2  1  0
  2  3  2  0
  4  2  1  0
  4  5  1  0
  5  7  1  0
  5  6  1  1
  7  8  2  0
  9 10  1  0
  9  7  1  0
 10 11  1  1
 12 13  2  0
 12 11  1  0
 14 13  1  0
 15 14  2  0
 16 15  1  0
 16 17  2  0
 17 12  1  0
 18 10  1  0
 19 18  2  0
 20 18  1  0
 21 22  1  1
 21 20  1  0
 23 22  1  0
 24 23  2  0
 25 26  1  0
 25 24  1  0
 26 27  2  0
 27 23  1  0
 28 29  1  0
 28 21  1  0
 30 28  2  0
M  END
$$$$
