NFH.pdb
     RDKit          3D

 30 31  0  0  1  0  0  0  0  0999 V2000
   27.7861  -21.4352  -18.8805 N   0  0  0  0  0  0  0  0  0  0  0  0
   26.4374  -21.8234  -19.1465 C   0  0  0  0  0  0  0  0  0  0  0  0
   25.9533  -21.6554  -20.2854 O   0  0  0  0  0  0  0  0  0  0  0  0
   25.6577  -22.4228  -18.0272 C   0  0  0  0  0  0  0  0  0  0  0  0
   26.5305  -22.4742  -16.7878 C   0  0  2  0  0  0  0  0  0  0  0  0
   27.3687  -23.6417  -16.8501 N   0  0  0  0  0  0  0  0  0  0  0  0
   25.7141  -22.5371  -15.5504 C   0  0  0  0  0  0  0  0  0  0  0  0
   25.1934  -23.6220  -15.1580 O   0  0  0  0  0  0  0  0  0  0  0  0
   25.4769  -21.3783  -14.7437 N   0  0  0  0  0  0  0  0  0  0  0  0
   24.5893  -21.3793  -13.6157 C   0  0  1  0  0  0  0  0  0  0  0  0
   24.9044  -20.1940  -12.7317 C   0  0  0  0  0  0  0  0  0  0  0  0
   24.0980  -20.2143  -11.4878 C   0  0  0  0  0  0  0  0  0  0  0  0
   22.8271  -19.7016  -11.4140 C   0  0  0  0  0  0  0  0  0  0  0  0
   22.1075  -19.7357  -10.2489 C   0  0  0  0  0  0  0  0  0  0  0  0
   22.6837  -20.3038   -9.1198 C   0  0  0  0  0  0  0  0  0  0  0  0
   23.9470  -20.8223   -9.1625 C   0  0  0  0  0  0  0  0  0  0  0  0
   24.6388  -20.7709  -10.3472 C   0  0  0  0  0  0  0  0  0  0  0  0
   23.1567  -21.2346  -14.0412 C   0  0  0  0  0  0  0  0  0  0  0  0
   22.9049  -20.3468  -14.8914 O   0  0  0  0  0  0  0  0  0  0  0  0
   22.1950  -22.1028  -13.4589 N   0  0  0  0  0  0  0  0  0  0  0  0
   20.7966  -21.9063  -13.8896 C   0  0  1  0  0  0  0  0  0  0  0  0
   20.3332  -23.2249  -14.3527 C   0  0  0  0  0  0  0  0  0  0  0  0
   20.5889  -23.5872  -15.7434 C   0  0  0  0  0  0  0  0  0  0  0  0
   21.2094  -22.6720  -16.6058 C   0  0  0  0  0  0  0  0  0  0  0  0
   21.3176  -23.2589  -17.8012 N   0  0  0  0  0  0  0  0  0  0  0  0
   20.7998  -24.4981  -17.7472 C   0  0  0  0  0  0  0  0  0  0  0  0
   20.3691  -24.6598  -16.4856 N   0  0  0  0  0  0  0  0  0  0  0  0
   20.0273  -21.2286  -12.8572 C   0  0  0  0  0  0  0  0  0  0  0  0
   19.9605  -21.7321  -11.5757 O   0  0  0  0  0  0  0  0  0  0  0  0
   19.4081  -20.1760  -13.0973 O   0  0  0  0  0  0  0  0  0  0  0  0
  1  2  1  0
  2  3  2  0
  4  2  1  0
  4  5  1  0
  5  7  1  0
  5  6  1  6
  7  8  2  0
  9 10  1  0
  9  7  1  0
 10 11  1  1
 12 13  2  0
 12 11  1  0
 14 13  1  0
 15 14  2  0
 16 15  1  0
 16 17  2  0
 17 12  1  0
 18 10  1  0
 19 18  2  0
 20 18  1  0
 21 22  1  1
 21 20  1  0
 23 22  1  0
 24 23  2  0
 25 26  1  0
 25 24  1  0
 26 27  2  0
 27 23  1  0
 28 29  1  0
 28 21  1  0
 30 28  2  0
M  END
$$$$
