NFH.pdb
     RDKit          3D

 30 31  0  0  1  0  0  0  0  0999 V2000
   14.3327  -19.0813    3.2745 N   0  0  0  0  0  0  0  0  0  0  0  0
   14.8270  -19.9785    4.2702 C   0  0  0  0  0  0  0  0  0  0  0  0
   14.2016  -21.0279    4.5297 O   0  0  0  0  0  0  0  0  0  0  0  0
   16.0923  -19.6096    4.9653 C   0  0  0  0  0  0  0  0  0  0  0  0
   16.5512  -18.2514    4.4701 C   0  0  2  0  0  0  0  0  0  0  0  0
   16.9934  -18.3718    3.1066 N   0  0  0  0  0  0  0  0  0  0  0  0
   17.6691  -17.7231    5.2906 C   0  0  0  0  0  0  0  0  0  0  0  0
   18.8745  -17.9958    5.0168 O   0  0  0  0  0  0  0  0  0  0  0  0
   17.4394  -16.8829    6.4268 N   0  0  0  0  0  0  0  0  0  0  0  0
   18.5014  -16.2785    7.1798 C   0  0  1  0  0  0  0  0  0  0  0  0
   18.1016  -14.8727    7.5663 C   0  0  0  0  0  0  0  0  0  0  0  0
   18.6198  -13.8753    6.5995 C   0  0  0  0  0  0  0  0  0  0  0  0
   19.8332  -13.2517    6.7489 C   0  0  0  0  0  0  0  0  0  0  0  0
   20.2840  -12.3340    5.8374 C   0  0  0  0  0  0  0  0  0  0  0  0
   19.4895  -12.0324    4.7386 C   0  0  0  0  0  0  0  0  0  0  0  0
   18.2769  -12.6369    4.5627 C   0  0  0  0  0  0  0  0  0  0  0  0
   17.8571  -13.5516    5.4964 C   0  0  0  0  0  0  0  0  0  0  0  0
   18.7637  -17.0220    8.4576 C   0  0  0  0  0  0  0  0  0  0  0  0
   17.7904  -17.6224    8.9740 O   0  0  0  0  0  0  0  0  0  0  0  0
   20.0808  -16.9952    8.9888 N   0  0  0  0  0  0  0  0  0  0  0  0
   20.3033  -17.7861   10.2155 C   0  0  1  0  0  0  0  0  0  0  0  0
   21.6347  -18.3954   10.0607 C   0  0  0  0  0  0  0  0  0  0  0  0
   22.7995  -17.5206   10.1546 C   0  0  0  0  0  0  0  0  0  0  0  0
   22.8062  -16.4540   11.0649 C   0  0  0  0  0  0  0  0  0  0  0  0
   23.9804  -15.8288   10.9398 N   0  0  0  0  0  0  0  0  0  0  0  0
   24.7219  -16.4392    9.9994 C   0  0  0  0  0  0  0  0  0  0  0  0
   23.9731  -17.4581    9.5477 N   0  0  0  0  0  0  0  0  0  0  0  0
   20.0455  -16.9845   11.4021 C   0  0  0  0  0  0  0  0  0  0  0  0
   20.0553  -17.5521   12.6583 O   0  0  0  0  0  0  0  0  0  0  0  0
   19.8097  -15.7651   11.3209 O   0  0  0  0  0  0  0  0  0  0  0  0
  1  2  1  0
  2  3  2  0
  4  2  1  0
  4  5  1  0
  5  7  1  0
  5  6  1  6
  7  8  2  0
  9 10  1  0
  9  7  1  0
 10 11  1  1
 12 13  2  0
 12 11  1  0
 14 13  1  0
 15 14  2  0
 16 15  1  0
 16 17  2  0
 17 12  1  0
 18 10  1  0
 19 18  2  0
 20 18  1  0
 21 22  1  1
 21 20  1  0
 23 22  1  0
 24 23  2  0
 25 26  1  0
 25 24  1  0
 26 27  2  0
 27 23  1  0
 28 29  1  0
 28 21  1  0
 30 28  2  0
M  END
$$$$
