NFH.pdb
     RDKit          3D

 30 31  0  0  1  0  0  0  0  0999 V2000
   18.0693  -13.9081  -13.5665 N   0  0  0  0  0  0  0  0  0  0  0  0
   17.7480  -14.6719  -14.7301 C   0  0  0  0  0  0  0  0  0  0  0  0
   16.6996  -15.3498  -14.7611 O   0  0  0  0  0  0  0  0  0  0  0  0
   18.7008  -14.6208  -15.8745 C   0  0  0  0  0  0  0  0  0  0  0  0
   19.8924  -13.7655  -15.4887 C   0  0  2  0  0  0  0  0  0  0  0  0
   19.6623  -12.4136  -15.9232 N   0  0  0  0  0  0  0  0  0  0  0  0
   21.1431  -14.2624  -16.1137 C   0  0  0  0  0  0  0  0  0  0  0  0
   21.2373  -14.4200  -17.3661 O   0  0  0  0  0  0  0  0  0  0  0  0
   22.2991  -14.5864  -15.3335 N   0  0  0  0  0  0  0  0  0  0  0  0
   23.4914  -15.1503  -15.8996 C   0  0  1  0  0  0  0  0  0  0  0  0
   24.6123  -15.0652  -14.8886 C   0  0  0  0  0  0  0  0  0  0  0  0
   25.8363  -15.7449  -15.3760 C   0  0  0  0  0  0  0  0  0  0  0  0
   26.3440  -16.8778  -14.7909 C   0  0  0  0  0  0  0  0  0  0  0  0
   27.4778  -17.4826  -15.2654 C   0  0  0  0  0  0  0  0  0  0  0  0
   28.1236  -16.9310  -16.3646 C   0  0  0  0  0  0  0  0  0  0  0  0
   27.6421  -15.8039  -16.9683 C   0  0  0  0  0  0  0  0  0  0  0  0
   26.5034  -15.2246  -16.4658 C   0  0  0  0  0  0  0  0  0  0  0  0
   23.3119  -16.6046  -16.2271 C   0  0  0  0  0  0  0  0  0  0  0  0
   22.8320  -17.3335  -15.3254 O   0  0  0  0  0  0  0  0  0  0  0  0
   23.6932  -17.0510  -17.5205 N   0  0  0  0  0  0  0  0  0  0  0  0
   23.5127  -18.4912  -17.7905 C   0  0  1  0  0  0  0  0  0  0  0  0
   22.1270  -18.6369  -18.2662 C   0  0  0  0  0  0  0  0  0  0  0  0
   21.7109  -19.9450  -18.7626 C   0  0  0  0  0  0  0  0  0  0  0  0
   21.7536  -21.0637  -17.9181 C   0  0  0  0  0  0  0  0  0  0  0  0
   21.3232  -22.1138  -18.6233 N   0  0  0  0  0  0  0  0  0  0  0  0
   21.0087  -21.7249  -19.8709 C   0  0  0  0  0  0  0  0  0  0  0  0
   21.2568  -20.4060  -19.9163 N   0  0  0  0  0  0  0  0  0  0  0  0
   24.5870  -18.9991  -18.6302 C   0  0  0  0  0  0  0  0  0  0  0  0
   24.9524  -20.3277  -18.5895 O   0  0  0  0  0  0  0  0  0  0  0  0
   25.2072  -18.2530  -19.4097 O   0  0  0  0  0  0  0  0  0  0  0  0
  1  2  1  0
  2  3  2  0
  4  2  1  0
  4  5  1  0
  5  7  1  0
  5  6  1  6
  7  8  2  0
  9 10  1  0
  9  7  1  0
 10 11  1  1
 12 13  2  0
 12 11  1  0
 14 13  1  0
 15 14  2  0
 16 15  1  0
 16 17  2  0
 17 12  1  0
 18 10  1  0
 19 18  2  0
 20 18  1  0
 21 22  1  6
 21 20  1  0
 23 22  1  0
 24 23  2  0
 25 26  1  0
 25 24  1  0
 26 27  2  0
 27 23  1  0
 28 29  1  0
 28 21  1  0
 30 28  2  0
M  END
$$$$
