NFH.pdb
     RDKit          3D

 30 31  0  0  1  0  0  0  0  0999 V2000
   28.6902  -23.4482  -20.4049 N   0  0  0  0  0  0  0  0  0  0  0  0
   28.0232  -22.3989  -19.7015 C   0  0  0  0  0  0  0  0  0  0  0  0
   28.0877  -21.2255  -20.1243 O   0  0  0  0  0  0  0  0  0  0  0  0
   27.2667  -22.7646  -18.4710 C   0  0  0  0  0  0  0  0  0  0  0  0
   27.6232  -21.7918  -17.3633 C   0  0  2  0  0  0  0  0  0  0  0  0
   28.9333  -22.1091  -16.8613 N   0  0  0  0  0  0  0  0  0  0  0  0
   26.6517  -21.8630  -16.2439 C   0  0  0  0  0  0  0  0  0  0  0  0
   26.2061  -22.9719  -15.8270 O   0  0  0  0  0  0  0  0  0  0  0  0
   26.1736  -20.6858  -15.5842 N   0  0  0  0  0  0  0  0  0  0  0  0
   25.4050  -20.7262  -14.3726 C   0  0  1  0  0  0  0  0  0  0  0  0
   26.0231  -19.7908  -13.3583 C   0  0  0  0  0  0  0  0  0  0  0  0
   27.2561  -20.3661  -12.7694 C   0  0  0  0  0  0  0  0  0  0  0  0
   27.2410  -21.2309  -11.7039 C   0  0  0  0  0  0  0  0  0  0  0  0
   28.3984  -21.7455  -11.1825 C   0  0  0  0  0  0  0  0  0  0  0  0
   29.6121  -21.3792  -11.7503 C   0  0  0  0  0  0  0  0  0  0  0  0
   29.6591  -20.5202  -12.8116 C   0  0  0  0  0  0  0  0  0  0  0  0
   28.4792  -20.0241  -13.3082 C   0  0  0  0  0  0  0  0  0  0  0  0
   23.9973  -20.2545  -14.5966 C   0  0  0  0  0  0  0  0  0  0  0  0
   23.8538  -19.1750  -15.2199 O   0  0  0  0  0  0  0  0  0  0  0  0
   22.9361  -21.0535  -14.0935 N   0  0  0  0  0  0  0  0  0  0  0  0
   21.5693  -20.5843  -14.3960 C   0  0  1  0  0  0  0  0  0  0  0  0
   20.7538  -21.8013  -14.5432 C   0  0  0  0  0  0  0  0  0  0  0  0
   20.8166  -22.5139  -15.8156 C   0  0  0  0  0  0  0  0  0  0  0  0
   21.5167  -21.9607  -16.8975 C   0  0  0  0  0  0  0  0  0  0  0  0
   21.4109  -22.8137  -17.9204 N   0  0  0  0  0  0  0  0  0  0  0  0
   20.6817  -23.8800  -17.5491 C   0  0  0  0  0  0  0  0  0  0  0  0
   20.3403  -23.6616  -16.2689 N   0  0  0  0  0  0  0  0  0  0  0  0
   21.1419  -19.5801  -13.4339 C   0  0  0  0  0  0  0  0  0  0  0  0
   20.1997  -18.6312  -13.7691 O   0  0  0  0  0  0  0  0  0  0  0  0
   21.6108  -19.5466  -12.2815 O   0  0  0  0  0  0  0  0  0  0  0  0
  1  2  1  0
  2  3  2  0
  4  2  1  0
  4  5  1  0
  5  7  1  0
  5  6  1  1
  7  8  2  0
  9 10  1  0
  9  7  1  0
 10 11  1  1
 12 13  2  0
 12 11  1  0
 14 13  1  0
 15 14  2  0
 16 15  1  0
 16 17  2  0
 17 12  1  0
 18 10  1  0
 19 18  2  0
 20 18  1  0
 21 22  1  1
 21 20  1  0
 23 22  1  0
 24 23  2  0
 25 26  1  0
 25 24  1  0
 26 27  2  0
 27 23  1  0
 28 29  1  0
 28 21  1  0
 30 28  2  0
M  END
$$$$
