NFH.pdb
     RDKit          3D

 30 31  0  0  1  0  0  0  0  0999 V2000
   27.3542   -3.1659  -22.2191 N   0  0  0  0  0  0  0  0  0  0  0  0
   26.5655   -4.0739  -22.9899 C   0  0  0  0  0  0  0  0  0  0  0  0
   25.9257   -3.6593  -23.9792 O   0  0  0  0  0  0  0  0  0  0  0  0
   26.5448   -5.5022  -22.5661 C   0  0  0  0  0  0  0  0  0  0  0  0
   27.3874   -5.6595  -21.3148 C   0  0  2  0  0  0  0  0  0  0  0  0
   28.7660   -5.8211  -21.6924 N   0  0  0  0  0  0  0  0  0  0  0  0
   26.9670   -6.8411  -20.5217 C   0  0  0  0  0  0  0  0  0  0  0  0
   27.1558   -8.0195  -20.9432 O   0  0  0  0  0  0  0  0  0  0  0  0
   26.3303   -6.7058  -19.2465 N   0  0  0  0  0  0  0  0  0  0  0  0
   25.9781   -7.8291  -18.4254 C   0  0  1  0  0  0  0  0  0  0  0  0
   26.4937   -7.6028  -17.0223 C   0  0  0  0  0  0  0  0  0  0  0  0
   26.2675   -8.7891  -16.1624 C   0  0  0  0  0  0  0  0  0  0  0  0
   27.0668   -9.9040  -16.2039 C   0  0  0  0  0  0  0  0  0  0  0  0
   26.8312  -10.9847  -15.3958 C   0  0  0  0  0  0  0  0  0  0  0  0
   25.7567  -10.9444  -14.5164 C   0  0  0  0  0  0  0  0  0  0  0  0
   24.9434   -9.8485  -14.4524 C   0  0  0  0  0  0  0  0  0  0  0  0
   25.2095   -8.7837  -15.2771 C   0  0  0  0  0  0  0  0  0  0  0  0
   24.4890   -7.9897  -18.3199 C   0  0  0  0  0  0  0  0  0  0  0  0
   23.8244   -6.9567  -18.0632 O   0  0  0  0  0  0  0  0  0  0  0  0
   23.9403   -9.2851  -18.5157 N   0  0  0  0  0  0  0  0  0  0  0  0
   22.4682   -9.3827  -18.4611 C   0  0  1  0  0  0  0  0  0  0  0  0
   22.1248  -10.6277  -19.1681 C   0  0  0  0  0  0  0  0  0  0  0  0
   20.7136  -10.9866  -19.2698 C   0  0  0  0  0  0  0  0  0  0  0  0
   19.7377  -10.1803  -18.6666 C   0  0  0  0  0  0  0  0  0  0  0  0
   18.5491  -10.7375  -18.9150 N   0  0  0  0  0  0  0  0  0  0  0  0
   18.7146  -11.8548  -19.6437 C   0  0  0  0  0  0  0  0  0  0  0  0
   20.0381  -11.9718  -19.8380 N   0  0  0  0  0  0  0  0  0  0  0  0
   21.9879   -9.2085  -17.0988 C   0  0  0  0  0  0  0  0  0  0  0  0
   20.8487   -8.4783  -16.8353 O   0  0  0  0  0  0  0  0  0  0  0  0
   22.5878   -9.7122  -16.1315 O   0  0  0  0  0  0  0  0  0  0  0  0
  1  2  1  0
  2  3  2  0
  4  2  1  0
  4  5  1  0
  5  7  1  0
  5  6  1  6
  7  8  2  0
  9 10  1  0
  9  7  1  0
 10 11  1  1
 12 13  2  0
 12 11  1  0
 14 13  1  0
 15 14  2  0
 16 15  1  0
 16 17  2  0
 17 12  1  0
 18 10  1  0
 19 18  2  0
 20 18  1  0
 21 22  1  1
 21 20  1  0
 23 22  1  0
 24 23  2  0
 25 26  1  0
 25 24  1  0
 26 27  2  0
 27 23  1  0
 28 29  1  0
 28 21  1  0
 30 28  2  0
M  END
$$$$
