NFH.pdb
     RDKit          3D

 30 31  0  0  1  0  0  0  0  0999 V2000
   28.2149  -18.4475  -14.6582 N   0  0  0  0  0  0  0  0  0  0  0  0
   26.9719  -19.1436  -14.5529 C   0  0  0  0  0  0  0  0  0  0  0  0
   26.2299  -19.2493  -15.5519 O   0  0  0  0  0  0  0  0  0  0  0  0
   26.6144  -19.7217  -13.2271 C   0  0  0  0  0  0  0  0  0  0  0  0
   27.7821  -20.5421  -12.7135 C   0  0  2  0  0  0  0  0  0  0  0  0
   27.9718  -21.6805  -13.5722 N   0  0  0  0  0  0  0  0  0  0  0  0
   27.5428  -21.0214  -11.3298 C   0  0  0  0  0  0  0  0  0  0  0  0
   26.6718  -21.9049  -11.0791 O   0  0  0  0  0  0  0  0  0  0  0  0
   28.2825  -20.5097  -10.2158 N   0  0  0  0  0  0  0  0  0  0  0  0
   27.8801  -20.7085   -8.8525 C   0  0  1  0  0  0  0  0  0  0  0  0
   28.8509  -19.9978   -7.9370 C   0  0  0  0  0  0  0  0  0  0  0  0
   28.4230  -20.0827   -6.5201 C   0  0  0  0  0  0  0  0  0  0  0  0
   28.7105  -21.1578   -5.7170 C   0  0  0  0  0  0  0  0  0  0  0  0
   28.3005  -21.2061   -4.4108 C   0  0  0  0  0  0  0  0  0  0  0  0
   27.5775  -20.1386   -3.8938 C   0  0  0  0  0  0  0  0  0  0  0  0
   27.2760  -19.0546   -4.6688 C   0  0  0  0  0  0  0  0  0  0  0  0
   27.7031  -19.0404   -5.9735 C   0  0  0  0  0  0  0  0  0  0  0  0
   26.5239  -20.1216   -8.5866 C   0  0  0  0  0  0  0  0  0  0  0  0
   26.3335  -18.9405   -8.9651 O   0  0  0  0  0  0  0  0  0  0  0  0
   25.5600  -20.9341   -7.9322 N   0  0  0  0  0  0  0  0  0  0  0  0
   24.1454  -20.6210   -8.2162 C   0  0  1  0  0  0  0  0  0  0  0  0
   24.0167  -20.6535   -9.6826 C   0  0  0  0  0  0  0  0  0  0  0  0
   22.7095  -20.3532  -10.2587 C   0  0  0  0  0  0  0  0  0  0  0  0
   21.6372  -20.0039   -9.4253 C   0  0  0  0  0  0  0  0  0  0  0  0
   20.5769  -19.7851  -10.2082 N   0  0  0  0  0  0  0  0  0  0  0  0
   20.9155  -19.9760  -11.4950 C   0  0  0  0  0  0  0  0  0  0  0  0
   22.2138  -20.3186  -11.4845 N   0  0  0  0  0  0  0  0  0  0  0  0
   23.2601  -21.4643   -7.4275 C   0  0  0  0  0  0  0  0  0  0  0  0
   21.9288  -21.1438   -7.2692 O   0  0  0  0  0  0  0  0  0  0  0  0
   23.6751  -22.4987   -6.8735 O   0  0  0  0  0  0  0  0  0  0  0  0
  1  2  1  0
  2  3  2  0
  4  2  1  0
  4  5  1  0
  5  7  1  0
  5  6  1  6
  7  8  2  0
  9 10  1  0
  9  7  1  0
 10 11  1  1
 12 13  2  0
 12 11  1  0
 14 13  1  0
 15 14  2  0
 16 15  1  0
 16 17  2  0
 17 12  1  0
 18 10  1  0
 19 18  2  0
 20 18  1  0
 21 22  1  6
 21 20  1  0
 23 22  1  0
 24 23  2  0
 25 26  1  0
 25 24  1  0
 26 27  2  0
 27 23  1  0
 28 29  1  0
 28 21  1  0
 30 28  2  0
M  END
$$$$
