NFH.pdb
     RDKit          3D

 30 31  0  0  1  0  0  0  0  0999 V2000
   27.1397  -19.1394  -15.9937 N   0  0  0  0  0  0  0  0  0  0  0  0
   27.9061  -18.9208  -14.8082 C   0  0  0  0  0  0  0  0  0  0  0  0
   28.9655  -18.2618  -14.8632 O   0  0  0  0  0  0  0  0  0  0  0  0
   27.3921  -19.5028  -13.5365 C   0  0  0  0  0  0  0  0  0  0  0  0
   28.3037  -20.6363  -13.1068 C   0  0  2  0  0  0  0  0  0  0  0  0
   28.1481  -21.7377  -14.0189 N   0  0  0  0  0  0  0  0  0  0  0  0
   27.9821  -21.1021  -11.7351 C   0  0  0  0  0  0  0  0  0  0  0  0
   27.1409  -22.0259  -11.5325 O   0  0  0  0  0  0  0  0  0  0  0  0
   28.6053  -20.5315  -10.5793 N   0  0  0  0  0  0  0  0  0  0  0  0
   28.1211  -20.7438   -9.2449 C   0  0  1  0  0  0  0  0  0  0  0  0
   29.0115  -20.0096   -8.2682 C   0  0  0  0  0  0  0  0  0  0  0  0
   28.5061  -20.1256   -6.8794 C   0  0  0  0  0  0  0  0  0  0  0  0
   28.7116  -21.2370   -6.1009 C   0  0  0  0  0  0  0  0  0  0  0  0
   28.2313  -21.3134   -4.8203 C   0  0  0  0  0  0  0  0  0  0  0  0
   27.5207  -20.2373   -4.3041 C   0  0  0  0  0  0  0  0  0  0  0  0
   27.3000  -19.1174   -5.0549 C   0  0  0  0  0  0  0  0  0  0  0  0
   27.7961  -19.0758   -6.3343 C   0  0  0  0  0  0  0  0  0  0  0  0
   26.7354  -20.1936   -9.0671 C   0  0  0  0  0  0  0  0  0  0  0  0
   26.5142  -19.0520   -9.5384 O   0  0  0  0  0  0  0  0  0  0  0  0
   25.7804  -20.9939   -8.3852 N   0  0  0  0  0  0  0  0  0  0  0  0
   24.3650  -20.6170   -8.5711 C   0  0  1  0  0  0  0  0  0  0  0  0
   24.1137  -20.7138  -10.0186 C   0  0  0  0  0  0  0  0  0  0  0  0
   22.7822  -20.3638  -10.5039 C   0  0  0  0  0  0  0  0  0  0  0  0
   21.8012  -19.9185   -9.6063 C   0  0  0  0  0  0  0  0  0  0  0  0
   20.6944  -19.6728  -10.3131 N   0  0  0  0  0  0  0  0  0  0  0  0
   20.9169  -19.9374  -11.6120 C   0  0  0  0  0  0  0  0  0  0  0  0
   22.1915  -20.3531  -11.6874 N   0  0  0  0  0  0  0  0  0  0  0  0
   23.5061  -21.3704   -7.6702 C   0  0  0  0  0  0  0  0  0  0  0  0
   22.1671  -21.0669   -7.5463 O   0  0  0  0  0  0  0  0  0  0  0  0
   23.9511  -22.3101   -6.9861 O   0  0  0  0  0  0  0  0  0  0  0  0
  1  2  1  0
  2  3  2  0
  4  2  1  0
  4  5  1  0
  5  7  1  0
  5  6  1  6
  7  8  2  0
  9 10  1  0
  9  7  1  0
 10 11  1  1
 12 13  2  0
 12 11  1  0
 14 13  1  0
 15 14  2  0
 16 15  1  0
 16 17  2  0
 17 12  1  0
 18 10  1  0
 19 18  2  0
 20 18  1  0
 21 22  1  6
 21 20  1  0
 23 22  1  0
 24 23  2  0
 25 26  1  0
 25 24  1  0
 26 27  2  0
 27 23  1  0
 28 29  1  0
 28 21  1  0
 30 28  2  0
M  END
$$$$
