NFH.pdb
     RDKit          3D

 30 31  0  0  1  0  0  0  0  0999 V2000
   18.4024   -8.9686  -19.0669 N   0  0  0  0  0  0  0  0  0  0  0  0
   17.1805   -9.2074  -18.3666 C   0  0  0  0  0  0  0  0  0  0  0  0
   16.0887   -9.1017  -18.9637 O   0  0  0  0  0  0  0  0  0  0  0  0
   17.2711   -9.5790  -16.9265 C   0  0  0  0  0  0  0  0  0  0  0  0
   18.7315   -9.7249  -16.5439 C   0  0  2  0  0  0  0  0  0  0  0  0
   19.1824  -11.0435  -16.9006 N   0  0  0  0  0  0  0  0  0  0  0  0
   18.9339   -9.5280  -15.0871 C   0  0  0  0  0  0  0  0  0  0  0  0
   18.2186  -10.1307  -14.2344 O   0  0  0  0  0  0  0  0  0  0  0  0
   19.9439   -8.6502  -14.5779 N   0  0  0  0  0  0  0  0  0  0  0  0
   20.1534   -8.4299  -13.1751 C   0  0  1  0  0  0  0  0  0  0  0  0
   21.5750   -7.9676  -12.9495 C   0  0  0  0  0  0  0  0  0  0  0  0
   21.8884   -7.8598  -11.5045 C   0  0  0  0  0  0  0  0  0  0  0  0
   22.2885   -8.9312  -10.7458 C   0  0  0  0  0  0  0  0  0  0  0  0
   22.5708   -8.7987   -9.4119 C   0  0  0  0  0  0  0  0  0  0  0  0
   22.4472   -7.5481   -8.8201 C   0  0  0  0  0  0  0  0  0  0  0  0
   22.0511   -6.4630   -9.5495 C   0  0  0  0  0  0  0  0  0  0  0  0
   21.7764   -6.6328  -10.8838 C   0  0  0  0  0  0  0  0  0  0  0  0
   19.2562   -7.3481  -12.6468 C   0  0  0  0  0  0  0  0  0  0  0  0
   19.1800   -6.2943  -13.3237 O   0  0  0  0  0  0  0  0  0  0  0  0
   18.5628   -7.5887  -11.4307 N   0  0  0  0  0  0  0  0  0  0  0  0
   17.7079   -6.4889  -10.9413 C   0  0  1  0  0  0  0  0  0  0  0  0
   16.3342   -6.8491  -11.3297 C   0  0  0  0  0  0  0  0  0  0  0  0
   15.2551   -5.9518  -10.9282 C   0  0  0  0  0  0  0  0  0  0  0  0
   15.5304   -4.8370  -10.1233 C   0  0  0  0  0  0  0  0  0  0  0  0
   14.3747   -4.2006   -9.9127 N   0  0  0  0  0  0  0  0  0  0  0  0
   13.3782   -4.8493  -10.5395 C   0  0  0  0  0  0  0  0  0  0  0  0
   13.9507   -5.9034  -11.1428 N   0  0  0  0  0  0  0  0  0  0  0  0
   17.9771   -6.2087   -9.5392 C   0  0  0  0  0  0  0  0  0  0  0  0
   17.6308   -4.9982   -8.9779 O   0  0  0  0  0  0  0  0  0  0  0  0
   18.5256   -7.0503   -8.8045 O   0  0  0  0  0  0  0  0  0  0  0  0
  1  2  1  0
  2  3  2  0
  4  2  1  0
  4  5  1  0
  5  7  1  0
  5  6  1  1
  7  8  2  0
  9 10  1  0
  9  7  1  0
 10 11  1  6
 12 13  2  0
 12 11  1  0
 14 13  1  0
 15 14  2  0
 16 15  1  0
 16 17  2  0
 17 12  1  0
 18 10  1  0
 19 18  2  0
 20 18  1  0
 21 22  1  1
 21 20  1  0
 23 22  1  0
 24 23  2  0
 25 26  1  0
 25 24  1  0
 26 27  2  0
 27 23  1  0
 28 29  1  0
 28 21  1  0
 30 28  2  0
M  END
$$$$
