NFH.pdb
     RDKit          3D

 30 31  0  0  1  0  0  0  0  0999 V2000
   20.3759  -10.9472  -20.2149 N   0  0  0  0  0  0  0  0  0  0  0  0
   19.0316  -10.4791  -20.0951 C   0  0  0  0  0  0  0  0  0  0  0  0
   18.2426  -10.5960  -21.0561 O   0  0  0  0  0  0  0  0  0  0  0  0
   18.6285   -9.8609  -18.8007 C   0  0  0  0  0  0  0  0  0  0  0  0
   19.8214   -9.8508  -17.8641 C   0  0  2  0  0  0  0  0  0  0  0  0
   19.9488  -11.1452  -17.2496 N   0  0  0  0  0  0  0  0  0  0  0  0
   19.6678   -8.8288  -16.7993 C   0  0  0  0  0  0  0  0  0  0  0  0
   18.7831   -8.9401  -15.9010 O   0  0  0  0  0  0  0  0  0  0  0  0
   20.5093   -7.6723  -16.7369 N   0  0  0  0  0  0  0  0  0  0  0  0
   20.3843   -6.6684  -15.7187 C   0  0  1  0  0  0  0  0  0  0  0  0
   21.6989   -6.5368  -14.9837 C   0  0  0  0  0  0  0  0  0  0  0  0
   21.9722   -7.7262  -14.1420 C   0  0  0  0  0  0  0  0  0  0  0  0
   22.8536   -8.7125  -14.5076 C   0  0  0  0  0  0  0  0  0  0  0  0
   23.0843   -9.7999  -13.7071 C   0  0  0  0  0  0  0  0  0  0  0  0
   22.4069   -9.9001  -12.4985 C   0  0  0  0  0  0  0  0  0  0  0  0
   21.5234   -8.9342  -12.1075 C   0  0  0  0  0  0  0  0  0  0  0  0
   21.3170   -7.8584  -12.9350 C   0  0  0  0  0  0  0  0  0  0  0  0
   20.0792   -5.3212  -16.3070 C   0  0  0  0  0  0  0  0  0  0  0  0
   20.8273   -4.9247  -17.2331 O   0  0  0  0  0  0  0  0  0  0  0  0
   18.9771   -4.5956  -15.7811 N   0  0  0  0  0  0  0  0  0  0  0  0
   18.7119   -3.2799  -16.3963 C   0  0  1  0  0  0  0  0  0  0  0  0
   17.2469   -3.1339  -16.4086 C   0  0  0  0  0  0  0  0  0  0  0  0
   16.6907   -1.8866  -16.9240 C   0  0  0  0  0  0  0  0  0  0  0  0
   17.5224   -0.9585  -17.5668 C   0  0  0  0  0  0  0  0  0  0  0  0
   16.7600    0.0762  -17.9318 N   0  0  0  0  0  0  0  0  0  0  0  0
   15.4879   -0.1422  -17.5564 C   0  0  0  0  0  0  0  0  0  0  0  0
   15.4864   -1.3402  -16.9498 N   0  0  0  0  0  0  0  0  0  0  0  0
   19.5031   -2.2402  -15.7561 C   0  0  0  0  0  0  0  0  0  0  0  0
   19.8407   -2.3247  -14.4222 O   0  0  0  0  0  0  0  0  0  0  0  0
   19.8996   -1.2455  -16.3904 O   0  0  0  0  0  0  0  0  0  0  0  0
  1  2  1  0
  2  3  2  0
  4  2  1  0
  4  5  1  0
  5  7  1  0
  5  6  1  1
  7  8  2  0
  9 10  1  0
  9  7  1  0
 10 11  1  6
 12 13  2  0
 12 11  1  0
 14 13  1  0
 15 14  2  0
 16 15  1  0
 16 17  2  0
 17 12  1  0
 18 10  1  0
 19 18  2  0
 20 18  1  0
 21 22  1  1
 21 20  1  0
 23 22  1  0
 24 23  2  0
 25 26  1  0
 25 24  1  0
 26 27  2  0
 27 23  1  0
 28 29  1  0
 28 21  1  0
 30 28  2  0
M  END
$$$$
