NFH.pdb
     RDKit          3D

 30 31  0  0  1  0  0  0  0  0999 V2000
   26.6510  -18.8336  -18.6420 N   0  0  0  0  0  0  0  0  0  0  0  0
   25.8158  -19.9330  -19.0086 C   0  0  0  0  0  0  0  0  0  0  0  0
   25.1800  -19.9020  -20.0831 O   0  0  0  0  0  0  0  0  0  0  0  0
   25.7432  -21.0880  -18.0701 C   0  0  0  0  0  0  0  0  0  0  0  0
   26.6056  -20.7953  -16.8572 C   0  0  2  0  0  0  0  0  0  0  0  0
   27.8651  -21.4756  -16.9994 N   0  0  0  0  0  0  0  0  0  0  0  0
   25.9543  -21.2516  -15.6044 C   0  0  0  0  0  0  0  0  0  0  0  0
   25.9272  -22.4755  -15.2830 O   0  0  0  0  0  0  0  0  0  0  0  0
   25.3275  -20.3332  -14.7025 N   0  0  0  0  0  0  0  0  0  0  0  0
   24.7014  -20.7442  -13.4780 C   0  0  1  0  0  0  0  0  0  0  0  0
   25.2711  -19.9397  -12.3318 C   0  0  0  0  0  0  0  0  0  0  0  0
   26.6403  -20.3875  -11.9815 C   0  0  0  0  0  0  0  0  0  0  0  0
   26.8915  -21.3511  -11.0372 C   0  0  0  0  0  0  0  0  0  0  0  0
   28.1690  -21.7432  -10.7360 C   0  0  0  0  0  0  0  0  0  0  0  0
   29.2301  -21.1474  -11.4058 C   0  0  0  0  0  0  0  0  0  0  0  0
   29.0115  -20.1853  -12.3509 C   0  0  0  0  0  0  0  0  0  0  0  0
   27.7180  -19.8172  -12.6270 C   0  0  0  0  0  0  0  0  0  0  0  0
   23.2232  -20.4822  -13.4996 C   0  0  0  0  0  0  0  0  0  0  0  0
   22.8597  -19.3039  -13.7321 O   0  0  0  0  0  0  0  0  0  0  0  0
   22.3468  -21.5737  -13.2581 N   0  0  0  0  0  0  0  0  0  0  0  0
   20.9029  -21.2674  -13.2897 C   0  0  1  0  0  0  0  0  0  0  0  0
   20.2816  -22.3554  -14.0631 C   0  0  0  0  0  0  0  0  0  0  0  0
   20.2976  -22.2518  -15.5190 C   0  0  0  0  0  0  0  0  0  0  0  0
   20.7822  -21.0894  -16.1359 C   0  0  0  0  0  0  0  0  0  0  0  0
   20.6813  -21.2657  -17.4565 N   0  0  0  0  0  0  0  0  0  0  0  0
   20.1588  -22.4770  -17.7143 C   0  0  0  0  0  0  0  0  0  0  0  0
   19.9401  -23.0434  -16.5166 N   0  0  0  0  0  0  0  0  0  0  0  0
   20.4010  -20.9996  -11.9506 C   0  0  0  0  0  0  0  0  0  0  0  0
   21.2122  -21.1464  -10.8457 O   0  0  0  0  0  0  0  0  0  0  0  0
   19.2278  -20.6299  -11.7609 O   0  0  0  0  0  0  0  0  0  0  0  0
  1  2  1  0
  2  3  2  0
  4  2  1  0
  4  5  1  0
  5  7  1  0
  5  6  1  6
  7  8  2  0
  9 10  1  0
  9  7  1  0
 10 11  1  1
 12 13  2  0
 12 11  1  0
 14 13  1  0
 15 14  2  0
 16 15  1  0
 16 17  2  0
 17 12  1  0
 18 10  1  0
 19 18  2  0
 20 18  1  0
 21 22  1  1
 21 20  1  0
 23 22  1  0
 24 23  2  0
 25 26  1  0
 25 24  1  0
 26 27  2  0
 27 23  1  0
 28 29  1  0
 28 21  1  0
 30 28  2  0
M  END
$$$$
