FDC.pdb
     RDKit          3D

 26 26  0  0  1  0  0  0  0  0999 V2000
    7.2589  -18.4647   19.5582 N   0  0  0  0  0  0  0  0  0  0  0  0
    7.8045  -17.1565   19.9170 C   0  0  1  0  0  0  0  0  0  0  0  0
    6.7282  -16.2648   20.4333 C   0  0  0  0  0  0  0  0  0  0  0  0
    7.1155  -14.8851   20.7006 C   0  0  0  0  0  0  0  0  0  0  0  0
    7.5695  -14.0404   19.7180 C   0  0  0  0  0  0  0  0  0  0  0  0
    7.9232  -12.7431   20.0285 C   0  0  0  0  0  0  0  0  0  0  0  0
    7.8338  -12.2555   21.3233 C   0  0  0  0  0  0  0  0  0  0  0  0
    7.3781  -13.1003   22.3150 C   0  0  0  0  0  0  0  0  0  0  0  0
    7.0262  -14.4011   21.9892 C   0  0  0  0  0  0  0  0  0  0  0  0
    8.9429  -17.3692   20.8128 C   0  0  0  0  0  0  0  0  0  0  0  0
    8.9476  -18.2974   21.6883 O   0  0  0  0  0  0  0  0  0  0  0  0
   10.1425  -16.5667   20.7907 N   0  0  0  0  0  0  0  0  0  0  0  0
   11.3195  -16.9281   21.5155 C   0  0  1  0  0  0  0  0  0  0  0  0
   12.5401  -16.2367   20.9480 C   0  0  0  0  0  0  0  0  0  0  0  0
   13.7631  -16.7469   21.5792 C   0  0  0  0  0  0  0  0  0  0  0  0
   13.9640  -17.9895   21.5886 O   0  0  0  0  0  0  0  0  0  0  0  0
   11.2738  -16.6054   22.9528 C   0  0  0  0  0  0  0  0  0  0  0  0
   12.2477  -16.6576   23.7374 O   0  0  0  0  0  0  0  0  0  0  0  0
   14.7044  -15.9317   22.1644 O   0  0  0  0  0  0  0  0  0  0  0  0
   10.0089  -16.2008   23.4837 N   0  0  0  0  0  0  0  0  0  0  0  0
    9.7688  -16.1064   24.9117 C   0  0  1  0  0  0  0  0  0  0  0  0
    8.3089  -15.7030   25.1354 C   0  0  0  0  0  0  0  0  0  0  0  0
    8.2373  -13.8852   25.0880 S   0  0  0  0  0  0  0  0  0  0  0  0
   10.0615  -17.3970   25.5823 C   0  0  0  0  0  0  0  0  0  0  0  0
    9.9062  -17.4889   26.9564 O   0  0  0  0  0  0  0  0  0  0  0  0
   10.4442  -18.4123   24.9628 O   0  0  0  0  0  0  0  0  0  0  0  0
  2  1  1  1
  2 10  1  0
  3  2  1  0
  4  3  1  0
  5  4  2  0
  6  5  1  0
  7  6  2  0
  7  8  1  0
  8  9  2  0
  9  4  1  0
 10 12  1  0
 11 10  2  0
 12 13  1  0
 13 14  1  6
 14 15  1  0
 15 16  2  0
 17 13  1  0
 17 18  2  0
 19 15  1  0
 20 17  1  0
 21 20  1  0
 21 24  1  0
 21 22  1  6
 23 22  1  0
 24 25  1  0
 26 24  2  0
M  END
$$$$
