FDC.pdb
     RDKit          3D

 26 26  0  0  1  0  0  0  0  0999 V2000
    6.2822  -16.3405   24.2440 N   0  0  0  0  0  0  0  0  0  0  0  0
    7.3865  -15.7401   23.4971 C   0  0  1  0  0  0  0  0  0  0  0  0
    7.2153  -14.2625   23.4084 C   0  0  0  0  0  0  0  0  0  0  0  0
    7.2776  -13.5356   24.6705 C   0  0  0  0  0  0  0  0  0  0  0  0
    8.4292  -12.9442   25.1277 C   0  0  0  0  0  0  0  0  0  0  0  0
    8.4306  -12.2686   26.3310 C   0  0  0  0  0  0  0  0  0  0  0  0
    7.2869  -12.1654   27.1079 C   0  0  0  0  0  0  0  0  0  0  0  0
    6.1264  -12.7581   26.6531 C   0  0  0  0  0  0  0  0  0  0  0  0
    6.1391  -13.4336   25.4425 C   0  0  0  0  0  0  0  0  0  0  0  0
    8.6419  -16.2035   24.0911 C   0  0  0  0  0  0  0  0  0  0  0  0
    8.6625  -16.9778   25.1051 O   0  0  0  0  0  0  0  0  0  0  0  0
    9.9474  -15.8371   23.5961 N   0  0  0  0  0  0  0  0  0  0  0  0
   11.1446  -16.4706   24.0506 C   0  0  1  0  0  0  0  0  0  0  0  0
   12.3076  -16.1531   23.1359 C   0  0  0  0  0  0  0  0  0  0  0  0
   13.4346  -17.0555   23.4009 C   0  0  0  0  0  0  0  0  0  0  0  0
   14.6055  -16.6205   23.2451 O   0  0  0  0  0  0  0  0  0  0  0  0
   11.5558  -16.0908   25.4140 C   0  0  0  0  0  0  0  0  0  0  0  0
   12.2849  -15.1158   25.7047 O   0  0  0  0  0  0  0  0  0  0  0  0
   13.2745  -18.3587   23.8119 O   0  0  0  0  0  0  0  0  0  0  0  0
   11.0769  -16.9096   26.4844 N   0  0  0  0  0  0  0  0  0  0  0  0
   11.4297  -16.6508   27.8680 C   0  0  1  0  0  0  0  0  0  0  0  0
   10.2775  -15.8915   28.5315 C   0  0  0  0  0  0  0  0  0  0  0  0
   10.3989  -14.1547   28.0018 S   0  0  0  0  0  0  0  0  0  0  0  0
   11.7022  -17.9184   28.5890 C   0  0  0  0  0  0  0  0  0  0  0  0
   12.0729  -17.8644   29.9232 O   0  0  0  0  0  0  0  0  0  0  0  0
   11.6128  -19.0404   28.0467 O   0  0  0  0  0  0  0  0  0  0  0  0
  2  1  1  1
  2 10  1  0
  3  2  1  0
  4  3  1  0
  5  4  2  0
  6  5  1  0
  7  6  2  0
  7  8  1  0
  8  9  2  0
  9  4  1  0
 10 12  1  0
 11 10  2  0
 12 13  1  0
 13 14  1  6
 14 15  1  0
 15 16  2  0
 17 13  1  0
 17 18  2  0
 19 15  1  0
 20 17  1  0
 21 20  1  0
 21 24  1  0
 21 22  1  1
 23 22  1  0
 24 25  1  0
 26 24  2  0
M  END
$$$$
