FDC.pdb
     RDKit          3D

 26 26  0  0  1  0  0  0  0  0999 V2000
    8.4473  -17.3412   16.9298 N   0  0  0  0  0  0  0  0  0  0  0  0
    8.7193  -16.1338   17.7082 C   0  0  1  0  0  0  0  0  0  0  0  0
    7.5798  -15.8316   18.6196 C   0  0  0  0  0  0  0  0  0  0  0  0
    7.7651  -14.7002   19.5200 C   0  0  0  0  0  0  0  0  0  0  0  0
    8.4392  -13.5627   19.1499 C   0  0  0  0  0  0  0  0  0  0  0  0
    8.5850  -12.5219   20.0441 C   0  0  0  0  0  0  0  0  0  0  0  0
    8.0641  -12.5877   21.3273 C   0  0  0  0  0  0  0  0  0  0  0  0
    7.3856  -13.7288   21.7047 C   0  0  0  0  0  0  0  0  0  0  0  0
    7.2464  -14.7668   20.7963 C   0  0  0  0  0  0  0  0  0  0  0  0
   10.0261  -16.2913   18.3494 C   0  0  0  0  0  0  0  0  0  0  0  0
   10.3657  -17.3753   18.9305 O   0  0  0  0  0  0  0  0  0  0  0  0
   11.0331  -15.2576   18.3836 N   0  0  0  0  0  0  0  0  0  0  0  0
   12.3410  -15.4795   18.9143 C   0  0  1  0  0  0  0  0  0  0  0  0
   13.3238  -14.4607   18.3793 C   0  0  0  0  0  0  0  0  0  0  0  0
   14.6867  -14.7742   18.8249 C   0  0  0  0  0  0  0  0  0  0  0  0
   15.0326  -15.9818   18.9051 O   0  0  0  0  0  0  0  0  0  0  0  0
   12.4205  -15.4204   20.3847 C   0  0  0  0  0  0  0  0  0  0  0  0
   13.4571  -15.6062   21.0614 O   0  0  0  0  0  0  0  0  0  0  0  0
   15.6088  -13.8101   19.1615 O   0  0  0  0  0  0  0  0  0  0  0  0
   11.2090  -15.1258   21.0856 N   0  0  0  0  0  0  0  0  0  0  0  0
   11.1732  -14.9700   22.5278 C   0  0  1  0  0  0  0  0  0  0  0  0
    9.9296  -14.1580   22.9001 C   0  0  0  0  0  0  0  0  0  0  0  0
    8.4863  -15.2405   22.6617 S   0  0  0  0  0  0  0  0  0  0  0  0
   11.1533  -16.2919   23.2010 C   0  0  0  0  0  0  0  0  0  0  0  0
   11.4374  -16.3587   24.5557 O   0  0  0  0  0  0  0  0  0  0  0  0
   10.8908  -17.3555   22.6003 O   0  0  0  0  0  0  0  0  0  0  0  0
  2  1  1  1
  2 10  1  0
  3  2  1  0
  4  3  1  0
  5  4  2  0
  6  5  1  0
  7  6  2  0
  7  8  1  0
  8  9  2  0
  9  4  1  0
 10 12  1  0
 11 10  2  0
 12 13  1  0
 13 14  1  6
 14 15  1  0
 15 16  2  0
 17 13  1  0
 17 18  2  0
 19 15  1  0
 20 17  1  0
 21 20  1  0
 21 24  1  0
 21 22  1  6
 23 22  1  0
 24 25  1  0
 26 24  2  0
M  END
$$$$
