FDC.pdb
     RDKit          3D

 26 26  0  0  1  0  0  0  0  0999 V2000
    6.1542  -16.7727   25.1779 N   0  0  0  0  0  0  0  0  0  0  0  0
    6.9766  -16.4192   24.0219 C   0  0  1  0  0  0  0  0  0  0  0  0
    6.7602  -14.9946   23.6423 C   0  0  0  0  0  0  0  0  0  0  0  0
    7.0346  -14.0085   24.6803 C   0  0  0  0  0  0  0  0  0  0  0  0
    8.2528  -13.3880   24.8079 C   0  0  0  0  0  0  0  0  0  0  0  0
    8.4569  -12.4619   25.8105 C   0  0  0  0  0  0  0  0  0  0  0  0
    7.4546  -12.1313   26.7096 C   0  0  0  0  0  0  0  0  0  0  0  0
    6.2282  -12.7521   26.5859 C   0  0  0  0  0  0  0  0  0  0  0  0
    6.0367  -13.6804   25.5742 C   0  0  0  0  0  0  0  0  0  0  0  0
    8.3598  -16.7995   24.3149 C   0  0  0  0  0  0  0  0  0  0  0  0
    8.6514  -17.6077   25.2583 O   0  0  0  0  0  0  0  0  0  0  0  0
    9.5004  -16.3075   23.5796 N   0  0  0  0  0  0  0  0  0  0  0  0
   10.8434  -16.6395   23.9368 C   0  0  1  0  0  0  0  0  0  0  0  0
   11.8166  -16.1861   22.8703 C   0  0  0  0  0  0  0  0  0  0  0  0
   11.5573  -16.8826   21.6046 C   0  0  0  0  0  0  0  0  0  0  0  0
   11.2976  -18.1139   21.6356 O   0  0  0  0  0  0  0  0  0  0  0  0
   11.2987  -16.0525   25.2097 C   0  0  0  0  0  0  0  0  0  0  0  0
   11.6247  -14.8559   25.3792 O   0  0  0  0  0  0  0  0  0  0  0  0
   11.5848  -16.2546   20.3807 O   0  0  0  0  0  0  0  0  0  0  0  0
   11.3699  -16.9304   26.3366 N   0  0  0  0  0  0  0  0  0  0  0  0
   11.2761  -16.4415   27.6996 C   0  0  1  0  0  0  0  0  0  0  0  0
    9.9230  -15.7472   27.8768 C   0  0  0  0  0  0  0  0  0  0  0  0
   10.1145  -14.5228   29.2095 S   0  0  0  0  0  0  0  0  0  0  0  0
   11.4221  -17.5539   28.6703 C   0  0  0  0  0  0  0  0  0  0  0  0
   11.9343  -17.2825   29.9291 O   0  0  0  0  0  0  0  0  0  0  0  0
   11.1031  -18.7325   28.4050 O   0  0  0  0  0  0  0  0  0  0  0  0
  2  1  1  1
  2 10  1  0
  3  2  1  0
  4  3  1  0
  5  4  2  0
  6  5  1  0
  7  6  2  0
  7  8  1  0
  8  9  2  0
  9  4  1  0
 10 12  1  0
 11 10  2  0
 12 13  1  0
 13 14  1  6
 14 15  1  0
 15 16  2  0
 17 13  1  0
 17 18  2  0
 19 15  1  0
 20 17  1  0
 21 20  1  0
 21 24  1  0
 21 22  1  6
 23 22  1  0
 24 25  1  0
 26 24  2  0
M  END
$$$$
