FDC.pdb
     RDKit          3D

 26 26  0  0  1  0  0  0  0  0999 V2000
    6.1676  -18.0321   23.8832 N   0  0  0  0  0  0  0  0  0  0  0  0
    6.7949  -16.7241   24.0655 C   0  0  1  0  0  0  0  0  0  0  0  0
    6.0143  -15.8998   25.0307 C   0  0  0  0  0  0  0  0  0  0  0  0
    6.4774  -14.5308   25.2219 C   0  0  0  0  0  0  0  0  0  0  0  0
    6.2021  -13.8082   26.3564 C   0  0  0  0  0  0  0  0  0  0  0  0
    6.6659  -12.5147   26.4836 C   0  0  0  0  0  0  0  0  0  0  0  0
    7.4141  -11.9095   25.4855 C   0  0  0  0  0  0  0  0  0  0  0  0
    7.6937  -12.6312   24.3428 C   0  0  0  0  0  0  0  0  0  0  0  0
    7.2216  -13.9297   24.2283 C   0  0  0  0  0  0  0  0  0  0  0  0
    8.2037  -16.9386   24.4015 C   0  0  0  0  0  0  0  0  0  0  0  0
    8.5639  -17.7757   25.2948 O   0  0  0  0  0  0  0  0  0  0  0  0
    9.2956  -16.2393   23.7674 N   0  0  0  0  0  0  0  0  0  0  0  0
   10.6586  -16.4453   24.1431 C   0  0  1  0  0  0  0  0  0  0  0  0
   11.6000  -15.8554   23.1155 C   0  0  0  0  0  0  0  0  0  0  0  0
   11.5002  -16.5839   21.8451 C   0  0  0  0  0  0  0  0  0  0  0  0
   11.4031  -17.8386   21.8750 O   0  0  0  0  0  0  0  0  0  0  0  0
   11.0269  -15.8627   25.4458 C   0  0  0  0  0  0  0  0  0  0  0  0
   11.2006  -14.6435   25.6701 O   0  0  0  0  0  0  0  0  0  0  0  0
   11.5084  -15.9615   20.6181 O   0  0  0  0  0  0  0  0  0  0  0  0
   11.1967  -16.7734   26.5354 N   0  0  0  0  0  0  0  0  0  0  0  0
   11.3117  -16.3174   27.9082 C   0  0  1  0  0  0  0  0  0  0  0  0
   10.0275  -15.5733   28.2843 C   0  0  0  0  0  0  0  0  0  0  0  0
   10.3694  -13.7927   28.1291 S   0  0  0  0  0  0  0  0  0  0  0  0
   11.5399  -17.4601   28.8264 C   0  0  0  0  0  0  0  0  0  0  0  0
   11.8105  -17.2040   30.1612 O   0  0  0  0  0  0  0  0  0  0  0  0
   11.4995  -18.6510   28.4508 O   0  0  0  0  0  0  0  0  0  0  0  0
  2  1  1  1
  2 10  1  0
  3  2  1  0
  4  3  1  0
  5  4  2  0
  6  5  1  0
  7  6  2  0
  7  8  1  0
  8  9  2  0
  9  4  1  0
 10 12  1  0
 11 10  2  0
 12 13  1  0
 13 14  1  6
 14 15  1  0
 15 16  2  0
 17 13  1  0
 17 18  2  0
 19 15  1  0
 20 17  1  0
 21 20  1  0
 21 24  1  0
 21 22  1  1
 23 22  1  0
 24 25  1  0
 26 24  2  0
M  END
$$$$
