FDC.pdb
     RDKit          3D

 26 26  0  0  1  0  0  0  0  0999 V2000
    6.0326  -16.9642   23.8973 N   0  0  0  0  0  0  0  0  0  0  0  0
    7.1254  -16.2153   24.5157 C   0  0  1  0  0  0  0  0  0  0  0  0
    6.6954  -15.6481   25.8248 C   0  0  0  0  0  0  0  0  0  0  0  0
    6.7616  -14.1968   25.9446 C   0  0  0  0  0  0  0  0  0  0  0  0
    7.9176  -13.4885   25.7275 C   0  0  0  0  0  0  0  0  0  0  0  0
    7.9226  -12.1144   25.8557 C   0  0  0  0  0  0  0  0  0  0  0  0
    6.7784  -11.4127   26.2028 C   0  0  0  0  0  0  0  0  0  0  0  0
    5.6136  -12.1197   26.4222 C   0  0  0  0  0  0  0  0  0  0  0  0
    5.6226  -13.4997   26.2900 C   0  0  0  0  0  0  0  0  0  0  0  0
    8.3063  -17.0801   24.5508 C   0  0  0  0  0  0  0  0  0  0  0  0
    8.2370  -18.3012   24.9148 O   0  0  0  0  0  0  0  0  0  0  0  0
    9.6323  -16.6433   24.1843 N   0  0  0  0  0  0  0  0  0  0  0  0
   10.8018  -17.4046   24.4909 C   0  0  1  0  0  0  0  0  0  0  0  0
   12.0302  -16.7931   23.8527 C   0  0  0  0  0  0  0  0  0  0  0  0
   11.8959  -16.7703   22.3912 C   0  0  0  0  0  0  0  0  0  0  0  0
   11.3717  -17.7608   21.8178 O   0  0  0  0  0  0  0  0  0  0  0  0
   11.0860  -17.5323   25.9314 C   0  0  0  0  0  0  0  0  0  0  0  0
   11.5233  -16.6184   26.6665 O   0  0  0  0  0  0  0  0  0  0  0  0
   12.3169  -15.7165   21.6132 O   0  0  0  0  0  0  0  0  0  0  0  0
   10.8383  -18.8085   26.5277 N   0  0  0  0  0  0  0  0  0  0  0  0
   11.1213  -19.0719   27.9263 C   0  0  1  0  0  0  0  0  0  0  0  0
    9.8977  -19.7458   28.5532 C   0  0  0  0  0  0  0  0  0  0  0  0
    8.4645  -18.6718   28.2301 S   0  0  0  0  0  0  0  0  0  0  0  0
   12.3208  -19.9333   28.0688 C   0  0  0  0  0  0  0  0  0  0  0  0
   12.7566  -20.2709   29.3402 O   0  0  0  0  0  0  0  0  0  0  0  0
   12.9615  -20.3719   27.0899 O   0  0  0  0  0  0  0  0  0  0  0  0
  2  1  1  1
  2 10  1  0
  3  2  1  0
  4  3  1  0
  5  4  2  0
  6  5  1  0
  7  6  2  0
  7  8  1  0
  8  9  2  0
  9  4  1  0
 10 12  1  0
 11 10  2  0
 12 13  1  0
 13 14  1  6
 14 15  1  0
 15 16  2  0
 17 13  1  0
 17 18  2  0
 19 15  1  0
 20 17  1  0
 21 20  1  0
 21 24  1  0
 21 22  1  6
 23 22  1  0
 24 25  1  0
 26 24  2  0
M  END
$$$$
