FDC.pdb
     RDKit          3D

 26 26  0  0  1  0  0  0  0  0999 V2000
    6.2734  -17.0172   24.7770 N   0  0  0  0  0  0  0  0  0  0  0  0
    7.1865  -16.3906   23.8224 C   0  0  1  0  0  0  0  0  0  0  0  0
    6.8623  -14.9453   23.6603 C   0  0  0  0  0  0  0  0  0  0  0  0
    7.0304  -14.1161   24.8474 C   0  0  0  0  0  0  0  0  0  0  0  0
    6.2316  -14.2421   25.9570 C   0  0  0  0  0  0  0  0  0  0  0  0
    6.4358  -13.4294   27.0535 C   0  0  0  0  0  0  0  0  0  0  0  0
    7.4389  -12.4725   27.0722 C   0  0  0  0  0  0  0  0  0  0  0  0
    8.2448  -12.3415   25.9595 C   0  0  0  0  0  0  0  0  0  0  0  0
    8.0287  -13.1645   24.8649 C   0  0  0  0  0  0  0  0  0  0  0  0
    8.5571  -16.6955   24.2372 C   0  0  0  0  0  0  0  0  0  0  0  0
    8.8093  -17.3431   25.3073 O   0  0  0  0  0  0  0  0  0  0  0  0
    9.7280  -16.3018   23.4906 N   0  0  0  0  0  0  0  0  0  0  0  0
   11.0542  -16.5911   23.9366 C   0  0  1  0  0  0  0  0  0  0  0  0
   12.0711  -16.2623   22.8651 C   0  0  0  0  0  0  0  0  0  0  0  0
   11.8877  -17.1298   21.6953 C   0  0  0  0  0  0  0  0  0  0  0  0
   12.0610  -16.6408   20.5484 O   0  0  0  0  0  0  0  0  0  0  0  0
   11.4614  -15.8631   25.1516 C   0  0  0  0  0  0  0  0  0  0  0  0
   11.9914  -14.7293   25.1724 O   0  0  0  0  0  0  0  0  0  0  0  0
   11.5336  -18.4559   21.7900 O   0  0  0  0  0  0  0  0  0  0  0  0
   11.2273  -16.5143   26.4033 N   0  0  0  0  0  0  0  0  0  0  0  0
   11.5228  -15.8730   27.6711 C   0  0  1  0  0  0  0  0  0  0  0  0
   10.6648  -14.6105   27.7909 C   0  0  0  0  0  0  0  0  0  0  0  0
    8.9930  -15.1378   28.2795 S   0  0  0  0  0  0  0  0  0  0  0  0
   11.2559  -16.7939   28.8031 C   0  0  0  0  0  0  0  0  0  0  0  0
   11.5885  -16.3922   30.0870 O   0  0  0  0  0  0  0  0  0  0  0  0
   10.7418  -17.9228   28.6529 O   0  0  0  0  0  0  0  0  0  0  0  0
  2  1  1  1
  2 10  1  0
  3  2  1  0
  4  3  1  0
  5  4  2  0
  6  5  1  0
  7  6  2  0
  7  8  1  0
  8  9  2  0
  9  4  1  0
 10 12  1  0
 11 10  2  0
 12 13  1  0
 13 14  1  6
 14 15  1  0
 15 16  2  0
 17 13  1  0
 17 18  2  0
 19 15  1  0
 20 17  1  0
 21 20  1  0
 21 24  1  0
 21 22  1  1
 23 22  1  0
 24 25  1  0
 26 24  2  0
M  END
$$$$
