CKA.pdb
     RDKit          3D

 21 20  0  0  1  0  0  0  0  0999 V2000
   -6.6650  -21.1702   22.7767 N   0  0  0  0  0  0  0  0  0  0  0  0
   -5.9019  -21.6661   23.8959 C   0  0  1  0  0  0  0  0  0  0  0  0
   -5.3516  -20.5237   24.7241 C   0  0  0  0  0  0  0  0  0  0  0  0
   -4.1354  -19.6524   23.6734 S   0  0  0  0  0  0  0  0  0  0  0  0
   -6.7501  -22.5710   24.6947 C   0  0  0  0  0  0  0  0  0  0  0  0
   -8.0112  -22.4518   24.6304 O   0  0  0  0  0  0  0  0  0  0  0  0
   -6.1367  -23.5496   25.5128 N   0  0  0  0  0  0  0  0  0  0  0  0
   -6.9411  -24.5514   26.1358 C   0  0  1  0  0  0  0  0  0  0  0  0
   -6.1872  -25.8853   26.1155 C   0  0  0  0  0  0  0  0  0  0  0  0
   -7.0279  -26.9923   26.6630 C   0  0  0  0  0  0  0  0  0  0  0  0
   -6.2880  -28.2837   26.5970 C   0  0  0  0  0  0  0  0  0  0  0  0
   -7.0876  -29.4860   27.0294 C   0  0  0  0  0  0  0  0  0  0  0  0
   -6.2752  -30.6979   26.9883 N   0  0  0  0  0  0  0  0  0  0  0  0
   -7.2437  -24.2215   27.5638 C   0  0  0  0  0  0  0  0  0  0  0  0
   -8.0556  -24.9098   28.2466 O   0  0  0  0  0  0  0  0  0  0  0  0
   -5.9547  -21.7112   30.1146 C   0  0  0  0  0  0  0  0  0  0  0  0
   -6.8995  -22.7716   29.5894 C   0  0  2  0  0  0  0  0  0  0  0  0
   -6.6361  -23.1209   28.2245 N   0  0  0  0  0  0  0  0  0  0  0  0
   -8.3000  -22.3589   29.8191 C   0  0  0  0  0  0  0  0  0  0  0  0
   -9.1624  -22.2113   28.7506 O   0  0  0  0  0  0  0  0  0  0  0  0
   -8.7334  -22.1359   30.9700 O   0  0  0  0  0  0  0  0  0  0  0  0
  2  5  1  0
  2  1  1  6
  3  2  1  0
  4  3  1  0
  5  6  2  0
  7  8  1  0
  7  5  1  0
  8 14  1  0
  8  9  1  1
 10  9  1  0
 10 11  1  0
 11 12  1  0
 12 13  1  0
 14 18  1  0
 15 14  2  0
 17 16  1  6
 17 19  1  0
 18 17  1  0
 19 21  2  0
 19 20  1  0
M  END
$$$$
