CKA.pdb
     RDKit          3D

 21 20  0  0  1  0  0  0  0  0999 V2000
    4.7814  -13.6852   26.0225 N   0  0  0  0  0  0  0  0  0  0  0  0
    5.9790  -13.0223   25.5675 C   0  0  1  0  0  0  0  0  0  0  0  0
    6.5418  -12.1210   26.6467 C   0  0  0  0  0  0  0  0  0  0  0  0
    5.3897  -10.7104   26.8055 S   0  0  0  0  0  0  0  0  0  0  0  0
    6.9553  -14.0378   25.1292 C   0  0  0  0  0  0  0  0  0  0  0  0
    6.9096  -15.1983   25.6391 O   0  0  0  0  0  0  0  0  0  0  0  0
    7.9184  -13.6931   24.1511 N   0  0  0  0  0  0  0  0  0  0  0  0
    8.7755  -14.7039   23.6198 C   0  0  1  0  0  0  0  0  0  0  0  0
    9.5125  -14.1462   22.3975 C   0  0  0  0  0  0  0  0  0  0  0  0
    8.5535  -13.6396   21.3699 C   0  0  0  0  0  0  0  0  0  0  0  0
    8.7827  -14.3254   20.0674 C   0  0  0  0  0  0  0  0  0  0  0  0
    7.8897  -13.8562   18.9474 C   0  0  0  0  0  0  0  0  0  0  0  0
    8.0948  -14.6559   17.7438 N   0  0  0  0  0  0  0  0  0  0  0  0
    9.8067  -15.1445   24.6108 C   0  0  0  0  0  0  0  0  0  0  0  0
   10.8101  -15.8314   24.2640 O   0  0  0  0  0  0  0  0  0  0  0  0
   10.8468  -14.2779   28.0979 C   0  0  0  0  0  0  0  0  0  0  0  0
   10.6367  -15.2784   26.9808 C   0  0  2  0  0  0  0  0  0  0  0  0
    9.7117  -14.8147   25.9889 N   0  0  0  0  0  0  0  0  0  0  0  0
   10.2671  -16.5939   27.5439 C   0  0  0  0  0  0  0  0  0  0  0  0
   11.0664  -17.1865   28.5016 O   0  0  0  0  0  0  0  0  0  0  0  0
    9.2362  -17.1954   27.1728 O   0  0  0  0  0  0  0  0  0  0  0  0
  2  5  1  0
  2  1  1  1
  3  2  1  0
  4  3  1  0
  5  6  2  0
  7  8  1  0
  7  5  1  0
  8 14  1  0
  8  9  1  6
 10  9  1  0
 10 11  1  0
 11 12  1  0
 12 13  1  0
 14 18  1  0
 15 14  2  0
 17 16  1  1
 17 19  1  0
 18 17  1  0
 19 21  2  0
 19 20  1  0
M  END
$$$$
