CKA.pdb
     RDKit          3D

 21 20  0  0  1  0  0  0  0  0999 V2000
   -3.1791  -22.9381   22.9227 N   0  0  0  0  0  0  0  0  0  0  0  0
   -3.1485  -22.4652   24.2851 C   0  0  1  0  0  0  0  0  0  0  0  0
   -3.1461  -20.9514   24.3324 C   0  0  0  0  0  0  0  0  0  0  0  0
   -1.5330  -20.4085   23.6647 S   0  0  0  0  0  0  0  0  0  0  0  0
   -4.2905  -23.0405   25.0209 C   0  0  0  0  0  0  0  0  0  0  0  0
   -5.3724  -23.2695   24.3999 O   0  0  0  0  0  0  0  0  0  0  0  0
   -4.1514  -23.3228   26.4008 N   0  0  0  0  0  0  0  0  0  0  0  0
   -5.2032  -23.9980   27.0910 C   0  0  1  0  0  0  0  0  0  0  0  0
   -4.5966  -25.0500   28.0256 C   0  0  0  0  0  0  0  0  0  0  0  0
   -4.2330  -26.2929   27.2806 C   0  0  0  0  0  0  0  0  0  0  0  0
   -3.6791  -27.3119   28.2155 C   0  0  0  0  0  0  0  0  0  0  0  0
   -3.3053  -28.6197   27.5660 C   0  0  0  0  0  0  0  0  0  0  0  0
   -2.8500  -29.5870   28.5596 N   0  0  0  0  0  0  0  0  0  0  0  0
   -6.0181  -23.0621   27.9275 C   0  0  0  0  0  0  0  0  0  0  0  0
   -5.4775  -22.1898   28.6662 O   0  0  0  0  0  0  0  0  0  0  0  0
   -9.7232  -22.2775   28.2742 C   0  0  0  0  0  0  0  0  0  0  0  0
   -8.2564  -22.1557   28.6294 C   0  0  2  0  0  0  0  0  0  0  0  0
   -7.4377  -23.1054   27.9348 N   0  0  0  0  0  0  0  0  0  0  0  0
   -8.0856  -22.2112   30.0964 C   0  0  0  0  0  0  0  0  0  0  0  0
   -8.4123  -21.1172   30.8734 O   0  0  0  0  0  0  0  0  0  0  0  0
   -7.6473  -23.2352   30.6634 O   0  0  0  0  0  0  0  0  0  0  0  0
  2  5  1  0
  2  1  1  6
  3  2  1  0
  4  3  1  0
  5  6  2  0
  7  8  1  0
  7  5  1  0
  8 14  1  0
  8  9  1  1
 10  9  1  0
 10 11  1  0
 11 12  1  0
 12 13  1  0
 14 18  1  0
 15 14  2  0
 17 16  1  1
 17 19  1  0
 18 17  1  0
 19 21  2  0
 19 20  1  0
M  END
$$$$
