CKA.pdb
     RDKit          3D

 21 20  0  0  1  0  0  0  0  0999 V2000
   10.0776  -15.1726   13.1769 N   0  0  0  0  0  0  0  0  0  0  0  0
    9.4827  -15.8037   14.3296 C   0  0  1  0  0  0  0  0  0  0  0  0
    9.7298  -17.2979   14.3160 C   0  0  0  0  0  0  0  0  0  0  0  0
    8.7130  -17.9854   12.9610 S   0  0  0  0  0  0  0  0  0  0  0  0
   10.0071  -15.1667   15.5525 C   0  0  0  0  0  0  0  0  0  0  0  0
   11.1997  -14.7347   15.5604 O   0  0  0  0  0  0  0  0  0  0  0  0
    9.1678  -15.0529   16.6863 N   0  0  0  0  0  0  0  0  0  0  0  0
    9.6552  -14.4041   17.8611 C   0  0  1  0  0  0  0  0  0  0  0  0
    8.5049  -14.2447   18.8609 C   0  0  0  0  0  0  0  0  0  0  0  0
    8.9676  -13.5878   20.1205 C   0  0  0  0  0  0  0  0  0  0  0  0
    7.8376  -13.4635   21.0832 C   0  0  0  0  0  0  0  0  0  0  0  0
    8.1822  -12.7470   22.3637 C   0  0  0  0  0  0  0  0  0  0  0  0
    7.0530  -12.7544   23.2885 N   0  0  0  0  0  0  0  0  0  0  0  0
   10.7352  -15.1934   18.5321 C   0  0  0  0  0  0  0  0  0  0  0  0
   10.6471  -16.4460   18.6814 O   0  0  0  0  0  0  0  0  0  0  0  0
   14.2953  -14.5765   19.6222 C   0  0  0  0  0  0  0  0  0  0  0  0
   12.9649  -15.2963   19.6905 C   0  0  2  0  0  0  0  0  0  0  0  0
   11.9122  -14.5777   19.0349 N   0  0  0  0  0  0  0  0  0  0  0  0
   12.6453  -15.6350   21.0932 C   0  0  0  0  0  0  0  0  0  0  0  0
   13.5187  -16.4047   21.8360 O   0  0  0  0  0  0  0  0  0  0  0  0
   11.5910  -15.2390   21.6353 O   0  0  0  0  0  0  0  0  0  0  0  0
  2  5  1  0
  2  1  1  6
  3  2  1  0
  4  3  1  0
  5  6  2  0
  7  8  1  0
  7  5  1  0
  8 14  1  0
  8  9  1  1
 10  9  1  0
 10 11  1  0
 11 12  1  0
 12 13  1  0
 14 18  1  0
 15 14  2  0
 17 16  1  1
 17 19  1  0
 18 17  1  0
 19 21  2  0
 19 20  1  0
M  END
$$$$
