CKA.pdb
     RDKit          3D

 21 20  0  0  1  0  0  0  0  0999 V2000
    7.6307  -17.0436   17.0314 N   0  0  0  0  0  0  0  0  0  0  0  0
    8.1102  -18.0638   17.9314 C   0  0  1  0  0  0  0  0  0  0  0  0
    9.6021  -17.9300   18.1553 C   0  0  0  0  0  0  0  0  0  0  0  0
   10.4156  -18.4898   16.6167 S   0  0  0  0  0  0  0  0  0  0  0  0
    7.3515  -17.9880   19.1944 C   0  0  0  0  0  0  0  0  0  0  0  0
    6.9952  -16.8524   19.6330 O   0  0  0  0  0  0  0  0  0  0  0  0
    7.0399  -19.1830   19.8857 N   0  0  0  0  0  0  0  0  0  0  0  0
    6.2245  -19.1271   21.0565 C   0  0  1  0  0  0  0  0  0  0  0  0
    5.3986  -20.4141   21.1554 C   0  0  0  0  0  0  0  0  0  0  0  0
    4.5340  -20.4119   22.3738 C   0  0  0  0  0  0  0  0  0  0  0  0
    3.7854  -21.6956   22.4780 C   0  0  0  0  0  0  0  0  0  0  0  0
    2.8034  -21.7567   23.6199 C   0  0  0  0  0  0  0  0  0  0  0  0
    2.0722  -23.0198   23.6150 N   0  0  0  0  0  0  0  0  0  0  0  0
    7.0412  -19.0136   22.3054 C   0  0  0  0  0  0  0  0  0  0  0  0
    8.0124  -19.7897   22.5365 O   0  0  0  0  0  0  0  0  0  0  0  0
    7.1498  -16.6189   25.2647 C   0  0  0  0  0  0  0  0  0  0  0  0
    7.5973  -17.8083   24.4413 C   0  0  2  0  0  0  0  0  0  0  0  0
    6.7683  -18.0304   23.2933 N   0  0  0  0  0  0  0  0  0  0  0  0
    7.7201  -19.0023   25.3037 C   0  0  0  0  0  0  0  0  0  0  0  0
    8.8670  -19.2056   26.0456 O   0  0  0  0  0  0  0  0  0  0  0  0
    6.8019  -19.8466   25.3824 O   0  0  0  0  0  0  0  0  0  0  0  0
  2  5  1  0
  2  1  1  6
  3  2  1  0
  4  3  1  0
  5  6  2  0
  7  8  1  0
  7  5  1  0
  8 14  1  0
  8  9  1  1
 10  9  1  0
 10 11  1  0
 11 12  1  0
 12 13  1  0
 14 18  1  0
 15 14  2  0
 17 16  1  1
 17 19  1  0
 18 17  1  0
 19 21  2  0
 19 20  1  0
M  END
$$$$
