CKA.pdb
     RDKit          3D

 21 20  0  0  1  0  0  0  0  0999 V2000
    6.4748  -19.0724   24.3161 N   0  0  0  0  0  0  0  0  0  0  0  0
    6.5311  -17.6321   24.3745 C   0  0  1  0  0  0  0  0  0  0  0  0
    7.1408  -17.1670   25.6805 C   0  0  0  0  0  0  0  0  0  0  0  0
    8.5682  -18.2604   26.0117 S   0  0  0  0  0  0  0  0  0  0  0  0
    7.2778  -17.1309   23.2050 C   0  0  0  0  0  0  0  0  0  0  0  0
    8.0365  -17.9251   22.5707 O   0  0  0  0  0  0  0  0  0  0  0  0
    7.1299  -15.7772   22.8195 N   0  0  0  0  0  0  0  0  0  0  0  0
    7.9558  -15.2459   21.7831 C   0  0  1  0  0  0  0  0  0  0  0  0
    7.5371  -13.7994   21.4988 C   0  0  0  0  0  0  0  0  0  0  0  0
    8.3856  -13.1885   20.4316 C   0  0  0  0  0  0  0  0  0  0  0  0
    7.9776  -13.6982   19.0926 C   0  0  0  0  0  0  0  0  0  0  0  0
    8.8005  -13.1713   17.9450 C   0  0  0  0  0  0  0  0  0  0  0  0
    8.2843  -13.6507   16.6667 N   0  0  0  0  0  0  0  0  0  0  0  0
    9.4021  -15.2336   22.1674 C   0  0  0  0  0  0  0  0  0  0  0  0
    9.8060  -14.6513   23.2147 O   0  0  0  0  0  0  0  0  0  0  0  0
   12.3117  -17.3952   21.5546 C   0  0  0  0  0  0  0  0  0  0  0  0
   11.7648  -16.0005   21.7754 C   0  0  2  0  0  0  0  0  0  0  0  0
   10.3935  -15.8741   21.3775 N   0  0  0  0  0  0  0  0  0  0  0  0
   12.6463  -15.0044   21.1311 C   0  0  0  0  0  0  0  0  0  0  0  0
   13.9322  -14.8135   21.5974 O   0  0  0  0  0  0  0  0  0  0  0  0
   12.2561  -14.3190   20.1615 O   0  0  0  0  0  0  0  0  0  0  0  0
  2  5  1  0
  2  1  1  1
  3  2  1  0
  4  3  1  0
  5  6  2  0
  7  8  1  0
  7  5  1  0
  8 14  1  0
  8  9  1  1
 10  9  1  0
 10 11  1  0
 11 12  1  0
 12 13  1  0
 14 18  1  0
 15 14  2  0
 17 16  1  6
 17 19  1  0
 18 17  1  0
 19 21  2  0
 19 20  1  0
M  END
$$$$
