CKA.pdb
     RDKit          3D

 21 20  0  0  1  0  0  0  0  0999 V2000
    5.1981  -13.7691   26.8333 N   0  0  0  0  0  0  0  0  0  0  0  0
    6.2646  -13.1449   26.0890 C   0  0  1  0  0  0  0  0  0  0  0  0
    7.3735  -12.6871   27.0134 C   0  0  0  0  0  0  0  0  0  0  0  0
    6.8702  -11.0561   27.6685 S   0  0  0  0  0  0  0  0  0  0  0  0
    6.7519  -14.0866   25.0632 C   0  0  0  0  0  0  0  0  0  0  0  0
    6.7026  -15.3324   25.2959 O   0  0  0  0  0  0  0  0  0  0  0  0
    7.2623  -13.5775   23.8452 N   0  0  0  0  0  0  0  0  0  0  0  0
    7.7292  -14.4825   22.8443 C   0  0  1  0  0  0  0  0  0  0  0  0
    7.8450  -13.7391   21.5094 C   0  0  0  0  0  0  0  0  0  0  0  0
    8.3430  -14.6408   20.4273 C   0  0  0  0  0  0  0  0  0  0  0  0
    8.4168  -13.9041   19.1346 C   0  0  0  0  0  0  0  0  0  0  0  0
    8.9689  -14.7091   17.9861 C   0  0  0  0  0  0  0  0  0  0  0  0
    9.1674  -13.8719   16.8071 N   0  0  0  0  0  0  0  0  0  0  0  0
    9.0790  -15.0381   23.1743 C   0  0  0  0  0  0  0  0  0  0  0  0
   10.0443  -14.2885   23.4989 O   0  0  0  0  0  0  0  0  0  0  0  0
   10.5625  -18.1271   24.4328 C   0  0  0  0  0  0  0  0  0  0  0  0
   10.6300  -17.0021   23.4215 C   0  0  2  0  0  0  0  0  0  0  0  0
    9.3450  -16.4328   23.1401 N   0  0  0  0  0  0  0  0  0  0  0  0
   11.3378  -17.4570   22.2064 C   0  0  0  0  0  0  0  0  0  0  0  0
   12.6714  -17.8097   22.2731 O   0  0  0  0  0  0  0  0  0  0  0  0
   10.7557  -17.5330   21.1030 O   0  0  0  0  0  0  0  0  0  0  0  0
  2  5  1  0
  2  1  1  1
  3  2  1  0
  4  3  1  0
  5  6  2  0
  7  8  1  0
  7  5  1  0
  8 14  1  0
  8  9  1  6
 10  9  1  0
 10 11  1  0
 11 12  1  0
 12 13  1  0
 14 18  1  0
 15 14  2  0
 17 16  1  1
 17 19  1  0
 18 17  1  0
 19 21  2  0
 19 20  1  0
M  END
$$$$
