CKA.pdb
     RDKit          3D

 21 20  0  0  1  0  0  0  0  0999 V2000
    7.8182  -14.8973   16.2956 N   0  0  0  0  0  0  0  0  0  0  0  0
    8.3628  -14.3799   17.5271 C   0  0  1  0  0  0  0  0  0  0  0  0
    7.5445  -13.2093   18.0308 C   0  0  0  0  0  0  0  0  0  0  0  0
    8.6362  -12.2418   19.1330 S   0  0  0  0  0  0  0  0  0  0  0  0
    8.4368  -15.4709   18.5174 C   0  0  0  0  0  0  0  0  0  0  0  0
    7.3873  -16.1285   18.7907 O   0  0  0  0  0  0  0  0  0  0  0  0
    9.6761  -15.7572   19.1382 N   0  0  0  0  0  0  0  0  0  0  0  0
    9.7284  -16.7109   20.1994 C   0  0  1  0  0  0  0  0  0  0  0  0
   10.7366  -17.8076   19.8401 C   0  0  0  0  0  0  0  0  0  0  0  0
   10.7614  -18.8831   20.8768 C   0  0  0  0  0  0  0  0  0  0  0  0
   11.6912  -19.9729   20.4681 C   0  0  0  0  0  0  0  0  0  0  0  0
   11.8053  -21.1028   21.4591 C   0  0  0  0  0  0  0  0  0  0  0  0
   12.7512  -22.1130   20.9953 N   0  0  0  0  0  0  0  0  0  0  0  0
   10.1688  -16.0931   21.4894 C   0  0  0  0  0  0  0  0  0  0  0  0
   11.3000  -15.5408   21.6090 O   0  0  0  0  0  0  0  0  0  0  0  0
    8.5995  -15.3148   24.8491 C   0  0  0  0  0  0  0  0  0  0  0  0
    9.7615  -15.6030   23.9221 C   0  0  2  0  0  0  0  0  0  0  0  0
    9.3408  -16.0951   22.6432 N   0  0  0  0  0  0  0  0  0  0  0  0
   10.7329  -16.4934   24.5914 C   0  0  0  0  0  0  0  0  0  0  0  0
   11.5328  -16.0070   25.6067 O   0  0  0  0  0  0  0  0  0  0  0  0
   10.8535  -17.6926   24.2603 O   0  0  0  0  0  0  0  0  0  0  0  0
  2  5  1  0
  2  1  1  6
  3  2  1  0
  4  3  1  0
  5  6  2  0
  7  8  1  0
  7  5  1  0
  8 14  1  0
  8  9  1  6
 10  9  1  0
 10 11  1  0
 11 12  1  0
 12 13  1  0
 14 18  1  0
 15 14  2  0
 17 16  1  1
 17 19  1  0
 18 17  1  0
 19 21  2  0
 19 20  1  0
M  END
$$$$
