CKA.pdb
     RDKit          3D

 21 20  0  0  1  0  0  0  0  0999 V2000
    5.2871  -13.1180   26.9522 N   0  0  0  0  0  0  0  0  0  0  0  0
    6.4675  -12.8024   26.1853 C   0  0  1  0  0  0  0  0  0  0  0  0
    7.5891  -12.3316   27.0876 C   0  0  0  0  0  0  0  0  0  0  0  0
    7.3054  -10.5512   27.3915 S   0  0  0  0  0  0  0  0  0  0  0  0
    6.8551  -13.9826   25.3894 C   0  0  0  0  0  0  0  0  0  0  0  0
    6.8403  -15.1272   25.9356 O   0  0  0  0  0  0  0  0  0  0  0  0
    7.2340  -13.8093   24.0368 N   0  0  0  0  0  0  0  0  0  0  0  0
    7.6865  -14.9341   23.2826 C   0  0  1  0  0  0  0  0  0  0  0  0
    7.6833  -14.5743   21.7931 C   0  0  0  0  0  0  0  0  0  0  0  0
    7.9860  -15.7671   20.9459 C   0  0  0  0  0  0  0  0  0  0  0  0
    7.8832  -15.4144   19.5022 C   0  0  0  0  0  0  0  0  0  0  0  0
    8.0826  -16.5732   18.5591 C   0  0  0  0  0  0  0  0  0  0  0  0
    9.4503  -17.0777   18.6308 N   0  0  0  0  0  0  0  0  0  0  0  0
    9.0807  -15.3339   23.6511 C   0  0  0  0  0  0  0  0  0  0  0  0
   10.0234  -14.4921   23.6945 O   0  0  0  0  0  0  0  0  0  0  0  0
   10.7188  -18.3066   25.2629 C   0  0  0  0  0  0  0  0  0  0  0  0
   10.7323  -17.0947   24.3552 C   0  0  2  0  0  0  0  0  0  0  0  0
    9.4165  -16.6764   23.9703 N   0  0  0  0  0  0  0  0  0  0  0  0
   11.6209  -17.3389   23.1997 C   0  0  0  0  0  0  0  0  0  0  0  0
   12.9745  -17.5303   23.3953 O   0  0  0  0  0  0  0  0  0  0  0  0
   11.1761  -17.3778   22.0323 O   0  0  0  0  0  0  0  0  0  0  0  0
  2  5  1  0
  2  1  1  1
  3  2  1  0
  4  3  1  0
  5  6  2  0
  7  8  1  0
  7  5  1  0
  8 14  1  0
  8  9  1  6
 10  9  1  0
 10 11  1  0
 11 12  1  0
 12 13  1  0
 14 18  1  0
 15 14  2  0
 17 16  1  6
 17 19  1  0
 18 17  1  0
 19 21  2  0
 19 20  1  0
M  END
$$$$
