QAE.pdb
     RDKit          3D

 24 23  0  0  1  0  0  0  0  0999 V2000
   14.3906  -13.8625  -16.0807 N   0  0  0  0  0  0  0  0  0  0  0  0
   14.7023  -14.8931  -15.1647 C   0  0  0  0  0  0  0  0  0  0  0  0
   13.8688  -15.8019  -14.9688 O   0  0  0  0  0  0  0  0  0  0  0  0
   15.9843  -14.8893  -14.4594 C   0  0  0  0  0  0  0  0  0  0  0  0
   16.8580  -13.7124  -14.7054 C   0  0  0  0  0  0  0  0  0  0  0  0
   17.3388  -13.5414  -16.1261 C   0  0  2  0  0  0  0  0  0  0  0  0
   18.4802  -14.4638  -16.2623 N   0  0  0  0  0  0  0  0  0  0  0  0
   17.8585  -12.1698  -16.3579 C   0  0  0  0  0  0  0  0  0  0  0  0
   18.9418  -11.8431  -15.7974 O   0  0  0  0  0  0  0  0  0  0  0  0
   17.0339   -9.1761  -18.5588 C   0  0  0  0  0  0  0  0  0  0  0  0
   17.7619   -9.9194  -17.4613 C   0  0  2  0  0  0  0  0  0  0  0  0
   17.2158  -11.2041  -17.1701 N   0  0  0  0  0  0  0  0  0  0  0  0
   17.8604   -9.0489  -16.2554 C   0  0  0  0  0  0  0  0  0  0  0  0
   17.0657   -9.0981  -15.3036 O   0  0  0  0  0  0  0  0  0  0  0  0
   18.9290   -8.1140  -16.2044 N   0  0  0  0  0  0  0  0  0  0  0  0
   19.2063   -7.2630  -15.0553 C   0  0  1  0  0  0  0  0  0  0  0  0
   20.5698   -6.6617  -15.2425 C   0  0  0  0  0  0  0  0  0  0  0  0
   20.9315   -5.8403  -14.0461 C   0  0  0  0  0  0  0  0  0  0  0  0
   22.2470   -5.1908  -14.1893 C   0  0  0  0  0  0  0  0  0  0  0  0
   23.1044   -5.5129  -15.0432 O   0  0  0  0  0  0  0  0  0  0  0  0
   18.2184   -6.1424  -14.9805 C   0  0  0  0  0  0  0  0  0  0  0  0
   17.7887   -5.6229  -13.7742 O   0  0  0  0  0  0  0  0  0  0  0  0
   22.5719   -4.1344  -13.3105 O   0  0  0  0  0  0  0  0  0  0  0  0
   17.7584   -5.6503  -16.0398 O   0  0  0  0  0  0  0  0  0  0  0  0
  2  1  1  0
  3  2  2  0
  4  2  1  0
  5  4  1  0
  6  7  1  1
  6  5  1  0
  6  8  1  0
  8  9  2  0
 11 10  1  6
 11 13  1  0
 12  8  1  0
 12 11  1  0
 13 15  1  0
 13 14  2  0
 15 16  1  0
 16 21  1  0
 16 17  1  6
 18 17  1  0
 19 18  1  0
 20 19  2  0
 21 22  1  0
 23 19  1  0
 24 21  2  0
M  END
$$$$
