QAE.pdb
     RDKit          3D

 24 23  0  0  1  0  0  0  0  0999 V2000
   18.1027  -10.6398  -11.5459 N   0  0  0  0  0  0  0  0  0  0  0  0
   17.0992  -11.1467  -12.4028 C   0  0  0  0  0  0  0  0  0  0  0  0
   17.3443  -11.2603  -13.6219 O   0  0  0  0  0  0  0  0  0  0  0  0
   15.7945  -11.5307  -11.8633 C   0  0  0  0  0  0  0  0  0  0  0  0
   15.6453  -11.4281  -10.3881 C   0  0  0  0  0  0  0  0  0  0  0  0
   14.4003  -10.7243   -9.9049 C   0  0  2  0  0  0  0  0  0  0  0  0
   13.3841  -10.9798  -10.9412 N   0  0  0  0  0  0  0  0  0  0  0  0
   14.6008   -9.2541   -9.8461 C   0  0  0  0  0  0  0  0  0  0  0  0
   14.2999   -8.5728  -10.8658 O   0  0  0  0  0  0  0  0  0  0  0  0
   15.6160   -6.6275   -7.2826 C   0  0  0  0  0  0  0  0  0  0  0  0
   15.2953   -7.1540   -8.6636 C   0  0  2  0  0  0  0  0  0  0  0  0
   15.1078   -8.5665   -8.7166 N   0  0  0  0  0  0  0  0  0  0  0  0
   16.3253   -6.6732   -9.6278 C   0  0  0  0  0  0  0  0  0  0  0  0
   17.4113   -7.2432   -9.8167 O   0  0  0  0  0  0  0  0  0  0  0  0
   16.0358   -5.4947  -10.3665 N   0  0  0  0  0  0  0  0  0  0  0  0
   16.8176   -5.0427  -11.5093 C   0  0  1  0  0  0  0  0  0  0  0  0
   16.7422   -6.1027  -12.5706 C   0  0  0  0  0  0  0  0  0  0  0  0
   17.4214   -5.6253  -13.8147 C   0  0  0  0  0  0  0  0  0  0  0  0
   17.4427   -6.6532  -14.8710 C   0  0  0  0  0  0  0  0  0  0  0  0
   16.9952   -7.8147  -14.7352 O   0  0  0  0  0  0  0  0  0  0  0  0
   16.2403   -3.7850  -12.0769 C   0  0  0  0  0  0  0  0  0  0  0  0
   17.0338   -2.7984  -12.6305 O   0  0  0  0  0  0  0  0  0  0  0  0
   18.0027   -6.3162  -16.1227 O   0  0  0  0  0  0  0  0  0  0  0  0
   14.9975   -3.6090  -12.0553 O   0  0  0  0  0  0  0  0  0  0  0  0
  2  1  1  0
  3  2  2  0
  4  2  1  0
  5  4  1  0
  6  7  1  6
  6  5  1  0
  6  8  1  0
  8  9  2  0
 11 10  1  1
 11 13  1  0
 12  8  1  0
 12 11  1  0
 13 15  1  0
 13 14  2  0
 15 16  1  0
 16 21  1  0
 16 17  1  6
 18 17  1  0
 19 18  1  0
 20 19  2  0
 21 22  1  0
 23 19  1  0
 24 21  2  0
M  END
$$$$
