QAE.pdb
     RDKit          3D

 24 23  0  0  1  0  0  0  0  0999 V2000
   19.3235  -14.4403  -17.0503 N   0  0  0  0  0  0  0  0  0  0  0  0
   18.3375  -14.3304  -16.0433 C   0  0  0  0  0  0  0  0  0  0  0  0
   17.8306  -15.3714  -15.5757 O   0  0  0  0  0  0  0  0  0  0  0  0
   17.9210  -13.0136  -15.5604 C   0  0  0  0  0  0  0  0  0  0  0  0
   18.5684  -11.8466  -16.2147 C   0  0  0  0  0  0  0  0  0  0  0  0
   18.2416  -10.4990  -15.6179 C   0  0  2  0  0  0  0  0  0  0  0  0
   16.7716  -10.4028  -15.6605 N   0  0  0  0  0  0  0  0  0  0  0  0
   18.7738   -9.3949  -16.4563 C   0  0  0  0  0  0  0  0  0  0  0  0
   20.0200   -9.1915  -16.4484 O   0  0  0  0  0  0  0  0  0  0  0  0
   17.4873   -6.9215  -19.0470 C   0  0  0  0  0  0  0  0  0  0  0  0
   18.4863   -7.4929  -18.0659 C   0  0  2  0  0  0  0  0  0  0  0  0
   17.9711   -8.5553  -17.2662 N   0  0  0  0  0  0  0  0  0  0  0  0
   19.0668   -6.3881  -17.2510 C   0  0  0  0  0  0  0  0  0  0  0  0
   18.5147   -5.9081  -16.2486 O   0  0  0  0  0  0  0  0  0  0  0  0
   20.3239   -5.8632  -17.6546 N   0  0  0  0  0  0  0  0  0  0  0  0
   20.9796   -4.7389  -17.0009 C   0  0  1  0  0  0  0  0  0  0  0  0
   21.8077   -5.2791  -15.8704 C   0  0  0  0  0  0  0  0  0  0  0  0
   21.1465   -4.9720  -14.5644 C   0  0  0  0  0  0  0  0  0  0  0  0
   21.9428   -5.4308  -13.4118 C   0  0  0  0  0  0  0  0  0  0  0  0
   22.5499   -4.6692  -12.6249 O   0  0  0  0  0  0  0  0  0  0  0  0
   21.9013   -4.0429  -17.9513 C   0  0  0  0  0  0  0  0  0  0  0  0
   22.5502   -2.8696  -17.6168 O   0  0  0  0  0  0  0  0  0  0  0  0
   22.0335   -6.8189  -13.1700 O   0  0  0  0  0  0  0  0  0  0  0  0
   22.0994   -4.5303  -19.0911 O   0  0  0  0  0  0  0  0  0  0  0  0
  2  1  1  0
  3  2  2  0
  4  2  1  0
  5  4  1  0
  6  7  1  6
  6  5  1  0
  6  8  1  0
  8  9  2  0
 11 10  1  1
 11 13  1  0
 12  8  1  0
 12 11  1  0
 13 15  1  0
 13 14  2  0
 15 16  1  0
 16 21  1  0
 16 17  1  1
 18 17  1  0
 19 18  1  0
 20 19  2  0
 21 22  1  0
 23 19  1  0
 24 21  2  0
M  END
$$$$
