QAE.pdb
     RDKit          3D

 24 23  0  0  1  0  0  0  0  0999 V2000
   24.7526  -21.4243  -10.6770 N   0  0  0  0  0  0  0  0  0  0  0  0
   25.9511  -21.0170  -10.0476 C   0  0  0  0  0  0  0  0  0  0  0  0
   26.1743  -21.3834   -8.8750 O   0  0  0  0  0  0  0  0  0  0  0  0
   26.9118  -20.1783  -10.7648 C   0  0  0  0  0  0  0  0  0  0  0  0
   26.5352  -19.7987  -12.1516 C   0  0  0  0  0  0  0  0  0  0  0  0
   26.8113  -20.8382  -13.2110 C   0  0  2  0  0  0  0  0  0  0  0  0
   28.2800  -20.9381  -13.2820 N   0  0  0  0  0  0  0  0  0  0  0  0
   26.3416  -20.3859  -14.5452 C   0  0  0  0  0  0  0  0  0  0  0  0
   26.3371  -19.1459  -14.7838 O   0  0  0  0  0  0  0  0  0  0  0  0
   25.3431  -21.4862  -17.9591 C   0  0  0  0  0  0  0  0  0  0  0  0
   25.0144  -20.8701  -16.6176 C   0  0  2  0  0  0  0  0  0  0  0  0
   25.8988  -21.2586  -15.5687 N   0  0  0  0  0  0  0  0  0  0  0  0
   23.5837  -21.1308  -16.2908 C   0  0  0  0  0  0  0  0  0  0  0  0
   23.2101  -21.7694  -15.2945 O   0  0  0  0  0  0  0  0  0  0  0  0
   22.6014  -20.6136  -17.1774 N   0  0  0  0  0  0  0  0  0  0  0  0
   21.2448  -20.2715  -16.7725 C   0  0  1  0  0  0  0  0  0  0  0  0
   21.3246  -19.1199  -15.8117 C   0  0  0  0  0  0  0  0  0  0  0  0
   19.9475  -18.7001  -15.4062 C   0  0  0  0  0  0  0  0  0  0  0  0
   19.8074  -18.5758  -13.9441 C   0  0  0  0  0  0  0  0  0  0  0  0
   19.9370  -17.5034  -13.3109 O   0  0  0  0  0  0  0  0  0  0  0  0
   20.4400  -19.8277  -17.9527 C   0  0  0  0  0  0  0  0  0  0  0  0
   20.9258  -18.9160  -18.8705 O   0  0  0  0  0  0  0  0  0  0  0  0
   19.5071  -19.7368  -13.1986 O   0  0  0  0  0  0  0  0  0  0  0  0
   19.2860  -20.2909  -18.1251 O   0  0  0  0  0  0  0  0  0  0  0  0
  2  1  1  0
  3  2  2  0
  4  2  1  0
  5  4  1  0
  6  7  1  6
  6  5  1  0
  6  8  1  0
  8  9  2  0
 11 10  1  6
 11 13  1  0
 12  8  1  0
 12 11  1  0
 13 15  1  0
 13 14  2  0
 15 16  1  0
 16 21  1  0
 16 17  1  1
 18 17  1  0
 19 18  1  0
 20 19  2  0
 21 22  1  0
 23 19  1  0
 24 21  2  0
M  END
$$$$
