QAE.pdb
     RDKit          3D

 24 23  0  0  1  0  0  0  0  0999 V2000
   22.9182  -18.1968  -19.8831 N   0  0  0  0  0  0  0  0  0  0  0  0
   22.4836  -16.8662  -19.6859 C   0  0  0  0  0  0  0  0  0  0  0  0
   23.2073  -15.9279  -20.0798 O   0  0  0  0  0  0  0  0  0  0  0  0
   21.2038  -16.5986  -19.0291 C   0  0  0  0  0  0  0  0  0  0  0  0
   21.1803  -15.4396  -18.0989 C   0  0  0  0  0  0  0  0  0  0  0  0
   21.7773  -15.6852  -16.7343 C   0  0  2  0  0  0  0  0  0  0  0  0
   20.8023  -16.5395  -16.0332 N   0  0  0  0  0  0  0  0  0  0  0  0
   21.8864  -14.4235  -15.9587 C   0  0  0  0  0  0  0  0  0  0  0  0
   20.8255  -13.9162  -15.4985 O   0  0  0  0  0  0  0  0  0  0  0  0
   24.6209  -12.1248  -14.6377 C   0  0  0  0  0  0  0  0  0  0  0  0
   23.2036  -12.5272  -14.9789 C   0  0  2  0  0  0  0  0  0  0  0  0
   23.1068  -13.7530  -15.7011 N   0  0  0  0  0  0  0  0  0  0  0  0
   22.5209  -11.3965  -15.6696 C   0  0  0  0  0  0  0  0  0  0  0  0
   22.5149  -11.2445  -16.9012 O   0  0  0  0  0  0  0  0  0  0  0  0
   21.8419  -10.4455  -14.8615 N   0  0  0  0  0  0  0  0  0  0  0  0
   21.1402   -9.2851  -15.3929 C   0  0  1  0  0  0  0  0  0  0  0  0
   19.9569   -9.0142  -14.5085 C   0  0  0  0  0  0  0  0  0  0  0  0
   19.2021   -7.8281  -15.0189 C   0  0  0  0  0  0  0  0  0  0  0  0
   17.8879   -8.1973  -15.5753 C   0  0  0  0  0  0  0  0  0  0  0  0
   16.9871   -8.7812  -14.9308 O   0  0  0  0  0  0  0  0  0  0  0  0
   22.0218   -8.0772  -15.3603 C   0  0  0  0  0  0  0  0  0  0  0  0
   21.7734   -6.9665  -16.1441 O   0  0  0  0  0  0  0  0  0  0  0  0
   17.6166   -7.8757  -16.9231 O   0  0  0  0  0  0  0  0  0  0  0  0
   23.0216   -8.0603  -14.6012 O   0  0  0  0  0  0  0  0  0  0  0  0
  2  1  1  0
  3  2  2  0
  4  2  1  0
  5  4  1  0
  6  7  1  1
  6  5  1  0
  6  8  1  0
  8  9  2  0
 11 10  1  6
 11 13  1  0
 12  8  1  0
 12 11  1  0
 13 15  1  0
 13 14  2  0
 15 16  1  0
 16 21  1  0
 16 17  1  1
 18 17  1  0
 19 18  1  0
 20 19  2  0
 21 22  1  0
 23 19  1  0
 24 21  2  0
M  END
$$$$
