QAE.pdb
     RDKit          3D

 24 23  0  0  1  0  0  0  0  0999 V2000
   11.6887  -10.0323  -11.6877 N   0  0  0  0  0  0  0  0  0  0  0  0
   12.1197  -11.0090  -10.7611 C   0  0  0  0  0  0  0  0  0  0  0  0
   11.2660  -11.7084  -10.1771 O   0  0  0  0  0  0  0  0  0  0  0  0
   13.5465  -11.1927  -10.4941 C   0  0  0  0  0  0  0  0  0  0  0  0
   14.4707  -10.3345  -11.2806 C   0  0  0  0  0  0  0  0  0  0  0  0
   15.9390  -10.6567  -11.1410 C   0  0  2  0  0  0  0  0  0  0  0  0
   16.3008  -10.2312   -9.7772 N   0  0  0  0  0  0  0  0  0  0  0  0
   16.7594   -9.8501  -12.0799 C   0  0  0  0  0  0  0  0  0  0  0  0
   16.6874   -8.5919  -12.0005 O   0  0  0  0  0  0  0  0  0  0  0  0
   19.3621  -10.4399  -14.8019 C   0  0  0  0  0  0  0  0  0  0  0  0
   18.4137   -9.6247  -13.9516 C   0  0  2  0  0  0  0  0  0  0  0  0
   17.6197  -10.4034  -13.0591 N   0  0  0  0  0  0  0  0  0  0  0  0
   17.5946   -8.7428  -14.8309 C   0  0  0  0  0  0  0  0  0  0  0  0
   16.5165   -9.0874  -15.3397 O   0  0  0  0  0  0  0  0  0  0  0  0
   18.0864   -7.4361  -15.0938 N   0  0  0  0  0  0  0  0  0  0  0  0
   17.3898   -6.4597  -15.9202 C   0  0  1  0  0  0  0  0  0  0  0  0
   17.2545   -5.1925  -15.1254 C   0  0  0  0  0  0  0  0  0  0  0  0
   16.6356   -4.1258  -15.9716 C   0  0  0  0  0  0  0  0  0  0  0  0
   16.4743   -2.8551  -15.2419 C   0  0  0  0  0  0  0  0  0  0  0  0
   16.8371   -2.6697  -14.0579 O   0  0  0  0  0  0  0  0  0  0  0  0
   18.1851   -6.1472  -17.1478 C   0  0  0  0  0  0  0  0  0  0  0  0
   17.5942   -5.6732  -18.3035 O   0  0  0  0  0  0  0  0  0  0  0  0
   15.8722   -1.7686  -15.9134 O   0  0  0  0  0  0  0  0  0  0  0  0
   19.4290   -6.3168  -17.1400 O   0  0  0  0  0  0  0  0  0  0  0  0
  2  1  1  0
  3  2  2  0
  4  2  1  0
  5  4  1  0
  6  7  1  1
  6  5  1  0
  6  8  1  0
  8  9  2  0
 11 10  1  6
 11 13  1  0
 12  8  1  0
 12 11  1  0
 13 15  1  0
 13 14  2  0
 15 16  1  0
 16 21  1  0
 16 17  1  1
 18 17  1  0
 19 18  1  0
 20 19  2  0
 21 22  1  0
 23 19  1  0
 24 21  2  0
M  END
$$$$
