QAE.pdb
     RDKit          3D

 24 23  0  0  1  0  0  0  0  0999 V2000
   21.5769  -21.0430  -10.3415 N   0  0  0  0  0  0  0  0  0  0  0  0
   22.0029  -21.2713   -9.0130 C   0  0  0  0  0  0  0  0  0  0  0  0
   21.2101  -21.7979   -8.2047 O   0  0  0  0  0  0  0  0  0  0  0  0
   23.3539  -20.8936   -8.5972 C   0  0  0  0  0  0  0  0  0  0  0  0
   24.1575  -20.1461   -9.5995 C   0  0  0  0  0  0  0  0  0  0  0  0
   25.2531  -20.9334  -10.2768 C   0  0  2  0  0  0  0  0  0  0  0  0
   26.5066  -20.4586   -9.6642 N   0  0  0  0  0  0  0  0  0  0  0  0
   25.3293  -20.6148  -11.7252 C   0  0  0  0  0  0  0  0  0  0  0  0
   24.9376  -19.4756  -12.1036 O   0  0  0  0  0  0  0  0  0  0  0  0
   26.5488  -22.2438  -14.9454 C   0  0  0  0  0  0  0  0  0  0  0  0
   25.7786  -21.2449  -14.1110 C   0  0  2  0  0  0  0  0  0  0  0  0
   25.8154  -21.5087  -12.7101 N   0  0  0  0  0  0  0  0  0  0  0  0
   24.3895  -21.1265  -14.6384 C   0  0  0  0  0  0  0  0  0  0  0  0
   23.4859  -21.9390  -14.3872 O   0  0  0  0  0  0  0  0  0  0  0  0
   24.0957  -20.0162  -15.4747 N   0  0  0  0  0  0  0  0  0  0  0  0
   22.7700  -19.7314  -16.0066 C   0  0  1  0  0  0  0  0  0  0  0  0
   22.6507  -18.2446  -16.1818 C   0  0  0  0  0  0  0  0  0  0  0  0
   21.2764  -17.8979  -16.6594 C   0  0  0  0  0  0  0  0  0  0  0  0
   21.1212  -16.4554  -16.9202 C   0  0  0  0  0  0  0  0  0  0  0  0
   21.8198  -15.8051  -17.7308 O   0  0  0  0  0  0  0  0  0  0  0  0
   22.5950  -20.3659  -17.3498 C   0  0  0  0  0  0  0  0  0  0  0  0
   23.6668  -20.8394  -18.0824 O   0  0  0  0  0  0  0  0  0  0  0  0
   20.1216  -15.7506  -16.2146 O   0  0  0  0  0  0  0  0  0  0  0  0
   21.4434  -20.4771  -17.8371 O   0  0  0  0  0  0  0  0  0  0  0  0
  2  1  1  0
  3  2  2  0
  4  2  1  0
  5  4  1  0
  6  7  1  1
  6  5  1  0
  6  8  1  0
  8  9  2  0
 11 10  1  6
 11 13  1  0
 12  8  1  0
 12 11  1  0
 13 15  1  0
 13 14  2  0
 15 16  1  0
 16 21  1  0
 16 17  1  6
 18 17  1  0
 19 18  1  0
 20 19  2  0
 21 22  1  0
 23 19  1  0
 24 21  2  0
M  END
$$$$
