QAE.pdb
     RDKit          3D

 24 23  0  0  1  0  0  0  0  0999 V2000
   18.9006  -17.0211  -15.4219 N   0  0  0  0  0  0  0  0  0  0  0  0
   18.2071  -16.4519  -16.5144 C   0  0  0  0  0  0  0  0  0  0  0  0
   18.1457  -17.0848  -17.5890 O   0  0  0  0  0  0  0  0  0  0  0  0
   17.5728  -15.1401  -16.3818 C   0  0  0  0  0  0  0  0  0  0  0  0
   18.4752  -14.0150  -16.0231 C   0  0  0  0  0  0  0  0  0  0  0  0
   18.7052  -12.9909  -17.1081 C   0  0  2  0  0  0  0  0  0  0  0  0
   19.0545  -13.7707  -18.3088 N   0  0  0  0  0  0  0  0  0  0  0  0
   19.8724  -12.1276  -16.7958 C   0  0  0  0  0  0  0  0  0  0  0  0
   19.8470  -11.4600  -15.7243 O   0  0  0  0  0  0  0  0  0  0  0  0
   23.2556  -11.2478  -18.3144 C   0  0  0  0  0  0  0  0  0  0  0  0
   22.0669  -11.0718  -17.3961 C   0  0  2  0  0  0  0  0  0  0  0  0
   21.0145  -12.0065  -17.6243 N   0  0  0  0  0  0  0  0  0  0  0  0
   21.6027   -9.6566  -17.4535 C   0  0  0  0  0  0  0  0  0  0  0  0
   20.7775   -9.2354  -18.2790 O   0  0  0  0  0  0  0  0  0  0  0  0
   22.1427   -8.7480  -16.5040 N   0  0  0  0  0  0  0  0  0  0  0  0
   21.8298   -7.3258  -16.4753 C   0  0  1  0  0  0  0  0  0  0  0  0
   22.1523   -6.8082  -15.1028 C   0  0  0  0  0  0  0  0  0  0  0  0
   21.7674   -5.3666  -15.0000 C   0  0  0  0  0  0  0  0  0  0  0  0
   22.0643   -4.8008  -13.6716 C   0  0  0  0  0  0  0  0  0  0  0  0
   22.0757   -3.5758  -13.4123 O   0  0  0  0  0  0  0  0  0  0  0  0
   22.6783   -6.5809  -17.4563 C   0  0  0  0  0  0  0  0  0  0  0  0
   22.2112   -5.4728  -18.1371 O   0  0  0  0  0  0  0  0  0  0  0  0
   22.3563   -5.6901  -12.6145 O   0  0  0  0  0  0  0  0  0  0  0  0
   23.8531   -6.9650  -17.6763 O   0  0  0  0  0  0  0  0  0  0  0  0
  2  1  1  0
  3  2  2  0
  4  2  1  0
  5  4  1  0
  6  7  1  6
  6  5  1  0
  6  8  1  0
  8  9  2  0
 11 10  1  6
 11 13  1  0
 12  8  1  0
 12 11  1  0
 13 15  1  0
 13 14  2  0
 15 16  1  0
 16 21  1  0
 16 17  1  1
 18 17  1  0
 19 18  1  0
 20 19  2  0
 21 22  1  0
 23 19  1  0
 24 21  2  0
M  END
$$$$
