QAE.pdb
     RDKit          3D

 24 23  0  0  1  0  0  0  0  0999 V2000
   11.5765  -12.5392  -10.5914 N   0  0  0  0  0  0  0  0  0  0  0  0
   11.5914  -13.7851  -11.2592 C   0  0  0  0  0  0  0  0  0  0  0  0
   10.6997  -14.6206  -11.0026 O   0  0  0  0  0  0  0  0  0  0  0  0
   12.6390  -14.0854  -12.2355 C   0  0  0  0  0  0  0  0  0  0  0  0
   13.7089  -13.0632  -12.3761 C   0  0  0  0  0  0  0  0  0  0  0  0
   14.8312  -13.4184  -13.3212 C   0  0  2  0  0  0  0  0  0  0  0  0
   15.5090  -14.5711  -12.7016 N   0  0  0  0  0  0  0  0  0  0  0  0
   15.8296  -12.3225  -13.4082 C   0  0  0  0  0  0  0  0  0  0  0  0
   16.4940  -12.0413  -12.3719 O   0  0  0  0  0  0  0  0  0  0  0  0
   17.4016  -10.1020  -16.0579 C   0  0  0  0  0  0  0  0  0  0  0  0
   17.0136  -10.4926  -14.6494 C   0  0  2  0  0  0  0  0  0  0  0  0
   16.0850  -11.5727  -14.5820 N   0  0  0  0  0  0  0  0  0  0  0  0
   16.5460   -9.2845  -13.9120 C   0  0  0  0  0  0  0  0  0  0  0  0
   15.4194   -9.1820  -13.4020 O   0  0  0  0  0  0  0  0  0  0  0  0
   17.4505   -8.1953  -13.7929 N   0  0  0  0  0  0  0  0  0  0  0  0
   17.1372   -6.9550  -13.0966 C   0  0  1  0  0  0  0  0  0  0  0  0
   17.0191   -7.2634  -11.6315 C   0  0  0  0  0  0  0  0  0  0  0  0
   16.7415   -6.0072  -10.8687 C   0  0  0  0  0  0  0  0  0  0  0  0
   16.6731   -6.2384   -9.4144 C   0  0  0  0  0  0  0  0  0  0  0  0
   16.8352   -7.3534   -8.8682 O   0  0  0  0  0  0  0  0  0  0  0  0
   18.2431   -5.9625  -13.2675 C   0  0  0  0  0  0  0  0  0  0  0  0
   19.4796   -6.3214  -13.7693 O   0  0  0  0  0  0  0  0  0  0  0  0
   16.4079   -5.1363   -8.5725 O   0  0  0  0  0  0  0  0  0  0  0  0
   18.0539   -4.7631  -12.9485 O   0  0  0  0  0  0  0  0  0  0  0  0
  2  1  1  0
  3  2  2  0
  4  2  1  0
  5  4  1  0
  6  7  1  1
  6  5  1  0
  6  8  1  0
  8  9  2  0
 11 10  1  6
 11 13  1  0
 12  8  1  0
 12 11  1  0
 13 15  1  0
 13 14  2  0
 15 16  1  0
 16 21  1  0
 16 17  1  1
 18 17  1  0
 19 18  1  0
 20 19  2  0
 21 22  1  0
 23 19  1  0
 24 21  2  0
M  END
$$$$
