STC.pdb
     RDKit          3D

 20 19  0  0  1  0  0  0  0  0999 V2000
   17.0384  -11.4251  -13.9347 O   0  0  0  0  0  0  0  0  0  0  0  0
   16.6321  -11.3112  -15.2464 C   0  0  0  0  0  0  0  0  0  0  0  0
   17.6349  -11.8688  -16.2265 C   0  0  2  0  0  0  0  0  0  0  0  0
   17.7809  -13.2807  -16.0656 N   0  0  0  0  0  0  0  0  0  0  0  0
   18.9175  -11.1354  -16.1955 C   0  0  0  0  0  0  0  0  0  0  0  0
   19.9003  -11.6761  -15.6400 O   0  0  0  0  0  0  0  0  0  0  0  0
   20.7975   -9.7190  -19.2476 C   0  0  0  0  0  0  0  0  0  0  0  0
   20.6490   -8.6317  -18.2229 C   0  0  1  0  0  0  0  0  0  0  0  0
   19.6311   -7.7836  -18.6536 O   0  0  0  0  0  0  0  0  0  0  0  0
   20.3567   -9.1712  -16.8425 C   0  0  2  0  0  0  0  0  0  0  0  0
   19.0942   -9.8371  -16.7684 N   0  0  0  0  0  0  0  0  0  0  0  0
   20.4036   -8.1215  -15.8028 C   0  0  0  0  0  0  0  0  0  0  0  0
   19.7134   -8.1762  -14.7521 O   0  0  0  0  0  0  0  0  0  0  0  0
   21.2419   -6.9808  -15.9378 N   0  0  0  0  0  0  0  0  0  0  0  0
   21.4244   -6.0544  -14.8563 C   0  0  1  0  0  0  0  0  0  0  0  0
   22.1273   -6.6597  -13.6713 C   0  0  0  0  0  0  0  0  0  0  0  0
   22.3832   -5.3491  -12.4416 S   0  0  0  0  0  0  0  0  0  0  0  0
   22.1430   -4.8164  -15.3101 C   0  0  0  0  0  0  0  0  0  0  0  0
   23.1629   -4.8798  -16.0584 O   0  0  0  0  0  0  0  0  0  0  0  0
   21.7186   -3.5578  -14.9282 O   0  0  0  0  0  0  0  0  0  0  0  0
  1  2  1  0
  3  5  1  0
  3  4  1  1
  3  2  1  0
  5  6  2  0
  8  7  1  6
  8 10  1  0
  9  8  1  0
 10 12  1  0
 10 11  1  6
 11  5  1  0
 12 13  2  0
 12 14  1  0
 14 15  1  0
 15 18  1  0
 15 16  1  1
 16 17  1  0
 18 19  2  0
 18 20  1  0
M  END
$$$$
