STC.pdb
     RDKit          3D

 20 19  0  0  1  0  0  0  0  0999 V2000
   18.4392  -10.3777  -17.7032 O   0  0  0  0  0  0  0  0  0  0  0  0
   18.7268  -11.7203  -17.5883 C   0  0  0  0  0  0  0  0  0  0  0  0
   20.2013  -11.9974  -17.4268 C   0  0  2  0  0  0  0  0  0  0  0  0
   20.4496  -13.3977  -17.2913 N   0  0  0  0  0  0  0  0  0  0  0  0
   20.8112  -11.1834  -16.3546 C   0  0  0  0  0  0  0  0  0  0  0  0
   20.6399  -11.5378  -15.1664 O   0  0  0  0  0  0  0  0  0  0  0  0
   24.2389  -10.6984  -15.3920 C   0  0  0  0  0  0  0  0  0  0  0  0
   23.7184   -9.3097  -15.6258 C   0  0  1  0  0  0  0  0  0  0  0  0
   24.1967   -8.8838  -16.8631 O   0  0  0  0  0  0  0  0  0  0  0  0
   22.2104   -9.2388  -15.5745 C   0  0  2  0  0  0  0  0  0  0  0  0
   21.5884  -10.0095  -16.6051 N   0  0  0  0  0  0  0  0  0  0  0  0
   21.7060   -7.8512  -15.6468 C   0  0  0  0  0  0  0  0  0  0  0  0
   21.0075   -7.4326  -16.6061 O   0  0  0  0  0  0  0  0  0  0  0  0
   21.9877   -6.9054  -14.6231 N   0  0  0  0  0  0  0  0  0  0  0  0
   21.5315   -5.5472  -14.7133 C   0  0  1  0  0  0  0  0  0  0  0  0
   20.0322   -5.4290  -14.7660 C   0  0  0  0  0  0  0  0  0  0  0  0
   19.6082   -3.6640  -14.7582 S   0  0  0  0  0  0  0  0  0  0  0  0
   22.0798   -4.7090  -13.5944 C   0  0  0  0  0  0  0  0  0  0  0  0
   22.4424   -5.2260  -12.4965 O   0  0  0  0  0  0  0  0  0  0  0  0
   22.2102   -3.3388  -13.7195 O   0  0  0  0  0  0  0  0  0  0  0  0
  1  2  1  0
  3  5  1  0
  3  4  1  1
  3  2  1  0
  5  6  2  0
  8  7  1  6
  8 10  1  0
  9  8  1  0
 10 12  1  0
 10 11  1  6
 11  5  1  0
 12 13  2  0
 12 14  1  0
 14 15  1  0
 15 18  1  0
 15 16  1  1
 16 17  1  0
 18 19  2  0
 18 20  1  0
M  END
$$$$
