STC.pdb
     RDKit          3D

 20 19  0  0  1  0  0  0  0  0999 V2000
   15.0888  -10.5178  -17.3090 O   0  0  0  0  0  0  0  0  0  0  0  0
   16.2104  -10.2014  -16.5738 C   0  0  0  0  0  0  0  0  0  0  0  0
   17.4235  -11.0070  -16.9695 C   0  0  2  0  0  0  0  0  0  0  0  0
   17.1881  -12.4062  -16.8037 N   0  0  0  0  0  0  0  0  0  0  0  0
   18.6542  -10.5324  -16.3029 C   0  0  0  0  0  0  0  0  0  0  0  0
   19.0063  -11.0859  -15.2369 O   0  0  0  0  0  0  0  0  0  0  0  0
   22.1758  -10.4136  -17.7670 C   0  0  0  0  0  0  0  0  0  0  0  0
   21.8372   -9.0492  -17.2397 C   0  0  1  0  0  0  0  0  0  0  0  0
   21.5118   -8.2455  -18.3302 O   0  0  0  0  0  0  0  0  0  0  0  0
   20.7109   -9.0788  -16.2336 C   0  0  2  0  0  0  0  0  0  0  0  0
   19.4652   -9.4713  -16.8141 N   0  0  0  0  0  0  0  0  0  0  0  0
   20.5296   -7.7816  -15.5483 C   0  0  0  0  0  0  0  0  0  0  0  0
   19.6598   -6.9437  -15.9014 O   0  0  0  0  0  0  0  0  0  0  0  0
   21.3392   -7.4086  -14.4403 N   0  0  0  0  0  0  0  0  0  0  0  0
   21.1839   -6.1355  -13.7954 C   0  0  1  0  0  0  0  0  0  0  0  0
   21.3121   -6.2114  -12.2980 C   0  0  0  0  0  0  0  0  0  0  0  0
   20.0208   -7.3279  -11.6805 S   0  0  0  0  0  0  0  0  0  0  0  0
   22.1424   -5.1202  -14.3482 C   0  0  0  0  0  0  0  0  0  0  0  0
   22.1149   -3.9109  -13.9729 O   0  0  0  0  0  0  0  0  0  0  0  0
   23.0933   -5.4667  -15.2894 O   0  0  0  0  0  0  0  0  0  0  0  0
  1  2  1  0
  3  5  1  0
  3  4  1  1
  3  2  1  0
  5  6  2  0
  8  7  1  6
  8 10  1  0
  9  8  1  0
 10 12  1  0
 10 11  1  6
 11  5  1  0
 12 13  2  0
 12 14  1  0
 14 15  1  0
 15 18  1  0
 15 16  1  1
 16 17  1  0
 18 19  2  0
 18 20  1  0
M  END
$$$$
