STC.pdb
     RDKit          3D

 20 19  0  0  1  0  0  0  0  0999 V2000
   15.7592  -12.1552  -11.4398 O   0  0  0  0  0  0  0  0  0  0  0  0
   15.3713  -10.8401  -11.5760 C   0  0  0  0  0  0  0  0  0  0  0  0
   14.8262  -10.2491  -10.2991 C   0  0  2  0  0  0  0  0  0  0  0  0
   13.6489  -10.9383   -9.8750 N   0  0  0  0  0  0  0  0  0  0  0  0
   14.6528   -8.7841  -10.3879 C   0  0  0  0  0  0  0  0  0  0  0  0
   13.5261   -8.3347  -10.6963 O   0  0  0  0  0  0  0  0  0  0  0  0
   14.9505   -6.0338   -7.7524 C   0  0  0  0  0  0  0  0  0  0  0  0
   15.9356   -5.7806   -8.8567 C   0  0  1  0  0  0  0  0  0  0  0  0
   17.1766   -6.2474   -8.4289 O   0  0  0  0  0  0  0  0  0  0  0  0
   15.5302   -6.4336  -10.1571 C   0  0  2  0  0  0  0  0  0  0  0  0
   15.7082   -7.8517  -10.1392 N   0  0  0  0  0  0  0  0  0  0  0  0
   16.2539   -5.8772  -11.3198 C   0  0  0  0  0  0  0  0  0  0  0  0
   17.4157   -6.2440  -11.6345 O   0  0  0  0  0  0  0  0  0  0  0  0
   15.6671   -4.8860  -12.1536 N   0  0  0  0  0  0  0  0  0  0  0  0
   16.3911   -4.3058  -13.2492 C   0  0  1  0  0  0  0  0  0  0  0  0
   15.5777   -4.2113  -14.5117 C   0  0  0  0  0  0  0  0  0  0  0  0
   15.1257   -5.8958  -15.0150 S   0  0  0  0  0  0  0  0  0  0  0  0
   16.9469   -2.9586  -12.8870 C   0  0  0  0  0  0  0  0  0  0  0  0
   16.5164   -2.3122  -11.8867 O   0  0  0  0  0  0  0  0  0  0  0  0
   17.9514   -2.3710  -13.6325 O   0  0  0  0  0  0  0  0  0  0  0  0
  1  2  1  0
  3  5  1  0
  3  4  1  6
  3  2  1  0
  5  6  2  0
  8  7  1  1
  8 10  1  0
  9  8  1  0
 10 12  1  0
 10 11  1  1
 11  5  1  0
 12 13  2  0
 12 14  1  0
 14 15  1  0
 15 18  1  0
 15 16  1  6
 16 17  1  0
 18 19  2  0
 18 20  1  0
M  END
$$$$
