STC.pdb
     RDKit          3D

 20 19  0  0  1  0  0  0  0  0999 V2000
   15.2361  -10.2651  -17.2355 O   0  0  0  0  0  0  0  0  0  0  0  0
   16.1488   -9.8265  -16.3012 C   0  0  0  0  0  0  0  0  0  0  0  0
   17.2958  -10.7860  -16.0993 C   0  0  2  0  0  0  0  0  0  0  0  0
   16.8752  -11.9462  -15.3797 N   0  0  0  0  0  0  0  0  0  0  0  0
   18.4825  -10.1270  -15.5148 C   0  0  0  0  0  0  0  0  0  0  0  0
   18.4613   -9.8299  -14.2991 O   0  0  0  0  0  0  0  0  0  0  0  0
   23.3275   -9.0880  -15.7444 C   0  0  0  0  0  0  0  0  0  0  0  0
   22.0996   -9.7111  -16.3430 C   0  0  1  0  0  0  0  0  0  0  0  0
   22.2233  -11.0928  -16.2140 O   0  0  0  0  0  0  0  0  0  0  0  0
   20.8256   -9.2188  -15.6979 C   0  0  2  0  0  0  0  0  0  0  0  0
   19.6562   -9.8106  -16.2682 N   0  0  0  0  0  0  0  0  0  0  0  0
   20.6925   -7.7478  -15.7573 C   0  0  0  0  0  0  0  0  0  0  0  0
   20.0941   -7.1582  -16.6941 O   0  0  0  0  0  0  0  0  0  0  0  0
   21.2410   -6.9120  -14.7460 N   0  0  0  0  0  0  0  0  0  0  0  0
   21.1155   -5.4832  -14.8069 C   0  0  1  0  0  0  0  0  0  0  0  0
   19.6963   -5.0070  -14.6528 C   0  0  0  0  0  0  0  0  0  0  0  0
   19.7138   -3.1920  -14.6247 S   0  0  0  0  0  0  0  0  0  0  0  0
   22.0015   -4.8114  -13.7976 C   0  0  0  0  0  0  0  0  0  0  0  0
   22.3014   -5.3727  -12.7025 O   0  0  0  0  0  0  0  0  0  0  0  0
   22.5248   -3.5526  -14.0248 O   0  0  0  0  0  0  0  0  0  0  0  0
  1  2  1  0
  3  5  1  0
  3  4  1  1
  3  2  1  0
  5  6  2  0
  8  7  1  1
  8 10  1  0
  9  8  1  0
 10 12  1  0
 10 11  1  6
 11  5  1  0
 12 13  2  0
 12 14  1  0
 14 15  1  0
 15 18  1  0
 15 16  1  1
 16 17  1  0
 18 19  2  0
 18 20  1  0
M  END
$$$$
