STC.pdb
     RDKit          3D

 20 19  0  0  1  0  0  0  0  0999 V2000
   15.3221  -11.9332  -13.8797 O   0  0  0  0  0  0  0  0  0  0  0  0
   16.5138  -11.3123  -14.1850 C   0  0  0  0  0  0  0  0  0  0  0  0
   17.0205  -11.6513  -15.5654 C   0  0  2  0  0  0  0  0  0  0  0  0
   17.2423  -13.0560  -15.7011 N   0  0  0  0  0  0  0  0  0  0  0  0
   18.1861  -10.8295  -15.9527 C   0  0  0  0  0  0  0  0  0  0  0  0
   19.3311  -11.3156  -15.8136 O   0  0  0  0  0  0  0  0  0  0  0  0
   18.9461   -9.0971  -19.3522 C   0  0  0  0  0  0  0  0  0  0  0  0
   18.9969   -8.0848  -18.2447 C   0  0  1  0  0  0  0  0  0  0  0  0
   17.8109   -7.3548  -18.2870 O   0  0  0  0  0  0  0  0  0  0  0  0
   19.1946   -8.7184  -16.8878 C   0  0  2  0  0  0  0  0  0  0  0  0
   18.0731   -9.5048  -16.4795 N   0  0  0  0  0  0  0  0  0  0  0  0
   19.4871   -7.7227  -15.8351 C   0  0  0  0  0  0  0  0  0  0  0  0
   18.6044   -7.2830  -15.0534 O   0  0  0  0  0  0  0  0  0  0  0  0
   20.7977   -7.2035  -15.6488 N   0  0  0  0  0  0  0  0  0  0  0  0
   21.0947   -6.2861  -14.5853 C   0  0  1  0  0  0  0  0  0  0  0  0
   22.4439   -6.5207  -13.9613 C   0  0  0  0  0  0  0  0  0  0  0  0
   22.6566   -5.3192  -12.6172 S   0  0  0  0  0  0  0  0  0  0  0  0
   20.9739   -4.8604  -15.0411 C   0  0  0  0  0  0  0  0  0  0  0  0
   21.3703   -4.4962  -16.1876 O   0  0  0  0  0  0  0  0  0  0  0  0
   20.4245   -3.8888  -14.2261 O   0  0  0  0  0  0  0  0  0  0  0  0
  1  2  1  0
  3  5  1  0
  3  4  1  1
  3  2  1  0
  5  6  2  0
  8  7  1  6
  8 10  1  0
  9  8  1  0
 10 12  1  0
 10 11  1  1
 11  5  1  0
 12 13  2  0
 12 14  1  0
 14 15  1  0
 15 18  1  0
 15 16  1  6
 16 17  1  0
 18 19  2  0
 18 20  1  0
M  END
$$$$
