STC.pdb
     RDKit          3D

 20 19  0  0  1  0  0  0  0  0999 V2000
   22.1026  -13.0740  -18.1835 O   0  0  0  0  0  0  0  0  0  0  0  0
   21.5926  -11.7964  -18.1048 C   0  0  0  0  0  0  0  0  0  0  0  0
   20.2506  -11.7368  -17.4173 C   0  0  2  0  0  0  0  0  0  0  0  0
   19.2522  -12.4183  -18.1785 N   0  0  0  0  0  0  0  0  0  0  0  0
   19.8709  -10.3575  -17.0465 C   0  0  0  0  0  0  0  0  0  0  0  0
   19.4050   -9.6082  -17.9343 O   0  0  0  0  0  0  0  0  0  0  0  0
   17.2233   -9.2099  -14.8116 C   0  0  0  0  0  0  0  0  0  0  0  0
   18.4770   -8.5575  -14.3047 C   0  0  1  0  0  0  0  0  0  0  0  0
   18.8831   -9.2528  -13.1678 O   0  0  0  0  0  0  0  0  0  0  0  0
   19.5751   -8.5262  -15.3415 C   0  0  2  0  0  0  0  0  0  0  0  0
   20.0085   -9.8337  -15.7230 N   0  0  0  0  0  0  0  0  0  0  0  0
   20.7495   -7.7451  -14.8990 C   0  0  0  0  0  0  0  0  0  0  0  0
   21.9122   -8.2254  -14.8714 O   0  0  0  0  0  0  0  0  0  0  0  0
   20.6245   -6.3932  -14.4762 N   0  0  0  0  0  0  0  0  0  0  0  0
   21.7793   -5.5757  -14.2328 C   0  0  1  0  0  0  0  0  0  0  0  0
   22.7336   -5.5388  -15.3958 C   0  0  0  0  0  0  0  0  0  0  0  0
   24.1082   -4.4367  -14.9585 S   0  0  0  0  0  0  0  0  0  0  0  0
   21.3899   -4.1809  -13.8357 C   0  0  0  0  0  0  0  0  0  0  0  0
   20.4436   -3.5682  -14.4129 O   0  0  0  0  0  0  0  0  0  0  0  0
   22.0502   -3.5105  -12.8234 O   0  0  0  0  0  0  0  0  0  0  0  0
  1  2  1  0
  3  5  1  0
  3  4  1  6
  3  2  1  0
  5  6  2  0
  8  7  1  6
  8 10  1  0
  9  8  1  0
 10 12  1  0
 10 11  1  1
 11  5  1  0
 12 13  2  0
 12 14  1  0
 14 15  1  0
 15 18  1  0
 15 16  1  6
 16 17  1  0
 18 19  2  0
 18 20  1  0
M  END
$$$$
