STC.pdb
     RDKit          3D

 20 19  0  0  1  0  0  0  0  0999 V2000
   14.4461  -11.2037  -14.9026 O   0  0  0  0  0  0  0  0  0  0  0  0
   15.7940  -10.9225  -14.8521 C   0  0  0  0  0  0  0  0  0  0  0  0
   16.5029  -11.1889  -16.1573 C   0  0  2  0  0  0  0  0  0  0  0  0
   16.4198  -12.5694  -16.5152 N   0  0  0  0  0  0  0  0  0  0  0  0
   17.8825  -10.6591  -16.1649 C   0  0  0  0  0  0  0  0  0  0  0  0
   18.8162  -11.4226  -15.8303 O   0  0  0  0  0  0  0  0  0  0  0  0
   19.9208   -9.4425  -19.0159 C   0  0  0  0  0  0  0  0  0  0  0  0
   19.8996   -8.3341  -18.0033 C   0  0  1  0  0  0  0  0  0  0  0  0
   18.9887   -7.3773  -18.4458 O   0  0  0  0  0  0  0  0  0  0  0  0
   19.5443   -8.8203  -16.6180 C   0  0  2  0  0  0  0  0  0  0  0  0
   18.2064   -9.3165  -16.5357 N   0  0  0  0  0  0  0  0  0  0  0  0
   19.7300   -7.7774  -15.5870 C   0  0  0  0  0  0  0  0  0  0  0  0
   18.8149   -6.9793  -15.2569 O   0  0  0  0  0  0  0  0  0  0  0  0
   20.9684   -7.6199  -14.9060 N   0  0  0  0  0  0  0  0  0  0  0  0
   21.1424   -6.6187  -13.8920 C   0  0  1  0  0  0  0  0  0  0  0  0
   21.8910   -7.1210  -12.6871 C   0  0  0  0  0  0  0  0  0  0  0  0
   20.9237   -8.4671  -11.9470 S   0  0  0  0  0  0  0  0  0  0  0  0
   21.8083   -5.3905  -14.4426 C   0  0  0  0  0  0  0  0  0  0  0  0
   22.2922   -5.3682  -15.6129 O   0  0  0  0  0  0  0  0  0  0  0  0
   21.9192   -4.2350  -13.6926 O   0  0  0  0  0  0  0  0  0  0  0  0
  1  2  1  0
  3  5  1  0
  3  4  1  1
  3  2  1  0
  5  6  2  0
  8  7  1  6
  8 10  1  0
  9  8  1  0
 10 12  1  0
 10 11  1  6
 11  5  1  0
 12 13  2  0
 12 14  1  0
 14 15  1  0
 15 18  1  0
 15 16  1  1
 16 17  1  0
 18 19  2  0
 18 20  1  0
M  END
$$$$
