PLE.pdb
     RDKit          3D

 25 25  0  0  1  0  0  0  0  0999 V2000
    7.6252  -14.9426   20.4061 N   0  0  0  0  0  0  0  0  0  0  0  0
    7.0020  -14.3311   19.2435 C   0  0  0  0  0  0  0  0  0  0  0  0
    7.5895  -12.9742   19.0508 C   0  0  0  0  0  0  0  0  0  0  0  0
    8.2732  -12.6889   20.3687 C   0  0  0  0  0  0  0  0  0  0  0  0
    8.7255  -14.0971   20.7656 C   0  0  1  0  0  0  0  0  0  0  0  0
    9.1406  -14.1738   22.1642 C   0  0  0  0  0  0  0  0  0  0  0  0
   10.1256  -13.4555   22.5234 O   0  0  0  0  0  0  0  0  0  0  0  0
    5.9152  -12.4923   26.4327 C   0  0  0  0  0  0  0  0  0  0  0  0
    7.0670  -12.4180   25.5164 C   0  0  1  0  0  0  0  0  0  0  0  0
    8.3117  -12.1971   26.3883 C   0  0  0  0  0  0  0  0  0  0  0  0
    7.2776  -13.4294   24.4847 C   0  0  0  0  0  0  0  0  0  0  0  0
    8.3397  -14.4440   24.5600 C   0  0  2  0  0  0  0  0  0  0  0  0
    8.5487  -14.9765   23.1678 N   0  0  0  0  0  0  0  0  0  0  0  0
    8.0061  -15.6156   25.4007 C   0  0  0  0  0  0  0  0  0  0  0  0
    6.8625  -16.1228   25.4540 O   0  0  0  0  0  0  0  0  0  0  0  0
    8.9798  -16.2593   26.2226 N   0  0  0  0  0  0  0  0  0  0  0  0
    9.6379  -17.4844   25.8045 C   0  0  1  0  0  0  0  0  0  0  0  0
   10.4371  -17.2905   24.5640 C   0  0  0  0  0  0  0  0  0  0  0  0
   11.2947  -18.4289   24.1297 C   0  0  0  0  0  0  0  0  0  0  0  0
   12.0691  -18.2273   22.9115 C   0  0  0  0  0  0  0  0  0  0  0  0
   11.5210  -18.2538   21.7934 O   0  0  0  0  0  0  0  0  0  0  0  0
   10.5292  -17.8941   26.9122 C   0  0  0  0  0  0  0  0  0  0  0  0
   10.9828  -19.1776   27.1290 O   0  0  0  0  0  0  0  0  0  0  0  0
   13.4284  -18.0029   22.9771 O   0  0  0  0  0  0  0  0  0  0  0  0
   10.9255  -17.0254   27.7473 O   0  0  0  0  0  0  0  0  0  0  0  0
  2  1  1  0
  3  2  1  0
  4  3  1  0
  4  5  1  0
  5  1  1  0
  5  6  1  1
  6  7  2  0
  9  8  1  1
  9 10  1  0
 11  9  1  0
 12 11  1  6
 13  6  1  0
 13 12  1  0
 14 12  1  0
 14 16  1  0
 15 14  2  0
 17 16  1  0
 17 22  1  0
 17 18  1  6
 19 18  1  0
 19 20  1  0
 20 24  1  0
 21 20  2  0
 22 23  1  0
 25 22  2  0
M  END
$$$$
