PLE.pdb
     RDKit          3D

 25 25  0  0  1  0  0  0  0  0999 V2000
    7.0795  -14.8115   20.5334 N   0  0  0  0  0  0  0  0  0  0  0  0
    6.5939  -14.2247   19.2950 C   0  0  0  0  0  0  0  0  0  0  0  0
    7.4160  -13.0188   18.9889 C   0  0  0  0  0  0  0  0  0  0  0  0
    8.1176  -12.7221   20.2947 C   0  0  0  0  0  0  0  0  0  0  0  0
    8.3063  -14.1387   20.8450 C   0  0  1  0  0  0  0  0  0  0  0  0
    8.6781  -14.1410   22.2578 C   0  0  0  0  0  0  0  0  0  0  0  0
    9.8854  -13.8682   22.5466 O   0  0  0  0  0  0  0  0  0  0  0  0
    5.3983  -12.3849   26.2875 C   0  0  0  0  0  0  0  0  0  0  0  0
    6.6725  -12.6841   25.6103 C   0  0  1  0  0  0  0  0  0  0  0  0
    7.6719  -11.6052   26.0523 C   0  0  0  0  0  0  0  0  0  0  0  0
    7.2466  -14.0262   25.6404 C   0  0  0  0  0  0  0  0  0  0  0  0
    8.3434  -14.4502   24.7571 C   0  0  2  0  0  0  0  0  0  0  0  0
    7.8188  -14.4198   23.3466 N   0  0  0  0  0  0  0  0  0  0  0  0
    8.8136  -15.8344   24.9892 C   0  0  0  0  0  0  0  0  0  0  0  0
    8.1072  -16.8468   24.7799 O   0  0  0  0  0  0  0  0  0  0  0  0
   10.1258  -16.1165   25.4757 N   0  0  0  0  0  0  0  0  0  0  0  0
   10.6359  -17.4743   25.5442 C   0  0  1  0  0  0  0  0  0  0  0  0
   11.9008  -17.6323   24.7758 C   0  0  0  0  0  0  0  0  0  0  0  0
   13.0110  -16.6947   25.1048 C   0  0  0  0  0  0  0  0  0  0  0  0
   14.2224  -16.8204   24.3041 C   0  0  0  0  0  0  0  0  0  0  0  0
   14.3263  -17.7076   23.4362 O   0  0  0  0  0  0  0  0  0  0  0  0
   10.8810  -17.7707   26.9730 C   0  0  0  0  0  0  0  0  0  0  0  0
   11.2856  -18.9913   27.4694 O   0  0  0  0  0  0  0  0  0  0  0  0
   15.2790  -15.9547   24.4954 O   0  0  0  0  0  0  0  0  0  0  0  0
   10.7144  -16.8567   27.8367 O   0  0  0  0  0  0  0  0  0  0  0  0
  2  1  1  0
  3  2  1  0
  4  3  1  0
  4  5  1  0
  5  1  1  0
  5  6  1  1
  6  7  2  0
  9  8  1  1
  9 10  1  0
 11  9  1  0
 12 11  1  1
 13  6  1  0
 13 12  1  0
 14 12  1  0
 14 16  1  0
 15 14  2  0
 17 16  1  0
 17 22  1  0
 17 18  1  6
 19 18  1  0
 19 20  1  0
 20 24  1  0
 21 20  2  0
 22 23  1  0
 25 22  2  0
M  END
$$$$
