PLE.pdb
     RDKit          3D

 25 25  0  0  1  0  0  0  0  0999 V2000
    7.3484  -14.8807   20.5972 N   0  0  0  0  0  0  0  0  0  0  0  0
    6.8728  -14.1967   19.4056 C   0  0  0  0  0  0  0  0  0  0  0  0
    7.5882  -12.8934   19.2912 C   0  0  0  0  0  0  0  0  0  0  0  0
    8.1890  -12.6922   20.6639 C   0  0  0  0  0  0  0  0  0  0  0  0
    8.4859  -14.1414   21.0599 C   0  0  1  0  0  0  0  0  0  0  0  0
    8.7825  -14.2787   22.4838 C   0  0  0  0  0  0  0  0  0  0  0  0
   10.0024  -14.2247   22.8363 O   0  0  0  0  0  0  0  0  0  0  0  0
    5.4226  -12.3688   26.4663 C   0  0  0  0  0  0  0  0  0  0  0  0
    6.7007  -12.7359   25.8311 C   0  0  1  0  0  0  0  0  0  0  0  0
    7.7653  -11.7861   26.3991 C   0  0  0  0  0  0  0  0  0  0  0  0
    7.1523  -14.1237   25.7899 C   0  0  0  0  0  0  0  0  0  0  0  0
    8.2743  -14.5785   24.9549 C   0  0  2  0  0  0  0  0  0  0  0  0
    7.8367  -14.4677   23.5190 N   0  0  0  0  0  0  0  0  0  0  0  0
    8.6526  -15.9948   25.1594 C   0  0  0  0  0  0  0  0  0  0  0  0
    7.8794  -16.9541   24.9363 O   0  0  0  0  0  0  0  0  0  0  0  0
    9.9454  -16.3722   25.6331 N   0  0  0  0  0  0  0  0  0  0  0  0
   10.2935  -17.7624   25.8676 C   0  0  1  0  0  0  0  0  0  0  0  0
   11.5378  -18.1524   25.1500 C   0  0  0  0  0  0  0  0  0  0  0  0
   11.7514  -17.5595   23.7999 C   0  0  0  0  0  0  0  0  0  0  0  0
   12.9722  -17.9518   23.1070 C   0  0  0  0  0  0  0  0  0  0  0  0
   13.9098  -17.1458   22.9569 O   0  0  0  0  0  0  0  0  0  0  0  0
   10.4904  -17.9169   27.3259 C   0  0  0  0  0  0  0  0  0  0  0  0
   10.4507  -16.8883   28.2427 O   0  0  0  0  0  0  0  0  0  0  0  0
   13.1100  -19.2285   22.6035 O   0  0  0  0  0  0  0  0  0  0  0  0
   10.7174  -19.0690   27.8056 O   0  0  0  0  0  0  0  0  0  0  0  0
  2  1  1  0
  3  2  1  0
  4  3  1  0
  4  5  1  0
  5  1  1  0
  5  6  1  1
  6  7  2  0
  9  8  1  1
  9 10  1  0
 11  9  1  0
 12 11  1  1
 13  6  1  0
 13 12  1  0
 14 12  1  0
 14 16  1  0
 15 14  2  0
 17 16  1  0
 17 22  1  0
 17 18  1  6
 19 18  1  0
 19 20  1  0
 20 24  1  0
 21 20  2  0
 22 23  1  0
 25 22  2  0
M  END
$$$$
