PLE.pdb
     RDKit          3D

 25 25  0  0  1  0  0  0  0  0999 V2000
    8.1618  -18.9596   18.2481 N   0  0  0  0  0  0  0  0  0  0  0  0
    7.4868  -19.3875   17.0335 C   0  0  0  0  0  0  0  0  0  0  0  0
    7.9662  -18.5416   15.9029 C   0  0  0  0  0  0  0  0  0  0  0  0
    8.6328  -17.3706   16.5886 C   0  0  0  0  0  0  0  0  0  0  0  0
    9.1951  -18.0547   17.8381 C   0  0  1  0  0  0  0  0  0  0  0  0
    9.6225  -17.0942   18.8525 C   0  0  0  0  0  0  0  0  0  0  0  0
   10.8507  -16.7676   18.8700 O   0  0  0  0  0  0  0  0  0  0  0  0
    6.2230  -13.0355   20.6300 C   0  0  0  0  0  0  0  0  0  0  0  0
    7.4591  -13.7231   20.2161 C   0  0  1  0  0  0  0  0  0  0  0  0
    8.3525  -12.6649   19.5527 C   0  0  0  0  0  0  0  0  0  0  0  0
    8.1954  -14.5763   21.1442 C   0  0  0  0  0  0  0  0  0  0  0  0
    9.3338  -15.4128   20.7350 C   0  0  2  0  0  0  0  0  0  0  0  0
    8.7963  -16.4862   19.8269 N   0  0  0  0  0  0  0  0  0  0  0  0
   10.0050  -16.1180   21.8499 C   0  0  0  0  0  0  0  0  0  0  0  0
    9.5742  -17.1810   22.3523 O   0  0  0  0  0  0  0  0  0  0  0  0
   11.2090  -15.6280   22.4399 N   0  0  0  0  0  0  0  0  0  0  0  0
   12.0407  -16.4696   23.2819 C   0  0  1  0  0  0  0  0  0  0  0  0
   13.4743  -16.0746   23.2193 C   0  0  0  0  0  0  0  0  0  0  0  0
   14.4216  -16.8358   24.0813 C   0  0  0  0  0  0  0  0  0  0  0  0
   15.8269  -16.4614   23.9855 C   0  0  0  0  0  0  0  0  0  0  0  0
   16.1830  -15.4830   23.3020 O   0  0  0  0  0  0  0  0  0  0  0  0
   11.5427  -16.3187   24.6671 C   0  0  0  0  0  0  0  0  0  0  0  0
   11.8935  -17.1283   25.7261 O   0  0  0  0  0  0  0  0  0  0  0  0
   16.7904  -17.1880   24.6535 O   0  0  0  0  0  0  0  0  0  0  0  0
   10.7277  -15.3853   24.9384 O   0  0  0  0  0  0  0  0  0  0  0  0
  2  1  1  0
  3  2  1  0
  4  3  1  0
  4  5  1  0
  5  1  1  0
  5  6  1  1
  6  7  2  0
  9  8  1  1
  9 10  1  0
 11  9  1  0
 12 11  1  1
 13  6  1  0
 13 12  1  0
 14 12  1  0
 14 16  1  0
 15 14  2  0
 17 16  1  0
 17 22  1  0
 17 18  1  1
 19 18  1  0
 19 20  1  0
 20 24  1  0
 21 20  2  0
 22 23  1  0
 25 22  2  0
M  END
$$$$
