PLE.pdb
     RDKit          3D

 25 25  0  0  1  0  0  0  0  0999 V2000
    7.1867  -14.8206   19.8737 N   0  0  0  0  0  0  0  0  0  0  0  0
    6.7498  -14.2267   18.6206 C   0  0  0  0  0  0  0  0  0  0  0  0
    7.6025  -13.0364   18.3386 C   0  0  0  0  0  0  0  0  0  0  0  0
    8.2695  -12.7507   19.6650 C   0  0  0  0  0  0  0  0  0  0  0  0
    8.4156  -14.1697   20.2219 C   0  0  1  0  0  0  0  0  0  0  0  0
    8.7442  -14.1768   21.6453 C   0  0  0  0  0  0  0  0  0  0  0  0
    9.9741  -14.1327   21.9631 O   0  0  0  0  0  0  0  0  0  0  0  0
    8.2829  -11.8790   26.6583 C   0  0  0  0  0  0  0  0  0  0  0  0
    7.3275  -12.9245   26.2506 C   0  0  1  0  0  0  0  0  0  0  0  0
    5.9729  -12.5511   26.8700 C   0  0  0  0  0  0  0  0  0  0  0  0
    7.2109  -13.3381   24.8553 C   0  0  0  0  0  0  0  0  0  0  0  0
    8.2757  -14.0570   24.1393 C   0  0  2  0  0  0  0  0  0  0  0  0
    7.8199  -14.2286   22.7152 N   0  0  0  0  0  0  0  0  0  0  0  0
    8.5426  -15.4200   24.6509 C   0  0  0  0  0  0  0  0  0  0  0  0
    7.7022  -16.3475   24.6130 O   0  0  0  0  0  0  0  0  0  0  0  0
    9.7961  -15.7783   25.2326 N   0  0  0  0  0  0  0  0  0  0  0  0
   10.2238  -17.1630   25.3247 C   0  0  1  0  0  0  0  0  0  0  0  0
   11.5195  -17.3920   24.6290 C   0  0  0  0  0  0  0  0  0  0  0  0
   12.1021  -18.7601   24.7222 C   0  0  0  0  0  0  0  0  0  0  0  0
   13.3421  -18.9862   23.9903 C   0  0  0  0  0  0  0  0  0  0  0  0
   14.3079  -18.2093   24.1127 O   0  0  0  0  0  0  0  0  0  0  0  0
   10.3696  -17.4738   26.7640 C   0  0  0  0  0  0  0  0  0  0  0  0
   10.5616  -18.7354   27.2851 O   0  0  0  0  0  0  0  0  0  0  0  0
   13.4671  -20.0696   23.1459 O   0  0  0  0  0  0  0  0  0  0  0  0
   10.3175  -16.5330   27.6133 O   0  0  0  0  0  0  0  0  0  0  0  0
  2  1  1  0
  3  2  1  0
  4  3  1  0
  4  5  1  0
  5  1  1  0
  5  6  1  1
  6  7  2  0
  9  8  1  6
  9 10  1  0
 11  9  1  0
 12 11  1  1
 13  6  1  0
 13 12  1  0
 14 12  1  0
 14 16  1  0
 15 14  2  0
 17 16  1  0
 17 22  1  0
 17 18  1  6
 19 18  1  0
 19 20  1  0
 20 24  1  0
 21 20  2  0
 22 23  1  0
 25 22  2  0
M  END
$$$$
