PLE.pdb
     RDKit          3D

 25 25  0  0  1  0  0  0  0  0999 V2000
    6.9558  -14.9674   20.5496 N   0  0  0  0  0  0  0  0  0  0  0  0
    6.4597  -14.3611   19.3248 C   0  0  0  0  0  0  0  0  0  0  0  0
    7.2962  -13.1659   19.0162 C   0  0  0  0  0  0  0  0  0  0  0  0
    8.0239  -12.8928   20.3130 C   0  0  0  0  0  0  0  0  0  0  0  0
    8.1984  -14.3174   20.8471 C   0  0  1  0  0  0  0  0  0  0  0  0
    8.5932  -14.3390   22.2534 C   0  0  0  0  0  0  0  0  0  0  0  0
    9.8097  -14.0902   22.5246 O   0  0  0  0  0  0  0  0  0  0  0  0
    5.6385  -12.1809   26.4689 C   0  0  0  0  0  0  0  0  0  0  0  0
    6.8103  -12.6243   25.6928 C   0  0  1  0  0  0  0  0  0  0  0  0
    7.9890  -11.7422   26.1294 C   0  0  0  0  0  0  0  0  0  0  0  0
    7.1688  -14.0370   25.6075 C   0  0  0  0  0  0  0  0  0  0  0  0
    8.2655  -14.5375   24.7649 C   0  0  2  0  0  0  0  0  0  0  0  0
    7.7469  -14.6123   23.3539 N   0  0  0  0  0  0  0  0  0  0  0  0
    8.7229  -15.9032   25.1060 C   0  0  0  0  0  0  0  0  0  0  0  0
    7.9774  -16.9087   25.0716 O   0  0  0  0  0  0  0  0  0  0  0  0
   10.0667  -16.1740   25.5045 N   0  0  0  0  0  0  0  0  0  0  0  0
   10.5421  -17.5317   25.7033 C   0  0  1  0  0  0  0  0  0  0  0  0
   11.9935  -17.6622   25.4007 C   0  0  0  0  0  0  0  0  0  0  0  0
   12.4669  -17.0908   24.1087 C   0  0  0  0  0  0  0  0  0  0  0  0
   13.8988  -17.1751   23.8502 C   0  0  0  0  0  0  0  0  0  0  0  0
   14.6880  -16.3482   24.3450 O   0  0  0  0  0  0  0  0  0  0  0  0
   10.2969  -17.8704   27.1226 C   0  0  0  0  0  0  0  0  0  0  0  0
   10.4870  -19.1154   27.6828 O   0  0  0  0  0  0  0  0  0  0  0  0
   14.4062  -18.1770   23.0494 O   0  0  0  0  0  0  0  0  0  0  0  0
    9.8773  -16.9725   27.9142 O   0  0  0  0  0  0  0  0  0  0  0  0
  2  1  1  0
  3  2  1  0
  4  3  1  0
  4  5  1  0
  5  1  1  0
  5  6  1  1
  6  7  2  0
  9  8  1  1
  9 10  1  0
 11  9  1  0
 12 11  1  1
 13  6  1  0
 13 12  1  0
 14 12  1  0
 14 16  1  0
 15 14  2  0
 17 16  1  0
 17 22  1  0
 17 18  1  1
 19 18  1  0
 19 20  1  0
 20 24  1  0
 21 20  2  0
 22 23  1  0
 25 22  2  0
M  END
$$$$
