PLE.pdb
     RDKit          3D

 25 25  0  0  1  0  0  0  0  0999 V2000
    7.3717  -15.0031   20.4838 N   0  0  0  0  0  0  0  0  0  0  0  0
    6.9051  -14.4449   19.2250 C   0  0  0  0  0  0  0  0  0  0  0  0
    7.6060  -13.1494   18.9934 C   0  0  0  0  0  0  0  0  0  0  0  0
    8.1843  -12.8072   20.3477 C   0  0  0  0  0  0  0  0  0  0  0  0
    8.4933  -14.2067   20.8872 C   0  0  1  0  0  0  0  0  0  0  0  0
    8.7708  -14.2005   22.3215 C   0  0  0  0  0  0  0  0  0  0  0  0
    9.9403  -13.8668   22.6907 O   0  0  0  0  0  0  0  0  0  0  0  0
    5.4188  -12.2725   26.2687 C   0  0  0  0  0  0  0  0  0  0  0  0
    6.6834  -12.6569   25.6168 C   0  0  1  0  0  0  0  0  0  0  0  0
    7.7660  -11.7141   26.1622 C   0  0  0  0  0  0  0  0  0  0  0  0
    7.1203  -14.0494   25.5785 C   0  0  0  0  0  0  0  0  0  0  0  0
    8.2780  -14.5064   24.7949 C   0  0  2  0  0  0  0  0  0  0  0  0
    7.8576  -14.5325   23.3498 N   0  0  0  0  0  0  0  0  0  0  0  0
    8.7282  -15.8795   25.1152 C   0  0  0  0  0  0  0  0  0  0  0  0
    8.0215  -16.8970   24.9328 O   0  0  0  0  0  0  0  0  0  0  0  0
   10.0196  -16.1442   25.6632 N   0  0  0  0  0  0  0  0  0  0  0  0
   10.4514  -17.4954   25.9741 C   0  0  1  0  0  0  0  0  0  0  0  0
   11.8351  -17.7609   25.4943 C   0  0  0  0  0  0  0  0  0  0  0  0
   12.0661  -17.6800   24.0246 C   0  0  0  0  0  0  0  0  0  0  0  0
   13.4405  -17.8615   23.5749 C   0  0  0  0  0  0  0  0  0  0  0  0
   14.3661  -18.0176   24.3937 O   0  0  0  0  0  0  0  0  0  0  0  0
   10.3993  -17.6360   27.4461 C   0  0  0  0  0  0  0  0  0  0  0  0
   10.6362  -18.8046   28.1378 O   0  0  0  0  0  0  0  0  0  0  0  0
   13.7405  -17.8633   22.2287 O   0  0  0  0  0  0  0  0  0  0  0  0
   10.1164  -16.6258   28.1593 O   0  0  0  0  0  0  0  0  0  0  0  0
  2  1  1  0
  3  2  1  0
  4  3  1  0
  4  5  1  0
  5  1  1  0
  5  6  1  1
  6  7  2  0
  9  8  1  1
  9 10  1  0
 11  9  1  0
 12 11  1  1
 13  6  1  0
 13 12  1  0
 14 12  1  0
 14 16  1  0
 15 14  2  0
 17 16  1  0
 17 22  1  0
 17 18  1  1
 19 18  1  0
 19 20  1  0
 20 24  1  0
 21 20  2  0
 22 23  1  0
 25 22  2  0
M  END
$$$$
