PLE.pdb
     RDKit          3D

 25 25  0  0  1  0  0  0  0  0999 V2000
    7.1605  -14.9218   20.4873 N   0  0  0  0  0  0  0  0  0  0  0  0
    6.7964  -14.2966   19.2262 C   0  0  0  0  0  0  0  0  0  0  0  0
    7.6591  -13.0969   19.0266 C   0  0  0  0  0  0  0  0  0  0  0  0
    8.2445  -12.8439   20.3974 C   0  0  0  0  0  0  0  0  0  0  0  0
    8.3634  -14.2766   20.9251 C   0  0  1  0  0  0  0  0  0  0  0  0
    8.6066  -14.3200   22.3649 C   0  0  0  0  0  0  0  0  0  0  0  0
    9.8125  -14.2402   22.7584 O   0  0  0  0  0  0  0  0  0  0  0  0
    5.3771  -12.0777   26.4290 C   0  0  0  0  0  0  0  0  0  0  0  0
    6.5952  -12.5511   25.7477 C   0  0  1  0  0  0  0  0  0  0  0  0
    7.7729  -11.7802   26.3617 C   0  0  0  0  0  0  0  0  0  0  0  0
    6.8733  -13.9769   25.6024 C   0  0  0  0  0  0  0  0  0  0  0  0
    8.0096  -14.4984   24.8278 C   0  0  2  0  0  0  0  0  0  0  0  0
    7.6228  -14.4433   23.3743 N   0  0  0  0  0  0  0  0  0  0  0  0
    8.3426  -15.9129   25.1096 C   0  0  0  0  0  0  0  0  0  0  0  0
    7.5199  -16.8502   24.9980 O   0  0  0  0  0  0  0  0  0  0  0  0
    9.6450  -16.3136   25.5351 N   0  0  0  0  0  0  0  0  0  0  0  0
    9.9975  -17.7140   25.6886 C   0  0  1  0  0  0  0  0  0  0  0  0
   11.1195  -18.1061   24.7927 C   0  0  0  0  0  0  0  0  0  0  0  0
   12.1863  -17.0913   24.5645 C   0  0  0  0  0  0  0  0  0  0  0  0
   13.2990  -17.5020   23.7174 C   0  0  0  0  0  0  0  0  0  0  0  0
   14.0415  -18.4453   24.0494 O   0  0  0  0  0  0  0  0  0  0  0  0
   10.3975  -17.9050   27.1003 C   0  0  0  0  0  0  0  0  0  0  0  0
   10.7212  -19.1160   27.6737 O   0  0  0  0  0  0  0  0  0  0  0  0
   13.5494  -16.8495   22.5283 O   0  0  0  0  0  0  0  0  0  0  0  0
   10.4564  -16.9007   27.8729 O   0  0  0  0  0  0  0  0  0  0  0  0
  2  1  1  0
  3  2  1  0
  4  3  1  0
  4  5  1  0
  5  1  1  0
  5  6  1  1
  6  7  2  0
  9  8  1  1
  9 10  1  0
 11  9  1  0
 12 11  1  1
 13  6  1  0
 13 12  1  0
 14 12  1  0
 14 16  1  0
 15 14  2  0
 17 16  1  0
 17 22  1  0
 17 18  1  6
 19 18  1  0
 19 20  1  0
 20 24  1  0
 21 20  2  0
 22 23  1  0
 25 22  2  0
M  END
$$$$
