FPL.pdb
     RDKit          3D

 27 28  0  0  1  0  0  0  0  0999 V2000
    5.4666  -16.5532   25.3749 N   0  0  0  0  0  0  0  0  0  0  0  0
    5.9834  -16.1799   24.0648 C   0  0  1  0  0  0  0  0  0  0  0  0
    5.5684  -14.7335   23.8709 C   0  0  0  0  0  0  0  0  0  0  0  0
    6.0895  -13.9776   25.0316 C   0  0  0  0  0  0  0  0  0  0  0  0
    7.4195  -13.6491   25.1714 C   0  0  0  0  0  0  0  0  0  0  0  0
    7.8542  -12.9352   26.2867 C   0  0  0  0  0  0  0  0  0  0  0  0
    6.9749  -12.5464   27.2629 C   0  0  0  0  0  0  0  0  0  0  0  0
    5.6508  -12.8678   27.1338 C   0  0  0  0  0  0  0  0  0  0  0  0
    5.2309  -13.5736   26.0280 C   0  0  0  0  0  0  0  0  0  0  0  0
    7.4873  -16.3084   24.0097 C   0  0  0  0  0  0  0  0  0  0  0  0
    7.9794  -16.7295   25.1005 O   0  0  0  0  0  0  0  0  0  0  0  0
    8.2147  -15.9858   22.8573 N   0  0  0  0  0  0  0  0  0  0  0  0
    7.5279  -15.6041   21.5954 C   0  0  0  0  0  0  0  0  0  0  0  0
    8.2319  -14.2984   21.3251 C   0  0  0  0  0  0  0  0  0  0  0  0
    9.6146  -14.4360   21.9778 C   0  0  0  0  0  0  0  0  0  0  0  0
    9.5695  -15.8835   22.4594 C   0  0  1  0  0  0  0  0  0  0  0  0
   10.6230  -16.2188   23.3768 C   0  0  0  0  0  0  0  0  0  0  0  0
   11.7973  -16.4149   23.0342 O   0  0  0  0  0  0  0  0  0  0  0  0
   11.8106  -13.1255   27.7924 C   0  0  0  0  0  0  0  0  0  0  0  0
   11.3399  -14.5575   27.9101 C   0  0  1  0  0  0  0  0  0  0  0  0
   10.3595  -14.5748   29.0947 C   0  0  0  0  0  0  0  0  0  0  0  0
   10.5737  -15.0210   26.7211 C   0  0  0  0  0  0  0  0  0  0  0  0
   11.2930  -15.9379   25.7913 C   0  0  2  0  0  0  0  0  0  0  0  0
   10.3331  -16.3396   24.7606 N   0  0  0  0  0  0  0  0  0  0  0  0
   11.8713  -17.1078   26.4714 C   0  0  0  0  0  0  0  0  0  0  0  0
   13.1501  -17.0481   26.9730 O   0  0  0  0  0  0  0  0  0  0  0  0
   11.2078  -18.1501   26.5942 O   0  0  0  0  0  0  0  0  0  0  0  0
  2  1  1  1
  3  2  1  0
  3  4  1  0
  4  9  1  0
  5  4  2  0
  5  6  1  0
  6  7  2  0
  7  8  1  0
  9  8  2  0
 10 11  2  0
 10  2  1  0
 12 10  1  0
 13 12  1  0
 14 13  1  0
 15 14  1  0
 15 16  1  0
 16 12  1  0
 16 17  1  1
 18 17  2  0
 20 19  1  6
 20 21  1  0
 22 20  1  0
 23 22  1  1
 23 24  1  0
 24 17  1  0
 25 23  1  0
 26 25  1  0
 27 25  2  0
M  END
$$$$
