FPL.pdb
     RDKit          3D

 27 28  0  0  1  0  0  0  0  0999 V2000
    5.5385  -18.1411   24.1670 N   0  0  0  0  0  0  0  0  0  0  0  0
    6.2059  -16.8667   24.3979 C   0  0  1  0  0  0  0  0  0  0  0  0
    6.0200  -16.5825   25.8765 C   0  0  0  0  0  0  0  0  0  0  0  0
    6.3523  -15.1555   26.0849 C   0  0  0  0  0  0  0  0  0  0  0  0
    5.4282  -14.1453   25.9364 C   0  0  0  0  0  0  0  0  0  0  0  0
    5.7977  -12.8178   26.1456 C   0  0  0  0  0  0  0  0  0  0  0  0
    7.0795  -12.4892   26.5014 C   0  0  0  0  0  0  0  0  0  0  0  0
    8.0057  -13.4856   26.6517 C   0  0  0  0  0  0  0  0  0  0  0  0
    7.6309  -14.7945   26.4427 C   0  0  0  0  0  0  0  0  0  0  0  0
    7.6753  -16.9457   24.0573 C   0  0  0  0  0  0  0  0  0  0  0  0
    8.2853  -17.8257   24.7377 O   0  0  0  0  0  0  0  0  0  0  0  0
    8.2549  -16.1169   23.0886 N   0  0  0  0  0  0  0  0  0  0  0  0
    7.5273  -15.7666   21.8405 C   0  0  0  0  0  0  0  0  0  0  0  0
    7.6428  -14.2648   21.9095 C   0  0  0  0  0  0  0  0  0  0  0  0
    8.9298  -13.9890   22.6996 C   0  0  0  0  0  0  0  0  0  0  0  0
    9.4635  -15.4053   22.8958 C   0  0  1  0  0  0  0  0  0  0  0  0
   10.5206  -15.4939   23.8645 C   0  0  0  0  0  0  0  0  0  0  0  0
   11.5710  -14.8402   23.7984 O   0  0  0  0  0  0  0  0  0  0  0  0
    9.7435  -15.5403   29.0221 C   0  0  0  0  0  0  0  0  0  0  0  0
    9.6167  -15.0488   27.5978 C   0  0  1  0  0  0  0  0  0  0  0  0
    9.1651  -13.5828   27.7046 C   0  0  0  0  0  0  0  0  0  0  0  0
   10.9122  -15.0392   26.8649 C   0  0  0  0  0  0  0  0  0  0  0  0
   11.2659  -16.2915   26.1373 C   0  0  2  0  0  0  0  0  0  0  0  0
   10.3833  -16.3712   24.9712 N   0  0  0  0  0  0  0  0  0  0  0  0
   11.1552  -17.4946   26.9775 C   0  0  0  0  0  0  0  0  0  0  0  0
   10.1427  -18.3976   26.7542 O   0  0  0  0  0  0  0  0  0  0  0  0
   11.9739  -17.6977   27.8887 O   0  0  0  0  0  0  0  0  0  0  0  0
  2  1  1  1
  3  2  1  0
  3  4  1  0
  4  9  1  0
  5  4  2  0
  5  6  1  0
  6  7  2  0
  7  8  1  0
  9  8  2  0
 10 11  2  0
 10  2  1  0
 12 10  1  0
 13 12  1  0
 14 13  1  0
 15 14  1  0
 15 16  1  0
 16 12  1  0
 16 17  1  1
 18 17  2  0
 20 19  1  1
 20 21  1  0
 22 20  1  0
 23 22  1  1
 23 24  1  0
 24 17  1  0
 25 23  1  0
 26 25  1  0
 27 25  2  0
M  END
$$$$
