FPL.pdb
     RDKit          3D

 27 28  0  0  1  0  0  0  0  0999 V2000
    7.5983  -18.4197   20.3516 N   0  0  0  0  0  0  0  0  0  0  0  0
    8.0691  -17.0410   20.3732 C   0  0  1  0  0  0  0  0  0  0  0  0
    7.1068  -16.2781   19.4822 C   0  0  0  0  0  0  0  0  0  0  0  0
    7.4127  -14.8401   19.6512 C   0  0  0  0  0  0  0  0  0  0  0  0
    8.3737  -14.1899   18.9095 C   0  0  0  0  0  0  0  0  0  0  0  0
    8.6195  -12.8330   19.1117 C   0  0  0  0  0  0  0  0  0  0  0  0
    7.9160  -12.1195   20.0462 C   0  0  0  0  0  0  0  0  0  0  0  0
    6.9586  -12.7560   20.7887 C   0  0  0  0  0  0  0  0  0  0  0  0
    6.7229  -14.0973   20.5816 C   0  0  0  0  0  0  0  0  0  0  0  0
    8.0512  -16.4755   21.7736 C   0  0  0  0  0  0  0  0  0  0  0  0
    8.6610  -15.3662   21.8576 O   0  0  0  0  0  0  0  0  0  0  0  0
    7.4176  -17.1402   22.8308 N   0  0  0  0  0  0  0  0  0  0  0  0
    6.3428  -18.1361   22.5799 C   0  0  0  0  0  0  0  0  0  0  0  0
    6.9032  -19.2958   23.3640 C   0  0  0  0  0  0  0  0  0  0  0  0
    7.7596  -18.6656   24.4713 C   0  0  0  0  0  0  0  0  0  0  0  0
    7.4878  -17.1811   24.2442 C   0  0  1  0  0  0  0  0  0  0  0  0
    8.3898  -16.3152   24.9517 C   0  0  0  0  0  0  0  0  0  0  0  0
    9.6128  -16.2873   24.7557 O   0  0  0  0  0  0  0  0  0  0  0  0
    6.1509  -11.7558   26.7264 C   0  0  0  0  0  0  0  0  0  0  0  0
    7.0163  -12.8700   26.1824 C   0  0  1  0  0  0  0  0  0  0  0  0
    7.8672  -12.2291   25.0734 C   0  0  0  0  0  0  0  0  0  0  0  0
    7.9712  -13.4127   27.1870 C   0  0  0  0  0  0  0  0  0  0  0  0
    8.7619  -14.6046   26.7664 C   0  0  2  0  0  0  0  0  0  0  0  0
    7.8809  -15.4300   25.9370 N   0  0  0  0  0  0  0  0  0  0  0  0
    9.2989  -15.3682   27.9039 C   0  0  0  0  0  0  0  0  0  0  0  0
   10.3540  -14.8682   28.6301 O   0  0  0  0  0  0  0  0  0  0  0  0
    8.8021  -16.4639   28.2110 O   0  0  0  0  0  0  0  0  0  0  0  0
  2  1  1  1
  3  2  1  0
  3  4  1  0
  4  9  1  0
  5  4  2  0
  5  6  1  0
  6  7  2  0
  7  8  1  0
  9  8  2  0
 10 11  2  0
 10  2  1  0
 12 10  1  0
 13 12  1  0
 14 13  1  0
 15 14  1  0
 15 16  1  0
 16 12  1  0
 16 17  1  6
 18 17  2  0
 20 19  1  1
 20 21  1  0
 22 20  1  0
 23 22  1  1
 23 24  1  0
 24 17  1  0
 25 23  1  0
 26 25  1  0
 27 25  2  0
M  END
$$$$
