FPL.pdb
     RDKit          3D

 27 28  0  0  1  0  0  0  0  0999 V2000
    7.0303  -18.6255   27.4992 N   0  0  0  0  0  0  0  0  0  0  0  0
    7.6210  -17.2987   27.3830 C   0  0  1  0  0  0  0  0  0  0  0  0
    9.0296  -17.4412   27.9282 C   0  0  0  0  0  0  0  0  0  0  0  0
    9.4858  -16.0835   28.3003 C   0  0  0  0  0  0  0  0  0  0  0  0
    9.3185  -15.5606   29.5633 C   0  0  0  0  0  0  0  0  0  0  0  0
    9.7684  -14.2747   29.8574 C   0  0  0  0  0  0  0  0  0  0  0  0
   10.3832  -13.5063   28.9039 C   0  0  0  0  0  0  0  0  0  0  0  0
   10.5546  -14.0164   27.6455 C   0  0  0  0  0  0  0  0  0  0  0  0
   10.1065  -15.2883   27.3645 C   0  0  0  0  0  0  0  0  0  0  0  0
    7.6567  -16.8365   25.9455 C   0  0  0  0  0  0  0  0  0  0  0  0
    8.1362  -17.7139   25.1646 O   0  0  0  0  0  0  0  0  0  0  0  0
    7.1990  -15.5688   25.5653 N   0  0  0  0  0  0  0  0  0  0  0  0
    6.1657  -14.8536   26.3594 C   0  0  0  0  0  0  0  0  0  0  0  0
    6.8882  -13.5473   26.5715 C   0  0  0  0  0  0  0  0  0  0  0  0
    7.8324  -13.4018   25.3698 C   0  0  0  0  0  0  0  0  0  0  0  0
    7.4432  -14.6227   24.5408 C   0  0  1  0  0  0  0  0  0  0  0  0
    8.3691  -14.9204   23.4834 C   0  0  0  0  0  0  0  0  0  0  0  0
    9.4553  -15.4896   23.6598 O   0  0  0  0  0  0  0  0  0  0  0  0
    7.9705  -12.0958   20.8773 C   0  0  0  0  0  0  0  0  0  0  0  0
    7.4421  -13.2216   20.0172 C   0  0  1  0  0  0  0  0  0  0  0  0
    7.1926  -12.6021   18.6321 C   0  0  0  0  0  0  0  0  0  0  0  0
    8.4288  -14.3181   19.8179 C   0  0  0  0  0  0  0  0  0  0  0  0
    8.6875  -15.1929   20.9971 C   0  0  2  0  0  0  0  0  0  0  0  0
    8.0495  -14.5541   22.1503 N   0  0  0  0  0  0  0  0  0  0  0  0
   10.1208  -15.4249   21.2367 C   0  0  0  0  0  0  0  0  0  0  0  0
   10.7098  -14.9552   22.3870 O   0  0  0  0  0  0  0  0  0  0  0  0
   10.8013  -16.0440   20.4028 O   0  0  0  0  0  0  0  0  0  0  0  0
  2  1  1  6
  3  2  1  0
  3  4  1  0
  4  9  1  0
  5  4  2  0
  5  6  1  0
  6  7  2  0
  7  8  1  0
  9  8  2  0
 10 11  2  0
 10  2  1  0
 12 10  1  0
 13 12  1  0
 14 13  1  0
 15 14  1  0
 15 16  1  0
 16 12  1  0
 16 17  1  6
 18 17  2  0
 20 19  1  1
 20 21  1  0
 22 20  1  0
 23 22  1  6
 23 24  1  0
 24 17  1  0
 25 23  1  0
 26 25  1  0
 27 25  2  0
M  END
$$$$
