FPL.pdb
     RDKit          3D

 27 28  0  0  1  0  0  0  0  0999 V2000
    5.6210  -18.1371   23.9938 N   0  0  0  0  0  0  0  0  0  0  0  0
    6.1788  -16.8110   24.2246 C   0  0  1  0  0  0  0  0  0  0  0  0
    5.9114  -16.5164   25.6887 C   0  0  0  0  0  0  0  0  0  0  0  0
    6.0065  -15.0491   25.8561 C   0  0  0  0  0  0  0  0  0  0  0  0
    4.9771  -14.1933   25.5329 C   0  0  0  0  0  0  0  0  0  0  0  0
    5.1227  -12.8188   25.7116 C   0  0  0  0  0  0  0  0  0  0  0  0
    6.2848  -12.2906   26.2095 C   0  0  0  0  0  0  0  0  0  0  0  0
    7.3142  -13.1323   26.5340 C   0  0  0  0  0  0  0  0  0  0  0  0
    7.1607  -14.4892   26.3537 C   0  0  0  0  0  0  0  0  0  0  0  0
    7.6625  -16.7818   23.9438 C   0  0  0  0  0  0  0  0  0  0  0  0
    8.3041  -17.6334   24.6312 O   0  0  0  0  0  0  0  0  0  0  0  0
    8.2218  -15.8936   23.0167 N   0  0  0  0  0  0  0  0  0  0  0  0
    7.4005  -15.2965   21.9310 C   0  0  0  0  0  0  0  0  0  0  0  0
    7.7099  -13.8402   22.1701 C   0  0  0  0  0  0  0  0  0  0  0  0
    9.1059  -13.8176   22.8082 C   0  0  0  0  0  0  0  0  0  0  0  0
    9.4782  -15.2967   22.7533 C   0  0  1  0  0  0  0  0  0  0  0  0
   10.6236  -15.6329   23.5526 C   0  0  0  0  0  0  0  0  0  0  0  0
   11.7511  -15.1506   23.3765 O   0  0  0  0  0  0  0  0  0  0  0  0
   12.1265  -14.2470   28.1067 C   0  0  0  0  0  0  0  0  0  0  0  0
   10.7249  -14.7750   27.8989 C   0  0  1  0  0  0  0  0  0  0  0  0
    9.7860  -13.6214   28.2893 C   0  0  0  0  0  0  0  0  0  0  0  0
   10.4268  -15.0993   26.4771 C   0  0  0  0  0  0  0  0  0  0  0  0
   11.0696  -16.3301   25.9343 C   0  0  2  0  0  0  0  0  0  0  0  0
   10.4874  -16.5676   24.6115 N   0  0  0  0  0  0  0  0  0  0  0  0
   10.9033  -17.4997   26.8118 C   0  0  0  0  0  0  0  0  0  0  0  0
    9.9424  -18.4411   26.5269 O   0  0  0  0  0  0  0  0  0  0  0  0
   11.6284  -17.6399   27.8099 O   0  0  0  0  0  0  0  0  0  0  0  0
  2  1  1  1
  3  2  1  0
  3  4  1  0
  4  9  1  0
  5  4  2  0
  5  6  1  0
  6  7  2  0
  7  8  1  0
  9  8  2  0
 10 11  2  0
 10  2  1  0
 12 10  1  0
 13 12  1  0
 14 13  1  0
 15 14  1  0
 15 16  1  0
 16 12  1  0
 16 17  1  1
 18 17  2  0
 20 19  1  6
 20 21  1  0
 22 20  1  0
 23 22  1  1
 23 24  1  0
 24 17  1  0
 25 23  1  0
 26 25  1  0
 27 25  2  0
M  END
$$$$
