FPL.pdb
     RDKit          3D

 27 28  0  0  1  0  0  0  0  0999 V2000
    5.4269  -17.9559   23.9951 N   0  0  0  0  0  0  0  0  0  0  0  0
    6.1723  -16.7349   24.2721 C   0  0  1  0  0  0  0  0  0  0  0  0
    6.1310  -16.5772   25.7805 C   0  0  0  0  0  0  0  0  0  0  0  0
    6.2809  -15.1328   26.0658 C   0  0  0  0  0  0  0  0  0  0  0  0
    5.3179  -14.2042   25.7389 C   0  0  0  0  0  0  0  0  0  0  0  0
    5.5131  -12.8557   26.0318 C   0  0  0  0  0  0  0  0  0  0  0  0
    6.6591  -12.4254   26.6474 C   0  0  0  0  0  0  0  0  0  0  0  0
    7.6226  -13.3401   26.9766 C   0  0  0  0  0  0  0  0  0  0  0  0
    7.4205  -14.6706   26.6830 C   0  0  0  0  0  0  0  0  0  0  0  0
    7.6005  -16.8416   23.7925 C   0  0  0  0  0  0  0  0  0  0  0  0
    8.2195  -17.8145   24.3215 O   0  0  0  0  0  0  0  0  0  0  0  0
    8.1374  -15.9411   22.8641 N   0  0  0  0  0  0  0  0  0  0  0  0
    7.2942  -15.3429   21.7959 C   0  0  0  0  0  0  0  0  0  0  0  0
    7.5942  -13.8858   22.0419 C   0  0  0  0  0  0  0  0  0  0  0  0
    8.9997  -13.8556   22.6587 C   0  0  0  0  0  0  0  0  0  0  0  0
    9.3843  -15.3308   22.5862 C   0  0  1  0  0  0  0  0  0  0  0  0
   10.5448  -15.6629   23.3651 C   0  0  0  0  0  0  0  0  0  0  0  0
   11.7012  -15.3588   23.0408 O   0  0  0  0  0  0  0  0  0  0  0  0
   11.8429  -14.3235   28.3827 C   0  0  0  0  0  0  0  0  0  0  0  0
   10.5142  -14.4429   27.6708 C   0  0  1  0  0  0  0  0  0  0  0  0
    9.8310  -13.0754   27.8377 C   0  0  0  0  0  0  0  0  0  0  0  0
   10.6536  -14.6692   26.2062 C   0  0  0  0  0  0  0  0  0  0  0  0
   11.1299  -16.0198   25.7916 C   0  0  2  0  0  0  0  0  0  0  0  0
   10.3901  -16.3797   24.5798 N   0  0  0  0  0  0  0  0  0  0  0  0
   10.9638  -17.0354   26.8435 C   0  0  0  0  0  0  0  0  0  0  0  0
    9.9744  -17.9838   26.7326 O   0  0  0  0  0  0  0  0  0  0  0  0
   11.7148  -17.0391   27.8323 O   0  0  0  0  0  0  0  0  0  0  0  0
  2  1  1  1
  3  2  1  0
  3  4  1  0
  4  9  1  0
  5  4  2  0
  5  6  1  0
  6  7  2  0
  7  8  1  0
  9  8  2  0
 10 11  2  0
 10  2  1  0
 12 10  1  0
 13 12  1  0
 14 13  1  0
 15 14  1  0
 15 16  1  0
 16 12  1  0
 16 17  1  1
 18 17  2  0
 20 19  1  1
 20 21  1  0
 22 20  1  0
 23 22  1  1
 23 24  1  0
 24 17  1  0
 25 23  1  0
 26 25  1  0
 27 25  2  0
M  END
$$$$
