FPL.pdb
     RDKit          3D

 27 28  0  0  1  0  0  0  0  0999 V2000
    8.4478  -12.7093   18.9054 N   0  0  0  0  0  0  0  0  0  0  0  0
    9.0097  -13.9790   19.3472 C   0  0  1  0  0  0  0  0  0  0  0  0
   10.4323  -13.9892   18.8200 C   0  0  0  0  0  0  0  0  0  0  0  0
   10.9784  -15.3393   19.0832 C   0  0  0  0  0  0  0  0  0  0  0  0
   11.7410  -15.6322   20.1918 C   0  0  0  0  0  0  0  0  0  0  0  0
   12.2294  -16.9226   20.3885 C   0  0  0  0  0  0  0  0  0  0  0  0
   11.9642  -17.9226   19.4902 C   0  0  0  0  0  0  0  0  0  0  0  0
   11.2071  -17.6422   18.3850 C   0  0  0  0  0  0  0  0  0  0  0  0
   10.7290  -16.3639   18.1993 C   0  0  0  0  0  0  0  0  0  0  0  0
    9.0053  -14.0880   20.8536 C   0  0  0  0  0  0  0  0  0  0  0  0
    9.9791  -13.4753   21.3881 O   0  0  0  0  0  0  0  0  0  0  0  0
    8.0130  -14.7988   21.5401 N   0  0  0  0  0  0  0  0  0  0  0  0
    6.5986  -14.7822   21.0827 C   0  0  0  0  0  0  0  0  0  0  0  0
    6.3548  -16.2682   21.0049 C   0  0  0  0  0  0  0  0  0  0  0  0
    7.3051  -16.8936   22.0356 C   0  0  0  0  0  0  0  0  0  0  0  0
    7.9129  -15.6457   22.6701 C   0  0  1  0  0  0  0  0  0  0  0  0
    9.0685  -15.9153   23.4799 C   0  0  0  0  0  0  0  0  0  0  0  0
   10.1361  -16.3552   23.0307 O   0  0  0  0  0  0  0  0  0  0  0  0
    9.7575  -13.3265   28.5437 C   0  0  0  0  0  0  0  0  0  0  0  0
    9.4311  -14.5527   27.7214 C   0  0  1  0  0  0  0  0  0  0  0  0
    8.0605  -14.2705   27.0838 C   0  0  0  0  0  0  0  0  0  0  0  0
   10.3820  -14.7736   26.5977 C   0  0  0  0  0  0  0  0  0  0  0  0
   10.1416  -15.9836   25.7606 C   0  0  2  0  0  0  0  0  0  0  0  0
    9.0151  -15.6742   24.8772 N   0  0  0  0  0  0  0  0  0  0  0  0
    9.8815  -17.1921   26.5590 C   0  0  0  0  0  0  0  0  0  0  0  0
   10.9256  -17.8604   27.1537 O   0  0  0  0  0  0  0  0  0  0  0  0
    8.7209  -17.6111   26.6980 O   0  0  0  0  0  0  0  0  0  0  0  0
  2  1  1  1
  3  2  1  0
  3  4  1  0
  4  9  1  0
  5  4  2  0
  5  6  1  0
  6  7  2  0
  7  8  1  0
  9  8  2  0
 10 11  2  0
 10  2  1  0
 12 10  1  0
 13 12  1  0
 14 13  1  0
 15 14  1  0
 15 16  1  0
 16 12  1  0
 16 17  1  6
 18 17  2  0
 20 19  1  6
 20 21  1  0
 22 20  1  0
 23 22  1  1
 23 24  1  0
 24 17  1  0
 25 23  1  0
 26 25  1  0
 27 25  2  0
M  END
$$$$
