DRD.pdb
     RDKit          3D

 28 27  0  0  1  0  0  0  0  0999 V2000
   25.4529  -13.4599  -18.6800 N   0  0  0  0  0  0  0  0  0  0  0  0
   25.2974  -14.4858  -19.7462 C   0  0  1  0  0  0  0  0  0  0  0  0
   26.4655  -14.5200  -20.6378 C   0  0  0  0  0  0  0  0  0  0  0  0
   27.7263  -14.7225  -19.8772 C   0  0  0  0  0  0  0  0  0  0  0  0
   27.7306  -14.9360  -18.6468 O   0  0  0  0  0  0  0  0  0  0  0  0
   24.9910  -15.7252  -18.9907 C   0  0  0  0  0  0  0  0  0  0  0  0
   24.1644  -16.5793  -19.5052 O   0  0  0  0  0  0  0  0  0  0  0  0
   28.9742  -14.6764  -20.5206 O   0  0  0  0  0  0  0  0  0  0  0  0
   26.5588  -21.9045  -14.8929 N   0  0  0  0  0  0  0  0  0  0  0  0
   27.7607  -21.3926  -15.4587 C   0  0  0  0  0  0  0  0  0  0  0  0
   28.5198  -22.1254  -16.1916 N   0  0  0  0  0  0  0  0  0  0  0  0
   28.1442  -20.0387  -15.2146 N   0  0  0  0  0  0  0  0  0  0  0  0
   27.3039  -19.1293  -14.4632 C   0  0  0  0  0  0  0  0  0  0  0  0
   26.0096  -18.8180  -15.2080 C   0  0  0  0  0  0  0  0  0  0  0  0
   26.2483  -17.7295  -16.1949 C   0  0  0  0  0  0  0  0  0  0  0  0
   25.0830  -17.3784  -17.0880 C   0  0  2  0  0  0  0  0  0  0  0  0
   25.4962  -16.1095  -17.7376 N   0  0  0  0  0  0  0  0  0  0  0  0
   23.8735  -17.1765  -16.2926 C   0  0  0  0  0  0  0  0  0  0  0  0
   23.6972  -16.0293  -15.7349 O   0  0  0  0  0  0  0  0  0  0  0  0
   29.3791  -21.7393  -16.6144 N   0  0  0  0  0  0  0  0  0  0  0  0
   22.8336  -18.0958  -16.0492 C   0  0  1  0  0  0  0  0  0  0  0  0
   21.6214  -17.7400  -15.3328 C   0  0  0  0  0  0  0  0  0  0  0  0
   20.8533  -16.6388  -16.0431 C   0  0  0  0  0  0  0  0  0  0  0  0
   19.5484  -16.3474  -15.3996 O   0  0  0  0  0  0  0  0  0  0  0  0
   19.3806  -16.3660  -14.1498 C   0  0  0  0  0  0  0  0  0  0  0  0
   20.7345  -18.9035  -15.2708 O   0  0  0  0  0  0  0  0  0  0  0  0
   19.6564  -18.8689  -14.6382 O   0  0  0  0  0  0  0  0  0  0  0  0
   18.4152  -16.0300  -16.1630 O   0  0  0  0  0  0  0  0  0  0  0  0
  2  1  1  1
  2  3  1  0
  3  4  1  0
  4  8  1  0
  4  5  2  0
  6  7  2  0
  6  2  1  0
  9 10  1  0
 10 11  2  0
 12 10  1  0
 12 13  1  0
 13 14  1  0
 14 15  1  0
 16 15  1  1
 16 17  1  0
 17  6  1  0
 18 20  1  0
 18 16  1  0
 19 18  2  0
 21 25  1  0
 21 20  1  0
 22 23  1  0
 21 22  1  6
 23 24  2  0
 25 28  1  0
 26 25  2  0
 27 23  1  0
M  END
$$$$
