DRD.pdb
     RDKit          3D

 28 27  0  0  1  0  0  0  0  0999 V2000
   25.2011  -20.6401  -17.4612 N   0  0  0  0  0  0  0  0  0  0  0  0
   24.5579  -19.4582  -16.8267 C   0  0  1  0  0  0  0  0  0  0  0  0
   24.0789  -18.4987  -17.8320 C   0  0  0  0  0  0  0  0  0  0  0  0
   25.0939  -17.4496  -18.1115 C   0  0  0  0  0  0  0  0  0  0  0  0
   26.1658  -17.3786  -17.4748 O   0  0  0  0  0  0  0  0  0  0  0  0
   23.5393  -20.0589  -15.9309 C   0  0  0  0  0  0  0  0  0  0  0  0
   22.6943  -20.9049  -16.4286 O   0  0  0  0  0  0  0  0  0  0  0  0
   24.8809  -16.4854  -19.1107 O   0  0  0  0  0  0  0  0  0  0  0  0
   21.7064  -21.2925   -7.9316 N   0  0  0  0  0  0  0  0  0  0  0  0
   22.3732  -20.6003   -8.9820 C   0  0  0  0  0  0  0  0  0  0  0  0
   21.9699  -19.4494   -9.3859 N   0  0  0  0  0  0  0  0  0  0  0  0
   23.5148  -21.1853   -9.6098 N   0  0  0  0  0  0  0  0  0  0  0  0
   24.3241  -20.4521  -10.5612 C   0  0  0  0  0  0  0  0  0  0  0  0
   23.9811  -20.8319  -11.9982 C   0  0  0  0  0  0  0  0  0  0  0  0
   22.6455  -20.2813  -12.3572 C   0  0  0  0  0  0  0  0  0  0  0  0
   22.2363  -20.4271  -13.8029 C   0  0  2  0  0  0  0  0  0  0  0  0
   23.3596  -19.8190  -14.5586 N   0  0  0  0  0  0  0  0  0  0  0  0
   20.9944  -19.6995  -14.0574 C   0  0  0  0  0  0  0  0  0  0  0  0
   21.0742  -18.4567  -14.3850 O   0  0  0  0  0  0  0  0  0  0  0  0
   22.4129  -18.9887  -10.1969 N   0  0  0  0  0  0  0  0  0  0  0  0
   19.6750  -20.1909  -13.9977 C   0  0  1  0  0  0  0  0  0  0  0  0
   18.5217  -19.3953  -14.3803 C   0  0  0  0  0  0  0  0  0  0  0  0
   18.5379  -19.0615  -15.8621 C   0  0  0  0  0  0  0  0  0  0  0  0
   17.3329  -18.3088  -16.2901 O   0  0  0  0  0  0  0  0  0  0  0  0
   17.0813  -18.0461  -17.4977 C   0  0  0  0  0  0  0  0  0  0  0  0
   17.2990  -20.1615  -14.1316 O   0  0  0  0  0  0  0  0  0  0  0  0
   17.2744  -21.4065  -14.2474 O   0  0  0  0  0  0  0  0  0  0  0  0
   16.3955  -17.8437  -15.3560 O   0  0  0  0  0  0  0  0  0  0  0  0
  2  1  1  6
  2  3  1  0
  3  4  1  0
  4  8  1  0
  4  5  2  0
  6  7  2  0
  6  2  1  0
  9 10  1  0
 10 11  2  0
 12 10  1  0
 12 13  1  0
 13 14  1  0
 14 15  1  0
 16 15  1  1
 16 17  1  0
 17  6  1  0
 18 20  1  0
 18 16  1  0
 19 18  2  0
 21 25  1  0
 21 20  1  0
 22 23  1  0
 21 22  1  1
 23 24  2  0
 25 28  1  0
 26 25  2  0
 27 23  1  0
M  END
$$$$
