DRD.pdb
     RDKit          3D

 28 27  0  0  1  0  0  0  0  0999 V2000
   21.2112  -19.8403  -10.0223 N   0  0  0  0  0  0  0  0  0  0  0  0
   20.5698  -20.5042  -11.1889 C   0  0  1  0  0  0  0  0  0  0  0  0
   19.1148  -20.2956  -11.1970 C   0  0  0  0  0  0  0  0  0  0  0  0
   18.3896  -21.4922  -10.6957 C   0  0  0  0  0  0  0  0  0  0  0  0
   18.9881  -22.5306  -10.3447 O   0  0  0  0  0  0  0  0  0  0  0  0
   21.3315  -19.9774  -12.3478 C   0  0  0  0  0  0  0  0  0  0  0  0
   21.6350  -18.7185  -12.3727 O   0  0  0  0  0  0  0  0  0  0  0  0
   16.9882  -21.5013  -10.6010 O   0  0  0  0  0  0  0  0  0  0  0  0
   26.6432  -24.1358  -17.6601 N   0  0  0  0  0  0  0  0  0  0  0  0
   26.9865  -23.2163  -16.6289 C   0  0  0  0  0  0  0  0  0  0  0  0
   28.0954  -23.3142  -15.9877 N   0  0  0  0  0  0  0  0  0  0  0  0
   26.0893  -22.1586  -16.2882 N   0  0  0  0  0  0  0  0  0  0  0  0
   24.8206  -21.9841  -16.9647 C   0  0  0  0  0  0  0  0  0  0  0  0
   24.0703  -20.7633  -16.4417 C   0  0  0  0  0  0  0  0  0  0  0  0
   23.3088  -21.1298  -15.2161 C   0  0  0  0  0  0  0  0  0  0  0  0
   22.5057  -20.0213  -14.5797 C   0  0  2  0  0  0  0  0  0  0  0  0
   21.7826  -20.6915  -13.4703 N   0  0  0  0  0  0  0  0  0  0  0  0
   21.5599  -19.4594  -15.5420 C   0  0  0  0  0  0  0  0  0  0  0  0
   20.3055  -19.6934  -15.3690 O   0  0  0  0  0  0  0  0  0  0  0  0
   28.3262  -22.6552  -15.2270 N   0  0  0  0  0  0  0  0  0  0  0  0
   21.8422  -18.6627  -16.6696 C   0  0  2  0  0  0  0  0  0  0  0  0
   20.8992  -17.6972  -17.2060 C   0  0  0  0  0  0  0  0  0  0  0  0
   20.4898  -16.6735  -16.1611 C   0  0  0  0  0  0  0  0  0  0  0  0
   19.4866  -15.7071  -16.6721 O   0  0  0  0  0  0  0  0  0  0  0  0
   18.3393  -16.0529  -17.0656 C   0  0  0  0  0  0  0  0  0  0  0  0
   21.5312  -16.9570  -18.2999 O   0  0  0  0  0  0  0  0  0  0  0  0
   22.3639  -16.0506  -18.0786 O   0  0  0  0  0  0  0  0  0  0  0  0
   19.7686  -14.3349  -16.7439 O   0  0  0  0  0  0  0  0  0  0  0  0
  2  1  1  1
  2  3  1  0
  3  4  1  0
  4  8  1  0
  4  5  2  0
  6  7  2  0
  6  2  1  0
  9 10  1  0
 10 11  2  0
 12 10  1  0
 12 13  1  0
 13 14  1  0
 14 15  1  0
 16 15  1  6
 16 17  1  0
 17  6  1  0
 18 20  1  0
 18 16  1  0
 19 18  2  0
 21 25  1  0
 21 20  1  0
 22 23  1  0
 21 22  1  1
 23 24  2  0
 25 28  1  0
 26 25  2  0
 27 23  1  0
M  END
$$$$
