DRD.pdb
     RDKit          3D

 28 27  0  0  1  0  0  0  0  0999 V2000
   28.3590  -19.9372  -18.0158 N   0  0  0  0  0  0  0  0  0  0  0  0
   27.7490  -21.2791  -18.2166 C   0  0  1  0  0  0  0  0  0  0  0  0
   28.7739  -22.3200  -18.3795 C   0  0  0  0  0  0  0  0  0  0  0  0
   29.5288  -22.1482  -19.6482 C   0  0  0  0  0  0  0  0  0  0  0  0
   29.2977  -21.2055  -20.4339 O   0  0  0  0  0  0  0  0  0  0  0  0
   26.8283  -21.4163  -17.0615 C   0  0  0  0  0  0  0  0  0  0  0  0
   26.1822  -22.5284  -16.9093 O   0  0  0  0  0  0  0  0  0  0  0  0
   30.5387  -23.0523  -20.0168 O   0  0  0  0  0  0  0  0  0  0  0  0
   30.7382  -21.9502  -10.5826 N   0  0  0  0  0  0  0  0  0  0  0  0
   29.4667  -21.4246  -10.9482 C   0  0  0  0  0  0  0  0  0  0  0  0
   28.3800  -22.0537  -10.6769 N   0  0  0  0  0  0  0  0  0  0  0  0
   29.3815  -20.1736  -11.6320 N   0  0  0  0  0  0  0  0  0  0  0  0
   28.1274  -19.6708  -12.1536 C   0  0  0  0  0  0  0  0  0  0  0  0
   27.5395  -20.6109  -13.2012 C   0  0  0  0  0  0  0  0  0  0  0  0
   26.2975  -20.0168  -13.7675 C   0  0  0  0  0  0  0  0  0  0  0  0
   25.6696  -20.7669  -14.9172 C   0  0  2  0  0  0  0  0  0  0  0  0
   26.5497  -20.4589  -16.0720 N   0  0  0  0  0  0  0  0  0  0  0  0
   24.3132  -20.2811  -15.1631 C   0  0  0  0  0  0  0  0  0  0  0  0
   24.1697  -19.0913  -15.6341 O   0  0  0  0  0  0  0  0  0  0  0  0
   27.4618  -21.6593  -10.9369 N   0  0  0  0  0  0  0  0  0  0  0  0
   23.0979  -20.9631  -14.9541 C   0  0  2  0  0  0  0  0  0  0  0  0
   21.8023  -20.3536  -15.1976 C   0  0  0  0  0  0  0  0  0  0  0  0
   20.7786  -21.3775  -15.6568 C   0  0  0  0  0  0  0  0  0  0  0  0
   19.4362  -20.7839  -15.8736 O   0  0  0  0  0  0  0  0  0  0  0  0
   19.1907  -19.5596  -15.6961 C   0  0  0  0  0  0  0  0  0  0  0  0
   21.2950  -19.7764  -13.9511 O   0  0  0  0  0  0  0  0  0  0  0  0
   21.7018  -20.1714  -12.8365 O   0  0  0  0  0  0  0  0  0  0  0  0
   18.3529  -21.5688  -16.2955 O   0  0  0  0  0  0  0  0  0  0  0  0
  2  1  1  1
  2  3  1  0
  3  4  1  0
  4  8  1  0
  4  5  2  0
  6  7  2  0
  6  2  1  0
  9 10  1  0
 10 11  2  0
 12 10  1  0
 12 13  1  0
 13 14  1  0
 14 15  1  0
 16 15  1  1
 16 17  1  0
 17  6  1  0
 18 20  1  0
 18 16  1  0
 19 18  2  0
 21 25  1  0
 21 20  1  0
 22 23  1  0
 21 22  1  1
 23 24  2  0
 25 28  1  0
 26 25  2  0
 27 23  1  0
M  END
$$$$
