DRD.pdb
     RDKit          3D

 28 27  0  0  1  0  0  0  0  0999 V2000
   17.0286  -12.2813  -12.8001 N   0  0  0  0  0  0  0  0  0  0  0  0
   16.3379  -11.6837  -13.9745 C   0  0  1  0  0  0  0  0  0  0  0  0
   15.4215  -12.6424  -14.6082 C   0  0  0  0  0  0  0  0  0  0  0  0
   16.1435  -13.8469  -15.0947 C   0  0  0  0  0  0  0  0  0  0  0  0
   17.0511  -13.7750  -15.9495 O   0  0  0  0  0  0  0  0  0  0  0  0
   15.7393  -10.4414  -13.4276 C   0  0  0  0  0  0  0  0  0  0  0  0
   15.0278   -9.6958  -14.2120 O   0  0  0  0  0  0  0  0  0  0  0  0
   15.8255  -15.1260  -14.6088 O   0  0  0  0  0  0  0  0  0  0  0  0
   15.3779   -5.6609   -6.9839 N   0  0  0  0  0  0  0  0  0  0  0  0
   13.9724   -5.8564   -6.8686 C   0  0  0  0  0  0  0  0  0  0  0  0
   13.2120   -4.9566   -6.3562 N   0  0  0  0  0  0  0  0  0  0  0  0
   13.3812   -7.0731   -7.3268 N   0  0  0  0  0  0  0  0  0  0  0  0
   14.1502   -8.0806   -8.0277 C   0  0  0  0  0  0  0  0  0  0  0  0
   14.3103   -7.7356   -9.5049 C   0  0  0  0  0  0  0  0  0  0  0  0
   15.0257   -8.8388  -10.2029 C   0  0  0  0  0  0  0  0  0  0  0  0
   15.1612   -8.6972  -11.6996 C   0  0  2  0  0  0  0  0  0  0  0  0
   15.8496   -9.9436  -12.1187 N   0  0  0  0  0  0  0  0  0  0  0  0
   15.9732   -7.5276  -12.0300 C   0  0  0  0  0  0  0  0  0  0  0  0
   17.1930   -7.4987  -11.6184 O   0  0  0  0  0  0  0  0  0  0  0  0
   12.1995   -5.1232   -6.2407 N   0  0  0  0  0  0  0  0  0  0  0  0
   15.5925   -6.3898  -12.7690 C   0  0  2  0  0  0  0  0  0  0  0  0
   16.5005   -5.2897  -13.0420 C   0  0  0  0  0  0  0  0  0  0  0  0
   17.1141   -5.4000  -14.4272 C   0  0  0  0  0  0  0  0  0  0  0  0
   17.9113   -4.2038  -14.7945 O   0  0  0  0  0  0  0  0  0  0  0  0
   18.1563   -3.2677  -13.9855 C   0  0  0  0  0  0  0  0  0  0  0  0
   15.7590   -4.0275  -13.0061 O   0  0  0  0  0  0  0  0  0  0  0  0
   16.3430   -2.9252  -13.0943 O   0  0  0  0  0  0  0  0  0  0  0  0
   18.4432   -4.0514  -16.0835 O   0  0  0  0  0  0  0  0  0  0  0  0
  2  1  1  1
  2  3  1  0
  3  4  1  0
  4  8  1  0
  4  5  2  0
  6  7  2  0
  6  2  1  0
  9 10  1  0
 10 11  2  0
 12 10  1  0
 12 13  1  0
 13 14  1  0
 14 15  1  0
 16 15  1  1
 16 17  1  0
 17  6  1  0
 18 20  1  0
 18 16  1  0
 19 18  2  0
 21 25  1  0
 21 20  1  0
 22 23  1  0
 21 22  1  6
 23 24  2  0
 25 28  1  0
 26 25  2  0
 27 23  1  0
M  END
$$$$
