DRD.pdb
     RDKit          3D

 28 27  0  0  1  0  0  0  0  0999 V2000
   28.0594  -20.6230  -19.3853 N   0  0  0  0  0  0  0  0  0  0  0  0
   27.9242  -19.4223  -18.5174 C   0  0  1  0  0  0  0  0  0  0  0  0
   27.2737  -18.3121  -19.2281 C   0  0  0  0  0  0  0  0  0  0  0  0
   28.1931  -17.6797  -20.2096 C   0  0  0  0  0  0  0  0  0  0  0  0
   27.9347  -17.6428  -21.4309 O   0  0  0  0  0  0  0  0  0  0  0  0
   27.2365  -19.9439  -17.3110 C   0  0  0  0  0  0  0  0  0  0  0  0
   26.5043  -21.0064  -17.4225 O   0  0  0  0  0  0  0  0  0  0  0  0
   29.4025  -17.0970  -19.7961 O   0  0  0  0  0  0  0  0  0  0  0  0
   26.1006  -20.5636   -8.9538 N   0  0  0  0  0  0  0  0  0  0  0  0
   25.0971  -20.9953   -9.8669 C   0  0  0  0  0  0  0  0  0  0  0  0
   23.8477  -20.8629   -9.5990 N   0  0  0  0  0  0  0  0  0  0  0  0
   25.4719  -21.5903  -11.1100 N   0  0  0  0  0  0  0  0  0  0  0  0
   26.6122  -21.1210  -11.8696 C   0  0  0  0  0  0  0  0  0  0  0  0
   26.3958  -19.7019  -12.3856 C   0  0  0  0  0  0  0  0  0  0  0  0
   27.1483  -19.5098  -13.6556 C   0  0  0  0  0  0  0  0  0  0  0  0
   26.4652  -19.9980  -14.9101 C   0  0  2  0  0  0  0  0  0  0  0  0
   27.2723  -19.4143  -16.0104 N   0  0  0  0  0  0  0  0  0  0  0  0
   25.0901  -19.5057  -14.9667 C   0  0  0  0  0  0  0  0  0  0  0  0
   24.9026  -18.2350  -15.0578 O   0  0  0  0  0  0  0  0  0  0  0  0
   23.1283  -21.1107  -10.2969 N   0  0  0  0  0  0  0  0  0  0  0  0
   23.8991  -20.2584  -14.9408 C   0  0  2  0  0  0  0  0  0  0  0  0
   22.5823  -19.6460  -14.9208 C   0  0  0  0  0  0  0  0  0  0  0  0
   21.8421  -19.8657  -16.2289 C   0  0  0  0  0  0  0  0  0  0  0  0
   20.5070  -19.2184  -16.2441 O   0  0  0  0  0  0  0  0  0  0  0  0
   20.0718  -18.5211  -15.2875 C   0  0  0  0  0  0  0  0  0  0  0  0
   21.7748  -20.2647  -13.8676 O   0  0  0  0  0  0  0  0  0  0  0  0
   22.1666  -21.2849  -13.2597 O   0  0  0  0  0  0  0  0  0  0  0  0
   19.6464  -19.3511  -17.3438 O   0  0  0  0  0  0  0  0  0  0  0  0
  2  1  1  6
  2  3  1  0
  3  4  1  0
  4  8  1  0
  4  5  2  0
  6  7  2  0
  6  2  1  0
  9 10  1  0
 10 11  2  0
 12 10  1  0
 12 13  1  0
 13 14  1  0
 14 15  1  0
 16 15  1  1
 16 17  1  0
 17  6  1  0
 18 20  1  0
 18 16  1  0
 19 18  2  0
 21 25  1  0
 21 20  1  0
 22 23  1  0
 21 22  1  6
 23 24  2  0
 25 28  1  0
 26 25  2  0
 27 23  1  0
M  END
$$$$
