DRD.pdb
     RDKit          3D

 28 27  0  0  1  0  0  0  0  0999 V2000
   14.8070  -10.9799  -13.9023 N   0  0  0  0  0  0  0  0  0  0  0  0
   16.0604  -10.9159  -13.1034 C   0  0  1  0  0  0  0  0  0  0  0  0
   17.2311  -11.3057  -13.9021 C   0  0  0  0  0  0  0  0  0  0  0  0
   17.2935  -12.7780  -14.0957 C   0  0  0  0  0  0  0  0  0  0  0  0
   16.4102  -13.5422  -13.6535 O   0  0  0  0  0  0  0  0  0  0  0  0
   16.0493   -9.5381  -12.5536 C   0  0  0  0  0  0  0  0  0  0  0  0
   15.8255   -8.5486  -13.3587 O   0  0  0  0  0  0  0  0  0  0  0  0
   18.3622  -13.3717  -14.7873 O   0  0  0  0  0  0  0  0  0  0  0  0
   11.7791   -8.4709   -5.7778 N   0  0  0  0  0  0  0  0  0  0  0  0
   11.1661   -8.6161   -7.0545 C   0  0  0  0  0  0  0  0  0  0  0  0
    9.9107   -8.8633   -7.1691 N   0  0  0  0  0  0  0  0  0  0  0  0
   11.9502   -8.4878   -8.2413 N   0  0  0  0  0  0  0  0  0  0  0  0
   13.3604   -8.1612   -8.1947 C   0  0  0  0  0  0  0  0  0  0  0  0
   13.9637   -8.0831   -9.5936 C   0  0  0  0  0  0  0  0  0  0  0  0
   15.4171   -7.7762   -9.4965 C   0  0  0  0  0  0  0  0  0  0  0  0
   16.1718   -7.7265  -10.8028 C   0  0  2  0  0  0  0  0  0  0  0  0
   16.2622   -9.1477  -11.2211 N   0  0  0  0  0  0  0  0  0  0  0  0
   17.5065   -7.1663  -10.5999 C   0  0  0  0  0  0  0  0  0  0  0  0
   18.2786   -7.7320   -9.7385 O   0  0  0  0  0  0  0  0  0  0  0  0
    9.4784   -8.9839   -8.0991 N   0  0  0  0  0  0  0  0  0  0  0  0
   18.0873   -6.0565  -11.2455 C   0  0  2  0  0  0  0  0  0  0  0  0
   19.4282   -5.5858  -10.9461 C   0  0  0  0  0  0  0  0  0  0  0  0
   20.3911   -5.8753  -12.0848 C   0  0  0  0  0  0  0  0  0  0  0  0
   21.7274   -5.2672  -11.8700 O   0  0  0  0  0  0  0  0  0  0  0  0
   22.1985   -4.3654  -12.6153 C   0  0  0  0  0  0  0  0  0  0  0  0
   19.4048   -4.1324  -10.7698 O   0  0  0  0  0  0  0  0  0  0  0  0
   18.4649   -3.4366  -11.2131 O   0  0  0  0  0  0  0  0  0  0  0  0
   22.5486   -5.6715  -10.8071 O   0  0  0  0  0  0  0  0  0  0  0  0
  2  1  1  6
  2  3  1  0
  3  4  1  0
  4  8  1  0
  4  5  2  0
  6  7  2  0
  6  2  1  0
  9 10  1  0
 10 11  2  0
 12 10  1  0
 12 13  1  0
 13 14  1  0
 14 15  1  0
 16 15  1  1
 16 17  1  0
 17  6  1  0
 18 20  1  0
 18 16  1  0
 19 18  2  0
 21 25  1  0
 21 20  1  0
 22 23  1  0
 21 22  1  6
 23 24  2  0
 25 28  1  0
 26 25  2  0
 27 23  1  0
M  END
$$$$
