DRD.pdb
     RDKit          3D

 28 27  0  0  1  0  0  0  0  0999 V2000
   26.4403  -17.8951  -15.4732 N   0  0  0  0  0  0  0  0  0  0  0  0
   26.4194  -19.2491  -16.0891 C   0  0  1  0  0  0  0  0  0  0  0  0
   27.7750  -19.7182  -16.4096 C   0  0  0  0  0  0  0  0  0  0  0  0
   28.3842  -18.9185  -17.5043 C   0  0  0  0  0  0  0  0  0  0  0  0
   27.8333  -17.8959  -17.9630 O   0  0  0  0  0  0  0  0  0  0  0  0
   25.6394  -20.0572  -15.1199 C   0  0  0  0  0  0  0  0  0  0  0  0
   25.4831  -21.3225  -15.3481 O   0  0  0  0  0  0  0  0  0  0  0  0
   29.6139  -19.2895  -18.0728 O   0  0  0  0  0  0  0  0  0  0  0  0
   28.5933  -21.0328  -12.9286 N   0  0  0  0  0  0  0  0  0  0  0  0
   28.8874  -21.2200  -11.5483 C   0  0  0  0  0  0  0  0  0  0  0  0
   30.0468  -20.9445  -11.0683 N   0  0  0  0  0  0  0  0  0  0  0  0
   27.8833  -21.7245  -10.6668 N   0  0  0  0  0  0  0  0  0  0  0  0
   26.4712  -21.5901  -10.9592 C   0  0  0  0  0  0  0  0  0  0  0  0
   26.1021  -20.1468  -11.2870 C   0  0  0  0  0  0  0  0  0  0  0  0
   24.6612  -20.0683  -11.6527 C   0  0  0  0  0  0  0  0  0  0  0  0
   24.3028  -20.5489  -13.0381 C   0  0  2  0  0  0  0  0  0  0  0  0
   25.0186  -19.6131  -13.9406 N   0  0  0  0  0  0  0  0  0  0  0  0
   22.8593  -20.4623  -13.2506 C   0  0  0  0  0  0  0  0  0  0  0  0
   22.2820  -19.3292  -13.0476 O   0  0  0  0  0  0  0  0  0  0  0  0
   30.2719  -21.1468  -10.0811 N   0  0  0  0  0  0  0  0  0  0  0  0
   21.9826  -21.4833  -13.6684 C   0  0  1  0  0  0  0  0  0  0  0  0
   20.5748  -21.2494  -13.9378 C   0  0  0  0  0  0  0  0  0  0  0  0
   20.0256  -22.2403  -14.9496 C   0  0  0  0  0  0  0  0  0  0  0  0
   18.5905  -22.0123  -15.2498 O   0  0  0  0  0  0  0  0  0  0  0  0
   17.9333  -21.0499  -14.7676 C   0  0  0  0  0  0  0  0  0  0  0  0
   19.8071  -21.4332  -12.7045 O   0  0  0  0  0  0  0  0  0  0  0  0
   20.1658  -22.2508  -11.8288 O   0  0  0  0  0  0  0  0  0  0  0  0
   17.8797  -22.8711  -16.1011 O   0  0  0  0  0  0  0  0  0  0  0  0
  2  1  1  1
  2  3  1  0
  3  4  1  0
  4  8  1  0
  4  5  2  0
  6  7  2  0
  6  2  1  0
  9 10  1  0
 10 11  2  0
 12 10  1  0
 12 13  1  0
 13 14  1  0
 14 15  1  0
 16 15  1  1
 16 17  1  0
 17  6  1  0
 18 20  1  0
 18 16  1  0
 19 18  2  0
 21 25  1  0
 21 20  1  0
 22 23  1  0
 21 22  1  1
 23 24  2  0
 25 28  1  0
 26 25  2  0
 27 23  1  0
M  END
$$$$
