MVM.pdb
     RDKit          3D

 24 23  0  0  1  0  0  0  0  0999 V2000
    7.2676  -11.6994   27.0698 C   0  0  0  0  0  0  0  0  0  0  0  0
    6.1841  -12.8092   27.9898 S   0  0  0  0  0  0  0  0  0  0  0  0
    5.6257  -14.1262   26.9012 C   0  0  0  0  0  0  0  0  0  0  0  0
    6.8230  -14.5724   26.0630 C   0  0  0  0  0  0  0  0  0  0  0  0
    6.2631  -15.5695   25.0524 C   0  0  2  0  0  0  0  0  0  0  0  0
    5.8087  -16.7716   25.7027 N   0  0  0  0  0  0  0  0  0  0  0  0
    7.2757  -15.9412   24.0285 C   0  0  0  0  0  0  0  0  0  0  0  0
    7.9323  -17.0336   24.1298 O   0  0  0  0  0  0  0  0  0  0  0  0
    7.0032  -14.5074   20.3267 C   0  0  0  0  0  0  0  0  0  0  0  0
    8.4151  -14.6564   20.7621 C   0  0  1  0  0  0  0  0  0  0  0  0
    8.9805  -13.2750   21.1244 C   0  0  0  0  0  0  0  0  0  0  0  0
    8.6447  -15.5380   21.9516 C   0  0  2  0  0  0  0  0  0  0  0  0
    7.5802  -15.1479   22.9064 N   0  0  0  0  0  0  0  0  0  0  0  0
    9.9584  -15.4035   22.5948 C   0  0  0  0  0  0  0  0  0  0  0  0
   10.6245  -14.3019   22.5156 O   0  0  0  0  0  0  0  0  0  0  0  0
    9.5781  -13.7930   27.6720 C   0  0  0  0  0  0  0  0  0  0  0  0
   11.3606  -13.9873   27.7838 S   0  0  0  0  0  0  0  0  0  0  0  0
   11.9735  -15.2245   26.5813 C   0  0  0  0  0  0  0  0  0  0  0  0
   10.9499  -15.4753   25.5134 C   0  0  0  0  0  0  0  0  0  0  0  0
   11.5686  -16.1975   24.3553 C   0  0  2  0  0  0  0  0  0  0  0  0
   10.5505  -16.4564   23.3257 N   0  0  0  0  0  0  0  0  0  0  0  0
   12.0841  -17.4994   24.7803 C   0  0  0  0  0  0  0  0  0  0  0  0
   13.0466  -17.6111   25.5700 O   0  0  0  0  0  0  0  0  0  0  0  0
   11.5300  -18.6886   24.3287 O   0  0  0  0  0  0  0  0  0  0  0  0
  1  2  1  0
  3  2  1  0
  4  3  1  0
  5  4  1  0
  5  6  1  1
  7  8  2  0
  7  5  1  0
 10  9  1  1
 10 12  1  0
 10 11  1  0
 12 13  1  1
 13  7  1  0
 14 15  2  0
 14 12  1  0
 16 17  1  0
 18 17  1  0
 19 18  1  0
 20 19  1  1
 20 21  1  0
 21 14  1  0
 22 20  1  0
 23 22  2  0
 24 22  1  0
M  END
$$$$
