MVM.pdb
     RDKit          3D

 24 23  0  0  1  0  0  0  0  0999 V2000
    6.7655  -18.4314   27.6836 C   0  0  0  0  0  0  0  0  0  0  0  0
    6.6019  -20.1972   27.3561 S   0  0  0  0  0  0  0  0  0  0  0  0
    6.1905  -20.4409   25.6232 C   0  0  0  0  0  0  0  0  0  0  0  0
    7.1257  -19.5586   24.7973 C   0  0  0  0  0  0  0  0  0  0  0  0
    6.6134  -19.6538   23.3628 C   0  0  2  0  0  0  0  0  0  0  0  0
    6.8185  -20.9730   22.8224 N   0  0  0  0  0  0  0  0  0  0  0  0
    7.2856  -18.6699   22.4730 C   0  0  0  0  0  0  0  0  0  0  0  0
    8.4101  -18.9456   21.9305 O   0  0  0  0  0  0  0  0  0  0  0  0
    5.5408  -14.7923   21.7977 C   0  0  0  0  0  0  0  0  0  0  0  0
    6.8483  -15.2368   21.2517 C   0  0  1  0  0  0  0  0  0  0  0  0
    7.7523  -14.0123   21.0452 C   0  0  0  0  0  0  0  0  0  0  0  0
    7.6201  -16.2000   22.1010 C   0  0  2  0  0  0  0  0  0  0  0  0
    6.7555  -17.4021   22.1681 N   0  0  0  0  0  0  0  0  0  0  0  0
    7.9295  -15.7377   23.4605 C   0  0  0  0  0  0  0  0  0  0  0  0
    7.1751  -16.0584   24.4563 O   0  0  0  0  0  0  0  0  0  0  0  0
    5.8171  -11.2382   27.3605 C   0  0  0  0  0  0  0  0  0  0  0  0
    7.3350  -12.1862   27.2039 S   0  0  0  0  0  0  0  0  0  0  0  0
    7.3100  -13.2435   25.7094 C   0  0  0  0  0  0  0  0  0  0  0  0
    8.0990  -14.4991   25.9374 C   0  0  0  0  0  0  0  0  0  0  0  0
    9.3512  -14.4865   25.1145 C   0  0  2  0  0  0  0  0  0  0  0  0
    9.0542  -14.9330   23.7448 N   0  0  0  0  0  0  0  0  0  0  0  0
   10.3335  -15.4223   25.6630 C   0  0  0  0  0  0  0  0  0  0  0  0
   10.0729  -16.6303   25.8506 O   0  0  0  0  0  0  0  0  0  0  0  0
   11.6158  -15.0188   26.0067 O   0  0  0  0  0  0  0  0  0  0  0  0
  1  2  1  0
  3  2  1  0
  4  3  1  0
  5  4  1  0
  5  6  1  6
  7  8  2  0
  7  5  1  0
 10  9  1  1
 10 12  1  0
 10 11  1  0
 12 13  1  1
 13  7  1  0
 14 15  2  0
 14 12  1  0
 16 17  1  0
 18 17  1  0
 19 18  1  0
 20 19  1  1
 20 21  1  0
 21 14  1  0
 22 20  1  0
 23 22  2  0
 24 22  1  0
M  END
$$$$
