MVM.pdb
     RDKit          3D

 24 23  0  0  1  0  0  0  0  0999 V2000
   11.8668  -18.7844   16.2778 C   0  0  0  0  0  0  0  0  0  0  0  0
   10.3444  -19.7319   16.4701 S   0  0  0  0  0  0  0  0  0  0  0  0
    9.7301  -19.5287   18.1472 C   0  0  0  0  0  0  0  0  0  0  0  0
    9.4718  -18.0388   18.3678 C   0  0  0  0  0  0  0  0  0  0  0  0
    9.1931  -17.8910   19.8611 C   0  0  2  0  0  0  0  0  0  0  0  0
    7.8141  -18.1746   20.1648 N   0  0  0  0  0  0  0  0  0  0  0  0
    9.5108  -16.5216   20.3464 C   0  0  0  0  0  0  0  0  0  0  0  0
   10.7085  -16.0766   20.2997 O   0  0  0  0  0  0  0  0  0  0  0  0
    8.0244  -13.5507   19.0633 C   0  0  0  0  0  0  0  0  0  0  0  0
    8.0077  -13.3741   20.5377 C   0  0  1  0  0  0  0  0  0  0  0  0
    6.5872  -13.6333   21.0615 C   0  0  0  0  0  0  0  0  0  0  0  0
    8.9210  -14.2715   21.3158 C   0  0  2  0  0  0  0  0  0  0  0  0
    8.5517  -15.6382   20.8764 N   0  0  0  0  0  0  0  0  0  0  0  0
    8.8086  -14.1754   22.7772 C   0  0  0  0  0  0  0  0  0  0  0  0
    8.4959  -13.0603   23.3451 O   0  0  0  0  0  0  0  0  0  0  0  0
    6.1380  -11.2832   26.9634 C   0  0  0  0  0  0  0  0  0  0  0  0
    6.6055  -13.0168   26.9045 S   0  0  0  0  0  0  0  0  0  0  0  0
    6.8232  -13.5908   25.1796 C   0  0  0  0  0  0  0  0  0  0  0  0
    7.1496  -15.0548   25.1472 C   0  0  0  0  0  0  0  0  0  0  0  0
    8.6302  -15.2583   25.0395 C   0  0  2  0  0  0  0  0  0  0  0  0
    9.0301  -15.2831   23.6241 N   0  0  0  0  0  0  0  0  0  0  0  0
    9.0123  -16.5497   25.6118 C   0  0  0  0  0  0  0  0  0  0  0  0
    8.9288  -16.7886   26.8359 O   0  0  0  0  0  0  0  0  0  0  0  0
    9.4905  -17.5866   24.8236 O   0  0  0  0  0  0  0  0  0  0  0  0
  1  2  1  0
  3  2  1  0
  4  3  1  0
  5  4  1  0
  5  6  1  6
  7  8  2  0
  7  5  1  0
 10  9  1  6
 10 12  1  0
 10 11  1  0
 12 13  1  6
 13  7  1  0
 14 15  2  0
 14 12  1  0
 16 17  1  0
 18 17  1  0
 19 18  1  0
 20 19  1  6
 20 21  1  0
 21 14  1  0
 22 20  1  0
 23 22  2  0
 24 22  1  0
M  END
$$$$
