MVM.pdb
     RDKit          3D

 24 23  0  0  1  0  0  0  0  0999 V2000
    7.1092  -12.2612   26.5584 C   0  0  0  0  0  0  0  0  0  0  0  0
    6.3819  -11.4537   25.1192 S   0  0  0  0  0  0  0  0  0  0  0  0
    6.8264  -12.3722   23.6392 C   0  0  0  0  0  0  0  0  0  0  0  0
    7.3573  -13.7348   24.0825 C   0  0  0  0  0  0  0  0  0  0  0  0
    7.6500  -14.4965   22.7927 C   0  0  2  0  0  0  0  0  0  0  0  0
    6.4383  -14.7766   22.0662 N   0  0  0  0  0  0  0  0  0  0  0  0
    8.3473  -15.7825   23.0603 C   0  0  0  0  0  0  0  0  0  0  0  0
    7.7295  -16.7540   23.6163 O   0  0  0  0  0  0  0  0  0  0  0  0
   12.1854  -16.6530   21.5153 C   0  0  0  0  0  0  0  0  0  0  0  0
   11.2292  -17.6643   22.0333 C   0  0  1  0  0  0  0  0  0  0  0  0
   12.0056  -18.9137   22.4755 C   0  0  0  0  0  0  0  0  0  0  0  0
   10.3977  -17.2404   23.2054 C   0  0  2  0  0  0  0  0  0  0  0  0
    9.6952  -16.0233   22.7339 N   0  0  0  0  0  0  0  0  0  0  0  0
   11.1438  -16.9353   24.4334 C   0  0  0  0  0  0  0  0  0  0  0  0
   11.6486  -15.7644   24.6276 O   0  0  0  0  0  0  0  0  0  0  0  0
   10.1340  -13.5275   28.3758 C   0  0  0  0  0  0  0  0  0  0  0  0
   10.0183  -14.9406   29.4791 S   0  0  0  0  0  0  0  0  0  0  0  0
   11.0097  -16.3511   28.8629 C   0  0  0  0  0  0  0  0  0  0  0  0
   10.6802  -16.6415   27.4282 C   0  0  0  0  0  0  0  0  0  0  0  0
   11.7447  -17.4957   26.8098 C   0  0  2  0  0  0  0  0  0  0  0  0
   11.3414  -17.8927   25.4521 N   0  0  0  0  0  0  0  0  0  0  0  0
   11.9223  -18.7285   27.5781 C   0  0  0  0  0  0  0  0  0  0  0  0
   12.6718  -18.7910   28.5764 O   0  0  0  0  0  0  0  0  0  0  0  0
   11.2646  -19.9025   27.2398 O   0  0  0  0  0  0  0  0  0  0  0  0
  1  2  1  0
  3  2  1  0
  4  3  1  0
  5  4  1  0
  5  6  1  1
  7  8  2  0
  7  5  1  0
 10  9  1  1
 10 12  1  0
 10 11  1  0
 12 13  1  6
 13  7  1  0
 14 15  2  0
 14 12  1  0
 16 17  1  0
 18 17  1  0
 19 18  1  0
 20 19  1  1
 20 21  1  0
 21 14  1  0
 22 20  1  0
 23 22  2  0
 24 22  1  0
M  END
$$$$
