MVM.pdb
     RDKit          3D

 24 23  0  0  1  0  0  0  0  0999 V2000
    6.2534  -11.7721   26.5734 C   0  0  0  0  0  0  0  0  0  0  0  0
    5.3450  -12.9766   27.5614 S   0  0  0  0  0  0  0  0  0  0  0  0
    5.1758  -14.5016   26.6247 C   0  0  0  0  0  0  0  0  0  0  0  0
    6.5162  -14.7781   25.9451 C   0  0  0  0  0  0  0  0  0  0  0  0
    6.2522  -15.9291   24.9783 C   0  0  2  0  0  0  0  0  0  0  0  0
    6.0194  -17.1617   25.6860 N   0  0  0  0  0  0  0  0  0  0  0  0
    7.3892  -16.1310   24.0411 C   0  0  0  0  0  0  0  0  0  0  0  0
    8.0299  -17.2373   24.0246 O   0  0  0  0  0  0  0  0  0  0  0  0
    7.1658  -14.5087   20.4632 C   0  0  0  0  0  0  0  0  0  0  0  0
    8.5551  -14.5006   20.9877 C   0  0  1  0  0  0  0  0  0  0  0  0
    8.8803  -13.1027   21.5350 C   0  0  0  0  0  0  0  0  0  0  0  0
    8.8444  -15.4704   22.0926 C   0  0  2  0  0  0  0  0  0  0  0  0
    7.8338  -15.1546   23.1299 N   0  0  0  0  0  0  0  0  0  0  0  0
   10.1910  -15.3852   22.6729 C   0  0  0  0  0  0  0  0  0  0  0  0
   10.8251  -14.2627   22.7123 O   0  0  0  0  0  0  0  0  0  0  0  0
   10.4435  -13.0821   27.2235 C   0  0  0  0  0  0  0  0  0  0  0  0
   12.0884  -13.8046   27.2224 S   0  0  0  0  0  0  0  0  0  0  0  0
   12.0541  -15.5406   26.6418 C   0  0  0  0  0  0  0  0  0  0  0  0
   11.1070  -15.6932   25.4883 C   0  0  0  0  0  0  0  0  0  0  0  0
   11.7842  -16.3826   24.3431 C   0  0  2  0  0  0  0  0  0  0  0  0
   10.8508  -16.5104   23.2135 N   0  0  0  0  0  0  0  0  0  0  0  0
   12.1791  -17.7393   24.7238 C   0  0  0  0  0  0  0  0  0  0  0  0
   11.5233  -18.7467   24.3811 O   0  0  0  0  0  0  0  0  0  0  0  0
   13.3097  -17.9844   25.4898 O   0  0  0  0  0  0  0  0  0  0  0  0
  1  2  1  0
  3  2  1  0
  4  3  1  0
  5  4  1  0
  5  6  1  1
  7  8  2  0
  7  5  1  0
 10  9  1  1
 10 12  1  0
 10 11  1  0
 12 13  1  1
 13  7  1  0
 14 15  2  0
 14 12  1  0
 16 17  1  0
 18 17  1  0
 19 18  1  0
 20 19  1  1
 20 21  1  0
 21 14  1  0
 22 20  1  0
 23 22  2  0
 24 22  1  0
M  END
$$$$
