MVM.pdb
     RDKit          3D

 24 23  0  0  1  0  0  0  0  0999 V2000
    6.9700  -11.5291   26.4502 C   0  0  0  0  0  0  0  0  0  0  0  0
    5.5422  -12.5200   25.9688 S   0  0  0  0  0  0  0  0  0  0  0  0
    5.6381  -14.1244   26.7740 C   0  0  0  0  0  0  0  0  0  0  0  0
    6.8462  -14.8604   26.1962 C   0  0  0  0  0  0  0  0  0  0  0  0
    6.2982  -15.7025   25.0474 C   0  0  2  0  0  0  0  0  0  0  0  0
    5.7516  -16.9458   25.5268 N   0  0  0  0  0  0  0  0  0  0  0  0
    7.3486  -16.0067   24.0395 C   0  0  0  0  0  0  0  0  0  0  0  0
    8.1714  -16.9672   24.2271 O   0  0  0  0  0  0  0  0  0  0  0  0
    7.0297  -14.2596   20.5036 C   0  0  0  0  0  0  0  0  0  0  0  0
    8.4447  -14.6078   20.7896 C   0  0  1  0  0  0  0  0  0  0  0  0
    9.2300  -13.3228   21.0921 C   0  0  0  0  0  0  0  0  0  0  0  0
    8.6716  -15.5304   21.9482 C   0  0  2  0  0  0  0  0  0  0  0  0
    7.5139  -15.2868   22.8413 N   0  0  0  0  0  0  0  0  0  0  0  0
    9.9211  -15.3185   22.6907 C   0  0  0  0  0  0  0  0  0  0  0  0
   10.5003  -14.1661   22.6967 O   0  0  0  0  0  0  0  0  0  0  0  0
    9.8129  -13.7855   27.5814 C   0  0  0  0  0  0  0  0  0  0  0  0
   11.4002  -14.4719   28.0681 S   0  0  0  0  0  0  0  0  0  0  0  0
   12.0560  -15.6075   26.7904 C   0  0  0  0  0  0  0  0  0  0  0  0
   10.9958  -15.9352   25.7806 C   0  0  0  0  0  0  0  0  0  0  0  0
   11.5963  -16.0592   24.4134 C   0  0  2  0  0  0  0  0  0  0  0  0
   10.5427  -16.3492   23.4288 N   0  0  0  0  0  0  0  0  0  0  0  0
   12.5397  -17.1770   24.3682 C   0  0  0  0  0  0  0  0  0  0  0  0
   12.3042  -18.2242   23.7275 O   0  0  0  0  0  0  0  0  0  0  0  0
   13.7547  -17.1364   25.0371 O   0  0  0  0  0  0  0  0  0  0  0  0
  1  2  1  0
  3  2  1  0
  4  3  1  0
  5  4  1  0
  5  6  1  1
  7  8  2  0
  7  5  1  0
 10  9  1  1
 10 12  1  0
 10 11  1  0
 12 13  1  1
 13  7  1  0
 14 15  2  0
 14 12  1  0
 16 17  1  0
 18 17  1  0
 19 18  1  0
 20 19  1  1
 20 21  1  0
 21 14  1  0
 22 20  1  0
 23 22  2  0
 24 22  1  0
M  END
$$$$
