MVM.pdb
     RDKit          3D

 24 23  0  0  1  0  0  0  0  0999 V2000
    5.3081  -11.6780   26.0760 C   0  0  0  0  0  0  0  0  0  0  0  0
    6.1317  -12.6832   27.3263 S   0  0  0  0  0  0  0  0  0  0  0  0
    6.3823  -14.3418   26.6798 C   0  0  0  0  0  0  0  0  0  0  0  0
    5.5535  -14.4704   25.4025 C   0  0  0  0  0  0  0  0  0  0  0  0
    5.7766  -15.8993   24.9149 C   0  0  2  0  0  0  0  0  0  0  0  0
    5.5972  -16.8487   25.9830 N   0  0  0  0  0  0  0  0  0  0  0  0
    7.1395  -16.0797   24.3476 C   0  0  0  0  0  0  0  0  0  0  0  0
    8.0167  -16.7712   24.9697 O   0  0  0  0  0  0  0  0  0  0  0  0
    9.9274  -15.5808   20.2459 C   0  0  0  0  0  0  0  0  0  0  0  0
    8.8627  -15.1743   21.1979 C   0  0  1  0  0  0  0  0  0  0  0  0
    7.4893  -15.4399   20.5633 C   0  0  0  0  0  0  0  0  0  0  0  0
    8.8647  -15.8751   22.5222 C   0  0  2  0  0  0  0  0  0  0  0  0
    7.5566  -15.5232   23.1239 N   0  0  0  0  0  0  0  0  0  0  0  0
    9.9480  -15.4942   23.4381 C   0  0  0  0  0  0  0  0  0  0  0  0
   10.1163  -14.2645   23.7891 O   0  0  0  0  0  0  0  0  0  0  0  0
   11.8723  -13.7278   28.9095 C   0  0  0  0  0  0  0  0  0  0  0  0
   10.8102  -15.0925   28.4227 S   0  0  0  0  0  0  0  0  0  0  0  0
   10.7701  -15.2903   26.6030 C   0  0  0  0  0  0  0  0  0  0  0  0
   11.9169  -16.1387   26.1384 C   0  0  0  0  0  0  0  0  0  0  0  0
   12.0843  -16.0243   24.6537 C   0  0  2  0  0  0  0  0  0  0  0  0
   10.8463  -16.4407   23.9772 N   0  0  0  0  0  0  0  0  0  0  0  0
   13.1448  -16.9186   24.1879 C   0  0  0  0  0  0  0  0  0  0  0  0
   12.9011  -17.9890   23.5902 O   0  0  0  0  0  0  0  0  0  0  0  0
   14.4869  -16.6264   24.3841 O   0  0  0  0  0  0  0  0  0  0  0  0
  1  2  1  0
  3  2  1  0
  4  3  1  0
  5  4  1  0
  5  6  1  1
  7  8  2  0
  7  5  1  0
 10  9  1  6
 10 12  1  0
 10 11  1  0
 12 13  1  1
 13  7  1  0
 14 15  2  0
 14 12  1  0
 16 17  1  0
 18 17  1  0
 19 18  1  0
 20 19  1  1
 20 21  1  0
 21 14  1  0
 22 20  1  0
 23 22  2  0
 24 22  1  0
M  END
$$$$
