MVM.pdb
     RDKit          3D

 24 23  0  0  1  0  0  0  0  0999 V2000
   12.6349  -20.0333   20.1144 C   0  0  0  0  0  0  0  0  0  0  0  0
   11.6294  -21.4476   19.6238 S   0  0  0  0  0  0  0  0  0  0  0  0
    9.9280  -20.9128   19.3983 C   0  0  0  0  0  0  0  0  0  0  0  0
    9.9326  -19.3885   19.2915 C   0  0  0  0  0  0  0  0  0  0  0  0
    8.9449  -18.9036   20.3492 C   0  0  2  0  0  0  0  0  0  0  0  0
    7.5941  -18.9250   19.8499 N   0  0  0  0  0  0  0  0  0  0  0  0
    9.2586  -17.5222   20.8016 C   0  0  0  0  0  0  0  0  0  0  0  0
   10.4599  -17.1870   21.0834 O   0  0  0  0  0  0  0  0  0  0  0  0
    6.2833  -14.4286   20.9634 C   0  0  0  0  0  0  0  0  0  0  0  0
    7.7327  -14.2376   20.7028 C   0  0  1  0  0  0  0  0  0  0  0  0
    8.1329  -12.8080   21.0970 C   0  0  0  0  0  0  0  0  0  0  0  0
    8.6579  -15.1588   21.4377 C   0  0  2  0  0  0  0  0  0  0  0  0
    8.2919  -16.5099   20.9500 N   0  0  0  0  0  0  0  0  0  0  0  0
    8.5586  -15.1191   22.9027 C   0  0  0  0  0  0  0  0  0  0  0  0
    7.5599  -15.6606   23.5134 O   0  0  0  0  0  0  0  0  0  0  0  0
    6.2180  -11.1136   25.6546 C   0  0  0  0  0  0  0  0  0  0  0  0
    6.5118  -12.0939   27.1312 S   0  0  0  0  0  0  0  0  0  0  0  0
    7.7870  -13.3746   26.8388 C   0  0  0  0  0  0  0  0  0  0  0  0
    8.0557  -13.5271   25.3706 C   0  0  0  0  0  0  0  0  0  0  0  0
    9.3273  -14.2880   25.1479 C   0  0  2  0  0  0  0  0  0  0  0  0
    9.5386  -14.4983   23.7075 N   0  0  0  0  0  0  0  0  0  0  0  0
    9.2453  -15.6131   25.7635 C   0  0  0  0  0  0  0  0  0  0  0  0
    9.0707  -15.7694   26.9913 O   0  0  0  0  0  0  0  0  0  0  0  0
    9.3568  -16.7758   25.0147 O   0  0  0  0  0  0  0  0  0  0  0  0
  1  2  1  0
  3  2  1  0
  4  3  1  0
  5  4  1  0
  5  6  1  6
  7  8  2  0
  7  5  1  0
 10  9  1  1
 10 12  1  0
 10 11  1  0
 12 13  1  6
 13  7  1  0
 14 15  2  0
 14 12  1  0
 16 17  1  0
 18 17  1  0
 19 18  1  0
 20 19  1  6
 20 21  1  0
 21 14  1  0
 22 20  1  0
 23 22  2  0
 24 22  1  0
M  END
$$$$
