HKH.pdb
     RDKit          3D

 30 31  0  0  1  0  0  0  0  0999 V2000
   24.2802  -12.3823  -17.8396 N   0  0  0  0  0  0  0  0  0  0  0  0
   24.3116  -11.3720  -16.8382 C   0  0  1  0  0  0  0  0  0  0  0  0
   25.6817  -10.7923  -16.6125 C   0  0  0  0  0  0  0  0  0  0  0  0
   26.6610  -11.8272  -16.2928 C   0  0  0  0  0  0  0  0  0  0  0  0
   26.3138  -13.1818  -16.2104 C   0  0  0  0  0  0  0  0  0  0  0  0
   27.4421  -13.8266  -15.9043 N   0  0  0  0  0  0  0  0  0  0  0  0
   28.4500  -12.9435  -15.7968 C   0  0  0  0  0  0  0  0  0  0  0  0
   27.9717  -11.7119  -16.0355 N   0  0  0  0  0  0  0  0  0  0  0  0
   23.3025  -10.3198  -16.9266 C   0  0  0  0  0  0  0  0  0  0  0  0
   23.1390   -9.7806  -18.0544 O   0  0  0  0  0  0  0  0  0  0  0  0
   22.5611   -9.9416  -15.7812 N   0  0  0  0  0  0  0  0  0  0  0  0
   21.5509   -8.9561  -15.8094 C   0  0  1  0  0  0  0  0  0  0  0  0
   20.2328   -9.2935  -15.2251 C   0  0  0  0  0  0  0  0  0  0  0  0
   19.4187  -10.3303  -15.9077 C   0  0  0  0  0  0  0  0  0  0  0  0
   19.0283  -11.5198  -15.1083 C   0  0  0  0  0  0  0  0  0  0  0  0
   18.1635  -12.3942  -16.0367 C   0  0  0  0  0  0  0  0  0  0  0  0
   17.9079  -13.6622  -15.4068 N   0  0  0  0  0  0  0  0  0  0  0  0
   22.0964   -7.6785  -15.2064 C   0  0  0  0  0  0  0  0  0  0  0  0
   22.8760   -7.7062  -14.2341 O   0  0  0  0  0  0  0  0  0  0  0  0
   21.7475   -6.4011  -15.7176 N   0  0  0  0  0  0  0  0  0  0  0  0
   22.2693   -5.1855  -15.0913 C   0  0  1  0  0  0  0  0  0  0  0  0
   22.7743   -4.2159  -16.1081 C   0  0  0  0  0  0  0  0  0  0  0  0
   23.9029   -4.8147  -16.8501 C   0  0  0  0  0  0  0  0  0  0  0  0
   24.9864   -5.5027  -16.3398 C   0  0  0  0  0  0  0  0  0  0  0  0
   25.7681   -5.8684  -17.3827 N   0  0  0  0  0  0  0  0  0  0  0  0
   25.2093   -5.4331  -18.5150 C   0  0  0  0  0  0  0  0  0  0  0  0
   24.0829   -4.7982  -18.1776 N   0  0  0  0  0  0  0  0  0  0  0  0
   21.2675   -4.6589  -14.1652 C   0  0  0  0  0  0  0  0  0  0  0  0
   21.4744   -3.5946  -13.2925 O   0  0  0  0  0  0  0  0  0  0  0  0
   20.1210   -5.1930  -14.1354 O   0  0  0  0  0  0  0  0  0  0  0  0
  2  1  1  6
  2  3  1  0
  3  4  1  0
  4  5  2  0
  5  6  1  0
  7  6  1  0
  8  4  1  0
  8  7  2  0
  9 10  2  0
  9  2  1  0
 11  9  1  0
 12 11  1  0
 12 13  1  1
 14 13  1  0
 15 14  1  0
 16 15  1  0
 17 16  1  0
 18 12  1  0
 19 18  2  0
 20 18  1  0
 21 28  1  0
 21 20  1  0
 21 22  1  6
 23 22  1  0
 24 23  2  0
 25 24  1  0
 26 25  1  0
 26 27  2  0
 27 23  1  0
 28 29  1  0
 30 28  2  0
M  END
$$$$
