HKH.pdb
     RDKit          3D

 30 31  0  0  1  0  0  0  0  0999 V2000
   24.7691  -12.7839  -18.0385 N   0  0  0  0  0  0  0  0  0  0  0  0
   24.4769  -12.0081  -16.8822 C   0  0  1  0  0  0  0  0  0  0  0  0
   25.6584  -11.2340  -16.3637 C   0  0  0  0  0  0  0  0  0  0  0  0
   26.8471  -12.0741  -16.2483 C   0  0  0  0  0  0  0  0  0  0  0  0
   26.8634  -13.2395  -15.4712 C   0  0  0  0  0  0  0  0  0  0  0  0
   28.0937  -13.7422  -15.5983 N   0  0  0  0  0  0  0  0  0  0  0  0
   28.8218  -12.9508  -16.4052 C   0  0  0  0  0  0  0  0  0  0  0  0
   28.0566  -11.9233  -16.8067 N   0  0  0  0  0  0  0  0  0  0  0  0
   23.2797  -11.1727  -16.9298 C   0  0  0  0  0  0  0  0  0  0  0  0
   23.1380  -10.4377  -17.9442 O   0  0  0  0  0  0  0  0  0  0  0  0
   22.3421  -11.2052  -15.8695 N   0  0  0  0  0  0  0  0  0  0  0  0
   21.0919  -10.5524  -15.9277 C   0  0  1  0  0  0  0  0  0  0  0  0
   19.9031  -11.2793  -15.4269 C   0  0  0  0  0  0  0  0  0  0  0  0
   18.5796  -10.6222  -15.5697 C   0  0  0  0  0  0  0  0  0  0  0  0
   17.3834  -11.4206  -15.1979 C   0  0  0  0  0  0  0  0  0  0  0  0
   16.1673  -10.5044  -15.4344 C   0  0  0  0  0  0  0  0  0  0  0  0
   14.9558  -11.2744  -15.3372 N   0  0  0  0  0  0  0  0  0  0  0  0
   21.2154   -9.1980  -15.2616 C   0  0  0  0  0  0  0  0  0  0  0  0
   22.0146   -9.0117  -14.3232 O   0  0  0  0  0  0  0  0  0  0  0  0
   20.4329   -8.0875  -15.6727 N   0  0  0  0  0  0  0  0  0  0  0  0
   20.7120   -6.7502  -15.1475 C   0  0  1  0  0  0  0  0  0  0  0  0
   22.0418   -6.2468  -15.6028 C   0  0  0  0  0  0  0  0  0  0  0  0
   22.2142   -4.8418  -15.1796 C   0  0  0  0  0  0  0  0  0  0  0  0
   21.9118   -4.2795  -13.9549 C   0  0  0  0  0  0  0  0  0  0  0  0
   22.2337   -2.9660  -14.0159 N   0  0  0  0  0  0  0  0  0  0  0  0
   22.7224   -2.6969  -15.2294 C   0  0  0  0  0  0  0  0  0  0  0  0
   22.7047   -3.8398  -15.9216 N   0  0  0  0  0  0  0  0  0  0  0  0
   19.5764   -5.8766  -15.4402 C   0  0  0  0  0  0  0  0  0  0  0  0
   19.1532   -4.8261  -14.6312 O   0  0  0  0  0  0  0  0  0  0  0  0
   18.9133   -6.0695  -16.5003 O   0  0  0  0  0  0  0  0  0  0  0  0
  2  1  1  6
  2  3  1  0
  3  4  1  0
  4  5  2  0
  5  6  1  0
  7  6  1  0
  8  4  1  0
  8  7  2  0
  9 10  2  0
  9  2  1  0
 11  9  1  0
 12 11  1  0
 12 13  1  1
 14 13  1  0
 15 14  1  0
 16 15  1  0
 17 16  1  0
 18 12  1  0
 19 18  2  0
 20 18  1  0
 21 28  1  0
 21 20  1  0
 21 22  1  6
 23 22  1  0
 24 23  2  0
 25 24  1  0
 26 25  1  0
 26 27  2  0
 27 23  1  0
 28 29  1  0
 30 28  2  0
M  END
$$$$
