HKH.pdb
     RDKit          3D

 30 31  0  0  1  0  0  0  0  0999 V2000
   16.4849  -20.1025    2.2201 N   0  0  0  0  0  0  0  0  0  0  0  0
   17.1135  -20.2739    3.4849 C   0  0  1  0  0  0  0  0  0  0  0  0
   17.7737  -21.6158    3.6507 C   0  0  0  0  0  0  0  0  0  0  0  0
   16.8544  -22.7112    3.3554 C   0  0  0  0  0  0  0  0  0  0  0  0
   16.0257  -23.2733    4.3349 C   0  0  0  0  0  0  0  0  0  0  0  0
   15.3338  -24.2331    3.7165 N   0  0  0  0  0  0  0  0  0  0  0  0
   15.6943  -24.2849    2.4224 C   0  0  0  0  0  0  0  0  0  0  0  0
   16.6304  -23.3490    2.1976 N   0  0  0  0  0  0  0  0  0  0  0  0
   17.9877  -19.1968    3.9418 C   0  0  0  0  0  0  0  0  0  0  0  0
   18.9026  -18.8328    3.1545 O   0  0  0  0  0  0  0  0  0  0  0  0
   17.7947  -18.6108    5.2162 N   0  0  0  0  0  0  0  0  0  0  0  0
   18.4340  -17.4187    5.6197 C   0  0  1  0  0  0  0  0  0  0  0  0
   17.5906  -16.2286    5.8748 C   0  0  0  0  0  0  0  0  0  0  0  0
   17.7559  -15.0583    4.9766 C   0  0  0  0  0  0  0  0  0  0  0  0
   16.9313  -13.8581    5.2693 C   0  0  0  0  0  0  0  0  0  0  0  0
   17.3108  -12.8087    4.2067 C   0  0  0  0  0  0  0  0  0  0  0  0
   16.5584  -11.6025    4.4281 N   0  0  0  0  0  0  0  0  0  0  0  0
   19.3193  -17.7171    6.8114 C   0  0  0  0  0  0  0  0  0  0  0  0
   19.0201  -18.6088    7.6295 O   0  0  0  0  0  0  0  0  0  0  0  0
   20.5214  -17.0006    7.0490 N   0  0  0  0  0  0  0  0  0  0  0  0
   21.3426  -17.3011    8.2226 C   0  0  1  0  0  0  0  0  0  0  0  0
   22.6714  -16.6240    8.1523 C   0  0  0  0  0  0  0  0  0  0  0  0
   23.4687  -16.9657    9.3482 C   0  0  0  0  0  0  0  0  0  0  0  0
   23.1374  -17.8314   10.3722 C   0  0  0  0  0  0  0  0  0  0  0  0
   24.1642  -17.8355   11.2542 N   0  0  0  0  0  0  0  0  0  0  0  0
   25.1148  -17.0069   10.8144 C   0  0  0  0  0  0  0  0  0  0  0  0
   24.6808  -16.4885    9.6618 N   0  0  0  0  0  0  0  0  0  0  0  0
   20.5640  -17.0314    9.4308 C   0  0  0  0  0  0  0  0  0  0  0  0
   20.4531  -17.8982   10.5141 O   0  0  0  0  0  0  0  0  0  0  0  0
   19.9355  -15.9373    9.5221 O   0  0  0  0  0  0  0  0  0  0  0  0
  2  1  1  6
  2  3  1  0
  3  4  1  0
  4  5  2  0
  5  6  1  0
  7  6  1  0
  8  4  1  0
  8  7  2  0
  9 10  2  0
  9  2  1  0
 11  9  1  0
 12 11  1  0
 12 13  1  1
 14 13  1  0
 15 14  1  0
 16 15  1  0
 17 16  1  0
 18 12  1  0
 19 18  2  0
 20 18  1  0
 21 28  1  0
 21 20  1  0
 21 22  1  1
 23 22  1  0
 24 23  2  0
 25 24  1  0
 26 25  1  0
 26 27  2  0
 27 23  1  0
 28 29  1  0
 30 28  2  0
M  END
$$$$
