HKH.pdb
     RDKit          3D

 30 31  0  0  1  0  0  0  0  0999 V2000
   19.6957  -15.4570  -16.1716 N   0  0  0  0  0  0  0  0  0  0  0  0
   19.5502  -14.2044  -16.8305 C   0  0  1  0  0  0  0  0  0  0  0  0
   18.1962  -13.5775  -16.6368 C   0  0  0  0  0  0  0  0  0  0  0  0
   17.1386  -14.3723  -17.2548 C   0  0  0  0  0  0  0  0  0  0  0  0
   17.0098  -15.7482  -17.0256 C   0  0  0  0  0  0  0  0  0  0  0  0
   15.9515  -16.1369  -17.7407 N   0  0  0  0  0  0  0  0  0  0  0  0
   15.4330  -15.0789  -18.3882 C   0  0  0  0  0  0  0  0  0  0  0  0
   16.1620  -13.9914  -18.0906 N   0  0  0  0  0  0  0  0  0  0  0  0
   20.6166  -13.2255  -16.6359 C   0  0  0  0  0  0  0  0  0  0  0  0
   20.8806  -12.8994  -15.4471 O   0  0  0  0  0  0  0  0  0  0  0  0
   21.3013  -12.6826  -17.7499 N   0  0  0  0  0  0  0  0  0  0  0  0
   22.4156  -11.8251  -17.6251 C   0  0  1  0  0  0  0  0  0  0  0  0
   23.4949  -11.9351  -18.6328 C   0  0  0  0  0  0  0  0  0  0  0  0
   24.6205  -10.9708  -18.5487 C   0  0  0  0  0  0  0  0  0  0  0  0
   25.6723  -11.0648  -19.5934 C   0  0  0  0  0  0  0  0  0  0  0  0
   26.6789   -9.9385  -19.2895 C   0  0  0  0  0  0  0  0  0  0  0  0
   27.7886  -10.0229  -20.2014 N   0  0  0  0  0  0  0  0  0  0  0  0
   21.9243  -10.3969  -17.5155 C   0  0  0  0  0  0  0  0  0  0  0  0
   21.1979   -9.8957  -18.3959 O   0  0  0  0  0  0  0  0  0  0  0  0
   22.2657   -9.5703  -16.4132 N   0  0  0  0  0  0  0  0  0  0  0  0
   21.8142   -8.1790  -16.3634 C   0  0  1  0  0  0  0  0  0  0  0  0
   21.2879   -7.8193  -15.0133 C   0  0  0  0  0  0  0  0  0  0  0  0
   20.9591   -6.3795  -14.9741 C   0  0  0  0  0  0  0  0  0  0  0  0
   19.9080   -5.7302  -15.5915 C   0  0  0  0  0  0  0  0  0  0  0  0
   19.9986   -4.4157  -15.2808 N   0  0  0  0  0  0  0  0  0  0  0  0
   21.0635   -4.2295  -14.4966 C   0  0  0  0  0  0  0  0  0  0  0  0
   21.6342   -5.4248  -14.3198 N   0  0  0  0  0  0  0  0  0  0  0  0
   22.8778   -7.3144  -16.8731 C   0  0  0  0  0  0  0  0  0  0  0  0
   22.6750   -6.0728  -17.4687 O   0  0  0  0  0  0  0  0  0  0  0  0
   24.0787   -7.7008  -16.7783 O   0  0  0  0  0  0  0  0  0  0  0  0
  2  1  1  1
  2  3  1  0
  3  4  1  0
  4  5  2  0
  5  6  1  0
  7  6  1  0
  8  4  1  0
  8  7  2  0
  9 10  2  0
  9  2  1  0
 11  9  1  0
 12 11  1  0
 12 13  1  6
 14 13  1  0
 15 14  1  0
 16 15  1  0
 17 16  1  0
 18 12  1  0
 19 18  2  0
 20 18  1  0
 21 28  1  0
 21 20  1  0
 21 22  1  1
 23 22  1  0
 24 23  2  0
 25 24  1  0
 26 25  1  0
 26 27  2  0
 27 23  1  0
 28 29  1  0
 30 28  2  0
M  END
$$$$
