HKH.pdb
     RDKit          3D

 30 31  0  0  1  0  0  0  0  0999 V2000
   25.3634  -19.0947  -19.7361 N   0  0  0  0  0  0  0  0  0  0  0  0
   24.7985  -18.3748  -18.6466 C   0  0  1  0  0  0  0  0  0  0  0  0
   23.8243  -17.3096  -19.0712 C   0  0  0  0  0  0  0  0  0  0  0  0
   24.4678  -16.2804  -19.8828 C   0  0  0  0  0  0  0  0  0  0  0  0
   24.6253  -14.9643  -19.4298 C   0  0  0  0  0  0  0  0  0  0  0  0
   25.2440  -14.3130  -20.4174 N   0  0  0  0  0  0  0  0  0  0  0  0
   25.4700  -15.1562  -21.4399 C   0  0  0  0  0  0  0  0  0  0  0  0
   24.9931  -16.3680  -21.1132 N   0  0  0  0  0  0  0  0  0  0  0  0
   24.2678  -19.1617  -17.5365 C   0  0  0  0  0  0  0  0  0  0  0  0
   23.2402  -19.8540  -17.7690 O   0  0  0  0  0  0  0  0  0  0  0  0
   24.8971  -19.1253  -16.2688 N   0  0  0  0  0  0  0  0  0  0  0  0
   24.4619  -19.8990  -15.1712 C   0  0  1  0  0  0  0  0  0  0  0  0
   25.4456  -20.2201  -14.1122 C   0  0  0  0  0  0  0  0  0  0  0  0
   25.0115  -21.1205  -13.0148 C   0  0  0  0  0  0  0  0  0  0  0  0
   26.0050  -21.4214  -11.9523 C   0  0  0  0  0  0  0  0  0  0  0  0
   25.3046  -22.3808  -10.9709 C   0  0  0  0  0  0  0  0  0  0  0  0
   26.2056  -22.7219   -9.9023 N   0  0  0  0  0  0  0  0  0  0  0  0
   23.2241  -19.2573  -14.5801 C   0  0  0  0  0  0  0  0  0  0  0  0
   23.2756  -18.1359  -14.0382 O   0  0  0  0  0  0  0  0  0  0  0  0
   21.9584  -19.8988  -14.6165 N   0  0  0  0  0  0  0  0  0  0  0  0
   20.8007  -19.2897  -13.9601 C   0  0  1  0  0  0  0  0  0  0  0  0
   20.0846  -18.3476  -14.8705 C   0  0  0  0  0  0  0  0  0  0  0  0
   18.9468  -17.7326  -14.1563 C   0  0  0  0  0  0  0  0  0  0  0  0
   18.9400  -16.5722  -13.4074 C   0  0  0  0  0  0  0  0  0  0  0  0
   17.6822  -16.3929  -12.9401 N   0  0  0  0  0  0  0  0  0  0  0  0
   16.9140  -17.3967  -13.3714 C   0  0  0  0  0  0  0  0  0  0  0  0
   17.6917  -18.1985  -14.1050 N   0  0  0  0  0  0  0  0  0  0  0  0
   19.9754  -20.3450  -13.3738 C   0  0  0  0  0  0  0  0  0  0  0  0
   19.1985  -20.2014  -12.2279 O   0  0  0  0  0  0  0  0  0  0  0  0
   19.9491  -21.4811  -13.9297 O   0  0  0  0  0  0  0  0  0  0  0  0
  2  1  1  6
  2  3  1  0
  3  4  1  0
  4  5  2  0
  5  6  1  0
  7  6  1  0
  8  4  1  0
  8  7  2  0
  9 10  2  0
  9  2  1  0
 11  9  1  0
 12 11  1  0
 12 13  1  1
 14 13  1  0
 15 14  1  0
 16 15  1  0
 17 16  1  0
 18 12  1  0
 19 18  2  0
 20 18  1  0
 21 28  1  0
 21 20  1  0
 21 22  1  6
 23 22  1  0
 24 23  2  0
 25 24  1  0
 26 25  1  0
 26 27  2  0
 27 23  1  0
 28 29  1  0
 30 28  2  0
M  END
$$$$
