HKH.pdb
     RDKit          3D

 30 31  0  0  1  0  0  0  0  0999 V2000
   24.5526  -15.9376  -20.0278 N   0  0  0  0  0  0  0  0  0  0  0  0
   24.3350  -15.8251  -18.6262 C   0  0  1  0  0  0  0  0  0  0  0  0
   23.4608  -14.6612  -18.2455 C   0  0  0  0  0  0  0  0  0  0  0  0
   23.9774  -13.4013  -18.7728 C   0  0  0  0  0  0  0  0  0  0  0  0
   23.2755  -12.6469  -19.7217 C   0  0  0  0  0  0  0  0  0  0  0  0
   24.0356  -11.5773  -19.9681 N   0  0  0  0  0  0  0  0  0  0  0  0
   25.1544  -11.6399  -19.2252 C   0  0  0  0  0  0  0  0  0  0  0  0
   25.1210  -12.7618  -18.4886 N   0  0  0  0  0  0  0  0  0  0  0  0
   23.9347  -17.0383  -17.9182 C   0  0  0  0  0  0  0  0  0  0  0  0
   22.8728  -17.5983  -18.3031 O   0  0  0  0  0  0  0  0  0  0  0  0
   24.7205  -17.5359  -16.8508 N   0  0  0  0  0  0  0  0  0  0  0  0
   24.4324  -18.7451  -16.1818 C   0  0  1  0  0  0  0  0  0  0  0  0
   25.5679  -19.5408  -15.6623 C   0  0  0  0  0  0  0  0  0  0  0  0
   26.2869  -20.4238  -16.6146 C   0  0  0  0  0  0  0  0  0  0  0  0
   27.4528  -21.1796  -16.0894 C   0  0  0  0  0  0  0  0  0  0  0  0
   28.0511  -21.9336  -17.2927 C   0  0  0  0  0  0  0  0  0  0  0  0
   29.2237  -22.6558  -16.8762 N   0  0  0  0  0  0  0  0  0  0  0  0
   23.4217  -18.4706  -15.0881 C   0  0  0  0  0  0  0  0  0  0  0  0
   23.5648  -17.5122  -14.3038 O   0  0  0  0  0  0  0  0  0  0  0  0
   22.2738  -19.2859  -14.9079 N   0  0  0  0  0  0  0  0  0  0  0  0
   21.0904  -18.7580  -14.2273 C   0  0  1  0  0  0  0  0  0  0  0  0
   20.6660  -17.4460  -14.7997 C   0  0  0  0  0  0  0  0  0  0  0  0
   19.4303  -16.9875  -14.1322 C   0  0  0  0  0  0  0  0  0  0  0  0
   18.7857  -17.5577  -13.0519 C   0  0  0  0  0  0  0  0  0  0  0  0
   17.6954  -16.8030  -12.7797 N   0  0  0  0  0  0  0  0  0  0  0  0
   17.6427  -15.7907  -13.6493 C   0  0  0  0  0  0  0  0  0  0  0  0
   18.6973  -15.9151  -14.4605 N   0  0  0  0  0  0  0  0  0  0  0  0
   20.0575  -19.7927  -14.1961 C   0  0  0  0  0  0  0  0  0  0  0  0
   19.2340  -20.0603  -13.1064 O   0  0  0  0  0  0  0  0  0  0  0  0
   19.8800  -20.5113  -15.2221 O   0  0  0  0  0  0  0  0  0  0  0  0
  2  1  1  6
  2  3  1  0
  3  4  1  0
  4  5  2  0
  5  6  1  0
  7  6  1  0
  8  4  1  0
  8  7  2  0
  9 10  2  0
  9  2  1  0
 11  9  1  0
 12 11  1  0
 12 13  1  1
 14 13  1  0
 15 14  1  0
 16 15  1  0
 17 16  1  0
 18 12  1  0
 19 18  2  0
 20 18  1  0
 21 28  1  0
 21 20  1  0
 21 22  1  6
 23 22  1  0
 24 23  2  0
 25 24  1  0
 26 25  1  0
 26 27  2  0
 27 23  1  0
 28 29  1  0
 30 28  2  0
M  END
$$$$
