HKH.pdb
     RDKit          3D

 30 31  0  0  1  0  0  0  0  0999 V2000
   13.3137  -22.1307    0.1553 N   0  0  0  0  0  0  0  0  0  0  0  0
   14.4683  -21.9228    0.9603 C   0  0  1  0  0  0  0  0  0  0  0  0
   15.7431  -21.8220    0.1674 C   0  0  0  0  0  0  0  0  0  0  0  0
   15.8884  -22.9345   -0.7672 C   0  0  0  0  0  0  0  0  0  0  0  0
   16.1081  -24.2482   -0.3336 C   0  0  0  0  0  0  0  0  0  0  0  0
   16.1892  -24.9867   -1.4428 N   0  0  0  0  0  0  0  0  0  0  0  0
   16.0318  -24.1985   -2.5206 C   0  0  0  0  0  0  0  0  0  0  0  0
   15.8465  -22.9347   -2.1072 N   0  0  0  0  0  0  0  0  0  0  0  0
   14.3914  -20.8704    1.9701 C   0  0  0  0  0  0  0  0  0  0  0  0
   13.6897  -19.8614    1.6890 O   0  0  0  0  0  0  0  0  0  0  0  0
   15.0865  -21.0034    3.1963 N   0  0  0  0  0  0  0  0  0  0  0  0
   14.9522  -20.0856    4.2604 C   0  0  1  0  0  0  0  0  0  0  0  0
   14.9752  -20.6148    5.6431 C   0  0  0  0  0  0  0  0  0  0  0  0
   14.6741  -19.6721    6.7495 C   0  0  0  0  0  0  0  0  0  0  0  0
   14.6337  -20.2324    8.1246 C   0  0  0  0  0  0  0  0  0  0  0  0
   14.2080  -19.0734    9.0465 C   0  0  0  0  0  0  0  0  0  0  0  0
   14.1202  -19.5425   10.4038 N   0  0  0  0  0  0  0  0  0  0  0  0
   15.9762  -18.9833    4.0882 C   0  0  0  0  0  0  0  0  0  0  0  0
   17.1437  -19.2378    3.7331 O   0  0  0  0  0  0  0  0  0  0  0  0
   15.6553  -17.6204    4.3213 N   0  0  0  0  0  0  0  0  0  0  0  0
   16.6813  -16.5851    4.1886 C   0  0  1  0  0  0  0  0  0  0  0  0
   16.1058  -15.3008    3.6905 C   0  0  0  0  0  0  0  0  0  0  0  0
   17.1949  -14.3437    3.4063 C   0  0  0  0  0  0  0  0  0  0  0  0
   18.0958  -14.3672    2.3597 C   0  0  0  0  0  0  0  0  0  0  0  0
   18.9127  -13.2966    2.4978 N   0  0  0  0  0  0  0  0  0  0  0  0
   18.5509  -12.6147    3.5876 C   0  0  0  0  0  0  0  0  0  0  0  0
   17.5116  -13.2592    4.1264 N   0  0  0  0  0  0  0  0  0  0  0  0
   17.4303  -16.4932    5.4412 C   0  0  0  0  0  0  0  0  0  0  0  0
   16.9430  -16.8747    6.6879 O   0  0  0  0  0  0  0  0  0  0  0  0
   18.6098  -16.0362    5.4167 O   0  0  0  0  0  0  0  0  0  0  0  0
  2  1  1  6
  2  3  1  0
  3  4  1  0
  4  5  2  0
  5  6  1  0
  7  6  1  0
  8  4  1  0
  8  7  2  0
  9 10  2  0
  9  2  1  0
 11  9  1  0
 12 11  1  0
 12 13  1  1
 14 13  1  0
 15 14  1  0
 16 15  1  0
 17 16  1  0
 18 12  1  0
 19 18  2  0
 20 18  1  0
 21 28  1  0
 21 20  1  0
 21 22  1  1
 23 22  1  0
 24 23  2  0
 25 24  1  0
 26 25  1  0
 26 27  2  0
 27 23  1  0
 28 29  1  0
 30 28  2  0
M  END
$$$$
