HKH.pdb
     RDKit          3D

 30 31  0  0  1  0  0  0  0  0999 V2000
   30.2790  -29.9621  -18.3881 N   0  0  0  0  0  0  0  0  0  0  0  0
   29.3579  -29.4159  -19.3249 C   0  0  1  0  0  0  0  0  0  0  0  0
   28.1587  -30.2913  -19.5684 C   0  0  0  0  0  0  0  0  0  0  0  0
   28.5458  -31.6321  -19.9980 C   0  0  0  0  0  0  0  0  0  0  0  0
   28.0881  -32.7846  -19.3464 C   0  0  0  0  0  0  0  0  0  0  0  0
   28.6360  -33.8118  -20.0000 N   0  0  0  0  0  0  0  0  0  0  0  0
   29.3972  -33.3495  -21.0073 C   0  0  0  0  0  0  0  0  0  0  0  0
   29.3433  -32.0080  -21.0080 N   0  0  0  0  0  0  0  0  0  0  0  0
   28.9628  -28.0233  -19.1309 C   0  0  0  0  0  0  0  0  0  0  0  0
   28.6569  -27.6760  -17.9582 O   0  0  0  0  0  0  0  0  0  0  0  0
   28.9305  -27.1293  -20.2283 N   0  0  0  0  0  0  0  0  0  0  0  0
   28.6007  -25.7630  -20.0983 C   0  0  1  0  0  0  0  0  0  0  0  0
   29.2166  -24.8051  -21.0447 C   0  0  0  0  0  0  0  0  0  0  0  0
   30.6960  -24.8088  -21.1678 C   0  0  0  0  0  0  0  0  0  0  0  0
   31.4638  -24.0748  -20.1294 C   0  0  0  0  0  0  0  0  0  0  0  0
   32.9512  -24.2575  -20.4882 C   0  0  0  0  0  0  0  0  0  0  0  0
   33.7690  -23.5727  -19.5228 N   0  0  0  0  0  0  0  0  0  0  0  0
   27.0929  -25.6217  -20.0936 C   0  0  0  0  0  0  0  0  0  0  0  0
   26.3692  -26.4147  -20.7270 O   0  0  0  0  0  0  0  0  0  0  0  0
   26.4403  -24.5877  -19.3727 N   0  0  0  0  0  0  0  0  0  0  0  0
   24.9788  -24.5182  -19.3379 C   0  0  1  0  0  0  0  0  0  0  0  0
   24.3790  -25.7922  -18.8416 C   0  0  0  0  0  0  0  0  0  0  0  0
   22.9065  -25.6740  -18.8184 C   0  0  0  0  0  0  0  0  0  0  0  0
   22.0892  -25.0480  -19.7391 C   0  0  0  0  0  0  0  0  0  0  0  0
   20.8113  -25.1878  -19.3149 N   0  0  0  0  0  0  0  0  0  0  0  0
   20.8089  -25.8749  -18.1697 C   0  0  0  0  0  0  0  0  0  0  0  0
   22.0819  -26.1619  -17.8819 N   0  0  0  0  0  0  0  0  0  0  0  0
   24.5760  -23.3119  -18.6160 C   0  0  0  0  0  0  0  0  0  0  0  0
   25.4551  -22.3626  -18.1031 O   0  0  0  0  0  0  0  0  0  0  0  0
   23.3439  -23.0926  -18.4305 O   0  0  0  0  0  0  0  0  0  0  0  0
  2  1  1  1
  2  3  1  0
  3  4  1  0
  4  5  2  0
  5  6  1  0
  7  6  1  0
  8  4  1  0
  8  7  2  0
  9 10  2  0
  9  2  1  0
 11  9  1  0
 12 11  1  0
 12 13  1  6
 14 13  1  0
 15 14  1  0
 16 15  1  0
 17 16  1  0
 18 12  1  0
 19 18  2  0
 20 18  1  0
 21 28  1  0
 21 20  1  0
 21 22  1  1
 23 22  1  0
 24 23  2  0
 25 24  1  0
 26 25  1  0
 26 27  2  0
 27 23  1  0
 28 29  1  0
 30 28  2  0
M  END
$$$$
