AIK.pdb
     RDKit          3D

 23 22  0  0  1  0  0  0  0  0999 V2000
   20.6588  -13.1776  -18.7702 C   0  0  0  0  0  0  0  0  0  0  0  0
   21.8661  -13.6741  -18.0046 C   0  0  2  0  0  0  0  0  0  0  0  0
   21.6640  -14.9959  -17.4766 N   0  0  0  0  0  0  0  0  0  0  0  0
   22.2953  -12.7088  -16.9665 C   0  0  0  0  0  0  0  0  0  0  0  0
   21.7143  -12.7229  -15.8540 O   0  0  0  0  0  0  0  0  0  0  0  0
   27.3053  -11.6886  -15.7739 C   0  0  0  0  0  0  0  0  0  0  0  0
   25.7799  -11.8960  -15.6709 C   0  0  0  0  0  0  0  0  0  0  0  0
   25.1418  -10.6322  -16.1149 C   0  0  2  0  0  0  0  0  0  0  0  0
   25.6692   -9.4213  -15.3846 C   0  0  0  0  0  0  0  0  0  0  0  0
   23.6487  -10.7231  -16.1658 C   0  0  2  0  0  0  0  0  0  0  0  0
   23.3334  -11.7646  -17.1643 N   0  0  0  0  0  0  0  0  0  0  0  0
   22.9947   -9.4581  -16.5235 C   0  0  0  0  0  0  0  0  0  0  0  0
   23.2729   -8.9488  -17.6661 O   0  0  0  0  0  0  0  0  0  0  0  0
   22.0785   -8.7207  -15.7542 N   0  0  0  0  0  0  0  0  0  0  0  0
   21.5053   -7.4569  -16.1823 C   0  0  1  0  0  0  0  0  0  0  0  0
   19.9998   -7.4352  -16.0513 C   0  0  0  0  0  0  0  0  0  0  0  0
   19.4568   -6.1587  -16.6626 C   0  0  0  0  0  0  0  0  0  0  0  0
   17.9508   -6.0852  -16.5441 C   0  0  0  0  0  0  0  0  0  0  0  0
   17.5319   -4.8049  -17.2775 C   0  0  0  0  0  0  0  0  0  0  0  0
   16.0677   -4.6952  -17.2346 N   0  0  0  0  0  0  0  0  0  0  0  0
   22.0562   -6.3889  -15.3131 C   0  0  0  0  0  0  0  0  0  0  0  0
   22.3178   -5.1012  -15.8199 O   0  0  0  0  0  0  0  0  0  0  0  0
   22.3262   -6.5397  -14.0929 O   0  0  0  0  0  0  0  0  0  0  0  0
  2  1  1  1
  2  3  1  0
  2  4  1  0
  4  5  2  0
  7  6  1  0
  8  9  1  1
  8  7  1  0
 10  8  1  0
 11  4  1  0
 10 11  1  6
 12 14  1  0
 12 10  1  0
 13 12  2  0
 15 21  1  0
 15 14  1  0
 15 16  1  1
 16 17  1  0
 18 17  1  0
 19 18  1  0
 20 19  1  0
 21 22  1  0
 23 21  2  0
M  END
$$$$
