AIK.pdb
     RDKit          3D

 23 22  0  0  1  0  0  0  0  0999 V2000
   22.1520  -12.9725  -20.6325 C   0  0  0  0  0  0  0  0  0  0  0  0
   23.2825  -13.2438  -19.6637 C   0  0  2  0  0  0  0  0  0  0  0  0
   23.4537  -14.6493  -19.4142 N   0  0  0  0  0  0  0  0  0  0  0  0
   23.1381  -12.4602  -18.4152 C   0  0  0  0  0  0  0  0  0  0  0  0
   22.1945  -12.7379  -17.6356 O   0  0  0  0  0  0  0  0  0  0  0  0
   27.3019  -11.4962  -15.4694 C   0  0  0  0  0  0  0  0  0  0  0  0
   25.8558  -11.7983  -15.9142 C   0  0  0  0  0  0  0  0  0  0  0  0
   25.2157  -10.4939  -16.2148 C   0  0  2  0  0  0  0  0  0  0  0  0
   25.3012   -9.5202  -15.0649 C   0  0  0  0  0  0  0  0  0  0  0  0
   23.8464  -10.6412  -16.8009 C   0  0  2  0  0  0  0  0  0  0  0  0
   24.0145  -11.4071  -18.0525 N   0  0  0  0  0  0  0  0  0  0  0  0
   23.1819   -9.3601  -17.0716 C   0  0  0  0  0  0  0  0  0  0  0  0
   23.7606   -8.5507  -17.8792 O   0  0  0  0  0  0  0  0  0  0  0  0
   21.9616   -8.9013  -16.5471 N   0  0  0  0  0  0  0  0  0  0  0  0
   21.3963   -7.5987  -16.8519 C   0  0  1  0  0  0  0  0  0  0  0  0
   19.8856   -7.6038  -16.8092 C   0  0  0  0  0  0  0  0  0  0  0  0
   19.3668   -6.2056  -17.0809 C   0  0  0  0  0  0  0  0  0  0  0  0
   17.8558   -6.1570  -17.0341 C   0  0  0  0  0  0  0  0  0  0  0  0
   17.4691   -4.7143  -17.3827 C   0  0  0  0  0  0  0  0  0  0  0  0
   16.0084   -4.6379  -17.5184 N   0  0  0  0  0  0  0  0  0  0  0  0
   21.8803   -6.6410  -15.8280 C   0  0  0  0  0  0  0  0  0  0  0  0
   22.2294   -5.3211  -16.1739 O   0  0  0  0  0  0  0  0  0  0  0  0
   22.0145   -6.9188  -14.6077 O   0  0  0  0  0  0  0  0  0  0  0  0
  2  1  1  6
  2  3  1  0
  2  4  1  0
  4  5  2  0
  7  6  1  0
  8  9  1  1
  8  7  1  0
 10  8  1  0
 11  4  1  0
 10 11  1  6
 12 14  1  0
 12 10  1  0
 13 12  2  0
 15 21  1  0
 15 14  1  0
 15 16  1  1
 16 17  1  0
 18 17  1  0
 19 18  1  0
 20 19  1  0
 21 22  1  0
 23 21  2  0
M  END
$$$$
