AIK.pdb
     RDKit          3D

 23 22  0  0  1  0  0  0  0  0999 V2000
   29.3086  -20.2453  -14.4350 C   0  0  0  0  0  0  0  0  0  0  0  0
   27.9315  -19.6195  -14.4843 C   0  0  2  0  0  0  0  0  0  0  0  0
   27.9393  -18.2609  -14.0141 N   0  0  0  0  0  0  0  0  0  0  0  0
   26.9224  -20.4532  -13.7914 C   0  0  0  0  0  0  0  0  0  0  0  0
   26.7355  -21.6284  -14.1904 O   0  0  0  0  0  0  0  0  0  0  0  0
   26.7112  -20.3462   -8.6135 C   0  0  0  0  0  0  0  0  0  0  0  0
   26.6026  -20.9613  -10.0243 C   0  0  0  0  0  0  0  0  0  0  0  0
   25.2755  -20.5734  -10.5629 C   0  0  2  0  0  0  0  0  0  0  0  0
   24.1300  -21.0921   -9.7285 C   0  0  0  0  0  0  0  0  0  0  0  0
   25.1442  -20.8410  -12.0296 C   0  0  2  0  0  0  0  0  0  0  0  0
   26.1523  -19.9911  -12.6951 N   0  0  0  0  0  0  0  0  0  0  0  0
   23.8054  -20.5567  -12.5614 C   0  0  0  0  0  0  0  0  0  0  0  0
   23.3876  -19.3467  -12.5005 O   0  0  0  0  0  0  0  0  0  0  0  0
   22.9058  -21.4647  -13.1453 N   0  0  0  0  0  0  0  0  0  0  0  0
   21.6309  -21.0736  -13.7207 C   0  0  1  0  0  0  0  0  0  0  0  0
   21.2575  -21.9179  -14.9172 C   0  0  0  0  0  0  0  0  0  0  0  0
   19.8700  -21.5355  -15.3933 C   0  0  0  0  0  0  0  0  0  0  0  0
   19.4256  -22.3982  -16.5534 C   0  0  0  0  0  0  0  0  0  0  0  0
   18.1078  -21.7906  -17.0503 C   0  0  0  0  0  0  0  0  0  0  0  0
   17.5550  -22.6583  -18.0988 N   0  0  0  0  0  0  0  0  0  0  0  0
   20.5867  -21.2604  -12.6842 C   0  0  0  0  0  0  0  0  0  0  0  0
   19.5064  -20.3640  -12.5700 O   0  0  0  0  0  0  0  0  0  0  0  0
   20.5796  -22.2028  -11.8498 O   0  0  0  0  0  0  0  0  0  0  0  0
  2  1  1  1
  2  3  1  0
  2  4  1  0
  4  5  2  0
  7  6  1  0
  8  9  1  1
  8  7  1  0
 10  8  1  0
 11  4  1  0
 10 11  1  6
 12 14  1  0
 12 10  1  0
 13 12  2  0
 15 21  1  0
 15 14  1  0
 15 16  1  6
 16 17  1  0
 18 17  1  0
 19 18  1  0
 20 19  1  0
 21 22  1  0
 23 21  2  0
M  END
$$$$
