AIK.pdb
     RDKit          3D

 23 22  0  0  1  0  0  0  0  0999 V2000
   29.6391  -19.7780  -13.2682 C   0  0  0  0  0  0  0  0  0  0  0  0
   29.9419  -20.5694  -12.0142 C   0  0  2  0  0  0  0  0  0  0  0  0
   30.7371  -21.7348  -12.2906 N   0  0  0  0  0  0  0  0  0  0  0  0
   28.7116  -20.8900  -11.2546 C   0  0  0  0  0  0  0  0  0  0  0  0
   28.1793  -22.0149  -11.4174 O   0  0  0  0  0  0  0  0  0  0  0  0
   27.8581  -20.8667   -6.8128 C   0  0  0  0  0  0  0  0  0  0  0  0
   27.9953  -19.5632   -7.6266 C   0  0  0  0  0  0  0  0  0  0  0  0
   26.7702  -19.4408   -8.4548 C   0  0  2  0  0  0  0  0  0  0  0  0
   25.5018  -19.5765   -7.6483 C   0  0  0  0  0  0  0  0  0  0  0  0
   26.8151  -20.2906   -9.6860 C   0  0  2  0  0  0  0  0  0  0  0  0
   28.1001  -19.9882  -10.3482 N   0  0  0  0  0  0  0  0  0  0  0  0
   25.6971  -20.0505  -10.6070 C   0  0  0  0  0  0  0  0  0  0  0  0
   25.6075  -18.8890  -11.1411 O   0  0  0  0  0  0  0  0  0  0  0  0
   24.6923  -20.9561  -10.9879 N   0  0  0  0  0  0  0  0  0  0  0  0
   23.7162  -20.6811  -12.0275 C   0  0  1  0  0  0  0  0  0  0  0  0
   23.7597  -21.7020  -13.1409 C   0  0  0  0  0  0  0  0  0  0  0  0
   22.6749  -21.3930  -14.1537 C   0  0  0  0  0  0  0  0  0  0  0  0
   22.6477  -22.4178  -15.2658 C   0  0  0  0  0  0  0  0  0  0  0  0
   21.6059  -21.9181  -16.2745 C   0  0  0  0  0  0  0  0  0  0  0  0
   21.4526  -22.9263  -17.3317 N   0  0  0  0  0  0  0  0  0  0  0  0
   22.3679  -20.7321  -11.4116 C   0  0  0  0  0  0  0  0  0  0  0  0
   21.2464  -20.1918  -12.0703 O   0  0  0  0  0  0  0  0  0  0  0  0
   22.1228  -21.2446  -10.2884 O   0  0  0  0  0  0  0  0  0  0  0  0
  2  1  1  6
  2  3  1  0
  2  4  1  0
  4  5  2  0
  7  6  1  0
  8  9  1  1
  8  7  1  0
 10  8  1  0
 11  4  1  0
 10 11  1  6
 12 14  1  0
 12 10  1  0
 13 12  2  0
 15 21  1  0
 15 14  1  0
 15 16  1  6
 16 17  1  0
 18 17  1  0
 19 18  1  0
 20 19  1  0
 21 22  1  0
 23 21  2  0
M  END
$$$$
