AIK.pdb
     RDKit          3D

 23 22  0  0  1  0  0  0  0  0999 V2000
   20.0855  -23.8181   -8.5661 C   0  0  0  0  0  0  0  0  0  0  0  0
   20.7201  -22.8550   -7.5863 C   0  0  2  0  0  0  0  0  0  0  0  0
   19.7616  -22.3203   -6.6578 N   0  0  0  0  0  0  0  0  0  0  0  0
   21.4923  -21.7961   -8.2763 C   0  0  0  0  0  0  0  0  0  0  0  0
   20.9025  -20.7384   -8.6059 O   0  0  0  0  0  0  0  0  0  0  0  0
   25.8912  -20.1673   -6.2922 C   0  0  0  0  0  0  0  0  0  0  0  0
   24.5403  -20.2898   -7.0271 C   0  0  0  0  0  0  0  0  0  0  0  0
   24.8472  -20.6015   -8.4449 C   0  0  2  0  0  0  0  0  0  0  0  0
   25.8308  -19.6348   -9.0579 C   0  0  0  0  0  0  0  0  0  0  0  0
   23.6183  -20.8385   -9.2659 C   0  0  2  0  0  0  0  0  0  0  0  0
   22.8702  -21.9151   -8.5858 N   0  0  0  0  0  0  0  0  0  0  0  0
   23.9037  -21.2146  -10.6562 C   0  0  0  0  0  0  0  0  0  0  0  0
   24.6090  -22.2662  -10.8534 O   0  0  0  0  0  0  0  0  0  0  0  0
   23.4881  -20.5531  -11.8244 N   0  0  0  0  0  0  0  0  0  0  0  0
   23.7460  -21.0517  -13.1638 C   0  0  1  0  0  0  0  0  0  0  0  0
   22.9406  -22.2907  -13.4805 C   0  0  0  0  0  0  0  0  0  0  0  0
   23.2178  -22.7238  -14.9065 C   0  0  0  0  0  0  0  0  0  0  0  0
   24.3710  -23.7001  -14.9743 C   0  0  0  0  0  0  0  0  0  0  0  0
   24.5673  -24.0186  -16.4617 C   0  0  0  0  0  0  0  0  0  0  0  0
   25.7767  -24.8387  -16.6122 N   0  0  0  0  0  0  0  0  0  0  0  0
   23.3562  -19.9933  -14.1269 C   0  0  0  0  0  0  0  0  0  0  0  0
   22.3250  -19.0818  -13.8281 O   0  0  0  0  0  0  0  0  0  0  0  0
   23.8959  -19.8279  -15.2520 O   0  0  0  0  0  0  0  0  0  0  0  0
  2  1  1  6
  2  3  1  0
  2  4  1  0
  4  5  2  0
  7  6  1  0
  8  9  1  6
  8  7  1  0
 10  8  1  0
 11  4  1  0
 10 11  1  1
 12 14  1  0
 12 10  1  0
 13 12  2  0
 15 21  1  0
 15 14  1  0
 15 16  1  6
 16 17  1  0
 18 17  1  0
 19 18  1  0
 20 19  1  0
 21 22  1  0
 23 21  2  0
M  END
$$$$
