AIK.pdb
     RDKit          3D

 23 22  0  0  1  0  0  0  0  0999 V2000
   27.5684  -18.9213  -15.5763 C   0  0  0  0  0  0  0  0  0  0  0  0
   28.1424  -19.9352  -14.6104 C   0  0  2  0  0  0  0  0  0  0  0  0
   29.1128  -20.7896  -15.2387 N   0  0  0  0  0  0  0  0  0  0  0  0
   27.0794  -20.6988  -13.9171 C   0  0  0  0  0  0  0  0  0  0  0  0
   26.7312  -21.8091  -14.3875 O   0  0  0  0  0  0  0  0  0  0  0  0
   26.5726  -20.2479   -8.5793 C   0  0  0  0  0  0  0  0  0  0  0  0
   26.6237  -20.9250   -9.9646 C   0  0  0  0  0  0  0  0  0  0  0  0
   25.3527  -20.5927  -10.6543 C   0  0  2  0  0  0  0  0  0  0  0  0
   24.1336  -21.0259   -9.8772 C   0  0  0  0  0  0  0  0  0  0  0  0
   25.3486  -21.0047  -12.0932 C   0  0  2  0  0  0  0  0  0  0  0  0
   26.4310  -20.2390  -12.7437 N   0  0  0  0  0  0  0  0  0  0  0  0
   24.0699  -20.7583  -12.7716 C   0  0  0  0  0  0  0  0  0  0  0  0
   23.6800  -19.5423  -12.8788 O   0  0  0  0  0  0  0  0  0  0  0  0
   23.2020  -21.7098  -13.3339 N   0  0  0  0  0  0  0  0  0  0  0  0
   22.0247  -21.3624  -14.1101 C   0  0  1  0  0  0  0  0  0  0  0  0
   21.8189  -22.2880  -15.2869 C   0  0  0  0  0  0  0  0  0  0  0  0
   21.7603  -23.7220  -14.7989 C   0  0  0  0  0  0  0  0  0  0  0  0
   21.5087  -24.6846  -15.9381 C   0  0  0  0  0  0  0  0  0  0  0  0
   21.4169  -26.0770  -15.3014 C   0  0  0  0  0  0  0  0  0  0  0  0
   21.0125  -27.0410  -16.3334 N   0  0  0  0  0  0  0  0  0  0  0  0
   20.8425  -21.4802  -13.2223 C   0  0  0  0  0  0  0  0  0  0  0  0
   20.9369  -22.1067  -11.9645 O   0  0  0  0  0  0  0  0  0  0  0  0
   19.6968  -21.0452  -13.5095 O   0  0  0  0  0  0  0  0  0  0  0  0
  2  1  1  6
  2  3  1  0
  2  4  1  0
  4  5  2  0
  7  6  1  0
  8  9  1  1
  8  7  1  0
 10  8  1  0
 11  4  1  0
 10 11  1  6
 12 14  1  0
 12 10  1  0
 13 12  2  0
 15 21  1  0
 15 14  1  0
 15 16  1  6
 16 17  1  0
 18 17  1  0
 19 18  1  0
 20 19  1  0
 21 22  1  0
 23 21  2  0
M  END
$$$$
