AIK.pdb
     RDKit          3D

 23 22  0  0  1  0  0  0  0  0999 V2000
   26.4863  -21.0946  -17.9765 C   0  0  0  0  0  0  0  0  0  0  0  0
   27.3628  -21.7161  -16.9108 C   0  0  2  0  0  0  0  0  0  0  0  0
   28.0716  -22.8675  -17.3992 N   0  0  0  0  0  0  0  0  0  0  0  0
   26.6043  -22.0013  -15.6711 C   0  0  0  0  0  0  0  0  0  0  0  0
   25.9210  -23.0525  -15.6115 O   0  0  0  0  0  0  0  0  0  0  0  0
   28.8591  -20.3988  -11.1534 C   0  0  0  0  0  0  0  0  0  0  0  0
   28.1252  -21.2970  -12.1707 C   0  0  0  0  0  0  0  0  0  0  0  0
   26.7059  -20.8646  -12.1827 C   0  0  2  0  0  0  0  0  0  0  0  0
   26.0563  -20.9481  -10.8231 C   0  0  0  0  0  0  0  0  0  0  0  0
   25.9164  -21.4965  -13.2861 C   0  0  2  0  0  0  0  0  0  0  0  0
   26.6095  -21.1449  -14.5420 N   0  0  0  0  0  0  0  0  0  0  0  0
   24.5167  -21.0554  -13.3346 C   0  0  0  0  0  0  0  0  0  0  0  0
   24.2914  -19.8276  -13.6245 O   0  0  0  0  0  0  0  0  0  0  0  0
   23.3669  -21.8290  -13.1013 N   0  0  0  0  0  0  0  0  0  0  0  0
   22.0160  -21.3012  -13.1757 C   0  0  1  0  0  0  0  0  0  0  0  0
   20.9767  -22.3943  -13.2713 C   0  0  0  0  0  0  0  0  0  0  0  0
   19.5917  -21.7781  -13.2614 C   0  0  0  0  0  0  0  0  0  0  0  0
   18.5141  -22.8390  -13.2294 C   0  0  0  0  0  0  0  0  0  0  0  0
   17.1797  -22.0838  -13.1906 C   0  0  0  0  0  0  0  0  0  0  0  0
   16.0955  -23.0535  -12.9854 N   0  0  0  0  0  0  0  0  0  0  0  0
   21.7584  -20.5315  -11.9344 C   0  0  0  0  0  0  0  0  0  0  0  0
   21.0302  -19.3263  -11.9637 O   0  0  0  0  0  0  0  0  0  0  0  0
   22.1555  -20.8793  -10.7917 O   0  0  0  0  0  0  0  0  0  0  0  0
  2  1  1  6
  2  3  1  0
  2  4  1  0
  4  5  2  0
  7  6  1  0
  8  9  1  1
  8  7  1  0
 10  8  1  0
 11  4  1  0
 10 11  1  6
 12 14  1  0
 12 10  1  0
 13 12  2  0
 15 21  1  0
 15 14  1  0
 15 16  1  1
 16 17  1  0
 18 17  1  0
 19 18  1  0
 20 19  1  0
 21 22  1  0
 23 21  2  0
M  END
$$$$
