AIK.pdb
     RDKit          3D

 23 22  0  0  1  0  0  0  0  0999 V2000
   21.0721  -22.0753  -13.5254 C   0  0  0  0  0  0  0  0  0  0  0  0
   21.7442  -21.4632  -12.3154 C   0  0  2  0  0  0  0  0  0  0  0  0
   20.8246  -20.7009  -11.5155 N   0  0  0  0  0  0  0  0  0  0  0  0
   22.9491  -20.6870  -12.6884 C   0  0  0  0  0  0  0  0  0  0  0  0
   22.8404  -19.4471  -12.8507 O   0  0  0  0  0  0  0  0  0  0  0  0
   27.2495  -21.2106   -9.9740 C   0  0  0  0  0  0  0  0  0  0  0  0
   26.0575  -20.7577  -10.8425 C   0  0  0  0  0  0  0  0  0  0  0  0
   26.4873  -20.8717  -12.2581 C   0  0  2  0  0  0  0  0  0  0  0  0
   27.8300  -20.2327  -12.5161 C   0  0  0  0  0  0  0  0  0  0  0  0
   25.4156  -20.4722  -13.2236 C   0  0  2  0  0  0  0  0  0  0  0  0
   24.2259  -21.2739  -12.8728 N   0  0  0  0  0  0  0  0  0  0  0  0
   25.7806  -20.6883  -14.6293 C   0  0  0  0  0  0  0  0  0  0  0  0
   26.1974  -21.8537  -14.9615 O   0  0  0  0  0  0  0  0  0  0  0  0
   25.7255  -19.7574  -15.6807 N   0  0  0  0  0  0  0  0  0  0  0  0
   26.0822  -20.0742  -17.0524 C   0  0  1  0  0  0  0  0  0  0  0  0
   25.3980  -19.1663  -18.0481 C   0  0  0  0  0  0  0  0  0  0  0  0
   24.1416  -19.8382  -18.5657 C   0  0  0  0  0  0  0  0  0  0  0  0
   22.9394  -19.4947  -17.7147 C   0  0  0  0  0  0  0  0  0  0  0  0
   21.7452  -20.2038  -18.3656 C   0  0  0  0  0  0  0  0  0  0  0  0
   20.5750  -20.0554  -17.4902 N   0  0  0  0  0  0  0  0  0  0  0  0
   27.5469  -19.8910  -17.1963 C   0  0  0  0  0  0  0  0  0  0  0  0
   28.2878  -20.6519  -18.1213 O   0  0  0  0  0  0  0  0  0  0  0  0
   28.2255  -19.0689  -16.5270 O   0  0  0  0  0  0  0  0  0  0  0  0
  2  1  1  6
  2  3  1  0
  2  4  1  0
  4  5  2  0
  7  6  1  0
  8  9  1  1
  8  7  1  0
 10  8  1  0
 11  4  1  0
 10 11  1  1
 12 14  1  0
 12 10  1  0
 13 12  2  0
 15 21  1  0
 15 14  1  0
 15 16  1  6
 16 17  1  0
 18 17  1  0
 19 18  1  0
 20 19  1  0
 21 22  1  0
 23 21  2  0
M  END
$$$$
