AIK.pdb
     RDKit          3D

 23 22  0  0  1  0  0  0  0  0999 V2000
   19.4186  -15.2672  -18.0673 C   0  0  0  0  0  0  0  0  0  0  0  0
   20.6564  -15.7947  -17.3744 C   0  0  2  0  0  0  0  0  0  0  0  0
   20.4527  -17.1116  -16.8348 N   0  0  0  0  0  0  0  0  0  0  0  0
   21.1707  -14.8416  -16.3642 C   0  0  0  0  0  0  0  0  0  0  0  0
   20.5925  -14.7725  -15.2522 O   0  0  0  0  0  0  0  0  0  0  0  0
   26.2412  -14.5739  -15.2456 C   0  0  0  0  0  0  0  0  0  0  0  0
   24.7034  -14.5464  -15.1250 C   0  0  0  0  0  0  0  0  0  0  0  0
   24.2625  -13.1913  -15.5385 C   0  0  2  0  0  0  0  0  0  0  0  0
   24.9811  -12.0899  -14.7980 C   0  0  0  0  0  0  0  0  0  0  0  0
   22.7728  -13.0493  -15.5661 C   0  0  2  0  0  0  0  0  0  0  0  0
   22.2876  -13.9986  -16.5882 N   0  0  0  0  0  0  0  0  0  0  0  0
   22.3177  -11.6882  -15.8764 C   0  0  0  0  0  0  0  0  0  0  0  0
   22.5829  -11.2253  -17.0416 O   0  0  0  0  0  0  0  0  0  0  0  0
   21.6087  -10.8108  -15.0383 N   0  0  0  0  0  0  0  0  0  0  0  0
   21.2149   -9.4691  -15.4305 C   0  0  1  0  0  0  0  0  0  0  0  0
   19.7149   -9.2853  -15.4227 C   0  0  0  0  0  0  0  0  0  0  0  0
   19.3709   -7.9077  -15.9536 C   0  0  0  0  0  0  0  0  0  0  0  0
   17.8852   -7.6372  -15.8697 C   0  0  0  0  0  0  0  0  0  0  0  0
   17.6765   -6.2397  -16.4663 C   0  0  0  0  0  0  0  0  0  0  0  0
   16.2358   -5.9560  -16.5085 N   0  0  0  0  0  0  0  0  0  0  0  0
   21.7981   -8.5188  -14.4526 C   0  0  0  0  0  0  0  0  0  0  0  0
   22.1241   -7.2002  -14.8250 O   0  0  0  0  0  0  0  0  0  0  0  0
   22.0415   -8.8021  -13.2505 O   0  0  0  0  0  0  0  0  0  0  0  0
  2  1  1  1
  2  3  1  0
  2  4  1  0
  4  5  2  0
  7  6  1  0
  8  9  1  1
  8  7  1  0
 10  8  1  0
 11  4  1  0
 10 11  1  6
 12 14  1  0
 12 10  1  0
 13 12  2  0
 15 21  1  0
 15 14  1  0
 15 16  1  1
 16 17  1  0
 18 17  1  0
 19 18  1  0
 20 19  1  0
 21 22  1  0
 23 21  2  0
M  END
$$$$
