AIK.pdb
     RDKit          3D

 23 22  0  0  1  0  0  0  0  0999 V2000
   27.5752  -35.9020   -9.2652 C   0  0  0  0  0  0  0  0  0  0  0  0
   26.2337  -35.2394   -9.0372 C   0  0  2  0  0  0  0  0  0  0  0  0
   25.4182  -35.9770   -8.1111 N   0  0  0  0  0  0  0  0  0  0  0  0
   25.5332  -34.9609  -10.3121 C   0  0  0  0  0  0  0  0  0  0  0  0
   25.1455  -35.9293  -11.0102 O   0  0  0  0  0  0  0  0  0  0  0  0
   21.2791  -32.3125  -10.4991 C   0  0  0  0  0  0  0  0  0  0  0  0
   22.4252  -33.2951  -10.8173 C   0  0  0  0  0  0  0  0  0  0  0  0
   23.3655  -32.5839  -11.7182 C   0  0  2  0  0  0  0  0  0  0  0  0
   22.6777  -31.9566  -12.9061 C   0  0  0  0  0  0  0  0  0  0  0  0
   24.5708  -33.4022  -12.0615 C   0  0  2  0  0  0  0  0  0  0  0  0
   25.2759  -33.6510  -10.7879 N   0  0  0  0  0  0  0  0  0  0  0  0
   25.4687  -32.7512  -13.0236 C   0  0  0  0  0  0  0  0  0  0  0  0
   26.1366  -31.7354  -12.6181 O   0  0  0  0  0  0  0  0  0  0  0  0
   25.6956  -33.1124  -14.3626 N   0  0  0  0  0  0  0  0  0  0  0  0
   26.6238  -32.4155  -15.2355 C   0  0  1  0  0  0  0  0  0  0  0  0
   27.9947  -33.0515  -15.2413 C   0  0  0  0  0  0  0  0  0  0  0  0
   28.8920  -32.3114  -16.2134 C   0  0  0  0  0  0  0  0  0  0  0  0
   30.2684  -32.9349  -16.2809 C   0  0  0  0  0  0  0  0  0  0  0  0
   31.0802  -32.0616  -17.2456 C   0  0  0  0  0  0  0  0  0  0  0  0
   32.4692  -32.5397  -17.2583 N   0  0  0  0  0  0  0  0  0  0  0  0
   26.0846  -32.4766  -16.6158 C   0  0  0  0  0  0  0  0  0  0  0  0
   25.4663  -33.6440  -17.1042 O   0  0  0  0  0  0  0  0  0  0  0  0
   26.1332  -31.5235  -17.4365 O   0  0  0  0  0  0  0  0  0  0  0  0
  2  1  1  6
  2  3  1  0
  2  4  1  0
  4  5  2  0
  7  6  1  0
  8  9  1  6
  8  7  1  0
 10  8  1  0
 11  4  1  0
 10 11  1  1
 12 14  1  0
 12 10  1  0
 13 12  2  0
 15 21  1  0
 15 14  1  0
 15 16  1  6
 16 17  1  0
 18 17  1  0
 19 18  1  0
 20 19  1  0
 21 22  1  0
 23 21  2  0
M  END
$$$$
