AIK.pdb
     RDKit          3D

 23 22  0  0  1  0  0  0  0  0999 V2000
   26.7088  -23.0488  -18.4099 C   0  0  0  0  0  0  0  0  0  0  0  0
   27.6252  -22.5314  -17.3222 C   0  0  2  0  0  0  0  0  0  0  0  0
   28.2988  -23.5976  -16.6320 N   0  0  0  0  0  0  0  0  0  0  0  0
   26.9197  -21.6145  -16.3975 C   0  0  0  0  0  0  0  0  0  0  0  0
   26.5487  -22.0527  -15.2814 O   0  0  0  0  0  0  0  0  0  0  0  0
   28.6629  -16.7141  -16.1176 C   0  0  0  0  0  0  0  0  0  0  0  0
   28.1027  -18.1030  -15.7470 C   0  0  0  0  0  0  0  0  0  0  0  0
   26.6282  -18.0266  -15.8937 C   0  0  2  0  0  0  0  0  0  0  0  0
   26.0123  -16.9304  -15.0590 C   0  0  0  0  0  0  0  0  0  0  0  0
   25.9616  -19.3594  -15.7547 C   0  0  2  0  0  0  0  0  0  0  0  0
   26.6399  -20.2604  -16.7084 N   0  0  0  0  0  0  0  0  0  0  0  0
   24.5183  -19.3256  -16.0224 C   0  0  0  0  0  0  0  0  0  0  0  0
   24.1375  -18.8982  -17.1690 O   0  0  0  0  0  0  0  0  0  0  0  0
   23.4786  -19.7152  -15.1609 N   0  0  0  0  0  0  0  0  0  0  0  0
   22.0736  -19.6659  -15.5252 C   0  0  1  0  0  0  0  0  0  0  0  0
   21.2546  -20.7067  -14.7973 C   0  0  0  0  0  0  0  0  0  0  0  0
   19.8437  -20.7190  -15.3515 C   0  0  0  0  0  0  0  0  0  0  0  0
   19.5718  -21.9772  -16.1455 C   0  0  0  0  0  0  0  0  0  0  0  0
   18.1302  -21.8519  -16.6541 C   0  0  0  0  0  0  0  0  0  0  0  0
   17.8518  -22.9729  -17.5617 N   0  0  0  0  0  0  0  0  0  0  0  0
   21.5525  -18.3288  -15.1509 C   0  0  0  0  0  0  0  0  0  0  0  0
   20.6097  -17.6633  -15.9584 O   0  0  0  0  0  0  0  0  0  0  0  0
   21.8976  -17.6997  -14.1167 O   0  0  0  0  0  0  0  0  0  0  0  0
  2  1  1  6
  2  3  1  0
  2  4  1  0
  4  5  2  0
  7  6  1  0
  8  9  1  1
  8  7  1  0
 10  8  1  0
 11  4  1  0
 10 11  1  6
 12 14  1  0
 12 10  1  0
 13 12  2  0
 15 21  1  0
 15 14  1  0
 15 16  1  1
 16 17  1  0
 18 17  1  0
 19 18  1  0
 20 19  1  0
 21 22  1  0
 23 21  2  0
M  END
$$$$
