TPF.pdb
     RDKit          3D

 26 27  0  0  1  0  0  0  0  0999 V2000
   24.7762  -13.9049  -20.5327 C   0  0  0  0  0  0  0  0  0  0  0  0
   24.3645  -12.8405  -19.5341 C   0  0  1  0  0  0  0  0  0  0  0  0
   23.0718  -12.3878  -19.7495 O   0  0  0  0  0  0  0  0  0  0  0  0
   24.6000  -13.2759  -18.1060 C   0  0  2  0  0  0  0  0  0  0  0  0
   23.8027  -14.4621  -17.8923 N   0  0  0  0  0  0  0  0  0  0  0  0
   24.2132  -12.2412  -17.1304 C   0  0  0  0  0  0  0  0  0  0  0  0
   22.9867  -12.2740  -16.7633 O   0  0  0  0  0  0  0  0  0  0  0  0
   25.0309  -11.2512  -16.5782 N   0  0  0  0  0  0  0  0  0  0  0  0
   26.4313  -11.0558  -16.8839 C   0  0  0  0  0  0  0  0  0  0  0  0
   26.9176   -9.8758  -16.0980 C   0  0  0  0  0  0  0  0  0  0  0  0
   25.9368   -9.7987  -14.9516 C   0  0  0  0  0  0  0  0  0  0  0  0
   24.6500  -10.2433  -15.6119 C   0  0  1  0  0  0  0  0  0  0  0  0
   23.8740   -9.1481  -16.1947 C   0  0  0  0  0  0  0  0  0  0  0  0
   24.0132   -8.9397  -17.4365 O   0  0  0  0  0  0  0  0  0  0  0  0
   22.9892   -8.3083  -15.4990 N   0  0  0  0  0  0  0  0  0  0  0  0
   22.0316   -7.3990  -16.1554 C   0  0  1  0  0  0  0  0  0  0  0  0
   21.1995   -8.1307  -17.1534 C   0  0  0  0  0  0  0  0  0  0  0  0
   20.2578   -7.2258  -17.8140 C   0  0  0  0  0  0  0  0  0  0  0  0
   20.6957   -6.4229  -18.8404 C   0  0  0  0  0  0  0  0  0  0  0  0
   19.8112   -5.5809  -19.4753 C   0  0  0  0  0  0  0  0  0  0  0  0
   18.4744   -5.4965  -19.1292 C   0  0  0  0  0  0  0  0  0  0  0  0
   18.0216   -6.2996  -18.0976 C   0  0  0  0  0  0  0  0  0  0  0  0
   18.9111   -7.1409  -17.4650 C   0  0  0  0  0  0  0  0  0  0  0  0
   21.2889   -6.6150  -15.1772 C   0  0  0  0  0  0  0  0  0  0  0  0
   20.9920   -5.2747  -15.3118 O   0  0  0  0  0  0  0  0  0  0  0  0
   20.8642   -7.1660  -14.1038 O   0  0  0  0  0  0  0  0  0  0  0  0
  2  4  1  0
  2  1  1  6
  3  2  1  0
  4  6  1  0
  4  5  1  1
  6  8  1  0
  7  6  2  0
  8 12  1  0
  8  9  1  0
  9 10  1  0
 11 10  1  0
 12 11  1  0
 13 15  1  0
 12 13  1  6
 14 13  2  0
 16 15  1  0
 16 24  1  0
 16 17  1  1
 18 23  1  0
 18 17  1  0
 19 18  2  0
 20 21  2  0
 20 19  1  0
 21 22  1  0
 22 23  2  0
 24 25  1  0
 26 24  2  0
M  END
$$$$
