TPF.pdb
     RDKit          3D

 26 27  0  0  1  0  0  0  0  0999 V2000
   26.9445  -17.0208  -17.0161 C   0  0  0  0  0  0  0  0  0  0  0  0
   27.7518  -17.7675  -18.0602 C   0  0  1  0  0  0  0  0  0  0  0  0
   29.0795  -17.9188  -17.6908 O   0  0  0  0  0  0  0  0  0  0  0  0
   27.1036  -19.0743  -18.4558 C   0  0  2  0  0  0  0  0  0  0  0  0
   25.8670  -18.7430  -19.1264 N   0  0  0  0  0  0  0  0  0  0  0  0
   26.8176  -19.9357  -17.2947 C   0  0  0  0  0  0  0  0  0  0  0  0
   25.7356  -19.6588  -16.6680 O   0  0  0  0  0  0  0  0  0  0  0  0
   27.5900  -20.9995  -16.8199 N   0  0  0  0  0  0  0  0  0  0  0  0
   28.8658  -21.4143  -17.3612 C   0  0  0  0  0  0  0  0  0  0  0  0
   29.3615  -22.5706  -16.5464 C   0  0  0  0  0  0  0  0  0  0  0  0
   28.0964  -23.1319  -15.9409 C   0  0  0  0  0  0  0  0  0  0  0  0
   27.2772  -21.8800  -15.7146 C   0  0  1  0  0  0  0  0  0  0  0  0
   27.4894  -21.2618  -14.4054 C   0  0  0  0  0  0  0  0  0  0  0  0
   28.4428  -20.4334  -14.3064 O   0  0  0  0  0  0  0  0  0  0  0  0
   26.7298  -21.5059  -13.2497 N   0  0  0  0  0  0  0  0  0  0  0  0
   26.9916  -20.8710  -11.9447 C   0  0  1  0  0  0  0  0  0  0  0  0
   26.3041  -19.5513  -11.8461 C   0  0  0  0  0  0  0  0  0  0  0  0
   24.8592  -19.6990  -12.0264 C   0  0  0  0  0  0  0  0  0  0  0  0
   24.3232  -19.6298  -13.2905 C   0  0  0  0  0  0  0  0  0  0  0  0
   22.9669  -19.7832  -13.4678 C   0  0  0  0  0  0  0  0  0  0  0  0
   22.0931  -20.0084  -12.4191 C   0  0  0  0  0  0  0  0  0  0  0  0
   22.6205  -20.0800  -11.1420 C   0  0  0  0  0  0  0  0  0  0  0  0
   23.9792  -19.9258  -10.9697 C   0  0  0  0  0  0  0  0  0  0  0  0
   26.7355  -21.7926  -10.8457 C   0  0  0  0  0  0  0  0  0  0  0  0
   26.1870  -23.0500  -10.9909 O   0  0  0  0  0  0  0  0  0  0  0  0
   27.0219  -21.4543   -9.6458 O   0  0  0  0  0  0  0  0  0  0  0  0
  2  4  1  0
  2  1  1  1
  3  2  1  0
  4  6  1  0
  4  5  1  1
  6  8  1  0
  7  6  2  0
  8 12  1  0
  8  9  1  0
  9 10  1  0
 11 10  1  0
 12 11  1  0
 13 15  1  0
 12 13  1  1
 14 13  2  0
 16 15  1  0
 16 24  1  0
 16 17  1  1
 18 23  1  0
 18 17  1  0
 19 18  2  0
 20 21  2  0
 20 19  1  0
 21 22  1  0
 22 23  2  0
 24 25  1  0
 26 24  2  0
M  END
$$$$
