TPF.pdb
     RDKit          3D

 26 27  0  0  1  0  0  0  0  0999 V2000
   26.6687  -19.2598  -16.3200 C   0  0  0  0  0  0  0  0  0  0  0  0
   27.1489  -20.5632  -16.9284 C   0  0  1  0  0  0  0  0  0  0  0  0
   28.1017  -20.3642  -17.9157 O   0  0  0  0  0  0  0  0  0  0  0  0
   27.5955  -21.5534  -15.8775 C   0  0  2  0  0  0  0  0  0  0  0  0
   28.0109  -22.7481  -16.5765 N   0  0  0  0  0  0  0  0  0  0  0  0
   26.5207  -21.8890  -14.9265 C   0  0  0  0  0  0  0  0  0  0  0  0
   25.5956  -22.6392  -15.3970 O   0  0  0  0  0  0  0  0  0  0  0  0
   26.4121  -21.4807  -13.5942 N   0  0  0  0  0  0  0  0  0  0  0  0
   27.3779  -20.6690  -12.8862 C   0  0  0  0  0  0  0  0  0  0  0  0
   26.8644  -20.4434  -11.4962 C   0  0  0  0  0  0  0  0  0  0  0  0
   25.9147  -21.5999  -11.2888 C   0  0  0  0  0  0  0  0  0  0  0  0
   25.3350  -21.7795  -12.6748 C   0  0  1  0  0  0  0  0  0  0  0  0
   24.1295  -20.9869  -12.9200 C   0  0  0  0  0  0  0  0  0  0  0  0
   24.2934  -19.7748  -13.2499 O   0  0  0  0  0  0  0  0  0  0  0  0
   22.8079  -21.4515  -12.8217 N   0  0  0  0  0  0  0  0  0  0  0  0
   21.6231  -20.6329  -13.1395 C   0  0  1  0  0  0  0  0  0  0  0  0
   21.6560  -20.1753  -14.5585 C   0  0  0  0  0  0  0  0  0  0  0  0
   21.6409  -21.3151  -15.4765 C   0  0  0  0  0  0  0  0  0  0  0  0
   21.5878  -21.0930  -16.8322 C   0  0  0  0  0  0  0  0  0  0  0  0
   21.5887  -22.1607  -17.7009 C   0  0  0  0  0  0  0  0  0  0  0  0
   21.6412  -23.4758  -17.2745 C   0  0  0  0  0  0  0  0  0  0  0  0
   21.6948  -23.7122  -15.9123 C   0  0  0  0  0  0  0  0  0  0  0  0
   21.6937  -22.6398  -15.0467 C   0  0  0  0  0  0  0  0  0  0  0  0
   20.3937  -21.2960  -12.7252 C   0  0  0  0  0  0  0  0  0  0  0  0
   20.3310  -22.5693  -12.1982 O   0  0  0  0  0  0  0  0  0  0  0  0
   19.2709  -20.6943  -12.8411 O   0  0  0  0  0  0  0  0  0  0  0  0
  2  4  1  0
  2  1  1  1
  3  2  1  0
  4  6  1  0
  4  5  1  6
  6  8  1  0
  7  6  2  0
  8 12  1  0
  8  9  1  0
  9 10  1  0
 11 10  1  0
 12 11  1  0
 13 15  1  0
 12 13  1  6
 14 13  2  0
 16 15  1  0
 16 24  1  0
 16 17  1  6
 18 23  1  0
 18 17  1  0
 19 18  2  0
 20 21  2  0
 20 19  1  0
 21 22  1  0
 22 23  2  0
 24 25  1  0
 26 24  2  0
M  END
$$$$
