TPF.pdb
     RDKit          3D

 26 27  0  0  1  0  0  0  0  0999 V2000
   23.3308  -19.2556  -13.9969 C   0  0  0  0  0  0  0  0  0  0  0  0
   23.1373  -20.6686  -14.5124 C   0  0  1  0  0  0  0  0  0  0  0  0
   22.1828  -20.7375  -15.5155 O   0  0  0  0  0  0  0  0  0  0  0  0
   24.4449  -21.3168  -14.9055 C   0  0  2  0  0  0  0  0  0  0  0  0
   24.1206  -22.6088  -15.4660 N   0  0  0  0  0  0  0  0  0  0  0  0
   25.3539  -21.4926  -13.7589 C   0  0  0  0  0  0  0  0  0  0  0  0
   25.1056  -22.5098  -13.0215 O   0  0  0  0  0  0  0  0  0  0  0  0
   26.4344  -20.6802  -13.4037 N   0  0  0  0  0  0  0  0  0  0  0  0
   26.8419  -19.4785  -14.0985 C   0  0  0  0  0  0  0  0  0  0  0  0
   28.0225  -18.9028  -13.3764 C   0  0  0  0  0  0  0  0  0  0  0  0
   28.5925  -20.0950  -12.6444 C   0  0  0  0  0  0  0  0  0  0  0  0
   27.3425  -20.8719  -12.2931 C   0  0  1  0  0  0  0  0  0  0  0  0
   26.7608  -20.5056  -11.0012 C   0  0  0  0  0  0  0  0  0  0  0  0
   25.7767  -19.7080  -11.0172 O   0  0  0  0  0  0  0  0  0  0  0  0
   27.1973  -20.9602   -9.7463 N   0  0  0  0  0  0  0  0  0  0  0  0
   26.2963  -21.2260   -8.6095 C   0  0  1  0  0  0  0  0  0  0  0  0
   27.0207  -21.9192   -7.5055 C   0  0  0  0  0  0  0  0  0  0  0  0
   27.6368  -20.9525   -6.5956 C   0  0  0  0  0  0  0  0  0  0  0  0
   27.0699  -20.7240   -5.3641 C   0  0  0  0  0  0  0  0  0  0  0  0
   27.6535  -19.8272   -4.4983 C   0  0  0  0  0  0  0  0  0  0  0  0
   28.8060  -19.1268   -4.8065 C   0  0  0  0  0  0  0  0  0  0  0  0
   29.3859  -19.3481   -6.0430 C   0  0  0  0  0  0  0  0  0  0  0  0
   28.7978  -20.2470   -6.9064 C   0  0  0  0  0  0  0  0  0  0  0  0
   25.5649  -20.0273   -8.2209 C   0  0  0  0  0  0  0  0  0  0  0  0
   24.3059  -20.0275   -7.6571 O   0  0  0  0  0  0  0  0  0  0  0  0
   26.0868  -18.8729   -8.3973 O   0  0  0  0  0  0  0  0  0  0  0  0
  2  4  1  0
  2  1  1  6
  3  2  1  0
  4  6  1  0
  4  5  1  1
  6  8  1  0
  7  6  2  0
  8 12  1  0
  8  9  1  0
  9 10  1  0
 11 10  1  0
 12 11  1  0
 13 15  1  0
 12 13  1  1
 14 13  2  0
 16 15  1  0
 16 24  1  0
 16 17  1  1
 18 23  1  0
 18 17  1  0
 19 18  2  0
 20 21  2  0
 20 19  1  0
 21 22  1  0
 22 23  2  0
 24 25  1  0
 26 24  2  0
M  END
$$$$
