TPF.pdb
     RDKit          3D

 26 27  0  0  1  0  0  0  0  0999 V2000
   23.9149  -19.0974  -15.0735 C   0  0  0  0  0  0  0  0  0  0  0  0
   23.8554  -20.4422  -15.7717 C   0  0  1  0  0  0  0  0  0  0  0  0
   23.1698  -20.3812  -16.9752 O   0  0  0  0  0  0  0  0  0  0  0  0
   25.2212  -21.0747  -15.9095 C   0  0  2  0  0  0  0  0  0  0  0  0
   25.0364  -22.3218  -16.6160 N   0  0  0  0  0  0  0  0  0  0  0  0
   25.8546  -21.3379  -14.6051 C   0  0  0  0  0  0  0  0  0  0  0  0
   25.4505  -22.3978  -14.0105 O   0  0  0  0  0  0  0  0  0  0  0  0
   26.8290  -20.5656  -13.9667 N   0  0  0  0  0  0  0  0  0  0  0  0
   27.3729  -19.3225  -14.4684 C   0  0  0  0  0  0  0  0  0  0  0  0
   28.3663  -18.8135  -13.4681 C   0  0  0  0  0  0  0  0  0  0  0  0
   28.7686  -20.0614  -12.7177 C   0  0  0  0  0  0  0  0  0  0  0  0
   27.4753  -20.8465  -12.7025 C   0  0  1  0  0  0  0  0  0  0  0  0
   26.6257  -20.5662  -11.5444 C   0  0  0  0  0  0  0  0  0  0  0  0
   25.7449  -19.6657  -11.6798 O   0  0  0  0  0  0  0  0  0  0  0  0
   26.7009  -21.2070  -10.2971 N   0  0  0  0  0  0  0  0  0  0  0  0
   25.6392  -21.1443   -9.2755 C   0  0  1  0  0  0  0  0  0  0  0  0
   26.0811  -21.7916   -8.0067 C   0  0  0  0  0  0  0  0  0  0  0  0
   26.9698  -20.9084   -7.2503 C   0  0  0  0  0  0  0  0  0  0  0  0
   26.4334  -19.8960   -6.4904 C   0  0  0  0  0  0  0  0  0  0  0  0
   27.2634  -19.0718   -5.7649 C   0  0  0  0  0  0  0  0  0  0  0  0
   28.6399  -19.2095   -5.7585 C   0  0  0  0  0  0  0  0  0  0  0  0
   29.1918  -20.2247   -6.5195 C   0  0  0  0  0  0  0  0  0  0  0  0
   28.3565  -21.0473   -7.2440 C   0  0  0  0  0  0  0  0  0  0  0  0
   25.1153  -19.7917   -9.1374 C   0  0  0  0  0  0  0  0  0  0  0  0
   23.8003  -19.4876   -8.8525 O   0  0  0  0  0  0  0  0  0  0  0  0
   25.8918  -18.7859   -9.2835 O   0  0  0  0  0  0  0  0  0  0  0  0
  2  4  1  0
  2  1  1  6
  3  2  1  0
  4  6  1  0
  4  5  1  1
  6  8  1  0
  7  6  2  0
  8 12  1  0
  8  9  1  0
  9 10  1  0
 11 10  1  0
 12 11  1  0
 13 15  1  0
 12 13  1  1
 14 13  2  0
 16 15  1  0
 16 24  1  0
 16 17  1  1
 18 23  1  0
 18 17  1  0
 19 18  2  0
 20 21  2  0
 20 19  1  0
 21 22  1  0
 22 23  2  0
 24 25  1  0
 26 24  2  0
M  END
$$$$
