TPF.pdb
     RDKit          3D

 26 27  0  0  1  0  0  0  0  0999 V2000
   18.9570  -15.9882    2.2155 C   0  0  0  0  0  0  0  0  0  0  0  0
   17.7048  -15.1597    2.4280 C   0  0  1  0  0  0  0  0  0  0  0  0
   17.3131  -14.4922    1.2777 O   0  0  0  0  0  0  0  0  0  0  0  0
   16.5849  -15.9656    3.0451 C   0  0  2  0  0  0  0  0  0  0  0  0
   15.4163  -15.1154    3.0617 N   0  0  0  0  0  0  0  0  0  0  0  0
   16.8949  -16.4020    4.4182 C   0  0  0  0  0  0  0  0  0  0  0  0
   16.6704  -15.5290    5.3279 O   0  0  0  0  0  0  0  0  0  0  0  0
   17.3974  -17.6434    4.8181 N   0  0  0  0  0  0  0  0  0  0  0  0
   17.5866  -18.7877    3.9534 C   0  0  0  0  0  0  0  0  0  0  0  0
   18.1677  -19.8987    4.7746 C   0  0  0  0  0  0  0  0  0  0  0  0
   17.7560  -19.5372    6.1824 C   0  0  0  0  0  0  0  0  0  0  0  0
   17.8216  -18.0259    6.1479 C   0  0  1  0  0  0  0  0  0  0  0  0
   19.1289  -17.4812    6.5164 C   0  0  0  0  0  0  0  0  0  0  0  0
   20.0031  -17.4113    5.6021 O   0  0  0  0  0  0  0  0  0  0  0  0
   19.4994  -17.0295    7.7934 N   0  0  0  0  0  0  0  0  0  0  0  0
   20.8061  -16.4198    8.1026 C   0  0  1  0  0  0  0  0  0  0  0  0
   20.6335  -15.0777    8.7295 C   0  0  0  0  0  0  0  0  0  0  0  0
   20.2270  -14.0838    7.7350 C   0  0  0  0  0  0  0  0  0  0  0  0
   18.8910  -13.8973    7.4698 C   0  0  0  0  0  0  0  0  0  0  0  0
   18.5021  -12.9534    6.5466 C   0  0  0  0  0  0  0  0  0  0  0  0
   19.4030  -12.1636    5.8549 C   0  0  0  0  0  0  0  0  0  0  0  0
   20.7506  -12.3419    6.1130 C   0  0  0  0  0  0  0  0  0  0  0  0
   21.1348  -13.2883    7.0382 C   0  0  0  0  0  0  0  0  0  0  0  0
   21.6635  -17.3447    8.8323 C   0  0  0  0  0  0  0  0  0  0  0  0
   23.0361  -17.2374    8.9172 O   0  0  0  0  0  0  0  0  0  0  0  0
   21.1517  -18.3404    9.4509 O   0  0  0  0  0  0  0  0  0  0  0  0
  2  4  1  0
  2  1  1  6
  3  2  1  0
  4  6  1  0
  4  5  1  1
  6  8  1  0
  7  6  2  0
  8 12  1  0
  8  9  1  0
  9 10  1  0
 11 10  1  0
 12 11  1  0
 13 15  1  0
 12 13  1  6
 14 13  2  0
 16 15  1  0
 16 24  1  0
 16 17  1  1
 18 23  1  0
 18 17  1  0
 19 18  2  0
 20 21  2  0
 20 19  1  0
 21 22  1  0
 22 23  2  0
 24 25  1  0
 26 24  2  0
M  END
$$$$
