TPF.pdb
     RDKit          3D

 26 27  0  0  1  0  0  0  0  0999 V2000
   20.4377   -9.2170  -20.4267 C   0  0  0  0  0  0  0  0  0  0  0  0
   20.4909   -9.0725  -18.9181 C   0  0  1  0  0  0  0  0  0  0  0  0
   19.4191   -8.3478  -18.4200 O   0  0  0  0  0  0  0  0  0  0  0  0
   20.6691  -10.4028  -18.2232 C   0  0  2  0  0  0  0  0  0  0  0  0
   19.4723  -11.1721  -18.4768 N   0  0  0  0  0  0  0  0  0  0  0  0
   20.8614  -10.2579  -16.7692 C   0  0  0  0  0  0  0  0  0  0  0  0
   19.7817  -10.1782  -16.0851 O   0  0  0  0  0  0  0  0  0  0  0  0
   22.0748  -10.2000  -16.0779 N   0  0  0  0  0  0  0  0  0  0  0  0
   23.3870  -10.2523  -16.6848 C   0  0  0  0  0  0  0  0  0  0  0  0
   24.4078  -10.1337  -15.5937 C   0  0  0  0  0  0  0  0  0  0  0  0
   23.6545  -10.5919  -14.3670 C   0  0  0  0  0  0  0  0  0  0  0  0
   22.2596  -10.0774  -14.6477 C   0  0  1  0  0  0  0  0  0  0  0  0
   22.0155   -8.7241  -14.1474 C   0  0  0  0  0  0  0  0  0  0  0  0
   22.1737   -8.5311  -12.9054 O   0  0  0  0  0  0  0  0  0  0  0  0
   21.6216   -7.6212  -14.9225 N   0  0  0  0  0  0  0  0  0  0  0  0
   21.4905   -6.2505  -14.3947 C   0  0  1  0  0  0  0  0  0  0  0  0
   22.8151   -5.7140  -13.9688 C   0  0  0  0  0  0  0  0  0  0  0  0
   23.7148   -5.5708  -15.1142 C   0  0  0  0  0  0  0  0  0  0  0  0
   23.8431   -4.3467  -15.7267 C   0  0  0  0  0  0  0  0  0  0  0  0
   24.6992   -4.2026  -16.7948 C   0  0  0  0  0  0  0  0  0  0  0  0
   25.4552   -5.2465  -17.2976 C   0  0  0  0  0  0  0  0  0  0  0  0
   25.3348   -6.4835  -16.6896 C   0  0  0  0  0  0  0  0  0  0  0  0
   24.4763   -6.6226  -15.6205 C   0  0  0  0  0  0  0  0  0  0  0  0
   20.7362   -5.4008  -15.3069 C   0  0  0  0  0  0  0  0  0  0  0  0
   20.3012   -4.1261  -15.0092 O   0  0  0  0  0  0  0  0  0  0  0  0
   20.4327   -5.8254  -16.4747 O   0  0  0  0  0  0  0  0  0  0  0  0
  2  4  1  0
  2  1  1  6
  3  2  1  0
  4  6  1  0
  4  5  1  1
  6  8  1  0
  7  6  2  0
  8 12  1  0
  8  9  1  0
  9 10  1  0
 11 10  1  0
 12 11  1  0
 13 15  1  0
 12 13  1  6
 14 13  2  0
 16 15  1  0
 16 24  1  0
 16 17  1  6
 18 23  1  0
 18 17  1  0
 19 18  2  0
 20 21  2  0
 20 19  1  0
 21 22  1  0
 22 23  2  0
 24 25  1  0
 26 24  2  0
M  END
$$$$
