TPF.pdb
     RDKit          3D

 26 27  0  0  1  0  0  0  0  0999 V2000
   18.6883  -11.8671  -18.4696 C   0  0  0  0  0  0  0  0  0  0  0  0
   18.5140  -10.9890  -17.2456 C   0  0  1  0  0  0  0  0  0  0  0  0
   17.2254  -11.0436  -16.7370 O   0  0  0  0  0  0  0  0  0  0  0  0
   19.5676  -11.2575  -16.1957 C   0  0  2  0  0  0  0  0  0  0  0  0
   19.4616  -12.6549  -15.8429 N   0  0  0  0  0  0  0  0  0  0  0  0
   19.3848  -10.4308  -14.9894 C   0  0  0  0  0  0  0  0  0  0  0  0
   18.4779  -10.8411  -14.1836 O   0  0  0  0  0  0  0  0  0  0  0  0
   20.0850   -9.2714  -14.6443 N   0  0  0  0  0  0  0  0  0  0  0  0
   21.1853   -8.7042  -15.3929 C   0  0  0  0  0  0  0  0  0  0  0  0
   21.6276   -7.4549  -14.6928 C   0  0  0  0  0  0  0  0  0  0  0  0
   21.1472   -7.6664  -13.2762 C   0  0  0  0  0  0  0  0  0  0  0  0
   19.8550   -8.4224  -13.4949 C   0  0  1  0  0  0  0  0  0  0  0  0
   18.6813   -7.5603  -13.6390 C   0  0  0  0  0  0  0  0  0  0  0  0
   18.1421   -7.5068  -14.7841 O   0  0  0  0  0  0  0  0  0  0  0  0
   18.1006   -6.7877  -12.6202 N   0  0  0  0  0  0  0  0  0  0  0  0
   16.9173   -5.9289  -12.8130 C   0  0  1  0  0  0  0  0  0  0  0  0
   15.6588   -6.6965  -12.5873 C   0  0  0  0  0  0  0  0  0  0  0  0
   15.4461   -6.9453  -11.1608 C   0  0  0  0  0  0  0  0  0  0  0  0
   15.7486   -8.1793  -10.6354 C   0  0  0  0  0  0  0  0  0  0  0  0
   15.5650   -8.4143   -9.2917 C   0  0  0  0  0  0  0  0  0  0  0  0
   15.0814   -7.4545   -8.4206 C   0  0  0  0  0  0  0  0  0  0  0  0
   14.7733   -6.2086   -8.9374 C   0  0  0  0  0  0  0  0  0  0  0  0
   14.9589   -5.9782  -10.2834 C   0  0  0  0  0  0  0  0  0  0  0  0
   17.0352   -4.6868  -12.0605 C   0  0  0  0  0  0  0  0  0  0  0  0
   16.2729   -3.5597  -12.2871 O   0  0  0  0  0  0  0  0  0  0  0  0
   17.8923   -4.5888  -11.1161 O   0  0  0  0  0  0  0  0  0  0  0  0
  2  4  1  0
  2  1  1  6
  3  2  1  0
  4  6  1  0
  4  5  1  1
  6  8  1  0
  7  6  2  0
  8 12  1  0
  8  9  1  0
  9 10  1  0
 11 10  1  0
 12 11  1  0
 13 15  1  0
 12 13  1  6
 14 13  2  0
 16 15  1  0
 16 24  1  0
 16 17  1  1
 18 23  1  0
 18 17  1  0
 19 18  2  0
 20 21  2  0
 20 19  1  0
 21 22  1  0
 22 23  2  0
 24 25  1  0
 26 24  2  0
M  END
$$$$
