TPF.pdb
     RDKit          3D

 26 27  0  0  1  0  0  0  0  0999 V2000
   15.4284  -13.6354  -14.9226 C   0  0  0  0  0  0  0  0  0  0  0  0
   15.9819  -12.2988  -14.4680 C   0  0  1  0  0  0  0  0  0  0  0  0
   17.0307  -12.4399  -13.5724 O   0  0  0  0  0  0  0  0  0  0  0  0
   16.3255  -11.3977  -15.6318 C   0  0  2  0  0  0  0  0  0  0  0  0
   17.3354  -12.0810  -16.4074 N   0  0  0  0  0  0  0  0  0  0  0  0
   16.8424  -10.0878  -15.1968 C   0  0  0  0  0  0  0  0  0  0  0  0
   18.1189   -9.9997  -15.1432 O   0  0  0  0  0  0  0  0  0  0  0  0
   16.0973   -8.9587  -14.8453 N   0  0  0  0  0  0  0  0  0  0  0  0
   14.6561   -8.8525  -14.9135 C   0  0  0  0  0  0  0  0  0  0  0  0
   14.2676   -7.4903  -14.4234 C   0  0  0  0  0  0  0  0  0  0  0  0
   15.5234   -6.6777  -14.6354 C   0  0  0  0  0  0  0  0  0  0  0  0
   16.6055   -7.6966  -14.3517 C   0  0  1  0  0  0  0  0  0  0  0  0
   17.0171   -7.7485  -12.9484 C   0  0  0  0  0  0  0  0  0  0  0  0
   16.3548   -8.5081  -12.1808 O   0  0  0  0  0  0  0  0  0  0  0  0
   18.0811   -7.0309  -12.3782 N   0  0  0  0  0  0  0  0  0  0  0  0
   18.4786   -7.1370  -10.9621 C   0  0  1  0  0  0  0  0  0  0  0  0
   19.9009   -7.5680  -10.8383 C   0  0  0  0  0  0  0  0  0  0  0  0
   20.7405   -6.8934  -11.8293 C   0  0  0  0  0  0  0  0  0  0  0  0
   21.2870   -7.6188  -12.8613 C   0  0  0  0  0  0  0  0  0  0  0  0
   22.0649   -6.9869  -13.8047 C   0  0  0  0  0  0  0  0  0  0  0  0
   22.3333   -5.6301  -13.7705 C   0  0  0  0  0  0  0  0  0  0  0  0
   21.7889   -4.8892  -12.7365 C   0  0  0  0  0  0  0  0  0  0  0  0
   21.0107   -5.5265  -11.7945 C   0  0  0  0  0  0  0  0  0  0  0  0
   18.1232   -5.9346  -10.2199 C   0  0  0  0  0  0  0  0  0  0  0  0
   17.7284   -4.7463  -10.7986 O   0  0  0  0  0  0  0  0  0  0  0  0
   18.1671   -5.9344   -8.9415 O   0  0  0  0  0  0  0  0  0  0  0  0
  2  4  1  0
  2  1  1  6
  3  2  1  0
  4  6  1  0
  4  5  1  6
  6  8  1  0
  7  6  2  0
  8 12  1  0
  8  9  1  0
  9 10  1  0
 11 10  1  0
 12 11  1  0
 13 15  1  0
 12 13  1  1
 14 13  2  0
 16 15  1  0
 16 24  1  0
 16 17  1  6
 18 23  1  0
 18 17  1  0
 19 18  2  0
 20 21  2  0
 20 19  1  0
 21 22  1  0
 22 23  2  0
 24 25  1  0
 26 24  2  0
M  END
$$$$
