TPF.pdb
     RDKit          3D

 26 27  0  0  1  0  0  0  0  0999 V2000
   23.1723  -19.6548  -14.0041 C   0  0  0  0  0  0  0  0  0  0  0  0
   23.1323  -20.9976  -14.7075 C   0  0  1  0  0  0  0  0  0  0  0  0
   22.2094  -21.0232  -15.7419 O   0  0  0  0  0  0  0  0  0  0  0  0
   24.5059  -21.4570  -15.1395 C   0  0  2  0  0  0  0  0  0  0  0  0
   24.3298  -22.7146  -15.8293 N   0  0  0  0  0  0  0  0  0  0  0  0
   25.4213  -21.6453  -13.9999 C   0  0  0  0  0  0  0  0  0  0  0  0
   25.2618  -22.7382  -13.3516 O   0  0  0  0  0  0  0  0  0  0  0  0
   26.4225  -20.7719  -13.5658 N   0  0  0  0  0  0  0  0  0  0  0  0
   26.7681  -19.5160  -14.1950 C   0  0  0  0  0  0  0  0  0  0  0  0
   27.8712  -18.8864  -13.3993 C   0  0  0  0  0  0  0  0  0  0  0  0
   28.4974  -20.0634  -12.6888 C   0  0  0  0  0  0  0  0  0  0  0  0
   27.2951  -20.9431  -12.4239 C   0  0  1  0  0  0  0  0  0  0  0  0
   26.6343  -20.6741  -11.1462 C   0  0  0  0  0  0  0  0  0  0  0  0
   25.6649  -19.8587  -11.1587 O   0  0  0  0  0  0  0  0  0  0  0  0
   26.9800  -21.2401   -9.9084 N   0  0  0  0  0  0  0  0  0  0  0  0
   26.1240  -21.1795   -8.7091 C   0  0  1  0  0  0  0  0  0  0  0  0
   26.7786  -21.8549   -7.5518 C   0  0  0  0  0  0  0  0  0  0  0  0
   27.5036  -20.8898   -6.7242 C   0  0  0  0  0  0  0  0  0  0  0  0
   26.9676  -20.4889   -5.5233 C   0  0  0  0  0  0  0  0  0  0  0  0
   27.6521  -19.5931   -4.7337 C   0  0  0  0  0  0  0  0  0  0  0  0
   28.8785  -19.0616   -5.0906 C   0  0  0  0  0  0  0  0  0  0  0  0
   29.4283  -19.4573   -6.2970 C   0  0  0  0  0  0  0  0  0  0  0  0
   28.7391  -20.3545   -7.0840 C   0  0  0  0  0  0  0  0  0  0  0  0
   25.6577  -19.8221   -8.4584 C   0  0  0  0  0  0  0  0  0  0  0  0
   24.4348  -19.5049   -7.9044 O   0  0  0  0  0  0  0  0  0  0  0  0
   26.3997  -18.8242   -8.7580 O   0  0  0  0  0  0  0  0  0  0  0  0
  2  4  1  0
  2  1  1  6
  3  2  1  0
  4  6  1  0
  4  5  1  1
  6  8  1  0
  7  6  2  0
  8 12  1  0
  8  9  1  0
  9 10  1  0
 11 10  1  0
 12 11  1  0
 13 15  1  0
 12 13  1  1
 14 13  2  0
 16 15  1  0
 16 24  1  0
 16 17  1  1
 18 23  1  0
 18 17  1  0
 19 18  2  0
 20 21  2  0
 20 19  1  0
 21 22  1  0
 22 23  2  0
 24 25  1  0
 26 24  2  0
M  END
$$$$
