TPF.pdb
     RDKit          3D

 26 27  0  0  1  0  0  0  0  0999 V2000
   17.1300  -11.3951  -15.1487 C   0  0  0  0  0  0  0  0  0  0  0  0
   18.0668  -12.4446  -15.7149 C   0  0  1  0  0  0  0  0  0  0  0  0
   17.5190  -13.7175  -15.6729 O   0  0  0  0  0  0  0  0  0  0  0  0
   18.5763  -12.0735  -17.0886 C   0  0  2  0  0  0  0  0  0  0  0  0
   19.3170  -13.2118  -17.5828 N   0  0  0  0  0  0  0  0  0  0  0  0
   19.4535  -10.8895  -17.0635 C   0  0  0  0  0  0  0  0  0  0  0  0
   20.6427  -11.1051  -16.6397 O   0  0  0  0  0  0  0  0  0  0  0  0
   19.1262   -9.5858  -17.4467 N   0  0  0  0  0  0  0  0  0  0  0  0
   17.8133   -9.1395  -17.8591 C   0  0  0  0  0  0  0  0  0  0  0  0
   17.8944   -7.6727  -18.1570 C   0  0  0  0  0  0  0  0  0  0  0  0
   19.3607   -7.4628  -18.4536 C   0  0  0  0  0  0  0  0  0  0  0  0
   20.0141   -8.4444  -17.5055 C   0  0  1  0  0  0  0  0  0  0  0  0
   20.3208   -7.8825  -16.1896 C   0  0  0  0  0  0  0  0  0  0  0  0
   19.4186   -7.9623  -15.3039 O   0  0  0  0  0  0  0  0  0  0  0  0
   21.5265   -7.2630  -15.8226 N   0  0  0  0  0  0  0  0  0  0  0  0
   21.8302   -6.8010  -14.4555 C   0  0  1  0  0  0  0  0  0  0  0  0
   22.6801   -7.7916  -13.7342 C   0  0  0  0  0  0  0  0  0  0  0  0
   23.8179   -8.2032  -14.5576 C   0  0  0  0  0  0  0  0  0  0  0  0
   24.4823   -7.2660  -15.3128 C   0  0  0  0  0  0  0  0  0  0  0  0
   25.5625   -7.6445  -16.0774 C   0  0  0  0  0  0  0  0  0  0  0  0
   26.0269   -8.9466  -16.1288 C   0  0  0  0  0  0  0  0  0  0  0  0
   25.3664   -9.8990  -15.3731 C   0  0  0  0  0  0  0  0  0  0  0  0
   24.2855   -9.5151  -14.6093 C   0  0  0  0  0  0  0  0  0  0  0  0
   22.3304   -5.4324  -14.4570 C   0  0  0  0  0  0  0  0  0  0  0  0
   22.5957   -4.6954  -13.3216 O   0  0  0  0  0  0  0  0  0  0  0  0
   22.5520   -4.8326  -15.5648 O   0  0  0  0  0  0  0  0  0  0  0  0
  2  4  1  0
  2  1  1  6
  3  2  1  0
  4  6  1  0
  4  5  1  1
  6  8  1  0
  7  6  2  0
  8 12  1  0
  8  9  1  0
  9 10  1  0
 11 10  1  0
 12 11  1  0
 13 15  1  0
 12 13  1  1
 14 13  2  0
 16 15  1  0
 16 24  1  0
 16 17  1  6
 18 23  1  0
 18 17  1  0
 19 18  2  0
 20 21  2  0
 20 19  1  0
 21 22  1  0
 22 23  2  0
 24 25  1  0
 26 24  2  0
M  END
$$$$
