TPF.pdb
     RDKit          3D

 26 27  0  0  1  0  0  0  0  0999 V2000
   24.9262  -15.0115  -14.4162 C   0  0  0  0  0  0  0  0  0  0  0  0
   23.7067  -15.5180  -15.1618 C   0  0  1  0  0  0  0  0  0  0  0  0
   22.8753  -14.4877  -15.5734 O   0  0  0  0  0  0  0  0  0  0  0  0
   24.0751  -16.4560  -16.2882 C   0  0  2  0  0  0  0  0  0  0  0  0
   22.8523  -16.7647  -16.9938 N   0  0  0  0  0  0  0  0  0  0  0  0
   24.6915  -17.7039  -15.8036 C   0  0  0  0  0  0  0  0  0  0  0  0
   23.8741  -18.5528  -15.3020 O   0  0  0  0  0  0  0  0  0  0  0  0
   26.0462  -18.0463  -15.8355 N   0  0  0  0  0  0  0  0  0  0  0  0
   27.1117  -17.2009  -16.3285 C   0  0  0  0  0  0  0  0  0  0  0  0
   28.4055  -17.9381  -16.1579 C   0  0  0  0  0  0  0  0  0  0  0  0
   27.9728  -19.3846  -16.1070 C   0  0  0  0  0  0  0  0  0  0  0  0
   26.6436  -19.2872  -15.3906 C   0  0  1  0  0  0  0  0  0  0  0  0
   26.7466  -19.3895  -13.9345 C   0  0  0  0  0  0  0  0  0  0  0  0
   27.0281  -18.3295  -13.3004 O   0  0  0  0  0  0  0  0  0  0  0  0
   26.5610  -20.5584  -13.1787 N   0  0  0  0  0  0  0  0  0  0  0  0
   26.7487  -20.6311  -11.7178 C   0  0  1  0  0  0  0  0  0  0  0  0
   25.8662  -19.6540  -11.0174 C   0  0  0  0  0  0  0  0  0  0  0  0
   25.9785  -19.7949   -9.5649 C   0  0  0  0  0  0  0  0  0  0  0  0
   26.7781  -18.9272   -8.8594 C   0  0  0  0  0  0  0  0  0  0  0  0
   26.8756  -19.0454   -7.4916 C   0  0  0  0  0  0  0  0  0  0  0  0
   26.1971  -20.0120   -6.7710 C   0  0  0  0  0  0  0  0  0  0  0  0
   25.3891  -20.8913   -7.4698 C   0  0  0  0  0  0  0  0  0  0  0  0
   25.2949  -20.7688   -8.8392 C   0  0  0  0  0  0  0  0  0  0  0  0
   26.6629  -22.0049  -11.2398 C   0  0  0  0  0  0  0  0  0  0  0  0
   27.5405  -22.5770  -10.3424 O   0  0  0  0  0  0  0  0  0  0  0  0
   25.7261  -22.7704  -11.6551 O   0  0  0  0  0  0  0  0  0  0  0  0
  2  4  1  0
  2  1  1  6
  3  2  1  0
  4  6  1  0
  4  5  1  1
  6  8  1  0
  7  6  2  0
  8 12  1  0
  8  9  1  0
  9 10  1  0
 11 10  1  0
 12 11  1  0
 13 15  1  0
 12 13  1  1
 14 13  2  0
 16 15  1  0
 16 24  1  0
 16 17  1  1
 18 23  1  0
 18 17  1  0
 19 18  2  0
 20 21  2  0
 20 19  1  0
 21 22  1  0
 22 23  2  0
 24 25  1  0
 26 24  2  0
M  END
$$$$
