TPF.pdb
     RDKit          3D

 26 27  0  0  1  0  0  0  0  0999 V2000
   28.5039  -26.6198  -16.7960 C   0  0  0  0  0  0  0  0  0  0  0  0
   28.6460  -26.1171  -18.2197 C   0  0  1  0  0  0  0  0  0  0  0  0
   28.9985  -24.7773  -18.2727 O   0  0  0  0  0  0  0  0  0  0  0  0
   29.5586  -26.9938  -19.0461 C   0  0  2  0  0  0  0  0  0  0  0  0
   29.5088  -26.4918  -20.4004 N   0  0  0  0  0  0  0  0  0  0  0  0
   29.1465  -28.4087  -19.0309 C   0  0  0  0  0  0  0  0  0  0  0  0
   27.9960  -28.6436  -19.5422 O   0  0  0  0  0  0  0  0  0  0  0  0
   29.8678  -29.4945  -18.5266 N   0  0  0  0  0  0  0  0  0  0  0  0
   31.1604  -29.4137  -17.8820 C   0  0  0  0  0  0  0  0  0  0  0  0
   31.5617  -30.7984  -17.4718 C   0  0  0  0  0  0  0  0  0  0  0  0
   30.7573  -31.6783  -18.3996 C   0  0  0  0  0  0  0  0  0  0  0  0
   29.4756  -30.8875  -18.5458 C   0  0  1  0  0  0  0  0  0  0  0  0
   28.4596  -31.2156  -17.5450 C   0  0  0  0  0  0  0  0  0  0  0  0
   28.6261  -30.7479  -16.3795 O   0  0  0  0  0  0  0  0  0  0  0  0
   27.3172  -32.0027  -17.7627 N   0  0  0  0  0  0  0  0  0  0  0  0
   26.3111  -32.2959  -16.7252 C   0  0  1  0  0  0  0  0  0  0  0  0
   24.9466  -31.8999  -17.1784 C   0  0  0  0  0  0  0  0  0  0  0  0
   24.9153  -30.4920  -17.5768 C   0  0  0  0  0  0  0  0  0  0  0  0
   24.7786  -29.5184  -16.6158 C   0  0  0  0  0  0  0  0  0  0  0  0
   24.7638  -28.1920  -16.9830 C   0  0  0  0  0  0  0  0  0  0  0  0
   24.8817  -27.7751  -18.2969 C   0  0  0  0  0  0  0  0  0  0  0  0
   25.0198  -28.7456  -19.2733 C   0  0  0  0  0  0  0  0  0  0  0  0
   25.0341  -30.0723  -18.9005 C   0  0  0  0  0  0  0  0  0  0  0  0
   26.4352  -33.6632  -16.2375 C   0  0  0  0  0  0  0  0  0  0  0  0
   27.3158  -34.5970  -16.7428 O   0  0  0  0  0  0  0  0  0  0  0  0
   25.6957  -34.0702  -15.2764 O   0  0  0  0  0  0  0  0  0  0  0  0
  2  4  1  0
  2  1  1  1
  3  2  1  0
  4  6  1  0
  4  5  1  6
  6  8  1  0
  7  6  2  0
  8 12  1  0
  8  9  1  0
  9 10  1  0
 11 10  1  0
 12 11  1  0
 13 15  1  0
 12 13  1  1
 14 13  2  0
 16 15  1  0
 16 24  1  0
 16 17  1  6
 18 23  1  0
 18 17  1  0
 19 18  2  0
 20 21  2  0
 20 19  1  0
 21 22  1  0
 22 23  2  0
 24 25  1  0
 26 24  2  0
M  END
$$$$
