NKA.pdb
     RDKit          3D

 23 22  0  0  1  0  0  0  0  0999 V2000
   15.7939   -3.7944  -21.2310 N   0  0  0  0  0  0  0  0  0  0  0  0
   15.8233   -5.2122  -21.2611 C   0  0  0  0  0  0  0  0  0  0  0  0
   15.6022   -5.8049  -22.3341 O   0  0  0  0  0  0  0  0  0  0  0  0
   16.1171   -5.9452  -20.0148 C   0  0  0  0  0  0  0  0  0  0  0  0
   16.0843   -7.4303  -20.2084 C   0  0  2  0  0  0  0  0  0  0  0  0
   14.7788   -7.9393  -20.5365 N   0  0  0  0  0  0  0  0  0  0  0  0
   16.7531   -8.1648  -19.1256 C   0  0  0  0  0  0  0  0  0  0  0  0
   16.1234   -8.3167  -18.0464 O   0  0  0  0  0  0  0  0  0  0  0  0
   18.0573   -8.7059  -19.2303 N   0  0  0  0  0  0  0  0  0  0  0  0
   18.6201   -9.5196  -18.1891 C   0  0  1  0  0  0  0  0  0  0  0  0
   19.3235  -10.7587  -18.6965 C   0  0  0  0  0  0  0  0  0  0  0  0
   19.8476  -11.6298  -17.6036 C   0  0  0  0  0  0  0  0  0  0  0  0
   20.5690  -12.7987  -18.2453 C   0  0  0  0  0  0  0  0  0  0  0  0
   21.1299  -13.7475  -17.2297 C   0  0  0  0  0  0  0  0  0  0  0  0
   21.8951  -14.8157  -17.7930 N   0  0  0  0  0  0  0  0  0  0  0  0
   19.5433   -8.7065  -17.3836 C   0  0  0  0  0  0  0  0  0  0  0  0
   20.4203   -8.0152  -17.9518 O   0  0  0  0  0  0  0  0  0  0  0  0
   20.1562   -8.0503  -13.6767 C   0  0  0  0  0  0  0  0  0  0  0  0
   20.4126   -7.9129  -15.1521 C   0  0  2  0  0  0  0  0  0  0  0  0
   19.5008   -8.6548  -15.9647 N   0  0  0  0  0  0  0  0  0  0  0  0
   21.8097   -8.3266  -15.4472 C   0  0  0  0  0  0  0  0  0  0  0  0
   21.9732   -9.4441  -15.9971 O   0  0  0  0  0  0  0  0  0  0  0  0
   22.8904   -7.4930  -15.1185 O   0  0  0  0  0  0  0  0  0  0  0  0
  2  1  1  0
  3  2  2  0
  4  5  1  0
  4  2  1  0
  5  7  1  0
  5  6  1  1
  7  8  2  0
  9 10  1  0
  9  7  1  0
 11 12  1  0
 10 11  1  6
 12 13  1  0
 14 13  1  0
 15 14  1  0
 16 10  1  0
 16 17  2  0
 19 18  1  1
 19 20  1  0
 19 21  1  0
 20 16  1  0
 21 22  2  0
 21 23  1  0
M  END
$$$$
