NKA.pdb
     RDKit          3D

 23 22  0  0  1  0  0  0  0  0999 V2000
   18.7701  -19.8007  -12.9398 N   0  0  0  0  0  0  0  0  0  0  0  0
   19.4027  -18.6728  -12.3572 C   0  0  0  0  0  0  0  0  0  0  0  0
   19.0588  -18.2997  -11.2196 O   0  0  0  0  0  0  0  0  0  0  0  0
   20.4543  -17.9731  -13.1195 C   0  0  0  0  0  0  0  0  0  0  0  0
   20.5644  -18.4746  -14.5267 C   0  0  2  0  0  0  0  0  0  0  0  0
   20.9648  -19.8540  -14.6166 N   0  0  0  0  0  0  0  0  0  0  0  0
   21.3336  -17.5752  -15.3978 C   0  0  0  0  0  0  0  0  0  0  0  0
   22.4291  -17.1345  -14.9617 O   0  0  0  0  0  0  0  0  0  0  0  0
   20.9116  -17.1806  -16.6904 N   0  0  0  0  0  0  0  0  0  0  0  0
   21.7740  -16.4427  -17.5708 C   0  0  1  0  0  0  0  0  0  0  0  0
   21.2005  -16.2372  -18.9551 C   0  0  0  0  0  0  0  0  0  0  0  0
   22.1388  -15.5442  -19.8864 C   0  0  0  0  0  0  0  0  0  0  0  0
   23.0893  -16.5831  -20.4482 C   0  0  0  0  0  0  0  0  0  0  0  0
   24.1057  -15.9833  -21.3720 C   0  0  0  0  0  0  0  0  0  0  0  0
   24.8994  -16.9478  -22.0675 N   0  0  0  0  0  0  0  0  0  0  0  0
   22.0974  -15.1456  -16.9582 C   0  0  0  0  0  0  0  0  0  0  0  0
   21.1911  -14.4708  -16.4168 O   0  0  0  0  0  0  0  0  0  0  0  0
   25.2385  -13.1915  -16.1038 C   0  0  0  0  0  0  0  0  0  0  0  0
   23.7602  -13.3575  -16.3237 C   0  0  2  0  0  0  0  0  0  0  0  0
   23.4073  -14.5967  -16.9418 N   0  0  0  0  0  0  0  0  0  0  0  0
   23.2553  -12.2207  -17.1381 C   0  0  0  0  0  0  0  0  0  0  0  0
   23.3729  -12.3117  -18.3854 O   0  0  0  0  0  0  0  0  0  0  0  0
   22.6747  -11.0995  -16.5245 O   0  0  0  0  0  0  0  0  0  0  0  0
  2  1  1  0
  3  2  2  0
  4  5  1  0
  4  2  1  0
  5  7  1  0
  5  6  1  1
  7  8  2  0
  9 10  1  0
  9  7  1  0
 11 12  1  0
 10 11  1  6
 12 13  1  0
 14 13  1  0
 15 14  1  0
 16 10  1  0
 16 17  2  0
 19 18  1  6
 19 20  1  0
 19 21  1  0
 20 16  1  0
 21 22  2  0
 21 23  1  0
M  END
$$$$
