NKA.pdb
     RDKit          3D

 23 22  0  0  1  0  0  0  0  0999 V2000
   20.9038  -13.8668  -16.0860 N   0  0  0  0  0  0  0  0  0  0  0  0
   21.2021  -12.5990  -16.6478 C   0  0  0  0  0  0  0  0  0  0  0  0
   22.3761  -12.3345  -16.9691 O   0  0  0  0  0  0  0  0  0  0  0  0
   20.1073  -11.6280  -16.8361 C   0  0  0  0  0  0  0  0  0  0  0  0
   18.7889  -12.1604  -16.3648 C   0  0  2  0  0  0  0  0  0  0  0  0
   18.3454  -13.3226  -17.0884 N   0  0  0  0  0  0  0  0  0  0  0  0
   17.7631  -11.1166  -16.2318 C   0  0  0  0  0  0  0  0  0  0  0  0
   17.0761  -10.8392  -17.2493 O   0  0  0  0  0  0  0  0  0  0  0  0
   17.5088  -10.4118  -15.0304 N   0  0  0  0  0  0  0  0  0  0  0  0
   16.4587   -9.4361  -14.9385 C   0  0  1  0  0  0  0  0  0  0  0  0
   15.4732   -9.7043  -13.8230 C   0  0  0  0  0  0  0  0  0  0  0  0
   14.4562  -10.7404  -14.1697 C   0  0  0  0  0  0  0  0  0  0  0  0
   13.5456  -10.9187  -12.9708 C   0  0  0  0  0  0  0  0  0  0  0  0
   12.5535  -12.0243  -13.1697 C   0  0  0  0  0  0  0  0  0  0  0  0
   11.7551  -12.3028  -12.0168 N   0  0  0  0  0  0  0  0  0  0  0  0
   17.0511   -8.0994  -14.7811 C   0  0  0  0  0  0  0  0  0  0  0  0
   17.8623   -7.8847  -13.8508 O   0  0  0  0  0  0  0  0  0  0  0  0
   17.1413   -4.8574  -16.7592 C   0  0  0  0  0  0  0  0  0  0  0  0
   17.3364   -5.7088  -15.5350 C   0  0  2  0  0  0  0  0  0  0  0  0
   16.7529   -7.0090  -15.6411 N   0  0  0  0  0  0  0  0  0  0  0  0
   16.7848   -4.9984  -14.3512 C   0  0  0  0  0  0  0  0  0  0  0  0
   15.7592   -5.4872  -13.8153 O   0  0  0  0  0  0  0  0  0  0  0  0
   17.3950   -3.8314  -13.8649 O   0  0  0  0  0  0  0  0  0  0  0  0
  2  1  1  0
  3  2  2  0
  4  5  1  0
  4  2  1  0
  5  7  1  0
  5  6  1  6
  7  8  2  0
  9 10  1  0
  9  7  1  0
 11 12  1  0
 10 11  1  1
 12 13  1  0
 14 13  1  0
 15 14  1  0
 16 10  1  0
 16 17  2  0
 19 18  1  6
 19 20  1  0
 19 21  1  0
 20 16  1  0
 21 22  2  0
 21 23  1  0
M  END
$$$$
