NKA.pdb
     RDKit          3D

 23 22  0  0  1  0  0  0  0  0999 V2000
   15.1526  -12.3909  -14.8813 N   0  0  0  0  0  0  0  0  0  0  0  0
   16.4681  -12.4457  -14.3535 C   0  0  0  0  0  0  0  0  0  0  0  0
   16.7531  -13.3203  -13.5137 O   0  0  0  0  0  0  0  0  0  0  0  0
   17.4635  -11.4609  -14.8183 C   0  0  0  0  0  0  0  0  0  0  0  0
   16.8644  -10.4356  -15.7314 C   0  0  2  0  0  0  0  0  0  0  0  0
   16.4558  -10.9673  -17.0047 N   0  0  0  0  0  0  0  0  0  0  0  0
   17.6735   -9.2129  -15.8305 C   0  0  0  0  0  0  0  0  0  0  0  0
   18.7138   -9.2561  -16.5378 O   0  0  0  0  0  0  0  0  0  0  0  0
   17.3484   -7.9992  -15.1780 N   0  0  0  0  0  0  0  0  0  0  0  0
   18.1084   -6.8002  -15.3972 C   0  0  1  0  0  0  0  0  0  0  0  0
   17.2801   -5.5357  -15.3474 C   0  0  0  0  0  0  0  0  0  0  0  0
   16.2695   -5.4480  -16.4423 C   0  0  0  0  0  0  0  0  0  0  0  0
   15.4969   -4.1563  -16.2605 C   0  0  0  0  0  0  0  0  0  0  0  0
   14.4905   -3.9376  -17.3494 C   0  0  0  0  0  0  0  0  0  0  0  0
   14.8550   -4.5206  -18.6030 N   0  0  0  0  0  0  0  0  0  0  0  0
   19.1993   -6.7308  -14.4135 C   0  0  0  0  0  0  0  0  0  0  0  0
   18.9469   -6.8722  -13.1945 O   0  0  0  0  0  0  0  0  0  0  0  0
   22.9258   -6.9611  -14.3113 C   0  0  0  0  0  0  0  0  0  0  0  0
   21.6280   -6.3694  -13.8345 C   0  0  2  0  0  0  0  0  0  0  0  0
   20.5562   -6.5080  -14.7695 N   0  0  0  0  0  0  0  0  0  0  0  0
   21.8351   -4.9342  -13.5068 C   0  0  0  0  0  0  0  0  0  0  0  0
   21.2740   -4.0896  -14.2483 O   0  0  0  0  0  0  0  0  0  0  0  0
   22.6276   -4.5544  -12.4120 O   0  0  0  0  0  0  0  0  0  0  0  0
  2  1  1  0
  3  2  2  0
  4  5  1  0
  4  2  1  0
  5  7  1  0
  5  6  1  6
  7  8  2  0
  9 10  1  0
  9  7  1  0
 11 12  1  0
 10 11  1  1
 12 13  1  0
 14 13  1  0
 15 14  1  0
 16 10  1  0
 16 17  2  0
 19 18  1  6
 19 20  1  0
 19 21  1  0
 20 16  1  0
 21 22  2  0
 21 23  1  0
M  END
$$$$
