NKA.pdb
     RDKit          3D

 23 22  0  0  1  0  0  0  0  0999 V2000
   13.9099  -14.1034  -15.3703 N   0  0  0  0  0  0  0  0  0  0  0  0
   14.5078  -13.4601  -14.2565 C   0  0  0  0  0  0  0  0  0  0  0  0
   13.8423  -13.2959  -13.2164 O   0  0  0  0  0  0  0  0  0  0  0  0
   15.9067  -13.0036  -14.3640 C   0  0  0  0  0  0  0  0  0  0  0  0
   16.5080  -13.3256  -15.6977 C   0  0  2  0  0  0  0  0  0  0  0  0
   16.7442  -14.7309  -15.8985 N   0  0  0  0  0  0  0  0  0  0  0  0
   17.6615  -12.4767  -16.0269 C   0  0  0  0  0  0  0  0  0  0  0  0
   18.8005  -12.8726  -15.6662 O   0  0  0  0  0  0  0  0  0  0  0  0
   17.5607  -11.2472  -16.7219 N   0  0  0  0  0  0  0  0  0  0  0  0
   18.7277  -10.5122  -17.1234 C   0  0  1  0  0  0  0  0  0  0  0  0
   18.5695   -9.7905  -18.4431 C   0  0  0  0  0  0  0  0  0  0  0  0
   19.7961   -9.0506  -18.8625 C   0  0  0  0  0  0  0  0  0  0  0  0
   19.5082   -8.3901  -20.1964 C   0  0  0  0  0  0  0  0  0  0  0  0
   20.6967   -7.6516  -20.7334 C   0  0  0  0  0  0  0  0  0  0  0  0
   20.4256   -6.8970  -21.9171 N   0  0  0  0  0  0  0  0  0  0  0  0
   19.0883   -9.5583  -16.0639 C   0  0  0  0  0  0  0  0  0  0  0  0
   18.1916   -8.8955  -15.4927 O   0  0  0  0  0  0  0  0  0  0  0  0
   22.1103   -8.8660  -13.9144 C   0  0  0  0  0  0  0  0  0  0  0  0
   20.7991   -8.4907  -14.5479 C   0  0  2  0  0  0  0  0  0  0  0  0
   20.4249   -9.3368  -15.6371 N   0  0  0  0  0  0  0  0  0  0  0  0
   20.8608   -7.0759  -15.0003 C   0  0  0  0  0  0  0  0  0  0  0  0
   20.8481   -6.8686  -16.2392 O   0  0  0  0  0  0  0  0  0  0  0  0
   20.9305   -6.0267  -14.0702 O   0  0  0  0  0  0  0  0  0  0  0  0
  2  1  1  0
  3  2  2  0
  4  5  1  0
  4  2  1  0
  5  7  1  0
  5  6  1  1
  7  8  2  0
  9 10  1  0
  9  7  1  0
 11 12  1  0
 10 11  1  6
 12 13  1  0
 14 13  1  0
 15 14  1  0
 16 10  1  0
 16 17  2  0
 19 18  1  6
 19 20  1  0
 19 21  1  0
 20 16  1  0
 21 22  2  0
 21 23  1  0
M  END
$$$$
