NKA.pdb
     RDKit          3D

 23 22  0  0  1  0  0  0  0  0999 V2000
   28.4916  -11.9518  -15.8293 N   0  0  0  0  0  0  0  0  0  0  0  0
   27.0884  -12.1293  -15.7230 C   0  0  0  0  0  0  0  0  0  0  0  0
   26.6348  -13.2554  -15.4443 O   0  0  0  0  0  0  0  0  0  0  0  0
   26.2047  -10.9691  -15.9459 C   0  0  0  0  0  0  0  0  0  0  0  0
   24.9246  -11.3522  -16.6231 C   0  0  2  0  0  0  0  0  0  0  0  0
   25.1162  -11.9744  -17.9065 N   0  0  0  0  0  0  0  0  0  0  0  0
   23.9330  -10.2677  -16.6312 C   0  0  0  0  0  0  0  0  0  0  0  0
   24.0447   -9.3800  -17.5164 O   0  0  0  0  0  0  0  0  0  0  0  0
   22.8678  -10.1686  -15.7036 N   0  0  0  0  0  0  0  0  0  0  0  0
   21.8746   -9.1360  -15.8061 C   0  0  1  0  0  0  0  0  0  0  0  0
   20.5068   -9.5548  -15.3149 C   0  0  0  0  0  0  0  0  0  0  0  0
   19.8537  -10.5763  -16.1854 C   0  0  0  0  0  0  0  0  0  0  0  0
   18.4954  -10.8942  -15.5917 C   0  0  0  0  0  0  0  0  0  0  0  0
   17.7738  -11.9591  -16.3608 C   0  0  0  0  0  0  0  0  0  0  0  0
   16.4628  -12.2448  -15.8673 N   0  0  0  0  0  0  0  0  0  0  0  0
   22.3342   -7.9466  -15.0737 C   0  0  0  0  0  0  0  0  0  0  0  0
   22.7747   -8.0669  -13.9070 O   0  0  0  0  0  0  0  0  0  0  0  0
   22.9252   -4.2732  -15.8790 C   0  0  0  0  0  0  0  0  0  0  0  0
   22.8551   -5.4798  -14.9841 C   0  0  2  0  0  0  0  0  0  0  0  0
   22.3093   -6.6364  -15.6217 N   0  0  0  0  0  0  0  0  0  0  0  0
   22.0623   -5.1451  -13.7718 C   0  0  0  0  0  0  0  0  0  0  0  0
   20.8876   -5.5863  -13.7146 O   0  0  0  0  0  0  0  0  0  0  0  0
   22.6167   -4.3673  -12.7430 O   0  0  0  0  0  0  0  0  0  0  0  0
  2  1  1  0
  3  2  2  0
  4  5  1  0
  4  2  1  0
  5  7  1  0
  5  6  1  6
  7  8  2  0
  9 10  1  0
  9  7  1  0
 11 12  1  0
 10 11  1  1
 12 13  1  0
 14 13  1  0
 15 14  1  0
 16 10  1  0
 16 17  2  0
 19 18  1  6
 19 20  1  0
 19 21  1  0
 20 16  1  0
 21 22  2  0
 21 23  1  0
M  END
$$$$
