NKA.pdb
     RDKit          3D

 23 22  0  0  1  0  0  0  0  0999 V2000
   25.0414  -21.2180   -8.4198 N   0  0  0  0  0  0  0  0  0  0  0  0
   25.4727  -21.0271   -9.7575 C   0  0  0  0  0  0  0  0  0  0  0  0
   26.4888  -21.6231  -10.1624 O   0  0  0  0  0  0  0  0  0  0  0  0
   24.7006  -20.1248  -10.6330 C   0  0  0  0  0  0  0  0  0  0  0  0
   24.4464  -20.7234  -11.9825 C   0  0  2  0  0  0  0  0  0  0  0  0
   25.6411  -21.1716  -12.6478 N   0  0  0  0  0  0  0  0  0  0  0  0
   23.5747  -19.8918  -12.8239 C   0  0  0  0  0  0  0  0  0  0  0  0
   23.1455  -18.8142  -12.3352 O   0  0  0  0  0  0  0  0  0  0  0  0
   23.1946  -20.2354  -14.1439 N   0  0  0  0  0  0  0  0  0  0  0  0
   22.4154  -19.3450  -14.9582 C   0  0  1  0  0  0  0  0  0  0  0  0
   22.6006  -19.5583  -16.4441 C   0  0  0  0  0  0  0  0  0  0  0  0
   23.9561  -20.0699  -16.8030 C   0  0  0  0  0  0  0  0  0  0  0  0
   23.9785  -20.3202  -18.2980 C   0  0  0  0  0  0  0  0  0  0  0  0
   25.3102  -20.8195  -18.7710 C   0  0  0  0  0  0  0  0  0  0  0  0
   25.3609  -21.1012  -20.1718 N   0  0  0  0  0  0  0  0  0  0  0  0
   20.9953  -19.4778  -14.6001 C   0  0  0  0  0  0  0  0  0  0  0  0
   20.5205  -20.6101  -14.3505 O   0  0  0  0  0  0  0  0  0  0  0  0
   18.1090  -17.1275  -13.8175 C   0  0  0  0  0  0  0  0  0  0  0  0
   18.7386  -18.4611  -14.1119 C   0  0  2  0  0  0  0  0  0  0  0  0
   20.1062  -18.3732  -14.5171 N   0  0  0  0  0  0  0  0  0  0  0  0
   17.9424  -19.1590  -15.1556 C   0  0  0  0  0  0  0  0  0  0  0  0
   18.3180  -19.0280  -16.3471 O   0  0  0  0  0  0  0  0  0  0  0  0
   16.8203  -19.9279  -14.8086 O   0  0  0  0  0  0  0  0  0  0  0  0
  2  1  1  0
  3  2  2  0
  4  5  1  0
  4  2  1  0
  5  7  1  0
  5  6  1  6
  7  8  2  0
  9 10  1  0
  9  7  1  0
 11 12  1  0
 10 11  1  6
 12 13  1  0
 14 13  1  0
 15 14  1  0
 16 10  1  0
 16 17  2  0
 19 18  1  6
 19 20  1  0
 19 21  1  0
 20 16  1  0
 21 22  2  0
 21 23  1  0
M  END
$$$$
