NKA.pdb
     RDKit          3D

 23 22  0  0  1  0  0  0  0  0999 V2000
   14.9051  -13.2583  -16.1436 N   0  0  0  0  0  0  0  0  0  0  0  0
   15.6976  -13.5992  -15.0177 C   0  0  0  0  0  0  0  0  0  0  0  0
   15.2477  -14.3967  -14.1733 O   0  0  0  0  0  0  0  0  0  0  0  0
   17.0374  -12.9967  -14.8810 C   0  0  0  0  0  0  0  0  0  0  0  0
   17.3339  -12.0175  -15.9751 C   0  0  2  0  0  0  0  0  0  0  0  0
   17.3235  -12.6027  -17.2899 N   0  0  0  0  0  0  0  0  0  0  0  0
   18.5192  -11.1931  -15.7016 C   0  0  0  0  0  0  0  0  0  0  0  0
   18.7342  -10.8562  -14.5080 O   0  0  0  0  0  0  0  0  0  0  0  0
   19.4246  -10.7607  -16.7006 N   0  0  0  0  0  0  0  0  0  0  0  0
   20.5982   -9.9998  -16.3739 C   0  0  1  0  0  0  0  0  0  0  0  0
   21.7385  -10.1889  -17.3494 C   0  0  0  0  0  0  0  0  0  0  0  0
   22.2729  -11.5824  -17.3705 C   0  0  0  0  0  0  0  0  0  0  0  0
   23.4322  -11.6218  -18.3466 C   0  0  0  0  0  0  0  0  0  0  0  0
   23.9987  -13.0007  -18.5013 C   0  0  0  0  0  0  0  0  0  0  0  0
   25.1696  -13.0594  -19.3196 N   0  0  0  0  0  0  0  0  0  0  0  0
   20.2425   -8.5761  -16.2796 C   0  0  0  0  0  0  0  0  0  0  0  0
   19.6928   -8.0071  -17.2511 O   0  0  0  0  0  0  0  0  0  0  0  0
   19.0247   -5.9866  -14.3217 C   0  0  0  0  0  0  0  0  0  0  0  0
   20.2827   -6.3743  -15.0486 C   0  0  2  0  0  0  0  0  0  0  0  0
   20.4895   -7.7862  -15.1252 N   0  0  0  0  0  0  0  0  0  0  0  0
   21.4477   -5.7241  -14.3927 C   0  0  0  0  0  0  0  0  0  0  0  0
   21.4674   -4.4682  -14.3721 O   0  0  0  0  0  0  0  0  0  0  0  0
   22.4750   -6.4945  -13.8253 O   0  0  0  0  0  0  0  0  0  0  0  0
  2  1  1  0
  3  2  2  0
  4  5  1  0
  4  2  1  0
  5  7  1  0
  5  6  1  6
  7  8  2  0
  9 10  1  0
  9  7  1  0
 11 12  1  0
 10 11  1  6
 12 13  1  0
 14 13  1  0
 15 14  1  0
 16 10  1  0
 16 17  2  0
 19 18  1  1
 19 20  1  0
 19 21  1  0
 20 16  1  0
 21 22  2  0
 21 23  1  0
M  END
$$$$
