NKA.pdb
     RDKit          3D

 23 22  0  0  1  0  0  0  0  0999 V2000
   25.0024  -13.3932  -16.5285 N   0  0  0  0  0  0  0  0  0  0  0  0
   25.6126  -12.2133  -16.0310 C   0  0  0  0  0  0  0  0  0  0  0  0
   26.6943  -12.2967  -15.4192 O   0  0  0  0  0  0  0  0  0  0  0  0
   24.9446  -10.9170  -16.2551 C   0  0  0  0  0  0  0  0  0  0  0  0
   23.6394  -11.0678  -16.9746 C   0  0  2  0  0  0  0  0  0  0  0  0
   23.7607  -11.7038  -18.2598 N   0  0  0  0  0  0  0  0  0  0  0  0
   22.8505   -9.8283  -16.9976 C   0  0  0  0  0  0  0  0  0  0  0  0
   22.9133   -9.1145  -18.0325 O   0  0  0  0  0  0  0  0  0  0  0  0
   22.0308   -9.3973  -15.9267 N   0  0  0  0  0  0  0  0  0  0  0  0
   21.2328   -8.2067  -16.0219 C   0  0  1  0  0  0  0  0  0  0  0  0
   19.7853   -8.4102  -15.6335 C   0  0  0  0  0  0  0  0  0  0  0  0
   18.9550   -7.1788  -15.7826 C   0  0  0  0  0  0  0  0  0  0  0  0
   17.5396   -7.5174  -15.3579 C   0  0  0  0  0  0  0  0  0  0  0  0
   16.6049   -6.3567  -15.5180 C   0  0  0  0  0  0  0  0  0  0  0  0
   15.3065   -6.5753  -14.9607 N   0  0  0  0  0  0  0  0  0  0  0  0
   21.8361   -7.1511  -15.1948 C   0  0  0  0  0  0  0  0  0  0  0  0
   22.1645   -7.3999  -14.0116 O   0  0  0  0  0  0  0  0  0  0  0  0
   23.0939   -3.5993  -15.7338 C   0  0  0  0  0  0  0  0  0  0  0  0
   22.7349   -4.8101  -14.9174 C   0  0  2  0  0  0  0  0  0  0  0  0
   22.0762   -5.8331  -15.6669 N   0  0  0  0  0  0  0  0  0  0  0  0
   21.8863   -4.3933  -13.7701 C   0  0  0  0  0  0  0  0  0  0  0  0
   20.6445   -4.5389  -13.8922 O   0  0  0  0  0  0  0  0  0  0  0  0
   22.4629   -3.8607  -12.6062 O   0  0  0  0  0  0  0  0  0  0  0  0
  2  1  1  0
  3  2  2  0
  4  5  1  0
  4  2  1  0
  5  7  1  0
  5  6  1  6
  7  8  2  0
  9 10  1  0
  9  7  1  0
 11 12  1  0
 10 11  1  1
 12 13  1  0
 14 13  1  0
 15 14  1  0
 16 10  1  0
 16 17  2  0
 19 18  1  6
 19 20  1  0
 19 21  1  0
 20 16  1  0
 21 22  2  0
 21 23  1  0
M  END
$$$$
