NKA.pdb
     RDKit          3D

 23 22  0  0  1  0  0  0  0  0999 V2000
   18.0142  -20.9892  -14.1547 N   0  0  0  0  0  0  0  0  0  0  0  0
   18.3870  -20.5815  -12.8482 C   0  0  0  0  0  0  0  0  0  0  0  0
   17.5053  -20.4263  -11.9822 O   0  0  0  0  0  0  0  0  0  0  0  0
   19.8145  -20.3536  -12.5533 C   0  0  0  0  0  0  0  0  0  0  0  0
   20.6788  -20.5241  -13.7649 C   0  0  2  0  0  0  0  0  0  0  0  0
   20.4560  -21.7637  -14.4611 N   0  0  0  0  0  0  0  0  0  0  0  0
   22.0959  -20.2362  -13.5037 C   0  0  0  0  0  0  0  0  0  0  0  0
   22.3705  -19.1944  -12.8528 O   0  0  0  0  0  0  0  0  0  0  0  0
   23.1602  -21.0608  -13.9420 N   0  0  0  0  0  0  0  0  0  0  0  0
   24.5327  -20.6834  -13.7499 C   0  0  1  0  0  0  0  0  0  0  0  0
   25.4879  -21.8554  -13.7132 C   0  0  0  0  0  0  0  0  0  0  0  0
   26.7740  -21.5479  -13.0209 C   0  0  0  0  0  0  0  0  0  0  0  0
   26.4654  -21.2867  -11.5597 C   0  0  0  0  0  0  0  0  0  0  0  0
   27.6854  -20.8954  -10.7821 C   0  0  0  0  0  0  0  0  0  0  0  0
   27.4387  -20.6611   -9.3934 N   0  0  0  0  0  0  0  0  0  0  0  0
   24.9285  -19.7395  -14.8057 C   0  0  0  0  0  0  0  0  0  0  0  0
   24.5246  -19.9140  -15.9788 O   0  0  0  0  0  0  0  0  0  0  0  0
   26.9785  -16.5334  -15.0447 C   0  0  0  0  0  0  0  0  0  0  0  0
   26.1844  -17.6929  -15.5798 C   0  0  2  0  0  0  0  0  0  0  0  0
   25.7614  -18.6130  -14.5714 N   0  0  0  0  0  0  0  0  0  0  0  0
   26.9866  -18.4017  -16.6114 C   0  0  0  0  0  0  0  0  0  0  0  0
   27.7587  -19.3095  -16.2141 O   0  0  0  0  0  0  0  0  0  0  0  0
   26.8756  -18.0593  -17.9683 O   0  0  0  0  0  0  0  0  0  0  0  0
  2  1  1  0
  3  2  2  0
  4  5  1  0
  4  2  1  0
  5  7  1  0
  5  6  1  1
  7  8  2  0
  9 10  1  0
  9  7  1  0
 11 12  1  0
 10 11  1  6
 12 13  1  0
 14 13  1  0
 15 14  1  0
 16 10  1  0
 16 17  2  0
 19 18  1  1
 19 20  1  0
 19 21  1  0
 20 16  1  0
 21 22  2  0
 21 23  1  0
M  END
$$$$
