NKA.pdb
     RDKit          3D

 23 22  0  0  1  0  0  0  0  0999 V2000
   23.4990  -14.2623  -18.2729 N   0  0  0  0  0  0  0  0  0  0  0  0
   24.0940  -12.9812  -18.1438 C   0  0  0  0  0  0  0  0  0  0  0  0
   25.3354  -12.8804  -18.1573 O   0  0  0  0  0  0  0  0  0  0  0  0
   23.2202  -11.8014  -17.9976 C   0  0  0  0  0  0  0  0  0  0  0  0
   23.5014  -11.0390  -16.7392 C   0  0  2  0  0  0  0  0  0  0  0  0
   23.6657  -11.8786  -15.5820 N   0  0  0  0  0  0  0  0  0  0  0  0
   22.5780   -9.9150  -16.5309 C   0  0  0  0  0  0  0  0  0  0  0  0
   22.4930   -9.0516  -17.4428 O   0  0  0  0  0  0  0  0  0  0  0  0
   21.7857   -9.7525  -15.3687 N   0  0  0  0  0  0  0  0  0  0  0  0
   20.8892   -8.6404  -15.2189 C   0  0  1  0  0  0  0  0  0  0  0  0
   19.5854   -8.9956  -14.5396 C   0  0  0  0  0  0  0  0  0  0  0  0
   18.7003   -9.8597  -15.3749 C   0  0  0  0  0  0  0  0  0  0  0  0
   17.4158  -10.0934  -14.6043 C   0  0  0  0  0  0  0  0  0  0  0  0
   16.5033  -11.0582  -15.2991 C   0  0  0  0  0  0  0  0  0  0  0  0
   16.6725  -11.0986  -16.7182 N   0  0  0  0  0  0  0  0  0  0  0  0
   21.5690   -7.5654  -14.4809 C   0  0  0  0  0  0  0  0  0  0  0  0
   22.2021   -7.8344  -13.4337 O   0  0  0  0  0  0  0  0  0  0  0  0
   23.3651   -4.5684  -15.1389 C   0  0  0  0  0  0  0  0  0  0  0  0
   22.2934   -5.1585  -14.2644 C   0  0  2  0  0  0  0  0  0  0  0  0
   21.5521   -6.2062  -14.8929 N   0  0  0  0  0  0  0  0  0  0  0  0
   21.3728   -4.0785  -13.8214 C   0  0  0  0  0  0  0  0  0  0  0  0
   20.2055   -4.0933  -14.2855 O   0  0  0  0  0  0  0  0  0  0  0  0
   21.8043   -3.0904  -12.9224 O   0  0  0  0  0  0  0  0  0  0  0  0
  2  1  1  0
  3  2  2  0
  4  5  1  0
  4  2  1  0
  5  7  1  0
  5  6  1  1
  7  8  2  0
  9 10  1  0
  9  7  1  0
 11 12  1  0
 10 11  1  1
 12 13  1  0
 14 13  1  0
 15 14  1  0
 16 10  1  0
 16 17  2  0
 19 18  1  6
 19 20  1  0
 19 21  1  0
 20 16  1  0
 21 22  2  0
 21 23  1  0
M  END
$$$$
