YVQ.pdb
     RDKit          3D

 29 29  0  0  1  0  0  0  0  0999 V2000
    5.9509  -20.7879   18.8768 O   0  0  0  0  0  0  0  0  0  0  0  0
    6.4421  -19.9185   19.8496 C   0  0  0  0  0  0  0  0  0  0  0  0
    6.7164  -20.3690   21.1227 C   0  0  0  0  0  0  0  0  0  0  0  0
    7.2068  -19.4877   22.0842 C   0  0  0  0  0  0  0  0  0  0  0  0
    7.4247  -18.1575   21.7810 C   0  0  0  0  0  0  0  0  0  0  0  0
    7.9474  -17.2463   22.8295 C   0  0  0  0  0  0  0  0  0  0  0  0
    7.8091  -15.8268   22.3349 C   0  0  2  0  0  0  0  0  0  0  0  0
    8.5947  -15.6882   21.1339 N   0  0  0  0  0  0  0  0  0  0  0  0
    8.3557  -14.9387   23.4194 C   0  0  0  0  0  0  0  0  0  0  0  0
    9.5878  -14.7301   23.4813 O   0  0  0  0  0  0  0  0  0  0  0  0
    7.1383  -17.7499   20.5005 C   0  0  0  0  0  0  0  0  0  0  0  0
    6.6541  -18.5960   19.5316 C   0  0  0  0  0  0  0  0  0  0  0  0
    7.0419  -12.4685   27.5455 C   0  0  0  0  0  0  0  0  0  0  0  0
    6.7828  -12.9427   26.1459 C   0  0  1  0  0  0  0  0  0  0  0  0
    6.2856  -11.8859   25.2328 C   0  0  0  0  0  0  0  0  0  0  0  0
    7.9554  -13.7487   25.6250 C   0  0  2  0  0  0  0  0  0  0  0  0
    7.4838  -14.3397   24.3659 N   0  0  0  0  0  0  0  0  0  0  0  0
    8.2984  -14.8707   26.5651 C   0  0  0  0  0  0  0  0  0  0  0  0
    7.4029  -15.6966   26.9346 O   0  0  0  0  0  0  0  0  0  0  0  0
   12.3671  -17.8230   25.0530 N   0  0  0  0  0  0  0  0  0  0  0  0
   12.9731  -17.1678   26.1555 C   0  0  0  0  0  0  0  0  0  0  0  0
   14.1828  -16.8851   26.0914 O   0  0  0  0  0  0  0  0  0  0  0  0
   12.2180  -16.8102   27.3751 C   0  0  0  0  0  0  0  0  0  0  0  0
   10.7846  -17.2239   27.2620 C   0  0  0  0  0  0  0  0  0  0  0  0
    9.8620  -16.2385   27.9153 C   0  0  2  0  0  0  0  0  0  0  0  0
    9.5973  -15.0777   27.0850 N   0  0  0  0  0  0  0  0  0  0  0  0
   10.5396  -15.7546   29.1599 C   0  0  0  0  0  0  0  0  0  0  0  0
   10.8660  -16.6431   30.1727 O   0  0  0  0  0  0  0  0  0  0  0  0
   10.8318  -14.5474   29.3276 O   0  0  0  0  0  0  0  0  0  0  0  0
  2  1  1  0
  3  2  2  0
  4  3  1  0
  5  4  2  0
  5 11  1  0
  6  5  1  0
  7  9  1  0
  7  6  1  0
  7  8  1  6
  9 17  1  0
 10  9  2  0
 11 12  2  0
 12  2  1  0
 14 13  1  1
 14 15  1  0
 16 14  1  0
 16 18  1  0
 16 17  1  6
 18 26  1  0
 18 19  2  0
 20 21  1  0
 21 23  1  0
 22 21  2  0
 23 24  1  0
 25 24  1  6
 25 27  1  0
 26 25  1  0
 27 29  2  0
 27 28  1  0
M  END
$$$$
