YVQ.pdb
     RDKit          3D

 29 29  0  0  1  0  0  0  0  0999 V2000
    9.4884  -21.4490   12.6956 O   0  0  0  0  0  0  0  0  0  0  0  0
    9.7207  -20.6331   13.8019 C   0  0  0  0  0  0  0  0  0  0  0  0
    8.6703  -20.0778   14.5000 C   0  0  0  0  0  0  0  0  0  0  0  0
    8.9186  -19.2643   15.6037 C   0  0  0  0  0  0  0  0  0  0  0  0
   10.2114  -19.0016   16.0142 C   0  0  0  0  0  0  0  0  0  0  0  0
   10.4397  -18.1303   17.1937 C   0  0  0  0  0  0  0  0  0  0  0  0
   10.3211  -16.6923   16.7501 C   0  0  2  0  0  0  0  0  0  0  0  0
   11.4224  -16.3996   15.8668 N   0  0  0  0  0  0  0  0  0  0  0  0
   10.4134  -15.8499   17.9933 C   0  0  0  0  0  0  0  0  0  0  0  0
   11.5346  -15.6194   18.4985 O   0  0  0  0  0  0  0  0  0  0  0  0
   11.2291  -19.5749   15.2905 C   0  0  0  0  0  0  0  0  0  0  0  0
   11.0147  -20.3813   14.1983 C   0  0  0  0  0  0  0  0  0  0  0  0
    7.7355  -12.9917   21.0501 C   0  0  0  0  0  0  0  0  0  0  0  0
    8.0456  -13.6135   19.7203 C   0  0  1  0  0  0  0  0  0  0  0  0
    8.0537  -12.6523   18.5917 C   0  0  0  0  0  0  0  0  0  0  0  0
    9.2639  -14.5094   19.8161 C   0  0  2  0  0  0  0  0  0  0  0  0
    9.2405  -15.3187   18.5907 N   0  0  0  0  0  0  0  0  0  0  0  0
    9.1565  -15.4417   20.9907 C   0  0  0  0  0  0  0  0  0  0  0  0
    8.2617  -16.3470   21.0135 O   0  0  0  0  0  0  0  0  0  0  0  0
   13.7464  -18.1306   24.0410 N   0  0  0  0  0  0  0  0  0  0  0  0
   13.2548  -18.1873   22.7116 C   0  0  0  0  0  0  0  0  0  0  0  0
   13.9465  -18.7467   21.8420 O   0  0  0  0  0  0  0  0  0  0  0  0
   11.9518  -17.6058   22.3252 C   0  0  0  0  0  0  0  0  0  0  0  0
   11.2759  -16.9705   23.4991 C   0  0  0  0  0  0  0  0  0  0  0  0
    9.9355  -16.4036   23.1370 C   0  0  2  0  0  0  0  0  0  0  0  0
   10.0150  -15.3781   22.1128 N   0  0  0  0  0  0  0  0  0  0  0  0
    9.3770  -15.7635   24.3701 C   0  0  0  0  0  0  0  0  0  0  0  0
    9.0259  -16.5372   25.4656 O   0  0  0  0  0  0  0  0  0  0  0  0
    9.2101  -14.5243   24.4549 O   0  0  0  0  0  0  0  0  0  0  0  0
  2  1  1  0
  3  2  2  0
  4  3  1  0
  5  4  2  0
  5 11  1  0
  6  5  1  0
  7  9  1  0
  7  6  1  0
  7  8  1  6
  9 17  1  0
 10  9  2  0
 11 12  2  0
 12  2  1  0
 14 13  1  1
 14 15  1  0
 16 14  1  0
 16 18  1  0
 16 17  1  6
 18 26  1  0
 18 19  2  0
 20 21  1  0
 21 23  1  0
 22 21  2  0
 23 24  1  0
 25 24  1  1
 25 27  1  0
 26 25  1  0
 27 29  2  0
 27 28  1  0
M  END
$$$$
