YVQ.pdb
     RDKit          3D

 29 29  0  0  1  0  0  0  0  0999 V2000
    6.5914  -10.9368   27.0002 O   0  0  0  0  0  0  0  0  0  0  0  0
    6.6546  -12.3235   26.8715 C   0  0  0  0  0  0  0  0  0  0  0  0
    7.8640  -12.9815   26.9291 C   0  0  0  0  0  0  0  0  0  0  0  0
    7.9109  -14.3681   26.7987 C   0  0  0  0  0  0  0  0  0  0  0  0
    6.7554  -15.1017   26.6104 C   0  0  0  0  0  0  0  0  0  0  0  0
    6.8419  -16.5771   26.4748 C   0  0  0  0  0  0  0  0  0  0  0  0
    6.2259  -16.9680   25.1532 C   0  0  2  0  0  0  0  0  0  0  0  0
    5.8105  -18.3460   25.2383 N   0  0  0  0  0  0  0  0  0  0  0  0
    7.3030  -16.8125   24.1143 C   0  0  0  0  0  0  0  0  0  0  0  0
    8.2130  -17.6679   24.0387 O   0  0  0  0  0  0  0  0  0  0  0  0
    5.5712  -14.4067   26.5590 C   0  0  0  0  0  0  0  0  0  0  0  0
    5.4942  -13.0402   26.6847 C   0  0  0  0  0  0  0  0  0  0  0  0
    8.8455  -13.8750   20.3967 C   0  0  0  0  0  0  0  0  0  0  0  0
    7.7965  -14.3178   21.3738 C   0  0  1  0  0  0  0  0  0  0  0  0
    6.4289  -14.3789   20.8047 C   0  0  0  0  0  0  0  0  0  0  0  0
    8.2438  -15.5597   22.1177 C   0  0  2  0  0  0  0  0  0  0  0  0
    7.2899  -15.7064   23.2248 N   0  0  0  0  0  0  0  0  0  0  0  0
    9.6140  -15.3708   22.7070 C   0  0  0  0  0  0  0  0  0  0  0  0
    9.8446  -14.4032   23.5016 O   0  0  0  0  0  0  0  0  0  0  0  0
   12.7894  -18.0974   26.6168 N   0  0  0  0  0  0  0  0  0  0  0  0
   12.0220  -18.7131   25.5949 C   0  0  0  0  0  0  0  0  0  0  0  0
   11.5972  -19.8675   25.7798 O   0  0  0  0  0  0  0  0  0  0  0  0
   11.7106  -18.0312   24.3207 C   0  0  0  0  0  0  0  0  0  0  0  0
   12.2176  -16.6235   24.3249 C   0  0  0  0  0  0  0  0  0  0  0  0
   12.0056  -15.9458   23.0040 C   0  0  2  0  0  0  0  0  0  0  0  0
   10.7036  -16.2282   22.4279 N   0  0  0  0  0  0  0  0  0  0  0  0
   13.0388  -16.4800   22.0608 C   0  0  0  0  0  0  0  0  0  0  0  0
   12.6597  -17.1957   20.9357 O   0  0  0  0  0  0  0  0  0  0  0  0
   14.2645  -16.3014   22.2518 O   0  0  0  0  0  0  0  0  0  0  0  0
  2  1  1  0
  3  2  2  0
  4  3  1  0
  5  4  2  0
  5 11  1  0
  6  5  1  0
  7  9  1  0
  7  6  1  0
  7  8  1  1
  9 17  1  0
 10  9  2  0
 11 12  2  0
 12  2  1  0
 14 13  1  6
 14 15  1  0
 16 14  1  0
 16 18  1  0
 16 17  1  1
 18 26  1  0
 18 19  2  0
 20 21  1  0
 21 23  1  0
 22 21  2  0
 23 24  1  0
 25 24  1  1
 25 27  1  0
 26 25  1  0
 27 29  2  0
 27 28  1  0
M  END
$$$$
