YVQ.pdb
     RDKit          3D

 29 29  0  0  1  0  0  0  0  0999 V2000
   10.5635  -13.8453   30.3489 O   0  0  0  0  0  0  0  0  0  0  0  0
   10.2004  -14.5953   29.2312 C   0  0  0  0  0  0  0  0  0  0  0  0
   10.5081  -15.9363   29.1530 C   0  0  0  0  0  0  0  0  0  0  0  0
   10.1385  -16.6726   28.0291 C   0  0  0  0  0  0  0  0  0  0  0  0
    9.4631  -16.0763   26.9818 C   0  0  0  0  0  0  0  0  0  0  0  0
    9.0851  -16.8902   25.7996 C   0  0  0  0  0  0  0  0  0  0  0  0
    7.6191  -16.6650   25.5190 C   0  0  2  0  0  0  0  0  0  0  0  0
    6.8797  -17.7803   26.0558 N   0  0  0  0  0  0  0  0  0  0  0  0
    7.4708  -16.6145   24.0226 C   0  0  0  0  0  0  0  0  0  0  0  0
    7.1767  -17.6579   23.3978 O   0  0  0  0  0  0  0  0  0  0  0  0
    9.1760  -14.7378   27.1001 C   0  0  0  0  0  0  0  0  0  0  0  0
    9.5274  -13.9864   28.1961 C   0  0  0  0  0  0  0  0  0  0  0  0
    8.3143  -12.9847   22.3480 C   0  0  0  0  0  0  0  0  0  0  0  0
    7.2604  -13.7803   21.6355 C   0  0  1  0  0  0  0  0  0  0  0  0
    7.0610  -13.3870   20.2201 C   0  0  0  0  0  0  0  0  0  0  0  0
    7.4533  -15.2642   21.8738 C   0  0  2  0  0  0  0  0  0  0  0  0
    7.6613  -15.3949   23.3218 N   0  0  0  0  0  0  0  0  0  0  0  0
    8.6893  -15.7654   21.1798 C   0  0  0  0  0  0  0  0  0  0  0  0
    8.7650  -15.7484   19.9092 O   0  0  0  0  0  0  0  0  0  0  0  0
   14.1537  -14.9587   23.8754 N   0  0  0  0  0  0  0  0  0  0  0  0
   13.6571  -16.2827   23.7633 C   0  0  0  0  0  0  0  0  0  0  0  0
   14.3726  -17.2240   24.1497 O   0  0  0  0  0  0  0  0  0  0  0  0
   12.3214  -16.5813   23.2045 C   0  0  0  0  0  0  0  0  0  0  0  0
   12.2706  -16.2804   21.7398 C   0  0  0  0  0  0  0  0  0  0  0  0
   10.9761  -16.7170   21.1209 C   0  0  2  0  0  0  0  0  0  0  0  0
    9.8149  -16.2724   21.8698 N   0  0  0  0  0  0  0  0  0  0  0  0
   10.9659  -18.2144   21.1245 C   0  0  0  0  0  0  0  0  0  0  0  0
   10.0115  -18.9085   21.8519 O   0  0  0  0  0  0  0  0  0  0  0  0
   11.8067  -18.8834   20.4793 O   0  0  0  0  0  0  0  0  0  0  0  0
  2  1  1  0
  3  2  2  0
  4  3  1  0
  5  4  2  0
  5 11  1  0
  6  5  1  0
  7  9  1  0
  7  6  1  0
  7  8  1  6
  9 17  1  0
 10  9  2  0
 11 12  2  0
 12  2  1  0
 14 13  1  6
 14 15  1  0
 16 14  1  0
 16 18  1  0
 16 17  1  1
 18 26  1  0
 18 19  2  0
 20 21  1  0
 21 23  1  0
 22 21  2  0
 23 24  1  0
 25 24  1  1
 25 27  1  0
 26 25  1  0
 27 29  2  0
 27 28  1  0
M  END
$$$$
