YVQ.pdb
     RDKit          3D

 29 29  0  0  1  0  0  0  0  0999 V2000
    5.6132  -10.1266   27.6373 O   0  0  0  0  0  0  0  0  0  0  0  0
    6.1091  -11.3321   27.1429 C   0  0  0  0  0  0  0  0  0  0  0  0
    6.8590  -11.3639   25.9872 C   0  0  0  0  0  0  0  0  0  0  0  0
    7.3476  -12.5767   25.5056 C   0  0  0  0  0  0  0  0  0  0  0  0
    7.0908  -13.7592   26.1722 C   0  0  0  0  0  0  0  0  0  0  0  0
    7.6263  -15.0332   25.6309 C   0  0  0  0  0  0  0  0  0  0  0  0
    6.6176  -15.5956   24.6588 C   0  0  2  0  0  0  0  0  0  0  0  0
    6.0291  -16.7723   25.2486 N   0  0  0  0  0  0  0  0  0  0  0  0
    7.3788  -15.9628   23.4141 C   0  0  0  0  0  0  0  0  0  0  0  0
    7.7875  -17.1361   23.2663 O   0  0  0  0  0  0  0  0  0  0  0  0
    6.3395  -13.6830   27.3202 C   0  0  0  0  0  0  0  0  0  0  0  0
    5.8447  -12.5017   27.8190 C   0  0  0  0  0  0  0  0  0  0  0  0
    9.1516  -14.1211   19.1314 C   0  0  0  0  0  0  0  0  0  0  0  0
    8.3119  -14.0027   20.3691 C   0  0  1  0  0  0  0  0  0  0  0  0
    6.9680  -13.4228   20.1336 C   0  0  0  0  0  0  0  0  0  0  0  0
    8.3290  -15.2970   21.1569 C   0  0  2  0  0  0  0  0  0  0  0  0
    7.6325  -14.9893   22.4128 N   0  0  0  0  0  0  0  0  0  0  0  0
    9.7365  -15.7043   21.4940 C   0  0  0  0  0  0  0  0  0  0  0  0
   10.4107  -15.0423   22.3472 O   0  0  0  0  0  0  0  0  0  0  0  0
   11.0641  -20.0122   24.2239 N   0  0  0  0  0  0  0  0  0  0  0  0
   12.3579  -20.0596   23.6442 C   0  0  0  0  0  0  0  0  0  0  0  0
   13.2826  -20.5859   24.2888 O   0  0  0  0  0  0  0  0  0  0  0  0
   12.6442  -19.5062   22.3036 C   0  0  0  0  0  0  0  0  0  0  0  0
   11.4175  -18.9015   21.6971 C   0  0  0  0  0  0  0  0  0  0  0  0
   11.5304  -17.4116   21.5677 C   0  0  2  0  0  0  0  0  0  0  0  0
   10.3849  -16.8148   20.9054 N   0  0  0  0  0  0  0  0  0  0  0  0
   12.7341  -17.1300   20.7227 C   0  0  0  0  0  0  0  0  0  0  0  0
   12.5883  -16.7356   19.4018 O   0  0  0  0  0  0  0  0  0  0  0  0
   13.8987  -17.2386   21.1729 O   0  0  0  0  0  0  0  0  0  0  0  0
  2  1  1  0
  3  2  2  0
  4  3  1  0
  5  4  2  0
  5 11  1  0
  6  5  1  0
  7  9  1  0
  7  6  1  0
  7  8  1  1
  9 17  1  0
 10  9  2  0
 11 12  2  0
 12  2  1  0
 14 13  1  6
 14 15  1  0
 16 14  1  0
 16 18  1  0
 16 17  1  1
 18 26  1  0
 18 19  2  0
 20 21  1  0
 21 23  1  0
 22 21  2  0
 23 24  1  0
 25 24  1  6
 25 27  1  0
 26 25  1  0
 27 29  2  0
 27 28  1  0
M  END
$$$$
