YVQ.pdb
     RDKit          3D

 29 29  0  0  1  0  0  0  0  0999 V2000
    3.5882  -22.6406   22.3340 O   0  0  0  0  0  0  0  0  0  0  0  0
    4.4384  -21.6350   22.7915 C   0  0  0  0  0  0  0  0  0  0  0  0
    5.8032  -21.7406   22.6326 C   0  0  0  0  0  0  0  0  0  0  0  0
    6.6400  -20.7271   23.0953 C   0  0  0  0  0  0  0  0  0  0  0  0
    6.1209  -19.6077   23.7168 C   0  0  0  0  0  0  0  0  0  0  0  0
    7.0412  -18.5474   24.1980 C   0  0  0  0  0  0  0  0  0  0  0  0
    6.7413  -17.2789   23.4368 C   0  0  2  0  0  0  0  0  0  0  0  0
    7.1021  -17.4845   22.0561 N   0  0  0  0  0  0  0  0  0  0  0  0
    7.5979  -16.2009   24.0433 C   0  0  0  0  0  0  0  0  0  0  0  0
    8.7639  -16.0316   23.6221 O   0  0  0  0  0  0  0  0  0  0  0  0
    4.7554  -19.5421   23.8549 C   0  0  0  0  0  0  0  0  0  0  0  0
    3.9054  -20.5257   23.4085 C   0  0  0  0  0  0  0  0  0  0  0  0
    7.5605  -12.4302   27.2940 C   0  0  0  0  0  0  0  0  0  0  0  0
    6.8816  -13.4097   26.3825 C   0  0  1  0  0  0  0  0  0  0  0  0
    5.9134  -12.7913   25.4455 C   0  0  0  0  0  0  0  0  0  0  0  0
    7.8922  -14.3425   25.7464 C   0  0  2  0  0  0  0  0  0  0  0  0
    7.0908  -15.3801   25.0844 N   0  0  0  0  0  0  0  0  0  0  0  0
    8.7432  -15.0089   26.7915 C   0  0  0  0  0  0  0  0  0  0  0  0
    8.2051  -15.7105   27.7074 O   0  0  0  0  0  0  0  0  0  0  0  0
   13.1138  -15.4942   24.1637 N   0  0  0  0  0  0  0  0  0  0  0  0
   13.4833  -16.3626   25.2228 C   0  0  0  0  0  0  0  0  0  0  0  0
   14.6716  -16.7185   25.3168 O   0  0  0  0  0  0  0  0  0  0  0  0
   12.5069  -16.8577   26.2162 C   0  0  0  0  0  0  0  0  0  0  0  0
   12.3469  -15.8879   27.3442 C   0  0  0  0  0  0  0  0  0  0  0  0
   10.9118  -15.7288   27.7493 C   0  0  2  0  0  0  0  0  0  0  0  0
   10.1532  -14.9051   26.8258 N   0  0  0  0  0  0  0  0  0  0  0  0
   10.9002  -15.0394   29.0786 C   0  0  0  0  0  0  0  0  0  0  0  0
   10.3050  -13.7954   29.2195 O   0  0  0  0  0  0  0  0  0  0  0  0
   11.4199  -15.5549   30.0959 O   0  0  0  0  0  0  0  0  0  0  0  0
  2  1  1  0
  3  2  2  0
  4  3  1  0
  5  4  2  0
  5 11  1  0
  6  5  1  0
  7  9  1  0
  7  6  1  0
  7  8  1  6
  9 17  1  0
 10  9  2  0
 11 12  2  0
 12  2  1  0
 14 13  1  6
 14 15  1  0
 16 14  1  0
 16 18  1  0
 16 17  1  1
 18 26  1  0
 18 19  2  0
 20 21  1  0
 21 23  1  0
 22 21  2  0
 23 24  1  0
 25 24  1  6
 25 27  1  0
 26 25  1  0
 27 29  2  0
 27 28  1  0
M  END
$$$$
