YVQ.pdb
     RDKit          3D

 29 29  0  0  1  0  0  0  0  0999 V2000
    7.0916  -20.3056   17.6218 O   0  0  0  0  0  0  0  0  0  0  0  0
    7.5822  -19.5600   18.6928 C   0  0  0  0  0  0  0  0  0  0  0  0
    8.9190  -19.2346   18.7703 C   0  0  0  0  0  0  0  0  0  0  0  0
    9.3944  -18.4888   19.8471 C   0  0  0  0  0  0  0  0  0  0  0  0
    8.5411  -18.0662   20.8481 C   0  0  0  0  0  0  0  0  0  0  0  0
    9.0812  -17.2738   21.9809 C   0  0  0  0  0  0  0  0  0  0  0  0
    8.3592  -15.9487   22.0186 C   0  0  2  0  0  0  0  0  0  0  0  0
    8.6708  -15.2298   20.8083 N   0  0  0  0  0  0  0  0  0  0  0  0
    8.8870  -15.2055   23.2156 C   0  0  0  0  0  0  0  0  0  0  0  0
   10.1182  -15.0128   23.3265 O   0  0  0  0  0  0  0  0  0  0  0  0
    7.2164  -18.4120   20.7323 C   0  0  0  0  0  0  0  0  0  0  0  0
    6.7190  -19.1461   19.6821 C   0  0  0  0  0  0  0  0  0  0  0  0
    7.5414  -12.7091   27.3026 C   0  0  0  0  0  0  0  0  0  0  0  0
    7.2838  -13.2585   25.9305 C   0  0  1  0  0  0  0  0  0  0  0  0
    6.7837  -12.2536   24.9620 C   0  0  0  0  0  0  0  0  0  0  0  0
    8.4587  -14.0880   25.4536 C   0  0  2  0  0  0  0  0  0  0  0  0
    7.9985  -14.7246   24.2126 N   0  0  0  0  0  0  0  0  0  0  0  0
    8.7867  -15.1748   26.4393 C   0  0  0  0  0  0  0  0  0  0  0  0
    7.8590  -15.8821   26.9491 O   0  0  0  0  0  0  0  0  0  0  0  0
   12.8304  -19.7494   25.3604 N   0  0  0  0  0  0  0  0  0  0  0  0
   12.8340  -18.3497   25.5907 C   0  0  0  0  0  0  0  0  0  0  0  0
   13.9081  -17.7303   25.4903 O   0  0  0  0  0  0  0  0  0  0  0  0
   11.6079  -17.6038   25.9451 C   0  0  0  0  0  0  0  0  0  0  0  0
   11.4986  -17.4190   27.4258 C   0  0  0  0  0  0  0  0  0  0  0  0
   10.3336  -16.5515   27.7995 C   0  0  2  0  0  0  0  0  0  0  0  0
   10.1054  -15.4753   26.8526 N   0  0  0  0  0  0  0  0  0  0  0  0
   10.6533  -15.9254   29.1217 C   0  0  0  0  0  0  0  0  0  0  0  0
   10.8083  -16.7124   30.2523 O   0  0  0  0  0  0  0  0  0  0  0  0
   10.7907  -14.6864   29.2512 O   0  0  0  0  0  0  0  0  0  0  0  0
  2  1  1  0
  3  2  2  0
  4  3  1  0
  5  4  2  0
  5 11  1  0
  6  5  1  0
  7  9  1  0
  7  6  1  0
  7  8  1  6
  9 17  1  0
 10  9  2  0
 11 12  2  0
 12  2  1  0
 14 13  1  1
 14 15  1  0
 16 14  1  0
 16 18  1  0
 16 17  1  6
 18 26  1  0
 18 19  2  0
 20 21  1  0
 21 23  1  0
 22 21  2  0
 23 24  1  0
 25 24  1  6
 25 27  1  0
 26 25  1  0
 27 29  2  0
 27 28  1  0
M  END
$$$$
