YVQ.pdb
     RDKit          3D

 29 29  0  0  1  0  0  0  0  0999 V2000
    7.4044  -14.5240   15.5227 O   0  0  0  0  0  0  0  0  0  0  0  0
    7.5567  -14.2865   16.8880 C   0  0  0  0  0  0  0  0  0  0  0  0
    7.7027  -15.3329   17.7727 C   0  0  0  0  0  0  0  0  0  0  0  0
    7.8539  -15.0793   19.1345 C   0  0  0  0  0  0  0  0  0  0  0  0
    7.8597  -13.7852   19.6181 C   0  0  0  0  0  0  0  0  0  0  0  0
    8.0224  -13.5512   21.0746 C   0  0  0  0  0  0  0  0  0  0  0  0
    8.2138  -14.8875   21.7503 C   0  0  2  0  0  0  0  0  0  0  0  0
    6.9405  -15.5630   21.7845 N   0  0  0  0  0  0  0  0  0  0  0  0
    8.6870  -14.5981   23.1489 C   0  0  0  0  0  0  0  0  0  0  0  0
    9.9095  -14.6542   23.4089 O   0  0  0  0  0  0  0  0  0  0  0  0
    7.7114  -12.7715   18.7024 C   0  0  0  0  0  0  0  0  0  0  0  0
    7.5607  -12.9911   17.3540 C   0  0  0  0  0  0  0  0  0  0  0  0
    7.2908  -12.7198   27.5238 C   0  0  0  0  0  0  0  0  0  0  0  0
    7.0040  -13.1386   26.1119 C   0  0  1  0  0  0  0  0  0  0  0  0
    6.5013  -12.0439   25.2478 C   0  0  0  0  0  0  0  0  0  0  0  0
    8.1603  -13.9344   25.5412 C   0  0  2  0  0  0  0  0  0  0  0  0
    7.7572  -14.2630   24.1677 N   0  0  0  0  0  0  0  0  0  0  0  0
    8.3495  -15.2237   26.2909 C   0  0  0  0  0  0  0  0  0  0  0  0
    7.3793  -16.0367   26.4271 O   0  0  0  0  0  0  0  0  0  0  0  0
   11.9142  -21.1439   26.0769 N   0  0  0  0  0  0  0  0  0  0  0  0
   12.0956  -19.8040   26.5059 C   0  0  0  0  0  0  0  0  0  0  0  0
   13.1687  -19.2324   26.2430 O   0  0  0  0  0  0  0  0  0  0  0  0
   11.0554  -19.0655   27.2529 C   0  0  0  0  0  0  0  0  0  0  0  0
   10.7675  -17.7444   26.6124 C   0  0  0  0  0  0  0  0  0  0  0  0
    9.7434  -16.9601   27.3774 C   0  0  2  0  0  0  0  0  0  0  0  0
    9.5784  -15.6081   26.8758 N   0  0  0  0  0  0  0  0  0  0  0  0
   10.2280  -16.8583   28.7906 C   0  0  0  0  0  0  0  0  0  0  0  0
   10.1128  -17.9382   29.6522 O   0  0  0  0  0  0  0  0  0  0  0  0
   10.7476  -15.8092   29.2380 O   0  0  0  0  0  0  0  0  0  0  0  0
  2  1  1  0
  3  2  2  0
  4  3  1  0
  5  4  2  0
  5 11  1  0
  6  5  1  0
  7  9  1  0
  7  6  1  0
  7  8  1  1
  9 17  1  0
 10  9  2  0
 11 12  2  0
 12  2  1  0
 14 13  1  1
 14 15  1  0
 16 14  1  0
 16 18  1  0
 16 17  1  6
 18 26  1  0
 18 19  2  0
 20 21  1  0
 21 23  1  0
 22 21  2  0
 23 24  1  0
 25 24  1  6
 25 27  1  0
 26 25  1  0
 27 29  2  0
 27 28  1  0
M  END
$$$$
