YVQ.pdb
     RDKit          3D

 29 29  0  0  1  0  0  0  0  0999 V2000
    3.7514  -19.2598   18.1839 O   0  0  0  0  0  0  0  0  0  0  0  0
    4.6169  -18.7109   19.1290 C   0  0  0  0  0  0  0  0  0  0  0  0
    5.9534  -18.5365   18.8423 C   0  0  0  0  0  0  0  0  0  0  0  0
    6.8060  -17.9866   19.7975 C   0  0  0  0  0  0  0  0  0  0  0  0
    6.3307  -17.6098   21.0388 C   0  0  0  0  0  0  0  0  0  0  0  0
    7.2667  -17.0277   22.0326 C   0  0  0  0  0  0  0  0  0  0  0  0
    7.2660  -15.5279   21.8619 C   0  0  2  0  0  0  0  0  0  0  0  0
    7.9237  -15.2145   20.6177 N   0  0  0  0  0  0  0  0  0  0  0  0
    8.0448  -14.9632   23.0187 C   0  0  0  0  0  0  0  0  0  0  0  0
    9.2894  -14.8666   22.9339 O   0  0  0  0  0  0  0  0  0  0  0  0
    4.9922  -17.8007   21.2835 C   0  0  0  0  0  0  0  0  0  0  0  0
    4.1276  -18.3403   20.3613 C   0  0  0  0  0  0  0  0  0  0  0  0
    7.5594  -12.6672   27.4007 C   0  0  0  0  0  0  0  0  0  0  0  0
    7.0482  -13.1216   26.0653 C   0  0  1  0  0  0  0  0  0  0  0  0
    6.4512  -12.0389   25.2473 C   0  0  0  0  0  0  0  0  0  0  0  0
    8.0802  -13.9747   25.3559 C   0  0  2  0  0  0  0  0  0  0  0  0
    7.3768  -14.5417   24.1980 N   0  0  0  0  0  0  0  0  0  0  0  0
    8.5309  -15.1128   26.2287 C   0  0  0  0  0  0  0  0  0  0  0  0
    7.6785  -15.9103   26.7368 O   0  0  0  0  0  0  0  0  0  0  0  0
   11.5713  -19.6473   23.8659 N   0  0  0  0  0  0  0  0  0  0  0  0
   11.8790  -18.9217   25.0453 C   0  0  0  0  0  0  0  0  0  0  0  0
   12.6973  -19.4051   25.8479 O   0  0  0  0  0  0  0  0  0  0  0  0
   11.2619  -17.6140   25.3525 C   0  0  0  0  0  0  0  0  0  0  0  0
   11.4264  -17.2669   26.7986 C   0  0  0  0  0  0  0  0  0  0  0  0
   10.2403  -16.5232   27.3365 C   0  0  2  0  0  0  0  0  0  0  0  0
    9.8885  -15.3664   26.5335 N   0  0  0  0  0  0  0  0  0  0  0  0
   10.6095  -16.0270   28.7003 C   0  0  0  0  0  0  0  0  0  0  0  0
   10.8018  -16.9190   29.7439 O   0  0  0  0  0  0  0  0  0  0  0  0
   10.7561  -14.8062   28.9431 O   0  0  0  0  0  0  0  0  0  0  0  0
  2  1  1  0
  3  2  2  0
  4  3  1  0
  5  4  2  0
  5 11  1  0
  6  5  1  0
  7  9  1  0
  7  6  1  0
  7  8  1  6
  9 17  1  0
 10  9  2  0
 11 12  2  0
 12  2  1  0
 14 13  1  1
 14 15  1  0
 16 14  1  0
 16 18  1  0
 16 17  1  6
 18 26  1  0
 18 19  2  0
 20 21  1  0
 21 23  1  0
 22 21  2  0
 23 24  1  0
 25 24  1  6
 25 27  1  0
 26 25  1  0
 27 29  2  0
 27 28  1  0
M  END
$$$$
