YVQ.pdb
     RDKit          3D

 29 29  0  0  1  0  0  0  0  0999 V2000
    1.4101  -19.9054   20.6481 O   0  0  0  0  0  0  0  0  0  0  0  0
    2.5391  -19.3318   21.2312 C   0  0  0  0  0  0  0  0  0  0  0  0
    2.4890  -18.8230   22.5109 C   0  0  0  0  0  0  0  0  0  0  0  0
    3.6259  -18.2527   23.0800 C   0  0  0  0  0  0  0  0  0  0  0  0
    4.8136  -18.1875   22.3774 C   0  0  0  0  0  0  0  0  0  0  0  0
    6.0052  -17.5729   23.0139 C   0  0  0  0  0  0  0  0  0  0  0  0
    6.1183  -16.1475   22.5298 C   0  0  2  0  0  0  0  0  0  0  0  0
    6.4877  -16.1716   21.1363 N   0  0  0  0  0  0  0  0  0  0  0  0
    7.2055  -15.5017   23.3451 C   0  0  0  0  0  0  0  0  0  0  0  0
    8.4018  -15.6725   23.0207 O   0  0  0  0  0  0  0  0  0  0  0  0
    4.8203  -18.7063   21.1050 C   0  0  0  0  0  0  0  0  0  0  0  0
    3.7152  -19.2747   20.5180 C   0  0  0  0  0  0  0  0  0  0  0  0
    5.8637  -13.5961   26.6795 C   0  0  0  0  0  0  0  0  0  0  0  0
    7.1597  -13.0554   26.1514 C   0  0  1  0  0  0  0  0  0  0  0  0
    7.9751  -12.3446   27.1652 C   0  0  0  0  0  0  0  0  0  0  0  0
    7.8971  -14.1104   25.3518 C   0  0  2  0  0  0  0  0  0  0  0  0
    6.8807  -14.7038   24.4732 N   0  0  0  0  0  0  0  0  0  0  0  0
    8.4260  -15.1948   26.2488 C   0  0  0  0  0  0  0  0  0  0  0  0
    7.6271  -16.0110   26.8112 O   0  0  0  0  0  0  0  0  0  0  0  0
   12.4117  -17.4535   24.1246 N   0  0  0  0  0  0  0  0  0  0  0  0
   12.3286  -18.5123   25.0650 C   0  0  0  0  0  0  0  0  0  0  0  0
   12.9533  -19.5638   24.8377 O   0  0  0  0  0  0  0  0  0  0  0  0
   11.5269  -18.4091   26.3027 C   0  0  0  0  0  0  0  0  0  0  0  0
   11.5902  -17.0269   26.8720 C   0  0  0  0  0  0  0  0  0  0  0  0
   10.2383  -16.5276   27.2871 C   0  0  2  0  0  0  0  0  0  0  0  0
    9.8024  -15.3757   26.5190 N   0  0  0  0  0  0  0  0  0  0  0  0
   10.3442  -16.0988   28.7179 C   0  0  0  0  0  0  0  0  0  0  0  0
   10.6627  -17.0185   29.7050 O   0  0  0  0  0  0  0  0  0  0  0  0
   10.1521  -14.9110   29.0686 O   0  0  0  0  0  0  0  0  0  0  0  0
  2  1  1  0
  3  2  2  0
  4  3  1  0
  5  4  2  0
  5 11  1  0
  6  5  1  0
  7  9  1  0
  7  6  1  0
  7  8  1  6
  9 17  1  0
 10  9  2  0
 11 12  2  0
 12  2  1  0
 14 13  1  1
 14 15  1  0
 16 14  1  0
 16 18  1  0
 16 17  1  6
 18 26  1  0
 18 19  2  0
 20 21  1  0
 21 23  1  0
 22 21  2  0
 23 24  1  0
 25 24  1  6
 25 27  1  0
 26 25  1  0
 27 29  2  0
 27 28  1  0
M  END
$$$$
