YVQ.pdb
     RDKit          3D

 29 29  0  0  1  0  0  0  0  0999 V2000
    6.8458  -11.4407   28.5474 O   0  0  0  0  0  0  0  0  0  0  0  0
    6.7507  -12.3252   27.4740 C   0  0  0  0  0  0  0  0  0  0  0  0
    7.4669  -12.1078   26.3170 C   0  0  0  0  0  0  0  0  0  0  0  0
    7.3613  -13.0010   25.2527 C   0  0  0  0  0  0  0  0  0  0  0  0
    6.5431  -14.1110   25.3375 C   0  0  0  0  0  0  0  0  0  0  0  0
    6.4538  -15.0414   24.1847 C   0  0  0  0  0  0  0  0  0  0  0  0
    7.8313  -15.5981   23.9178 C   0  0  2  0  0  0  0  0  0  0  0  0
    8.8007  -14.7040   24.5006 N   0  0  0  0  0  0  0  0  0  0  0  0
    7.9956  -15.6406   22.4229 C   0  0  0  0  0  0  0  0  0  0  0  0
    7.2974  -16.4308   21.7493 O   0  0  0  0  0  0  0  0  0  0  0  0
    5.8467  -14.2903   26.5084 C   0  0  0  0  0  0  0  0  0  0  0  0
    5.9312  -13.4268   27.5744 C   0  0  0  0  0  0  0  0  0  0  0  0
    8.9929  -13.1583   18.4334 C   0  0  0  0  0  0  0  0  0  0  0  0
    8.7918  -13.3442   19.9086 C   0  0  1  0  0  0  0  0  0  0  0  0
    7.5006  -12.8184   20.4128 C   0  0  0  0  0  0  0  0  0  0  0  0
    9.1171  -14.7654   20.3212 C   0  0  2  0  0  0  0  0  0  0  0  0
    8.9331  -14.7921   21.7780 N   0  0  0  0  0  0  0  0  0  0  0  0
   10.5542  -15.0963   20.0282 C   0  0  0  0  0  0  0  0  0  0  0  0
   11.4917  -14.4665   20.6157 O   0  0  0  0  0  0  0  0  0  0  0  0
   14.5005  -13.1945   17.6142 N   0  0  0  0  0  0  0  0  0  0  0  0
   15.2492  -14.3071   18.0766 C   0  0  0  0  0  0  0  0  0  0  0  0
   16.4485  -14.3943   17.7581 O   0  0  0  0  0  0  0  0  0  0  0  0
   14.6543  -15.3639   18.9220 C   0  0  0  0  0  0  0  0  0  0  0  0
   13.1993  -15.1087   19.1595 C   0  0  0  0  0  0  0  0  0  0  0  0
   12.3587  -16.3088   18.8399 C   0  0  2  0  0  0  0  0  0  0  0  0
   10.9483  -16.0975   19.1104 N   0  0  0  0  0  0  0  0  0  0  0  0
   12.8231  -17.4238   19.7251 C   0  0  0  0  0  0  0  0  0  0  0  0
   14.0825  -17.9775   19.5550 O   0  0  0  0  0  0  0  0  0  0  0  0
   12.1008  -17.8888   20.6378 O   0  0  0  0  0  0  0  0  0  0  0  0
  2  1  1  0
  3  2  2  0
  4  3  1  0
  5  4  2  0
  5 11  1  0
  6  5  1  0
  7  9  1  0
  7  6  1  0
  7  8  1  1
  9 17  1  0
 10  9  2  0
 11 12  2  0
 12  2  1  0
 14 13  1  6
 14 15  1  0
 16 14  1  0
 16 18  1  0
 16 17  1  1
 18 26  1  0
 18 19  2  0
 20 21  1  0
 21 23  1  0
 22 21  2  0
 23 24  1  0
 25 24  1  1
 25 27  1  0
 26 25  1  0
 27 29  2  0
 27 28  1  0
M  END
$$$$
