WKF.pdb
     RDKit          3D

 35 37  0  0  1  0  0  0  0  0999 V2000
    6.6178  -17.6769   25.2043 N   0  0  0  0  0  0  0  0  0  0  0  0
    7.4211  -16.6952   24.5127 C   0  0  1  0  0  0  0  0  0  0  0  0
    7.9912  -15.6776   25.4746 C   0  0  0  0  0  0  0  0  0  0  0  0
    6.9558  -14.7003   25.8373 C   0  0  0  0  0  0  0  0  0  0  0  0
    5.7233  -14.9948   26.4126 C   0  0  0  0  0  0  0  0  0  0  0  0
    5.0464  -13.8625   26.6349 N   0  0  0  0  0  0  0  0  0  0  0  0
    5.8136  -12.8531   26.2157 C   0  0  0  0  0  0  0  0  0  0  0  0
    5.5703  -11.4999   26.2139 C   0  0  0  0  0  0  0  0  0  0  0  0
    6.5046  -10.6232   25.7166 C   0  0  0  0  0  0  0  0  0  0  0  0
    7.6873  -11.1258   25.2201 C   0  0  0  0  0  0  0  0  0  0  0  0
    7.9679  -12.4762   25.2055 C   0  0  0  0  0  0  0  0  0  0  0  0
    7.0167  -13.3415   25.7106 C   0  0  0  0  0  0  0  0  0  0  0  0
    8.5464  -17.4905   23.8930 C   0  0  0  0  0  0  0  0  0  0  0  0
    9.0404  -18.5111   24.4275 O   0  0  0  0  0  0  0  0  0  0  0  0
    9.0360  -17.0219   22.6463 N   0  0  0  0  0  0  0  0  0  0  0  0
   10.4448  -17.2647   22.2299 C   0  0  1  0  0  0  0  0  0  0  0  0
   10.5158  -16.6754   20.8500 C   0  0  0  0  0  0  0  0  0  0  0  0
   11.7780  -16.8810   20.1063 C   0  0  0  0  0  0  0  0  0  0  0  0
   11.6667  -17.8471   18.9543 C   0  0  0  0  0  0  0  0  0  0  0  0
   12.9814  -17.9761   18.2009 C   0  0  0  0  0  0  0  0  0  0  0  0
   13.8927  -18.6783   19.0948 N   0  0  0  0  0  0  0  0  0  0  0  0
   11.3524  -16.6804   23.2175 C   0  0  0  0  0  0  0  0  0  0  0  0
   11.4907  -15.3994   23.2063 O   0  0  0  0  0  0  0  0  0  0  0  0
   12.0854  -17.4097   24.1826 N   0  0  0  0  0  0  0  0  0  0  0  0
   13.1299  -16.7355   24.9683 C   0  0  1  0  0  0  0  0  0  0  0  0
   12.9361  -17.0410   26.4230 C   0  0  0  0  0  0  0  0  0  0  0  0
   11.7981  -16.2674   26.9564 C   0  0  0  0  0  0  0  0  0  0  0  0
   11.9140  -14.8832   26.9514 C   0  0  0  0  0  0  0  0  0  0  0  0
   10.8802  -14.0900   27.4065 C   0  0  0  0  0  0  0  0  0  0  0  0
    9.7559  -14.7017   27.8554 C   0  0  0  0  0  0  0  0  0  0  0  0
    9.6193  -16.0831   27.8681 C   0  0  0  0  0  0  0  0  0  0  0  0
   10.6501  -16.8702   27.4148 C   0  0  0  0  0  0  0  0  0  0  0  0
   14.4349  -17.1899   24.4849 C   0  0  0  0  0  0  0  0  0  0  0  0
   14.5529  -18.1244   23.4874 O   0  0  0  0  0  0  0  0  0  0  0  0
   15.4912  -16.7205   24.9917 O   0  0  0  0  0  0  0  0  0  0  0  0
  2  1  1  1
  3  2  1  0
  4  5  2  0
  4  3  1  0
  6  5  1  0
  7 12  2  0
  7  6  1  0
  8  7  1  0
  9 10  1  0
  9  8  2  0
 10 11  2  0
 11 12  1  0
 12  4  1  0
 13  2  1  0
 14 13  2  0
 15 13  1  0
 16 22  1  0
 16 15  1  0
 16 17  1  6
 18 17  1  0
 19 18  1  0
 20 19  1  0
 21 20  1  0
 22 23  2  0
 24 25  1  0
 24 22  1  0
 25 26  1  1
 25 33  1  0
 26 27  1  0
 27 28  2  0
 28 29  1  0
 30 29  2  0
 31 30  1  0
 32 27  1  0
 32 31  2  0
 33 35  2  0
 33 34  1  0
M  END
$$$$
