WKF.pdb
     RDKit          3D

 35 37  0  0  1  0  0  0  0  0999 V2000
    5.8383  -19.3035   22.9875 N   0  0  0  0  0  0  0  0  0  0  0  0
    6.3607  -17.9809   23.2418 C   0  0  1  0  0  0  0  0  0  0  0  0
    7.4056  -18.0050   24.3342 C   0  0  0  0  0  0  0  0  0  0  0  0
    6.9477  -17.2064   25.4793 C   0  0  0  0  0  0  0  0  0  0  0  0
    6.0503  -17.6245   26.4574 C   0  0  0  0  0  0  0  0  0  0  0  0
    5.8845  -16.6539   27.3630 N   0  0  0  0  0  0  0  0  0  0  0  0
    6.6513  -15.6268   26.9884 C   0  0  0  0  0  0  0  0  0  0  0  0
    6.8252  -14.3945   27.5728 C   0  0  0  0  0  0  0  0  0  0  0  0
    7.6647  -13.4654   27.0064 C   0  0  0  0  0  0  0  0  0  0  0  0
    8.3267  -13.7919   25.8433 C   0  0  0  0  0  0  0  0  0  0  0  0
    8.1787  -15.0174   25.2280 C   0  0  0  0  0  0  0  0  0  0  0  0
    7.3312  -15.9384   25.8129 C   0  0  0  0  0  0  0  0  0  0  0  0
    7.0023  -17.5664   21.9382 C   0  0  0  0  0  0  0  0  0  0  0  0
    7.7215  -18.3318   21.2538 O   0  0  0  0  0  0  0  0  0  0  0  0
    6.7514  -16.2378   21.5076 N   0  0  0  0  0  0  0  0  0  0  0  0
    7.7248  -15.5078   20.6495 C   0  0  1  0  0  0  0  0  0  0  0  0
    6.9907  -14.2557   20.2624 C   0  0  0  0  0  0  0  0  0  0  0  0
    7.6505  -13.3821   19.2674 C   0  0  0  0  0  0  0  0  0  0  0  0
    7.7122  -13.9638   17.8779 C   0  0  0  0  0  0  0  0  0  0  0  0
    8.5205  -13.0844   16.9366 C   0  0  0  0  0  0  0  0  0  0  0  0
    8.5119  -13.7592   15.6454 N   0  0  0  0  0  0  0  0  0  0  0  0
    8.9725  -15.3100   21.3875 C   0  0  0  0  0  0  0  0  0  0  0  0
   10.0465  -15.1415   20.6959 O   0  0  0  0  0  0  0  0  0  0  0  0
    9.0907  -15.2863   22.7967 N   0  0  0  0  0  0  0  0  0  0  0  0
   10.3959  -15.0090   23.4151 C   0  0  1  0  0  0  0  0  0  0  0  0
   10.1980  -14.6347   24.8531 C   0  0  0  0  0  0  0  0  0  0  0  0
    9.1507  -13.6015   24.9687 C   0  0  0  0  0  0  0  0  0  0  0  0
    8.0585  -13.8928   25.7759 C   0  0  0  0  0  0  0  0  0  0  0  0
    7.0521  -12.9659   25.9577 C   0  0  0  0  0  0  0  0  0  0  0  0
    7.1637  -11.7701   25.3272 C   0  0  0  0  0  0  0  0  0  0  0  0
    8.2471  -11.4585   24.5171 C   0  0  0  0  0  0  0  0  0  0  0  0
    9.2472  -12.3833   24.3376 C   0  0  0  0  0  0  0  0  0  0  0  0
   11.2353  -16.1999   23.2721 C   0  0  0  0  0  0  0  0  0  0  0  0
   12.5561  -16.2042   23.6428 O   0  0  0  0  0  0  0  0  0  0  0  0
   10.7458  -17.2601   22.7932 O   0  0  0  0  0  0  0  0  0  0  0  0
  2  1  1  6
  3  2  1  0
  4  5  2  0
  4  3  1  0
  6  5  1  0
  7 12  2  0
  7  6  1  0
  8  7  1  0
  9 10  1  0
  9  8  2  0
 10 11  2  0
 11 12  1  0
 12  4  1  0
 13  2  1  0
 14 13  2  0
 15 13  1  0
 16 22  1  0
 16 15  1  0
 16 17  1  1
 18 17  1  0
 19 18  1  0
 20 19  1  0
 21 20  1  0
 22 23  2  0
 24 25  1  0
 24 22  1  0
 25 26  1  1
 25 33  1  0
 26 27  1  0
 27 28  2  0
 28 29  1  0
 30 29  2  0
 31 30  1  0
 32 27  1  0
 32 31  2  0
 33 35  2  0
 33 34  1  0
M  END
$$$$
