WKF.pdb
     RDKit          3D

 35 37  0  0  1  0  0  0  0  0999 V2000
    6.4998  -17.8573   25.0119 N   0  0  0  0  0  0  0  0  0  0  0  0
    6.7748  -16.5751   24.4057 C   0  0  1  0  0  0  0  0  0  0  0  0
    7.5953  -15.6990   25.3249 C   0  0  0  0  0  0  0  0  0  0  0  0
    6.7201  -14.7374   26.0090 C   0  0  0  0  0  0  0  0  0  0  0  0
    5.6184  -15.0562   26.7973 C   0  0  0  0  0  0  0  0  0  0  0  0
    5.0734  -13.9365   27.2861 N   0  0  0  0  0  0  0  0  0  0  0  0
    5.7972  -12.9113   26.8298 C   0  0  0  0  0  0  0  0  0  0  0  0
    5.6426  -11.5604   27.0335 C   0  0  0  0  0  0  0  0  0  0  0  0
    6.5052  -10.6632   26.4507 C   0  0  0  0  0  0  0  0  0  0  0  0
    7.5256  -11.1428   25.6592 C   0  0  0  0  0  0  0  0  0  0  0  0
    7.7135  -12.4902   25.4319 C   0  0  0  0  0  0  0  0  0  0  0  0
    6.8367  -13.3765   26.0271 C   0  0  0  0  0  0  0  0  0  0  0  0
    7.5786  -16.9019   23.1688 C   0  0  0  0  0  0  0  0  0  0  0  0
    8.3099  -17.9156   23.0740 O   0  0  0  0  0  0  0  0  0  0  0  0
    7.4697  -15.9888   22.0880 N   0  0  0  0  0  0  0  0  0  0  0  0
    8.6163  -15.7368   21.1722 C   0  0  1  0  0  0  0  0  0  0  0  0
    8.1648  -14.5641   20.3492 C   0  0  0  0  0  0  0  0  0  0  0  0
    8.9277  -14.2908   19.1115 C   0  0  0  0  0  0  0  0  0  0  0  0
    8.0708  -13.9422   17.9211 C   0  0  0  0  0  0  0  0  0  0  0  0
    8.2964  -14.9051   16.7658 C   0  0  0  0  0  0  0  0  0  0  0  0
    9.6249  -14.6089   16.2460 N   0  0  0  0  0  0  0  0  0  0  0  0
    9.8322  -15.5298   21.9591 C   0  0  0  0  0  0  0  0  0  0  0  0
   10.3792  -14.3645   21.9040 O   0  0  0  0  0  0  0  0  0  0  0  0
   10.4505  -16.5054   22.7755 N   0  0  0  0  0  0  0  0  0  0  0  0
   11.7938  -16.2565   23.3200 C   0  0  1  0  0  0  0  0  0  0  0  0
   11.7553  -15.0545   24.2147 C   0  0  0  0  0  0  0  0  0  0  0  0
   10.9330  -15.3360   25.4073 C   0  0  0  0  0  0  0  0  0  0  0  0
    9.6533  -14.7968   25.4373 C   0  0  0  0  0  0  0  0  0  0  0  0
    8.8133  -15.0399   26.5052 C   0  0  0  0  0  0  0  0  0  0  0  0
    9.2748  -15.8169   27.5167 C   0  0  0  0  0  0  0  0  0  0  0  0
   10.5497  -16.3662   27.5060 C   0  0  0  0  0  0  0  0  0  0  0  0
   11.3838  -16.1222   26.4419 C   0  0  0  0  0  0  0  0  0  0  0  0
   12.2293  -17.4563   24.0370 C   0  0  0  0  0  0  0  0  0  0  0  0
   13.4859  -17.5613   24.5775 O   0  0  0  0  0  0  0  0  0  0  0  0
   11.4393  -18.4319   24.1678 O   0  0  0  0  0  0  0  0  0  0  0  0
  2  1  1  1
  3  2  1  0
  4  5  2  0
  4  3  1  0
  6  5  1  0
  7 12  2  0
  7  6  1  0
  8  7  1  0
  9 10  1  0
  9  8  2  0
 10 11  2  0
 11 12  1  0
 12  4  1  0
 13  2  1  0
 14 13  2  0
 15 13  1  0
 16 22  1  0
 16 15  1  0
 16 17  1  1
 18 17  1  0
 19 18  1  0
 20 19  1  0
 21 20  1  0
 22 23  2  0
 24 25  1  0
 24 22  1  0
 25 26  1  1
 25 33  1  0
 26 27  1  0
 27 28  2  0
 28 29  1  0
 30 29  2  0
 31 30  1  0
 32 27  1  0
 32 31  2  0
 33 35  2  0
 33 34  1  0
M  END
$$$$
