WKF.pdb
     RDKit          3D

 35 37  0  0  1  0  0  0  0  0999 V2000
    6.1093  -18.4782   25.2355 N   0  0  0  0  0  0  0  0  0  0  0  0
    6.6976  -17.2174   24.8466 C   0  0  1  0  0  0  0  0  0  0  0  0
    7.3298  -16.5197   26.0295 C   0  0  0  0  0  0  0  0  0  0  0  0
    6.6649  -15.2301   26.2610 C   0  0  0  0  0  0  0  0  0  0  0  0
    5.3902  -15.0544   26.7912 C   0  0  0  0  0  0  0  0  0  0  0  0
    5.1181  -13.7484   26.8900 N   0  0  0  0  0  0  0  0  0  0  0  0
    6.1847  -13.0856   26.4358 C   0  0  0  0  0  0  0  0  0  0  0  0
    6.4002  -11.7328   26.3175 C   0  0  0  0  0  0  0  0  0  0  0  0
    7.5829  -11.2565   25.8046 C   0  0  0  0  0  0  0  0  0  0  0  0
    8.5464  -12.1592   25.4113 C   0  0  0  0  0  0  0  0  0  0  0  0
    8.3675  -13.5229   25.5150 C   0  0  0  0  0  0  0  0  0  0  0  0
    7.1724  -13.9824   26.0339 C   0  0  0  0  0  0  0  0  0  0  0  0
    7.7683  -17.5876   23.8469 C   0  0  0  0  0  0  0  0  0  0  0  0
    8.5580  -18.5472   24.0114 O   0  0  0  0  0  0  0  0  0  0  0  0
    7.8468  -16.7820   22.6814 N   0  0  0  0  0  0  0  0  0  0  0  0
    9.0865  -16.7345   21.8581 C   0  0  1  0  0  0  0  0  0  0  0  0
    8.6757  -15.9596   20.6386 C   0  0  0  0  0  0  0  0  0  0  0  0
    9.3722  -16.2927   19.3767 C   0  0  0  0  0  0  0  0  0  0  0  0
    8.8921  -17.5630   18.7220 C   0  0  0  0  0  0  0  0  0  0  0  0
    8.9025  -17.4515   17.2054 C   0  0  0  0  0  0  0  0  0  0  0  0
   10.2766  -17.7018   16.7908 N   0  0  0  0  0  0  0  0  0  0  0  0
   10.1724  -16.1505   22.6457 C   0  0  0  0  0  0  0  0  0  0  0  0
   10.4270  -14.9006   22.4634 O   0  0  0  0  0  0  0  0  0  0  0  0
   10.9601  -16.8482   23.5909 N   0  0  0  0  0  0  0  0  0  0  0  0
   12.2834  -16.3270   23.9649 C   0  0  1  0  0  0  0  0  0  0  0  0
   12.1279  -14.9777   24.5992 C   0  0  0  0  0  0  0  0  0  0  0  0
   11.3600  -15.0927   25.8541 C   0  0  0  0  0  0  0  0  0  0  0  0
   10.0478  -14.6374   25.8389 C   0  0  0  0  0  0  0  0  0  0  0  0
    9.2562  -14.7381   26.9651 C   0  0  0  0  0  0  0  0  0  0  0  0
    9.7974  -15.2921   28.0787 C   0  0  0  0  0  0  0  0  0  0  0  0
   11.1059  -15.7541   28.1148 C   0  0  0  0  0  0  0  0  0  0  0  0
   11.8917  -15.6523   26.9923 C   0  0  0  0  0  0  0  0  0  0  0  0
   12.9164  -17.2862   24.8718 C   0  0  0  0  0  0  0  0  0  0  0  0
   12.2735  -18.4254   25.2851 O   0  0  0  0  0  0  0  0  0  0  0  0
   14.0853  -17.0722   25.2969 O   0  0  0  0  0  0  0  0  0  0  0  0
  2  1  1  1
  3  2  1  0
  4  5  2  0
  4  3  1  0
  6  5  1  0
  7 12  2  0
  7  6  1  0
  8  7  1  0
  9 10  1  0
  9  8  2  0
 10 11  2  0
 11 12  1  0
 12  4  1  0
 13  2  1  0
 14 13  2  0
 15 13  1  0
 16 22  1  0
 16 15  1  0
 16 17  1  6
 18 17  1  0
 19 18  1  0
 20 19  1  0
 21 20  1  0
 22 23  2  0
 24 25  1  0
 24 22  1  0
 25 26  1  1
 25 33  1  0
 26 27  1  0
 27 28  2  0
 28 29  1  0
 30 29  2  0
 31 30  1  0
 32 27  1  0
 32 31  2  0
 33 35  2  0
 33 34  1  0
M  END
$$$$
