WKF.pdb
     RDKit          3D

 35 37  0  0  1  0  0  0  0  0999 V2000
    6.1888  -17.8160   24.8456 N   0  0  0  0  0  0  0  0  0  0  0  0
    6.9976  -16.7174   24.3702 C   0  0  1  0  0  0  0  0  0  0  0  0
    7.4405  -15.8293   25.5107 C   0  0  0  0  0  0  0  0  0  0  0  0
    6.4783  -14.7338   25.6917 C   0  0  0  0  0  0  0  0  0  0  0  0
    5.1234  -14.8781   25.9749 C   0  0  0  0  0  0  0  0  0  0  0  0
    4.5578  -13.6726   26.1032 N   0  0  0  0  0  0  0  0  0  0  0  0
    5.5154  -12.7626   25.9083 C   0  0  0  0  0  0  0  0  0  0  0  0
    5.4456  -11.3895   25.9217 C   0  0  0  0  0  0  0  0  0  0  0  0
    6.5659  -10.6310   25.6799 C   0  0  0  0  0  0  0  0  0  0  0  0
    7.7579  -11.2722   25.4234 C   0  0  0  0  0  0  0  0  0  0  0  0
    7.8678  -12.6469   25.4021 C   0  0  0  0  0  0  0  0  0  0  0  0
    6.7309  -13.3921   25.6485 C   0  0  0  0  0  0  0  0  0  0  0  0
    8.2050  -17.3750   23.7436 C   0  0  0  0  0  0  0  0  0  0  0  0
    8.7645  -18.3863   24.2292 O   0  0  0  0  0  0  0  0  0  0  0  0
    8.6946  -16.7848   22.5497 N   0  0  0  0  0  0  0  0  0  0  0  0
   10.0513  -17.1085   22.0287 C   0  0  1  0  0  0  0  0  0  0  0  0
   10.0527  -16.5203   20.6465 C   0  0  0  0  0  0  0  0  0  0  0  0
   11.2708  -16.7375   19.8357 C   0  0  0  0  0  0  0  0  0  0  0  0
   11.0107  -16.8972   18.3593 C   0  0  0  0  0  0  0  0  0  0  0  0
   12.2763  -17.2713   17.6037 C   0  0  0  0  0  0  0  0  0  0  0  0
   11.9032  -17.3362   16.1968 N   0  0  0  0  0  0  0  0  0  0  0  0
   11.0635  -16.5814   22.9443 C   0  0  0  0  0  0  0  0  0  0  0  0
   11.2406  -15.3052   22.9561 O   0  0  0  0  0  0  0  0  0  0  0  0
   11.8581  -17.3609   23.8168 N   0  0  0  0  0  0  0  0  0  0  0  0
   13.0072  -16.7485   24.5004 C   0  0  1  0  0  0  0  0  0  0  0  0
   12.8672  -16.9386   25.9807 C   0  0  0  0  0  0  0  0  0  0  0  0
   11.9769  -15.9045   26.5428 C   0  0  0  0  0  0  0  0  0  0  0  0
   10.8327  -16.3407   27.1985 C   0  0  0  0  0  0  0  0  0  0  0  0
    9.9659  -15.4353   27.7764 C   0  0  0  0  0  0  0  0  0  0  0  0
   10.2656  -14.1156   27.6838 C   0  0  0  0  0  0  0  0  0  0  0  0
   11.4041  -13.6588   27.0340 C   0  0  0  0  0  0  0  0  0  0  0  0
   12.2650  -14.5623   26.4594 C   0  0  0  0  0  0  0  0  0  0  0  0
   14.2312  -17.3644   23.9849 C   0  0  0  0  0  0  0  0  0  0  0  0
   14.1989  -18.3738   23.0564 O   0  0  0  0  0  0  0  0  0  0  0  0
   15.3562  -16.9690   24.3985 O   0  0  0  0  0  0  0  0  0  0  0  0
  2  1  1  1
  3  2  1  0
  4  5  2  0
  4  3  1  0
  6  5  1  0
  7 12  2  0
  7  6  1  0
  8  7  1  0
  9 10  1  0
  9  8  2  0
 10 11  2  0
 11 12  1  0
 12  4  1  0
 13  2  1  0
 14 13  2  0
 15 13  1  0
 16 22  1  0
 16 15  1  0
 16 17  1  6
 18 17  1  0
 19 18  1  0
 20 19  1  0
 21 20  1  0
 22 23  2  0
 24 25  1  0
 24 22  1  0
 25 26  1  1
 25 33  1  0
 26 27  1  0
 27 28  2  0
 28 29  1  0
 30 29  2  0
 31 30  1  0
 32 27  1  0
 32 31  2  0
 33 35  2  0
 33 34  1  0
M  END
$$$$
