WKF.pdb
     RDKit          3D

 35 37  0  0  1  0  0  0  0  0999 V2000
    6.2339  -18.5014   23.9507 N   0  0  0  0  0  0  0  0  0  0  0  0
    6.7233  -17.1441   24.0238 C   0  0  1  0  0  0  0  0  0  0  0  0
    7.0649  -16.7606   25.4457 C   0  0  0  0  0  0  0  0  0  0  0  0
    6.1397  -15.7212   25.9173 C   0  0  0  0  0  0  0  0  0  0  0  0
    4.9214  -15.9423   26.5527 C   0  0  0  0  0  0  0  0  0  0  0  0
    4.3580  -14.7711   26.8696 N   0  0  0  0  0  0  0  0  0  0  0  0
    5.1837  -13.8081   26.4524 C   0  0  0  0  0  0  0  0  0  0  0  0
    5.0578  -12.4411   26.5297 C   0  0  0  0  0  0  0  0  0  0  0  0
    6.0339  -11.6200   26.0181 C   0  0  0  0  0  0  0  0  0  0  0  0
    7.1387  -12.1922   25.4266 C   0  0  0  0  0  0  0  0  0  0  0  0
    7.3010  -13.5585   25.3307 C   0  0  0  0  0  0  0  0  0  0  0  0
    6.3096  -14.3673   25.8517 C   0  0  0  0  0  0  0  0  0  0  0  0
    7.9800  -17.1455   23.1851 C   0  0  0  0  0  0  0  0  0  0  0  0
    8.6094  -18.1899   22.8943 O   0  0  0  0  0  0  0  0  0  0  0  0
    8.4325  -15.8809   22.7272 N   0  0  0  0  0  0  0  0  0  0  0  0
    9.6478  -15.7581   21.8757 C   0  0  1  0  0  0  0  0  0  0  0  0
    9.5305  -14.3832   21.2823 C   0  0  0  0  0  0  0  0  0  0  0  0
    9.6582  -14.2835   19.8118 C   0  0  0  0  0  0  0  0  0  0  0  0
    8.5123  -13.5720   19.1383 C   0  0  0  0  0  0  0  0  0  0  0  0
    8.6782  -13.5464   17.6268 C   0  0  0  0  0  0  0  0  0  0  0  0
    7.5402  -12.7993   17.1076 N   0  0  0  0  0  0  0  0  0  0  0  0
   10.8394  -15.9988   22.6897 C   0  0  0  0  0  0  0  0  0  0  0  0
   11.9797  -15.9639   22.0908 O   0  0  0  0  0  0  0  0  0  0  0  0
   10.8374  -16.2631   24.0792 N   0  0  0  0  0  0  0  0  0  0  0  0
   12.0724  -16.7144   24.7380 C   0  0  1  0  0  0  0  0  0  0  0  0
   11.9163  -16.5995   26.2244 C   0  0  0  0  0  0  0  0  0  0  0  0
   11.6644  -15.1950   26.6008 C   0  0  0  0  0  0  0  0  0  0  0  0
   10.3418  -14.8176   26.7950 C   0  0  0  0  0  0  0  0  0  0  0  0
   10.0277  -13.5291   27.1772 C   0  0  0  0  0  0  0  0  0  0  0  0
   11.0451  -12.6499   27.3557 C   0  0  0  0  0  0  0  0  0  0  0  0
   12.3734  -13.0067   27.1679 C   0  0  0  0  0  0  0  0  0  0  0  0
   12.6831  -14.2900   26.7872 C   0  0  0  0  0  0  0  0  0  0  0  0
   12.3384  -18.0928   24.3226 C   0  0  0  0  0  0  0  0  0  0  0  0
   11.5072  -18.7633   23.4615 O   0  0  0  0  0  0  0  0  0  0  0  0
   13.3558  -18.6965   24.7625 O   0  0  0  0  0  0  0  0  0  0  0  0
  2  1  1  1
  3  2  1  0
  4  5  2  0
  4  3  1  0
  6  5  1  0
  7 12  2  0
  7  6  1  0
  8  7  1  0
  9 10  1  0
  9  8  2  0
 10 11  2  0
 11 12  1  0
 12  4  1  0
 13  2  1  0
 14 13  2  0
 15 13  1  0
 16 22  1  0
 16 15  1  0
 16 17  1  1
 18 17  1  0
 19 18  1  0
 20 19  1  0
 21 20  1  0
 22 23  2  0
 24 25  1  0
 24 22  1  0
 25 26  1  1
 25 33  1  0
 26 27  1  0
 27 28  2  0
 28 29  1  0
 30 29  2  0
 31 30  1  0
 32 27  1  0
 32 31  2  0
 33 35  2  0
 33 34  1  0
M  END
$$$$
