WKF.pdb
     RDKit          3D

 35 37  0  0  1  0  0  0  0  0999 V2000
    6.1612  -18.0326   24.0639 N   0  0  0  0  0  0  0  0  0  0  0  0
    6.7883  -16.7323   24.0080 C   0  0  1  0  0  0  0  0  0  0  0  0
    7.2976  -16.3106   25.3676 C   0  0  0  0  0  0  0  0  0  0  0  0
    6.5447  -15.1410   25.8408 C   0  0  0  0  0  0  0  0  0  0  0  0
    5.3154  -15.1726   26.4924 C   0  0  0  0  0  0  0  0  0  0  0  0
    4.9379  -13.9280   26.8055 N   0  0  0  0  0  0  0  0  0  0  0  0
    5.8931  -13.1026   26.3701 C   0  0  0  0  0  0  0  0  0  0  0  0
    5.9743  -11.7317   26.4368 C   0  0  0  0  0  0  0  0  0  0  0  0
    7.0558  -11.0697   25.9065 C   0  0  0  0  0  0  0  0  0  0  0  0
    8.0546  -11.8051   25.3071 C   0  0  0  0  0  0  0  0  0  0  0  0
    8.0092  -13.1810   25.2215 C   0  0  0  0  0  0  0  0  0  0  0  0
    6.9146  -13.8284   25.7612 C   0  0  0  0  0  0  0  0  0  0  0  0
    7.9549  -16.9110   23.0646 C   0  0  0  0  0  0  0  0  0  0  0  0
    8.5101  -18.0165   22.8621 O   0  0  0  0  0  0  0  0  0  0  0  0
    8.4102  -15.7437   22.3985 N   0  0  0  0  0  0  0  0  0  0  0  0
    9.5695  -15.7902   21.4654 C   0  0  1  0  0  0  0  0  0  0  0  0
    9.3533  -14.6052   20.5679 C   0  0  0  0  0  0  0  0  0  0  0  0
    8.7220  -14.8738   19.2572 C   0  0  0  0  0  0  0  0  0  0  0  0
    8.7403  -13.7010   18.3101 C   0  0  0  0  0  0  0  0  0  0  0  0
    8.0237  -14.0204   17.0073 C   0  0  0  0  0  0  0  0  0  0  0  0
    8.0302  -12.7885   16.2295 N   0  0  0  0  0  0  0  0  0  0  0  0
   10.8143  -15.7857   22.2342 C   0  0  0  0  0  0  0  0  0  0  0  0
   11.9023  -16.0499   21.5966 O   0  0  0  0  0  0  0  0  0  0  0  0
   10.9164  -15.5118   23.6181 N   0  0  0  0  0  0  0  0  0  0  0  0
   12.0030  -16.1163   24.4034 C   0  0  1  0  0  0  0  0  0  0  0  0
   11.4338  -16.7569   25.6334 C   0  0  0  0  0  0  0  0  0  0  0  0
   10.9210  -15.7226   26.5528 C   0  0  0  0  0  0  0  0  0  0  0  0
   11.5673  -15.5829   27.7743 C   0  0  0  0  0  0  0  0  0  0  0  0
   11.1651  -14.6180   28.6756 C   0  0  0  0  0  0  0  0  0  0  0  0
   10.1259  -13.8168   28.3320 C   0  0  0  0  0  0  0  0  0  0  0  0
    9.4671  -13.9391   27.1163 C   0  0  0  0  0  0  0  0  0  0  0  0
    9.8695  -14.9006   26.2212 C   0  0  0  0  0  0  0  0  0  0  0  0
   12.6990  -17.0861   23.5559 C   0  0  0  0  0  0  0  0  0  0  0  0
   12.0188  -17.9756   22.7634 O   0  0  0  0  0  0  0  0  0  0  0  0
   13.9607  -17.1197   23.5447 O   0  0  0  0  0  0  0  0  0  0  0  0
  2  1  1  1
  3  2  1  0
  4  5  2  0
  4  3  1  0
  6  5  1  0
  7 12  2  0
  7  6  1  0
  8  7  1  0
  9 10  1  0
  9  8  2  0
 10 11  2  0
 11 12  1  0
 12  4  1  0
 13  2  1  0
 14 13  2  0
 15 13  1  0
 16 22  1  0
 16 15  1  0
 16 17  1  6
 18 17  1  0
 19 18  1  0
 20 19  1  0
 21 20  1  0
 22 23  2  0
 24 25  1  0
 24 22  1  0
 25 26  1  1
 25 33  1  0
 26 27  1  0
 27 28  2  0
 28 29  1  0
 30 29  2  0
 31 30  1  0
 32 27  1  0
 32 31  2  0
 33 35  2  0
 33 34  1  0
M  END
$$$$
