WKF.pdb
     RDKit          3D

 35 37  0  0  1  0  0  0  0  0999 V2000
    6.4290  -17.9714   23.8691 N   0  0  0  0  0  0  0  0  0  0  0  0
    7.3193  -16.8531   23.6596 C   0  0  1  0  0  0  0  0  0  0  0  0
    7.8818  -16.3477   24.9688 C   0  0  0  0  0  0  0  0  0  0  0  0
    6.9877  -15.3285   25.5349 C   0  0  0  0  0  0  0  0  0  0  0  0
    5.7911  -15.5742   26.2017 C   0  0  0  0  0  0  0  0  0  0  0  0
    5.2544  -14.4180   26.6075 N   0  0  0  0  0  0  0  0  0  0  0  0
    6.0760  -13.4406   26.2164 C   0  0  0  0  0  0  0  0  0  0  0  0
    5.9699  -12.0793   26.3782 C   0  0  0  0  0  0  0  0  0  0  0  0
    6.9365  -11.2395   25.8790 C   0  0  0  0  0  0  0  0  0  0  0  0
    8.0115  -11.7871   25.2138 C   0  0  0  0  0  0  0  0  0  0  0  0
    8.1532  -13.1470   25.0322 C   0  0  0  0  0  0  0  0  0  0  0  0
    7.1718  -13.9750   25.5420 C   0  0  0  0  0  0  0  0  0  0  0  0
    8.4382  -17.4094   22.8102 C   0  0  0  0  0  0  0  0  0  0  0  0
    8.8225  -18.6007   22.8767 O   0  0  0  0  0  0  0  0  0  0  0  0
    9.0545  -16.5031   21.9089 N   0  0  0  0  0  0  0  0  0  0  0  0
   10.3740  -16.8075   21.2901 C   0  0  1  0  0  0  0  0  0  0  0  0
   10.3498  -16.0374   20.0006 C   0  0  0  0  0  0  0  0  0  0  0  0
    9.1278  -16.1642   19.1764 C   0  0  0  0  0  0  0  0  0  0  0  0
    9.1241  -17.3577   18.2553 C   0  0  0  0  0  0  0  0  0  0  0  0
    7.7875  -17.5163   17.5477 C   0  0  0  0  0  0  0  0  0  0  0  0
    7.9321  -18.6647   16.6627 N   0  0  0  0  0  0  0  0  0  0  0  0
   11.4435  -16.4510   22.2227 C   0  0  0  0  0  0  0  0  0  0  0  0
   12.0263  -15.3157   22.0455 O   0  0  0  0  0  0  0  0  0  0  0  0
   11.8840  -17.2518   23.3021 N   0  0  0  0  0  0  0  0  0  0  0  0
   11.8903  -16.6999   24.6652 C   0  0  1  0  0  0  0  0  0  0  0  0
   10.5169  -16.2096   25.0121 C   0  0  0  0  0  0  0  0  0  0  0  0
   10.5083  -15.6489   26.3771 C   0  0  0  0  0  0  0  0  0  0  0  0
   10.3008  -16.5356   27.4260 C   0  0  0  0  0  0  0  0  0  0  0  0
   10.3084  -16.0920   28.7329 C   0  0  0  0  0  0  0  0  0  0  0  0
   10.5236  -14.7718   28.9580 C   0  0  0  0  0  0  0  0  0  0  0  0
   10.7340  -13.8692   27.9245 C   0  0  0  0  0  0  0  0  0  0  0  0
   10.7255  -14.3135   26.6244 C   0  0  0  0  0  0  0  0  0  0  0  0
   12.3438  -17.7462   25.5833 C   0  0  0  0  0  0  0  0  0  0  0  0
   11.8196  -19.0136   25.5533 O   0  0  0  0  0  0  0  0  0  0  0  0
   13.2399  -17.4904   26.4346 O   0  0  0  0  0  0  0  0  0  0  0  0
  2  1  1  1
  3  2  1  0
  4  5  2  0
  4  3  1  0
  6  5  1  0
  7 12  2  0
  7  6  1  0
  8  7  1  0
  9 10  1  0
  9  8  2  0
 10 11  2  0
 11 12  1  0
 12  4  1  0
 13  2  1  0
 14 13  2  0
 15 13  1  0
 16 22  1  0
 16 15  1  0
 16 17  1  6
 18 17  1  0
 19 18  1  0
 20 19  1  0
 21 20  1  0
 22 23  2  0
 24 25  1  0
 24 22  1  0
 25 26  1  1
 25 33  1  0
 26 27  1  0
 27 28  2  0
 28 29  1  0
 30 29  2  0
 31 30  1  0
 32 27  1  0
 32 31  2  0
 33 35  2  0
 33 34  1  0
M  END
$$$$
