WKF.pdb
     RDKit          3D

 35 37  0  0  1  0  0  0  0  0999 V2000
    6.4978  -18.2575   25.3449 N   0  0  0  0  0  0  0  0  0  0  0  0
    6.6213  -16.9278   24.7939 C   0  0  1  0  0  0  0  0  0  0  0  0
    7.3404  -16.0031   25.7497 C   0  0  0  0  0  0  0  0  0  0  0  0
    6.4054  -14.9935   26.2645 C   0  0  0  0  0  0  0  0  0  0  0  0
    5.2205  -15.2533   26.9469 C   0  0  0  0  0  0  0  0  0  0  0  0
    4.6368  -14.1006   27.2934 N   0  0  0  0  0  0  0  0  0  0  0  0
    5.4168  -13.1118   26.8495 C   0  0  0  0  0  0  0  0  0  0  0  0
    5.2547  -11.7495   26.9403 C   0  0  0  0  0  0  0  0  0  0  0  0
    6.1853  -10.8978   26.3952 C   0  0  0  0  0  0  0  0  0  0  0  0
    7.2814  -11.4345   25.7563 C   0  0  0  0  0  0  0  0  0  0  0  0
    7.4792  -12.7950   25.6454 C   0  0  0  0  0  0  0  0  0  0  0  0
    6.5333  -13.6350   26.2006 C   0  0  0  0  0  0  0  0  0  0  0  0
    7.4513  -17.1076   23.5443 C   0  0  0  0  0  0  0  0  0  0  0  0
    8.3905  -17.9333   23.4577 O   0  0  0  0  0  0  0  0  0  0  0  0
    7.1157  -16.2803   22.4413 N   0  0  0  0  0  0  0  0  0  0  0  0
    8.1704  -15.6439   21.6049 C   0  0  1  0  0  0  0  0  0  0  0  0
    7.4817  -14.4486   21.0105 C   0  0  0  0  0  0  0  0  0  0  0  0
    8.2243  -13.7073   19.9676 C   0  0  0  0  0  0  0  0  0  0  0  0
    8.1153  -14.3049   18.5878 C   0  0  0  0  0  0  0  0  0  0  0  0
    8.8609  -13.4735   17.5556 C   0  0  0  0  0  0  0  0  0  0  0  0
    8.7086  -14.1728   16.2865 N   0  0  0  0  0  0  0  0  0  0  0  0
    9.3413  -15.3553   22.4335 C   0  0  0  0  0  0  0  0  0  0  0  0
    9.6062  -14.1165   22.6690 O   0  0  0  0  0  0  0  0  0  0  0  0
   10.2006  -16.3273   22.9967 N   0  0  0  0  0  0  0  0  0  0  0  0
   11.6370  -16.0417   23.1306 C   0  0  1  0  0  0  0  0  0  0  0  0
   11.8327  -14.8989   24.0807 C   0  0  0  0  0  0  0  0  0  0  0  0
   11.2840  -15.2423   25.4069 C   0  0  0  0  0  0  0  0  0  0  0  0
   12.0360  -16.0972   26.2026 C   0  0  0  0  0  0  0  0  0  0  0  0
   11.6038  -16.4416   27.4674 C   0  0  0  0  0  0  0  0  0  0  0  0
   10.4297  -15.9219   27.9047 C   0  0  0  0  0  0  0  0  0  0  0  0
    9.6636  -15.0651   27.1261 C   0  0  0  0  0  0  0  0  0  0  0  0
   10.0961  -14.7243   25.8673 C   0  0  0  0  0  0  0  0  0  0  0  0
   12.3067  -17.2578   23.5951 C   0  0  0  0  0  0  0  0  0  0  0  0
   11.6123  -18.4104   23.8623 O   0  0  0  0  0  0  0  0  0  0  0  0
   13.5577  -17.2617   23.7624 O   0  0  0  0  0  0  0  0  0  0  0  0
  2  1  1  1
  3  2  1  0
  4  5  2  0
  4  3  1  0
  6  5  1  0
  7 12  2  0
  7  6  1  0
  8  7  1  0
  9 10  1  0
  9  8  2  0
 10 11  2  0
 11 12  1  0
 12  4  1  0
 13  2  1  0
 14 13  2  0
 15 13  1  0
 16 22  1  0
 16 15  1  0
 16 17  1  1
 18 17  1  0
 19 18  1  0
 20 19  1  0
 21 20  1  0
 22 23  2  0
 24 25  1  0
 24 22  1  0
 25 26  1  1
 25 33  1  0
 26 27  1  0
 27 28  2  0
 28 29  1  0
 30 29  2  0
 31 30  1  0
 32 27  1  0
 32 31  2  0
 33 35  2  0
 33 34  1  0
M  END
$$$$
