ILP.pdb
     RDKit          3D

 24 24  0  0  1  0  0  0  0  0999 V2000
    8.5468  -22.1413   26.8117 C   0  0  0  0  0  0  0  0  0  0  0  0
    7.2069  -21.4716   26.7313 C   0  0  0  0  0  0  0  0  0  0  0  0
    7.3141  -20.2543   25.8431 C   0  0  2  0  0  0  0  0  0  0  0  0
    8.4501  -19.4136   26.3946 C   0  0  0  0  0  0  0  0  0  0  0  0
    6.0361  -19.4770   25.7481 C   0  0  2  0  0  0  0  0  0  0  0  0
    5.0201  -20.3623   25.2045 N   0  0  0  0  0  0  0  0  0  0  0  0
    6.1742  -18.2453   24.9083 C   0  0  0  0  0  0  0  0  0  0  0  0
    6.2151  -18.2763   23.6783 O   0  0  0  0  0  0  0  0  0  0  0  0
    5.9687  -12.3728   26.7652 C   0  0  0  0  0  0  0  0  0  0  0  0
    6.7346  -13.3191   25.8238 C   0  0  1  0  0  0  0  0  0  0  0  0
    8.2304  -13.2041   26.2367 C   0  0  0  0  0  0  0  0  0  0  0  0
    6.2775  -14.6870   26.1647 C   0  0  0  0  0  0  0  0  0  0  0  0
    6.6468  -15.7389   25.0803 C   0  0  2  0  0  0  0  0  0  0  0  0
    6.2587  -17.0178   25.5737 N   0  0  0  0  0  0  0  0  0  0  0  0
    8.0005  -15.6128   24.6324 C   0  0  0  0  0  0  0  0  0  0  0  0
    8.9162  -16.0348   25.4169 O   0  0  0  0  0  0  0  0  0  0  0  0
    8.4073  -15.0687   23.4052 N   0  0  0  0  0  0  0  0  0  0  0  0
    7.8799  -13.7942   22.8390 C   0  0  0  0  0  0  0  0  0  0  0  0
    7.4861  -14.3003   21.4673 C   0  0  0  0  0  0  0  0  0  0  0  0
    8.6845  -15.1491   21.1150 C   0  0  0  0  0  0  0  0  0  0  0  0
    9.3822  -15.4602   22.4186 C   0  0  1  0  0  0  0  0  0  0  0  0
   10.6103  -14.5801   22.4703 C   0  0  0  0  0  0  0  0  0  0  0  0
   10.6788  -13.5530   23.1852 O   0  0  0  0  0  0  0  0  0  0  0  0
   11.7296  -14.8819   21.7137 O   0  0  0  0  0  0  0  0  0  0  0  0
  1  2  1  0
  3  4  1  1
  3  2  1  0
  5  3  1  0
  5  6  1  6
  7  8  2  0
  7  5  1  0
 10 11  1  1
 10  9  1  0
 12 10  1  0
 13 14  1  0
 13 12  1  1
 14  7  1  0
 15 13  1  0
 16 15  2  0
 17 18  1  0
 17 15  1  0
 19 18  1  0
 20 21  1  0
 20 19  1  0
 21 17  1  0
 21 22  1  1
 22 24  1  0
 23 22  2  0
M  END
$$$$
