ILP.pdb
     RDKit          3D

 24 24  0  0  1  0  0  0  0  0999 V2000
    8.6202  -22.1002   25.1338 C   0  0  0  0  0  0  0  0  0  0  0  0
    8.1853  -21.0236   26.0835 C   0  0  0  0  0  0  0  0  0  0  0  0
    7.7160  -19.8252   25.2923 C   0  0  2  0  0  0  0  0  0  0  0  0
    8.8988  -19.3631   24.4623 C   0  0  0  0  0  0  0  0  0  0  0  0
    7.1706  -18.7254   26.1522 C   0  0  2  0  0  0  0  0  0  0  0  0
    6.1105  -19.2892   26.9706 N   0  0  0  0  0  0  0  0  0  0  0  0
    6.6655  -17.5664   25.3504 C   0  0  0  0  0  0  0  0  0  0  0  0
    5.6879  -17.6441   24.6061 O   0  0  0  0  0  0  0  0  0  0  0  0
    7.9345  -12.5556   27.2141 C   0  0  0  0  0  0  0  0  0  0  0  0
    7.2012  -13.7159   26.5179 C   0  0  1  0  0  0  0  0  0  0  0  0
    5.8479  -13.1250   26.0275 C   0  0  0  0  0  0  0  0  0  0  0  0
    8.0091  -14.0449   25.3199 C   0  0  0  0  0  0  0  0  0  0  0  0
    7.4675  -15.2777   24.5418 C   0  0  2  0  0  0  0  0  0  0  0  0
    7.3513  -16.3530   25.4691 N   0  0  0  0  0  0  0  0  0  0  0  0
    8.2121  -15.5435   23.3484 C   0  0  0  0  0  0  0  0  0  0  0  0
    8.8857  -16.6282   23.3104 O   0  0  0  0  0  0  0  0  0  0  0  0
    8.2629  -14.7166   22.2165 N   0  0  0  0  0  0  0  0  0  0  0  0
    7.8731  -13.2774   22.2132 C   0  0  0  0  0  0  0  0  0  0  0  0
    6.9080  -13.3057   21.0469 C   0  0  0  0  0  0  0  0  0  0  0  0
    7.6717  -14.1533   20.0574 C   0  0  0  0  0  0  0  0  0  0  0  0
    8.7007  -14.9168   20.8581 C   0  0  1  0  0  0  0  0  0  0  0  0
   10.0314  -14.2480   20.5981 C   0  0  0  0  0  0  0  0  0  0  0  0
   10.6416  -14.3531   19.5085 O   0  0  0  0  0  0  0  0  0  0  0  0
   10.6390  -13.4778   21.5747 O   0  0  0  0  0  0  0  0  0  0  0  0
  1  2  1  0
  3  4  1  1
  3  2  1  0
  5  3  1  0
  5  6  1  6
  7  8  2  0
  7  5  1  0
 10 11  1  6
 10  9  1  0
 12 10  1  0
 13 14  1  0
 13 12  1  1
 14  7  1  0
 15 13  1  0
 16 15  2  0
 17 18  1  0
 17 15  1  0
 19 18  1  0
 20 21  1  0
 20 19  1  0
 21 17  1  0
 21 22  1  1
 22 24  1  0
 23 22  2  0
M  END
$$$$
