ILP.pdb
     RDKit          3D

 24 24  0  0  1  0  0  0  0  0999 V2000
    9.9117  -19.6790   27.7519 C   0  0  0  0  0  0  0  0  0  0  0  0
    8.6143  -18.9827   27.4651 C   0  0  0  0  0  0  0  0  0  0  0  0
    7.6892  -19.9358   26.7454 C   0  0  2  0  0  0  0  0  0  0  0  0
    8.4425  -20.4343   25.5266 C   0  0  0  0  0  0  0  0  0  0  0  0
    6.3735  -19.3190   26.3780 C   0  0  2  0  0  0  0  0  0  0  0  0
    5.5233  -20.3732   25.8512 N   0  0  0  0  0  0  0  0  0  0  0  0
    6.5179  -18.2059   25.3872 C   0  0  0  0  0  0  0  0  0  0  0  0
    6.6123  -18.3983   24.1750 O   0  0  0  0  0  0  0  0  0  0  0  0
    6.1577  -12.1636   26.5352 C   0  0  0  0  0  0  0  0  0  0  0  0
    6.9155  -13.1851   25.6687 C   0  0  1  0  0  0  0  0  0  0  0  0
    8.4258  -12.9369   25.9489 C   0  0  0  0  0  0  0  0  0  0  0  0
    6.5690  -14.5175   26.2170 C   0  0  0  0  0  0  0  0  0  0  0  0
    6.8620  -15.6781   25.2240 C   0  0  2  0  0  0  0  0  0  0  0  0
    6.5441  -16.8991   25.8855 N   0  0  0  0  0  0  0  0  0  0  0  0
    8.1684  -15.5884   24.6457 C   0  0  0  0  0  0  0  0  0  0  0  0
    9.1439  -16.0413   25.3350 O   0  0  0  0  0  0  0  0  0  0  0  0
    8.4686  -15.0487   23.3862 N   0  0  0  0  0  0  0  0  0  0  0  0
    7.8558  -13.8032   22.8418 C   0  0  0  0  0  0  0  0  0  0  0  0
    7.3874  -14.3445   21.5075 C   0  0  0  0  0  0  0  0  0  0  0  0
    8.5896  -15.1543   21.0835 C   0  0  0  0  0  0  0  0  0  0  0  0
    9.3869  -15.4195   22.3392 C   0  0  1  0  0  0  0  0  0  0  0  0
   10.5818  -14.4944   22.2939 C   0  0  0  0  0  0  0  0  0  0  0  0
   11.5107  -14.6269   21.4631 O   0  0  0  0  0  0  0  0  0  0  0  0
   10.6975  -13.4435   23.1875 O   0  0  0  0  0  0  0  0  0  0  0  0
  1  2  1  0
  3  4  1  6
  3  2  1  0
  5  3  1  0
  5  6  1  6
  7  8  2  0
  7  5  1  0
 10 11  1  1
 10  9  1  0
 12 10  1  0
 13 14  1  0
 13 12  1  1
 14  7  1  0
 15 13  1  0
 16 15  2  0
 17 18  1  0
 17 15  1  0
 19 18  1  0
 20 21  1  0
 20 19  1  0
 21 17  1  0
 21 22  1  6
 22 24  1  0
 23 22  2  0
M  END
$$$$
