ILP.pdb
     RDKit          3D

 24 24  0  0  1  0  0  0  0  0999 V2000
    9.3027  -19.3028   19.8475 C   0  0  0  0  0  0  0  0  0  0  0  0
    8.7574  -17.9079   19.9324 C   0  0  0  0  0  0  0  0  0  0  0  0
    9.1077  -17.3203   21.2794 C   0  0  2  0  0  0  0  0  0  0  0  0
    8.6189  -18.3066   22.3233 C   0  0  0  0  0  0  0  0  0  0  0  0
    8.5392  -15.9500   21.4929 C   0  0  2  0  0  0  0  0  0  0  0  0
    8.8331  -15.1606   20.3088 N   0  0  0  0  0  0  0  0  0  0  0  0
    9.0807  -15.2888   22.7221 C   0  0  0  0  0  0  0  0  0  0  0  0
   10.2419  -14.8892   22.8095 O   0  0  0  0  0  0  0  0  0  0  0  0
    5.3506  -12.7610   26.0587 C   0  0  0  0  0  0  0  0  0  0  0  0
    6.6309  -13.0706   25.2627 C   0  0  1  0  0  0  0  0  0  0  0  0
    7.6383  -11.9431   25.6302 C   0  0  0  0  0  0  0  0  0  0  0  0
    7.1553  -14.3409   25.8171 C   0  0  0  0  0  0  0  0  0  0  0  0
    8.4922  -14.7853   25.1583 C   0  0  2  0  0  0  0  0  0  0  0  0
    8.2098  -15.1297   23.8050 N   0  0  0  0  0  0  0  0  0  0  0  0
    9.1860  -15.7680   25.9342 C   0  0  0  0  0  0  0  0  0  0  0  0
    9.2167  -16.9593   25.4741 O   0  0  0  0  0  0  0  0  0  0  0  0
    9.8371  -15.5344   27.1544 N   0  0  0  0  0  0  0  0  0  0  0  0
    9.4522  -14.4624   28.1167 C   0  0  0  0  0  0  0  0  0  0  0  0
   10.8097  -13.8147   28.2907 C   0  0  0  0  0  0  0  0  0  0  0  0
   11.6969  -15.0293   28.4251 C   0  0  0  0  0  0  0  0  0  0  0  0
   10.9208  -16.1881   27.8439 C   0  0  1  0  0  0  0  0  0  0  0  0
   10.4231  -17.0037   29.0156 C   0  0  0  0  0  0  0  0  0  0  0  0
   11.1855  -17.6863   29.7391 O   0  0  0  0  0  0  0  0  0  0  0  0
    9.0777  -17.0278   29.3404 O   0  0  0  0  0  0  0  0  0  0  0  0
  1  2  1  0
  3  4  1  1
  3  2  1  0
  5  3  1  0
  5  6  1  6
  7  8  2  0
  7  5  1  0
 10 11  1  1
 10  9  1  0
 12 10  1  0
 13 14  1  0
 13 12  1  1
 14  7  1  0
 15 13  1  0
 16 15  2  0
 17 18  1  0
 17 15  1  0
 19 18  1  0
 20 21  1  0
 20 19  1  0
 21 17  1  0
 21 22  1  1
 22 24  1  0
 23 22  2  0
M  END
$$$$
