ILP.pdb
     RDKit          3D

 24 24  0  0  1  0  0  0  0  0999 V2000
    9.7538  -20.4365   24.8247 C   0  0  0  0  0  0  0  0  0  0  0  0
    8.3423  -19.9951   25.0765 C   0  0  0  0  0  0  0  0  0  0  0  0
    8.3035  -19.1506   26.3284 C   0  0  2  0  0  0  0  0  0  0  0  0
    8.7750  -20.0378   27.4651 C   0  0  0  0  0  0  0  0  0  0  0  0
    6.9535  -18.5594   26.6015 C   0  0  2  0  0  0  0  0  0  0  0  0
    5.9936  -19.6496   26.6401 N   0  0  0  0  0  0  0  0  0  0  0  0
    6.5576  -17.5368   25.5823 C   0  0  0  0  0  0  0  0  0  0  0  0
    5.7737  -17.7771   24.6639 O   0  0  0  0  0  0  0  0  0  0  0  0
    7.8579  -12.3377   27.1429 C   0  0  0  0  0  0  0  0  0  0  0  0
    7.0704  -13.4949   26.5032 C   0  0  1  0  0  0  0  0  0  0  0  0
    5.8188  -12.8416   25.8491 C   0  0  0  0  0  0  0  0  0  0  0  0
    7.9285  -14.0148   25.4126 C   0  0  0  0  0  0  0  0  0  0  0  0
    7.3240  -15.2610   24.7055 C   0  0  2  0  0  0  0  0  0  0  0  0
    7.1164  -16.2598   25.7000 N   0  0  0  0  0  0  0  0  0  0  0  0
    8.0756  -15.6561   23.5530 C   0  0  0  0  0  0  0  0  0  0  0  0
    8.7331  -16.7486   23.6318 O   0  0  0  0  0  0  0  0  0  0  0  0
    8.1496  -14.9484   22.3443 N   0  0  0  0  0  0  0  0  0  0  0  0
    7.7356  -13.5253   22.1811 C   0  0  0  0  0  0  0  0  0  0  0  0
    6.8100  -13.6922   20.9945 C   0  0  0  0  0  0  0  0  0  0  0  0
    7.6201  -14.6208   20.1215 C   0  0  0  0  0  0  0  0  0  0  0  0
    8.6352  -15.2774   21.0278 C   0  0  1  0  0  0  0  0  0  0  0  0
    9.9620  -14.6117   20.7419 C   0  0  0  0  0  0  0  0  0  0  0  0
   10.4541  -13.7326   21.4873 O   0  0  0  0  0  0  0  0  0  0  0  0
   10.6994  -14.9554   19.6218 O   0  0  0  0  0  0  0  0  0  0  0  0
  1  2  1  0
  3  4  1  1
  3  2  1  0
  5  3  1  0
  5  6  1  6
  7  8  2  0
  7  5  1  0
 10 11  1  6
 10  9  1  0
 12 10  1  0
 13 14  1  0
 13 12  1  1
 14  7  1  0
 15 13  1  0
 16 15  2  0
 17 18  1  0
 17 15  1  0
 19 18  1  0
 20 21  1  0
 20 19  1  0
 21 17  1  0
 21 22  1  6
 22 24  1  0
 23 22  2  0
M  END
$$$$
