ILP.pdb
     RDKit          3D

 24 24  0  0  1  0  0  0  0  0999 V2000
    7.7900  -22.5222   25.3061 C   0  0  0  0  0  0  0  0  0  0  0  0
    6.5805  -21.6585   25.5101 C   0  0  0  0  0  0  0  0  0  0  0  0
    6.7832  -20.3447   24.7925 C   0  0  2  0  0  0  0  0  0  0  0  0
    8.0828  -19.7614   25.3144 C   0  0  0  0  0  0  0  0  0  0  0  0
    5.6353  -19.3958   24.9603 C   0  0  2  0  0  0  0  0  0  0  0  0
    4.4471  -20.0417   24.4289 N   0  0  0  0  0  0  0  0  0  0  0  0
    5.8739  -18.0809   24.2854 C   0  0  0  0  0  0  0  0  0  0  0  0
    5.9006  -17.9531   23.0613 O   0  0  0  0  0  0  0  0  0  0  0  0
    5.7593  -12.4285   26.4441 C   0  0  0  0  0  0  0  0  0  0  0  0
    6.7716  -13.3452   25.7345 C   0  0  1  0  0  0  0  0  0  0  0  0
    8.1108  -13.1717   26.5075 C   0  0  0  0  0  0  0  0  0  0  0  0
    6.2952  -14.7295   25.9645 C   0  0  0  0  0  0  0  0  0  0  0  0
    6.6255  -15.6894   24.7863 C   0  0  2  0  0  0  0  0  0  0  0  0
    6.0725  -16.9635   25.1032 N   0  0  0  0  0  0  0  0  0  0  0  0
    8.0126  -15.6671   24.4330 C   0  0  0  0  0  0  0  0  0  0  0  0
    8.8195  -16.2964   25.1977 O   0  0  0  0  0  0  0  0  0  0  0  0
    8.5609  -15.0162   23.3180 N   0  0  0  0  0  0  0  0  0  0  0  0
    8.2799  -13.5976   22.9551 C   0  0  0  0  0  0  0  0  0  0  0  0
    7.8716  -13.8083   21.5124 C   0  0  0  0  0  0  0  0  0  0  0  0
    8.9271  -14.7848   21.0507 C   0  0  0  0  0  0  0  0  0  0  0  0
    9.5018  -15.4106   22.3001 C   0  0  1  0  0  0  0  0  0  0  0  0
   10.8556  -14.7735   22.5171 C   0  0  0  0  0  0  0  0  0  0  0  0
   11.0700  -13.9262   23.4153 O   0  0  0  0  0  0  0  0  0  0  0  0
   11.9324  -15.1091   21.7146 O   0  0  0  0  0  0  0  0  0  0  0  0
  1  2  1  0
  3  4  1  1
  3  2  1  0
  5  3  1  0
  5  6  1  6
  7  8  2  0
  7  5  1  0
 10 11  1  1
 10  9  1  0
 12 10  1  0
 13 14  1  0
 13 12  1  1
 14  7  1  0
 15 13  1  0
 16 15  2  0
 17 18  1  0
 17 15  1  0
 19 18  1  0
 20 21  1  0
 20 19  1  0
 21 17  1  0
 21 22  1  1
 22 24  1  0
 23 22  2  0
M  END
$$$$
