ILP.pdb
     RDKit          3D

 24 24  0  0  1  0  0  0  0  0999 V2000
    9.9020  -20.3298   26.3061 C   0  0  0  0  0  0  0  0  0  0  0  0
    8.5576  -20.0992   25.6819 C   0  0  0  0  0  0  0  0  0  0  0  0
    7.5982  -19.6071   26.7399 C   0  0  2  0  0  0  0  0  0  0  0  0
    7.5404  -20.6832   27.8076 C   0  0  0  0  0  0  0  0  0  0  0  0
    6.2389  -19.2797   26.1997 C   0  0  2  0  0  0  0  0  0  0  0  0
    5.7313  -20.4665   25.5324 N   0  0  0  0  0  0  0  0  0  0  0  0
    6.2589  -18.1103   25.2650 C   0  0  0  0  0  0  0  0  0  0  0  0
    6.2183  -18.2327   24.0407 O   0  0  0  0  0  0  0  0  0  0  0  0
    6.0360  -12.1153   26.6735 C   0  0  0  0  0  0  0  0  0  0  0  0
    6.8232  -13.1301   25.8255 C   0  0  1  0  0  0  0  0  0  0  0  0
    8.3105  -12.9745   26.2556 C   0  0  0  0  0  0  0  0  0  0  0  0
    6.3648  -14.4686   26.2665 C   0  0  0  0  0  0  0  0  0  0  0  0
    6.6782  -15.5887   25.2342 C   0  0  2  0  0  0  0  0  0  0  0  0
    6.3270  -16.8333   25.8320 N   0  0  0  0  0  0  0  0  0  0  0  0
    8.0034  -15.4891   24.7021 C   0  0  0  0  0  0  0  0  0  0  0  0
    8.9629  -15.8805   25.4491 O   0  0  0  0  0  0  0  0  0  0  0  0
    8.3381  -15.0016   23.4302 N   0  0  0  0  0  0  0  0  0  0  0  0
    7.8386  -13.7134   22.8696 C   0  0  0  0  0  0  0  0  0  0  0  0
    7.3058  -14.2307   21.5501 C   0  0  0  0  0  0  0  0  0  0  0  0
    8.4215  -15.1571   21.1286 C   0  0  0  0  0  0  0  0  0  0  0  0
    9.2051  -15.4749   22.3808 C   0  0  1  0  0  0  0  0  0  0  0  0
   10.4810  -14.6672   22.3067 C   0  0  0  0  0  0  0  0  0  0  0  0
   10.6811  -13.6496   23.0103 O   0  0  0  0  0  0  0  0  0  0  0  0
   11.4982  -15.0290   21.4403 O   0  0  0  0  0  0  0  0  0  0  0  0
  1  2  1  0
  3  4  1  1
  3  2  1  0
  5  3  1  0
  5  6  1  6
  7  8  2  0
  7  5  1  0
 10 11  1  1
 10  9  1  0
 12 10  1  0
 13 14  1  0
 13 12  1  1
 14  7  1  0
 15 13  1  0
 16 15  2  0
 17 18  1  0
 17 15  1  0
 19 18  1  0
 20 21  1  0
 20 19  1  0
 21 17  1  0
 21 22  1  6
 22 24  1  0
 23 22  2  0
M  END
$$$$
