ILP.pdb
     RDKit          3D

 24 24  0  0  1  0  0  0  0  0999 V2000
    8.0126  -22.2931   24.7796 C   0  0  0  0  0  0  0  0  0  0  0  0
    6.7818  -21.5111   25.1319 C   0  0  0  0  0  0  0  0  0  0  0  0
    6.8592  -20.1479   24.4855 C   0  0  2  0  0  0  0  0  0  0  0  0
    8.1885  -19.5459   24.9004 C   0  0  0  0  0  0  0  0  0  0  0  0
    5.7059  -19.2588   24.8401 C   0  0  2  0  0  0  0  0  0  0  0  0
    4.4899  -19.9087   24.3813 N   0  0  0  0  0  0  0  0  0  0  0  0
    5.8337  -17.8893   24.2489 C   0  0  0  0  0  0  0  0  0  0  0  0
    5.6144  -17.6509   23.0612 O   0  0  0  0  0  0  0  0  0  0  0  0
    6.2821  -12.3835   26.8363 C   0  0  0  0  0  0  0  0  0  0  0  0
    7.0604  -13.2902   25.8664 C   0  0  1  0  0  0  0  0  0  0  0  0
    8.5167  -13.3390   26.4124 C   0  0  0  0  0  0  0  0  0  0  0  0
    6.4765  -14.6435   26.0202 C   0  0  0  0  0  0  0  0  0  0  0  0
    6.7420  -15.5627   24.7942 C   0  0  2  0  0  0  0  0  0  0  0  0
    6.2208  -16.8519   25.1039 N   0  0  0  0  0  0  0  0  0  0  0  0
    8.1044  -15.5146   24.3575 C   0  0  0  0  0  0  0  0  0  0  0  0
    8.9833  -16.0258   25.1308 O   0  0  0  0  0  0  0  0  0  0  0  0
    8.5564  -14.9571   23.1523 N   0  0  0  0  0  0  0  0  0  0  0  0
    8.0767  -13.6582   22.5992 C   0  0  0  0  0  0  0  0  0  0  0  0
    7.7053  -14.1266   21.2080 C   0  0  0  0  0  0  0  0  0  0  0  0
    8.8900  -14.9994   20.8686 C   0  0  0  0  0  0  0  0  0  0  0  0
    9.5458  -15.3545   22.1827 C   0  0  1  0  0  0  0  0  0  0  0  0
   10.7945  -14.5082   22.2832 C   0  0  0  0  0  0  0  0  0  0  0  0
   11.7765  -14.6551   21.5185 O   0  0  0  0  0  0  0  0  0  0  0  0
   10.9027  -13.5178   23.2443 O   0  0  0  0  0  0  0  0  0  0  0  0
  1  2  1  0
  3  4  1  1
  3  2  1  0
  5  3  1  0
  5  6  1  6
  7  8  2  0
  7  5  1  0
 10 11  1  1
 10  9  1  0
 12 10  1  0
 13 14  1  0
 13 12  1  1
 14  7  1  0
 15 13  1  0
 16 15  2  0
 17 18  1  0
 17 15  1  0
 19 18  1  0
 20 21  1  0
 20 19  1  0
 21 17  1  0
 21 22  1  1
 22 24  1  0
 23 22  2  0
M  END
$$$$
