ILP.pdb
     RDKit          3D

 24 24  0  0  1  0  0  0  0  0999 V2000
    9.3722  -21.7646   26.8685 C   0  0  0  0  0  0  0  0  0  0  0  0
    8.5537  -20.7080   27.5496 C   0  0  0  0  0  0  0  0  0  0  0  0
    8.0397  -19.7355   26.5141 C   0  0  2  0  0  0  0  0  0  0  0  0
    9.2504  -19.2381   25.7472 C   0  0  0  0  0  0  0  0  0  0  0  0
    7.2472  -18.6080   27.1034 C   0  0  2  0  0  0  0  0  0  0  0  0
    6.1193  -19.1856   27.8147 N   0  0  0  0  0  0  0  0  0  0  0  0
    6.7812  -17.6315   26.0688 C   0  0  0  0  0  0  0  0  0  0  0  0
    5.8902  -17.8897   25.2594 O   0  0  0  0  0  0  0  0  0  0  0  0
    7.7813  -12.2979   27.1879 C   0  0  0  0  0  0  0  0  0  0  0  0
    7.0882  -13.5553   26.6339 C   0  0  1  0  0  0  0  0  0  0  0  0
    5.7998  -13.0478   25.9243 C   0  0  0  0  0  0  0  0  0  0  0  0
    7.9948  -14.0913   25.5912 C   0  0  0  0  0  0  0  0  0  0  0  0
    7.4933  -15.4307   24.9803 C   0  0  2  0  0  0  0  0  0  0  0  0
    7.4008  -16.3777   26.0407 N   0  0  0  0  0  0  0  0  0  0  0  0
    8.2534  -15.8296   23.8347 C   0  0  0  0  0  0  0  0  0  0  0  0
    9.0451  -16.8220   23.9766 O   0  0  0  0  0  0  0  0  0  0  0  0
    8.2009  -15.2262   22.5695 N   0  0  0  0  0  0  0  0  0  0  0  0
    7.6693  -13.8562   22.3171 C   0  0  0  0  0  0  0  0  0  0  0  0
    6.6909  -14.1920   21.2113 C   0  0  0  0  0  0  0  0  0  0  0  0
    7.5175  -15.1323   20.3667 C   0  0  0  0  0  0  0  0  0  0  0  0
    8.6319  -15.6327   21.2558 C   0  0  1  0  0  0  0  0  0  0  0  0
    9.8842  -14.9007   20.8298 C   0  0  0  0  0  0  0  0  0  0  0  0
   10.3229  -13.8968   21.4385 O   0  0  0  0  0  0  0  0  0  0  0  0
   10.6091  -15.3205   19.7277 O   0  0  0  0  0  0  0  0  0  0  0  0
  1  2  1  0
  3  4  1  1
  3  2  1  0
  5  3  1  0
  5  6  1  6
  7  8  2  0
  7  5  1  0
 10 11  1  6
 10  9  1  0
 12 10  1  0
 13 14  1  0
 13 12  1  1
 14  7  1  0
 15 13  1  0
 16 15  2  0
 17 18  1  0
 17 15  1  0
 19 18  1  0
 20 21  1  0
 20 19  1  0
 21 17  1  0
 21 22  1  6
 22 24  1  0
 23 22  2  0
M  END
$$$$
