ILP.pdb
     RDKit          3D

 24 24  0  0  1  0  0  0  0  0999 V2000
    8.5238  -22.3811   25.4991 C   0  0  0  0  0  0  0  0  0  0  0  0
    7.3132  -21.5892   25.8964 C   0  0  0  0  0  0  0  0  0  0  0  0
    7.2698  -20.3126   25.0898 C   0  0  2  0  0  0  0  0  0  0  0  0
    8.5680  -19.5788   25.3688 C   0  0  0  0  0  0  0  0  0  0  0  0
    6.0708  -19.4644   25.3889 C   0  0  2  0  0  0  0  0  0  0  0  0
    4.8877  -20.2371   25.0499 N   0  0  0  0  0  0  0  0  0  0  0  0
    6.0882  -18.1638   24.6477 C   0  0  0  0  0  0  0  0  0  0  0  0
    5.8818  -18.0819   23.4368 O   0  0  0  0  0  0  0  0  0  0  0  0
    5.9885  -12.4068   26.2902 C   0  0  0  0  0  0  0  0  0  0  0  0
    7.0957  -13.3671   25.8206 C   0  0  1  0  0  0  0  0  0  0  0  0
    8.3164  -13.0858   26.7435 C   0  0  0  0  0  0  0  0  0  0  0  0
    6.6051  -14.7316   26.1267 C   0  0  0  0  0  0  0  0  0  0  0  0
    6.7895  -15.7233   24.9429 C   0  0  2  0  0  0  0  0  0  0  0  0
    6.3529  -17.0052   25.3854 N   0  0  0  0  0  0  0  0  0  0  0  0
    8.1009  -15.6588   24.3726 C   0  0  0  0  0  0  0  0  0  0  0  0
    9.0471  -16.2214   25.0207 O   0  0  0  0  0  0  0  0  0  0  0  0
    8.4351  -15.0337   23.1622 N   0  0  0  0  0  0  0  0  0  0  0  0
    7.9172  -13.7016   22.7373 C   0  0  0  0  0  0  0  0  0  0  0  0
    7.4015  -14.0847   21.3663 C   0  0  0  0  0  0  0  0  0  0  0  0
    8.5355  -14.9429   20.8578 C   0  0  0  0  0  0  0  0  0  0  0  0
    9.3166  -15.3788   22.0756 C   0  0  1  0  0  0  0  0  0  0  0  0
   10.5790  -14.5472   22.0977 C   0  0  0  0  0  0  0  0  0  0  0  0
   11.4677  -14.6403   21.2190 O   0  0  0  0  0  0  0  0  0  0  0  0
   10.8056  -13.6318   23.1110 O   0  0  0  0  0  0  0  0  0  0  0  0
  1  2  1  0
  3  4  1  1
  3  2  1  0
  5  3  1  0
  5  6  1  6
  7  8  2  0
  7  5  1  0
 10 11  1  1
 10  9  1  0
 12 10  1  0
 13 14  1  0
 13 12  1  1
 14  7  1  0
 15 13  1  0
 16 15  2  0
 17 18  1  0
 17 15  1  0
 19 18  1  0
 20 21  1  0
 20 19  1  0
 21 17  1  0
 21 22  1  1
 22 24  1  0
 23 22  2  0
M  END
$$$$
