QKY.pdb
     RDKit          3D

 31 31  0  0  1  0  0  0  0  0999 V2000
   20.0893  -10.8998  -22.1248 N   0  0  0  0  0  0  0  0  0  0  0  0
   18.8397  -11.5210  -21.8449 C   0  0  0  0  0  0  0  0  0  0  0  0
   17.8328  -11.0437  -22.3926 O   0  0  0  0  0  0  0  0  0  0  0  0
   18.7866  -12.6701  -20.9385 C   0  0  0  0  0  0  0  0  0  0  0  0
   20.0632  -13.0722  -20.2858 C   0  0  0  0  0  0  0  0  0  0  0  0
   20.9563  -13.8048  -21.2217 C   0  0  2  0  0  0  0  0  0  0  0  0
   20.1942  -14.4693  -22.2451 N   0  0  0  0  0  0  0  0  0  0  0  0
   21.7724  -14.8414  -20.5418 C   0  0  0  0  0  0  0  0  0  0  0  0
   21.4073  -16.0312  -20.4959 O   0  0  0  0  0  0  0  0  0  0  0  0
   22.9939  -14.4580  -19.9341 N   0  0  0  0  0  0  0  0  0  0  0  0
   23.8677  -15.3930  -19.2761 C   0  0  1  0  0  0  0  0  0  0  0  0
   25.2767  -14.9948  -19.1348 C   0  0  0  0  0  0  0  0  0  0  0  0
   26.1676  -14.8055  -20.2709 C   0  0  0  0  0  0  0  0  0  0  0  0
   27.5932  -14.4330  -19.9950 C   0  0  0  0  0  0  0  0  0  0  0  0
   28.4245  -14.3283  -21.2576 C   0  0  0  0  0  0  0  0  0  0  0  0
   29.7739  -13.8864  -20.9322 N   0  0  0  0  0  0  0  0  0  0  0  0
   23.2318  -15.8598  -18.0217 C   0  0  0  0  0  0  0  0  0  0  0  0
   22.5112  -15.0566  -17.3830 O   0  0  0  0  0  0  0  0  0  0  0  0
   18.4671  -19.6211  -11.9787 O   0  0  0  0  0  0  0  0  0  0  0  0
   19.1323  -19.1539  -13.1033 C   0  0  0  0  0  0  0  0  0  0  0  0
   19.5523  -19.9635  -14.1338 C   0  0  0  0  0  0  0  0  0  0  0  0
   20.2104  -19.4779  -15.2400 C   0  0  0  0  0  0  0  0  0  0  0  0
   20.4705  -18.1277  -15.3419 C   0  0  0  0  0  0  0  0  0  0  0  0
   21.1900  -17.5358  -16.4924 C   0  0  0  0  0  0  0  0  0  0  0  0
   22.6613  -17.6613  -16.3274 C   0  0  2  0  0  0  0  0  0  0  0  0
   23.3886  -17.1639  -17.4972 N   0  0  0  0  0  0  0  0  0  0  0  0
   23.1215  -19.0408  -16.0733 C   0  0  0  0  0  0  0  0  0  0  0  0
   23.3232  -19.4582  -14.8905 O   0  0  0  0  0  0  0  0  0  0  0  0
   20.0434  -17.3160  -14.2970 C   0  0  0  0  0  0  0  0  0  0  0  0
   19.3946  -17.8037  -13.2090 C   0  0  0  0  0  0  0  0  0  0  0  0
   23.3667  -19.9814  -17.0770 O   0  0  0  0  0  0  0  0  0  0  0  0
  2  1  1  0
  2  4  1  0
  3  2  2  0
  5  4  1  0
  6  5  1  0
  6  7  1  6
  8  6  1  0
  8  9  2  0
 10  8  1  0
 11 10  1  0
 11 12  1  1
 13 12  1  0
 14 13  1  0
 15 14  1  0
 16 15  1  0
 17 11  1  0
 17 26  1  0
 18 17  2  0
 19 20  1  0
 20 30  2  0
 20 21  1  0
 21 22  2  0
 22 23  1  0
 23 24  1  0
 25 24  1  6
 25 26  1  0
 25 27  1  0
 27 28  2  0
 27 31  1  0
 29 23  2  0
 30 29  1  0
M  END
$$$$
