QKY.pdb
     RDKit          3D

 31 31  0  0  1  0  0  0  0  0999 V2000
   28.1017  -29.2307  -16.5761 N   0  0  0  0  0  0  0  0  0  0  0  0
   29.3105  -29.6245  -17.2162 C   0  0  0  0  0  0  0  0  0  0  0  0
   30.1271  -28.7296  -17.4878 O   0  0  0  0  0  0  0  0  0  0  0  0
   29.5402  -31.0368  -17.5287 C   0  0  0  0  0  0  0  0  0  0  0  0
   28.5439  -32.0125  -17.0064 C   0  0  0  0  0  0  0  0  0  0  0  0
   29.0432  -32.7199  -15.7979 C   0  0  2  0  0  0  0  0  0  0  0  0
   30.0772  -33.6589  -16.1426 N   0  0  0  0  0  0  0  0  0  0  0  0
   27.9779  -33.4801  -15.0977 C   0  0  0  0  0  0  0  0  0  0  0  0
   26.8923  -32.9506  -14.7942 O   0  0  0  0  0  0  0  0  0  0  0  0
   28.2114  -34.8393  -14.7718 N   0  0  0  0  0  0  0  0  0  0  0  0
   27.2575  -35.6483  -14.0604 C   0  0  1  0  0  0  0  0  0  0  0  0
   27.1701  -37.0641  -14.4496 C   0  0  0  0  0  0  0  0  0  0  0  0
   26.6551  -37.5044  -15.7385 C   0  0  0  0  0  0  0  0  0  0  0  0
   25.2021  -37.2804  -16.0314 C   0  0  0  0  0  0  0  0  0  0  0  0
   24.7763  -37.8703  -17.3606 C   0  0  0  0  0  0  0  0  0  0  0  0
   23.3750  -37.5656  -17.6167 N   0  0  0  0  0  0  0  0  0  0  0  0
   27.4086  -35.4190  -12.6043 C   0  0  0  0  0  0  0  0  0  0  0  0
   28.4892  -35.7443  -12.0577 O   0  0  0  0  0  0  0  0  0  0  0  0
   26.5372  -32.3155   -4.3982 O   0  0  0  0  0  0  0  0  0  0  0  0
   26.5316  -32.5375   -5.7679 C   0  0  0  0  0  0  0  0  0  0  0  0
   27.6704  -32.7392   -6.5137 C   0  0  0  0  0  0  0  0  0  0  0  0
   27.6407  -32.9578   -7.8716 C   0  0  0  0  0  0  0  0  0  0  0  0
   26.4315  -32.9799   -8.5336 C   0  0  0  0  0  0  0  0  0  0  0  0
   26.3228  -33.1903   -9.9950 C   0  0  0  0  0  0  0  0  0  0  0  0
   26.5616  -34.6128  -10.3517 C   0  0  2  0  0  0  0  0  0  0  0  0
   26.4025  -34.8521  -11.7877 N   0  0  0  0  0  0  0  0  0  0  0  0
   25.6831  -35.5650   -9.6439 C   0  0  0  0  0  0  0  0  0  0  0  0
   24.5001  -35.7913  -10.0476 O   0  0  0  0  0  0  0  0  0  0  0  0
   25.2854  -32.7751   -7.7737 C   0  0  0  0  0  0  0  0  0  0  0  0
   25.3237  -32.5601   -6.4339 C   0  0  0  0  0  0  0  0  0  0  0  0
   26.0614  -36.2810   -8.5053 O   0  0  0  0  0  0  0  0  0  0  0  0
  2  1  1  0
  2  4  1  0
  3  2  2  0
  5  4  1  0
  6  5  1  0
  6  7  1  6
  8  6  1  0
  8  9  2  0
 10  8  1  0
 11 10  1  0
 11 12  1  1
 13 12  1  0
 14 13  1  0
 15 14  1  0
 16 15  1  0
 17 11  1  0
 17 26  1  0
 18 17  2  0
 19 20  1  0
 20 30  2  0
 20 21  1  0
 21 22  2  0
 22 23  1  0
 23 24  1  0
 25 24  1  6
 25 26  1  0
 25 27  1  0
 27 28  2  0
 27 31  1  0
 29 23  2  0
 30 29  1  0
M  END
$$$$
