QKY.pdb
     RDKit          3D

 31 31  0  0  1  0  0  0  0  0999 V2000
   14.5968  -12.4359  -16.7543 N   0  0  0  0  0  0  0  0  0  0  0  0
   15.5781  -13.4627  -16.8462 C   0  0  0  0  0  0  0  0  0  0  0  0
   15.3079  -14.4447  -17.5562 O   0  0  0  0  0  0  0  0  0  0  0  0
   16.8393  -13.3300  -16.1134 C   0  0  0  0  0  0  0  0  0  0  0  0
   16.9851  -12.1363  -15.2353 C   0  0  0  0  0  0  0  0  0  0  0  0
   18.1531  -11.3027  -15.6242 C   0  0  2  0  0  0  0  0  0  0  0  0
   19.3848  -12.0180  -15.4226 N   0  0  0  0  0  0  0  0  0  0  0  0
   18.2450  -10.0445  -14.8422 C   0  0  0  0  0  0  0  0  0  0  0  0
   18.8472   -9.9973  -13.7530 O   0  0  0  0  0  0  0  0  0  0  0  0
   17.6301   -8.8755  -15.3556 N   0  0  0  0  0  0  0  0  0  0  0  0
   17.6421   -7.6155  -14.6607 C   0  0  1  0  0  0  0  0  0  0  0  0
   17.6293   -6.4017  -15.4915 C   0  0  0  0  0  0  0  0  0  0  0  0
   17.5620   -5.0578  -14.9352 C   0  0  0  0  0  0  0  0  0  0  0  0
   17.6663   -3.8977  -15.8788 C   0  0  0  0  0  0  0  0  0  0  0  0
   17.5346   -2.5607  -15.1780 C   0  0  0  0  0  0  0  0  0  0  0  0
   18.6105   -2.3959  -14.2097 N   0  0  0  0  0  0  0  0  0  0  0  0
   16.6204   -7.6373  -13.5877 C   0  0  0  0  0  0  0  0  0  0  0  0
   15.4759   -8.0702  -13.8619 O   0  0  0  0  0  0  0  0  0  0  0  0
   11.9106   -7.2734   -6.2549 O   0  0  0  0  0  0  0  0  0  0  0  0
   12.9600   -7.3844   -7.1559 C   0  0  0  0  0  0  0  0  0  0  0  0
   14.0964   -6.6100   -7.1044 C   0  0  0  0  0  0  0  0  0  0  0  0
   15.1249   -6.7380   -8.0090 C   0  0  0  0  0  0  0  0  0  0  0  0
   15.0351   -7.6741   -9.0173 C   0  0  0  0  0  0  0  0  0  0  0  0
   16.0926   -7.8556  -10.0373 C   0  0  0  0  0  0  0  0  0  0  0  0
   15.8067   -7.0542  -11.2554 C   0  0  2  0  0  0  0  0  0  0  0  0
   16.8581   -7.1968  -12.2649 N   0  0  0  0  0  0  0  0  0  0  0  0
   15.6331   -5.6110  -10.9976 C   0  0  0  0  0  0  0  0  0  0  0  0
   14.4777   -5.1062  -10.8426 O   0  0  0  0  0  0  0  0  0  0  0  0
   13.8841   -8.4525   -9.0633 C   0  0  0  0  0  0  0  0  0  0  0  0
   12.8739   -8.3197   -8.1664 C   0  0  0  0  0  0  0  0  0  0  0  0
   16.6886   -4.7005  -10.9017 O   0  0  0  0  0  0  0  0  0  0  0  0
  2  1  1  0
  2  4  1  0
  3  2  2  0
  5  4  1  0
  6  5  1  0
  6  7  1  1
  8  6  1  0
  8  9  2  0
 10  8  1  0
 11 10  1  0
 11 12  1  6
 13 12  1  0
 14 13  1  0
 15 14  1  0
 16 15  1  0
 17 11  1  0
 17 26  1  0
 18 17  2  0
 19 20  1  0
 20 30  2  0
 20 21  1  0
 21 22  2  0
 22 23  1  0
 23 24  1  0
 25 24  1  1
 25 26  1  0
 25 27  1  0
 27 28  2  0
 27 31  1  0
 29 23  2  0
 30 29  1  0
M  END
$$$$
