QKY.pdb
     RDKit          3D

 31 31  0  0  1  0  0  0  0  0999 V2000
   27.0957  -17.0673  -18.3560 N   0  0  0  0  0  0  0  0  0  0  0  0
   28.4734  -17.1414  -18.0063 C   0  0  0  0  0  0  0  0  0  0  0  0
   29.3003  -16.9178  -18.9051 O   0  0  0  0  0  0  0  0  0  0  0  0
   28.8573  -17.4757  -16.6331 C   0  0  0  0  0  0  0  0  0  0  0  0
   27.7519  -17.7098  -15.6632 C   0  0  0  0  0  0  0  0  0  0  0  0
   27.8464  -19.0515  -15.0298 C   0  0  2  0  0  0  0  0  0  0  0  0
   27.2777  -20.0626  -15.8806 N   0  0  0  0  0  0  0  0  0  0  0  0
   27.1342  -19.1229  -13.7295 C   0  0  0  0  0  0  0  0  0  0  0  0
   27.0987  -18.1504  -12.9523 O   0  0  0  0  0  0  0  0  0  0  0  0
   26.4825  -20.3300  -13.3739 N   0  0  0  0  0  0  0  0  0  0  0  0
   25.4457  -20.3953  -12.3783 C   0  0  1  0  0  0  0  0  0  0  0  0
   24.2080  -21.0942  -12.7570 C   0  0  0  0  0  0  0  0  0  0  0  0
   23.0145  -21.1067  -11.9230 C   0  0  0  0  0  0  0  0  0  0  0  0
   21.8263  -21.8843  -12.4035 C   0  0  0  0  0  0  0  0  0  0  0  0
   20.6244  -21.7369  -11.4926 C   0  0  0  0  0  0  0  0  0  0  0  0
   19.4650  -22.3900  -12.0854 N   0  0  0  0  0  0  0  0  0  0  0  0
   26.0301  -20.8344  -11.0893 C   0  0  0  0  0  0  0  0  0  0  0  0
   26.7765  -21.8419  -11.0847 O   0  0  0  0  0  0  0  0  0  0  0  0
   29.6395  -20.2232   -3.0758 O   0  0  0  0  0  0  0  0  0  0  0  0
   29.1493  -20.0615   -4.3637 C   0  0  0  0  0  0  0  0  0  0  0  0
   29.7452  -20.6001   -5.4812 C   0  0  0  0  0  0  0  0  0  0  0  0
   29.2408  -20.4268   -6.7493 C   0  0  0  0  0  0  0  0  0  0  0  0
   28.0919  -19.6867   -6.9321 C   0  0  0  0  0  0  0  0  0  0  0  0
   27.5017  -19.4417   -8.2675 C   0  0  0  0  0  0  0  0  0  0  0  0
   26.5184  -20.4979   -8.6216 C   0  0  2  0  0  0  0  0  0  0  0  0
   25.7961  -20.1829   -9.8560 N   0  0  0  0  0  0  0  0  0  0  0  0
   25.5119  -20.7570   -7.5731 C   0  0  0  0  0  0  0  0  0  0  0  0
   25.8577  -21.1287   -6.4087 O   0  0  0  0  0  0  0  0  0  0  0  0
   27.4957  -19.1454   -5.7987 C   0  0  0  0  0  0  0  0  0  0  0  0
   28.0002  -19.3215   -4.5509 C   0  0  0  0  0  0  0  0  0  0  0  0
   24.1340  -20.6195   -7.7600 O   0  0  0  0  0  0  0  0  0  0  0  0
  2  1  1  0
  2  4  1  0
  3  2  2  0
  5  4  1  0
  6  5  1  0
  6  7  1  6
  8  6  1  0
  8  9  2  0
 10  8  1  0
 11 10  1  0
 11 12  1  6
 13 12  1  0
 14 13  1  0
 15 14  1  0
 16 15  1  0
 17 11  1  0
 17 26  1  0
 18 17  2  0
 19 20  1  0
 20 30  2  0
 20 21  1  0
 21 22  2  0
 22 23  1  0
 23 24  1  0
 25 24  1  1
 25 26  1  0
 25 27  1  0
 27 28  2  0
 27 31  1  0
 29 23  2  0
 30 29  1  0
M  END
$$$$
