QKY.pdb
     RDKit          3D

 31 31  0  0  1  0  0  0  0  0999 V2000
   23.0051  -31.5278  -17.2453 N   0  0  0  0  0  0  0  0  0  0  0  0
   23.7570  -32.3258  -18.1530 C   0  0  0  0  0  0  0  0  0  0  0  0
   23.3219  -33.4607  -18.4063 O   0  0  0  0  0  0  0  0  0  0  0  0
   24.9902  -31.7944  -18.7377 C   0  0  0  0  0  0  0  0  0  0  0  0
   25.4433  -30.4604  -18.2556 C   0  0  0  0  0  0  0  0  0  0  0  0
   26.5511  -30.5750  -17.2707 C   0  0  2  0  0  0  0  0  0  0  0  0
   26.0910  -31.1765  -16.0475 N   0  0  0  0  0  0  0  0  0  0  0  0
   27.1412  -29.2600  -16.9164 C   0  0  0  0  0  0  0  0  0  0  0  0
   26.5045  -28.4169  -16.2570 O   0  0  0  0  0  0  0  0  0  0  0  0
   28.4605  -28.9670  -17.3429 N   0  0  0  0  0  0  0  0  0  0  0  0
   29.1109  -27.7129  -17.0693 C   0  0  1  0  0  0  0  0  0  0  0  0
   30.5678  -27.6664  -17.2664 C   0  0  0  0  0  0  0  0  0  0  0  0
   31.3605  -26.4626  -17.0599 C   0  0  0  0  0  0  0  0  0  0  0  0
   32.4062  -26.4821  -15.9860 C   0  0  0  0  0  0  0  0  0  0  0  0
   33.1388  -25.1617  -15.8598 C   0  0  0  0  0  0  0  0  0  0  0  0
   34.2589  -25.2978  -14.9384 N   0  0  0  0  0  0  0  0  0  0  0  0
   28.3652  -26.6182  -17.7335 C   0  0  0  0  0  0  0  0  0  0  0  0
   27.9102  -26.8186  -18.8847 O   0  0  0  0  0  0  0  0  0  0  0  0
   22.9528  -24.2555  -13.3286 O   0  0  0  0  0  0  0  0  0  0  0  0
   23.7293  -24.2744  -14.4784 C   0  0  0  0  0  0  0  0  0  0  0  0
   24.5713  -23.2509  -14.8485 C   0  0  0  0  0  0  0  0  0  0  0  0
   25.3325  -23.2916  -15.9938 C   0  0  0  0  0  0  0  0  0  0  0  0
   25.2650  -24.3934  -16.8199 C   0  0  0  0  0  0  0  0  0  0  0  0
   26.0394  -24.4997  -18.0771 C   0  0  0  0  0  0  0  0  0  0  0  0
   27.4834  -24.2407  -17.8415 C   0  0  2  0  0  0  0  0  0  0  0  0
   28.1335  -25.3530  -17.1452 N   0  0  0  0  0  0  0  0  0  0  0  0
   27.7547  -23.0138  -17.0666 C   0  0  0  0  0  0  0  0  0  0  0  0
   28.3929  -23.0583  -15.9691 O   0  0  0  0  0  0  0  0  0  0  0  0
   24.4120  -25.4234  -16.4397 C   0  0  0  0  0  0  0  0  0  0  0  0
   23.6645  -25.3750  -15.3077 C   0  0  0  0  0  0  0  0  0  0  0  0
   27.3496  -21.7352  -17.4581 O   0  0  0  0  0  0  0  0  0  0  0  0
  2  1  1  0
  2  4  1  0
  3  2  2  0
  5  4  1  0
  6  5  1  0
  6  7  1  1
  8  6  1  0
  8  9  2  0
 10  8  1  0
 11 10  1  0
 11 12  1  6
 13 12  1  0
 14 13  1  0
 15 14  1  0
 16 15  1  0
 17 11  1  0
 17 26  1  0
 18 17  2  0
 19 20  1  0
 20 30  2  0
 20 21  1  0
 21 22  2  0
 22 23  1  0
 23 24  1  0
 25 24  1  1
 25 26  1  0
 25 27  1  0
 27 28  2  0
 27 31  1  0
 29 23  2  0
 30 29  1  0
M  END
$$$$
