QKY.pdb
     RDKit          3D

 31 31  0  0  1  0  0  0  0  0999 V2000
   21.9086  -17.7430  -14.4399 N   0  0  0  0  0  0  0  0  0  0  0  0
   20.8034  -17.5933  -15.3242 C   0  0  0  0  0  0  0  0  0  0  0  0
   19.7433  -18.1574  -15.0089 O   0  0  0  0  0  0  0  0  0  0  0  0
   20.9540  -16.8025  -16.5477 C   0  0  0  0  0  0  0  0  0  0  0  0
   22.2776  -16.1593  -16.7748 C   0  0  0  0  0  0  0  0  0  0  0  0
   22.9895  -16.7535  -17.9369 C   0  0  2  0  0  0  0  0  0  0  0  0
   22.0561  -17.2262  -18.9243 N   0  0  0  0  0  0  0  0  0  0  0  0
   23.8449  -17.9054  -17.5570 C   0  0  0  0  0  0  0  0  0  0  0  0
   23.3539  -18.9739  -17.1467 O   0  0  0  0  0  0  0  0  0  0  0  0
   25.2518  -17.7762  -17.6676 N   0  0  0  0  0  0  0  0  0  0  0  0
   26.1647  -18.8300  -17.3114 C   0  0  1  0  0  0  0  0  0  0  0  0
   27.5158  -18.7579  -17.8883 C   0  0  0  0  0  0  0  0  0  0  0  0
   28.5086  -19.8101  -17.7229 C   0  0  0  0  0  0  0  0  0  0  0  0
   28.0223  -21.2057  -17.4720 C   0  0  0  0  0  0  0  0  0  0  0  0
   29.1547  -22.1896  -17.2584 C   0  0  0  0  0  0  0  0  0  0  0  0
   28.6250  -23.4737  -16.8197 N   0  0  0  0  0  0  0  0  0  0  0  0
   26.1326  -19.0319  -15.8438 C   0  0  0  0  0  0  0  0  0  0  0  0
   26.2450  -18.0282  -15.1006 O   0  0  0  0  0  0  0  0  0  0  0  0
   25.2362  -20.6147   -7.4800 O   0  0  0  0  0  0  0  0  0  0  0  0
   25.1716  -20.3879   -8.8474 C   0  0  0  0  0  0  0  0  0  0  0  0
   24.2922  -21.0315   -9.6878 C   0  0  0  0  0  0  0  0  0  0  0  0
   24.2458  -20.7903  -11.0414 C   0  0  0  0  0  0  0  0  0  0  0  0
   25.1065  -19.8700  -11.6010 C   0  0  0  0  0  0  0  0  0  0  0  0
   25.1275  -19.5723  -13.0510 C   0  0  0  0  0  0  0  0  0  0  0  0
   26.0323  -20.5010  -13.7766 C   0  0  2  0  0  0  0  0  0  0  0  0
   25.9820  -20.2951  -15.2257 N   0  0  0  0  0  0  0  0  0  0  0  0
   25.7567  -21.9289  -13.5223 C   0  0  0  0  0  0  0  0  0  0  0  0
   24.9724  -22.5897  -14.2719 O   0  0  0  0  0  0  0  0  0  0  0  0
   25.9922  -19.2240  -10.7459 C   0  0  0  0  0  0  0  0  0  0  0  0
   26.0312  -19.4680   -9.4112 C   0  0  0  0  0  0  0  0  0  0  0  0
   26.3163  -22.6588  -12.4705 O   0  0  0  0  0  0  0  0  0  0  0  0
  2  1  1  0
  2  4  1  0
  3  2  2  0
  5  4  1  0
  6  5  1  0
  6  7  1  6
  8  6  1  0
  8  9  2  0
 10  8  1  0
 11 10  1  0
 11 12  1  1
 13 12  1  0
 14 13  1  0
 15 14  1  0
 16 15  1  0
 17 11  1  0
 17 26  1  0
 18 17  2  0
 19 20  1  0
 20 30  2  0
 20 21  1  0
 21 22  2  0
 22 23  1  0
 23 24  1  0
 25 24  1  1
 25 26  1  0
 25 27  1  0
 27 28  2  0
 27 31  1  0
 29 23  2  0
 30 29  1  0
M  END
$$$$
