QKY.pdb
     RDKit          3D

 31 31  0  0  1  0  0  0  0  0999 V2000
   26.6106  -32.0944   -8.7391 N   0  0  0  0  0  0  0  0  0  0  0  0
   26.8410  -32.9320   -9.8665 C   0  0  0  0  0  0  0  0  0  0  0  0
   26.6110  -32.4512  -10.9878 O   0  0  0  0  0  0  0  0  0  0  0  0
   27.3246  -34.3002   -9.6681 C   0  0  0  0  0  0  0  0  0  0  0  0
   27.5959  -34.7215   -8.2659 C   0  0  0  0  0  0  0  0  0  0  0  0
   28.0893  -36.1222   -8.1948 C   0  0  2  0  0  0  0  0  0  0  0  0
   27.0232  -37.0558   -8.4426 N   0  0  0  0  0  0  0  0  0  0  0  0
   28.6669  -36.4597   -6.8698 C   0  0  0  0  0  0  0  0  0  0  0  0
   28.0671  -37.1995   -6.0673 O   0  0  0  0  0  0  0  0  0  0  0  0
   29.9307  -35.9228   -6.5196 N   0  0  0  0  0  0  0  0  0  0  0  0
   30.5631  -36.1732   -5.2515 C   0  0  1  0  0  0  0  0  0  0  0  0
   32.0321  -36.1061   -5.2202 C   0  0  0  0  0  0  0  0  0  0  0  0
   32.8877  -37.2175   -5.6115 C   0  0  0  0  0  0  0  0  0  0  0  0
   34.3722  -37.0132   -5.5706 C   0  0  0  0  0  0  0  0  0  0  0  0
   35.1409  -38.2058   -6.1024 C   0  0  0  0  0  0  0  0  0  0  0  0
   36.5476  -37.8626   -6.2628 N   0  0  0  0  0  0  0  0  0  0  0  0
   29.8884  -35.3755   -4.2007 C   0  0  0  0  0  0  0  0  0  0  0  0
   29.9609  -34.1252   -4.2616 O   0  0  0  0  0  0  0  0  0  0  0  0
   24.1284  -32.7054   -6.0003 O   0  0  0  0  0  0  0  0  0  0  0  0
   24.8353  -33.3438   -4.9912 C   0  0  0  0  0  0  0  0  0  0  0  0
   25.1312  -32.7619   -3.7798 C   0  0  0  0  0  0  0  0  0  0  0  0
   25.8337  -33.4146   -2.7934 C   0  0  0  0  0  0  0  0  0  0  0  0
   26.2692  -34.7055   -3.0052 C   0  0  0  0  0  0  0  0  0  0  0  0
   27.0462  -35.4634   -1.9984 C   0  0  0  0  0  0  0  0  0  0  0  0
   28.4955  -35.1492   -2.0911 C   0  0  2  0  0  0  0  0  0  0  0  0
   29.1631  -35.9413   -3.1264 N   0  0  0  0  0  0  0  0  0  0  0  0
   29.2361  -35.3536   -0.8305 C   0  0  0  0  0  0  0  0  0  0  0  0
   28.8725  -34.7826    0.2444 O   0  0  0  0  0  0  0  0  0  0  0  0
   25.9669  -35.2868   -4.2314 C   0  0  0  0  0  0  0  0  0  0  0  0
   25.2730  -34.6354   -5.1993 C   0  0  0  0  0  0  0  0  0  0  0  0
   30.3650  -36.1680   -0.7093 O   0  0  0  0  0  0  0  0  0  0  0  0
  2  1  1  0
  2  4  1  0
  3  2  2  0
  5  4  1  0
  6  5  1  0
  6  7  1  1
  8  6  1  0
  8  9  2  0
 10  8  1  0
 11 10  1  0
 11 12  1  6
 13 12  1  0
 14 13  1  0
 15 14  1  0
 16 15  1  0
 17 11  1  0
 17 26  1  0
 18 17  2  0
 19 20  1  0
 20 30  2  0
 20 21  1  0
 21 22  2  0
 22 23  1  0
 23 24  1  0
 25 24  1  1
 25 26  1  0
 25 27  1  0
 27 28  2  0
 27 31  1  0
 29 23  2  0
 30 29  1  0
M  END
$$$$
