NYM.pdb
     RDKit          3D

 29 29  0  0  1  0  0  0  0  0999 V2000
   27.4835  -20.1381  -18.4889 N   0  0  0  0  0  0  0  0  0  0  0  0
   27.8827  -19.3844  -17.3653 C   0  0  0  0  0  0  0  0  0  0  0  0
   29.0344  -18.8772  -17.3938 O   0  0  0  0  0  0  0  0  0  0  0  0
   26.9780  -19.2038  -16.2087 C   0  0  0  0  0  0  0  0  0  0  0  0
   27.4889  -20.0426  -15.0482 C   0  0  2  0  0  0  0  0  0  0  0  0
   27.6191  -21.4254  -15.3995 N   0  0  0  0  0  0  0  0  0  0  0  0
   26.6822  -19.8261  -13.8306 C   0  0  0  0  0  0  0  0  0  0  0  0
   26.4321  -18.6412  -13.4935 O   0  0  0  0  0  0  0  0  0  0  0  0
   20.3888  -19.1474  -15.8708 O   0  0  0  0  0  0  0  0  0  0  0  0
   21.2711  -19.6592  -14.9193 C   0  0  0  0  0  0  0  0  0  0  0  0
   22.1400  -20.6816  -15.2268 C   0  0  0  0  0  0  0  0  0  0  0  0
   23.0243  -21.2111  -14.3137 C   0  0  0  0  0  0  0  0  0  0  0  0
   23.0730  -20.7172  -13.0084 C   0  0  0  0  0  0  0  0  0  0  0  0
   23.9988  -21.2746  -12.0185 C   0  0  0  0  0  0  0  0  0  0  0  0
   25.2934  -20.5404  -11.8541 C   0  0  2  0  0  0  0  0  0  0  0  0
   26.1625  -20.8515  -13.0039 N   0  0  0  0  0  0  0  0  0  0  0  0
   25.9570  -20.9536  -10.5896 C   0  0  0  0  0  0  0  0  0  0  0  0
   26.5696  -22.0503  -10.5591 O   0  0  0  0  0  0  0  0  0  0  0  0
   22.1999  -19.6955  -12.7119 C   0  0  0  0  0  0  0  0  0  0  0  0
   21.3088  -19.1626  -13.6341 C   0  0  0  0  0  0  0  0  0  0  0  0
   30.5005  -19.7616   -6.6651 C   0  0  0  0  0  0  0  0  0  0  0  0
   29.1691  -19.3821   -5.5671 S   0  0  0  0  0  0  0  0  0  0  0  0
   27.5282  -19.4142   -6.1278 C   0  0  0  0  0  0  0  0  0  0  0  0
   27.0509  -19.5929   -7.4624 C   0  0  0  0  0  0  0  0  0  0  0  0
   26.3880  -20.7077   -8.1087 C   0  0  2  0  0  0  0  0  0  0  0  0
   25.9205  -20.1607   -9.4359 N   0  0  0  0  0  0  0  0  0  0  0  0
   25.1840  -21.3074   -7.5647 C   0  0  0  0  0  0  0  0  0  0  0  0
   25.0755  -22.2350   -6.5533 O   0  0  0  0  0  0  0  0  0  0  0  0
   24.0425  -20.9634   -8.0611 O   0  0  0  0  0  0  0  0  0  0  0  0
  1  2  1  0
  2  3  2  0
  4  2  1  0
  4  5  1  0
  5  7  1  0
  5  6  1  6
  7  8  2  0
 10  9  1  0
 10 11  2  0
 12 11  1  0
 13 12  2  0
 14 13  1  0
 15 14  1  6
 16 15  1  0
 16  7  1  0
 17 18  2  0
 17 15  1  0
 19 20  2  0
 19 13  1  0
 20 10  1  0
 22 21  1  0
 22 23  1  0
 23 24  1  0
 25 24  1  1
 25 26  1  0
 25 27  1  0
 26 17  1  0
 27 28  1  0
 29 27  2  0
M  END
$$$$
