NYM.pdb
     RDKit          3D

 29 29  0  0  1  0  0  0  0  0999 V2000
   26.0766  -21.0827  -18.9133 N   0  0  0  0  0  0  0  0  0  0  0  0
   24.9459  -21.9214  -18.8228 C   0  0  0  0  0  0  0  0  0  0  0  0
   24.7534  -22.7296  -19.7684 O   0  0  0  0  0  0  0  0  0  0  0  0
   24.0325  -21.8459  -17.6615 C   0  0  0  0  0  0  0  0  0  0  0  0
   24.5252  -20.7610  -16.7172 C   0  0  2  0  0  0  0  0  0  0  0  0
   25.7728  -21.1069  -16.1037 N   0  0  0  0  0  0  0  0  0  0  0  0
   23.4836  -20.3820  -15.7416 C   0  0  0  0  0  0  0  0  0  0  0  0
   23.4704  -20.9764  -14.6341 O   0  0  0  0  0  0  0  0  0  0  0  0
   19.7365  -14.8419  -19.4826 O   0  0  0  0  0  0  0  0  0  0  0  0
   20.1185  -15.5218  -18.3260 C   0  0  0  0  0  0  0  0  0  0  0  0
   21.4406  -15.8027  -18.0655 C   0  0  0  0  0  0  0  0  0  0  0  0
   21.8540  -16.4714  -16.9349 C   0  0  0  0  0  0  0  0  0  0  0  0
   20.9226  -16.8998  -15.9868 C   0  0  0  0  0  0  0  0  0  0  0  0
   21.3409  -17.6228  -14.7826 C   0  0  0  0  0  0  0  0  0  0  0  0
   21.4690  -19.1075  -14.9278 C   0  0  2  0  0  0  0  0  0  0  0  0
   22.4895  -19.3959  -15.9523 N   0  0  0  0  0  0  0  0  0  0  0  0
   20.1642  -19.6949  -15.3314 C   0  0  0  0  0  0  0  0  0  0  0  0
   19.9655  -19.9480  -16.5461 O   0  0  0  0  0  0  0  0  0  0  0  0
   19.6038  -16.6139  -16.2575 C   0  0  0  0  0  0  0  0  0  0  0  0
   19.1887  -15.9394  -17.3981 C   0  0  0  0  0  0  0  0  0  0  0  0
   16.8746  -25.6329  -15.8761 C   0  0  0  0  0  0  0  0  0  0  0  0
   17.7854  -24.1770  -15.4602 S   0  0  0  0  0  0  0  0  0  0  0  0
   17.1329  -23.0172  -14.3478 C   0  0  0  0  0  0  0  0  0  0  0  0
   17.6279  -21.7144  -14.0338 C   0  0  0  0  0  0  0  0  0  0  0  0
   17.8264  -20.5349  -14.8519 C   0  0  2  0  0  0  0  0  0  0  0  0
   19.1540  -19.9738  -14.4027 N   0  0  0  0  0  0  0  0  0  0  0  0
   16.9457  -19.3846  -14.7703 C   0  0  0  0  0  0  0  0  0  0  0  0
   15.6897  -19.2323  -15.3129 O   0  0  0  0  0  0  0  0  0  0  0  0
   17.3463  -18.3432  -14.1202 O   0  0  0  0  0  0  0  0  0  0  0  0
  1  2  1  0
  2  3  2  0
  4  2  1  0
  4  5  1  0
  5  7  1  0
  5  6  1  1
  7  8  2  0
 10  9  1  0
 10 11  2  0
 12 11  1  0
 13 12  2  0
 14 13  1  0
 15 14  1  6
 16 15  1  0
 16  7  1  0
 17 18  2  0
 17 15  1  0
 19 20  2  0
 19 13  1  0
 20 10  1  0
 22 21  1  0
 22 23  1  0
 23 24  1  0
 25 24  1  1
 25 26  1  0
 25 27  1  0
 26 17  1  0
 27 28  1  0
 29 27  2  0
M  END
$$$$
