NYM.pdb
     RDKit          3D

 29 29  0  0  1  0  0  0  0  0999 V2000
   28.0456  -18.7857  -19.3699 N   0  0  0  0  0  0  0  0  0  0  0  0
   27.9504  -17.4634  -18.8878 C   0  0  0  0  0  0  0  0  0  0  0  0
   28.8779  -16.6709  -19.1978 O   0  0  0  0  0  0  0  0  0  0  0  0
   26.8045  -17.0371  -18.0547 C   0  0  0  0  0  0  0  0  0  0  0  0
   25.8450  -18.2064  -17.9016 C   0  0  2  0  0  0  0  0  0  0  0  0
   25.2304  -18.5651  -19.1450 N   0  0  0  0  0  0  0  0  0  0  0  0
   24.8694  -17.9648  -16.8198 C   0  0  0  0  0  0  0  0  0  0  0  0
   25.3142  -17.6770  -15.6799 O   0  0  0  0  0  0  0  0  0  0  0  0
   17.2661  -16.5232  -12.3046 O   0  0  0  0  0  0  0  0  0  0  0  0
   18.2315  -16.7590  -13.2834 C   0  0  0  0  0  0  0  0  0  0  0  0
   19.1736  -15.8073  -13.6024 C   0  0  0  0  0  0  0  0  0  0  0  0
   20.1409  -16.0054  -14.5623 C   0  0  0  0  0  0  0  0  0  0  0  0
   20.2029  -17.2104  -15.2652 C   0  0  0  0  0  0  0  0  0  0  0  0
   21.2174  -17.4368  -16.2983 C   0  0  0  0  0  0  0  0  0  0  0  0
   22.5676  -17.8533  -15.8028 C   0  0  2  0  0  0  0  0  0  0  0  0
   23.4621  -18.0312  -16.9614 N   0  0  0  0  0  0  0  0  0  0  0  0
   22.4614  -19.1268  -15.0430 C   0  0  0  0  0  0  0  0  0  0  0  0
   22.3099  -20.1994  -15.6799 O   0  0  0  0  0  0  0  0  0  0  0  0
   19.2563  -18.1545  -14.9384 C   0  0  0  0  0  0  0  0  0  0  0  0
   18.2815  -17.9531  -13.9700 C   0  0  0  0  0  0  0  0  0  0  0  0
   25.9337  -19.5974   -8.9956 C   0  0  0  0  0  0  0  0  0  0  0  0
   25.8181  -20.9400  -10.1385 S   0  0  0  0  0  0  0  0  0  0  0  0
   24.3739  -21.1847  -11.0672 C   0  0  0  0  0  0  0  0  0  0  0  0
   23.7905  -20.3199  -12.0432 C   0  0  0  0  0  0  0  0  0  0  0  0
   22.6451  -20.4837  -12.9156 C   0  0  2  0  0  0  0  0  0  0  0  0
   22.5251  -19.1672  -13.6448 N   0  0  0  0  0  0  0  0  0  0  0  0
   21.3056  -20.6884  -12.3967 C   0  0  0  0  0  0  0  0  0  0  0  0
   20.3708  -19.7388  -12.0512 O   0  0  0  0  0  0  0  0  0  0  0  0
   20.8908  -21.8976  -12.2137 O   0  0  0  0  0  0  0  0  0  0  0  0
  1  2  1  0
  2  3  2  0
  4  2  1  0
  4  5  1  0
  5  7  1  0
  5  6  1  6
  7  8  2  0
 10  9  1  0
 10 11  2  0
 12 11  1  0
 13 12  2  0
 14 13  1  0
 15 14  1  6
 16 15  1  0
 16  7  1  0
 17 18  2  0
 17 15  1  0
 19 20  2  0
 19 13  1  0
 20 10  1  0
 22 21  1  0
 22 23  1  0
 23 24  1  0
 25 24  1  1
 25 26  1  0
 25 27  1  0
 26 17  1  0
 27 28  1  0
 29 27  2  0
M  END
$$$$
