NYM.pdb
     RDKit          3D

 29 29  0  0  1  0  0  0  0  0999 V2000
   27.3010  -20.3485  -19.6212 N   0  0  0  0  0  0  0  0  0  0  0  0
   26.1586  -21.1544  -19.8091 C   0  0  0  0  0  0  0  0  0  0  0  0
   25.5674  -21.0632  -20.9167 O   0  0  0  0  0  0  0  0  0  0  0  0
   25.6847  -22.0645  -18.7433 C   0  0  0  0  0  0  0  0  0  0  0  0
   26.6053  -21.9355  -17.5403 C   0  0  2  0  0  0  0  0  0  0  0  0
   27.7473  -22.7944  -17.6415 N   0  0  0  0  0  0  0  0  0  0  0  0
   25.8638  -22.1016  -16.2741 C   0  0  0  0  0  0  0  0  0  0  0  0
   25.9151  -23.2212  -15.7049 O   0  0  0  0  0  0  0  0  0  0  0  0
   23.1436  -20.6831   -8.0152 O   0  0  0  0  0  0  0  0  0  0  0  0
   23.5698  -20.5621   -9.3379 C   0  0  0  0  0  0  0  0  0  0  0  0
   22.8076  -19.9056  -10.2775 C   0  0  0  0  0  0  0  0  0  0  0  0
   23.1965  -19.7668  -11.5912 C   0  0  0  0  0  0  0  0  0  0  0  0
   24.4101  -20.3009  -12.0293 C   0  0  0  0  0  0  0  0  0  0  0  0
   24.8371  -20.1739  -13.4254 C   0  0  0  0  0  0  0  0  0  0  0  0
   24.4789  -21.3192  -14.3210 C   0  0  2  0  0  0  0  0  0  0  0  0
   25.0930  -21.0956  -15.6428 N   0  0  0  0  0  0  0  0  0  0  0  0
   23.0017  -21.4172  -14.4575 C   0  0  0  0  0  0  0  0  0  0  0  0
   22.4058  -20.5848  -15.1861 O   0  0  0  0  0  0  0  0  0  0  0  0
   25.1639  -20.9552  -11.0816 C   0  0  0  0  0  0  0  0  0  0  0  0
   24.7702  -21.0942   -9.7572 C   0  0  0  0  0  0  0  0  0  0  0  0
   18.8961  -26.2916  -16.4106 C   0  0  0  0  0  0  0  0  0  0  0  0
   18.5970  -24.7997  -15.5123 S   0  0  0  0  0  0  0  0  0  0  0  0
   19.2600  -24.5789  -13.9250 C   0  0  0  0  0  0  0  0  0  0  0  0
   20.3711  -23.7710  -13.5330 C   0  0  0  0  0  0  0  0  0  0  0  0
   20.7497  -22.4166  -13.8824 C   0  0  2  0  0  0  0  0  0  0  0  0
   22.2573  -22.4053  -13.8015 N   0  0  0  0  0  0  0  0  0  0  0  0
   20.3742  -21.2776  -13.0657 C   0  0  0  0  0  0  0  0  0  0  0  0
   19.2483  -20.4917  -13.1647 O   0  0  0  0  0  0  0  0  0  0  0  0
   21.1656  -20.9111  -12.1132 O   0  0  0  0  0  0  0  0  0  0  0  0
  1  2  1  0
  2  3  2  0
  4  2  1  0
  4  5  1  0
  5  7  1  0
  5  6  1  6
  7  8  2  0
 10  9  1  0
 10 11  2  0
 12 11  1  0
 13 12  2  0
 14 13  1  0
 15 14  1  1
 16 15  1  0
 16  7  1  0
 17 18  2  0
 17 15  1  0
 19 20  2  0
 19 13  1  0
 20 10  1  0
 22 21  1  0
 22 23  1  0
 23 24  1  0
 25 24  1  1
 25 26  1  0
 25 27  1  0
 26 17  1  0
 27 28  1  0
 29 27  2  0
M  END
$$$$
