FVC.pdb
     RDKit          3D

 25 25  0  0  1  0  0  0  0  0999 V2000
    5.4053  -17.7722   25.5472 N   0  0  0  0  0  0  0  0  0  0  0  0
    6.0472  -16.4894   25.3659 C   0  0  1  0  0  0  0  0  0  0  0  0
    6.7965  -16.1590   26.6342 C   0  0  0  0  0  0  0  0  0  0  0  0
    7.0079  -14.6973   26.7387 C   0  0  0  0  0  0  0  0  0  0  0  0
    5.9340  -13.8223   26.7597 C   0  0  0  0  0  0  0  0  0  0  0  0
    6.1507  -12.4469   26.8628 C   0  0  0  0  0  0  0  0  0  0  0  0
    7.4151  -11.9333   26.9455 C   0  0  0  0  0  0  0  0  0  0  0  0
    8.4879  -12.7992   26.9246 C   0  0  0  0  0  0  0  0  0  0  0  0
    8.2692  -14.1433   26.8234 C   0  0  0  0  0  0  0  0  0  0  0  0
    7.0380  -16.5556   24.2508 C   0  0  0  0  0  0  0  0  0  0  0  0
    7.7477  -17.5855   24.1475 O   0  0  0  0  0  0  0  0  0  0  0  0
    8.7869  -14.2617   20.1427 C   0  0  0  0  0  0  0  0  0  0  0  0
    7.8152  -14.4492   21.2786 C   0  0  1  0  0  0  0  0  0  0  0  0
    6.3909  -14.5228   20.8169 C   0  0  0  0  0  0  0  0  0  0  0  0
    8.2011  -15.4981   22.2517 C   0  0  2  0  0  0  0  0  0  0  0  0
    7.1911  -15.4963   23.3200 N   0  0  0  0  0  0  0  0  0  0  0  0
    9.5510  -15.4665   22.7936 C   0  0  0  0  0  0  0  0  0  0  0  0
    9.8856  -14.4099   23.4483 O   0  0  0  0  0  0  0  0  0  0  0  0
   10.5552  -16.4373   22.7045 N   0  0  0  0  0  0  0  0  0  0  0  0
   11.9093  -16.2634   23.1856 C   0  0  1  0  0  0  0  0  0  0  0  0
   12.2889  -17.2272   24.2653 C   0  0  0  0  0  0  0  0  0  0  0  0
   11.0556  -17.2437   25.5815 S   0  0  0  0  0  0  0  0  0  0  0  0
   12.9053  -16.2581   22.1151 C   0  0  0  0  0  0  0  0  0  0  0  0
   14.2147  -15.9507   22.4036 O   0  0  0  0  0  0  0  0  0  0  0  0
   12.5821  -16.5287   20.9468 O   0  0  0  0  0  0  0  0  0  0  0  0
  2 10  1  0
  2  1  1  1
  3  2  1  0
  4  3  1  0
  5  4  2  0
  6  5  1  0
  7  6  2  0
  7  8  1  0
  8  9  2  0
  9  4  1  0
 10 16  1  0
 11 10  2  0
 13 12  1  6
 14 13  1  0
 15 13  1  0
 15 16  1  1
 17 18  2  0
 17 15  1  0
 19 17  1  0
 20 19  1  0
 21 22  1  0
 20 21  1  1
 23 20  1  0
 23 24  1  0
 25 23  2  0
M  END
$$$$
