FVC.pdb
     RDKit          3D

 25 25  0  0  1  0  0  0  0  0999 V2000
    6.2294  -17.2690   25.9123 N   0  0  0  0  0  0  0  0  0  0  0  0
    6.6466  -16.0380   25.2790 C   0  0  1  0  0  0  0  0  0  0  0  0
    7.5552  -15.3052   26.2364 C   0  0  0  0  0  0  0  0  0  0  0  0
    6.9898  -13.9767   26.5645 C   0  0  0  0  0  0  0  0  0  0  0  0
    5.7835  -13.5629   26.0233 C   0  0  0  0  0  0  0  0  0  0  0  0
    5.2623  -12.3086   26.3462 C   0  0  0  0  0  0  0  0  0  0  0  0
    5.9217  -11.4652   27.1967 C   0  0  0  0  0  0  0  0  0  0  0  0
    7.1230  -11.8713   27.7381 C   0  0  0  0  0  0  0  0  0  0  0  0
    7.6274  -13.0992   27.4180 C   0  0  0  0  0  0  0  0  0  0  0  0
    7.4246  -16.3282   24.0380 C   0  0  0  0  0  0  0  0  0  0  0  0
    7.8316  -17.5009   23.8531 O   0  0  0  0  0  0  0  0  0  0  0  0
    9.0357  -14.5034   19.6534 C   0  0  0  0  0  0  0  0  0  0  0  0
    8.2299  -14.4595   20.9255 C   0  0  1  0  0  0  0  0  0  0  0  0
    6.7707  -14.2199   20.6795 C   0  0  0  0  0  0  0  0  0  0  0  0
    8.5208  -15.5583   21.8763 C   0  0  2  0  0  0  0  0  0  0  0  0
    7.7082  -15.3227   23.0787 N   0  0  0  0  0  0  0  0  0  0  0  0
    9.9112  -15.8210   22.2150 C   0  0  0  0  0  0  0  0  0  0  0  0
   10.5572  -14.8643   22.7844 O   0  0  0  0  0  0  0  0  0  0  0  0
   10.6599  -16.9851   22.0077 N   0  0  0  0  0  0  0  0  0  0  0  0
   12.0629  -17.1272   22.3343 C   0  0  1  0  0  0  0  0  0  0  0  0
   12.3687  -18.3499   23.1406 C   0  0  0  0  0  0  0  0  0  0  0  0
   11.3456  -18.4195   24.6245 S   0  0  0  0  0  0  0  0  0  0  0  0
   12.9386  -17.0379   21.1667 C   0  0  0  0  0  0  0  0  0  0  0  0
   14.3035  -17.0248   21.3374 O   0  0  0  0  0  0  0  0  0  0  0  0
   12.4633  -16.9742   20.0210 O   0  0  0  0  0  0  0  0  0  0  0  0
  2 10  1  0
  2  1  1  1
  3  2  1  0
  4  3  1  0
  5  4  2  0
  6  5  1  0
  7  6  2  0
  7  8  1  0
  8  9  2  0
  9  4  1  0
 10 16  1  0
 11 10  2  0
 13 12  1  6
 14 13  1  0
 15 13  1  0
 15 16  1  1
 17 18  2  0
 17 15  1  0
 19 17  1  0
 20 19  1  0
 21 22  1  0
 20 21  1  6
 23 20  1  0
 23 24  1  0
 25 23  2  0
M  END
$$$$
