FVC.pdb
     RDKit          3D

 25 25  0  0  1  0  0  0  0  0999 V2000
    6.7496  -16.0590   25.7227 N   0  0  0  0  0  0  0  0  0  0  0  0
    6.1957  -15.6839   24.4408 C   0  0  1  0  0  0  0  0  0  0  0  0
    5.9428  -14.1956   24.4591 C   0  0  0  0  0  0  0  0  0  0  0  0
    6.5587  -13.5858   25.6596 C   0  0  0  0  0  0  0  0  0  0  0  0
    7.9039  -13.7648   25.9385 C   0  0  0  0  0  0  0  0  0  0  0  0
    8.4699  -13.1794   27.0727 C   0  0  0  0  0  0  0  0  0  0  0  0
    7.7191  -12.4217   27.9281 C   0  0  0  0  0  0  0  0  0  0  0  0
    6.3797  -12.2405   27.6560 C   0  0  0  0  0  0  0  0  0  0  0  0
    5.8322  -12.8159   26.5452 C   0  0  0  0  0  0  0  0  0  0  0  0
    7.1715  -15.9708   23.3476 C   0  0  0  0  0  0  0  0  0  0  0  0
    7.7774  -17.0697   23.3659 O   0  0  0  0  0  0  0  0  0  0  0  0
    9.0743  -14.3158   19.0008 C   0  0  0  0  0  0  0  0  0  0  0  0
    8.1954  -14.2021   20.2191 C   0  0  1  0  0  0  0  0  0  0  0  0
    6.7731  -13.8723   19.8793 C   0  0  0  0  0  0  0  0  0  0  0  0
    8.3542  -15.3040   21.1972 C   0  0  2  0  0  0  0  0  0  0  0  0
    7.4235  -15.0427   22.3050 N   0  0  0  0  0  0  0  0  0  0  0  0
    9.6929  -15.6005   21.6838 C   0  0  0  0  0  0  0  0  0  0  0  0
   10.2202  -14.7404   22.4832 O   0  0  0  0  0  0  0  0  0  0  0  0
   10.5035  -16.7063   21.4032 N   0  0  0  0  0  0  0  0  0  0  0  0
   11.8688  -16.8594   21.8591 C   0  0  1  0  0  0  0  0  0  0  0  0
   12.1344  -18.1744   22.5217 C   0  0  0  0  0  0  0  0  0  0  0  0
   10.9216  -18.5041   23.8156 S   0  0  0  0  0  0  0  0  0  0  0  0
   12.8584  -16.5893   20.8170 C   0  0  0  0  0  0  0  0  0  0  0  0
   14.1934  -16.5303   21.1434 O   0  0  0  0  0  0  0  0  0  0  0  0
   12.5067  -16.4129   19.6390 O   0  0  0  0  0  0  0  0  0  0  0  0
  2 10  1  0
  2  1  1  1
  3  2  1  0
  4  3  1  0
  5  4  2  0
  6  5  1  0
  7  6  2  0
  7  8  1  0
  8  9  2  0
  9  4  1  0
 10 16  1  0
 11 10  2  0
 13 12  1  6
 14 13  1  0
 15 13  1  0
 15 16  1  1
 17 18  2  0
 17 15  1  0
 19 17  1  0
 20 19  1  0
 21 22  1  0
 20 21  1  6
 23 20  1  0
 23 24  1  0
 25 23  2  0
M  END
$$$$
