FVC.pdb
     RDKit          3D

 25 25  0  0  1  0  0  0  0  0999 V2000
    5.5581  -18.0784   25.5111 N   0  0  0  0  0  0  0  0  0  0  0  0
    5.9973  -16.7139   25.3219 C   0  0  1  0  0  0  0  0  0  0  0  0
    6.5393  -16.2113   26.6382 C   0  0  0  0  0  0  0  0  0  0  0  0
    6.6820  -14.7379   26.6048 C   0  0  0  0  0  0  0  0  0  0  0  0
    7.9336  -14.1439   26.5920 C   0  0  0  0  0  0  0  0  0  0  0  0
    8.0505  -12.7531   26.5563 C   0  0  0  0  0  0  0  0  0  0  0  0
    6.9444  -11.9497   26.5326 C   0  0  0  0  0  0  0  0  0  0  0  0
    5.6961  -12.5351   26.5457 C   0  0  0  0  0  0  0  0  0  0  0  0
    5.5886  -13.8960   26.5808 C   0  0  0  0  0  0  0  0  0  0  0  0
    7.1013  -16.6564   24.3182 C   0  0  0  0  0  0  0  0  0  0  0  0
    7.9094  -17.6153   24.2689 O   0  0  0  0  0  0  0  0  0  0  0  0
    8.8999  -14.1224   20.3733 C   0  0  0  0  0  0  0  0  0  0  0  0
    7.8718  -14.4414   21.4273 C   0  0  1  0  0  0  0  0  0  0  0  0
    6.4918  -14.5968   20.8628 C   0  0  0  0  0  0  0  0  0  0  0  0
    8.2723  -15.5084   22.3744 C   0  0  2  0  0  0  0  0  0  0  0  0
    7.2532  -15.5587   23.4329 N   0  0  0  0  0  0  0  0  0  0  0  0
    9.6164  -15.4624   22.9296 C   0  0  0  0  0  0  0  0  0  0  0  0
    9.9260  -14.4117   23.6056 O   0  0  0  0  0  0  0  0  0  0  0  0
   10.6385  -16.4136   22.8334 N   0  0  0  0  0  0  0  0  0  0  0  0
   11.9834  -16.2261   23.3348 C   0  0  1  0  0  0  0  0  0  0  0  0
   12.3610  -17.1945   24.4111 C   0  0  0  0  0  0  0  0  0  0  0  0
   11.1886  -17.1302   25.7803 S   0  0  0  0  0  0  0  0  0  0  0  0
   12.9939  -16.1979   22.2782 C   0  0  0  0  0  0  0  0  0  0  0  0
   14.2880  -15.8437   22.5818 O   0  0  0  0  0  0  0  0  0  0  0  0
   12.6967  -16.4909   21.1085 O   0  0  0  0  0  0  0  0  0  0  0  0
  2 10  1  0
  2  1  1  1
  3  2  1  0
  4  3  1  0
  5  4  2  0
  6  5  1  0
  7  6  2  0
  7  8  1  0
  8  9  2  0
  9  4  1  0
 10 16  1  0
 11 10  2  0
 13 12  1  6
 14 13  1  0
 15 13  1  0
 15 16  1  1
 17 18  2  0
 17 15  1  0
 19 17  1  0
 20 19  1  0
 21 22  1  0
 20 21  1  1
 23 20  1  0
 23 24  1  0
 25 23  2  0
M  END
$$$$
