FVC.pdb
     RDKit          3D

 25 25  0  0  1  0  0  0  0  0999 V2000
    5.8340  -18.1100   25.5615 N   0  0  0  0  0  0  0  0  0  0  0  0
    6.1911  -16.7203   25.3824 C   0  0  1  0  0  0  0  0  0  0  0  0
    6.7270  -16.2032   26.6957 C   0  0  0  0  0  0  0  0  0  0  0  0
    6.7362  -14.7226   26.6982 C   0  0  0  0  0  0  0  0  0  0  0  0
    7.9134  -14.0182   26.8910 C   0  0  0  0  0  0  0  0  0  0  0  0
    7.9052  -12.6220   26.8865 C   0  0  0  0  0  0  0  0  0  0  0  0
    6.7473  -11.9212   26.6930 C   0  0  0  0  0  0  0  0  0  0  0  0
    5.5724  -12.6168   26.5010 C   0  0  0  0  0  0  0  0  0  0  0  0
    5.5872  -13.9822   26.5068 C   0  0  0  0  0  0  0  0  0  0  0  0
    7.2719  -16.5876   24.3608 C   0  0  0  0  0  0  0  0  0  0  0  0
    8.1277  -17.5020   24.2796 O   0  0  0  0  0  0  0  0  0  0  0  0
    8.9395  -13.8379   20.4975 C   0  0  0  0  0  0  0  0  0  0  0  0
    7.9586  -14.1834   21.5874 C   0  0  1  0  0  0  0  0  0  0  0  0
    6.5407  -14.2173   21.1018 C   0  0  0  0  0  0  0  0  0  0  0  0
    8.3502  -15.3429   22.4228 C   0  0  2  0  0  0  0  0  0  0  0  0
    7.3502  -15.4681   23.4934 N   0  0  0  0  0  0  0  0  0  0  0  0
    9.7052  -15.3799   22.9514 C   0  0  0  0  0  0  0  0  0  0  0  0
   10.0919  -14.3506   23.6208 O   0  0  0  0  0  0  0  0  0  0  0  0
   10.6650  -16.3918   22.8354 N   0  0  0  0  0  0  0  0  0  0  0  0
   12.0300  -16.2855   23.3053 C   0  0  1  0  0  0  0  0  0  0  0  0
   12.3976  -17.3258   24.3160 C   0  0  0  0  0  0  0  0  0  0  0  0
   11.1649  -17.4161   25.6298 S   0  0  0  0  0  0  0  0  0  0  0  0
   13.0108  -16.2392   22.2217 C   0  0  0  0  0  0  0  0  0  0  0  0
   14.3163  -15.9050   22.4976 O   0  0  0  0  0  0  0  0  0  0  0  0
   12.6780  -16.4989   21.0537 O   0  0  0  0  0  0  0  0  0  0  0  0
  2 10  1  0
  2  1  1  1
  3  2  1  0
  4  3  1  0
  5  4  2  0
  6  5  1  0
  7  6  2  0
  7  8  1  0
  8  9  2  0
  9  4  1  0
 10 16  1  0
 11 10  2  0
 13 12  1  6
 14 13  1  0
 15 13  1  0
 15 16  1  1
 17 18  2  0
 17 15  1  0
 19 17  1  0
 20 19  1  0
 21 22  1  0
 20 21  1  1
 23 20  1  0
 23 24  1  0
 25 23  2  0
M  END
$$$$
