FVC.pdb
     RDKit          3D

 25 25  0  0  1  0  0  0  0  0999 V2000
    7.2913  -17.9204   18.1402 N   0  0  0  0  0  0  0  0  0  0  0  0
    7.7634  -16.6327   18.5981 C   0  0  1  0  0  0  0  0  0  0  0  0
    6.7733  -16.1049   19.6083 C   0  0  0  0  0  0  0  0  0  0  0  0
    7.2781  -14.8520   20.2146 C   0  0  0  0  0  0  0  0  0  0  0  0
    7.4315  -14.7363   21.5866 C   0  0  0  0  0  0  0  0  0  0  0  0
    7.9127  -13.5490   22.1418 C   0  0  0  0  0  0  0  0  0  0  0  0
    8.2422  -12.4812   21.3539 C   0  0  0  0  0  0  0  0  0  0  0  0
    8.0912  -12.5903   19.9878 C   0  0  0  0  0  0  0  0  0  0  0  0
    7.6198  -13.7541   19.4511 C   0  0  0  0  0  0  0  0  0  0  0  0
    9.0843  -16.7744   19.2799 C   0  0  0  0  0  0  0  0  0  0  0  0
    9.2595  -17.7607   20.0358 O   0  0  0  0  0  0  0  0  0  0  0  0
   12.0317  -13.6694   18.8687 C   0  0  0  0  0  0  0  0  0  0  0  0
   12.3936  -15.1310   18.9164 C   0  0  1  0  0  0  0  0  0  0  0  0
   13.8433  -15.3597   19.2219 C   0  0  0  0  0  0  0  0  0  0  0  0
   11.4597  -15.9707   19.7029 C   0  0  2  0  0  0  0  0  0  0  0  0
   10.1288  -15.8331   19.0935 N   0  0  0  0  0  0  0  0  0  0  0  0
   11.4096  -15.7744   21.1437 C   0  0  0  0  0  0  0  0  0  0  0  0
   11.0587  -14.6064   21.5552 O   0  0  0  0  0  0  0  0  0  0  0  0
   11.6922  -16.6894   22.1643 N   0  0  0  0  0  0  0  0  0  0  0  0
   11.8041  -16.3461   23.5661 C   0  0  1  0  0  0  0  0  0  0  0  0
   10.9115  -17.1554   24.4533 C   0  0  0  0  0  0  0  0  0  0  0  0
    9.1742  -16.8513   24.0748 S   0  0  0  0  0  0  0  0  0  0  0  0
   13.1819  -16.3621   24.0554 C   0  0  0  0  0  0  0  0  0  0  0  0
   14.1871  -16.8395   23.2467 O   0  0  0  0  0  0  0  0  0  0  0  0
   13.4553  -15.9484   25.1941 O   0  0  0  0  0  0  0  0  0  0  0  0
  2 10  1  0
  2  1  1  1
  3  2  1  0
  4  3  1  0
  5  4  2  0
  6  5  1  0
  7  6  2  0
  7  8  1  0
  8  9  2  0
  9  4  1  0
 10 16  1  0
 11 10  2  0
 13 12  1  1
 14 13  1  0
 15 13  1  0
 15 16  1  6
 17 18  2  0
 17 15  1  0
 19 17  1  0
 20 19  1  0
 21 22  1  0
 20 21  1  1
 23 20  1  0
 23 24  1  0
 25 23  2  0
M  END
$$$$
