FVC.pdb
     RDKit          3D

 25 25  0  0  1  0  0  0  0  0999 V2000
    6.1089  -17.5829   25.8020 N   0  0  0  0  0  0  0  0  0  0  0  0
    6.5895  -16.3074   25.3194 C   0  0  1  0  0  0  0  0  0  0  0  0
    7.5343  -15.7433   26.3532 C   0  0  0  0  0  0  0  0  0  0  0  0
    7.2049  -14.3266   26.6297 C   0  0  0  0  0  0  0  0  0  0  0  0
    6.0963  -13.7278   26.0537 C   0  0  0  0  0  0  0  0  0  0  0  0
    5.7976  -12.3918   26.3282 C   0  0  0  0  0  0  0  0  0  0  0  0
    6.5828  -11.6479   27.1645 C   0  0  0  0  0  0  0  0  0  0  0  0
    7.6878  -12.2382   27.7403 C   0  0  0  0  0  0  0  0  0  0  0  0
    7.9746  -13.5452   27.4676 C   0  0  0  0  0  0  0  0  0  0  0  0
    7.3523  -16.4852   24.0482 C   0  0  0  0  0  0  0  0  0  0  0  0
    7.8843  -17.5999   23.8259 O   0  0  0  0  0  0  0  0  0  0  0  0
    8.8212  -14.2725   19.7834 C   0  0  0  0  0  0  0  0  0  0  0  0
    7.9526  -14.4151   21.0060 C   0  0  1  0  0  0  0  0  0  0  0  0
    6.4894  -14.3347   20.6902 C   0  0  0  0  0  0  0  0  0  0  0  0
    8.3280  -15.5356   21.9002 C   0  0  2  0  0  0  0  0  0  0  0  0
    7.4855  -15.4377   23.1011 N   0  0  0  0  0  0  0  0  0  0  0  0
    9.7323  -15.6958   22.2453 C   0  0  0  0  0  0  0  0  0  0  0  0
   10.2357  -14.8159   23.0386 O   0  0  0  0  0  0  0  0  0  0  0  0
   10.6299  -16.6869   21.8320 N   0  0  0  0  0  0  0  0  0  0  0  0
   12.0420  -16.6991   22.1500 C   0  0  1  0  0  0  0  0  0  0  0  0
   12.3747  -17.5068   23.3648 C   0  0  0  0  0  0  0  0  0  0  0  0
   11.0584  -18.6809   23.7421 S   0  0  0  0  0  0  0  0  0  0  0  0
   12.8844  -17.0843   21.0186 C   0  0  0  0  0  0  0  0  0  0  0  0
   14.2535  -17.0175   21.1341 O   0  0  0  0  0  0  0  0  0  0  0  0
   12.3771  -17.4721   19.9534 O   0  0  0  0  0  0  0  0  0  0  0  0
  2 10  1  0
  2  1  1  1
  3  2  1  0
  4  3  1  0
  5  4  2  0
  6  5  1  0
  7  6  2  0
  7  8  1  0
  8  9  2  0
  9  4  1  0
 10 16  1  0
 11 10  2  0
 13 12  1  6
 14 13  1  0
 15 13  1  0
 15 16  1  1
 17 18  2  0
 17 15  1  0
 19 17  1  0
 20 19  1  0
 21 22  1  0
 20 21  1  1
 23 20  1  0
 23 24  1  0
 25 23  2  0
M  END
$$$$
