KAA.pdb
     RDKit          3D

 20 19  0  0  1  0  0  0  0  0999 V2000
   22.0742  -21.8916  -14.2229 N   0  0  0  0  0  0  0  0  0  0  0  0
   22.3030  -20.4649  -14.3142 C   0  0  1  0  0  0  0  0  0  0  0  0
   21.0083  -19.7830  -13.9255 C   0  0  0  0  0  0  0  0  0  0  0  0
   19.9029  -20.7979  -14.1256 C   0  0  0  0  0  0  0  0  0  0  0  0
   19.3821  -21.3744  -12.8452 C   0  0  0  0  0  0  0  0  0  0  0  0
   18.2198  -22.3124  -13.0837 C   0  0  0  0  0  0  0  0  0  0  0  0
   17.8233  -22.8273  -11.7805 N   0  0  0  0  0  0  0  0  0  0  0  0
   23.4308  -20.0937  -13.4715 C   0  0  0  0  0  0  0  0  0  0  0  0
   23.7392  -18.8826  -13.3522 O   0  0  0  0  0  0  0  0  0  0  0  0
   25.7145  -21.6031  -10.8982 C   0  0  0  0  0  0  0  0  0  0  0  0
   25.3917  -20.6139  -12.0024 C   0  0  2  0  0  0  0  0  0  0  0  0
   24.2300  -21.0259  -12.7549 N   0  0  0  0  0  0  0  0  0  0  0  0
   26.5687  -20.5659  -12.9163 C   0  0  0  0  0  0  0  0  0  0  0  0
   27.6674  -20.1210  -12.4926 O   0  0  0  0  0  0  0  0  0  0  0  0
   27.8877  -22.4364  -15.5292 C   0  0  0  0  0  0  0  0  0  0  0  0
   27.5623  -20.9876  -15.1966 C   0  0  2  0  0  0  0  0  0  0  0  0
   26.4619  -21.0158  -14.2556 N   0  0  0  0  0  0  0  0  0  0  0  0
   27.1362  -20.2445  -16.4054 C   0  0  0  0  0  0  0  0  0  0  0  0
   28.0665  -19.8159  -17.3290 O   0  0  0  0  0  0  0  0  0  0  0  0
   25.9164  -19.9882  -16.6157 O   0  0  0  0  0  0  0  0  0  0  0  0
  2  1  1  1
  3  2  1  0
  4  3  1  0
  4  5  1  0
  6  7  1  0
  6  5  1  0
  8  2  1  0
  8  9  2  0
 11 10  1  1
 12 11  1  0
 12  8  1  0
 13 11  1  0
 14 13  2  0
 16 15  1  6
 16 17  1  0
 17 13  1  0
 18 16  1  0
 18 19  1  0
 20 18  2  0
M  END
$$$$
