KAA.pdb
     RDKit          3D

 20 19  0  0  1  0  0  0  0  0999 V2000
   25.4843  -21.1635  -14.9417 N   0  0  0  0  0  0  0  0  0  0  0  0
   24.2982  -20.3673  -15.1769 C   0  0  1  0  0  0  0  0  0  0  0  0
   23.8848  -20.6025  -16.6142 C   0  0  0  0  0  0  0  0  0  0  0  0
   24.8788  -19.8603  -17.4818 C   0  0  0  0  0  0  0  0  0  0  0  0
   24.5164  -19.8548  -18.9349 C   0  0  0  0  0  0  0  0  0  0  0  0
   25.5634  -19.1542  -19.7720 C   0  0  0  0  0  0  0  0  0  0  0  0
   25.2044  -19.3790  -21.1654 N   0  0  0  0  0  0  0  0  0  0  0  0
   23.2688  -20.7228  -14.2106 C   0  0  0  0  0  0  0  0  0  0  0  0
   23.1758  -21.9115  -13.8178 O   0  0  0  0  0  0  0  0  0  0  0  0
   20.7042  -18.9699  -12.0417 C   0  0  0  0  0  0  0  0  0  0  0  0
   21.3970  -20.1817  -12.6366 C   0  0  2  0  0  0  0  0  0  0  0  0
   22.3363  -19.7988  -13.6645 N   0  0  0  0  0  0  0  0  0  0  0  0
   20.3431  -21.0459  -13.2411 C   0  0  0  0  0  0  0  0  0  0  0  0
   20.0516  -20.9120  -14.4583 O   0  0  0  0  0  0  0  0  0  0  0  0
   18.5013  -24.0397  -11.9965 C   0  0  0  0  0  0  0  0  0  0  0  0
   18.6430  -22.8924  -12.9860 C   0  0  2  0  0  0  0  0  0  0  0  0
   19.6677  -22.0152  -12.4589 N   0  0  0  0  0  0  0  0  0  0  0  0
   17.3784  -22.1298  -13.1048 C   0  0  0  0  0  0  0  0  0  0  0  0
   16.3922  -22.5394  -13.9776 O   0  0  0  0  0  0  0  0  0  0  0  0
   17.1766  -21.0919  -12.4121 O   0  0  0  0  0  0  0  0  0  0  0  0
  2  1  1  1
  3  2  1  0
  4  3  1  0
  4  5  1  0
  6  7  1  0
  6  5  1  0
  8  2  1  0
  8  9  2  0
 11 10  1  6
 12 11  1  0
 12  8  1  0
 13 11  1  0
 14 13  2  0
 16 15  1  1
 16 17  1  0
 17 13  1  0
 18 16  1  0
 18 19  1  0
 20 18  2  0
M  END
$$$$
