KAA.pdb
     RDKit          3D

 20 19  0  0  1  0  0  0  0  0999 V2000
   18.6502  -25.1176  -12.4092 N   0  0  0  0  0  0  0  0  0  0  0  0
   18.2274  -24.0912  -11.4797 C   0  0  1  0  0  0  0  0  0  0  0  0
   16.8938  -23.5701  -11.9719 C   0  0  0  0  0  0  0  0  0  0  0  0
   17.1658  -22.8199  -13.2583 C   0  0  0  0  0  0  0  0  0  0  0  0
   15.9363  -22.2300  -13.8773 C   0  0  0  0  0  0  0  0  0  0  0  0
   16.2707  -21.3497  -15.0610 C   0  0  0  0  0  0  0  0  0  0  0  0
   15.0318  -20.6967  -15.4603 N   0  0  0  0  0  0  0  0  0  0  0  0
   18.1751  -24.6404  -10.1323 C   0  0  0  0  0  0  0  0  0  0  0  0
   17.7412  -25.8054   -9.9577 O   0  0  0  0  0  0  0  0  0  0  0  0
   19.4603  -23.7984   -6.6868 C   0  0  0  0  0  0  0  0  0  0  0  0
   18.5698  -24.5473   -7.6606 C   0  0  2  0  0  0  0  0  0  0  0  0
   18.5901  -23.9364   -8.9689 N   0  0  0  0  0  0  0  0  0  0  0  0
   17.1798  -24.4962   -7.1237 C   0  0  0  0  0  0  0  0  0  0  0  0
   16.3861  -23.6103   -7.5357 O   0  0  0  0  0  0  0  0  0  0  0  0
   15.2956  -26.6695   -4.7243 C   0  0  0  0  0  0  0  0  0  0  0  0
   15.4430  -25.3826   -5.5229 C   0  0  2  0  0  0  0  0  0  0  0  0
   16.7447  -25.4345   -6.1552 N   0  0  0  0  0  0  0  0  0  0  0  0
   15.3904  -24.1956   -4.6380 C   0  0  0  0  0  0  0  0  0  0  0  0
   14.1918  -23.5612   -4.3865 O   0  0  0  0  0  0  0  0  0  0  0  0
   16.4380  -23.7402   -4.0967 O   0  0  0  0  0  0  0  0  0  0  0  0
  2  1  1  6
  3  2  1  0
  4  3  1  0
  4  5  1  0
  6  7  1  0
  6  5  1  0
  8  2  1  0
  8  9  2  0
 11 10  1  1
 12 11  1  0
 12  8  1  0
 13 11  1  0
 14 13  2  0
 16 15  1  1
 16 17  1  0
 17 13  1  0
 18 16  1  0
 18 19  1  0
 20 18  2  0
M  END
$$$$
