KAA.pdb
     RDKit          3D

 20 19  0  0  1  0  0  0  0  0999 V2000
   19.7445  -12.0118  -18.4530 N   0  0  0  0  0  0  0  0  0  0  0  0
   21.0518  -11.4316  -18.2279 C   0  0  1  0  0  0  0  0  0  0  0  0
   21.3758  -10.5857  -19.4410 C   0  0  0  0  0  0  0  0  0  0  0  0
   21.7245  -11.5430  -20.5606 C   0  0  0  0  0  0  0  0  0  0  0  0
   22.1105  -10.8570  -21.8348 C   0  0  0  0  0  0  0  0  0  0  0  0
   22.3899  -11.8475  -22.9433 C   0  0  0  0  0  0  0  0  0  0  0  0
   22.7456  -11.0682  -24.1210 N   0  0  0  0  0  0  0  0  0  0  0  0
   21.0475  -10.6809  -16.9804 C   0  0  0  0  0  0  0  0  0  0  0  0
   20.0231  -10.0327  -16.6543 O   0  0  0  0  0  0  0  0  0  0  0  0
   23.2160  -10.2424  -13.9139 C   0  0  0  0  0  0  0  0  0  0  0  0
   22.0952   -9.8551  -14.8604 C   0  0  2  0  0  0  0  0  0  0  0  0
   22.1468  -10.6261  -16.0804 N   0  0  0  0  0  0  0  0  0  0  0  0
   22.2700   -8.4119  -15.1918 C   0  0  0  0  0  0  0  0  0  0  0  0
   23.1332   -8.0690  -16.0414 O   0  0  0  0  0  0  0  0  0  0  0  0
   20.1212   -5.4992  -14.9281 C   0  0  0  0  0  0  0  0  0  0  0  0
   21.5523   -6.0138  -14.8780 C   0  0  2  0  0  0  0  0  0  0  0  0
   21.4743   -7.4244  -14.5600 N   0  0  0  0  0  0  0  0  0  0  0  0
   22.3297   -5.3292  -13.8188 C   0  0  0  0  0  0  0  0  0  0  0  0
   22.8825   -4.0864  -14.0473 O   0  0  0  0  0  0  0  0  0  0  0  0
   22.5025   -5.8665  -12.6878 O   0  0  0  0  0  0  0  0  0  0  0  0
  2  1  1  6
  3  2  1  0
  4  3  1  0
  4  5  1  0
  6  7  1  0
  6  5  1  0
  8  2  1  0
  8  9  2  0
 11 10  1  1
 12 11  1  0
 12  8  1  0
 13 11  1  0
 14 13  2  0
 16 15  1  1
 16 17  1  0
 17 13  1  0
 18 16  1  0
 18 19  1  0
 20 18  2  0
M  END
$$$$
