KAA.pdb
     RDKit          3D

 20 19  0  0  1  0  0  0  0  0999 V2000
   20.7204  -12.4482  -16.5850 N   0  0  0  0  0  0  0  0  0  0  0  0
   19.9812  -11.2532  -16.9338 C   0  0  1  0  0  0  0  0  0  0  0  0
   18.7443  -11.2271  -16.0610 C   0  0  0  0  0  0  0  0  0  0  0  0
   17.8932  -12.4088  -16.4740 C   0  0  0  0  0  0  0  0  0  0  0  0
   16.6410  -12.5549  -15.6655 C   0  0  0  0  0  0  0  0  0  0  0  0
   15.7851  -13.7005  -16.1581 C   0  0  0  0  0  0  0  0  0  0  0  0
   14.5756  -13.6983  -15.3469 N   0  0  0  0  0  0  0  0  0  0  0  0
   20.8328  -10.0837  -16.7698 C   0  0  0  0  0  0  0  0  0  0  0  0
   21.5572   -9.9866  -15.7491 O   0  0  0  0  0  0  0  0  0  0  0  0
   21.9049   -7.0293  -18.7264 C   0  0  0  0  0  0  0  0  0  0  0  0
   21.7136   -7.8428  -17.4601 C   0  0  2  0  0  0  0  0  0  0  0  0
   20.9067   -9.0152  -17.7048 N   0  0  0  0  0  0  0  0  0  0  0  0
   21.0153   -6.9719  -16.4717 C   0  0  0  0  0  0  0  0  0  0  0  0
   19.7579   -6.9132  -16.4736 O   0  0  0  0  0  0  0  0  0  0  0  0
   22.1848   -5.1696  -13.4334 C   0  0  0  0  0  0  0  0  0  0  0  0
   21.1367   -5.3833  -14.5157 C   0  0  2  0  0  0  0  0  0  0  0  0
   21.7532   -6.2109  -15.5316 N   0  0  0  0  0  0  0  0  0  0  0  0
   20.7329   -4.0970  -15.1299 C   0  0  0  0  0  0  0  0  0  0  0  0
   19.8309   -3.2694  -14.4946 O   0  0  0  0  0  0  0  0  0  0  0  0
   21.2039   -3.7316  -16.2446 O   0  0  0  0  0  0  0  0  0  0  0  0
  2  1  1  1
  3  2  1  0
  4  3  1  0
  4  5  1  0
  6  7  1  0
  6  5  1  0
  8  2  1  0
  8  9  2  0
 11 10  1  6
 12 11  1  0
 12  8  1  0
 13 11  1  0
 14 13  2  0
 16 15  1  1
 16 17  1  0
 17 13  1  0
 18 16  1  0
 18 19  1  0
 20 18  2  0
M  END
$$$$
