TIH.pdb
     RDKit          3D

 26 26  0  0  1  0  0  0  0  0999 V2000
   33.2039  -39.6469   -6.0139 C   0  0  0  0  0  0  0  0  0  0  0  0
   34.6869  -39.5610   -6.2942 C   0  0  1  0  0  0  0  0  0  0  0  0
   35.0743  -40.4546   -7.2822 O   0  0  0  0  0  0  0  0  0  0  0  0
   35.0775  -38.1290   -6.6689 C   0  0  2  0  0  0  0  0  0  0  0  0
   36.5361  -38.0674   -6.8105 N   0  0  0  0  0  0  0  0  0  0  0  0
   34.6916  -37.1940   -5.5804 C   0  0  0  0  0  0  0  0  0  0  0  0
   35.4081  -37.0780   -4.5389 O   0  0  0  0  0  0  0  0  0  0  0  0
   31.9495  -32.7756   -6.9687 C   0  0  0  0  0  0  0  0  0  0  0  0
   32.8909  -33.7174   -6.2873 C   0  0  0  0  0  0  0  0  0  0  0  0
   32.2035  -34.4552   -5.1284 C   0  0  2  0  0  0  0  0  0  0  0  0
   31.6248  -33.4817   -4.1606 C   0  0  0  0  0  0  0  0  0  0  0  0
   33.1202  -35.4929   -4.5435 C   0  0  2  0  0  0  0  0  0  0  0  0
   33.5277  -36.3908   -5.6332 N   0  0  0  0  0  0  0  0  0  0  0  0
   32.5095  -36.3262   -3.4927 C   0  0  0  0  0  0  0  0  0  0  0  0
   31.6178  -37.1878   -3.8063 O   0  0  0  0  0  0  0  0  0  0  0  0
   32.8284  -36.2645   -2.1206 N   0  0  0  0  0  0  0  0  0  0  0  0
   32.1849  -37.1340   -1.1493 C   0  0  1  0  0  0  0  0  0  0  0  0
   33.2194  -37.6202   -0.1609 C   0  0  0  0  0  0  0  0  0  0  0  0
   32.6123  -38.4907    0.8620 C   0  0  0  0  0  0  0  0  0  0  0  0
   32.4605  -39.8612    0.8235 C   0  0  0  0  0  0  0  0  0  0  0  0
   31.8456  -40.2918    1.9385 N   0  0  0  0  0  0  0  0  0  0  0  0
   31.6076  -39.2053    2.6804 C   0  0  0  0  0  0  0  0  0  0  0  0
   32.0638  -38.1160    2.0443 N   0  0  0  0  0  0  0  0  0  0  0  0
   31.0910  -36.4117   -0.4830 C   0  0  0  0  0  0  0  0  0  0  0  0
   30.8481  -35.0523   -0.6006 O   0  0  0  0  0  0  0  0  0  0  0  0
   30.2854  -37.0379    0.2661 O   0  0  0  0  0  0  0  0  0  0  0  0
  2  1  1  6
  3  2  1  0
  4  2  1  0
  4  6  1  0
  4  5  1  1
  6 13  1  0
  6  7  2  0
  9  8  1  0
 10  9  1  0
 10 11  1  1
 12 10  1  0
 12 13  1  6
 14 12  1  0
 14 15  2  0
 16 14  1  0
 17 16  1  0
 17 18  1  1
 18 19  1  0
 19 20  2  0
 19 23  1  0
 20 21  1  0
 21 22  1  0
 23 22  2  0
 24 17  1  0
 25 24  1  0
 26 24  2  0
M  END
$$$$
