TIH.pdb
     RDKit          3D

 26 26  0  0  1  0  0  0  0  0999 V2000
   17.8523   -8.3411  -17.9102 C   0  0  0  0  0  0  0  0  0  0  0  0
   17.2327   -9.6944  -17.6452 C   0  0  1  0  0  0  0  0  0  0  0  0
   16.4734  -10.1300  -18.7215 O   0  0  0  0  0  0  0  0  0  0  0  0
   18.3152  -10.7171  -17.2906 C   0  0  2  0  0  0  0  0  0  0  0  0
   17.6612  -11.9792  -16.9291 N   0  0  0  0  0  0  0  0  0  0  0  0
   19.0853  -10.2546  -16.1068 C   0  0  0  0  0  0  0  0  0  0  0  0
   18.5784  -10.2995  -14.9438 O   0  0  0  0  0  0  0  0  0  0  0  0
   23.7441  -11.8826  -14.7025 C   0  0  0  0  0  0  0  0  0  0  0  0
   22.3893  -11.2485  -14.7156 C   0  0  0  0  0  0  0  0  0  0  0  0
   22.4797   -9.7409  -14.9966 C   0  0  2  0  0  0  0  0  0  0  0  0
   23.4325   -9.0908  -14.0539 C   0  0  0  0  0  0  0  0  0  0  0  0
   21.1072   -9.1317  -15.0633 C   0  0  2  0  0  0  0  0  0  0  0  0
   20.4028   -9.7462  -16.1973 N   0  0  0  0  0  0  0  0  0  0  0  0
   21.0948   -7.6736  -15.2764 C   0  0  0  0  0  0  0  0  0  0  0  0
   21.5715   -7.1879  -16.3594 O   0  0  0  0  0  0  0  0  0  0  0  0
   20.5852   -6.7248  -14.3662 N   0  0  0  0  0  0  0  0  0  0  0  0
   20.6913   -5.2966  -14.6158 C   0  0  1  0  0  0  0  0  0  0  0  0
   19.3997   -4.6272  -14.2070 C   0  0  0  0  0  0  0  0  0  0  0  0
   19.5016   -3.1605  -14.3145 C   0  0  0  0  0  0  0  0  0  0  0  0
   19.5427   -2.3981  -15.4632 C   0  0  0  0  0  0  0  0  0  0  0  0
   19.6534   -1.0951  -15.1520 N   0  0  0  0  0  0  0  0  0  0  0  0
   19.6827   -1.0283  -13.8170 C   0  0  0  0  0  0  0  0  0  0  0  0
   19.5922   -2.2634  -13.3015 N   0  0  0  0  0  0  0  0  0  0  0  0
   21.8444   -4.7485  -13.8862 C   0  0  0  0  0  0  0  0  0  0  0  0
   22.6440   -3.7070  -14.3296 O   0  0  0  0  0  0  0  0  0  0  0  0
   22.1699   -5.2345  -12.7635 O   0  0  0  0  0  0  0  0  0  0  0  0
  2  1  1  6
  3  2  1  0
  4  2  1  0
  4  6  1  0
  4  5  1  1
  6 13  1  0
  6  7  2  0
  9  8  1  0
 10  9  1  0
 10 11  1  1
 12 10  1  0
 12 13  1  6
 14 12  1  0
 14 15  2  0
 16 14  1  0
 17 16  1  0
 17 18  1  1
 18 19  1  0
 19 20  2  0
 19 23  1  0
 20 21  1  0
 21 22  1  0
 23 22  2  0
 24 17  1  0
 25 24  1  0
 26 24  2  0
M  END
$$$$
