TIH.pdb
     RDKit          3D

 26 26  0  0  1  0  0  0  0  0999 V2000
   26.2006  -12.4237  -15.3625 C   0  0  0  0  0  0  0  0  0  0  0  0
   26.4272  -13.4270  -16.4704 C   0  0  1  0  0  0  0  0  0  0  0  0
   27.5869  -14.1610  -16.2679 O   0  0  0  0  0  0  0  0  0  0  0  0
   25.2139  -14.3498  -16.6115 C   0  0  2  0  0  0  0  0  0  0  0  0
   25.4994  -15.3353  -17.6598 N   0  0  0  0  0  0  0  0  0  0  0  0
   24.0258  -13.5678  -17.0413 C   0  0  0  0  0  0  0  0  0  0  0  0
   23.9349  -13.1223  -18.2265 O   0  0  0  0  0  0  0  0  0  0  0  0
   20.3855  -15.8061  -16.7588 C   0  0  0  0  0  0  0  0  0  0  0  0
   20.4683  -14.4609  -17.4079 C   0  0  0  0  0  0  0  0  0  0  0  0
   20.5527  -13.3390  -16.3618 C   0  0  2  0  0  0  0  0  0  0  0  0
   19.2592  -12.6049  -16.2787 C   0  0  0  0  0  0  0  0  0  0  0  0
   21.7724  -12.4912  -16.5922 C   0  0  2  0  0  0  0  0  0  0  0  0
   22.9438  -13.2758  -16.1772 N   0  0  0  0  0  0  0  0  0  0  0  0
   21.7947  -11.2311  -15.8285 C   0  0  0  0  0  0  0  0  0  0  0  0
   21.7982  -11.2656  -14.5499 O   0  0  0  0  0  0  0  0  0  0  0  0
   21.8160   -9.9398  -16.3942 N   0  0  0  0  0  0  0  0  0  0  0  0
   21.8300   -8.7454  -15.5654 C   0  0  1  0  0  0  0  0  0  0  0  0
   22.2449   -7.5635  -16.4106 C   0  0  0  0  0  0  0  0  0  0  0  0
   22.2876   -6.3252  -15.6120 C   0  0  0  0  0  0  0  0  0  0  0  0
   22.2138   -6.2013  -14.2402 C   0  0  0  0  0  0  0  0  0  0  0  0
   22.2718   -4.9055  -13.8873 N   0  0  0  0  0  0  0  0  0  0  0  0
   22.3812   -4.2104  -15.0241 C   0  0  0  0  0  0  0  0  0  0  0  0
   22.3919   -5.0524  -16.0683 N   0  0  0  0  0  0  0  0  0  0  0  0
   20.5051   -8.5447  -14.9600 C   0  0  0  0  0  0  0  0  0  0  0  0
   20.2804   -8.1627  -13.6469 O   0  0  0  0  0  0  0  0  0  0  0  0
   19.4608   -8.7242  -15.6528 O   0  0  0  0  0  0  0  0  0  0  0  0
  2  1  1  1
  3  2  1  0
  4  2  1  0
  4  6  1  0
  4  5  1  6
  6 13  1  0
  6  7  2  0
  9  8  1  0
 10  9  1  0
 10 11  1  6
 12 10  1  0
 12 13  1  1
 14 12  1  0
 14 15  2  0
 16 14  1  0
 17 16  1  0
 17 18  1  6
 18 19  1  0
 19 20  2  0
 19 23  1  0
 20 21  1  0
 21 22  1  0
 23 22  2  0
 24 17  1  0
 25 24  1  0
 26 24  2  0
M  END
$$$$
