TIH.pdb
     RDKit          3D

 26 26  0  0  1  0  0  0  0  0999 V2000
   27.3663  -22.6496  -17.0307 C   0  0  0  0  0  0  0  0  0  0  0  0
   28.1049  -22.0063  -15.8792 C   0  0  1  0  0  0  0  0  0  0  0  0
   29.4029  -21.6642  -16.2300 O   0  0  0  0  0  0  0  0  0  0  0  0
   27.3369  -20.7846  -15.3681 C   0  0  2  0  0  0  0  0  0  0  0  0
   28.2176  -20.0218  -14.4771 N   0  0  0  0  0  0  0  0  0  0  0  0
   26.1594  -21.2188  -14.5725 C   0  0  0  0  0  0  0  0  0  0  0  0
   25.3829  -22.1261  -15.0031 O   0  0  0  0  0  0  0  0  0  0  0  0
   26.4683  -20.8143   -9.1831 C   0  0  0  0  0  0  0  0  0  0  0  0
   26.1356  -21.3286  -10.5478 C   0  0  0  0  0  0  0  0  0  0  0  0
   24.8798  -20.6469  -11.1120 C   0  0  2  0  0  0  0  0  0  0  0  0
   23.7254  -20.8342  -10.1893 C   0  0  0  0  0  0  0  0  0  0  0  0
   24.6500  -21.0587  -12.5392 C   0  0  2  0  0  0  0  0  0  0  0  0
   25.8351  -20.6622  -13.3125 N   0  0  0  0  0  0  0  0  0  0  0  0
   23.4792  -20.4302  -13.1763 C   0  0  0  0  0  0  0  0  0  0  0  0
   23.3922  -19.1549  -13.2229 O   0  0  0  0  0  0  0  0  0  0  0  0
   22.4042  -21.1271  -13.7653 N   0  0  0  0  0  0  0  0  0  0  0  0
   21.2715  -20.4274  -14.3492 C   0  0  1  0  0  0  0  0  0  0  0  0
   20.7878  -21.1944  -15.5579 C   0  0  0  0  0  0  0  0  0  0  0  0
   19.5846  -20.5716  -16.1387 C   0  0  0  0  0  0  0  0  0  0  0  0
   18.5131  -20.0177  -15.4697 C   0  0  0  0  0  0  0  0  0  0  0  0
   17.6020  -19.5636  -16.3475 N   0  0  0  0  0  0  0  0  0  0  0  0
   18.0888  -19.8262  -17.5647 C   0  0  0  0  0  0  0  0  0  0  0  0
   19.2802  -20.4321  -17.4529 N   0  0  0  0  0  0  0  0  0  0  0  0
   20.2112  -20.2707  -13.3425 C   0  0  0  0  0  0  0  0  0  0  0  0
   19.8669  -21.2221  -12.3954 O   0  0  0  0  0  0  0  0  0  0  0  0
   19.5336  -19.2022  -13.3006 O   0  0  0  0  0  0  0  0  0  0  0  0
  2  1  1  6
  3  2  1  0
  4  2  1  0
  4  6  1  0
  4  5  1  1
  6 13  1  0
  6  7  2  0
  9  8  1  0
 10  9  1  0
 10 11  1  1
 12 10  1  0
 12 13  1  6
 14 12  1  0
 14 15  2  0
 16 14  1  0
 17 16  1  0
 17 18  1  6
 18 19  1  0
 19 20  2  0
 19 23  1  0
 20 21  1  0
 21 22  1  0
 23 22  2  0
 24 17  1  0
 25 24  1  0
 26 24  2  0
M  END
$$$$
