TIH.pdb
     RDKit          3D

 26 26  0  0  1  0  0  0  0  0999 V2000
   18.3000  -18.7128  -14.8103 C   0  0  0  0  0  0  0  0  0  0  0  0
   18.6003  -19.8235  -13.8297 C   0  0  1  0  0  0  0  0  0  0  0  0
   17.8229  -20.9464  -14.0734 O   0  0  0  0  0  0  0  0  0  0  0  0
   20.0903  -20.1735  -13.8593 C   0  0  2  0  0  0  0  0  0  0  0  0
   20.3874  -20.8322  -15.1358 N   0  0  0  0  0  0  0  0  0  0  0  0
   20.4099  -21.1349  -12.7723 C   0  0  0  0  0  0  0  0  0  0  0  0
   20.5152  -22.3768  -13.0133 O   0  0  0  0  0  0  0  0  0  0  0  0
   23.6375  -21.2408   -7.6098 C   0  0  0  0  0  0  0  0  0  0  0  0
   22.4706  -21.8357   -8.3323 C   0  0  0  0  0  0  0  0  0  0  0  0
   22.0130  -20.9376   -9.4917 C   0  0  2  0  0  0  0  0  0  0  0  0
   21.5626  -19.6134   -8.9793 C   0  0  0  0  0  0  0  0  0  0  0  0
   21.0355  -21.6657  -10.3712 C   0  0  2  0  0  0  0  0  0  0  0  0
   20.6129  -20.7375  -11.4294 N   0  0  0  0  0  0  0  0  0  0  0  0
   19.8185  -22.1285   -9.6809 C   0  0  0  0  0  0  0  0  0  0  0  0
   18.8457  -21.3178   -9.5009 O   0  0  0  0  0  0  0  0  0  0  0  0
   19.6142  -23.4315   -9.1825 N   0  0  0  0  0  0  0  0  0  0  0  0
   18.3871  -23.8004   -8.4956 C   0  0  1  0  0  0  0  0  0  0  0  0
   17.8496  -25.0778   -9.0979 C   0  0  0  0  0  0  0  0  0  0  0  0
   16.5616  -25.4545   -8.4881 C   0  0  0  0  0  0  0  0  0  0  0  0
   15.8379  -24.7575   -7.5431 C   0  0  0  0  0  0  0  0  0  0  0  0
   14.7204  -25.4326   -7.2231 N   0  0  0  0  0  0  0  0  0  0  0  0
   14.7323  -26.5496   -7.9577 C   0  0  0  0  0  0  0  0  0  0  0  0
   15.8341  -26.5748   -8.7224 N   0  0  0  0  0  0  0  0  0  0  0  0
   18.6473  -23.9438   -7.0554 C   0  0  0  0  0  0  0  0  0  0  0  0
   17.6842  -23.8670   -6.0619 O   0  0  0  0  0  0  0  0  0  0  0  0
   19.8263  -24.1532   -6.6448 O   0  0  0  0  0  0  0  0  0  0  0  0
  2  1  1  6
  3  2  1  0
  4  2  1  0
  4  6  1  0
  4  5  1  6
  6 13  1  0
  6  7  2  0
  9  8  1  0
 10  9  1  0
 10 11  1  1
 12 10  1  0
 12 13  1  6
 14 12  1  0
 14 15  2  0
 16 14  1  0
 17 16  1  0
 17 18  1  6
 18 19  1  0
 19 20  2  0
 19 23  1  0
 20 21  1  0
 21 22  1  0
 23 22  2  0
 24 17  1  0
 25 24  1  0
 26 24  2  0
M  END
$$$$
