TIH.pdb
     RDKit          3D

 26 26  0  0  1  0  0  0  0  0999 V2000
   21.4556  -10.9544  -18.4186 C   0  0  0  0  0  0  0  0  0  0  0  0
   20.5693  -11.7853  -19.3183 C   0  0  1  0  0  0  0  0  0  0  0  0
   21.3131  -12.5929  -20.1664 O   0  0  0  0  0  0  0  0  0  0  0  0
   19.5946  -12.6204  -18.4840 C   0  0  2  0  0  0  0  0  0  0  0  0
   18.7930  -13.4454  -19.3941 N   0  0  0  0  0  0  0  0  0  0  0  0
   18.6621  -11.7293  -17.7461 C   0  0  0  0  0  0  0  0  0  0  0  0
   17.8787  -10.9490  -18.3696 O   0  0  0  0  0  0  0  0  0  0  0  0
   14.9099  -12.0086  -16.1536 C   0  0  0  0  0  0  0  0  0  0  0  0
   16.0010  -12.7112  -15.4097 C   0  0  0  0  0  0  0  0  0  0  0  0
   16.8862  -11.7167  -14.6432 C   0  0  2  0  0  0  0  0  0  0  0  0
   16.0920  -11.0066  -13.6020 C   0  0  0  0  0  0  0  0  0  0  0  0
   17.6458  -10.8391  -15.5983 C   0  0  2  0  0  0  0  0  0  0  0  0
   18.5886  -11.6938  -16.3333 N   0  0  0  0  0  0  0  0  0  0  0  0
   18.4310   -9.7708  -14.9550 C   0  0  0  0  0  0  0  0  0  0  0  0
   19.4510  -10.0744  -14.2455 O   0  0  0  0  0  0  0  0  0  0  0  0
   18.1567   -8.3912  -15.0524 N   0  0  0  0  0  0  0  0  0  0  0  0
   19.0938   -7.3921  -14.5654 C   0  0  1  0  0  0  0  0  0  0  0  0
   20.3763   -7.4909  -15.3584 C   0  0  0  0  0  0  0  0  0  0  0  0
   21.2922   -6.3830  -15.0318 C   0  0  0  0  0  0  0  0  0  0  0  0
   21.1138   -5.3874  -14.0939 C   0  0  0  0  0  0  0  0  0  0  0  0
   22.1648   -4.5495  -14.1005 N   0  0  0  0  0  0  0  0  0  0  0  0
   23.0050   -5.0071  -15.0344 C   0  0  0  0  0  0  0  0  0  0  0  0
   22.4919   -6.1090  -15.6017 N   0  0  0  0  0  0  0  0  0  0  0  0
   18.4917   -6.0544  -14.6665 C   0  0  0  0  0  0  0  0  0  0  0  0
   18.6106   -5.0548  -13.7140 O   0  0  0  0  0  0  0  0  0  0  0  0
   17.8023   -5.7477  -15.6830 O   0  0  0  0  0  0  0  0  0  0  0  0
  2  1  1  1
  3  2  1  0
  4  2  1  0
  4  6  1  0
  4  5  1  6
  6 13  1  0
  6  7  2  0
  9  8  1  0
 10  9  1  0
 10 11  1  1
 12 10  1  0
 12 13  1  1
 14 12  1  0
 14 15  2  0
 16 14  1  0
 17 16  1  0
 17 18  1  6
 18 19  1  0
 19 20  2  0
 19 23  1  0
 20 21  1  0
 21 22  1  0
 23 22  2  0
 24 17  1  0
 25 24  1  0
 26 24  2  0
M  END
$$$$
