TIH.pdb
     RDKit          3D

 26 26  0  0  1  0  0  0  0  0999 V2000
   14.1666  -18.5483    3.3152 C   0  0  0  0  0  0  0  0  0  0  0  0
   14.0418  -19.8383    2.5367 C   0  0  1  0  0  0  0  0  0  0  0  0
   12.8493  -19.8972    1.8302 O   0  0  0  0  0  0  0  0  0  0  0  0
   15.2406  -20.0154    1.6013 C   0  0  2  0  0  0  0  0  0  0  0  0
   15.0935  -21.2923    0.8946 N   0  0  0  0  0  0  0  0  0  0  0  0
   16.4979  -20.0806    2.3905 C   0  0  0  0  0  0  0  0  0  0  0  0
   16.8614  -21.1629    2.9454 O   0  0  0  0  0  0  0  0  0  0  0  0
   20.7877  -17.3612    0.8121 C   0  0  0  0  0  0  0  0  0  0  0  0
   19.9255  -18.4072    1.4448 C   0  0  0  0  0  0  0  0  0  0  0  0
   19.5332  -18.0172    2.8780 C   0  0  2  0  0  0  0  0  0  0  0  0
   20.7491  -17.7840    3.7065 C   0  0  0  0  0  0  0  0  0  0  0  0
   18.5372  -18.9936    3.4383 C   0  0  2  0  0  0  0  0  0  0  0  0
   17.3516  -18.9665    2.5703 N   0  0  0  0  0  0  0  0  0  0  0  0
   18.0860  -18.6891    4.8078 C   0  0  0  0  0  0  0  0  0  0  0  0
   17.3641  -17.6551    5.0215 O   0  0  0  0  0  0  0  0  0  0  0  0
   18.3831  -19.4603    5.9502 N   0  0  0  0  0  0  0  0  0  0  0  0
   17.9620  -19.0468    7.2788 C   0  0  1  0  0  0  0  0  0  0  0  0
   16.8231  -19.9302    7.7325 C   0  0  0  0  0  0  0  0  0  0  0  0
   16.3689  -19.5624    9.0858 C   0  0  0  0  0  0  0  0  0  0  0  0
   15.8762  -18.3460    9.5104 C   0  0  0  0  0  0  0  0  0  0  0  0
   15.5826  -18.3960   10.8212 N   0  0  0  0  0  0  0  0  0  0  0  0
   15.8857  -19.6331   11.2278 C   0  0  0  0  0  0  0  0  0  0  0  0
   16.3594  -20.3443   10.1938 N   0  0  0  0  0  0  0  0  0  0  0  0
   19.1030  -19.1097    8.2043 C   0  0  0  0  0  0  0  0  0  0  0  0
   19.2250  -18.3671    9.3680 O   0  0  0  0  0  0  0  0  0  0  0  0
   20.0721  -19.8866    7.9595 O   0  0  0  0  0  0  0  0  0  0  0  0
  2  1  1  6
  3  2  1  0
  4  2  1  0
  4  6  1  0
  4  5  1  1
  6 13  1  0
  6  7  2  0
  9  8  1  0
 10  9  1  0
 10 11  1  1
 12 10  1  0
 12 13  1  6
 14 12  1  0
 14 15  2  0
 16 14  1  0
 17 16  1  0
 17 18  1  1
 18 19  1  0
 19 20  2  0
 19 23  1  0
 20 21  1  0
 21 22  1  0
 23 22  2  0
 24 17  1  0
 25 24  1  0
 26 24  2  0
M  END
$$$$
