TIH.pdb
     RDKit          3D

 26 26  0  0  1  0  0  0  0  0999 V2000
   19.6088  -23.7430   -9.0468 C   0  0  0  0  0  0  0  0  0  0  0  0
   18.5255  -24.0965   -8.0533 C   0  0  1  0  0  0  0  0  0  0  0  0
   17.2685  -23.7334   -8.5149 O   0  0  0  0  0  0  0  0  0  0  0  0
   18.5745  -25.5895   -7.7186 C   0  0  2  0  0  0  0  0  0  0  0  0
   18.1988  -26.3468   -8.9173 N   0  0  0  0  0  0  0  0  0  0  0  0
   17.5838  -25.9068   -6.6575 C   0  0  0  0  0  0  0  0  0  0  0  0
   16.4416  -26.3748   -6.9538 O   0  0  0  0  0  0  0  0  0  0  0  0
   19.4756  -27.9812   -2.4702 C   0  0  0  0  0  0  0  0  0  0  0  0
   18.1969  -27.8179   -3.2289 C   0  0  0  0  0  0  0  0  0  0  0  0
   17.5866  -26.4261   -3.0041 C   0  0  2  0  0  0  0  0  0  0  0  0
   16.8131  -26.3951   -1.7313 C   0  0  0  0  0  0  0  0  0  0  0  0
   16.8474  -25.9679   -4.2301 C   0  0  2  0  0  0  0  0  0  0  0  0
   17.8435  -25.7126   -5.2801 N   0  0  0  0  0  0  0  0  0  0  0  0
   16.0720  -24.7279   -4.0492 C   0  0  0  0  0  0  0  0  0  0  0  0
   16.5419  -23.6188   -4.4794 O   0  0  0  0  0  0  0  0  0  0  0  0
   14.8104  -24.6436   -3.4250 N   0  0  0  0  0  0  0  0  0  0  0  0
   14.0055  -23.4350   -3.4948 C   0  0  1  0  0  0  0  0  0  0  0  0
   13.6395  -23.1688   -4.9366 C   0  0  0  0  0  0  0  0  0  0  0  0
   12.7663  -21.9872   -5.0560 C   0  0  0  0  0  0  0  0  0  0  0  0
   12.3335  -21.1508   -4.0481 C   0  0  0  0  0  0  0  0  0  0  0  0
   11.5365  -20.1921   -4.5505 N   0  0  0  0  0  0  0  0  0  0  0  0
   11.4620  -20.4160   -5.8665 C   0  0  0  0  0  0  0  0  0  0  0  0
   12.1971  -21.4925   -6.1831 N   0  0  0  0  0  0  0  0  0  0  0  0
   12.8126  -23.5824   -2.6477 C   0  0  0  0  0  0  0  0  0  0  0  0
   12.2150  -22.5579   -1.9308 O   0  0  0  0  0  0  0  0  0  0  0  0
   12.2556  -24.7134   -2.5331 O   0  0  0  0  0  0  0  0  0  0  0  0
  2  1  1  6
  3  2  1  0
  4  2  1  0
  4  6  1  0
  4  5  1  6
  6 13  1  0
  6  7  2  0
  9  8  1  0
 10  9  1  0
 10 11  1  1
 12 10  1  0
 12 13  1  6
 14 12  1  0
 14 15  2  0
 16 14  1  0
 17 16  1  0
 17 18  1  6
 18 19  1  0
 19 20  2  0
 19 23  1  0
 20 21  1  0
 21 22  1  0
 23 22  2  0
 24 17  1  0
 25 24  1  0
 26 24  2  0
M  END
$$$$
