TIH.pdb
     RDKit          3D

 26 26  0  0  1  0  0  0  0  0999 V2000
   29.3170  -26.4128  -19.2979 C   0  0  0  0  0  0  0  0  0  0  0  0
   30.0584  -26.8545  -18.0567 C   0  0  1  0  0  0  0  0  0  0  0  0
   31.2483  -27.4949  -18.3710 O   0  0  0  0  0  0  0  0  0  0  0  0
   30.3080  -25.6612  -17.1308 C   0  0  2  0  0  0  0  0  0  0  0  0
   30.9724  -26.1466  -15.9165 N   0  0  0  0  0  0  0  0  0  0  0  0
   29.0150  -25.0529  -16.7232 C   0  0  0  0  0  0  0  0  0  0  0  0
   28.3710  -25.5026  -15.7259 O   0  0  0  0  0  0  0  0  0  0  0  0
   29.1062  -20.3996  -17.6962 C   0  0  0  0  0  0  0  0  0  0  0  0
   28.2762  -21.1812  -16.7277 C   0  0  0  0  0  0  0  0  0  0  0  0
   27.1438  -21.9347  -17.4418 C   0  0  2  0  0  0  0  0  0  0  0  0
   25.8536  -21.2064  -17.2864 C   0  0  0  0  0  0  0  0  0  0  0  0
   27.1315  -23.3815  -17.0343 C   0  0  2  0  0  0  0  0  0  0  0  0
   28.4315  -23.9584  -17.4044 N   0  0  0  0  0  0  0  0  0  0  0  0
   26.0889  -24.1923  -17.6880 C   0  0  0  0  0  0  0  0  0  0  0  0
   26.2778  -24.6288  -18.8753 O   0  0  0  0  0  0  0  0  0  0  0  0
   24.8552  -24.5495  -17.1062 N   0  0  0  0  0  0  0  0  0  0  0  0
   23.9096  -25.4123  -17.7954 C   0  0  1  0  0  0  0  0  0  0  0  0
   24.3830  -26.8437  -17.6933 C   0  0  0  0  0  0  0  0  0  0  0  0
   23.4863  -27.7558  -18.4261 C   0  0  0  0  0  0  0  0  0  0  0  0
   22.4414  -27.4225  -19.2624 C   0  0  0  0  0  0  0  0  0  0  0  0
   21.8497  -28.5343  -19.7321 N   0  0  0  0  0  0  0  0  0  0  0  0
   22.5118  -29.5666  -19.1995 C   0  0  0  0  0  0  0  0  0  0  0  0
   23.4981  -29.1118  -18.4123 N   0  0  0  0  0  0  0  0  0  0  0  0
   22.5676  -25.2393  -17.2199 C   0  0  0  0  0  0  0  0  0  0  0  0
   21.3856  -25.6355  -17.8253 O   0  0  0  0  0  0  0  0  0  0  0  0
   22.4326  -24.6904  -16.0872 O   0  0  0  0  0  0  0  0  0  0  0  0
  2  1  1  6
  3  2  1  0
  4  2  1  0
  4  6  1  0
  4  5  1  1
  6 13  1  0
  6  7  2  0
  9  8  1  0
 10  9  1  0
 10 11  1  1
 12 10  1  0
 12 13  1  6
 14 12  1  0
 14 15  2  0
 16 14  1  0
 17 16  1  0
 17 18  1  1
 18 19  1  0
 19 20  2  0
 19 23  1  0
 20 21  1  0
 21 22  1  0
 23 22  2  0
 24 17  1  0
 25 24  1  0
 26 24  2  0
M  END
$$$$
