TIH.pdb
     RDKit          3D

 26 26  0  0  1  0  0  0  0  0999 V2000
   24.9062  -10.3951  -22.4227 C   0  0  0  0  0  0  0  0  0  0  0  0
   23.9758  -10.3208  -21.2334 C   0  0  1  0  0  0  0  0  0  0  0  0
   22.6518  -10.1883  -21.6260 O   0  0  0  0  0  0  0  0  0  0  0  0
   24.1594  -11.5462  -20.3345 C   0  0  2  0  0  0  0  0  0  0  0  0
   23.7063  -12.7326  -21.0685 N   0  0  0  0  0  0  0  0  0  0  0  0
   23.3130  -11.4188  -19.1198 C   0  0  0  0  0  0  0  0  0  0  0  0
   22.1504  -11.9271  -19.0815 O   0  0  0  0  0  0  0  0  0  0  0  0
   24.7862  -12.9439  -14.4949 C   0  0  0  0  0  0  0  0  0  0  0  0
   23.9120  -12.5008  -15.6250 C   0  0  0  0  0  0  0  0  0  0  0  0
   23.6496  -10.9881  -15.5698 C   0  0  2  0  0  0  0  0  0  0  0  0
   23.0681  -10.6074  -14.2522 C   0  0  0  0  0  0  0  0  0  0  0  0
   22.8779  -10.5403  -16.7795 C   0  0  2  0  0  0  0  0  0  0  0  0
   23.7385  -10.7386  -17.9541 N   0  0  0  0  0  0  0  0  0  0  0  0
   22.4802   -9.1215  -16.7606 C   0  0  0  0  0  0  0  0  0  0  0  0
   23.3788   -8.2116  -16.7878 O   0  0  0  0  0  0  0  0  0  0  0  0
   21.1514   -8.6518  -16.7165 N   0  0  0  0  0  0  0  0  0  0  0  0
   20.8443   -7.2313  -16.7522 C   0  0  1  0  0  0  0  0  0  0  0  0
   19.5121   -7.0318  -17.4369 C   0  0  0  0  0  0  0  0  0  0  0  0
   19.1249   -5.6095  -17.4468 C   0  0  0  0  0  0  0  0  0  0  0  0
   18.2805   -4.9573  -16.5726 C   0  0  0  0  0  0  0  0  0  0  0  0
   18.1634   -3.6636  -16.9182 N   0  0  0  0  0  0  0  0  0  0  0  0
   18.9263   -3.4933  -18.0028 C   0  0  0  0  0  0  0  0  0  0  0  0
   19.5098   -4.6557  -18.3308 N   0  0  0  0  0  0  0  0  0  0  0  0
   20.8417   -6.6886  -15.3855 C   0  0  0  0  0  0  0  0  0  0  0  0
   21.2376   -5.4067  -15.0382 O   0  0  0  0  0  0  0  0  0  0  0  0
   20.4578   -7.4117  -14.4200 O   0  0  0  0  0  0  0  0  0  0  0  0
  2  1  1  6
  3  2  1  0
  4  2  1  0
  4  6  1  0
  4  5  1  6
  6 13  1  0
  6  7  2  0
  9  8  1  0
 10  9  1  0
 10 11  1  1
 12 10  1  0
 12 13  1  6
 14 12  1  0
 14 15  2  0
 16 14  1  0
 17 16  1  0
 17 18  1  1
 18 19  1  0
 19 20  2  0
 19 23  1  0
 20 21  1  0
 21 22  1  0
 23 22  2  0
 24 17  1  0
 25 24  1  0
 26 24  2  0
M  END
$$$$
