GSF.pdb
     RDKit          3D

 22 22  0  0  1  0  0  0  0  0999 V2000
   34.3182  -28.3444    7.7539 N   0  0  0  0  0  0  0  0  0  0  0  0
   34.7148  -27.4054    8.7576 C   0  0  0  0  0  0  0  0  0  0  0  0
   33.6240  -26.5329    9.2028 C   0  0  0  0  0  0  0  0  0  0  0  0
   32.5106  -27.0531    9.4727 O   0  0  0  0  0  0  0  0  0  0  0  0
   32.4900  -24.2137   12.6503 O   0  0  0  0  0  0  0  0  0  0  0  0
   33.3508  -24.8976   11.7714 C   0  0  0  0  0  0  0  0  0  0  0  0
   33.0124  -24.4368   10.3768 C   0  0  2  0  0  0  0  0  0  0  0  0
   33.7299  -25.1272    9.3547 N   0  0  0  0  0  0  0  0  0  0  0  0
   33.3181  -22.9588   10.3386 C   0  0  0  0  0  0  0  0  0  0  0  0
   34.5067  -22.5800   10.4825 O   0  0  0  0  0  0  0  0  0  0  0  0
   32.2647  -22.0306   10.1424 N   0  0  0  0  0  0  0  0  0  0  0  0
   32.4535  -20.6155    9.9108 C   0  0  1  0  0  0  0  0  0  0  0  0
   31.6341  -20.0982    8.7868 C   0  0  0  0  0  0  0  0  0  0  0  0
   31.8718  -20.8138    7.5334 C   0  0  0  0  0  0  0  0  0  0  0  0
   33.1534  -21.3058    7.2599 C   0  0  0  0  0  0  0  0  0  0  0  0
   33.4181  -22.0031    6.1028 C   0  0  0  0  0  0  0  0  0  0  0  0
   32.3903  -22.2106    5.2097 C   0  0  0  0  0  0  0  0  0  0  0  0
   31.1109  -21.7331    5.4575 C   0  0  0  0  0  0  0  0  0  0  0  0
   30.8649  -21.0387    6.6186 C   0  0  0  0  0  0  0  0  0  0  0  0
   32.4201  -19.8025   11.1474 C   0  0  0  0  0  0  0  0  0  0  0  0
   32.1246  -20.3548   12.2336 O   0  0  0  0  0  0  0  0  0  0  0  0
   32.6941  -18.4497   11.2223 O   0  0  0  0  0  0  0  0  0  0  0  0
  1  2  1  0
  2  3  1  0
  3  4  2  0
  3  8  1  0
  5  6  1  0
  7  9  1  0
  7  6  1  1
  8  7  1  0
  9 10  2  0
 11 12  1  0
 11  9  1  0
 12 13  1  6
 13 14  1  0
 14 19  2  0
 15 16  2  0
 15 14  1  0
 16 17  1  0
 17 18  2  0
 19 18  1  0
 20 22  1  0
 20 12  1  0
 21 20  2  0
M  END
$$$$
