GSF.pdb
     RDKit          3D

 22 22  0  0  1  0  0  0  0  0999 V2000
   38.2604   -0.5585   -0.7816 N   0  0  0  0  0  0  0  0  0  0  0  0
   37.9945   -0.8619   -2.1541 C   0  0  0  0  0  0  0  0  0  0  0  0
   37.2831    0.2081   -2.8601 C   0  0  0  0  0  0  0  0  0  0  0  0
   36.4026    0.8564   -2.2378 O   0  0  0  0  0  0  0  0  0  0  0  0
   37.6758    0.8695   -6.8674 O   0  0  0  0  0  0  0  0  0  0  0  0
   37.3079    2.0370   -6.1727 C   0  0  0  0  0  0  0  0  0  0  0  0
   36.7518    1.6000   -4.8416 C   0  0  2  0  0  0  0  0  0  0  0  0
   37.5153    0.5729   -4.2104 N   0  0  0  0  0  0  0  0  0  0  0  0
   35.3429    1.1292   -5.1107 C   0  0  0  0  0  0  0  0  0  0  0  0
   35.1577   -0.0587   -5.4736 O   0  0  0  0  0  0  0  0  0  0  0  0
   34.2605    2.0306   -4.9501 N   0  0  0  0  0  0  0  0  0  0  0  0
   32.8731    1.6925   -5.1793 C   0  0  1  0  0  0  0  0  0  0  0  0
   32.0446    1.7823   -3.9513 C   0  0  0  0  0  0  0  0  0  0  0  0
   32.4113    0.7871   -2.9440 C   0  0  0  0  0  0  0  0  0  0  0  0
   33.4939    1.0420   -2.0940 C   0  0  0  0  0  0  0  0  0  0  0  0
   33.8617    0.1436   -1.1179 C   0  0  0  0  0  0  0  0  0  0  0  0
   33.1393   -1.0221   -0.9905 C   0  0  0  0  0  0  0  0  0  0  0  0
   32.0619   -1.2984   -1.8207 C   0  0  0  0  0  0  0  0  0  0  0  0
   31.7088   -0.3893   -2.7901 C   0  0  0  0  0  0  0  0  0  0  0  0
   32.2970    2.3350   -6.3821 C   0  0  0  0  0  0  0  0  0  0  0  0
   32.9682    3.2001   -6.9932 O   0  0  0  0  0  0  0  0  0  0  0  0
   31.0507    2.0627   -6.9144 O   0  0  0  0  0  0  0  0  0  0  0  0
  1  2  1  0
  2  3  1  0
  3  4  2  0
  3  8  1  0
  5  6  1  0
  7  9  1  0
  7  6  1  6
  8  7  1  0
  9 10  2  0
 11 12  1  0
 11  9  1  0
 12 13  1  1
 13 14  1  0
 14 19  2  0
 15 16  2  0
 15 14  1  0
 16 17  1  0
 17 18  2  0
 19 18  1  0
 20 22  1  0
 20 12  1  0
 21 20  2  0
M  END
$$$$
