GSF.pdb
     RDKit          3D

 22 22  0  0  1  0  0  0  0  0999 V2000
   28.0074  -19.4765  -15.4016 N   0  0  0  0  0  0  0  0  0  0  0  0
   27.4402  -20.5036  -14.5833 C   0  0  0  0  0  0  0  0  0  0  0  0
   26.9421  -20.0134  -13.2945 C   0  0  0  0  0  0  0  0  0  0  0  0
   27.6820  -19.2583  -12.6124 O   0  0  0  0  0  0  0  0  0  0  0  0
   23.2334  -20.9486  -11.8038 O   0  0  0  0  0  0  0  0  0  0  0  0
   23.7919  -19.7720  -11.2700 C   0  0  0  0  0  0  0  0  0  0  0  0
   25.2844  -19.8696  -11.4568 C   0  0  2  0  0  0  0  0  0  0  0  0
   25.6717  -20.3303  -12.7506 N   0  0  0  0  0  0  0  0  0  0  0  0
   25.7799  -20.8098  -10.3846 C   0  0  0  0  0  0  0  0  0  0  0  0
   25.9538  -22.0203  -10.6705 O   0  0  0  0  0  0  0  0  0  0  0  0
   26.0385  -20.3131   -9.0822 N   0  0  0  0  0  0  0  0  0  0  0  0
   26.4363  -21.1318   -7.9582 C   0  0  1  0  0  0  0  0  0  0  0  0
   27.8717  -20.9825   -7.6122 C   0  0  0  0  0  0  0  0  0  0  0  0
   28.0874  -20.1572   -6.4240 C   0  0  0  0  0  0  0  0  0  0  0  0
   28.1835  -18.7678   -6.5652 C   0  0  0  0  0  0  0  0  0  0  0  0
   28.3654  -17.9504   -5.4726 C   0  0  0  0  0  0  0  0  0  0  0  0
   28.4520  -18.5284   -4.2255 C   0  0  0  0  0  0  0  0  0  0  0  0
   28.3598  -19.9032   -4.0587 C   0  0  0  0  0  0  0  0  0  0  0  0
   28.1782  -20.7042   -5.1616 C   0  0  0  0  0  0  0  0  0  0  0  0
   25.4977  -21.0664   -6.8153 C   0  0  0  0  0  0  0  0  0  0  0  0
   24.7086  -20.0959   -6.7278 O   0  0  0  0  0  0  0  0  0  0  0  0
   25.4035  -22.0037   -5.8037 O   0  0  0  0  0  0  0  0  0  0  0  0
  1  2  1  0
  2  3  1  0
  3  4  2  0
  3  8  1  0
  5  6  1  0
  7  9  1  0
  7  6  1  6
  8  7  1  0
  9 10  2  0
 11 12  1  0
 11  9  1  0
 12 13  1  1
 13 14  1  0
 14 19  2  0
 15 16  2  0
 15 14  1  0
 16 17  1  0
 17 18  2  0
 19 18  1  0
 20 22  1  0
 20 12  1  0
 21 20  2  0
M  END
$$$$
