GSF.pdb
     RDKit          3D

 22 22  0  0  1  0  0  0  0  0999 V2000
   19.8767  -12.1288  -17.6743 N   0  0  0  0  0  0  0  0  0  0  0  0
   21.0535  -11.6625  -18.3408 C   0  0  0  0  0  0  0  0  0  0  0  0
   21.2563  -10.2155  -18.2210 C   0  0  0  0  0  0  0  0  0  0  0  0
   22.4340   -9.7729  -18.2085 O   0  0  0  0  0  0  0  0  0  0  0  0
   18.1885   -7.4580  -17.8605 O   0  0  0  0  0  0  0  0  0  0  0  0
   19.3295   -7.0116  -18.5532 C   0  0  0  0  0  0  0  0  0  0  0  0
   20.4849   -7.8629  -18.0924 C   0  0  2  0  0  0  0  0  0  0  0  0
   20.2111   -9.2631  -18.1165 N   0  0  0  0  0  0  0  0  0  0  0  0
   20.8085   -7.4061  -16.6904 C   0  0  0  0  0  0  0  0  0  0  0  0
   20.2326   -7.9610  -15.7221 O   0  0  0  0  0  0  0  0  0  0  0  0
   21.7507   -6.3654  -16.4927 N   0  0  0  0  0  0  0  0  0  0  0  0
   22.2289   -5.9293  -15.1992 C   0  0  1  0  0  0  0  0  0  0  0  0
   23.6223   -6.3583  -14.9221 C   0  0  0  0  0  0  0  0  0  0  0  0
   24.5851   -5.8177  -15.8815 C   0  0  0  0  0  0  0  0  0  0  0  0
   25.0857   -4.5243  -15.6921 C   0  0  0  0  0  0  0  0  0  0  0  0
   26.0090   -3.9826  -16.5578 C   0  0  0  0  0  0  0  0  0  0  0  0
   26.4362   -4.7424  -17.6241 C   0  0  0  0  0  0  0  0  0  0  0  0
   25.9553   -6.0274  -17.8339 C   0  0  0  0  0  0  0  0  0  0  0  0
   25.0334   -6.5522  -16.9589 C   0  0  0  0  0  0  0  0  0  0  0  0
   21.9315   -4.5093  -14.9049 C   0  0  0  0  0  0  0  0  0  0  0  0
   21.5368   -3.7631  -15.8320 O   0  0  0  0  0  0  0  0  0  0  0  0
   22.0493   -3.9082  -13.6658 O   0  0  0  0  0  0  0  0  0  0  0  0
  1  2  1  0
  2  3  1  0
  3  4  2  0
  3  8  1  0
  5  6  1  0
  7  9  1  0
  7  6  1  1
  8  7  1  0
  9 10  2  0
 11 12  1  0
 11  9  1  0
 12 13  1  6
 13 14  1  0
 14 19  2  0
 15 16  2  0
 15 14  1  0
 16 17  1  0
 17 18  2  0
 19 18  1  0
 20 22  1  0
 20 12  1  0
 21 20  2  0
M  END
$$$$
