GSF.pdb
     RDKit          3D

 22 22  0  0  1  0  0  0  0  0999 V2000
   24.4209  -20.7809   -9.3014 N   0  0  0  0  0  0  0  0  0  0  0  0
   25.0113  -21.4412  -10.4248 C   0  0  0  0  0  0  0  0  0  0  0  0
   25.4110  -20.5236  -11.4960 C   0  0  0  0  0  0  0  0  0  0  0  0
   24.8744  -19.3866  -11.5446 O   0  0  0  0  0  0  0  0  0  0  0  0
   27.8427  -21.5938  -14.6625 O   0  0  0  0  0  0  0  0  0  0  0  0
   27.9061  -20.2302  -14.3194 C   0  0  0  0  0  0  0  0  0  0  0  0
   26.6467  -19.9098  -13.5557 C   0  0  2  0  0  0  0  0  0  0  0  0
   26.3702  -20.8244  -12.4959 N   0  0  0  0  0  0  0  0  0  0  0  0
   25.5291  -19.9145  -14.5706 C   0  0  0  0  0  0  0  0  0  0  0  0
   24.7623  -20.9076  -14.6257 O   0  0  0  0  0  0  0  0  0  0  0  0
   25.3658  -18.8051  -15.4379 N   0  0  0  0  0  0  0  0  0  0  0  0
   24.3136  -18.6843  -16.4228 C   0  0  1  0  0  0  0  0  0  0  0  0
   23.2262  -17.7675  -15.9991 C   0  0  0  0  0  0  0  0  0  0  0  0
   22.1641  -17.6454  -16.9974 C   0  0  0  0  0  0  0  0  0  0  0  0
   21.1405  -18.5997  -17.0264 C   0  0  0  0  0  0  0  0  0  0  0  0
   20.1097  -18.5131  -17.9347 C   0  0  0  0  0  0  0  0  0  0  0  0
   20.1023  -17.4609  -18.8235 C   0  0  0  0  0  0  0  0  0  0  0  0
   21.1054  -16.5017  -18.8152 C   0  0  0  0  0  0  0  0  0  0  0  0
   22.1272  -16.6043  -17.9008 C   0  0  0  0  0  0  0  0  0  0  0  0
   24.8124  -18.4829  -17.8019 C   0  0  0  0  0  0  0  0  0  0  0  0
   25.8134  -17.7512  -17.9886 O   0  0  0  0  0  0  0  0  0  0  0  0
   24.2639  -19.0434  -18.9402 O   0  0  0  0  0  0  0  0  0  0  0  0
  1  2  1  0
  2  3  1  0
  3  4  2  0
  3  8  1  0
  5  6  1  0
  7  9  1  0
  7  6  1  6
  8  7  1  0
  9 10  2  0
 11 12  1  0
 11  9  1  0
 12 13  1  1
 13 14  1  0
 14 19  2  0
 15 16  2  0
 15 14  1  0
 16 17  1  0
 17 18  2  0
 19 18  1  0
 20 22  1  0
 20 12  1  0
 21 20  2  0
M  END
$$$$
