GSF.pdb
     RDKit          3D

 22 22  0  0  1  0  0  0  0  0999 V2000
   22.8429  -13.0095  -17.2840 N   0  0  0  0  0  0  0  0  0  0  0  0
   21.6659  -12.2927  -17.6677 C   0  0  0  0  0  0  0  0  0  0  0  0
   21.8942  -10.8571  -17.8585 C   0  0  0  0  0  0  0  0  0  0  0  0
   23.0611  -10.4098  -17.7129 O   0  0  0  0  0  0  0  0  0  0  0  0
   18.9303   -8.2391  -18.9359 O   0  0  0  0  0  0  0  0  0  0  0  0
   20.2224   -7.8410  -19.3270 C   0  0  0  0  0  0  0  0  0  0  0  0
   21.1945   -8.5448  -18.4150 C   0  0  2  0  0  0  0  0  0  0  0  0
   20.8853   -9.9211  -18.1997 N   0  0  0  0  0  0  0  0  0  0  0  0
   21.1732   -7.7824  -17.1122 C   0  0  0  0  0  0  0  0  0  0  0  0
   20.3502   -8.1179  -16.2249 O   0  0  0  0  0  0  0  0  0  0  0  0
   22.0768   -6.7081  -16.9145 N   0  0  0  0  0  0  0  0  0  0  0  0
   22.1245   -5.8873  -15.7246 C   0  0  1  0  0  0  0  0  0  0  0  0
   23.4356   -5.9473  -15.0318 C   0  0  0  0  0  0  0  0  0  0  0  0
   23.8904   -7.3168  -14.7930 C   0  0  0  0  0  0  0  0  0  0  0  0
   23.2843   -8.0716  -13.7818 C   0  0  0  0  0  0  0  0  0  0  0  0
   23.6656   -9.3712  -13.5355 C   0  0  0  0  0  0  0  0  0  0  0  0
   24.6636   -9.9220  -14.3086 C   0  0  0  0  0  0  0  0  0  0  0  0
   25.2803   -9.1948  -15.3172 C   0  0  0  0  0  0  0  0  0  0  0  0
   24.8864   -7.8978  -15.5490 C   0  0  0  0  0  0  0  0  0  0  0  0
   21.5708   -4.5283  -15.9189 C   0  0  0  0  0  0  0  0  0  0  0  0
   21.3297   -4.1276  -17.0824 O   0  0  0  0  0  0  0  0  0  0  0  0
   21.2831   -3.6303  -14.9082 O   0  0  0  0  0  0  0  0  0  0  0  0
  1  2  1  0
  2  3  1  0
  3  4  2  0
  3  8  1  0
  5  6  1  0
  7  9  1  0
  7  6  1  6
  8  7  1  0
  9 10  2  0
 11 12  1  0
 11  9  1  0
 12 13  1  6
 13 14  1  0
 14 19  2  0
 15 16  2  0
 15 14  1  0
 16 17  1  0
 17 18  2  0
 19 18  1  0
 20 22  1  0
 20 12  1  0
 21 20  2  0
M  END
$$$$
