GSF.pdb
     RDKit          3D

 22 22  0  0  1  0  0  0  0  0999 V2000
   28.2861  -21.2081  -15.7360 N   0  0  0  0  0  0  0  0  0  0  0  0
   27.0369  -21.6945  -15.2367 C   0  0  0  0  0  0  0  0  0  0  0  0
   26.5139  -20.9115  -14.1129 C   0  0  0  0  0  0  0  0  0  0  0  0
   26.8007  -19.6882  -14.0480 O   0  0  0  0  0  0  0  0  0  0  0  0
   23.3265  -22.0133  -11.9189 O   0  0  0  0  0  0  0  0  0  0  0  0
   23.6923  -20.6544  -11.8936 C   0  0  0  0  0  0  0  0  0  0  0  0
   25.1915  -20.5995  -12.0393 C   0  0  2  0  0  0  0  0  0  0  0  0
   25.6977  -21.4358  -13.0788 N   0  0  0  0  0  0  0  0  0  0  0  0
   25.7574  -21.0093  -10.7010 C   0  0  0  0  0  0  0  0  0  0  0  0
   25.8883  -22.2318  -10.4449 O   0  0  0  0  0  0  0  0  0  0  0  0
   26.1288  -20.0133   -9.7630 N   0  0  0  0  0  0  0  0  0  0  0  0
   26.6357  -20.2870   -8.4363 C   0  0  1  0  0  0  0  0  0  0  0  0
   27.4857  -19.1931   -7.9040 C   0  0  0  0  0  0  0  0  0  0  0  0
   28.0575  -19.5034   -6.5940 C   0  0  0  0  0  0  0  0  0  0  0  0
   29.1317  -20.3972   -6.5116 C   0  0  0  0  0  0  0  0  0  0  0  0
   29.7147  -20.7026   -5.3024 C   0  0  0  0  0  0  0  0  0  0  0  0
   29.2183  -20.1080   -4.1636 C   0  0  0  0  0  0  0  0  0  0  0  0
   28.1542  -19.2185   -4.2185 C   0  0  0  0  0  0  0  0  0  0  0  0
   27.5843  -18.9252   -5.4351 C   0  0  0  0  0  0  0  0  0  0  0  0
   25.6086  -20.8038   -7.5039 C   0  0  0  0  0  0  0  0  0  0  0  0
   24.4473  -20.3334   -7.5527 O   0  0  0  0  0  0  0  0  0  0  0  0
   25.8131  -21.7883   -6.5553 O   0  0  0  0  0  0  0  0  0  0  0  0
  1  2  1  0
  2  3  1  0
  3  4  2  0
  3  8  1  0
  5  6  1  0
  7  9  1  0
  7  6  1  1
  8  7  1  0
  9 10  2  0
 11 12  1  0
 11  9  1  0
 12 13  1  1
 13 14  1  0
 14 19  2  0
 15 16  2  0
 15 14  1  0
 16 17  1  0
 17 18  2  0
 19 18  1  0
 20 22  1  0
 20 12  1  0
 21 20  2  0
M  END
$$$$
