GSF.pdb
     RDKit          3D

 22 22  0  0  1  0  0  0  0  0999 V2000
   15.2226  -12.6216  -16.8725 N   0  0  0  0  0  0  0  0  0  0  0  0
   14.6689  -11.3891  -16.4024 C   0  0  0  0  0  0  0  0  0  0  0  0
   15.6375  -10.5486  -15.6920 C   0  0  0  0  0  0  0  0  0  0  0  0
   16.2077  -11.0185  -14.6737 O   0  0  0  0  0  0  0  0  0  0  0  0
   16.2179   -6.5201  -16.4947 O   0  0  0  0  0  0  0  0  0  0  0  0
   17.3254   -7.1732  -15.9220 C   0  0  0  0  0  0  0  0  0  0  0  0
   16.8009   -8.4078  -15.2345 C   0  0  2  0  0  0  0  0  0  0  0  0
   15.9855   -9.2274  -16.0708 N   0  0  0  0  0  0  0  0  0  0  0  0
   16.0192   -7.9207  -14.0384 C   0  0  0  0  0  0  0  0  0  0  0  0
   14.7726   -8.0720  -14.0242 O   0  0  0  0  0  0  0  0  0  0  0  0
   16.7016   -7.3049  -12.9591 N   0  0  0  0  0  0  0  0  0  0  0  0
   16.0520   -6.7264  -11.8035 C   0  0  1  0  0  0  0  0  0  0  0  0
   15.1393   -7.6743  -11.1172 C   0  0  0  0  0  0  0  0  0  0  0  0
   14.5551   -7.1183   -9.8969 C   0  0  0  0  0  0  0  0  0  0  0  0
   15.1358   -7.4239   -8.6604 C   0  0  0  0  0  0  0  0  0  0  0  0
   14.6324   -6.9065   -7.4882 C   0  0  0  0  0  0  0  0  0  0  0  0
   13.5366   -6.0747   -7.5531 C   0  0  0  0  0  0  0  0  0  0  0  0
   12.9425   -5.7563   -8.7664 C   0  0  0  0  0  0  0  0  0  0  0  0
   13.4589   -6.2824   -9.9273 C   0  0  0  0  0  0  0  0  0  0  0  0
   16.9728   -5.9781  -10.9183 C   0  0  0  0  0  0  0  0  0  0  0  0
   16.4996   -5.1476  -10.1068 O   0  0  0  0  0  0  0  0  0  0  0  0
   18.3484   -6.1126  -10.8987 O   0  0  0  0  0  0  0  0  0  0  0  0
  1  2  1  0
  2  3  1  0
  3  4  2  0
  3  8  1  0
  5  6  1  0
  7  9  1  0
  7  6  1  6
  8  7  1  0
  9 10  2  0
 11 12  1  0
 11  9  1  0
 12 13  1  1
 13 14  1  0
 14 19  2  0
 15 16  2  0
 15 14  1  0
 16 17  1  0
 17 18  2  0
 19 18  1  0
 20 22  1  0
 20 12  1  0
 21 20  2  0
M  END
$$$$
