GSF.pdb
     RDKit          3D

 22 22  0  0  1  0  0  0  0  0999 V2000
   29.0347  -23.5490  -17.1608 N   0  0  0  0  0  0  0  0  0  0  0  0
   27.7925  -23.8266  -16.5079 C   0  0  0  0  0  0  0  0  0  0  0  0
   27.2940  -22.7069  -15.7035 C   0  0  0  0  0  0  0  0  0  0  0  0
   28.0937  -21.7860  -15.3947 O   0  0  0  0  0  0  0  0  0  0  0  0
   23.5363  -22.5731  -13.9871 O   0  0  0  0  0  0  0  0  0  0  0  0
   24.0617  -21.3134  -14.3310 C   0  0  0  0  0  0  0  0  0  0  0  0
   25.5568  -21.4740  -14.4355 C   0  0  2  0  0  0  0  0  0  0  0  0
   25.9598  -22.5811  -15.2404 N   0  0  0  0  0  0  0  0  0  0  0  0
   26.0609  -21.6304  -13.0211 C   0  0  0  0  0  0  0  0  0  0  0  0
   27.0262  -22.4031  -12.8018 O   0  0  0  0  0  0  0  0  0  0  0  0
   25.4397  -20.9069  -11.9721 N   0  0  0  0  0  0  0  0  0  0  0  0
   25.9128  -20.8784  -10.6056 C   0  0  1  0  0  0  0  0  0  0  0  0
   27.1828  -20.1269  -10.4480 C   0  0  0  0  0  0  0  0  0  0  0  0
   27.5984  -19.9991   -9.0514 C   0  0  0  0  0  0  0  0  0  0  0  0
   28.6240  -20.8188   -8.5659 C   0  0  0  0  0  0  0  0  0  0  0  0
   29.0617  -20.7188   -7.2645 C   0  0  0  0  0  0  0  0  0  0  0  0
   28.4675  -19.7893   -6.4399 C   0  0  0  0  0  0  0  0  0  0  0  0
   27.4488  -18.9649   -6.8970 C   0  0  0  0  0  0  0  0  0  0  0  0
   27.0244  -19.0788   -8.2001 C   0  0  0  0  0  0  0  0  0  0  0  0
   24.8574  -20.5553   -9.6192 C   0  0  0  0  0  0  0  0  0  0  0  0
   24.8766  -21.1167   -8.4982 O   0  0  0  0  0  0  0  0  0  0  0  0
   23.8203  -19.6641   -9.8212 O   0  0  0  0  0  0  0  0  0  0  0  0
  1  2  1  0
  2  3  1  0
  3  4  2  0
  3  8  1  0
  5  6  1  0
  7  9  1  0
  7  6  1  1
  8  7  1  0
  9 10  2  0
 11 12  1  0
 11  9  1  0
 12 13  1  6
 13 14  1  0
 14 19  2  0
 15 16  2  0
 15 14  1  0
 16 17  1  0
 17 18  2  0
 19 18  1  0
 20 22  1  0
 20 12  1  0
 21 20  2  0
M  END
$$$$
