GSF.pdb
     RDKit          3D

 22 22  0  0  1  0  0  0  0  0999 V2000
   29.9421  -23.5564  -17.0855 N   0  0  0  0  0  0  0  0  0  0  0  0
   28.5629  -23.4960  -17.4604 C   0  0  0  0  0  0  0  0  0  0  0  0
   27.7880  -22.5287  -16.6774 C   0  0  0  0  0  0  0  0  0  0  0  0
   27.8700  -22.5682  -15.4226 O   0  0  0  0  0  0  0  0  0  0  0  0
   24.9488  -20.0142  -18.2835 O   0  0  0  0  0  0  0  0  0  0  0  0
   25.5950  -19.4837  -17.1512 C   0  0  0  0  0  0  0  0  0  0  0  0
   26.1987  -20.6457  -16.4045 C   0  0  2  0  0  0  0  0  0  0  0  0
   26.9410  -21.5377  -17.2349 N   0  0  0  0  0  0  0  0  0  0  0  0
   25.0459  -21.3641  -15.7455 C   0  0  0  0  0  0  0  0  0  0  0  0
   24.4455  -22.2637  -16.3839 O   0  0  0  0  0  0  0  0  0  0  0  0
   24.6639  -21.0129  -14.4263 N   0  0  0  0  0  0  0  0  0  0  0  0
   23.5836  -21.6360  -13.6938 C   0  0  1  0  0  0  0  0  0  0  0  0
   24.0592  -22.5207  -12.6013 C   0  0  0  0  0  0  0  0  0  0  0  0
   24.7002  -21.7845  -11.5119 C   0  0  0  0  0  0  0  0  0  0  0  0
   26.0940  -21.8235  -11.3881 C   0  0  0  0  0  0  0  0  0  0  0  0
   26.7415  -21.1294  -10.3911 C   0  0  0  0  0  0  0  0  0  0  0  0
   25.9873  -20.3884   -9.5084 C   0  0  0  0  0  0  0  0  0  0  0  0
   24.6041  -20.3334   -9.6097 C   0  0  0  0  0  0  0  0  0  0  0  0
   23.9743  -21.0332  -10.6120 C   0  0  0  0  0  0  0  0  0  0  0  0
   22.4990  -20.6985  -13.3248 C   0  0  0  0  0  0  0  0  0  0  0  0
   22.7201  -19.4647  -13.3595 O   0  0  0  0  0  0  0  0  0  0  0  0
   21.2244  -21.0644  -12.9348 O   0  0  0  0  0  0  0  0  0  0  0  0
  1  2  1  0
  2  3  1  0
  3  4  2  0
  3  8  1  0
  5  6  1  0
  7  9  1  0
  7  6  1  6
  8  7  1  0
  9 10  2  0
 11 12  1  0
 11  9  1  0
 12 13  1  1
 13 14  1  0
 14 19  2  0
 15 16  2  0
 15 14  1  0
 16 17  1  0
 17 18  2  0
 19 18  1  0
 20 22  1  0
 20 12  1  0
 21 20  2  0
M  END
$$$$
