GSF.pdb
     RDKit          3D

 22 22  0  0  1  0  0  0  0  0999 V2000
   12.7066   -9.0472   -8.5802 N   0  0  0  0  0  0  0  0  0  0  0  0
   14.0207   -8.6193   -8.2108 C   0  0  0  0  0  0  0  0  0  0  0  0
   14.6094   -7.6642   -9.1545 C   0  0  0  0  0  0  0  0  0  0  0  0
   13.8982   -7.2394  -10.1015 O   0  0  0  0  0  0  0  0  0  0  0  0
   16.8932   -4.6387   -8.4905 O   0  0  0  0  0  0  0  0  0  0  0  0
   16.3081   -4.8423   -9.7544 C   0  0  0  0  0  0  0  0  0  0  0  0
   16.4645   -6.3055  -10.0809 C   0  0  2  0  0  0  0  0  0  0  0  0
   15.9384   -7.1759   -9.0801 N   0  0  0  0  0  0  0  0  0  0  0  0
   17.9448   -6.5372  -10.2658 C   0  0  0  0  0  0  0  0  0  0  0  0
   18.5540   -7.2634   -9.4419 O   0  0  0  0  0  0  0  0  0  0  0  0
   18.6169   -5.9350  -11.3591 N   0  0  0  0  0  0  0  0  0  0  0  0
   19.8609   -6.4146  -11.9197 C   0  0  1  0  0  0  0  0  0  0  0  0
   19.7920   -7.8319  -12.3544 C   0  0  0  0  0  0  0  0  0  0  0  0
   21.0426   -8.3065  -12.9463 C   0  0  0  0  0  0  0  0  0  0  0  0
   21.2592   -8.1311  -14.3181 C   0  0  0  0  0  0  0  0  0  0  0  0
   22.4298   -8.5433  -14.9141 C   0  0  0  0  0  0  0  0  0  0  0  0
   23.3939   -9.1371  -14.1300 C   0  0  0  0  0  0  0  0  0  0  0  0
   23.2035   -9.3225  -12.7677 C   0  0  0  0  0  0  0  0  0  0  0  0
   22.0279   -8.9045  -12.1895 C   0  0  0  0  0  0  0  0  0  0  0  0
   20.4718   -5.4811  -12.8927 C   0  0  0  0  0  0  0  0  0  0  0  0
   19.7490   -4.9572  -13.7732 O   0  0  0  0  0  0  0  0  0  0  0  0
   21.8054   -5.1186  -12.9237 O   0  0  0  0  0  0  0  0  0  0  0  0
  1  2  1  0
  2  3  1  0
  3  4  2  0
  3  8  1  0
  5  6  1  0
  7  9  1  0
  7  6  1  1
  8  7  1  0
  9 10  2  0
 11 12  1  0
 11  9  1  0
 12 13  1  6
 13 14  1  0
 14 19  2  0
 15 16  2  0
 15 14  1  0
 16 17  1  0
 17 18  2  0
 19 18  1  0
 20 22  1  0
 20 12  1  0
 21 20  2  0
M  END
$$$$
