FYA.pdb
     RDKit          3D

 29 30  0  0  1  0  0  0  0  0999 V2000
   22.0918  -26.1135  -14.3543 N   0  0  0  0  0  0  0  0  0  0  0  0
   21.1469  -25.0682  -14.7809 C   0  0  1  0  0  0  0  0  0  0  0  0
   20.1605  -25.7829  -15.6756 C   0  0  0  0  0  0  0  0  0  0  0  0
   20.6788  -26.1290  -16.9997 C   0  0  0  0  0  0  0  0  0  0  0  0
   20.8921  -27.4381  -17.3931 C   0  0  0  0  0  0  0  0  0  0  0  0
   21.3785  -27.7295  -18.6549 C   0  0  0  0  0  0  0  0  0  0  0  0
   21.6424  -26.6733  -19.5030 C   0  0  0  0  0  0  0  0  0  0  0  0
   21.4320  -25.3578  -19.1177 C   0  0  0  0  0  0  0  0  0  0  0  0
   20.9518  -25.0712  -17.8723 C   0  0  0  0  0  0  0  0  0  0  0  0
   20.4257  -24.4949  -13.6438 C   0  0  0  0  0  0  0  0  0  0  0  0
   20.6116  -24.9261  -12.4773 O   0  0  0  0  0  0  0  0  0  0  0  0
   24.2878  -19.5343  -11.8771 O   0  0  0  0  0  0  0  0  0  0  0  0
   22.9715  -19.9670  -12.1087 C   0  0  0  0  0  0  0  0  0  0  0  0
   22.1005  -20.0139  -11.0491 C   0  0  0  0  0  0  0  0  0  0  0  0
   20.7917  -20.4381  -11.2485 C   0  0  0  0  0  0  0  0  0  0  0  0
   20.3520  -20.8142  -12.4987 C   0  0  0  0  0  0  0  0  0  0  0  0
   18.9636  -21.2671  -12.7262 C   0  0  0  0  0  0  0  0  0  0  0  0
   18.8494  -22.7958  -12.6405 C   0  0  2  0  0  0  0  0  0  0  0  0
   19.4775  -23.4288  -13.7578 N   0  0  0  0  0  0  0  0  0  0  0  0
   17.4213  -23.1805  -12.4811 C   0  0  0  0  0  0  0  0  0  0  0  0
   16.7399  -22.7146  -11.5313 O   0  0  0  0  0  0  0  0  0  0  0  0
   21.2487  -20.7567  -13.5429 C   0  0  0  0  0  0  0  0  0  0  0  0
   22.5551  -20.3383  -13.3695 C   0  0  0  0  0  0  0  0  0  0  0  0
   15.1985  -25.5183  -12.1370 C   0  0  0  0  0  0  0  0  0  0  0  0
   15.3554  -24.4365  -13.1980 C   0  0  2  0  0  0  0  0  0  0  0  0
   16.7493  -24.0725  -13.3626 N   0  0  0  0  0  0  0  0  0  0  0  0
   14.5125  -23.2548  -12.8835 C   0  0  0  0  0  0  0  0  0  0  0  0
   13.2620  -23.0449  -13.4491 O   0  0  0  0  0  0  0  0  0  0  0  0
   14.9222  -22.3864  -12.0714 O   0  0  0  0  0  0  0  0  0  0  0  0
  2  1  1  1
  3  4  1  0
  3  2  1  0
  4  9  1  0
  4  5  2  0
  5  6  1  0
  6  7  2  0
  8  7  1  0
  9  8  2  0
 10 19  1  0
 10  2  1  0
 11 10  2  0
 12 13  1  0
 13 14  2  0
 14 15  1  0
 16 17  1  0
 16 15  2  0
 18 17  1  6
 18 19  1  0
 20 18  1  0
 21 20  2  0
 22 16  1  0
 23 22  2  0
 23 13  1  0
 25 24  1  1
 25 26  1  0
 26 20  1  0
 27 25  1  0
 27 28  1  0
 29 27  2  0
M  END
$$$$
