FYA.pdb
     RDKit          3D

 29 30  0  0  1  0  0  0  0  0999 V2000
   19.2505  -27.1721  -12.0350 N   0  0  0  0  0  0  0  0  0  0  0  0
   19.6068  -27.6540  -10.6904 C   0  0  1  0  0  0  0  0  0  0  0  0
   21.1011  -27.8743  -10.7439 C   0  0  0  0  0  0  0  0  0  0  0  0
   21.5289  -28.9276  -11.6655 C   0  0  0  0  0  0  0  0  0  0  0  0
   21.7376  -28.6935  -13.0130 C   0  0  0  0  0  0  0  0  0  0  0  0
   22.1471  -29.7118  -13.8550 C   0  0  0  0  0  0  0  0  0  0  0  0
   22.3389  -30.9633  -13.3060 C   0  0  0  0  0  0  0  0  0  0  0  0
   22.1322  -31.2078  -11.9566 C   0  0  0  0  0  0  0  0  0  0  0  0
   21.7282  -30.2022  -11.1264 C   0  0  0  0  0  0  0  0  0  0  0  0
   19.3121  -26.6548   -9.6625 C   0  0  0  0  0  0  0  0  0  0  0  0
   19.5473  -25.4355   -9.8609 O   0  0  0  0  0  0  0  0  0  0  0  0
   12.8300  -22.4111   -6.1998 O   0  0  0  0  0  0  0  0  0  0  0  0
   13.7313  -23.3165   -6.7845 C   0  0  0  0  0  0  0  0  0  0  0  0
   14.8194  -22.8174   -7.4559 C   0  0  0  0  0  0  0  0  0  0  0  0
   15.7279  -23.6896   -8.0445 C   0  0  0  0  0  0  0  0  0  0  0  0
   15.5535  -25.0538   -7.9647 C   0  0  0  0  0  0  0  0  0  0  0  0
   16.5110  -25.9933   -8.5852 C   0  0  0  0  0  0  0  0  0  0  0  0
   17.7703  -26.1639   -7.7234 C   0  0  2  0  0  0  0  0  0  0  0  0
   18.7492  -26.9690   -8.3846 N   0  0  0  0  0  0  0  0  0  0  0  0
   17.3906  -26.6915   -6.3854 C   0  0  0  0  0  0  0  0  0  0  0  0
   16.8760  -27.8346   -6.2757 O   0  0  0  0  0  0  0  0  0  0  0  0
   14.4522  -25.5252   -7.2845 C   0  0  0  0  0  0  0  0  0  0  0  0
   13.5349  -24.6779   -6.6910 C   0  0  0  0  0  0  0  0  0  0  0  0
   15.6733  -26.3540   -3.6864 C   0  0  0  0  0  0  0  0  0  0  0  0
   17.1790  -26.4794   -3.8815 C   0  0  2  0  0  0  0  0  0  0  0  0
   17.5769  -25.9638   -5.1771 N   0  0  0  0  0  0  0  0  0  0  0  0
   17.6269  -27.8821   -3.6873 C   0  0  0  0  0  0  0  0  0  0  0  0
   17.4094  -28.8829   -4.6248 O   0  0  0  0  0  0  0  0  0  0  0  0
   18.2338  -28.2102   -2.6359 O   0  0  0  0  0  0  0  0  0  0  0  0
  2  1  1  6
  3  4  1  0
  3  2  1  0
  4  9  1  0
  4  5  2  0
  5  6  1  0
  6  7  2  0
  8  7  1  0
  9  8  2  0
 10 19  1  0
 10  2  1  0
 11 10  2  0
 12 13  1  0
 13 14  2  0
 14 15  1  0
 16 17  1  0
 16 15  2  0
 18 17  1  6
 18 19  1  0
 20 18  1  0
 21 20  2  0
 22 16  1  0
 23 22  2  0
 23 13  1  0
 25 24  1  6
 25 26  1  0
 26 20  1  0
 27 25  1  0
 27 28  1  0
 29 27  2  0
M  END
$$$$
