FYA.pdb
     RDKit          3D

 29 30  0  0  1  0  0  0  0  0999 V2000
   27.5181  -22.4061  -12.5625 N   0  0  0  0  0  0  0  0  0  0  0  0
   26.6134  -21.7857  -11.5808 C   0  0  1  0  0  0  0  0  0  0  0  0
   27.2874  -20.4865  -11.2037 C   0  0  0  0  0  0  0  0  0  0  0  0
   27.7003  -20.3988   -9.8023 C   0  0  0  0  0  0  0  0  0  0  0  0
   26.8460  -19.9660   -8.8038 C   0  0  0  0  0  0  0  0  0  0  0  0
   27.2682  -19.9003   -7.4881 C   0  0  0  0  0  0  0  0  0  0  0  0
   28.5652  -20.2798   -7.2083 C   0  0  0  0  0  0  0  0  0  0  0  0
   29.4289  -20.7148   -8.2024 C   0  0  0  0  0  0  0  0  0  0  0  0
   29.0114  -20.7793   -9.5005 C   0  0  0  0  0  0  0  0  0  0  0  0
   25.3047  -21.4882  -12.1643 C   0  0  0  0  0  0  0  0  0  0  0  0
   25.0028  -21.8962  -13.3148 O   0  0  0  0  0  0  0  0  0  0  0  0
   16.5047  -20.7246  -11.7224 O   0  0  0  0  0  0  0  0  0  0  0  0
   17.8777  -20.6138  -11.4462 C   0  0  0  0  0  0  0  0  0  0  0  0
   18.5669  -21.7437  -11.0827 C   0  0  0  0  0  0  0  0  0  0  0  0
   19.9264  -21.6641  -10.8036 C   0  0  0  0  0  0  0  0  0  0  0  0
   20.5971  -20.4636  -10.8861 C   0  0  0  0  0  0  0  0  0  0  0  0
   22.0422  -20.3636  -10.5925 C   0  0  0  0  0  0  0  0  0  0  0  0
   22.8915  -20.8537  -11.7740 C   0  0  2  0  0  0  0  0  0  0  0  0
   24.2888  -20.7319  -11.4975 N   0  0  0  0  0  0  0  0  0  0  0  0
   22.4795  -20.1411  -13.0131 C   0  0  0  0  0  0  0  0  0  0  0  0
   22.6227  -18.8944  -13.1068 O   0  0  0  0  0  0  0  0  0  0  0  0
   19.8792  -19.3468  -11.2533 C   0  0  0  0  0  0  0  0  0  0  0  0
   18.5267  -19.4008  -11.5358 C   0  0  0  0  0  0  0  0  0  0  0  0
   21.7930  -20.8851  -16.5854 C   0  0  0  0  0  0  0  0  0  0  0  0
   21.4776  -20.0869  -15.3267 C   0  0  2  0  0  0  0  0  0  0  0  0
   21.9135  -20.7985  -14.1409 N   0  0  0  0  0  0  0  0  0  0  0  0
   20.0343  -19.7426  -15.2613 C   0  0  0  0  0  0  0  0  0  0  0  0
   19.0646  -20.6279  -14.8098 O   0  0  0  0  0  0  0  0  0  0  0  0
   19.6406  -18.6048  -15.6243 O   0  0  0  0  0  0  0  0  0  0  0  0
  2  1  1  6
  3  4  1  0
  3  2  1  0
  4  9  1  0
  4  5  2  0
  5  6  1  0
  6  7  2  0
  8  7  1  0
  9  8  2  0
 10 19  1  0
 10  2  1  0
 11 10  2  0
 12 13  1  0
 13 14  2  0
 14 15  1  0
 16 17  1  0
 16 15  2  0
 18 17  1  1
 18 19  1  0
 20 18  1  0
 21 20  2  0
 22 16  1  0
 23 22  2  0
 23 13  1  0
 25 24  1  6
 25 26  1  0
 26 20  1  0
 27 25  1  0
 27 28  1  0
 29 27  2  0
M  END
$$$$
