FYA.pdb
     RDKit          3D

 29 30  0  0  1  0  0  0  0  0999 V2000
   23.1744  -14.8182  -19.0488 N   0  0  0  0  0  0  0  0  0  0  0  0
   23.6071  -13.4286  -19.2701 C   0  0  1  0  0  0  0  0  0  0  0  0
   23.0966  -13.0816  -20.6497 C   0  0  0  0  0  0  0  0  0  0  0  0
   23.7393  -13.8167  -21.7398 C   0  0  0  0  0  0  0  0  0  0  0  0
   25.0242  -13.5337  -22.1680 C   0  0  0  0  0  0  0  0  0  0  0  0
   25.6031  -14.2524  -23.1984 C   0  0  0  0  0  0  0  0  0  0  0  0
   24.8572  -15.2566  -23.7815 C   0  0  0  0  0  0  0  0  0  0  0  0
   23.5686  -15.5476  -23.3594 C   0  0  0  0  0  0  0  0  0  0  0  0
   22.9982  -14.8378  -22.3423 C   0  0  0  0  0  0  0  0  0  0  0  0
   23.0056  -12.5141  -18.2987 C   0  0  0  0  0  0  0  0  0  0  0  0
   21.8287  -12.6875  -17.8913 O   0  0  0  0  0  0  0  0  0  0  0  0
   21.5736   -5.7456  -12.8045 O   0  0  0  0  0  0  0  0  0  0  0  0
   22.1881   -6.7374  -13.5871 C   0  0  0  0  0  0  0  0  0  0  0  0
   22.1045   -8.0438  -13.1746 C   0  0  0  0  0  0  0  0  0  0  0  0
   22.7030   -9.0464  -13.9291 C   0  0  0  0  0  0  0  0  0  0  0  0
   23.3823   -8.7490  -15.0901 C   0  0  0  0  0  0  0  0  0  0  0  0
   24.0234   -9.8041  -15.9026 C   0  0  0  0  0  0  0  0  0  0  0  0
   23.0492  -10.3884  -16.9357 C   0  0  2  0  0  0  0  0  0  0  0  0
   23.6829  -11.3804  -17.7468 N   0  0  0  0  0  0  0  0  0  0  0  0
   22.4456   -9.2855  -17.7307 C   0  0  0  0  0  0  0  0  0  0  0  0
   22.8543   -9.0449  -18.8963 O   0  0  0  0  0  0  0  0  0  0  0  0
   23.4494   -7.4291  -15.4789 C   0  0  0  0  0  0  0  0  0  0  0  0
   22.8624   -6.4146  -14.7455 C   0  0  0  0  0  0  0  0  0  0  0  0
   20.2925   -8.2668  -19.4209 C   0  0  0  0  0  0  0  0  0  0  0  0
   20.6288   -7.5771  -18.1048 C   0  0  2  0  0  0  0  0  0  0  0  0
   21.3989   -8.4538  -17.2440 N   0  0  0  0  0  0  0  0  0  0  0  0
   19.3997   -7.0863  -17.4307 C   0  0  0  0  0  0  0  0  0  0  0  0
   18.4272   -7.9347  -16.9183 O   0  0  0  0  0  0  0  0  0  0  0  0
   19.2016   -5.8512  -17.3023 O   0  0  0  0  0  0  0  0  0  0  0  0
  2  1  1  1
  3  4  1  0
  3  2  1  0
  4  9  1  0
  4  5  2  0
  5  6  1  0
  6  7  2  0
  8  7  1  0
  9  8  2  0
 10 19  1  0
 10  2  1  0
 11 10  2  0
 12 13  1  0
 13 14  2  0
 14 15  1  0
 16 17  1  0
 16 15  2  0
 18 17  1  1
 18 19  1  0
 20 18  1  0
 21 20  2  0
 22 16  1  0
 23 22  2  0
 23 13  1  0
 25 24  1  6
 25 26  1  0
 26 20  1  0
 27 25  1  0
 27 28  1  0
 29 27  2  0
M  END
$$$$
