FYA.pdb
     RDKit          3D

 29 30  0  0  1  0  0  0  0  0999 V2000
   20.7121  -32.3915   -4.4388 N   0  0  0  0  0  0  0  0  0  0  0  0
   21.9709  -31.7147   -4.0861 C   0  0  1  0  0  0  0  0  0  0  0  0
   21.8279  -31.3752   -2.6203 C   0  0  0  0  0  0  0  0  0  0  0  0
   21.0761  -30.1491   -2.3496 C   0  0  0  0  0  0  0  0  0  0  0  0
   19.7373  -30.1625   -2.0007 C   0  0  0  0  0  0  0  0  0  0  0  0
   19.0586  -28.9842   -1.7465 C   0  0  0  0  0  0  0  0  0  0  0  0
   19.7606  -27.8009   -1.8529 C   0  0  0  0  0  0  0  0  0  0  0  0
   21.1026  -27.7773   -2.2020 C   0  0  0  0  0  0  0  0  0  0  0  0
   21.7716  -28.9406   -2.4526 C   0  0  0  0  0  0  0  0  0  0  0  0
   23.1255  -32.5975   -4.2572 C   0  0  0  0  0  0  0  0  0  0  0  0
   22.9724  -33.8153   -4.5307 O   0  0  0  0  0  0  0  0  0  0  0  0
   25.0678  -32.2558  -10.8097 O   0  0  0  0  0  0  0  0  0  0  0  0
   25.4619  -32.2554   -9.4612 C   0  0  0  0  0  0  0  0  0  0  0  0
   24.9320  -31.3061   -8.6234 C   0  0  0  0  0  0  0  0  0  0  0  0
   25.3037  -31.2815   -7.2841 C   0  0  0  0  0  0  0  0  0  0  0  0
   26.1998  -32.1990   -6.7810 C   0  0  0  0  0  0  0  0  0  0  0  0
   26.6042  -32.1854   -5.3594 C   0  0  0  0  0  0  0  0  0  0  0  0
   25.6134  -32.9673   -4.4852 C   0  0  2  0  0  0  0  0  0  0  0  0
   24.4842  -32.1651   -4.1320 N   0  0  0  0  0  0  0  0  0  0  0  0
   26.3241  -33.5242   -3.3029 C   0  0  0  0  0  0  0  0  0  0  0  0
   26.7640  -32.7579   -2.4069 O   0  0  0  0  0  0  0  0  0  0  0  0
   26.7148  -33.1396   -7.6456 C   0  0  0  0  0  0  0  0  0  0  0  0
   26.3606  -33.1842   -8.9814 C   0  0  0  0  0  0  0  0  0  0  0  0
   26.7255  -36.8068   -1.5637 C   0  0  0  0  0  0  0  0  0  0  0  0
   27.2711  -35.4434   -1.9692 C   0  0  2  0  0  0  0  0  0  0  0  0
   26.5481  -34.9159   -3.1100 N   0  0  0  0  0  0  0  0  0  0  0  0
   28.7323  -35.5092   -2.2275 C   0  0  0  0  0  0  0  0  0  0  0  0
   29.2897  -35.2951   -3.4810 O   0  0  0  0  0  0  0  0  0  0  0  0
   29.5274  -35.7685   -1.2885 O   0  0  0  0  0  0  0  0  0  0  0  0
  2  1  1  1
  3  4  1  0
  3  2  1  0
  4  9  1  0
  4  5  2  0
  5  6  1  0
  6  7  2  0
  8  7  1  0
  9  8  2  0
 10 19  1  0
 10  2  1  0
 11 10  2  0
 12 13  1  0
 13 14  2  0
 14 15  1  0
 16 17  1  0
 16 15  2  0
 18 17  1  1
 18 19  1  0
 20 18  1  0
 21 20  2  0
 22 16  1  0
 23 22  2  0
 23 13  1  0
 25 24  1  6
 25 26  1  0
 26 20  1  0
 27 25  1  0
 27 28  1  0
 29 27  2  0
M  END
$$$$
