FYA.pdb
     RDKit          3D

 29 30  0  0  1  0  0  0  0  0999 V2000
   27.8751  -26.5963  -16.7302 N   0  0  0  0  0  0  0  0  0  0  0  0
   26.9180  -25.4777  -16.7298 C   0  0  1  0  0  0  0  0  0  0  0  0
   26.6599  -25.1914  -18.1913 C   0  0  0  0  0  0  0  0  0  0  0  0
   27.7761  -24.5574  -18.8942 C   0  0  0  0  0  0  0  0  0  0  0  0
   28.0827  -23.2170  -18.7412 C   0  0  0  0  0  0  0  0  0  0  0  0
   29.1487  -22.6514  -19.4174 C   0  0  0  0  0  0  0  0  0  0  0  0
   29.8916  -23.4674  -20.2461 C   0  0  0  0  0  0  0  0  0  0  0  0
   29.5920  -24.8120  -20.4061 C   0  0  0  0  0  0  0  0  0  0  0  0
   28.5398  -25.3693  -19.7382 C   0  0  0  0  0  0  0  0  0  0  0  0
   25.6550  -25.8472  -16.0895 C   0  0  0  0  0  0  0  0  0  0  0  0
   25.2768  -27.0459  -16.0512 O   0  0  0  0  0  0  0  0  0  0  0  0
   18.1270  -25.4674  -11.4556 O   0  0  0  0  0  0  0  0  0  0  0  0
   19.3852  -25.1847  -12.0131 C   0  0  0  0  0  0  0  0  0  0  0  0
   19.5241  -24.0544  -12.7793 C   0  0  0  0  0  0  0  0  0  0  0  0
   20.7574  -23.7494  -13.3437 C   0  0  0  0  0  0  0  0  0  0  0  0
   21.8483  -24.5669  -13.1457 C   0  0  0  0  0  0  0  0  0  0  0  0
   23.1657  -24.2554  -13.7391 C   0  0  0  0  0  0  0  0  0  0  0  0
   23.5437  -25.2660  -14.8315 C   0  0  2  0  0  0  0  0  0  0  0  0
   24.7702  -24.9068  -15.4719 N   0  0  0  0  0  0  0  0  0  0  0  0
   22.4116  -25.4156  -15.7849 C   0  0  0  0  0  0  0  0  0  0  0  0
   22.1505  -24.5018  -16.6098 O   0  0  0  0  0  0  0  0  0  0  0  0
   21.6786  -25.6941  -12.3723 C   0  0  0  0  0  0  0  0  0  0  0  0
   20.4622  -26.0186  -11.8005 C   0  0  0  0  0  0  0  0  0  0  0  0
   20.4621  -28.0016  -17.4708 C   0  0  0  0  0  0  0  0  0  0  0  0
   20.4384  -26.6740  -16.7241 C   0  0  2  0  0  0  0  0  0  0  0  0
   21.5735  -26.5644  -15.8285 N   0  0  0  0  0  0  0  0  0  0  0  0
   19.1518  -26.4893  -16.0053 C   0  0  0  0  0  0  0  0  0  0  0  0
   18.1015  -25.7374  -16.5144 O   0  0  0  0  0  0  0  0  0  0  0  0
   18.9747  -27.0259  -14.8819 O   0  0  0  0  0  0  0  0  0  0  0  0
  2  1  1  6
  3  4  1  0
  3  2  1  0
  4  9  1  0
  4  5  2  0
  5  6  1  0
  6  7  2  0
  8  7  1  0
  9  8  2  0
 10 19  1  0
 10  2  1  0
 11 10  2  0
 12 13  1  0
 13 14  2  0
 14 15  1  0
 16 17  1  0
 16 15  2  0
 18 17  1  1
 18 19  1  0
 20 18  1  0
 21 20  2  0
 22 16  1  0
 23 22  2  0
 23 13  1  0
 25 24  1  1
 25 26  1  0
 26 20  1  0
 27 25  1  0
 27 28  1  0
 29 27  2  0
M  END
$$$$
