FYA.pdb
     RDKit          3D

 29 30  0  0  1  0  0  0  0  0999 V2000
   24.5141  -11.1453  -17.4317 N   0  0  0  0  0  0  0  0  0  0  0  0
   24.5232  -10.2678  -16.2497 C   0  0  1  0  0  0  0  0  0  0  0  0
   25.8517   -9.5500  -16.3133 C   0  0  0  0  0  0  0  0  0  0  0  0
   27.0210  -10.4300  -16.2947 C   0  0  0  0  0  0  0  0  0  0  0  0
   27.1607  -11.4574  -15.3786 C   0  0  0  0  0  0  0  0  0  0  0  0
   28.2774  -12.2737  -15.3930 C   0  0  0  0  0  0  0  0  0  0  0  0
   29.2424  -12.0281  -16.3486 C   0  0  0  0  0  0  0  0  0  0  0  0
   29.1114  -11.0007  -17.2708 C   0  0  0  0  0  0  0  0  0  0  0  0
   28.0089  -10.1956  -17.2559 C   0  0  0  0  0  0  0  0  0  0  0  0
   23.4470   -9.2775  -16.3035 C   0  0  0  0  0  0  0  0  0  0  0  0
   22.7209   -9.1677  -17.3243 O   0  0  0  0  0  0  0  0  0  0  0  0
   17.9795  -12.4300  -15.9043 O   0  0  0  0  0  0  0  0  0  0  0  0
   18.7344  -11.3317  -15.4600 C   0  0  0  0  0  0  0  0  0  0  0  0
   18.4466  -10.0895  -15.9680 C   0  0  0  0  0  0  0  0  0  0  0  0
   19.1771   -8.9843  -15.5467 C   0  0  0  0  0  0  0  0  0  0  0  0
   20.1905   -9.1157  -14.6229 C   0  0  0  0  0  0  0  0  0  0  0  0
   20.9756   -7.9500  -14.1654 C   0  0  0  0  0  0  0  0  0  0  0  0
   22.0006   -7.5125  -15.2215 C   0  0  2  0  0  0  0  0  0  0  0  0
   23.1382   -8.3781  -15.2338 N   0  0  0  0  0  0  0  0  0  0  0  0
   22.3583   -6.0846  -15.0070 C   0  0  0  0  0  0  0  0  0  0  0  0
   22.9659   -5.7316  -13.9631 O   0  0  0  0  0  0  0  0  0  0  0  0
   20.4565  -10.3746  -14.1309 C   0  0  0  0  0  0  0  0  0  0  0  0
   19.7439  -11.4887  -14.5344 C   0  0  0  0  0  0  0  0  0  0  0  0
   22.0712   -2.8198  -16.9414 C   0  0  0  0  0  0  0  0  0  0  0  0
   22.4206   -3.6680  -15.7251 C   0  0  2  0  0  0  0  0  0  0  0  0
   22.0483   -5.0533  -15.9369 N   0  0  0  0  0  0  0  0  0  0  0  0
   21.8014   -3.1149  -14.4936 C   0  0  0  0  0  0  0  0  0  0  0  0
   20.6230   -3.6097  -13.9509 O   0  0  0  0  0  0  0  0  0  0  0  0
   22.3451   -2.1540  -13.8914 O   0  0  0  0  0  0  0  0  0  0  0  0
  2  1  1  6
  3  4  1  0
  3  2  1  0
  4  9  1  0
  4  5  2  0
  5  6  1  0
  6  7  2  0
  8  7  1  0
  9  8  2  0
 10 19  1  0
 10  2  1  0
 11 10  2  0
 12 13  1  0
 13 14  2  0
 14 15  1  0
 16 17  1  0
 16 15  2  0
 18 17  1  1
 18 19  1  0
 20 18  1  0
 21 20  2  0
 22 16  1  0
 23 22  2  0
 23 13  1  0
 25 24  1  6
 25 26  1  0
 26 20  1  0
 27 25  1  0
 27 28  1  0
 29 27  2  0
M  END
$$$$
