FYA.pdb
     RDKit          3D

 29 30  0  0  1  0  0  0  0  0999 V2000
   27.6829  -24.3232  -17.2431 N   0  0  0  0  0  0  0  0  0  0  0  0
   27.1452  -22.9664  -17.0500 C   0  0  1  0  0  0  0  0  0  0  0  0
   26.3872  -22.6679  -18.3230 C   0  0  0  0  0  0  0  0  0  0  0  0
   27.2328  -22.3712  -19.4801 C   0  0  0  0  0  0  0  0  0  0  0  0
   27.5332  -23.3201  -20.4411 C   0  0  0  0  0  0  0  0  0  0  0  0
   28.3320  -23.0037  -21.5253 C   0  0  0  0  0  0  0  0  0  0  0  0
   28.8163  -21.7144  -21.6138 C   0  0  0  0  0  0  0  0  0  0  0  0
   28.5208  -20.7565  -20.6555 C   0  0  0  0  0  0  0  0  0  0  0  0
   27.7324  -21.0697  -19.5859 C   0  0  0  0  0  0  0  0  0  0  0  0
   26.2158  -22.9090  -15.9210 C   0  0  0  0  0  0  0  0  0  0  0  0
   25.5422  -23.9171  -15.5872 O   0  0  0  0  0  0  0  0  0  0  0  0
   22.4281  -20.6084   -8.3001 O   0  0  0  0  0  0  0  0  0  0  0  0
   23.2256  -20.6145   -9.4567 C   0  0  0  0  0  0  0  0  0  0  0  0
   22.7533  -19.9870  -10.5823 C   0  0  0  0  0  0  0  0  0  0  0  0
   23.5207  -19.9770  -11.7414 C   0  0  0  0  0  0  0  0  0  0  0  0
   24.7539  -20.5897  -11.7794 C   0  0  0  0  0  0  0  0  0  0  0  0
   25.5811  -20.5871  -13.0042 C   0  0  0  0  0  0  0  0  0  0  0  0
   25.1573  -21.7017  -13.9716 C   0  0  2  0  0  0  0  0  0  0  0  0
   26.0004  -21.7388  -15.1255 N   0  0  0  0  0  0  0  0  0  0  0  0
   23.7166  -21.5477  -14.3084 C   0  0  0  0  0  0  0  0  0  0  0  0
   23.3306  -20.5885  -15.0257 O   0  0  0  0  0  0  0  0  0  0  0  0
   25.2016  -21.2114  -10.6345 C   0  0  0  0  0  0  0  0  0  0  0  0
   24.4567  -21.2347   -9.4698 C   0  0  0  0  0  0  0  0  0  0  0  0
   20.7603  -23.5995  -14.7897 C   0  0  0  0  0  0  0  0  0  0  0  0
   21.3113  -22.2999  -14.2168 C   0  0  2  0  0  0  0  0  0  0  0  0
   22.7086  -22.4450  -13.8575 N   0  0  0  0  0  0  0  0  0  0  0  0
   20.4939  -21.8350  -13.0672 C   0  0  0  0  0  0  0  0  0  0  0  0
   20.5504  -22.4238  -11.8110 O   0  0  0  0  0  0  0  0  0  0  0  0
   19.7048  -20.8658  -13.2058 O   0  0  0  0  0  0  0  0  0  0  0  0
  2  1  1  6
  3  4  1  0
  3  2  1  0
  4  9  1  0
  4  5  2  0
  5  6  1  0
  6  7  2  0
  8  7  1  0
  9  8  2  0
 10 19  1  0
 10  2  1  0
 11 10  2  0
 12 13  1  0
 13 14  2  0
 14 15  1  0
 16 17  1  0
 16 15  2  0
 18 17  1  1
 18 19  1  0
 20 18  1  0
 21 20  2  0
 22 16  1  0
 23 22  2  0
 23 13  1  0
 25 24  1  1
 25 26  1  0
 26 20  1  0
 27 25  1  0
 27 28  1  0
 29 27  2  0
M  END
$$$$
