RYL.pdb
     RDKit          3D

 32 32  0  0  1  0  0  0  0  0999 V2000
   21.8922  -26.5441  -16.3429 N   0  0  0  0  0  0  0  0  0  0  0  0
   22.7586  -27.3600  -17.1358 C   0  0  0  0  0  0  0  0  0  0  0  0
   22.2446  -28.2631  -17.8739 N   0  0  0  0  0  0  0  0  0  0  0  0
   24.1743  -27.1774  -17.1115 N   0  0  0  0  0  0  0  0  0  0  0  0
   24.7684  -26.0276  -16.3991 C   0  0  0  0  0  0  0  0  0  0  0  0
   25.2137  -25.0703  -17.4486 C   0  0  0  0  0  0  0  0  0  0  0  0
   25.1273  -23.6269  -17.1105 C   0  0  0  0  0  0  0  0  0  0  0  0
   25.5172  -23.3091  -15.7104 C   0  0  2  0  0  0  0  0  0  0  0  0
   25.8983  -24.4770  -14.9317 N   0  0  0  0  0  0  0  0  0  0  0  0
   24.3975  -22.6798  -14.9470 C   0  0  0  0  0  0  0  0  0  0  0  0
   23.5915  -23.4517  -14.3771 O   0  0  0  0  0  0  0  0  0  0  0  0
   22.7434  -28.9413  -18.4718 O   0  0  0  0  0  0  0  0  0  0  0  0
   26.6466  -21.1881   -8.7124 C   0  0  0  0  0  0  0  0  0  0  0  0
   25.8463  -20.8150   -9.7810 C   0  0  0  0  0  0  0  0  0  0  0  0
   24.5071  -20.5475   -9.5935 C   0  0  0  0  0  0  0  0  0  0  0  0
   23.7268  -20.1728  -10.6954 C   0  0  0  0  0  0  0  0  0  0  0  0
   24.2773  -20.0701  -11.9503 C   0  0  0  0  0  0  0  0  0  0  0  0
   23.4745  -19.6813  -13.1005 C   0  0  2  0  0  0  0  0  0  0  0  0
   23.1251  -20.7823  -14.0429 N   0  0  0  0  0  0  0  0  0  0  0  0
   24.1922  -21.2883  -14.8283 C   0  0  0  0  0  0  0  0  0  0  0  0
   21.9889  -20.3031  -14.8988 O   0  0  0  0  0  0  0  0  0  0  0  0
   22.2653  -19.6688  -15.9365 C   0  0  0  0  0  0  0  0  0  0  0  0
   25.6143  -20.3441  -12.0992 C   0  0  0  0  0  0  0  0  0  0  0  0
   26.4141  -20.7183  -11.0239 C   0  0  0  0  0  0  0  0  0  0  0  0
   16.8654  -20.6473  -17.0609 C   0  0  1  0  0  0  0  0  0  0  0  0
   18.2575  -20.9191  -17.4846 C   0  0  0  0  0  0  0  0  0  0  0  0
   18.3363  -22.1209  -18.4341 C   0  0  0  0  0  0  0  0  0  0  0  0
   19.2596  -21.1140  -16.4326 C   0  0  2  0  0  0  0  0  0  0  0  0
   19.5387  -20.0427  -15.4608 N   0  0  0  0  0  0  0  0  0  0  0  0
   20.6431  -20.5451  -14.5683 C   0  0  0  0  0  0  0  0  0  0  0  0
   18.5142  -19.5958  -14.5308 O   0  0  0  0  0  0  0  0  0  0  0  0
   17.4886  -18.6947  -14.8869 O   0  0  0  0  0  0  0  0  0  0  0  0
  2  3  2  0
  2  1  1  0
  4  2  1  0
  5  4  1  0
  6  5  1  0
  7  6  1  0
  8 10  1  0
  8  7  1  0
  8  9  1  1
 10 11  2  0
 13 14  2  0
 13 12  1  0
 15 14  1  0
 16 15  2  0
 17 16  1  0
 18 17  1  1
 18 20  1  0
 19 10  1  0
 19 18  1  0
 20 29  1  0
 20 21  2  0
 22 16  1  0
 22 23  2  0
 23 13  1  0
 25 24  1  6
 25 27  1  0
 26 25  1  0
 28 27  1  6
 28 30  1  0
 29 28  1  0
 30 32  2  0
 30 31  1  0
M  END
$$$$
