RYL.pdb
     RDKit          3D

 32 32  0  0  1  0  0  0  0  0999 V2000
   25.2432  -22.9577  -17.4065 N   0  0  0  0  0  0  0  0  0  0  0  0
   26.3391  -23.3959  -16.5990 C   0  0  0  0  0  0  0  0  0  0  0  0
   26.6582  -24.6298  -16.6160 N   0  0  0  0  0  0  0  0  0  0  0  0
   27.0713  -22.4799  -15.7848 N   0  0  0  0  0  0  0  0  0  0  0  0
   28.2169  -21.7328  -16.3436 C   0  0  0  0  0  0  0  0  0  0  0  0
   27.8091  -20.3014  -16.3713 C   0  0  0  0  0  0  0  0  0  0  0  0
   27.2637  -19.7418  -15.1086 C   0  0  0  0  0  0  0  0  0  0  0  0
   28.1061  -20.0134  -13.9129 C   0  0  2  0  0  0  0  0  0  0  0  0
   28.6202  -21.3729  -13.8582 N   0  0  0  0  0  0  0  0  0  0  0  0
   27.3453  -19.8327  -12.6397 C   0  0  0  0  0  0  0  0  0  0  0  0
   26.9283  -18.6792  -12.3836 O   0  0  0  0  0  0  0  0  0  0  0  0
   27.3249  -25.1123  -15.9923 O   0  0  0  0  0  0  0  0  0  0  0  0
   21.1418  -20.0555  -14.4631 C   0  0  0  0  0  0  0  0  0  0  0  0
   22.0910  -20.4088  -13.5167 C   0  0  0  0  0  0  0  0  0  0  0  0
   22.9764  -21.4364  -13.7621 C   0  0  0  0  0  0  0  0  0  0  0  0
   23.9232  -21.7676  -12.7838 C   0  0  0  0  0  0  0  0  0  0  0  0
   23.9785  -21.0851  -11.5924 C   0  0  0  0  0  0  0  0  0  0  0  0
   24.9588  -21.4220  -10.5707 C   0  0  2  0  0  0  0  0  0  0  0  0
   26.2221  -20.6313  -10.6057 N   0  0  0  0  0  0  0  0  0  0  0  0
   27.0699  -20.8659  -11.7182 C   0  0  0  0  0  0  0  0  0  0  0  0
   26.9385  -20.8637   -9.3072 O   0  0  0  0  0  0  0  0  0  0  0  0
   27.9719  -21.5618   -9.3260 C   0  0  0  0  0  0  0  0  0  0  0  0
   23.0809  -20.0676  -11.3828 C   0  0  0  0  0  0  0  0  0  0  0  0
   22.1296  -19.7161  -12.3355 C   0  0  0  0  0  0  0  0  0  0  0  0
   29.6959  -18.3866   -5.0020 C   0  0  1  0  0  0  0  0  0  0  0  0
   29.0594  -19.6638   -5.3956 C   0  0  0  0  0  0  0  0  0  0  0  0
   30.0871  -20.7961   -5.5135 C   0  0  0  0  0  0  0  0  0  0  0  0
   28.2476  -19.6679   -6.6161 C   0  0  2  0  0  0  0  0  0  0  0  0
   27.1814  -20.6677   -6.7992 N   0  0  0  0  0  0  0  0  0  0  0  0
   26.4841  -20.3252   -8.0896 C   0  0  0  0  0  0  0  0  0  0  0  0
   26.0976  -20.7851   -5.8371 O   0  0  0  0  0  0  0  0  0  0  0  0
   24.7431  -20.5734   -6.1705 O   0  0  0  0  0  0  0  0  0  0  0  0
  2  3  2  0
  2  1  1  0
  4  2  1  0
  5  4  1  0
  6  5  1  0
  7  6  1  0
  8 10  1  0
  8  7  1  0
  8  9  1  6
 10 11  2  0
 13 14  2  0
 13 12  1  0
 15 14  1  0
 16 15  2  0
 17 16  1  0
 18 17  1  6
 18 20  1  0
 19 10  1  0
 19 18  1  0
 20 29  1  0
 20 21  2  0
 22 16  1  0
 22 23  2  0
 23 13  1  0
 25 24  1  1
 25 27  1  0
 26 25  1  0
 28 27  1  6
 28 30  1  0
 29 28  1  0
 30 32  2  0
 30 31  1  0
M  END
$$$$
