RYL.pdb
     RDKit          3D

 32 32  0  0  1  0  0  0  0  0999 V2000
   25.0313  -20.8833  -18.2607 N   0  0  0  0  0  0  0  0  0  0  0  0
   25.6201  -19.7348  -18.8765 C   0  0  0  0  0  0  0  0  0  0  0  0
   24.9317  -19.0697  -19.7180 N   0  0  0  0  0  0  0  0  0  0  0  0
   26.9526  -19.3288  -18.5639 N   0  0  0  0  0  0  0  0  0  0  0  0
   27.7295  -20.0435  -17.5303 C   0  0  0  0  0  0  0  0  0  0  0  0
   28.3129  -18.9965  -16.6473 C   0  0  0  0  0  0  0  0  0  0  0  0
   27.6490  -18.7889  -15.3354 C   0  0  0  0  0  0  0  0  0  0  0  0
   27.9970  -19.8118  -14.3127 C   0  0  2  0  0  0  0  0  0  0  0  0
   27.8113  -21.1802  -14.7696 N   0  0  0  0  0  0  0  0  0  0  0  0
   27.1483  -19.6908  -13.0889 C   0  0  0  0  0  0  0  0  0  0  0  0
   26.8861  -18.5325  -12.6892 O   0  0  0  0  0  0  0  0  0  0  0  0
   25.2291  -18.2363  -20.2504 O   0  0  0  0  0  0  0  0  0  0  0  0
   21.1910  -19.3386  -15.7541 C   0  0  0  0  0  0  0  0  0  0  0  0
   21.9641  -19.7974  -14.6988 C   0  0  0  0  0  0  0  0  0  0  0  0
   21.9181  -19.1703  -13.4721 C   0  0  0  0  0  0  0  0  0  0  0  0
   22.7125  -19.6599  -12.4269 C   0  0  0  0  0  0  0  0  0  0  0  0
   23.5301  -20.7492  -12.6097 C   0  0  0  0  0  0  0  0  0  0  0  0
   24.3584  -21.2649  -11.5297 C   0  0  2  0  0  0  0  0  0  0  0  0
   25.6686  -20.5794  -11.3403 N   0  0  0  0  0  0  0  0  0  0  0  0
   26.6294  -20.7847  -12.3632 C   0  0  0  0  0  0  0  0  0  0  0  0
   26.2002  -20.9811   -9.9952 O   0  0  0  0  0  0  0  0  0  0  0  0
   26.7493  -22.0962   -9.8924 C   0  0  0  0  0  0  0  0  0  0  0  0
   23.5501  -21.3483  -13.8449 C   0  0  0  0  0  0  0  0  0  0  0  0
   22.7724  -20.8845  -14.9015 C   0  0  0  0  0  0  0  0  0  0  0  0
   29.2027  -20.6388   -6.5366 C   0  0  2  0  0  0  0  0  0  0  0  0
   28.2948  -19.4944   -6.7763 C   0  0  0  0  0  0  0  0  0  0  0  0
   28.6573  -18.2902   -5.8983 C   0  0  0  0  0  0  0  0  0  0  0  0
   26.8550  -19.7317   -6.6374 C   0  0  2  0  0  0  0  0  0  0  0  0
   26.1796  -20.7334   -7.4802 N   0  0  0  0  0  0  0  0  0  0  0  0
   26.0977  -20.1487   -8.8658 C   0  0  0  0  0  0  0  0  0  0  0  0
   24.8155  -21.1484   -7.1951 O   0  0  0  0  0  0  0  0  0  0  0  0
   24.4993  -22.2334   -6.3503 O   0  0  0  0  0  0  0  0  0  0  0  0
  2  3  2  0
  2  1  1  0
  4  2  1  0
  5  4  1  0
  6  5  1  0
  7  6  1  0
  8 10  1  0
  8  7  1  0
  8  9  1  6
 10 11  2  0
 13 14  2  0
 13 12  1  0
 15 14  1  0
 16 15  2  0
 17 16  1  0
 18 17  1  6
 18 20  1  0
 19 10  1  0
 19 18  1  0
 20 29  1  0
 20 21  2  0
 22 16  1  0
 22 23  2  0
 23 13  1  0
 25 24  1  6
 25 27  1  0
 26 25  1  0
 28 27  1  6
 28 30  1  0
 29 28  1  0
 30 32  2  0
 30 31  1  0
M  END
$$$$
