RYL.pdb
     RDKit          3D

 32 32  0  0  1  0  0  0  0  0999 V2000
   34.7527  -31.1427  -18.6221 N   0  0  0  0  0  0  0  0  0  0  0  0
   34.5618  -31.9653  -17.4680 C   0  0  0  0  0  0  0  0  0  0  0  0
   35.5210  -32.0889  -16.6378 N   0  0  0  0  0  0  0  0  0  0  0  0
   33.3255  -32.6408  -17.2368 N   0  0  0  0  0  0  0  0  0  0  0  0
   32.1880  -32.4568  -18.1614 C   0  0  0  0  0  0  0  0  0  0  0  0
   31.0849  -33.3111  -17.6425 C   0  0  0  0  0  0  0  0  0  0  0  0
   29.7385  -32.6887  -17.5750 C   0  0  0  0  0  0  0  0  0  0  0  0
   29.5052  -31.8832  -16.3462 C   0  0  2  0  0  0  0  0  0  0  0  0
   29.1511  -32.6822  -15.1835 N   0  0  0  0  0  0  0  0  0  0  0  0
   28.3763  -30.9190  -16.5151 C   0  0  0  0  0  0  0  0  0  0  0  0
   27.3102  -31.1778  -15.9097 O   0  0  0  0  0  0  0  0  0  0  0  0
   35.5256  -32.6402  -15.7646 O   0  0  0  0  0  0  0  0  0  0  0  0
   24.3442  -23.6393  -15.4897 C   0  0  0  0  0  0  0  0  0  0  0  0
   25.1436  -24.5921  -16.1019 C   0  0  0  0  0  0  0  0  0  0  0  0
   26.4600  -24.3143  -16.4020 C   0  0  0  0  0  0  0  0  0  0  0  0
   27.2399  -25.3002  -17.0208 C   0  0  0  0  0  0  0  0  0  0  0  0
   26.7115  -26.5306  -17.3294 C   0  0  0  0  0  0  0  0  0  0  0  0
   27.5143  -27.5607  -17.9719 C   0  0  2  0  0  0  0  0  0  0  0  0
   27.2759  -28.9529  -17.4950 N   0  0  0  0  0  0  0  0  0  0  0  0
   28.4335  -29.7496  -17.3036 C   0  0  0  0  0  0  0  0  0  0  0  0
   26.3121  -29.5995  -18.4470 O   0  0  0  0  0  0  0  0  0  0  0  0
   26.7709  -30.1026  -19.4919 C   0  0  0  0  0  0  0  0  0  0  0  0
   25.3967  -26.7717  -17.0159 C   0  0  0  0  0  0  0  0  0  0  0  0
   24.5979  -25.8124  -16.4013 C   0  0  0  0  0  0  0  0  0  0  0  0
   23.7136  -33.3691  -18.7405 C   0  0  1  0  0  0  0  0  0  0  0  0
   23.1927  -32.3261  -17.8284 C   0  0  0  0  0  0  0  0  0  0  0  0
   21.9013  -32.7750  -17.1333 C   0  0  0  0  0  0  0  0  0  0  0  0
   22.9582  -30.9921  -18.3888 C   0  0  2  0  0  0  0  0  0  0  0  0
   24.0039  -30.3215  -19.1805 N   0  0  0  0  0  0  0  0  0  0  0  0
   24.9286  -29.6526  -18.1976 C   0  0  0  0  0  0  0  0  0  0  0  0
   23.6645  -29.2624  -20.1171 O   0  0  0  0  0  0  0  0  0  0  0  0
   23.4970  -27.9155  -19.7316 O   0  0  0  0  0  0  0  0  0  0  0  0
  2  3  2  0
  2  1  1  0
  4  2  1  0
  5  4  1  0
  6  5  1  0
  7  6  1  0
  8 10  1  0
  8  7  1  0
  8  9  1  1
 10 11  2  0
 13 14  2  0
 13 12  1  0
 15 14  1  0
 16 15  2  0
 17 16  1  0
 18 17  1  1
 18 20  1  0
 19 10  1  0
 19 18  1  0
 20 29  1  0
 20 21  2  0
 22 16  1  0
 22 23  2  0
 23 13  1  0
 25 24  1  1
 25 27  1  0
 26 25  1  0
 28 27  1  1
 28 30  1  0
 29 28  1  0
 30 32  2  0
 30 31  1  0
M  END
$$$$
