RYL.pdb
     RDKit          3D

 32 32  0  0  1  0  0  0  0  0999 V2000
   28.3733  -28.3453  -16.2845 N   0  0  0  0  0  0  0  0  0  0  0  0
   28.6885  -27.7028  -17.5226 C   0  0  0  0  0  0  0  0  0  0  0  0
   29.3039  -28.3678  -18.4191 N   0  0  0  0  0  0  0  0  0  0  0  0
   28.3266  -26.3431  -17.7640 N   0  0  0  0  0  0  0  0  0  0  0  0
   27.5698  -25.5791  -16.7511 C   0  0  0  0  0  0  0  0  0  0  0  0
   26.3267  -25.1109  -17.4232 C   0  0  0  0  0  0  0  0  0  0  0  0
   25.3595  -24.3608  -16.5825 C   0  0  0  0  0  0  0  0  0  0  0  0
   25.7234  -22.9343  -16.3682 C   0  0  2  0  0  0  0  0  0  0  0  0
   26.9298  -22.7527  -15.5762 N   0  0  0  0  0  0  0  0  0  0  0  0
   24.6578  -22.1895  -15.6318 C   0  0  0  0  0  0  0  0  0  0  0  0
   24.5603  -22.4025  -14.4008 O   0  0  0  0  0  0  0  0  0  0  0  0
   29.5691  -28.0474  -19.3643 O   0  0  0  0  0  0  0  0  0  0  0  0
   18.0632  -17.0084  -13.0338 C   0  0  0  0  0  0  0  0  0  0  0  0
   19.1131  -17.5767  -13.7384 C   0  0  0  0  0  0  0  0  0  0  0  0
   20.3926  -17.5573  -13.2258 C   0  0  0  0  0  0  0  0  0  0  0  0
   21.4308  -18.1408  -13.9640 C   0  0  0  0  0  0  0  0  0  0  0  0
   21.1895  -18.7272  -15.1832 C   0  0  0  0  0  0  0  0  0  0  0  0
   22.2617  -19.3360  -15.9567 C   0  0  1  0  0  0  0  0  0  0  0  0
   22.7489  -20.6527  -15.4555 N   0  0  0  0  0  0  0  0  0  0  0  0
   23.7648  -21.2726  -16.2270 C   0  0  0  0  0  0  0  0  0  0  0  0
   21.5541  -21.5472  -15.2956 O   0  0  0  0  0  0  0  0  0  0  0  0
   21.1266  -22.1386  -16.3070 C   0  0  0  0  0  0  0  0  0  0  0  0
   19.9028  -18.7278  -15.6622 C   0  0  0  0  0  0  0  0  0  0  0  0
   18.8518  -18.1563  -14.9517 C   0  0  0  0  0  0  0  0  0  0  0  0
   19.4750  -25.8271  -11.7962 C   0  0  1  0  0  0  0  0  0  0  0  0
   19.0960  -24.8094  -12.8022 C   0  0  0  0  0  0  0  0  0  0  0  0
   18.6915  -25.4529  -14.1343 C   0  0  0  0  0  0  0  0  0  0  0  0
   20.0673  -23.7509  -13.0937 C   0  0  2  0  0  0  0  0  0  0  0  0
   19.6965  -22.6153  -13.9555 N   0  0  0  0  0  0  0  0  0  0  0  0
   20.9135  -21.7337  -14.0571 C   0  0  0  0  0  0  0  0  0  0  0  0
   18.6346  -21.7012  -13.5668 O   0  0  0  0  0  0  0  0  0  0  0  0
   17.2833  -21.8906  -13.9255 O   0  0  0  0  0  0  0  0  0  0  0  0
  2  3  2  0
  2  1  1  0
  4  2  1  0
  5  4  1  0
  6  5  1  0
  7  6  1  0
  8 10  1  0
  8  7  1  0
  8  9  1  1
 10 11  2  0
 13 14  2  0
 13 12  1  0
 15 14  1  0
 16 15  2  0
 17 16  1  0
 18 17  1  1
 18 20  1  0
 19 10  1  0
 19 18  1  0
 20 29  1  0
 20 21  2  0
 22 16  1  0
 22 23  2  0
 23 13  1  0
 25 24  1  1
 25 27  1  0
 26 25  1  0
 28 27  1  6
 28 30  1  0
 29 28  1  0
 30 32  2  0
 30 31  1  0
M  END
$$$$
