LIC.pdb
     RDKit          3D

 23 22  0  0  1  0  0  0  0  0999 V2000
   19.3967  -25.3441   -9.2355 C   0  0  0  0  0  0  0  0  0  0  0  0
   18.3966  -24.1891   -9.0092 C   0  0  2  0  0  0  0  0  0  0  0  0
   19.2479  -22.9372   -9.0362 C   0  0  0  0  0  0  0  0  0  0  0  0
   17.7363  -24.3402   -7.6711 C   0  0  0  0  0  0  0  0  0  0  0  0
   16.8978  -25.5393   -7.4646 C   0  0  2  0  0  0  0  0  0  0  0  0
   15.7761  -25.5192   -8.4354 N   0  0  0  0  0  0  0  0  0  0  0  0
   16.3370  -25.7984   -6.1528 C   0  0  0  0  0  0  0  0  0  0  0  0
   15.1134  -25.5109   -5.8867 O   0  0  0  0  0  0  0  0  0  0  0  0
   16.9932  -30.4560   -4.3963 C   0  0  0  0  0  0  0  0  0  0  0  0
   16.3811  -29.0872   -4.4963 C   0  0  0  0  0  0  0  0  0  0  0  0
   16.9382  -28.1220   -3.4303 C   0  0  2  0  0  0  0  0  0  0  0  0
   16.5284  -28.5969   -2.0729 C   0  0  0  0  0  0  0  0  0  0  0  0
   16.3572  -26.7529   -3.7956 C   0  0  2  0  0  0  0  0  0  0  0  0
   17.0309  -26.3756   -5.0572 N   0  0  0  0  0  0  0  0  0  0  0  0
   16.5748  -25.7242   -2.7808 C   0  0  0  0  0  0  0  0  0  0  0  0
   17.7562  -25.3004   -2.5723 O   0  0  0  0  0  0  0  0  0  0  0  0
   15.5465  -25.1521   -1.9997 N   0  0  0  0  0  0  0  0  0  0  0  0
   15.7852  -24.1124   -1.0153 C   0  0  1  0  0  0  0  0  0  0  0  0
   15.1007  -22.8193   -1.3068 C   0  0  0  0  0  0  0  0  0  0  0  0
   15.1629  -21.6312    0.0566 S   0  0  0  0  0  0  0  0  0  0  0  0
   15.4788  -24.5960    0.3659 C   0  0  0  0  0  0  0  0  0  0  0  0
   16.1515  -24.1881    1.4882 O   0  0  0  0  0  0  0  0  0  0  0  0
   14.5468  -25.4256    0.4939 O   0  0  0  0  0  0  0  0  0  0  0  0
  2  1  1  1
  2  3  1  0
  4  5  1  0
  4  2  1  0
  5  7  1  0
  5  6  1  6
  7  8  2  0
  9 10  1  0
 10 11  1  0
 11 13  1  0
 11 12  1  1
 13 14  1  6
 14  7  1  0
 15 16  2  0
 15 13  1  0
 17 15  1  0
 18 17  1  0
 18 21  1  0
 18 19  1  6
 20 19  1  0
 21 22  1  0
 23 21  2  0
M  END
$$$$
