LIC.pdb
     RDKit          3D

 23 22  0  0  1  0  0  0  0  0999 V2000
   24.4687  -34.0425  -15.4872 C   0  0  0  0  0  0  0  0  0  0  0  0
   23.6602  -35.3261  -15.1969 C   0  0  2  0  0  0  0  0  0  0  0  0
   22.5297  -35.3002  -16.2039 C   0  0  0  0  0  0  0  0  0  0  0  0
   23.1142  -35.2809  -13.8008 C   0  0  0  0  0  0  0  0  0  0  0  0
   24.0933  -35.2379  -12.6949 C   0  0  2  0  0  0  0  0  0  0  0  0
   24.8239  -36.5282  -12.6443 N   0  0  0  0  0  0  0  0  0  0  0  0
   23.6369  -34.9400  -11.3513 C   0  0  0  0  0  0  0  0  0  0  0  0
   23.1169  -35.8520  -10.6107 O   0  0  0  0  0  0  0  0  0  0  0  0
   26.6017  -32.6125   -7.9980 C   0  0  0  0  0  0  0  0  0  0  0  0
   25.4230  -33.3980   -8.5001 C   0  0  0  0  0  0  0  0  0  0  0  0
   24.1704  -32.5163   -8.6787 C   0  0  2  0  0  0  0  0  0  0  0  0
   23.7180  -32.0256   -7.3405 C   0  0  0  0  0  0  0  0  0  0  0  0
   23.1469  -33.4206   -9.3716 C   0  0  2  0  0  0  0  0  0  0  0  0
   23.7075  -33.6721  -10.7171 N   0  0  0  0  0  0  0  0  0  0  0  0
   21.8133  -32.8337   -9.4828 C   0  0  0  0  0  0  0  0  0  0  0  0
   21.6391  -31.8334  -10.2495 O   0  0  0  0  0  0  0  0  0  0  0  0
   20.6788  -33.3082   -8.7881 N   0  0  0  0  0  0  0  0  0  0  0  0
   19.3633  -32.7082   -8.9170 C   0  0  1  0  0  0  0  0  0  0  0  0
   18.3442  -33.5899   -9.5570 C   0  0  0  0  0  0  0  0  0  0  0  0
   16.6499  -32.9674   -9.4296 S   0  0  0  0  0  0  0  0  0  0  0  0
   18.8819  -32.1757   -7.6054 C   0  0  0  0  0  0  0  0  0  0  0  0
   18.0774  -31.0740   -7.4737 O   0  0  0  0  0  0  0  0  0  0  0  0
   19.2424  -32.7824   -6.5684 O   0  0  0  0  0  0  0  0  0  0  0  0
  2  1  1  6
  2  3  1  0
  4  5  1  0
  4  2  1  0
  5  7  1  0
  5  6  1  1
  7  8  2  0
  9 10  1  0
 10 11  1  0
 11 13  1  0
 11 12  1  1
 13 14  1  6
 14  7  1  0
 15 16  2  0
 15 13  1  0
 17 15  1  0
 18 17  1  0
 18 21  1  0
 18 19  1  1
 20 19  1  0
 21 22  1  0
 23 21  2  0
M  END
$$$$
