LIC.pdb
     RDKit          3D

 23 22  0  0  1  0  0  0  0  0999 V2000
   28.6941  -17.7752  -15.8974 C   0  0  0  0  0  0  0  0  0  0  0  0
   28.1498  -18.7468  -16.9676 C   0  0  2  0  0  0  0  0  0  0  0  0
   27.6003  -17.8474  -18.0547 C   0  0  0  0  0  0  0  0  0  0  0  0
   27.0530  -19.5869  -16.3839 C   0  0  0  0  0  0  0  0  0  0  0  0
   27.3474  -20.2991  -15.1231 C   0  0  2  0  0  0  0  0  0  0  0  0
   28.3258  -21.3807  -15.3947 N   0  0  0  0  0  0  0  0  0  0  0  0
   26.2576  -20.8758  -14.3602 C   0  0  0  0  0  0  0  0  0  0  0  0
   25.7038  -21.9766  -14.7241 O   0  0  0  0  0  0  0  0  0  0  0  0
   26.3950  -20.7162   -9.1828 C   0  0  0  0  0  0  0  0  0  0  0  0
   25.9543  -21.2194  -10.5284 C   0  0  0  0  0  0  0  0  0  0  0  0
   24.6772  -20.5110  -11.0242 C   0  0  2  0  0  0  0  0  0  0  0  0
   23.5205  -20.9271  -10.1729 C   0  0  0  0  0  0  0  0  0  0  0  0
   24.5356  -20.9331  -12.4895 C   0  0  2  0  0  0  0  0  0  0  0  0
   25.6981  -20.3287  -13.1760 N   0  0  0  0  0  0  0  0  0  0  0  0
   23.2929  -20.4910  -13.1186 C   0  0  0  0  0  0  0  0  0  0  0  0
   23.1140  -19.2493  -13.3305 O   0  0  0  0  0  0  0  0  0  0  0  0
   22.2550  -21.3610  -13.5194 N   0  0  0  0  0  0  0  0  0  0  0  0
   21.0443  -20.9002  -14.1742 C   0  0  1  0  0  0  0  0  0  0  0  0
   20.8082  -21.4951  -15.5219 C   0  0  0  0  0  0  0  0  0  0  0  0
   19.1755  -21.1292  -16.2109 S   0  0  0  0  0  0  0  0  0  0  0  0
   19.8534  -21.0654  -13.2855 C   0  0  0  0  0  0  0  0  0  0  0  0
   18.7820  -20.2108  -13.2719 O   0  0  0  0  0  0  0  0  0  0  0  0
   19.8446  -22.0503  -12.5087 O   0  0  0  0  0  0  0  0  0  0  0  0
  2  1  1  1
  2  3  1  0
  4  5  1  0
  4  2  1  0
  5  7  1  0
  5  6  1  6
  7  8  2  0
  9 10  1  0
 10 11  1  0
 11 13  1  0
 11 12  1  1
 13 14  1  6
 14  7  1  0
 15 16  2  0
 15 13  1  0
 17 15  1  0
 18 17  1  0
 18 21  1  0
 18 19  1  6
 20 19  1  0
 21 22  1  0
 23 21  2  0
M  END
$$$$
