LIC.pdb
     RDKit          3D

 23 22  0  0  1  0  0  0  0  0999 V2000
   22.0622  -13.8838  -21.1927 C   0  0  0  0  0  0  0  0  0  0  0  0
   20.8336  -13.9120  -20.2571 C   0  0  2  0  0  0  0  0  0  0  0  0
   19.6987  -13.3732  -21.1021 C   0  0  0  0  0  0  0  0  0  0  0  0
   21.0712  -13.0197  -19.0753 C   0  0  0  0  0  0  0  0  0  0  0  0
   22.2283  -13.3368  -18.2127 C   0  0  2  0  0  0  0  0  0  0  0  0
   22.0332  -14.6805  -17.6149 N   0  0  0  0  0  0  0  0  0  0  0  0
   22.5873  -12.4286  -17.1411 C   0  0  0  0  0  0  0  0  0  0  0  0
   21.9043  -12.3837  -16.0538 O   0  0  0  0  0  0  0  0  0  0  0  0
   27.4027  -11.9774  -15.4471 C   0  0  0  0  0  0  0  0  0  0  0  0
   25.9060  -11.8458  -15.4731 C   0  0  0  0  0  0  0  0  0  0  0  0
   25.4531  -10.4550  -15.9618 C   0  0  2  0  0  0  0  0  0  0  0  0
   25.9138   -9.4166  -14.9895 C   0  0  0  0  0  0  0  0  0  0  0  0
   23.9284  -10.5520  -16.0697 C   0  0  2  0  0  0  0  0  0  0  0  0
   23.6828  -11.5260  -17.1555 N   0  0  0  0  0  0  0  0  0  0  0  0
   23.2715   -9.2824  -16.3732 C   0  0  0  0  0  0  0  0  0  0  0  0
   23.3850   -8.7904  -17.5411 O   0  0  0  0  0  0  0  0  0  0  0  0
   22.5011   -8.5476  -15.4452 N   0  0  0  0  0  0  0  0  0  0  0  0
   21.8521   -7.2915  -15.7737 C   0  0  1  0  0  0  0  0  0  0  0  0
   20.3981   -7.4124  -16.0852 C   0  0  0  0  0  0  0  0  0  0  0  0
   19.5174   -5.8318  -16.1078 S   0  0  0  0  0  0  0  0  0  0  0  0
   22.1032   -6.2619  -14.7190 C   0  0  0  0  0  0  0  0  0  0  0  0
   22.1834   -4.9159  -14.9647 O   0  0  0  0  0  0  0  0  0  0  0  0
   22.2478   -6.6659  -13.5403 O   0  0  0  0  0  0  0  0  0  0  0  0
  2  1  1  6
  2  3  1  0
  4  5  1  0
  4  2  1  0
  5  7  1  0
  5  6  1  1
  7  8  2  0
  9 10  1  0
 10 11  1  0
 11 13  1  0
 11 12  1  1
 13 14  1  6
 14  7  1  0
 15 16  2  0
 15 13  1  0
 17 15  1  0
 18 17  1  0
 18 21  1  0
 18 19  1  1
 20 19  1  0
 21 22  1  0
 23 21  2  0
M  END
$$$$
