LIC.pdb
     RDKit          3D

 23 22  0  0  1  0  0  0  0  0999 V2000
   29.0126  -18.2177  -16.1000 C   0  0  0  0  0  0  0  0  0  0  0  0
   28.2972  -19.1976  -17.0558 C   0  0  2  0  0  0  0  0  0  0  0  0
   27.7638  -18.3220  -18.1700 C   0  0  0  0  0  0  0  0  0  0  0  0
   27.1666  -19.8750  -16.3401 C   0  0  0  0  0  0  0  0  0  0  0  0
   27.5075  -20.6739  -15.1446 C   0  0  2  0  0  0  0  0  0  0  0  0
   28.2549  -21.8837  -15.5673 N   0  0  0  0  0  0  0  0  0  0  0  0
   26.4503  -21.1026  -14.2498 C   0  0  0  0  0  0  0  0  0  0  0  0
   25.8118  -22.1984  -14.4555 O   0  0  0  0  0  0  0  0  0  0  0  0
   26.9246  -20.7362   -9.0856 C   0  0  0  0  0  0  0  0  0  0  0  0
   26.3834  -21.1966  -10.4098 C   0  0  0  0  0  0  0  0  0  0  0  0
   25.1652  -20.3652  -10.8606 C   0  0  2  0  0  0  0  0  0  0  0  0
   24.0370  -20.5851   -9.9041 C   0  0  0  0  0  0  0  0  0  0  0  0
   24.8604  -20.8503  -12.2809 C   0  0  2  0  0  0  0  0  0  0  0  0
   26.0138  -20.4053  -13.0930 N   0  0  0  0  0  0  0  0  0  0  0  0
   23.6177  -20.3195  -12.8370 C   0  0  0  0  0  0  0  0  0  0  0  0
   23.5091  -19.0657  -13.0245 O   0  0  0  0  0  0  0  0  0  0  0  0
   22.5055  -21.1145  -13.1915 N   0  0  0  0  0  0  0  0  0  0  0  0
   21.2706  -20.5599  -13.7155 C   0  0  1  0  0  0  0  0  0  0  0  0
   20.9167  -21.0307  -15.0862 C   0  0  0  0  0  0  0  0  0  0  0  0
   21.5965  -22.6548  -15.5037 S   0  0  0  0  0  0  0  0  0  0  0  0
   20.1398  -20.7595  -12.7579 C   0  0  0  0  0  0  0  0  0  0  0  0
   18.9157  -20.1554  -12.8799 O   0  0  0  0  0  0  0  0  0  0  0  0
   20.3344  -21.5295  -11.7870 O   0  0  0  0  0  0  0  0  0  0  0  0
  2  1  1  1
  2  3  1  0
  4  5  1  0
  4  2  1  0
  5  7  1  0
  5  6  1  6
  7  8  2  0
  9 10  1  0
 10 11  1  0
 11 13  1  0
 11 12  1  1
 13 14  1  6
 14  7  1  0
 15 16  2  0
 15 13  1  0
 17 15  1  0
 18 17  1  0
 18 21  1  0
 18 19  1  6
 20 19  1  0
 21 22  1  0
 23 21  2  0
M  END
$$$$
