LIC.pdb
     RDKit          3D

 23 22  0  0  1  0  0  0  0  0999 V2000
   14.6473  -24.3175   -4.2064 C   0  0  0  0  0  0  0  0  0  0  0  0
   14.9742  -25.0811   -5.5086 C   0  0  2  0  0  0  0  0  0  0  0  0
   13.6384  -25.6115   -5.9849 C   0  0  0  0  0  0  0  0  0  0  0  0
   15.9093  -26.2161   -5.2140 C   0  0  0  0  0  0  0  0  0  0  0  0
   17.2713  -25.8670   -4.7596 C   0  0  2  0  0  0  0  0  0  0  0  0
   17.9907  -25.1857   -5.8638 N   0  0  0  0  0  0  0  0  0  0  0  0
   18.1400  -26.9092   -4.2483 C   0  0  0  0  0  0  0  0  0  0  0  0
   18.8963  -27.5868   -5.0354 O   0  0  0  0  0  0  0  0  0  0  0  0
   20.9914  -26.2434    0.0693 C   0  0  0  0  0  0  0  0  0  0  0  0
   20.4947  -26.7999   -1.2352 C   0  0  0  0  0  0  0  0  0  0  0  0
   19.5785  -28.0240   -1.0338 C   0  0  2  0  0  0  0  0  0  0  0  0
   20.3460  -29.1060   -0.3437 C   0  0  0  0  0  0  0  0  0  0  0  0
   19.1195  -28.4093   -2.4432 C   0  0  2  0  0  0  0  0  0  0  0  0
   18.2613  -27.2888   -2.8859 N   0  0  0  0  0  0  0  0  0  0  0  0
   18.3778  -29.6669   -2.5043 C   0  0  0  0  0  0  0  0  0  0  0  0
   17.1078  -29.6408   -2.4314 O   0  0  0  0  0  0  0  0  0  0  0  0
   18.9811  -30.9362   -2.6441 N   0  0  0  0  0  0  0  0  0  0  0  0
   18.2227  -32.1524   -2.8737 C   0  0  1  0  0  0  0  0  0  0  0  0
   17.5961  -32.2420   -4.2246 C   0  0  0  0  0  0  0  0  0  0  0  0
   15.8778  -31.6772   -4.2766 S   0  0  0  0  0  0  0  0  0  0  0  0
   19.0415  -33.3653   -2.5673 C   0  0  0  0  0  0  0  0  0  0  0  0
   18.5455  -34.6429   -2.5566 O   0  0  0  0  0  0  0  0  0  0  0  0
   20.2559  -33.1914   -2.3057 O   0  0  0  0  0  0  0  0  0  0  0  0
  2  1  1  1
  2  3  1  0
  4  5  1  0
  4  2  1  0
  5  7  1  0
  5  6  1  6
  7  8  2  0
  9 10  1  0
 10 11  1  0
 11 13  1  0
 11 12  1  6
 13 14  1  1
 14  7  1  0
 15 16  2  0
 15 13  1  0
 17 15  1  0
 18 17  1  0
 18 21  1  0
 18 19  1  6
 20 19  1  0
 21 22  1  0
 23 21  2  0
M  END
$$$$
