LIC.pdb
     RDKit          3D

 23 22  0  0  1  0  0  0  0  0999 V2000
   18.8086   -9.6148  -14.3665 C   0  0  0  0  0  0  0  0  0  0  0  0
   17.8043  -10.5166  -13.6158 C   0  0  2  0  0  0  0  0  0  0  0  0
   17.2300  -11.4206  -14.6862 C   0  0  0  0  0  0  0  0  0  0  0  0
   16.7204   -9.6775  -13.0072 C   0  0  0  0  0  0  0  0  0  0  0  0
   17.1229   -8.7036  -11.9714 C   0  0  2  0  0  0  0  0  0  0  0  0
   17.6149   -9.4386  -10.7804 N   0  0  0  0  0  0  0  0  0  0  0  0
   16.1655   -7.7163  -11.5122 C   0  0  0  0  0  0  0  0  0  0  0  0
   15.3847   -7.1165  -12.3376 O   0  0  0  0  0  0  0  0  0  0  0  0
   13.0469   -8.7007   -7.5553 C   0  0  0  0  0  0  0  0  0  0  0  0
   13.5637   -8.0017   -8.7811 C   0  0  0  0  0  0  0  0  0  0  0  0
   14.4268   -6.7731   -8.4292 C   0  0  2  0  0  0  0  0  0  0  0  0
   13.5771   -5.7552   -7.7380 C   0  0  0  0  0  0  0  0  0  0  0  0
   14.9869   -6.2875   -9.7694 C   0  0  2  0  0  0  0  0  0  0  0  0
   15.9772   -7.3128  -10.1644 N   0  0  0  0  0  0  0  0  0  0  0  0
   15.6204   -4.9721   -9.7080 C   0  0  0  0  0  0  0  0  0  0  0  0
   16.8650   -4.8956   -9.4553 O   0  0  0  0  0  0  0  0  0  0  0  0
   14.9372   -3.7536   -9.9158 N   0  0  0  0  0  0  0  0  0  0  0  0
   15.6125   -2.4713   -9.9981 C   0  0  1  0  0  0  0  0  0  0  0  0
   16.6246   -2.3771  -11.0900 C   0  0  0  0  0  0  0  0  0  0  0  0
   15.9775   -2.7875  -12.7293 S   0  0  0  0  0  0  0  0  0  0  0  0
   14.6296   -1.3465  -10.0627 C   0  0  0  0  0  0  0  0  0  0  0  0
   14.9695   -0.0235   -9.9509 O   0  0  0  0  0  0  0  0  0  0  0  0
   13.4224   -1.6433  -10.2301 O   0  0  0  0  0  0  0  0  0  0  0  0
  2  1  1  6
  2  3  1  0
  4  5  1  0
  4  2  1  0
  5  7  1  0
  5  6  1  1
  7  8  2  0
  9 10  1  0
 10 11  1  0
 11 13  1  0
 11 12  1  6
 13 14  1  1
 14  7  1  0
 15 16  2  0
 15 13  1  0
 17 15  1  0
 18 17  1  0
 18 21  1  0
 18 19  1  6
 20 19  1  0
 21 22  1  0
 23 21  2  0
M  END
$$$$
