LIC.pdb
     RDKit          3D

 23 22  0  0  1  0  0  0  0  0999 V2000
   28.8176  -17.6463  -17.1625 C   0  0  0  0  0  0  0  0  0  0  0  0
   27.7945  -18.3718  -18.0640 C   0  0  2  0  0  0  0  0  0  0  0  0
   26.9533  -17.2608  -18.6562 C   0  0  0  0  0  0  0  0  0  0  0  0
   26.9411  -19.2852  -17.2353 C   0  0  0  0  0  0  0  0  0  0  0  0
   27.6343  -20.1693  -16.2754 C   0  0  2  0  0  0  0  0  0  0  0  0
   28.3098  -21.2593  -17.0214 N   0  0  0  0  0  0  0  0  0  0  0  0
   26.8811  -20.7783  -15.1966 C   0  0  0  0  0  0  0  0  0  0  0  0
   26.1033  -21.7777  -15.4134 O   0  0  0  0  0  0  0  0  0  0  0  0
   29.2135  -20.9355  -10.7679 C   0  0  0  0  0  0  0  0  0  0  0  0
   28.1302  -21.5139  -11.6340 C   0  0  0  0  0  0  0  0  0  0  0  0
   26.7967  -20.7544  -11.4818 C   0  0  2  0  0  0  0  0  0  0  0  0
   26.0646  -21.2779  -10.2877 C   0  0  0  0  0  0  0  0  0  0  0  0
   26.0551  -20.9911  -12.8007 C   0  0  2  0  0  0  0  0  0  0  0  0
   26.9099  -20.3718  -13.8369 N   0  0  0  0  0  0  0  0  0  0  0  0
   24.7140  -20.4122  -12.8414 C   0  0  0  0  0  0  0  0  0  0  0  0
   24.5531  -19.1980  -12.4967 O   0  0  0  0  0  0  0  0  0  0  0  0
   23.5591  -21.1169  -13.2468 N   0  0  0  0  0  0  0  0  0  0  0  0
   22.2284  -20.5377  -13.2212 C   0  0  1  0  0  0  0  0  0  0  0  0
   21.6055  -20.3657  -14.5659 C   0  0  0  0  0  0  0  0  0  0  0  0
   20.5358  -21.7386  -15.0612 S   0  0  0  0  0  0  0  0  0  0  0  0
   21.3298  -21.2898  -12.2926 C   0  0  0  0  0  0  0  0  0  0  0  0
   21.6109  -22.5353  -11.7945 O   0  0  0  0  0  0  0  0  0  0  0  0
   20.2555  -20.7374  -11.9549 O   0  0  0  0  0  0  0  0  0  0  0  0
  2  1  1  1
  2  3  1  0
  4  5  1  0
  4  2  1  0
  5  7  1  0
  5  6  1  6
  7  8  2  0
  9 10  1  0
 10 11  1  0
 11 13  1  0
 11 12  1  1
 13 14  1  6
 14  7  1  0
 15 16  2  0
 15 13  1  0
 17 15  1  0
 18 17  1  0
 18 21  1  0
 18 19  1  6
 20 19  1  0
 21 22  1  0
 23 21  2  0
M  END
$$$$
