LIC.pdb
     RDKit          3D

 23 22  0  0  1  0  0  0  0  0999 V2000
   27.0283  -12.6158  -15.6256 C   0  0  0  0  0  0  0  0  0  0  0  0
   27.1228  -11.8331  -16.9538 C   0  0  2  0  0  0  0  0  0  0  0  0
   28.5117  -11.2302  -16.9429 C   0  0  0  0  0  0  0  0  0  0  0  0
   26.0859  -10.7500  -16.9831 C   0  0  0  0  0  0  0  0  0  0  0  0
   24.6713  -11.1722  -17.0482 C   0  0  2  0  0  0  0  0  0  0  0  0
   24.4851  -12.0633  -18.2196 N   0  0  0  0  0  0  0  0  0  0  0  0
   23.6292  -10.1651  -17.0939 C   0  0  0  0  0  0  0  0  0  0  0  0
   23.3792   -9.5190  -18.1760 O   0  0  0  0  0  0  0  0  0  0  0  0
   19.0984  -11.3810  -16.5375 C   0  0  0  0  0  0  0  0  0  0  0  0
   20.0304  -10.2650  -16.9172 C   0  0  0  0  0  0  0  0  0  0  0  0
   20.4557   -9.4225  -15.6975 C   0  0  2  0  0  0  0  0  0  0  0  0
   19.3644   -8.4575  -15.3602 C   0  0  0  0  0  0  0  0  0  0  0  0
   21.7589   -8.7405  -16.1242 C   0  0  2  0  0  0  0  0  0  0  0  0
   22.7955   -9.7893  -16.0083 N   0  0  0  0  0  0  0  0  0  0  0  0
   22.1195   -7.5830  -15.3084 C   0  0  0  0  0  0  0  0  0  0  0  0
   22.3669   -7.7503  -14.0716 O   0  0  0  0  0  0  0  0  0  0  0  0
   22.2181   -6.2643  -15.8043 N   0  0  0  0  0  0  0  0  0  0  0  0
   22.5658   -5.1285  -14.9700 C   0  0  1  0  0  0  0  0  0  0  0  0
   23.7414   -4.3468  -15.4524 C   0  0  0  0  0  0  0  0  0  0  0  0
   25.2858   -5.2891  -15.4886 S   0  0  0  0  0  0  0  0  0  0  0  0
   21.3805   -4.2480  -14.7352 C   0  0  0  0  0  0  0  0  0  0  0  0
   21.2161   -3.4635  -13.6234 O   0  0  0  0  0  0  0  0  0  0  0  0
   20.4880   -4.2338  -15.6163 O   0  0  0  0  0  0  0  0  0  0  0  0
  2  1  1  1
  2  3  1  0
  4  5  1  0
  4  2  1  0
  5  7  1  0
  5  6  1  6
  7  8  2  0
  9 10  1  0
 10 11  1  0
 11 13  1  0
 11 12  1  6
 13 14  1  1
 14  7  1  0
 15 16  2  0
 15 13  1  0
 17 15  1  0
 18 17  1  0
 18 21  1  0
 18 19  1  6
 20 19  1  0
 21 22  1  0
 23 21  2  0
M  END
$$$$
