LIC.pdb
     RDKit          3D

 23 22  0  0  1  0  0  0  0  0999 V2000
   24.4659  -21.0950   -9.2936 C   0  0  0  0  0  0  0  0  0  0  0  0
   25.7774  -21.3580  -10.0658 C   0  0  2  0  0  0  0  0  0  0  0  0
   26.8206  -20.5392   -9.3350 C   0  0  0  0  0  0  0  0  0  0  0  0
   25.6407  -20.8821  -11.4814 C   0  0  0  0  0  0  0  0  0  0  0  0
   24.6476  -21.5710  -12.3315 C   0  0  2  0  0  0  0  0  0  0  0  0
   25.0370  -22.9955  -12.4743 N   0  0  0  0  0  0  0  0  0  0  0  0
   24.3686  -21.0581  -13.6586 C   0  0  0  0  0  0  0  0  0  0  0  0
   25.0438  -21.4541  -14.6775 O   0  0  0  0  0  0  0  0  0  0  0  0
   19.4458  -20.3354  -15.0150 C   0  0  0  0  0  0  0  0  0  0  0  0
   20.9045  -20.5468  -15.3074 C   0  0  0  0  0  0  0  0  0  0  0  0
   21.6748  -19.2150  -15.4150 C   0  0  2  0  0  0  0  0  0  0  0  0
   21.2924  -18.5257  -16.6857 C   0  0  0  0  0  0  0  0  0  0  0  0
   23.1537  -19.6090  -15.3592 C   0  0  2  0  0  0  0  0  0  0  0  0
   23.3651  -20.1081  -13.9829 N   0  0  0  0  0  0  0  0  0  0  0  0
   24.0734  -18.5097  -15.6436 C   0  0  0  0  0  0  0  0  0  0  0  0
   24.2844  -17.6315  -14.7475 O   0  0  0  0  0  0  0  0  0  0  0  0
   24.7619  -18.3493  -16.8663 N   0  0  0  0  0  0  0  0  0  0  0  0
   26.0603  -17.7079  -16.9656 C   0  0  1  0  0  0  0  0  0  0  0  0
   27.1080  -18.2979  -16.0826 C   0  0  0  0  0  0  0  0  0  0  0  0
   28.7682  -17.6380  -16.3700 S   0  0  0  0  0  0  0  0  0  0  0  0
   26.5187  -17.6339  -18.3869 C   0  0  0  0  0  0  0  0  0  0  0  0
   27.0949  -16.5252  -18.9502 O   0  0  0  0  0  0  0  0  0  0  0  0
   26.3617  -18.6550  -19.0983 O   0  0  0  0  0  0  0  0  0  0  0  0
  2  1  1  1
  2  3  1  0
  4  5  1  0
  4  2  1  0
  5  7  1  0
  5  6  1  6
  7  8  2  0
  9 10  1  0
 10 11  1  0
 11 13  1  0
 11 12  1  6
 13 14  1  1
 14  7  1  0
 15 16  2  0
 15 13  1  0
 17 15  1  0
 18 17  1  0
 18 21  1  0
 18 19  1  1
 20 19  1  0
 21 22  1  0
 23 21  2  0
M  END
$$$$
