YHQ.pdb
     RDKit          3D

 32 33  0  0  1  0  0  0  0  0999 V2000
   18.6802  -19.6340    9.4980 O   0  0  0  0  0  0  0  0  0  0  0  0
   17.6343  -18.7590    9.6849 C   0  0  0  0  0  0  0  0  0  0  0  0
   16.5757  -18.7779    8.8031 C   0  0  0  0  0  0  0  0  0  0  0  0
   15.5330  -17.8998    8.9961 C   0  0  0  0  0  0  0  0  0  0  0  0
   15.5554  -17.0280   10.0462 C   0  0  0  0  0  0  0  0  0  0  0  0
   14.4439  -16.0857   10.2453 C   0  0  0  0  0  0  0  0  0  0  0  0
   13.1256  -16.7239   10.5618 C   0  0  2  0  0  0  0  0  0  0  0  0
   12.0857  -15.7845   10.1348 N   0  0  0  0  0  0  0  0  0  0  0  0
   12.9970  -16.8731   12.0269 C   0  0  0  0  0  0  0  0  0  0  0  0
   12.8371  -15.8874   12.7974 O   0  0  0  0  0  0  0  0  0  0  0  0
   16.6076  -17.0003   10.9335 C   0  0  0  0  0  0  0  0  0  0  0  0
   17.6580  -17.8745   10.7514 C   0  0  0  0  0  0  0  0  0  0  0  0
   13.0466  -18.1707   12.6772 N   0  0  0  0  0  0  0  0  0  0  0  0
   12.9027  -18.3037   14.0897 C   0  0  1  0  0  0  0  0  0  0  0  0
   12.2780  -19.5884   14.4547 C   0  0  0  0  0  0  0  0  0  0  0  0
   11.9836  -19.8173   15.8656 C   0  0  0  0  0  0  0  0  0  0  0  0
   12.0118  -19.0652   16.9929 C   0  0  0  0  0  0  0  0  0  0  0  0
   11.6063  -19.7733   18.0869 N   0  0  0  0  0  0  0  0  0  0  0  0
   11.3240  -20.9931   17.6010 C   0  0  0  0  0  0  0  0  0  0  0  0
   11.5399  -21.0458   16.2821 N   0  0  0  0  0  0  0  0  0  0  0  0
   14.1741  -18.0374   14.8173 C   0  0  0  0  0  0  0  0  0  0  0  0
   15.2966  -18.3992   14.4124 O   0  0  0  0  0  0  0  0  0  0  0  0
   15.2469  -13.0170   17.6063 N   0  0  0  0  0  0  0  0  0  0  0  0
   16.3999  -13.6752   18.0984 C   0  0  0  0  0  0  0  0  0  0  0  0
   17.3258  -13.0726   18.6966 O   0  0  0  0  0  0  0  0  0  0  0  0
   16.4954  -15.1209   17.8879 C   0  0  0  0  0  0  0  0  0  0  0  0
   15.3565  -15.6395   17.0959 C   0  0  0  0  0  0  0  0  0  0  0  0
   15.3423  -17.1250   16.8385 C   0  0  2  0  0  0  0  0  0  0  0  0
   14.1048  -17.3319   16.0410 N   0  0  0  0  0  0  0  0  0  0  0  0
   15.2251  -17.8246   18.1334 C   0  0  0  0  0  0  0  0  0  0  0  0
   14.1432  -17.9097   18.7750 O   0  0  0  0  0  0  0  0  0  0  0  0
   16.3565  -18.4163   18.6669 O   0  0  0  0  0  0  0  0  0  0  0  0
  2  1  1  0
  2  3  2  0
  4  3  1  0
  5  4  2  0
  6  7  1  0
  6  5  1  0
  7  8  1  1
  9  7  1  0
  9 13  1  0
 10  9  2  0
 11 12  2  0
 11  5  1  0
 12  2  1  0
 14 15  1  6
 14 13  1  0
 16 15  1  0
 16 17  2  0
 18 17  1  0
 19 18  1  0
 20 19  2  0
 20 16  1  0
 21 14  1  0
 22 21  2  0
 23 24  1  0
 24 26  1  0
 24 25  2  0
 26 27  1  0
 28 27  1  1
 28 30  1  0
 28 29  1  0
 29 21  1  0
 30 32  1  0
 31 30  2  0
M  END
$$$$
