YHQ.pdb
     RDKit          3D

 32 33  0  0  1  0  0  0  0  0999 V2000
    5.9804  -12.0852   19.2046 O   0  0  0  0  0  0  0  0  0  0  0  0
    7.0271  -12.9437   19.4540 C   0  0  0  0  0  0  0  0  0  0  0  0
    7.2229  -13.4114   20.7351 C   0  0  0  0  0  0  0  0  0  0  0  0
    8.2717  -14.2697   20.9772 C   0  0  0  0  0  0  0  0  0  0  0  0
    9.0995  -14.6461   19.9591 C   0  0  0  0  0  0  0  0  0  0  0  0
   10.2239  -15.5569   20.2222 C   0  0  0  0  0  0  0  0  0  0  0  0
   10.5369  -16.5098   19.1091 C   0  0  2  0  0  0  0  0  0  0  0  0
    9.3915  -17.4156   18.9907 N   0  0  0  0  0  0  0  0  0  0  0  0
   11.7025  -17.3357   19.4894 C   0  0  0  0  0  0  0  0  0  0  0  0
   11.6175  -18.2934   20.3058 O   0  0  0  0  0  0  0  0  0  0  0  0
    8.9133  -14.1853   18.6753 C   0  0  0  0  0  0  0  0  0  0  0  0
    7.8666  -13.3253   18.4196 C   0  0  0  0  0  0  0  0  0  0  0  0
   13.0275  -17.0966   18.9450 N   0  0  0  0  0  0  0  0  0  0  0  0
   14.1623  -17.8361   19.3913 C   0  0  1  0  0  0  0  0  0  0  0  0
   15.2492  -17.8190   18.3951 C   0  0  0  0  0  0  0  0  0  0  0  0
   14.9310  -18.2681   17.0436 C   0  0  0  0  0  0  0  0  0  0  0  0
   14.6873  -17.6616   15.8561 C   0  0  0  0  0  0  0  0  0  0  0  0
   14.4593  -18.5665   14.8602 N   0  0  0  0  0  0  0  0  0  0  0  0
   14.5702  -19.7583   15.4692 C   0  0  0  0  0  0  0  0  0  0  0  0
   14.8506  -19.6087   16.7685 N   0  0  0  0  0  0  0  0  0  0  0  0
   14.6038  -17.4304   20.7542 C   0  0  0  0  0  0  0  0  0  0  0  0
   14.3757  -16.3118   21.2554 O   0  0  0  0  0  0  0  0  0  0  0  0
   12.3607  -19.5877   25.0141 N   0  0  0  0  0  0  0  0  0  0  0  0
   13.4455  -19.2138   25.8437 C   0  0  0  0  0  0  0  0  0  0  0  0
   13.4118  -19.3120   27.0956 O   0  0  0  0  0  0  0  0  0  0  0  0
   14.6475  -18.6915   25.1912 C   0  0  0  0  0  0  0  0  0  0  0  0
   14.5256  -18.7081   23.7153 C   0  0  0  0  0  0  0  0  0  0  0  0
   15.6475  -18.0598   22.9444 C   0  0  2  0  0  0  0  0  0  0  0  0
   15.3251  -18.3702   21.5266 N   0  0  0  0  0  0  0  0  0  0  0  0
   16.9161  -18.7135   23.3229 C   0  0  0  0  0  0  0  0  0  0  0  0
   17.4235  -19.6641   22.6683 O   0  0  0  0  0  0  0  0  0  0  0  0
   17.5803  -18.2597   24.4488 O   0  0  0  0  0  0  0  0  0  0  0  0
  2  1  1  0
  2  3  2  0
  4  3  1  0
  5  4  2  0
  6  7  1  0
  6  5  1  0
  7  8  1  1
  9  7  1  0
  9 13  1  0
 10  9  2  0
 11 12  2  0
 11  5  1  0
 12  2  1  0
 14 15  1  6
 14 13  1  0
 16 15  1  0
 16 17  2  0
 18 17  1  0
 19 18  1  0
 20 19  2  0
 20 16  1  0
 21 14  1  0
 22 21  2  0
 23 24  1  0
 24 26  1  0
 24 25  2  0
 26 27  1  0
 28 27  1  1
 28 30  1  0
 28 29  1  0
 29 21  1  0
 30 32  1  0
 31 30  2  0
M  END
$$$$
