YHQ.pdb
     RDKit          3D

 32 33  0  0  1  0  0  0  0  0999 V2000
    6.2500  -10.4239   27.7729 O   0  0  0  0  0  0  0  0  0  0  0  0
    6.5592  -11.6265   27.1790 C   0  0  0  0  0  0  0  0  0  0  0  0
    7.7255  -11.7386   26.4540 C   0  0  0  0  0  0  0  0  0  0  0  0
    8.0283  -12.9445   25.8627 C   0  0  0  0  0  0  0  0  0  0  0  0
    7.1815  -14.0066   25.9973 C   0  0  0  0  0  0  0  0  0  0  0  0
    7.5036  -15.2913   25.3579 C   0  0  0  0  0  0  0  0  0  0  0  0
    6.9448  -15.4665   23.9786 C   0  0  2  0  0  0  0  0  0  0  0  0
    5.9006  -16.4900   24.0704 N   0  0  0  0  0  0  0  0  0  0  0  0
    7.9985  -16.0037   23.0918 C   0  0  0  0  0  0  0  0  0  0  0  0
    8.1560  -17.2399   22.8973 O   0  0  0  0  0  0  0  0  0  0  0  0
    6.0136  -13.9062   26.7193 C   0  0  0  0  0  0  0  0  0  0  0  0
    5.6989  -12.7042   27.3165 C   0  0  0  0  0  0  0  0  0  0  0  0
    8.9253  -15.1384   22.3836 N   0  0  0  0  0  0  0  0  0  0  0  0
    9.9983  -15.6693   21.6087 C   0  0  1  0  0  0  0  0  0  0  0  0
   10.2876  -14.8293   20.4320 C   0  0  0  0  0  0  0  0  0  0  0  0
    9.1513  -14.3426   19.6563 C   0  0  0  0  0  0  0  0  0  0  0  0
    8.4876  -13.1656   19.5492 C   0  0  0  0  0  0  0  0  0  0  0  0
    7.4794  -13.2320   18.6318 N   0  0  0  0  0  0  0  0  0  0  0  0
    7.5388  -14.4920   18.1707 C   0  0  0  0  0  0  0  0  0  0  0  0
    8.5249  -15.1737   18.7639 N   0  0  0  0  0  0  0  0  0  0  0  0
   11.2020  -15.9649   22.4337 C   0  0  0  0  0  0  0  0  0  0  0  0
   12.2551  -15.2986   22.3919 O   0  0  0  0  0  0  0  0  0  0  0  0
   10.0834  -19.1766   27.4134 N   0  0  0  0  0  0  0  0  0  0  0  0
   11.4803  -19.0919   27.6292 C   0  0  0  0  0  0  0  0  0  0  0  0
   12.0474  -19.5983   28.6293 O   0  0  0  0  0  0  0  0  0  0  0  0
   12.2771  -18.3771   26.6306 C   0  0  0  0  0  0  0  0  0  0  0  0
   11.4483  -17.9070   25.4969 C   0  0  0  0  0  0  0  0  0  0  0  0
   12.1791  -17.2063   24.3796 C   0  0  2  0  0  0  0  0  0  0  0  0
   11.1479  -17.0674   23.3177 N   0  0  0  0  0  0  0  0  0  0  0  0
   13.2676  -18.0849   23.9072 C   0  0  0  0  0  0  0  0  0  0  0  0
   14.4708  -17.9384   24.2538 O   0  0  0  0  0  0  0  0  0  0  0  0
   12.9512  -19.1195   23.0444 O   0  0  0  0  0  0  0  0  0  0  0  0
  2  1  1  0
  2  3  2  0
  4  3  1  0
  5  4  2  0
  6  7  1  0
  6  5  1  0
  7  8  1  1
  9  7  1  0
  9 13  1  0
 10  9  2  0
 11 12  2  0
 11  5  1  0
 12  2  1  0
 14 15  1  6
 14 13  1  0
 16 15  1  0
 16 17  2  0
 18 17  1  0
 19 18  1  0
 20 19  2  0
 20 16  1  0
 21 14  1  0
 22 21  2  0
 23 24  1  0
 24 26  1  0
 24 25  2  0
 26 27  1  0
 28 27  1  1
 28 30  1  0
 28 29  1  0
 29 21  1  0
 30 32  1  0
 31 30  2  0
M  END
$$$$
