YHQ.pdb
     RDKit          3D

 32 33  0  0  1  0  0  0  0  0999 V2000
    6.8592  -10.8313   26.9873 O   0  0  0  0  0  0  0  0  0  0  0  0
    6.7500  -12.1129   26.4972 C   0  0  0  0  0  0  0  0  0  0  0  0
    7.3287  -13.1512   27.1941 C   0  0  0  0  0  0  0  0  0  0  0  0
    7.2155  -14.4304   26.6979 C   0  0  0  0  0  0  0  0  0  0  0  0
    6.5396  -14.6578   25.5340 C   0  0  0  0  0  0  0  0  0  0  0  0
    6.4271  -16.0244   25.0023 C   0  0  0  0  0  0  0  0  0  0  0  0
    6.1875  -16.1084   23.5255 C   0  0  2  0  0  0  0  0  0  0  0  0
    5.4165  -17.3315   23.2893 N   0  0  0  0  0  0  0  0  0  0  0  0
    7.4823  -16.2738   22.8316 C   0  0  0  0  0  0  0  0  0  0  0  0
    8.0224  -17.4011   22.6636 O   0  0  0  0  0  0  0  0  0  0  0  0
    5.9573  -13.6283   24.8295 C   0  0  0  0  0  0  0  0  0  0  0  0
    6.0634  -12.3426   25.3156 C   0  0  0  0  0  0  0  0  0  0  0  0
    8.2199  -15.1433   22.2958 N   0  0  0  0  0  0  0  0  0  0  0  0
    9.5137  -15.3028   21.7176 C   0  0  1  0  0  0  0  0  0  0  0  0
    9.8112  -14.2342   20.7461 C   0  0  0  0  0  0  0  0  0  0  0  0
    8.8767  -14.0501   19.6404 C   0  0  0  0  0  0  0  0  0  0  0  0
    8.0144  -13.0777   19.2558 C   0  0  0  0  0  0  0  0  0  0  0  0
    7.3727  -13.3972   18.0944 N   0  0  0  0  0  0  0  0  0  0  0  0
    7.8663  -14.6030   17.7688 C   0  0  0  0  0  0  0  0  0  0  0  0
    8.7630  -15.0140   18.6721 N   0  0  0  0  0  0  0  0  0  0  0  0
   10.5766  -15.4795   22.7451 C   0  0  0  0  0  0  0  0  0  0  0  0
   11.1282  -14.5360   23.3452 O   0  0  0  0  0  0  0  0  0  0  0  0
   11.8372  -20.0258   27.9542 N   0  0  0  0  0  0  0  0  0  0  0  0
   11.2705  -18.8732   27.3579 C   0  0  0  0  0  0  0  0  0  0  0  0
   10.1198  -18.4556   27.6400 O   0  0  0  0  0  0  0  0  0  0  0  0
   12.0794  -18.1545   26.3718 C   0  0  0  0  0  0  0  0  0  0  0  0
   11.2844  -17.7650   25.1845 C   0  0  0  0  0  0  0  0  0  0  0  0
   12.0201  -17.0126   24.1047 C   0  0  2  0  0  0  0  0  0  0  0  0
   10.9852  -16.7965   23.0594 N   0  0  0  0  0  0  0  0  0  0  0  0
   13.0915  -17.8795   23.5752 C   0  0  0  0  0  0  0  0  0  0  0  0
   14.2291  -17.9737   24.1104 O   0  0  0  0  0  0  0  0  0  0  0  0
   12.8338  -18.6253   22.4385 O   0  0  0  0  0  0  0  0  0  0  0  0
  2  1  1  0
  2  3  2  0
  4  3  1  0
  5  4  2  0
  6  7  1  0
  6  5  1  0
  7  8  1  1
  9  7  1  0
  9 13  1  0
 10  9  2  0
 11 12  2  0
 11  5  1  0
 12  2  1  0
 14 15  1  1
 14 13  1  0
 16 15  1  0
 16 17  2  0
 18 17  1  0
 19 18  1  0
 20 19  2  0
 20 16  1  0
 21 14  1  0
 22 21  2  0
 23 24  1  0
 24 26  1  0
 24 25  2  0
 26 27  1  0
 28 27  1  1
 28 30  1  0
 28 29  1  0
 29 21  1  0
 30 32  1  0
 31 30  2  0
M  END
$$$$
