YHQ.pdb
     RDKit          3D

 32 33  0  0  1  0  0  0  0  0999 V2000
    8.6493  -11.8720   27.3611 O   0  0  0  0  0  0  0  0  0  0  0  0
    8.0406  -12.9851   26.8273 C   0  0  0  0  0  0  0  0  0  0  0  0
    8.7122  -14.1882   26.8356 C   0  0  0  0  0  0  0  0  0  0  0  0
    8.0971  -15.2974   26.3000 C   0  0  0  0  0  0  0  0  0  0  0  0
    6.8426  -15.1983   25.7714 C   0  0  0  0  0  0  0  0  0  0  0  0
    6.1912  -16.3832   25.1927 C   0  0  0  0  0  0  0  0  0  0  0  0
    6.0366  -16.3529   23.7026 C   0  0  2  0  0  0  0  0  0  0  0  0
    5.3157  -17.5712   23.3256 N   0  0  0  0  0  0  0  0  0  0  0  0
    7.3723  -16.4299   23.0737 C   0  0  0  0  0  0  0  0  0  0  0  0
    7.9984  -17.5170   22.9428 O   0  0  0  0  0  0  0  0  0  0  0  0
    6.1621  -14.0016   25.7579 C   0  0  0  0  0  0  0  0  0  0  0  0
    6.7668  -12.8834   26.2912 C   0  0  0  0  0  0  0  0  0  0  0  0
    8.0533  -15.2532   22.5633 N   0  0  0  0  0  0  0  0  0  0  0  0
    9.3704  -15.3291   22.0220 C   0  0  1  0  0  0  0  0  0  0  0  0
    9.5864  -14.3174   20.9713 C   0  0  0  0  0  0  0  0  0  0  0  0
    8.6998  -14.3502   19.8126 C   0  0  0  0  0  0  0  0  0  0  0  0
    7.7161  -15.1718   19.3716 C   0  0  0  0  0  0  0  0  0  0  0  0
    7.1665  -14.7262   18.2045 N   0  0  0  0  0  0  0  0  0  0  0  0
    7.8423  -13.5976   17.9344 C   0  0  0  0  0  0  0  0  0  0  0  0
    8.7602  -13.3513   18.8755 N   0  0  0  0  0  0  0  0  0  0  0  0
   10.4196  -15.3168   23.0783 C   0  0  0  0  0  0  0  0  0  0  0  0
   10.6884  -14.3222   23.7807 O   0  0  0  0  0  0  0  0  0  0  0  0
    9.7763  -19.0920   26.9991 N   0  0  0  0  0  0  0  0  0  0  0  0
   11.0335  -18.7162   27.5311 C   0  0  0  0  0  0  0  0  0  0  0  0
   11.4370  -19.0945   28.6591 O   0  0  0  0  0  0  0  0  0  0  0  0
   11.8820  -17.8477   26.7133 C   0  0  0  0  0  0  0  0  0  0  0  0
   11.2109  -17.4465   25.4554 C   0  0  0  0  0  0  0  0  0  0  0  0
   12.0265  -16.6145   24.4983 C   0  0  2  0  0  0  0  0  0  0  0  0
   11.1556  -16.5042   23.2984 N   0  0  0  0  0  0  0  0  0  0  0  0
   13.2546  -17.3599   24.1576 C   0  0  0  0  0  0  0  0  0  0  0  0
   13.3494  -18.1056   23.1455 O   0  0  0  0  0  0  0  0  0  0  0  0
   14.3542  -17.2320   24.9879 O   0  0  0  0  0  0  0  0  0  0  0  0
  2  1  1  0
  2  3  2  0
  4  3  1  0
  5  4  2  0
  6  7  1  0
  6  5  1  0
  7  8  1  6
  9  7  1  0
  9 13  1  0
 10  9  2  0
 11 12  2  0
 11  5  1  0
 12  2  1  0
 14 15  1  6
 14 13  1  0
 16 15  1  0
 16 17  2  0
 18 17  1  0
 19 18  1  0
 20 19  2  0
 20 16  1  0
 21 14  1  0
 22 21  2  0
 23 24  1  0
 24 26  1  0
 24 25  2  0
 26 27  1  0
 28 27  1  1
 28 30  1  0
 28 29  1  0
 29 21  1  0
 30 32  1  0
 31 30  2  0
M  END
$$$$
