YHQ.pdb
     RDKit          3D

 32 33  0  0  1  0  0  0  0  0999 V2000
    5.6813  -10.7183   28.1222 O   0  0  0  0  0  0  0  0  0  0  0  0
    6.1329  -11.8194   27.4305 C   0  0  0  0  0  0  0  0  0  0  0  0
    6.7446  -12.8431   28.1207 C   0  0  0  0  0  0  0  0  0  0  0  0
    7.1937  -13.9413   27.4224 C   0  0  0  0  0  0  0  0  0  0  0  0
    7.0320  -14.0068   26.0686 C   0  0  0  0  0  0  0  0  0  0  0  0
    7.5200  -15.1777   25.3242 C   0  0  0  0  0  0  0  0  0  0  0  0
    6.4960  -15.8452   24.4576 C   0  0  2  0  0  0  0  0  0  0  0  0
    6.2389  -17.1635   25.0426 N   0  0  0  0  0  0  0  0  0  0  0  0
    7.0702  -16.0737   23.1146 C   0  0  0  0  0  0  0  0  0  0  0  0
    7.3771  -17.2229   22.6950 O   0  0  0  0  0  0  0  0  0  0  0  0
    6.4224  -12.9902   25.3686 C   0  0  0  0  0  0  0  0  0  0  0  0
    5.9680  -11.8850   26.0561 C   0  0  0  0  0  0  0  0  0  0  0  0
    7.3192  -14.9845   22.1869 N   0  0  0  0  0  0  0  0  0  0  0  0
    7.6995  -15.2284   20.8343 C   0  0  1  0  0  0  0  0  0  0  0  0
    7.3269  -14.1062   19.9534 C   0  0  0  0  0  0  0  0  0  0  0  0
    7.5950  -14.2527   18.5264 C   0  0  0  0  0  0  0  0  0  0  0  0
    7.6045  -15.2831   17.6457 C   0  0  0  0  0  0  0  0  0  0  0  0
    7.9053  -14.8683   16.3808 N   0  0  0  0  0  0  0  0  0  0  0  0
    8.0823  -13.5427   16.5045 C   0  0  0  0  0  0  0  0  0  0  0  0
    7.9033  -13.1511   17.7708 N   0  0  0  0  0  0  0  0  0  0  0  0
    9.1284  -15.6277   20.7097 C   0  0  0  0  0  0  0  0  0  0  0  0
    9.7034  -15.8256   19.6212 O   0  0  0  0  0  0  0  0  0  0  0  0
   12.0604  -17.8531   25.5688 N   0  0  0  0  0  0  0  0  0  0  0  0
   11.7065  -16.4825   25.6000 C   0  0  0  0  0  0  0  0  0  0  0  0
   11.6023  -15.8295   26.6681 O   0  0  0  0  0  0  0  0  0  0  0  0
   11.4547  -15.8194   24.3193 C   0  0  0  0  0  0  0  0  0  0  0  0
   11.6079  -16.7494   23.1769 C   0  0  0  0  0  0  0  0  0  0  0  0
   11.3099  -16.1854   21.8108 C   0  0  2  0  0  0  0  0  0  0  0  0
    9.8787  -15.7926   21.8972 N   0  0  0  0  0  0  0  0  0  0  0  0
   11.4735  -17.2612   20.8129 C   0  0  0  0  0  0  0  0  0  0  0  0
   10.5013  -17.8773   20.2984 O   0  0  0  0  0  0  0  0  0  0  0  0
   12.7550  -17.6083   20.4229 O   0  0  0  0  0  0  0  0  0  0  0  0
  2  1  1  0
  2  3  2  0
  4  3  1  0
  5  4  2  0
  6  7  1  0
  6  5  1  0
  7  8  1  1
  9  7  1  0
  9 13  1  0
 10  9  2  0
 11 12  2  0
 11  5  1  0
 12  2  1  0
 14 15  1  6
 14 13  1  0
 16 15  1  0
 16 17  2  0
 18 17  1  0
 19 18  1  0
 20 19  2  0
 20 16  1  0
 21 14  1  0
 22 21  2  0
 23 24  1  0
 24 26  1  0
 24 25  2  0
 26 27  1  0
 28 27  1  1
 28 30  1  0
 28 29  1  0
 29 21  1  0
 30 32  1  0
 31 30  2  0
M  END
$$$$
