YHQ.pdb
     RDKit          3D

 32 33  0  0  1  0  0  0  0  0999 V2000
    8.6157  -12.7195   16.4714 O   0  0  0  0  0  0  0  0  0  0  0  0
    8.1112  -13.1955   17.6603 C   0  0  0  0  0  0  0  0  0  0  0  0
    6.8813  -13.8168   17.6685 C   0  0  0  0  0  0  0  0  0  0  0  0
    6.3830  -14.2904   18.8613 C   0  0  0  0  0  0  0  0  0  0  0  0
    7.1017  -14.1428   20.0123 C   0  0  0  0  0  0  0  0  0  0  0  0
    6.5632  -14.6427   21.2864 C   0  0  0  0  0  0  0  0  0  0  0  0
    7.5061  -14.5535   22.4475 C   0  0  2  0  0  0  0  0  0  0  0  0
    8.2782  -13.3206   22.2738 N   0  0  0  0  0  0  0  0  0  0  0  0
    8.4655  -15.6762   22.3820 C   0  0  0  0  0  0  0  0  0  0  0  0
    8.1602  -16.8501   22.7280 O   0  0  0  0  0  0  0  0  0  0  0  0
    8.3314  -13.5239   20.0160 C   0  0  0  0  0  0  0  0  0  0  0  0
    8.8418  -13.0453   18.8282 C   0  0  0  0  0  0  0  0  0  0  0  0
    9.8284  -15.4995   21.9126 N   0  0  0  0  0  0  0  0  0  0  0  0
   10.7756  -16.5648   21.9526 C   0  0  1  0  0  0  0  0  0  0  0  0
   11.6225  -16.5858   20.7458 C   0  0  0  0  0  0  0  0  0  0  0  0
   11.0433  -17.1397   19.5263 C   0  0  0  0  0  0  0  0  0  0  0  0
    9.8304  -17.6270   19.1674 C   0  0  0  0  0  0  0  0  0  0  0  0
    9.8029  -18.0083   17.8573 N   0  0  0  0  0  0  0  0  0  0  0  0
   11.0415  -17.7408   17.4124 C   0  0  0  0  0  0  0  0  0  0  0  0
   11.7992  -17.2233   18.3856 N   0  0  0  0  0  0  0  0  0  0  0  0
   11.5547  -16.5841   23.2213 C   0  0  0  0  0  0  0  0  0  0  0  0
   12.2272  -15.6211   23.6397 O   0  0  0  0  0  0  0  0  0  0  0  0
    9.5566  -19.7212   27.8301 N   0  0  0  0  0  0  0  0  0  0  0  0
   10.8701  -19.6164   28.3484 C   0  0  0  0  0  0  0  0  0  0  0  0
   11.2077  -20.1071   29.4545 O   0  0  0  0  0  0  0  0  0  0  0  0
   11.8601  -18.8993   27.5429 C   0  0  0  0  0  0  0  0  0  0  0  0
   11.3151  -18.5012   26.2246 C   0  0  0  0  0  0  0  0  0  0  0  0
   12.2719  -17.8102   25.2864 C   0  0  2  0  0  0  0  0  0  0  0  0
   11.5307  -17.7654   23.9985 N   0  0  0  0  0  0  0  0  0  0  0  0
   13.4763  -18.6517   25.1407 C   0  0  0  0  0  0  0  0  0  0  0  0
   14.4858  -18.5452   25.8884 O   0  0  0  0  0  0  0  0  0  0  0  0
   13.4969  -19.6037   24.1366 O   0  0  0  0  0  0  0  0  0  0  0  0
  2  1  1  0
  2  3  2  0
  4  3  1  0
  5  4  2  0
  6  7  1  0
  6  5  1  0
  7  8  1  6
  9  7  1  0
  9 13  1  0
 10  9  2  0
 11 12  2  0
 11  5  1  0
 12  2  1  0
 14 15  1  6
 14 13  1  0
 16 15  1  0
 16 17  2  0
 18 17  1  0
 19 18  1  0
 20 19  2  0
 20 16  1  0
 21 14  1  0
 22 21  2  0
 23 24  1  0
 24 26  1  0
 24 25  2  0
 26 27  1  0
 28 27  1  1
 28 30  1  0
 28 29  1  0
 29 21  1  0
 30 32  1  0
 31 30  2  0
M  END
$$$$
