YHQ.pdb
     RDKit          3D

 32 33  0  0  1  0  0  0  0  0999 V2000
    8.8601  -12.5322   22.8511 O   0  0  0  0  0  0  0  0  0  0  0  0
    8.5079  -12.9804   21.5982 C   0  0  0  0  0  0  0  0  0  0  0  0
    8.7834  -12.1944   20.5005 C   0  0  0  0  0  0  0  0  0  0  0  0
    8.4283  -12.6491   19.2505 C   0  0  0  0  0  0  0  0  0  0  0  0
    7.8137  -13.8597   19.1096 C   0  0  0  0  0  0  0  0  0  0  0  0
    7.4283  -14.3393   17.7737 C   0  0  0  0  0  0  0  0  0  0  0  0
    8.5743  -14.7113   16.8828 C   0  0  2  0  0  0  0  0  0  0  0  0
    8.0042  -15.4043   15.7247 N   0  0  0  0  0  0  0  0  0  0  0  0
    9.4397  -15.6831   17.5841 C   0  0  0  0  0  0  0  0  0  0  0  0
    9.0474  -16.8416   17.8922 O   0  0  0  0  0  0  0  0  0  0  0  0
    7.5337  -14.6534   20.1990 C   0  0  0  0  0  0  0  0  0  0  0  0
    7.8842  -14.2097   21.4563 C   0  0  0  0  0  0  0  0  0  0  0  0
   10.8045  -15.3654   17.9657 N   0  0  0  0  0  0  0  0  0  0  0  0
   11.5988  -16.2757   18.7234 C   0  0  1  0  0  0  0  0  0  0  0  0
   12.8572  -16.6073   18.0303 C   0  0  0  0  0  0  0  0  0  0  0  0
   12.7895  -17.5701   16.9357 C   0  0  0  0  0  0  0  0  0  0  0  0
   11.8500  -18.4193   16.4525 C   0  0  0  0  0  0  0  0  0  0  0  0
   12.2971  -19.1038   15.3596 N   0  0  0  0  0  0  0  0  0  0  0  0
   13.5482  -18.6505   15.1788 C   0  0  0  0  0  0  0  0  0  0  0  0
   13.8657  -17.7372   16.1030 N   0  0  0  0  0  0  0  0  0  0  0  0
   11.7996  -15.8211   20.1269 C   0  0  0  0  0  0  0  0  0  0  0  0
   11.8438  -14.6235   20.4710 O   0  0  0  0  0  0  0  0  0  0  0  0
   12.7532  -19.4055   26.2335 N   0  0  0  0  0  0  0  0  0  0  0  0
   11.7380  -18.7588   25.4878 C   0  0  0  0  0  0  0  0  0  0  0  0
   10.5685  -19.2083   25.3956 O   0  0  0  0  0  0  0  0  0  0  0  0
   12.0907  -17.5143   24.8022 C   0  0  0  0  0  0  0  0  0  0  0  0
   11.8346  -17.5950   23.3458 C   0  0  0  0  0  0  0  0  0  0  0  0
   12.2307  -16.3909   22.5294 C   0  0  2  0  0  0  0  0  0  0  0  0
   11.9491  -16.8067   21.1301 N   0  0  0  0  0  0  0  0  0  0  0  0
   13.6794  -16.1633   22.7012 C   0  0  0  0  0  0  0  0  0  0  0  0
   14.1664  -15.5295   23.6761 O   0  0  0  0  0  0  0  0  0  0  0  0
   14.5434  -16.6716   21.7472 O   0  0  0  0  0  0  0  0  0  0  0  0
  2  1  1  0
  2  3  2  0
  4  3  1  0
  5  4  2  0
  6  7  1  0
  6  5  1  0
  7  8  1  6
  9  7  1  0
  9 13  1  0
 10  9  2  0
 11 12  2  0
 11  5  1  0
 12  2  1  0
 14 15  1  6
 14 13  1  0
 16 15  1  0
 16 17  2  0
 18 17  1  0
 19 18  1  0
 20 19  2  0
 20 16  1  0
 21 14  1  0
 22 21  2  0
 23 24  1  0
 24 26  1  0
 24 25  2  0
 26 27  1  0
 28 27  1  1
 28 30  1  0
 28 29  1  0
 29 21  1  0
 30 32  1  0
 31 30  2  0
M  END
$$$$
