YHQ.pdb
     RDKit          3D

 32 33  0  0  1  0  0  0  0  0999 V2000
    7.4484  -12.5210   16.3776 O   0  0  0  0  0  0  0  0  0  0  0  0
    7.6948  -13.0473   17.6253 C   0  0  0  0  0  0  0  0  0  0  0  0
    6.6983  -13.0183   18.5765 C   0  0  0  0  0  0  0  0  0  0  0  0
    6.9518  -13.5466   19.8223 C   0  0  0  0  0  0  0  0  0  0  0  0
    8.1731  -14.0881   20.1025 C   0  0  0  0  0  0  0  0  0  0  0  0
    8.4437  -14.6445   21.4368 C   0  0  0  0  0  0  0  0  0  0  0  0
    9.8503  -15.1145   21.6502 C   0  0  2  0  0  0  0  0  0  0  0  0
   10.2424  -15.8440   20.4417 N   0  0  0  0  0  0  0  0  0  0  0  0
    9.8750  -16.0837   22.7662 C   0  0  0  0  0  0  0  0  0  0  0  0
    9.3555  -15.8382   23.8891 O   0  0  0  0  0  0  0  0  0  0  0  0
    9.1760  -14.1227   19.1601 C   0  0  0  0  0  0  0  0  0  0  0  0
    8.9349  -13.5971   17.9086 C   0  0  0  0  0  0  0  0  0  0  0  0
   10.5020  -17.3877   22.6414 N   0  0  0  0  0  0  0  0  0  0  0  0
   10.4378  -18.3503   23.6916 C   0  0  1  0  0  0  0  0  0  0  0  0
   10.7270  -19.7106   23.2015 C   0  0  0  0  0  0  0  0  0  0  0  0
    9.7792  -20.3042   22.2639 C   0  0  0  0  0  0  0  0  0  0  0  0
    8.6040  -19.9229   21.7065 C   0  0  0  0  0  0  0  0  0  0  0  0
    8.1196  -20.8654   20.8465 N   0  0  0  0  0  0  0  0  0  0  0  0
    9.0350  -21.8473   20.8875 C   0  0  0  0  0  0  0  0  0  0  0  0
   10.0326  -21.5383   21.7231 N   0  0  0  0  0  0  0  0  0  0  0  0
   11.2595  -17.9601   24.8702 C   0  0  0  0  0  0  0  0  0  0  0  0
   12.4768  -17.6961   24.8133 O   0  0  0  0  0  0  0  0  0  0  0  0
    9.4650  -13.9968   28.5687 N   0  0  0  0  0  0  0  0  0  0  0  0
   10.4042  -14.5054   29.4983 C   0  0  0  0  0  0  0  0  0  0  0  0
   10.6024  -13.9817   30.6229 O   0  0  0  0  0  0  0  0  0  0  0  0
   11.1664  -15.6932   29.1090 C   0  0  0  0  0  0  0  0  0  0  0  0
   10.7240  -16.2284   27.8009 C   0  0  0  0  0  0  0  0  0  0  0  0
   11.4080  -17.4857   27.3269 C   0  0  2  0  0  0  0  0  0  0  0  0
   10.6213  -17.8841   26.1300 N   0  0  0  0  0  0  0  0  0  0  0  0
   11.2766  -18.5157   28.3766 C   0  0  0  0  0  0  0  0  0  0  0  0
   10.2988  -19.3085   28.4454 O   0  0  0  0  0  0  0  0  0  0  0  0
   12.2754  -18.6163   29.3291 O   0  0  0  0  0  0  0  0  0  0  0  0
  2  1  1  0
  2  3  2  0
  4  3  1  0
  5  4  2  0
  6  7  1  0
  6  5  1  0
  7  8  1  6
  9  7  1  0
  9 13  1  0
 10  9  2  0
 11 12  2  0
 11  5  1  0
 12  2  1  0
 14 15  1  6
 14 13  1  0
 16 15  1  0
 16 17  2  0
 18 17  1  0
 19 18  1  0
 20 19  2  0
 20 16  1  0
 21 14  1  0
 22 21  2  0
 23 24  1  0
 24 26  1  0
 24 25  2  0
 26 27  1  0
 28 27  1  1
 28 30  1  0
 28 29  1  0
 29 21  1  0
 30 32  1  0
 31 30  2  0
M  END
$$$$
