YHQ.pdb
     RDKit          3D

 32 33  0  0  1  0  0  0  0  0999 V2000
    7.4205  -12.1500   17.2480 O   0  0  0  0  0  0  0  0  0  0  0  0
    7.8160  -12.8985   18.3333 C   0  0  0  0  0  0  0  0  0  0  0  0
    6.9429  -13.0720   19.3851 C   0  0  0  0  0  0  0  0  0  0  0  0
    7.3453  -13.8218   20.4672 C   0  0  0  0  0  0  0  0  0  0  0  0
    8.5904  -14.3807   20.4901 C   0  0  0  0  0  0  0  0  0  0  0  0
    9.0205  -15.1746   21.6510 C   0  0  0  0  0  0  0  0  0  0  0  0
    9.4057  -16.5888   21.3397 C   0  0  2  0  0  0  0  0  0  0  0  0
    8.1879  -17.2733   20.8983 N   0  0  0  0  0  0  0  0  0  0  0  0
    9.8498  -17.2564   22.5817 C   0  0  0  0  0  0  0  0  0  0  0  0
    9.0585  -17.5284   23.5255 O   0  0  0  0  0  0  0  0  0  0  0  0
    9.4710  -14.2142   19.4450 C   0  0  0  0  0  0  0  0  0  0  0  0
    9.0802  -13.4656   18.3553 C   0  0  0  0  0  0  0  0  0  0  0  0
   11.2327  -17.6442   22.7966 N   0  0  0  0  0  0  0  0  0  0  0  0
   11.6920  -18.0963   24.0687 C   0  0  1  0  0  0  0  0  0  0  0  0
   12.9360  -18.8791   23.9515 C   0  0  0  0  0  0  0  0  0  0  0  0
   12.8542  -20.1791   23.2936 C   0  0  0  0  0  0  0  0  0  0  0  0
   11.9011  -20.8571   22.6085 C   0  0  0  0  0  0  0  0  0  0  0  0
   12.3557  -22.0653   22.1655 N   0  0  0  0  0  0  0  0  0  0  0  0
   13.6260  -22.1158   22.5984 C   0  0  0  0  0  0  0  0  0  0  0  0
   13.9475  -21.0060   23.2722 N   0  0  0  0  0  0  0  0  0  0  0  0
   11.7797  -16.9935   25.0652 C   0  0  0  0  0  0  0  0  0  0  0  0
   12.3577  -15.9091   24.8540 O   0  0  0  0  0  0  0  0  0  0  0  0
    7.6970  -13.9734   26.3065 N   0  0  0  0  0  0  0  0  0  0  0  0
    8.3210  -13.5289   27.4972 C   0  0  0  0  0  0  0  0  0  0  0  0
    7.8866  -12.5649   28.1757 O   0  0  0  0  0  0  0  0  0  0  0  0
    9.5242  -14.2382   27.9360 C   0  0  0  0  0  0  0  0  0  0  0  0
    9.8740  -15.3494   27.0215 C   0  0  0  0  0  0  0  0  0  0  0  0
   11.1621  -16.0762   27.3145 C   0  0  2  0  0  0  0  0  0  0  0  0
   11.1711  -17.1875   26.3269 N   0  0  0  0  0  0  0  0  0  0  0  0
   11.0905  -16.6248   28.6834 C   0  0  0  0  0  0  0  0  0  0  0  0
   11.2714  -15.9251   29.7163 O   0  0  0  0  0  0  0  0  0  0  0  0
   10.8097  -17.9708   28.8395 O   0  0  0  0  0  0  0  0  0  0  0  0
  2  1  1  0
  2  3  2  0
  4  3  1  0
  5  4  2  0
  6  7  1  0
  6  5  1  0
  7  8  1  1
  9  7  1  0
  9 13  1  0
 10  9  2  0
 11 12  2  0
 11  5  1  0
 12  2  1  0
 14 15  1  6
 14 13  1  0
 16 15  1  0
 16 17  2  0
 18 17  1  0
 19 18  1  0
 20 19  2  0
 20 16  1  0
 21 14  1  0
 22 21  2  0
 23 24  1  0
 24 26  1  0
 24 25  2  0
 26 27  1  0
 28 27  1  6
 28 30  1  0
 28 29  1  0
 29 21  1  0
 30 32  1  0
 31 30  2  0
M  END
$$$$
