EYT.pdb
     RDKit          3D

 29 29  0  0  1  0  0  0  0  0999 V2000
   10.7141  -16.7133   19.2667 N   0  0  0  0  0  0  0  0  0  0  0  0
   10.6877  -17.5935   20.4432 C   0  0  1  0  0  0  0  0  0  0  0  0
   12.0243  -18.2782   20.5027 C   0  0  0  0  0  0  0  0  0  0  0  0
   12.3645  -19.1112   19.3249 C   0  0  0  0  0  0  0  0  0  0  0  0
   13.6209  -19.8398   19.5032 C   0  0  0  0  0  0  0  0  0  0  0  0
   14.4564  -19.9785   18.5915 O   0  0  0  0  0  0  0  0  0  0  0  0
   10.5211  -16.7848   21.6791 C   0  0  0  0  0  0  0  0  0  0  0  0
   11.3114  -15.8326   21.8702 O   0  0  0  0  0  0  0  0  0  0  0  0
   13.9485  -20.4262   20.7307 O   0  0  0  0  0  0  0  0  0  0  0  0
    7.3473  -12.3263   19.1327 O   0  0  0  0  0  0  0  0  0  0  0  0
    7.4667  -13.1768   20.2223 C   0  0  0  0  0  0  0  0  0  0  0  0
    7.0174  -14.4672   20.2598 C   0  0  0  0  0  0  0  0  0  0  0  0
    7.1634  -15.2688   21.3730 C   0  0  0  0  0  0  0  0  0  0  0  0
    7.7715  -14.7936   22.4931 C   0  0  0  0  0  0  0  0  0  0  0  0
    7.9824  -15.5596   23.7341 C   0  0  0  0  0  0  0  0  0  0  0  0
    9.2692  -16.3245   23.7578 C   0  0  2  0  0  0  0  0  0  0  0  0
    9.4872  -17.1136   22.5878 N   0  0  0  0  0  0  0  0  0  0  0  0
    9.2401  -17.1849   24.9952 C   0  0  0  0  0  0  0  0  0  0  0  0
    8.2036  -17.8280   25.3198 O   0  0  0  0  0  0  0  0  0  0  0  0
    8.2314  -13.4896   22.4699 C   0  0  0  0  0  0  0  0  0  0  0  0
    8.0884  -12.6797   21.3571 C   0  0  0  0  0  0  0  0  0  0  0  0
   11.8896  -19.8545   25.5923 C   0  0  0  0  0  0  0  0  0  0  0  0
   11.7897  -19.0152   26.8515 C   0  0  1  0  0  0  0  0  0  0  0  0
   12.8560  -18.1499   26.9117 O   0  0  0  0  0  0  0  0  0  0  0  0
   10.4713  -18.2686   26.8761 C   0  0  2  0  0  0  0  0  0  0  0  0
   10.3893  -17.2874   25.8240 N   0  0  0  0  0  0  0  0  0  0  0  0
   10.3216  -17.5891   28.1839 C   0  0  0  0  0  0  0  0  0  0  0  0
   10.3490  -18.2990   29.3897 O   0  0  0  0  0  0  0  0  0  0  0  0
   10.1662  -16.3550   28.2374 O   0  0  0  0  0  0  0  0  0  0  0  0
  2  1  1  6
  3  2  1  0
  4  3  1  0
  4  5  1  0
  5  9  1  0
  5  6  2  0
  7  2  1  0
  7  8  2  0
 10 11  1  0
 11 12  2  0
 12 13  1  0
 14 13  2  0
 14 15  1  0
 16 15  1  6
 16 17  1  0
 17  7  1  0
 18 16  1  0
 19 18  2  0
 20 14  1  0
 21 11  1  0
 21 20  2  0
 23 22  1  6
 23 25  1  0
 24 23  1  0
 25 27  1  0
 25 26  1  6
 26 18  1  0
 27 28  1  0
 29 27  2  0
M  END
$$$$
