EYT.pdb
     RDKit          3D

 29 29  0  0  1  0  0  0  0  0999 V2000
   11.3882  -16.3994   19.4678 N   0  0  0  0  0  0  0  0  0  0  0  0
   10.4678  -17.0944   20.3786 C   0  0  1  0  0  0  0  0  0  0  0  0
   11.1382  -18.3797   20.7753 C   0  0  0  0  0  0  0  0  0  0  0  0
   11.1239  -19.4474   19.7474 C   0  0  0  0  0  0  0  0  0  0  0  0
   10.9957  -20.7820   20.3336 C   0  0  0  0  0  0  0  0  0  0  0  0
   10.0474  -21.5450   20.0747 O   0  0  0  0  0  0  0  0  0  0  0  0
   10.2546  -16.2805   21.6038 C   0  0  0  0  0  0  0  0  0  0  0  0
   11.2309  -15.6484   22.0676 O   0  0  0  0  0  0  0  0  0  0  0  0
   11.9515  -21.2727   21.2300 O   0  0  0  0  0  0  0  0  0  0  0  0
    6.3305  -11.9004   28.1127 O   0  0  0  0  0  0  0  0  0  0  0  0
    6.5482  -12.6642   26.9752 C   0  0  0  0  0  0  0  0  0  0  0  0
    6.0493  -13.9200   26.7694 C   0  0  0  0  0  0  0  0  0  0  0  0
    6.2989  -14.6349   25.6162 C   0  0  0  0  0  0  0  0  0  0  0  0
    7.0647  -14.1043   24.6251 C   0  0  0  0  0  0  0  0  0  0  0  0
    7.3932  -14.7752   23.3550 C   0  0  0  0  0  0  0  0  0  0  0  0
    8.7280  -15.4533   23.3603 C   0  0  2  0  0  0  0  0  0  0  0  0
    8.9709  -16.2472   22.1985 N   0  0  0  0  0  0  0  0  0  0  0  0
    8.7842  -16.2914   24.6120 C   0  0  0  0  0  0  0  0  0  0  0  0
    7.8728  -17.1210   24.8845 O   0  0  0  0  0  0  0  0  0  0  0  0
    7.5763  -12.8342   24.8192 C   0  0  0  0  0  0  0  0  0  0  0  0
    7.3303  -12.1113   25.9732 C   0  0  0  0  0  0  0  0  0  0  0  0
   11.4632  -18.7020   25.2765 C   0  0  0  0  0  0  0  0  0  0  0  0
   11.4309  -17.7845   26.4836 C   0  0  1  0  0  0  0  0  0  0  0  0
   12.4491  -16.8661   26.3891 O   0  0  0  0  0  0  0  0  0  0  0  0
   10.0811  -17.1032   26.5835 C   0  0  2  0  0  0  0  0  0  0  0  0
    9.8740  -16.1604   25.5138 N   0  0  0  0  0  0  0  0  0  0  0  0
    9.9902  -16.3916   27.8797 C   0  0  0  0  0  0  0  0  0  0  0  0
    9.8263  -15.0033   27.9472 O   0  0  0  0  0  0  0  0  0  0  0  0
   10.0587  -17.0233   28.9503 O   0  0  0  0  0  0  0  0  0  0  0  0
  2  1  1  6
  3  2  1  0
  4  3  1  0
  4  5  1  0
  5  9  1  0
  5  6  2  0
  7  2  1  0
  7  8  2  0
 10 11  1  0
 11 12  2  0
 12 13  1  0
 14 13  2  0
 14 15  1  0
 16 15  1  6
 16 17  1  0
 17  7  1  0
 18 16  1  0
 19 18  2  0
 20 14  1  0
 21 11  1  0
 21 20  2  0
 23 22  1  6
 23 25  1  0
 24 23  1  0
 25 27  1  0
 25 26  1  6
 26 18  1  0
 27 28  1  0
 29 27  2  0
M  END
$$$$
