EYT.pdb
     RDKit          3D

 29 29  0  0  1  0  0  0  0  0999 V2000
   12.7497  -17.3528   20.9558 N   0  0  0  0  0  0  0  0  0  0  0  0
   11.3165  -17.6763   20.9257 C   0  0  1  0  0  0  0  0  0  0  0  0
   11.2096  -19.1451   20.6254 C   0  0  0  0  0  0  0  0  0  0  0  0
   11.9283  -19.5994   19.4114 C   0  0  0  0  0  0  0  0  0  0  0  0
   11.7771  -21.0365   19.1807 C   0  0  0  0  0  0  0  0  0  0  0  0
   11.9895  -21.8881   20.0629 O   0  0  0  0  0  0  0  0  0  0  0  0
   10.7111  -17.4265   22.2599 C   0  0  0  0  0  0  0  0  0  0  0  0
    9.5356  -17.8115   22.4541 O   0  0  0  0  0  0  0  0  0  0  0  0
   11.3793  -21.5305   17.9335 O   0  0  0  0  0  0  0  0  0  0  0  0
    9.8903  -15.3190   30.7309 O   0  0  0  0  0  0  0  0  0  0  0  0
   10.3378  -15.3357   29.4178 C   0  0  0  0  0  0  0  0  0  0  0  0
   10.2241  -14.2943   28.5397 C   0  0  0  0  0  0  0  0  0  0  0  0
   10.6880  -14.3669   27.2425 C   0  0  0  0  0  0  0  0  0  0  0  0
   11.2861  -15.4992   26.7838 C   0  0  0  0  0  0  0  0  0  0  0  0
   11.8185  -15.6860   25.4226 C   0  0  0  0  0  0  0  0  0  0  0  0
   10.8854  -16.4150   24.5063 C   0  0  2  0  0  0  0  0  0  0  0  0
   11.4740  -16.7699   23.2547 N   0  0  0  0  0  0  0  0  0  0  0  0
    9.6862  -15.5233   24.3088 C   0  0  0  0  0  0  0  0  0  0  0  0
    9.8139  -14.3394   23.8901 O   0  0  0  0  0  0  0  0  0  0  0  0
   11.4083  -16.5613   27.6611 C   0  0  0  0  0  0  0  0  0  0  0  0
   10.9454  -16.4957   28.9634 C   0  0  0  0  0  0  0  0  0  0  0  0
    7.6185  -14.2506   22.2294 C   0  0  0  0  0  0  0  0  0  0  0  0
    6.6798  -15.0575   23.1057 C   0  0  1  0  0  0  0  0  0  0  0  0
    6.5041  -16.3070   22.5607 O   0  0  0  0  0  0  0  0  0  0  0  0
    7.2284  -15.1428   24.5156 C   0  0  2  0  0  0  0  0  0  0  0  0
    8.3804  -16.0050   24.5931 N   0  0  0  0  0  0  0  0  0  0  0  0
    6.1740  -15.6624   25.4171 C   0  0  0  0  0  0  0  0  0  0  0  0
    6.3388  -16.8537   26.1328 O   0  0  0  0  0  0  0  0  0  0  0  0
    5.1047  -15.0407   25.5584 O   0  0  0  0  0  0  0  0  0  0  0  0
  2  1  1  1
  3  2  1  0
  4  3  1  0
  4  5  1  0
  5  9  1  0
  5  6  2  0
  7  2  1  0
  7  8  2  0
 10 11  1  0
 11 12  2  0
 12 13  1  0
 14 13  2  0
 14 15  1  0
 16 15  1  1
 16 17  1  0
 17  7  1  0
 18 16  1  0
 19 18  2  0
 20 14  1  0
 21 11  1  0
 21 20  2  0
 23 22  1  6
 23 25  1  0
 24 23  1  0
 25 27  1  0
 25 26  1  6
 26 18  1  0
 27 28  1  0
 29 27  2  0
M  END
$$$$
