EYT.pdb
     RDKit          3D

 29 29  0  0  1  0  0  0  0  0999 V2000
    9.0644  -16.8939   19.2171 N   0  0  0  0  0  0  0  0  0  0  0  0
   10.1064  -17.2305   20.1971 C   0  0  1  0  0  0  0  0  0  0  0  0
   11.4274  -16.9318   19.5455 C   0  0  0  0  0  0  0  0  0  0  0  0
   12.0663  -18.0747   18.8511 C   0  0  0  0  0  0  0  0  0  0  0  0
   13.4814  -18.2147   19.1964 C   0  0  0  0  0  0  0  0  0  0  0  0
   13.9289  -19.1877   19.8300 O   0  0  0  0  0  0  0  0  0  0  0  0
    9.9717  -16.3666   21.3989 C   0  0  0  0  0  0  0  0  0  0  0  0
   10.9980  -15.7926   21.8290 O   0  0  0  0  0  0  0  0  0  0  0  0
   14.4161  -17.2424   18.8235 O   0  0  0  0  0  0  0  0  0  0  0  0
    6.6187  -11.4797   27.8488 O   0  0  0  0  0  0  0  0  0  0  0  0
    6.7311  -12.3266   26.7557 C   0  0  0  0  0  0  0  0  0  0  0  0
    6.2537  -13.6064   26.7060 C   0  0  0  0  0  0  0  0  0  0  0  0
    6.3943  -14.4051   25.5899 C   0  0  0  0  0  0  0  0  0  0  0  0
    7.0249  -13.9374   24.4792 C   0  0  0  0  0  0  0  0  0  0  0  0
    7.2291  -14.6998   23.2349 C   0  0  0  0  0  0  0  0  0  0  0  0
    8.5448  -15.4116   23.1744 C   0  0  2  0  0  0  0  0  0  0  0  0
    8.7033  -16.2228   22.0100 N   0  0  0  0  0  0  0  0  0  0  0  0
    8.6491  -16.2386   24.4304 C   0  0  0  0  0  0  0  0  0  0  0  0
    7.7731  -17.0999   24.7204 O   0  0  0  0  0  0  0  0  0  0  0  0
    7.5131  -12.6440   24.5148 C   0  0  0  0  0  0  0  0  0  0  0  0
    7.3759  -11.8372   25.6305 C   0  0  0  0  0  0  0  0  0  0  0  0
   11.2451  -18.6492   25.1211 C   0  0  0  0  0  0  0  0  0  0  0  0
   11.2915  -17.6900   26.2949 C   0  0  1  0  0  0  0  0  0  0  0  0
   12.3362  -16.8123   26.1289 O   0  0  0  0  0  0  0  0  0  0  0  0
    9.9708  -16.9580   26.4213 C   0  0  2  0  0  0  0  0  0  0  0  0
    9.7452  -16.0609   25.3165 N   0  0  0  0  0  0  0  0  0  0  0  0
    9.9636  -16.1822   27.6834 C   0  0  0  0  0  0  0  0  0  0  0  0
   10.0952  -16.8040   28.9303 O   0  0  0  0  0  0  0  0  0  0  0  0
    9.8388  -14.9438   27.6598 O   0  0  0  0  0  0  0  0  0  0  0  0
  2  1  1  6
  3  2  1  0
  4  3  1  0
  4  5  1  0
  5  9  1  0
  5  6  2  0
  7  2  1  0
  7  8  2  0
 10 11  1  0
 11 12  2  0
 12 13  1  0
 14 13  2  0
 14 15  1  0
 16 15  1  6
 16 17  1  0
 17  7  1  0
 18 16  1  0
 19 18  2  0
 20 14  1  0
 21 11  1  0
 21 20  2  0
 23 22  1  6
 23 25  1  0
 24 23  1  0
 25 27  1  0
 25 26  1  6
 26 18  1  0
 27 28  1  0
 29 27  2  0
M  END
$$$$
