EYT.pdb
     RDKit          3D

 29 29  0  0  1  0  0  0  0  0999 V2000
   10.7194  -16.8494   19.3702 N   0  0  0  0  0  0  0  0  0  0  0  0
    9.4117  -16.9540   20.0325 C   0  0  1  0  0  0  0  0  0  0  0  0
    9.1603  -18.4170   20.2675 C   0  0  0  0  0  0  0  0  0  0  0  0
   10.3287  -19.3043   20.0570 C   0  0  0  0  0  0  0  0  0  0  0  0
    9.9902  -20.7183   20.2228 C   0  0  0  0  0  0  0  0  0  0  0  0
    8.8375  -21.1112   20.4785 O   0  0  0  0  0  0  0  0  0  0  0  0
    9.4538  -16.2689   21.3508 C   0  0  0  0  0  0  0  0  0  0  0  0
   10.5539  -16.2035   21.9451 O   0  0  0  0  0  0  0  0  0  0  0  0
   10.9652  -21.7143   20.0994 O   0  0  0  0  0  0  0  0  0  0  0  0
    7.3537  -11.4185   28.3185 O   0  0  0  0  0  0  0  0  0  0  0  0
    7.2365  -12.1396   27.1392 C   0  0  0  0  0  0  0  0  0  0  0  0
    6.3855  -13.1920   26.9476 C   0  0  0  0  0  0  0  0  0  0  0  0
    6.3110  -13.8741   25.7507 C   0  0  0  0  0  0  0  0  0  0  0  0
    7.0968  -13.5159   24.6999 C   0  0  0  0  0  0  0  0  0  0  0  0
    7.0989  -14.1705   23.3798 C   0  0  0  0  0  0  0  0  0  0  0  0
    8.2655  -15.0834   23.1625 C   0  0  2  0  0  0  0  0  0  0  0  0
    8.2636  -15.7197   21.8842 N   0  0  0  0  0  0  0  0  0  0  0  0
    8.2342  -16.1001   24.2751 C   0  0  0  0  0  0  0  0  0  0  0  0
    7.2123  -16.8115   24.4817 O   0  0  0  0  0  0  0  0  0  0  0  0
    7.9628  -12.4527   24.8789 C   0  0  0  0  0  0  0  0  0  0  0  0
    8.0431  -11.7639   26.0764 C   0  0  0  0  0  0  0  0  0  0  0  0
    9.8277  -19.1978   24.5847 C   0  0  0  0  0  0  0  0  0  0  0  0
   10.3535  -18.4190   25.7750 C   0  0  1  0  0  0  0  0  0  0  0  0
   11.6061  -17.9318   25.4873 O   0  0  0  0  0  0  0  0  0  0  0  0
    9.3946  -17.3005   26.1299 C   0  0  2  0  0  0  0  0  0  0  0  0
    9.3648  -16.2761   25.1170 N   0  0  0  0  0  0  0  0  0  0  0  0
    9.8081  -16.6956   27.4174 C   0  0  0  0  0  0  0  0  0  0  0  0
    9.8001  -17.4271   28.6105 O   0  0  0  0  0  0  0  0  0  0  0  0
   10.1766  -15.5074   27.4646 O   0  0  0  0  0  0  0  0  0  0  0  0
  2  1  1  1
  3  2  1  0
  4  3  1  0
  4  5  1  0
  5  9  1  0
  5  6  2  0
  7  2  1  0
  7  8  2  0
 10 11  1  0
 11 12  2  0
 12 13  1  0
 14 13  2  0
 14 15  1  0
 16 15  1  6
 16 17  1  0
 17  7  1  0
 18 16  1  0
 19 18  2  0
 20 14  1  0
 21 11  1  0
 21 20  2  0
 23 22  1  6
 23 25  1  0
 24 23  1  0
 25 27  1  0
 25 26  1  6
 26 18  1  0
 27 28  1  0
 29 27  2  0
M  END
$$$$
