EYT.pdb
     RDKit          3D

 29 29  0  0  1  0  0  0  0  0999 V2000
    9.4249  -15.5516   19.2986 N   0  0  0  0  0  0  0  0  0  0  0  0
    8.3863  -15.8798   20.2850 C   0  0  1  0  0  0  0  0  0  0  0  0
    8.1631  -17.3638   20.2024 C   0  0  0  0  0  0  0  0  0  0  0  0
    7.5503  -17.8449   18.9415 C   0  0  0  0  0  0  0  0  0  0  0  0
    7.2076  -19.2664   18.9967 C   0  0  0  0  0  0  0  0  0  0  0  0
    8.0652  -20.1681   19.0054 O   0  0  0  0  0  0  0  0  0  0  0  0
    8.8649  -15.5544   21.6540 C   0  0  0  0  0  0  0  0  0  0  0  0
   10.0552  -15.8182   21.9394 O   0  0  0  0  0  0  0  0  0  0  0  0
    5.8739  -19.6872   19.0431 O   0  0  0  0  0  0  0  0  0  0  0  0
    9.2076  -12.7811   29.9538 O   0  0  0  0  0  0  0  0  0  0  0  0
    8.7170  -13.0869   28.6926 C   0  0  0  0  0  0  0  0  0  0  0  0
    7.6555  -13.9119   28.4456 C   0  0  0  0  0  0  0  0  0  0  0  0
    7.2101  -14.1811   27.1679 C   0  0  0  0  0  0  0  0  0  0  0  0
    7.8236  -13.6239   26.0893 C   0  0  0  0  0  0  0  0  0  0  0  0
    7.4323  -13.8394   24.6852 C   0  0  0  0  0  0  0  0  0  0  0  0
    8.3723  -14.7249   23.9276 C   0  0  2  0  0  0  0  0  0  0  0  0
    7.9705  -14.9642   22.5784 N   0  0  0  0  0  0  0  0  0  0  0  0
    8.4720  -16.0149   24.7012 C   0  0  0  0  0  0  0  0  0  0  0  0
    7.4550  -16.7333   24.9080 O   0  0  0  0  0  0  0  0  0  0  0  0
    8.8992  -12.7869   26.3239 C   0  0  0  0  0  0  0  0  0  0  0  0
    9.3516  -12.5123   27.6024 C   0  0  0  0  0  0  0  0  0  0  0  0
   10.0831  -18.9813   23.6788 C   0  0  0  0  0  0  0  0  0  0  0  0
   10.7604  -18.6565   24.9962 C   0  0  1  0  0  0  0  0  0  0  0  0
   11.9853  -18.0822   24.7529 O   0  0  0  0  0  0  0  0  0  0  0  0
    9.8780  -17.7441   25.8240 C   0  0  2  0  0  0  0  0  0  0  0  0
    9.7238  -16.4474   25.2150 N   0  0  0  0  0  0  0  0  0  0  0  0
   10.4761  -17.5786   27.1692 C   0  0  0  0  0  0  0  0  0  0  0  0
   10.9260  -16.3348   27.6267 O   0  0  0  0  0  0  0  0  0  0  0  0
   10.5920  -18.5565   27.9308 O   0  0  0  0  0  0  0  0  0  0  0  0
  2  1  1  6
  3  2  1  0
  4  3  1  0
  4  5  1  0
  5  9  1  0
  5  6  2  0
  7  2  1  0
  7  8  2  0
 10 11  1  0
 11 12  2  0
 12 13  1  0
 14 13  2  0
 14 15  1  0
 16 15  1  1
 16 17  1  0
 17  7  1  0
 18 16  1  0
 19 18  2  0
 20 14  1  0
 21 11  1  0
 21 20  2  0
 23 22  1  6
 23 25  1  0
 24 23  1  0
 25 27  1  0
 25 26  1  6
 26 18  1  0
 27 28  1  0
 29 27  2  0
M  END
$$$$
