EYT.pdb
     RDKit          3D

 29 29  0  0  1  0  0  0  0  0999 V2000
   10.7755  -16.5117   19.0587 N   0  0  0  0  0  0  0  0  0  0  0  0
    9.6327  -17.0145   19.8338 C   0  0  1  0  0  0  0  0  0  0  0  0
    9.8335  -18.4956   19.9915 C   0  0  0  0  0  0  0  0  0  0  0  0
    9.0265  -19.3463   19.0850 C   0  0  0  0  0  0  0  0  0  0  0  0
    9.8425  -20.3300   18.3724 C   0  0  0  0  0  0  0  0  0  0  0  0
    9.7498  -20.5235   17.1466 O   0  0  0  0  0  0  0  0  0  0  0  0
    9.6247  -16.3971   21.1858 C   0  0  0  0  0  0  0  0  0  0  0  0
   10.7017  -16.3632   21.8236 O   0  0  0  0  0  0  0  0  0  0  0  0
   10.7833  -21.1147   19.0485 O   0  0  0  0  0  0  0  0  0  0  0  0
    6.7801  -11.8697   28.2217 O   0  0  0  0  0  0  0  0  0  0  0  0
    6.9458  -12.4114   26.9553 C   0  0  0  0  0  0  0  0  0  0  0  0
    7.8846  -12.0061   26.0482 C   0  0  0  0  0  0  0  0  0  0  0  0
    8.0041  -12.5820   24.8003 C   0  0  0  0  0  0  0  0  0  0  0  0
    7.1759  -13.5926   24.4224 C   0  0  0  0  0  0  0  0  0  0  0  0
    7.2150  -14.2796   23.1194 C   0  0  0  0  0  0  0  0  0  0  0  0
    8.3947  -15.1863   22.9524 C   0  0  2  0  0  0  0  0  0  0  0  0
    8.4149  -15.8741   21.7012 N   0  0  0  0  0  0  0  0  0  0  0  0
    8.3626  -16.1573   24.1051 C   0  0  0  0  0  0  0  0  0  0  0  0
    7.3876  -16.9414   24.2722 O   0  0  0  0  0  0  0  0  0  0  0  0
    6.2209  -14.0135   25.3298 C   0  0  0  0  0  0  0  0  0  0  0  0
    6.0951  -13.4406   26.5831 C   0  0  0  0  0  0  0  0  0  0  0  0
    9.9379  -19.1134   24.5186 C   0  0  0  0  0  0  0  0  0  0  0  0
   10.4638  -18.3274   25.7042 C   0  0  1  0  0  0  0  0  0  0  0  0
   11.7121  -17.8334   25.4096 O   0  0  0  0  0  0  0  0  0  0  0  0
    9.4995  -17.2138   26.0594 C   0  0  2  0  0  0  0  0  0  0  0  0
    9.4389  -16.2065   25.0309 N   0  0  0  0  0  0  0  0  0  0  0  0
    9.9307  -16.5836   27.3288 C   0  0  0  0  0  0  0  0  0  0  0  0
    9.9701  -17.3004   28.5302 O   0  0  0  0  0  0  0  0  0  0  0  0
   10.2718  -15.3866   27.3527 O   0  0  0  0  0  0  0  0  0  0  0  0
  2  1  1  6
  3  2  1  0
  4  3  1  0
  4  5  1  0
  5  9  1  0
  5  6  2  0
  7  2  1  0
  7  8  2  0
 10 11  1  0
 11 12  2  0
 12 13  1  0
 14 13  2  0
 14 15  1  0
 16 15  1  6
 16 17  1  0
 17  7  1  0
 18 16  1  0
 19 18  2  0
 20 14  1  0
 21 11  1  0
 21 20  2  0
 23 22  1  6
 23 25  1  0
 24 23  1  0
 25 27  1  0
 25 26  1  6
 26 18  1  0
 27 28  1  0
 29 27  2  0
M  END
$$$$
