EYT.pdb
     RDKit          3D

 29 29  0  0  1  0  0  0  0  0999 V2000
    5.6674  -19.2344   20.2761 N   0  0  0  0  0  0  0  0  0  0  0  0
    6.0342  -19.3937   21.6902 C   0  0  1  0  0  0  0  0  0  0  0  0
    7.0891  -20.4626   21.7469 C   0  0  0  0  0  0  0  0  0  0  0  0
    6.6960  -21.7740   21.1791 C   0  0  0  0  0  0  0  0  0  0  0  0
    7.7309  -22.7922   21.3624 C   0  0  0  0  0  0  0  0  0  0  0  0
    7.6050  -23.9632   20.9604 O   0  0  0  0  0  0  0  0  0  0  0  0
    6.6206  -18.1300   22.2083 C   0  0  0  0  0  0  0  0  0  0  0  0
    7.3405  -17.4557   21.4370 O   0  0  0  0  0  0  0  0  0  0  0  0
    8.9339  -22.4917   22.0109 O   0  0  0  0  0  0  0  0  0  0  0  0
    8.4213  -11.2358   27.3389 O   0  0  0  0  0  0  0  0  0  0  0  0
    7.8249  -12.3568   26.7801 C   0  0  0  0  0  0  0  0  0  0  0  0
    6.8579  -12.3285   25.8144 C   0  0  0  0  0  0  0  0  0  0  0  0
    6.2988  -13.4774   25.2941 C   0  0  0  0  0  0  0  0  0  0  0  0
    6.6984  -14.7014   25.7324 C   0  0  0  0  0  0  0  0  0  0  0  0
    6.1729  -15.9897   25.2474 C   0  0  0  0  0  0  0  0  0  0  0  0
    6.9243  -16.5439   24.0770 C   0  0  2  0  0  0  0  0  0  0  0  0
    6.3490  -17.7353   23.5399 N   0  0  0  0  0  0  0  0  0  0  0  0
    8.3373  -16.7858   24.5433 C   0  0  0  0  0  0  0  0  0  0  0  0
    8.6156  -17.7451   25.3151 O   0  0  0  0  0  0  0  0  0  0  0  0
    7.6762  -14.7458   26.7093 C   0  0  0  0  0  0  0  0  0  0  0  0
    8.2415  -13.5978   27.2360 C   0  0  0  0  0  0  0  0  0  0  0  0
   13.0071  -16.1525   23.0758 C   0  0  0  0  0  0  0  0  0  0  0  0
   11.5412  -15.7823   22.9573 C   0  0  1  0  0  0  0  0  0  0  0  0
   11.0533  -16.2218   21.7498 O   0  0  0  0  0  0  0  0  0  0  0  0
   10.7606  -16.3712   24.1150 C   0  0  2  0  0  0  0  0  0  0  0  0
    9.3887  -15.9305   24.1180 N   0  0  0  0  0  0  0  0  0  0  0  0
   11.4009  -15.9677   25.3885 C   0  0  0  0  0  0  0  0  0  0  0  0
   10.7836  -15.0753   26.2723 O   0  0  0  0  0  0  0  0  0  0  0  0
   12.5170  -16.4211   25.7027 O   0  0  0  0  0  0  0  0  0  0  0  0
  2  1  1  6
  3  2  1  0
  4  3  1  0
  4  5  1  0
  5  9  1  0
  5  6  2  0
  7  2  1  0
  7  8  2  0
 10 11  1  0
 11 12  2  0
 12 13  1  0
 14 13  2  0
 14 15  1  0
 16 15  1  1
 16 17  1  0
 17  7  1  0
 18 16  1  0
 19 18  2  0
 20 14  1  0
 21 11  1  0
 21 20  2  0
 23 22  1  1
 23 25  1  0
 24 23  1  0
 25 27  1  0
 25 26  1  1
 26 18  1  0
 27 28  1  0
 29 27  2  0
M  END
$$$$
