EYT.pdb
     RDKit          3D

 29 29  0  0  1  0  0  0  0  0999 V2000
    8.0817  -12.6775   19.3422 N   0  0  0  0  0  0  0  0  0  0  0  0
    7.3550  -13.5369   20.2870 C   0  0  1  0  0  0  0  0  0  0  0  0
    7.1969  -14.8756   19.6223 C   0  0  0  0  0  0  0  0  0  0  0  0
    8.4029  -15.3871   18.9290 C   0  0  0  0  0  0  0  0  0  0  0  0
    8.1834  -16.7040   18.3300 C   0  0  0  0  0  0  0  0  0  0  0  0
    7.0490  -17.1582   18.0943 O   0  0  0  0  0  0  0  0  0  0  0  0
    8.1558  -13.7213   21.5255 C   0  0  0  0  0  0  0  0  0  0  0  0
    9.4029  -13.6539   21.4352 O   0  0  0  0  0  0  0  0  0  0  0  0
    9.2591  -17.5307   17.9873 O   0  0  0  0  0  0  0  0  0  0  0  0
   10.4281  -14.6261   29.9668 O   0  0  0  0  0  0  0  0  0  0  0  0
    9.7296  -14.3923   28.7911 C   0  0  0  0  0  0  0  0  0  0  0  0
    9.8005  -13.2428   28.0550 C   0  0  0  0  0  0  0  0  0  0  0  0
    9.0817  -13.0647   26.8910 C   0  0  0  0  0  0  0  0  0  0  0  0
    8.2620  -14.0460   26.4268 C   0  0  0  0  0  0  0  0  0  0  0  0
    7.4521  -13.9648   25.1986 C   0  0  0  0  0  0  0  0  0  0  0  0
    8.2334  -14.2099   23.9452 C   0  0  2  0  0  0  0  0  0  0  0  0
    7.4906  -13.9639   22.7508 N   0  0  0  0  0  0  0  0  0  0  0  0
    8.7102  -15.6388   24.0033 C   0  0  0  0  0  0  0  0  0  0  0  0
    7.9007  -16.6023   23.9063 O   0  0  0  0  0  0  0  0  0  0  0  0
    8.1802  -15.2150   27.1612 C   0  0  0  0  0  0  0  0  0  0  0  0
    8.8981  -15.4007   28.3295 C   0  0  0  0  0  0  0  0  0  0  0  0
   12.3212  -18.8211   23.2259 C   0  0  0  0  0  0  0  0  0  0  0  0
   11.7627  -17.4123   23.1680 C   0  0  1  0  0  0  0  0  0  0  0  0
   11.3995  -17.1156   21.8760 O   0  0  0  0  0  0  0  0  0  0  0  0
   10.5880  -17.2787   24.1157 C   0  0  2  0  0  0  0  0  0  0  0  0
   10.0913  -15.9272   24.1695 N   0  0  0  0  0  0  0  0  0  0  0  0
   11.0094  -17.6934   25.4741 C   0  0  0  0  0  0  0  0  0  0  0  0
   11.0440  -19.0397   25.8550 O   0  0  0  0  0  0  0  0  0  0  0  0
   11.3462  -16.8405   26.3160 O   0  0  0  0  0  0  0  0  0  0  0  0
  2  1  1  6
  3  2  1  0
  4  3  1  0
  4  5  1  0
  5  9  1  0
  5  6  2  0
  7  2  1  0
  7  8  2  0
 10 11  1  0
 11 12  2  0
 12 13  1  0
 14 13  2  0
 14 15  1  0
 16 15  1  1
 16 17  1  0
 17  7  1  0
 18 16  1  0
 19 18  2  0
 20 14  1  0
 21 11  1  0
 21 20  2  0
 23 22  1  6
 23 25  1  0
 24 23  1  0
 25 27  1  0
 25 26  1  1
 26 18  1  0
 27 28  1  0
 29 27  2  0
M  END
$$$$
