FPF.pdb
     RDKit          3D

 30 32  0  0  1  0  0  0  0  0999 V2000
   12.3429  -15.1774   17.9322 N   0  0  0  0  0  0  0  0  0  0  0  0
   11.0898  -15.7457   18.3031 C   0  0  1  0  0  0  0  0  0  0  0  0
   11.1796  -17.2487   18.3810 C   0  0  0  0  0  0  0  0  0  0  0  0
    9.8970  -17.8909   18.7358 C   0  0  0  0  0  0  0  0  0  0  0  0
    8.9211  -18.1170   17.7595 C   0  0  0  0  0  0  0  0  0  0  0  0
    7.7475  -18.7257   18.0811 C   0  0  0  0  0  0  0  0  0  0  0  0
    7.4728  -19.1413   19.3690 C   0  0  0  0  0  0  0  0  0  0  0  0
    8.4098  -18.9366   20.3593 C   0  0  0  0  0  0  0  0  0  0  0  0
    9.5981  -18.3170   20.0180 C   0  0  0  0  0  0  0  0  0  0  0  0
   10.4759  -15.2058   19.5252 C   0  0  0  0  0  0  0  0  0  0  0  0
   11.1784  -15.2760   20.5817 O   0  0  0  0  0  0  0  0  0  0  0  0
    9.1975  -14.6366   19.5883 N   0  0  0  0  0  0  0  0  0  0  0  0
    8.1857  -14.5344   18.5651 C   0  0  0  0  0  0  0  0  0  0  0  0
    7.3970  -13.2880   18.9985 C   0  0  0  0  0  0  0  0  0  0  0  0
    7.3332  -13.4480   20.4744 C   0  0  0  0  0  0  0  0  0  0  0  0
    8.6940  -14.0090   20.8218 C   0  0  1  0  0  0  0  0  0  0  0  0
    8.4873  -15.0407   21.8929 C   0  0  0  0  0  0  0  0  0  0  0  0
    8.6535  -16.2559   21.5999 O   0  0  0  0  0  0  0  0  0  0  0  0
    8.1154  -14.7063   23.2144 N   0  0  0  0  0  0  0  0  0  0  0  0
    8.3256  -15.6435   24.3334 C   0  0  1  0  0  0  0  0  0  0  0  0
    8.7631  -14.8444   25.5077 C   0  0  0  0  0  0  0  0  0  0  0  0
    7.7966  -13.8344   25.9832 C   0  0  0  0  0  0  0  0  0  0  0  0
    6.6367  -13.5250   25.3432 C   0  0  0  0  0  0  0  0  0  0  0  0
    5.8040  -12.5683   25.8797 C   0  0  0  0  0  0  0  0  0  0  0  0
    6.1278  -11.9227   27.0506 C   0  0  0  0  0  0  0  0  0  0  0  0
    7.2952  -12.2239   27.7082 C   0  0  0  0  0  0  0  0  0  0  0  0
    8.1178  -13.1857   27.1556 C   0  0  0  0  0  0  0  0  0  0  0  0
    7.0293  -16.3154   24.5565 C   0  0  0  0  0  0  0  0  0  0  0  0
    5.9295  -15.8976   23.8270 O   0  0  0  0  0  0  0  0  0  0  0  0
    6.8738  -17.2482   25.3769 O   0  0  0  0  0  0  0  0  0  0  0  0
  2  1  1  1
  2  3  1  0
  3  4  1  0
  4  9  1  0
  5  4  2  0
  5  6  1  0
  6  7  2  0
  7  8  1  0
  9  8  2  0
 10 12  1  0
 10  2  1  0
 11 10  2  0
 12 16  1  0
 13 12  1  0
 13 14  1  0
 14 15  1  0
 15 16  1  0
 16 17  1  1
 17 18  2  0
 19 17  1  0
 20 28  1  0
 20 19  1  0
 20 21  1  1
 22 23  2  0
 22 21  1  0
 24 23  1  0
 25 24  2  0
 26 25  1  0
 26 27  2  0
 27 22  1  0
 28 29  1  0
 30 28  2  0
M  END
$$$$
