FPF.pdb
     RDKit          3D

 30 32  0  0  1  0  0  0  0  0999 V2000
   11.2257  -17.3031   18.3195 N   0  0  0  0  0  0  0  0  0  0  0  0
   10.0130  -17.4862   19.0452 C   0  0  1  0  0  0  0  0  0  0  0  0
    9.9427  -18.8697   19.6402 C   0  0  0  0  0  0  0  0  0  0  0  0
    9.6457  -19.9182   18.6423 C   0  0  0  0  0  0  0  0  0  0  0  0
    8.4013  -19.9611   18.0050 C   0  0  0  0  0  0  0  0  0  0  0  0
    8.1334  -20.9144   17.0718 C   0  0  0  0  0  0  0  0  0  0  0  0
    9.0669  -21.8686   16.7182 C   0  0  0  0  0  0  0  0  0  0  0  0
   10.3053  -21.8592   17.3237 C   0  0  0  0  0  0  0  0  0  0  0  0
   10.5637  -20.8844   18.2700 C   0  0  0  0  0  0  0  0  0  0  0  0
    9.7176  -16.4732   20.0692 C   0  0  0  0  0  0  0  0  0  0  0  0
   10.7119  -16.0431   20.7332 O   0  0  0  0  0  0  0  0  0  0  0  0
    8.4394  -15.9718   20.3461 N   0  0  0  0  0  0  0  0  0  0  0  0
    7.1901  -16.2141   19.6665 C   0  0  0  0  0  0  0  0  0  0  0  0
    6.3920  -14.9353   19.9683 C   0  0  0  0  0  0  0  0  0  0  0  0
    6.7381  -14.6710   21.3890 C   0  0  0  0  0  0  0  0  0  0  0  0
    8.2019  -15.0436   21.4648 C   0  0  1  0  0  0  0  0  0  0  0  0
    8.4151  -15.7360   22.7798 C   0  0  0  0  0  0  0  0  0  0  0  0
    8.4668  -16.9959   22.7967 O   0  0  0  0  0  0  0  0  0  0  0  0
    8.5607  -15.0349   23.9978 N   0  0  0  0  0  0  0  0  0  0  0  0
    8.8571  -15.7379   25.2597 C   0  0  1  0  0  0  0  0  0  0  0  0
    8.9230  -14.7144   26.3354 C   0  0  0  0  0  0  0  0  0  0  0  0
    7.7130  -13.8831   26.4946 C   0  0  0  0  0  0  0  0  0  0  0  0
    6.6431  -13.9210   25.6552 C   0  0  0  0  0  0  0  0  0  0  0  0
    5.5622  -13.1042   25.9018 C   0  0  0  0  0  0  0  0  0  0  0  0
    5.5492  -12.2524   26.9821 C   0  0  0  0  0  0  0  0  0  0  0  0
    6.6217  -12.2025   27.8383 C   0  0  0  0  0  0  0  0  0  0  0  0
    7.6966  -13.0287   27.5755 C   0  0  0  0  0  0  0  0  0  0  0  0
    7.7567  -16.7022   25.4619 C   0  0  0  0  0  0  0  0  0  0  0  0
    7.9322  -17.7301   26.3724 O   0  0  0  0  0  0  0  0  0  0  0  0
    6.6677  -16.6371   24.8477 O   0  0  0  0  0  0  0  0  0  0  0  0
  2  1  1  1
  2  3  1  0
  3  4  1  0
  4  9  1  0
  5  4  2  0
  5  6  1  0
  6  7  2  0
  7  8  1  0
  9  8  2  0
 10 12  1  0
 10  2  1  0
 11 10  2  0
 12 16  1  0
 13 12  1  0
 13 14  1  0
 14 15  1  0
 15 16  1  0
 16 17  1  1
 17 18  2  0
 19 17  1  0
 20 28  1  0
 20 19  1  0
 20 21  1  1
 22 23  2  0
 22 21  1  0
 24 23  1  0
 25 24  2  0
 26 25  1  0
 26 27  2  0
 27 22  1  0
 28 29  1  0
 30 28  2  0
M  END
$$$$
