FPF.pdb
     RDKit          3D

 30 32  0  0  1  0  0  0  0  0999 V2000
    5.7560  -17.9889   25.1233 N   0  0  0  0  0  0  0  0  0  0  0  0
    6.4225  -16.7343   25.0117 C   0  0  1  0  0  0  0  0  0  0  0  0
    6.7122  -16.1530   26.3723 C   0  0  0  0  0  0  0  0  0  0  0  0
    6.7881  -14.6773   26.3708 C   0  0  0  0  0  0  0  0  0  0  0  0
    7.9962  -14.0279   26.0960 C   0  0  0  0  0  0  0  0  0  0  0  0
    8.0631  -12.6690   26.0753 C   0  0  0  0  0  0  0  0  0  0  0  0
    6.9551  -11.8825   26.3215 C   0  0  0  0  0  0  0  0  0  0  0  0
    5.7461  -12.4853   26.5959 C   0  0  0  0  0  0  0  0  0  0  0  0
    5.6928  -13.8671   26.6134 C   0  0  0  0  0  0  0  0  0  0  0  0
    7.6360  -16.7228   24.1815 C   0  0  0  0  0  0  0  0  0  0  0  0
    8.4964  -17.6223   24.4368 O   0  0  0  0  0  0  0  0  0  0  0  0
    7.8895  -15.8024   23.1565 N   0  0  0  0  0  0  0  0  0  0  0  0
    7.1432  -14.6304   22.7685 C   0  0  0  0  0  0  0  0  0  0  0  0
    7.4915  -14.4908   21.2777 C   0  0  0  0  0  0  0  0  0  0  0  0
    8.9396  -14.8232   21.2559 C   0  0  0  0  0  0  0  0  0  0  0  0
    9.0538  -15.9433   22.2656 C   0  0  1  0  0  0  0  0  0  0  0  0
   10.3300  -15.7256   23.0260 C   0  0  0  0  0  0  0  0  0  0  0  0
   11.0237  -14.7064   22.7608 O   0  0  0  0  0  0  0  0  0  0  0  0
   10.7849  -16.6144   24.0258 N   0  0  0  0  0  0  0  0  0  0  0  0
   12.1357  -16.4945   24.6053 C   0  0  1  0  0  0  0  0  0  0  0  0
   12.2131  -15.1757   25.2863 C   0  0  0  0  0  0  0  0  0  0  0  0
   11.2828  -14.9909   26.4180 C   0  0  0  0  0  0  0  0  0  0  0  0
   10.1228  -14.2837   26.3470 C   0  0  0  0  0  0  0  0  0  0  0  0
    9.3257  -14.1800   27.4651 C   0  0  0  0  0  0  0  0  0  0  0  0
    9.6850  -14.7798   28.6500 C   0  0  0  0  0  0  0  0  0  0  0  0
   10.8529  -15.4969   28.7375 C   0  0  0  0  0  0  0  0  0  0  0  0
   11.6396  -15.5903   27.6064 C   0  0  0  0  0  0  0  0  0  0  0  0
   12.2830  -17.6259   25.5431 C   0  0  0  0  0  0  0  0  0  0  0  0
   11.2250  -18.5055   25.6955 O   0  0  0  0  0  0  0  0  0  0  0  0
   13.3218  -17.8306   26.2115 O   0  0  0  0  0  0  0  0  0  0  0  0
  2  1  1  1
  2  3  1  0
  3  4  1  0
  4  9  1  0
  5  4  2  0
  5  6  1  0
  6  7  2  0
  7  8  1  0
  9  8  2  0
 10 12  1  0
 10  2  1  0
 11 10  2  0
 12 16  1  0
 13 12  1  0
 13 14  1  0
 14 15  1  0
 15 16  1  0
 16 17  1  1
 17 18  2  0
 19 17  1  0
 20 28  1  0
 20 19  1  0
 20 21  1  1
 22 23  2  0
 22 21  1  0
 24 23  1  0
 25 24  2  0
 26 25  1  0
 26 27  2  0
 27 22  1  0
 28 29  1  0
 30 28  2  0
M  END
$$$$
