FPF.pdb
     RDKit          3D

 30 32  0  0  1  0  0  0  0  0999 V2000
    6.2320  -17.4097   21.7221 N   0  0  0  0  0  0  0  0  0  0  0  0
    7.2689  -16.5235   22.1347 C   0  0  1  0  0  0  0  0  0  0  0  0
    6.7176  -15.1565   22.4518 C   0  0  0  0  0  0  0  0  0  0  0  0
    7.1478  -14.1183   21.4923 C   0  0  0  0  0  0  0  0  0  0  0  0
    8.2707  -13.3273   21.7569 C   0  0  0  0  0  0  0  0  0  0  0  0
    8.6793  -12.3841   20.8654 C   0  0  0  0  0  0  0  0  0  0  0  0
    8.0113  -12.1700   19.6758 C   0  0  0  0  0  0  0  0  0  0  0  0
    6.9001  -12.9299   19.3787 C   0  0  0  0  0  0  0  0  0  0  0  0
    6.4966  -13.8849   20.2939 C   0  0  0  0  0  0  0  0  0  0  0  0
    8.1212  -16.9991   23.2344 C   0  0  0  0  0  0  0  0  0  0  0  0
    7.5376  -17.2086   24.3434 O   0  0  0  0  0  0  0  0  0  0  0  0
    9.4995  -17.2262   23.1312 N   0  0  0  0  0  0  0  0  0  0  0  0
   10.3664  -17.1112   21.9837 C   0  0  0  0  0  0  0  0  0  0  0  0
   11.4941  -18.1017   22.3164 C   0  0  0  0  0  0  0  0  0  0  0  0
   11.7013  -17.8729   23.7699 C   0  0  0  0  0  0  0  0  0  0  0  0
   10.2979  -17.6583   24.2910 C   0  0  1  0  0  0  0  0  0  0  0  0
   10.3693  -16.5665   25.3192 C   0  0  0  0  0  0  0  0  0  0  0  0
   10.8097  -15.4375   24.9704 O   0  0  0  0  0  0  0  0  0  0  0  0
    9.9634  -16.7516   26.6598 N   0  0  0  0  0  0  0  0  0  0  0  0
   10.4062  -15.8397   27.7308 C   0  0  1  0  0  0  0  0  0  0  0  0
    9.2060  -15.1148   28.2235 C   0  0  0  0  0  0  0  0  0  0  0  0
    8.5677  -14.2084   27.2480 C   0  0  0  0  0  0  0  0  0  0  0  0
    7.5064  -14.5491   26.4682 C   0  0  0  0  0  0  0  0  0  0  0  0
    6.9853  -13.6212   25.5942 C   0  0  0  0  0  0  0  0  0  0  0  0
    7.5217  -12.3579   25.4986 C   0  0  0  0  0  0  0  0  0  0  0  0
    8.5933  -11.9991   26.2789 C   0  0  0  0  0  0  0  0  0  0  0  0
    9.1025  -12.9423   27.1496 C   0  0  0  0  0  0  0  0  0  0  0  0
   11.0194  -16.6920   28.7696 C   0  0  0  0  0  0  0  0  0  0  0  0
   11.7611  -16.0897   29.7714 O   0  0  0  0  0  0  0  0  0  0  0  0
   10.9024  -17.9383   28.7898 O   0  0  0  0  0  0  0  0  0  0  0  0
  2  1  1  1
  2  3  1  0
  3  4  1  0
  4  9  1  0
  5  4  2  0
  5  6  1  0
  6  7  2  0
  7  8  1  0
  9  8  2  0
 10 12  1  0
 10  2  1  0
 11 10  2  0
 12 16  1  0
 13 12  1  0
 13 14  1  0
 14 15  1  0
 15 16  1  0
 16 17  1  1
 17 18  2  0
 19 17  1  0
 20 28  1  0
 20 19  1  0
 20 21  1  1
 22 23  2  0
 22 21  1  0
 24 23  1  0
 25 24  2  0
 26 25  1  0
 26 27  2  0
 27 22  1  0
 28 29  1  0
 30 28  2  0
M  END
$$$$
