FPF.pdb
     RDKit          3D

 30 32  0  0  1  0  0  0  0  0999 V2000
    5.4038  -16.4383   21.4405 N   0  0  0  0  0  0  0  0  0  0  0  0
    6.7825  -16.1839   21.6957 C   0  0  1  0  0  0  0  0  0  0  0  0
    7.0406  -14.7063   21.8476 C   0  0  0  0  0  0  0  0  0  0  0  0
    7.5993  -14.0846   20.6291 C   0  0  0  0  0  0  0  0  0  0  0  0
    6.7674  -13.4086   19.7304 C   0  0  0  0  0  0  0  0  0  0  0  0
    7.2834  -12.8191   18.6179 C   0  0  0  0  0  0  0  0  0  0  0  0
    8.6337  -12.8623   18.3318 C   0  0  0  0  0  0  0  0  0  0  0  0
    9.4863  -13.5189   19.1936 C   0  0  0  0  0  0  0  0  0  0  0  0
    8.9480  -14.1131   20.3203 C   0  0  0  0  0  0  0  0  0  0  0  0
    7.3756  -16.9250   22.8186 C   0  0  0  0  0  0  0  0  0  0  0  0
    6.8700  -16.7044   23.9632 O   0  0  0  0  0  0  0  0  0  0  0  0
    8.4361  -17.8326   22.7006 N   0  0  0  0  0  0  0  0  0  0  0  0
    9.0628  -18.3645   21.5151 C   0  0  0  0  0  0  0  0  0  0  0  0
    9.6035  -19.7188   22.0020 C   0  0  0  0  0  0  0  0  0  0  0  0
   10.1149  -19.3894   23.3577 C   0  0  0  0  0  0  0  0  0  0  0  0
    9.0906  -18.4105   23.8867 C   0  0  1  0  0  0  0  0  0  0  0  0
    9.8393  -17.3527   24.6449 C   0  0  0  0  0  0  0  0  0  0  0  0
   10.6330  -16.6047   24.0118 O   0  0  0  0  0  0  0  0  0  0  0  0
    9.6908  -17.1606   26.0368 N   0  0  0  0  0  0  0  0  0  0  0  0
   10.6353  -16.3274   26.8037 C   0  0  1  0  0  0  0  0  0  0  0  0
   10.4533  -14.9215   26.3573 C   0  0  0  0  0  0  0  0  0  0  0  0
    9.1850  -14.2854   26.7663 C   0  0  0  0  0  0  0  0  0  0  0  0
    9.0896  -13.2997   27.6989 C   0  0  0  0  0  0  0  0  0  0  0  0
    7.8536  -12.7726   28.0003 C   0  0  0  0  0  0  0  0  0  0  0  0
    6.7168  -13.2278   27.3732 C   0  0  0  0  0  0  0  0  0  0  0  0
    6.7968  -14.2224   26.4297 C   0  0  0  0  0  0  0  0  0  0  0  0
    8.0443  -14.7390   26.1403 C   0  0  0  0  0  0  0  0  0  0  0  0
   10.2910  -16.5189   28.2272 C   0  0  0  0  0  0  0  0  0  0  0  0
   11.0710  -15.9002   29.1890 O   0  0  0  0  0  0  0  0  0  0  0  0
    9.3247  -17.2168   28.6101 O   0  0  0  0  0  0  0  0  0  0  0  0
  2  1  1  1
  2  3  1  0
  3  4  1  0
  4  9  1  0
  5  4  2  0
  5  6  1  0
  6  7  2  0
  7  8  1  0
  9  8  2  0
 10 12  1  0
 10  2  1  0
 11 10  2  0
 12 16  1  0
 13 12  1  0
 13 14  1  0
 14 15  1  0
 15 16  1  0
 16 17  1  6
 17 18  2  0
 19 17  1  0
 20 28  1  0
 20 19  1  0
 20 21  1  6
 22 23  2  0
 22 21  1  0
 24 23  1  0
 25 24  2  0
 26 25  1  0
 26 27  2  0
 27 22  1  0
 28 29  1  0
 30 28  2  0
M  END
$$$$
