FPF.pdb
     RDKit          3D

 30 32  0  0  1  0  0  0  0  0999 V2000
    5.5789  -17.9587   25.0868 N   0  0  0  0  0  0  0  0  0  0  0  0
    6.2047  -16.6846   24.9609 C   0  0  1  0  0  0  0  0  0  0  0  0
    6.4793  -16.0810   26.3149 C   0  0  0  0  0  0  0  0  0  0  0  0
    6.6739  -14.6169   26.2710 C   0  0  0  0  0  0  0  0  0  0  0  0
    7.9356  -14.0751   26.0041 C   0  0  0  0  0  0  0  0  0  0  0  0
    8.1121  -12.7272   25.9442 C   0  0  0  0  0  0  0  0  0  0  0  0
    7.0663  -11.8473   26.1419 C   0  0  0  0  0  0  0  0  0  0  0  0
    5.8074  -12.3427   26.4069 C   0  0  0  0  0  0  0  0  0  0  0  0
    5.6427  -13.7146   26.4645 C   0  0  0  0  0  0  0  0  0  0  0  0
    7.4151  -16.6428   24.1270 C   0  0  0  0  0  0  0  0  0  0  0  0
    8.2765  -17.5508   24.3461 O   0  0  0  0  0  0  0  0  0  0  0  0
    7.6646  -15.6857   23.1352 N   0  0  0  0  0  0  0  0  0  0  0  0
    6.8895  -14.5286   22.7589 C   0  0  0  0  0  0  0  0  0  0  0  0
    7.2730  -14.3351   21.2829 C   0  0  0  0  0  0  0  0  0  0  0  0
    8.7317  -14.6183   21.2924 C   0  0  0  0  0  0  0  0  0  0  0  0
    8.8567  -15.7622   22.2737 C   0  0  1  0  0  0  0  0  0  0  0  0
   10.1038  -15.5238   23.0752 C   0  0  0  0  0  0  0  0  0  0  0  0
   10.5673  -14.3526   23.1354 O   0  0  0  0  0  0  0  0  0  0  0  0
   10.7782  -16.5564   23.7645 N   0  0  0  0  0  0  0  0  0  0  0  0
   11.9322  -16.2728   24.6376 C   0  0  1  0  0  0  0  0  0  0  0  0
   11.6072  -16.7965   25.9900 C   0  0  0  0  0  0  0  0  0  0  0  0
   10.9627  -15.8332   26.9051 C   0  0  0  0  0  0  0  0  0  0  0  0
   11.4334  -15.5217   28.1428 C   0  0  0  0  0  0  0  0  0  0  0  0
   10.7544  -14.6031   28.9118 C   0  0  0  0  0  0  0  0  0  0  0  0
    9.6098  -13.9975   28.4473 C   0  0  0  0  0  0  0  0  0  0  0  0
    9.1221  -14.3016   27.2000 C   0  0  0  0  0  0  0  0  0  0  0  0
    9.8160  -15.2249   26.4430 C   0  0  0  0  0  0  0  0  0  0  0  0
   13.0888  -16.9592   24.0271 C   0  0  0  0  0  0  0  0  0  0  0  0
   14.3644  -16.5362   24.3593 O   0  0  0  0  0  0  0  0  0  0  0  0
   12.9734  -17.9090   23.2196 O   0  0  0  0  0  0  0  0  0  0  0  0
  2  1  1  1
  2  3  1  0
  3  4  1  0
  4  9  1  0
  5  4  2  0
  5  6  1  0
  6  7  2  0
  7  8  1  0
  9  8  2  0
 10 12  1  0
 10  2  1  0
 11 10  2  0
 12 16  1  0
 13 12  1  0
 13 14  1  0
 14 15  1  0
 15 16  1  0
 16 17  1  1
 17 18  2  0
 19 17  1  0
 20 28  1  0
 20 19  1  0
 20 21  1  1
 22 23  2  0
 22 21  1  0
 24 23  1  0
 25 24  2  0
 26 25  1  0
 26 27  2  0
 27 22  1  0
 28 29  1  0
 30 28  2  0
M  END
$$$$
