FPF.pdb
     RDKit          3D

 30 32  0  0  1  0  0  0  0  0999 V2000
    5.2298  -18.0009   21.2210 N   0  0  0  0  0  0  0  0  0  0  0  0
    6.2730  -17.0340   21.1348 C   0  0  1  0  0  0  0  0  0  0  0  0
    5.7231  -15.6342   21.2418 C   0  0  0  0  0  0  0  0  0  0  0  0
    6.7361  -14.5895   20.9852 C   0  0  0  0  0  0  0  0  0  0  0  0
    7.1031  -14.2615   19.6758 C   0  0  0  0  0  0  0  0  0  0  0  0
    8.0216  -13.2864   19.4375 C   0  0  0  0  0  0  0  0  0  0  0  0
    8.6234  -12.5873   20.4652 C   0  0  0  0  0  0  0  0  0  0  0  0
    8.2877  -12.8812   21.7696 C   0  0  0  0  0  0  0  0  0  0  0  0
    7.3526  -13.8744   21.9968 C   0  0  0  0  0  0  0  0  0  0  0  0
    7.3959  -17.2152   22.0666 C   0  0  0  0  0  0  0  0  0  0  0  0
    7.1001  -17.2295   23.3022 O   0  0  0  0  0  0  0  0  0  0  0  0
    8.7336  -17.3671   21.6798 N   0  0  0  0  0  0  0  0  0  0  0  0
    9.3234  -17.2991   20.3650 C   0  0  0  0  0  0  0  0  0  0  0  0
   10.5692  -18.1879   20.5113 C   0  0  0  0  0  0  0  0  0  0  0  0
   11.0642  -17.8234   21.8641 C   0  0  0  0  0  0  0  0  0  0  0  0
    9.7924  -17.6495   22.6638 C   0  0  1  0  0  0  0  0  0  0  0  0
    9.9977  -16.4713   23.5716 C   0  0  0  0  0  0  0  0  0  0  0  0
   10.3045  -15.3610   23.0586 O   0  0  0  0  0  0  0  0  0  0  0  0
    9.8608  -16.5553   24.9753 N   0  0  0  0  0  0  0  0  0  0  0  0
   10.5434  -15.6053   25.8732 C   0  0  1  0  0  0  0  0  0  0  0  0
   10.0824  -14.2396   25.5108 C   0  0  0  0  0  0  0  0  0  0  0  0
    8.7189  -13.8912   25.9578 C   0  0  0  0  0  0  0  0  0  0  0  0
    7.5974  -14.5682   25.5910 C   0  0  0  0  0  0  0  0  0  0  0  0
    6.3739  -14.1591   26.0728 C   0  0  0  0  0  0  0  0  0  0  0  0
    6.2700  -13.0781   26.9174 C   0  0  0  0  0  0  0  0  0  0  0  0
    7.3929  -12.3844   27.2965 C   0  0  0  0  0  0  0  0  0  0  0  0
    8.6111  -12.8089   26.8038 C   0  0  0  0  0  0  0  0  0  0  0  0
   10.1577  -15.9875   27.2468 C   0  0  0  0  0  0  0  0  0  0  0  0
   10.7487  -15.3286   28.3112 O   0  0  0  0  0  0  0  0  0  0  0  0
    9.3192  -16.8825   27.4987 O   0  0  0  0  0  0  0  0  0  0  0  0
  2  1  1  1
  2  3  1  0
  3  4  1  0
  4  9  1  0
  5  4  2  0
  5  6  1  0
  6  7  2  0
  7  8  1  0
  9  8  2  0
 10 12  1  0
 10  2  1  0
 11 10  2  0
 12 16  1  0
 13 12  1  0
 13 14  1  0
 14 15  1  0
 15 16  1  0
 16 17  1  1
 17 18  2  0
 19 17  1  0
 20 28  1  0
 20 19  1  0
 20 21  1  6
 22 23  2  0
 22 21  1  0
 24 23  1  0
 25 24  2  0
 26 25  1  0
 26 27  2  0
 27 22  1  0
 28 29  1  0
 30 28  2  0
M  END
$$$$
