MST.pdb
     RDKit          3D

 22 21  0  0  1  0  0  0  0  0999 V2000
    8.3709  -11.8215   18.5501 C   0  0  0  0  0  0  0  0  0  0  0  0
    7.9987  -12.5501   20.1889 S   0  0  0  0  0  0  0  0  0  0  0  0
    6.8336  -13.8936   19.9205 C   0  0  0  0  0  0  0  0  0  0  0  0
    6.3534  -14.4857   21.2509 C   0  0  0  0  0  0  0  0  0  0  0  0
    7.5699  -15.1017   21.9059 C   0  0  2  0  0  0  0  0  0  0  0  0
    7.8932  -16.2992   21.1640 N   0  0  0  0  0  0  0  0  0  0  0  0
    7.3523  -15.4313   23.3143 C   0  0  0  0  0  0  0  0  0  0  0  0
    6.7588  -14.6826   24.1355 O   0  0  0  0  0  0  0  0  0  0  0  0
    7.4013  -19.0010   26.4939 O   0  0  0  0  0  0  0  0  0  0  0  0
    7.4090  -18.5950   25.1489 C   0  0  0  0  0  0  0  0  0  0  0  0
    7.6337  -17.0773   25.1904 C   0  0  2  0  0  0  0  0  0  0  0  0
    7.8301  -16.6690   23.8169 N   0  0  0  0  0  0  0  0  0  0  0  0
    8.8593  -16.7519   25.9521 C   0  0  0  0  0  0  0  0  0  0  0  0
    9.9688  -16.8391   25.3859 O   0  0  0  0  0  0  0  0  0  0  0  0
    9.7712  -13.6122   27.8954 C   0  0  0  0  0  0  0  0  0  0  0  0
    9.9807  -14.7980   28.7806 C   0  0  1  0  0  0  0  0  0  0  0  0
    8.9354  -14.8560   29.6946 O   0  0  0  0  0  0  0  0  0  0  0  0
   10.0895  -16.0806   27.9816 C   0  0  2  0  0  0  0  0  0  0  0  0
    8.8403  -16.3404   27.3098 N   0  0  0  0  0  0  0  0  0  0  0  0
   10.5359  -17.2018   28.8182 C   0  0  0  0  0  0  0  0  0  0  0  0
    9.8489  -18.2410   28.9834 O   0  0  0  0  0  0  0  0  0  0  0  0
   11.7611  -17.1286   29.4586 O   0  0  0  0  0  0  0  0  0  0  0  0
  2  1  1  0
  3  2  1  0
  3  4  1  0
  4  5  1  0
  5  7  1  0
  5  6  1  6
  7 12  1  0
  7  8  2  0
  9 10  1  0
 11 10  1  6
 11 13  1  0
 12 11  1  0
 13 14  2  0
 16 15  1  6
 16 18  1  0
 16 17  1  0
 18 20  1  0
 19 13  1  0
 18 19  1  1
 20 22  1  0
 21 20  2  0
M  END
$$$$
