MST.pdb
     RDKit          3D

 22 21  0  0  1  0  0  0  0  0999 V2000
    7.0039  -11.9107   27.4097 C   0  0  0  0  0  0  0  0  0  0  0  0
    6.0073  -11.6920   25.8885 S   0  0  0  0  0  0  0  0  0  0  0  0
    6.0552  -13.2513   24.9935 C   0  0  0  0  0  0  0  0  0  0  0  0
    7.3157  -14.0521   25.3413 C   0  0  0  0  0  0  0  0  0  0  0  0
    7.2295  -15.3426   24.5567 C   0  0  2  0  0  0  0  0  0  0  0  0
    5.9209  -15.9045   24.8027 N   0  0  0  0  0  0  0  0  0  0  0  0
    8.2643  -16.3063   24.9310 C   0  0  0  0  0  0  0  0  0  0  0  0
    8.1790  -17.0963   25.9087 O   0  0  0  0  0  0  0  0  0  0  0  0
   11.5979  -15.9585   22.9179 O   0  0  0  0  0  0  0  0  0  0  0  0
   11.4065  -17.3245   23.1850 C   0  0  0  0  0  0  0  0  0  0  0  0
   10.4800  -17.3671   24.4078 C   0  0  2  0  0  0  0  0  0  0  0  0
    9.4534  -16.3788   24.1605 N   0  0  0  0  0  0  0  0  0  0  0  0
   11.2138  -16.9790   25.6322 C   0  0  0  0  0  0  0  0  0  0  0  0
   11.9449  -15.9671   25.6086 O   0  0  0  0  0  0  0  0  0  0  0  0
   10.8354  -15.1257   28.3964 C   0  0  0  0  0  0  0  0  0  0  0  0
   11.1334  -16.4873   28.9357 C   0  0  1  0  0  0  0  0  0  0  0  0
    9.9308  -17.1138   29.2401 O   0  0  0  0  0  0  0  0  0  0  0  0
   11.9542  -17.3076   27.9617 C   0  0  2  0  0  0  0  0  0  0  0  0
   11.1293  -17.7055   26.8480 N   0  0  0  0  0  0  0  0  0  0  0  0
   12.6071  -18.4421   28.6273 C   0  0  0  0  0  0  0  0  0  0  0  0
   12.3849  -19.6367   28.3066 O   0  0  0  0  0  0  0  0  0  0  0  0
   13.5071  -18.2050   29.6522 O   0  0  0  0  0  0  0  0  0  0  0  0
  2  1  1  0
  3  2  1  0
  3  4  1  0
  4  5  1  0
  5  7  1  0
  5  6  1  1
  7 12  1  0
  7  8  2  0
  9 10  1  0
 11 10  1  6
 11 13  1  0
 12 11  1  0
 13 14  2  0
 16 15  1  6
 16 18  1  0
 16 17  1  0
 18 20  1  0
 19 13  1  0
 18 19  1  6
 20 22  1  0
 21 20  2  0
M  END
$$$$
