MST.pdb
     RDKit          3D

 22 21  0  0  1  0  0  0  0  0999 V2000
    7.1483  -10.7187   25.8350 C   0  0  0  0  0  0  0  0  0  0  0  0
    5.6925  -11.6572   26.4309 S   0  0  0  0  0  0  0  0  0  0  0  0
    5.6162  -13.1805   25.4777 C   0  0  0  0  0  0  0  0  0  0  0  0
    6.8323  -14.0715   25.7574 C   0  0  0  0  0  0  0  0  0  0  0  0
    6.6937  -15.2761   24.8530 C   0  0  2  0  0  0  0  0  0  0  0  0
    5.4583  -15.9365   25.2087 N   0  0  0  0  0  0  0  0  0  0  0  0
    7.8120  -16.2112   24.9753 C   0  0  0  0  0  0  0  0  0  0  0  0
    7.9304  -17.0599   25.8988 O   0  0  0  0  0  0  0  0  0  0  0  0
   10.9132  -15.6133   22.4822 O   0  0  0  0  0  0  0  0  0  0  0  0
   10.6605  -16.9800   22.6874 C   0  0  0  0  0  0  0  0  0  0  0  0
    9.9943  -17.0609   24.0676 C   0  0  2  0  0  0  0  0  0  0  0  0
    8.8461  -16.1836   24.0044 N   0  0  0  0  0  0  0  0  0  0  0  0
   10.9066  -16.5577   25.1177 C   0  0  0  0  0  0  0  0  0  0  0  0
   11.7143  -15.6477   24.8372 O   0  0  0  0  0  0  0  0  0  0  0  0
   10.5585  -14.4618   27.9155 C   0  0  0  0  0  0  0  0  0  0  0  0
   11.1130  -15.7393   28.4579 C   0  0  1  0  0  0  0  0  0  0  0  0
   10.0682  -16.4788   28.9990 O   0  0  0  0  0  0  0  0  0  0  0  0
   11.8541  -16.5237   27.3945 C   0  0  2  0  0  0  0  0  0  0  0  0
   10.9123  -17.0612   26.4442 N   0  0  0  0  0  0  0  0  0  0  0  0
   12.7217  -17.5499   27.9867 C   0  0  0  0  0  0  0  0  0  0  0  0
   12.5847  -18.7757   27.7464 O   0  0  0  0  0  0  0  0  0  0  0  0
   13.7374  -17.1697   28.8472 O   0  0  0  0  0  0  0  0  0  0  0  0
  2  1  1  0
  3  2  1  0
  3  4  1  0
  4  5  1  0
  5  7  1  0
  5  6  1  1
  7 12  1  0
  7  8  2  0
  9 10  1  0
 11 10  1  6
 11 13  1  0
 12 11  1  0
 13 14  2  0
 16 15  1  6
 16 18  1  0
 16 17  1  0
 18 20  1  0
 19 13  1  0
 18 19  1  6
 20 22  1  0
 21 20  2  0
M  END
$$$$
