MST.pdb
     RDKit          3D

 22 21  0  0  1  0  0  0  0  0999 V2000
    8.9566  -11.3285   19.8540 C   0  0  0  0  0  0  0  0  0  0  0  0
    7.6378  -12.3713   20.5809 S   0  0  0  0  0  0  0  0  0  0  0  0
    8.3008  -14.0362   20.7335 C   0  0  0  0  0  0  0  0  0  0  0  0
    7.2734  -14.9875   21.3582 C   0  0  0  0  0  0  0  0  0  0  0  0
    7.9011  -16.3637   21.3386 C   0  0  2  0  0  0  0  0  0  0  0  0
    6.9939  -17.2361   20.6281 N   0  0  0  0  0  0  0  0  0  0  0  0
    8.1546  -16.8927   22.6786 C   0  0  0  0  0  0  0  0  0  0  0  0
    7.2563  -17.2940   23.4655 O   0  0  0  0  0  0  0  0  0  0  0  0
   12.0954  -17.9078   24.0274 O   0  0  0  0  0  0  0  0  0  0  0  0
   10.8862  -18.6101   24.1632 C   0  0  0  0  0  0  0  0  0  0  0  0
    9.8273  -17.5339   24.4391 C   0  0  2  0  0  0  0  0  0  0  0  0
    9.4905  -16.9711   23.1501 N   0  0  0  0  0  0  0  0  0  0  0  0
   10.3861  -16.4568   25.2851 C   0  0  0  0  0  0  0  0  0  0  0  0
   11.2127  -15.6619   24.7911 O   0  0  0  0  0  0  0  0  0  0  0  0
    9.2460  -13.3661   27.0825 C   0  0  0  0  0  0  0  0  0  0  0  0
    9.7789  -14.3454   28.0777 C   0  0  1  0  0  0  0  0  0  0  0  0
    8.7062  -15.0095   28.6607 O   0  0  0  0  0  0  0  0  0  0  0  0
   10.7519  -15.3167   27.4413 C   0  0  2  0  0  0  0  0  0  0  0  0
   10.0276  -16.2770   26.6461 N   0  0  0  0  0  0  0  0  0  0  0  0
   11.6243  -15.9420   28.4435 C   0  0  0  0  0  0  0  0  0  0  0  0
   11.6889  -17.1865   28.6054 O   0  0  0  0  0  0  0  0  0  0  0  0
   12.4149  -15.1434   29.2521 O   0  0  0  0  0  0  0  0  0  0  0  0
  2  1  1  0
  3  2  1  0
  3  4  1  0
  4  5  1  0
  5  7  1  0
  5  6  1  1
  7 12  1  0
  7  8  2  0
  9 10  1  0
 11 10  1  6
 11 13  1  0
 12 11  1  0
 13 14  2  0
 16 15  1  6
 16 18  1  0
 16 17  1  0
 18 20  1  0
 19 13  1  0
 18 19  1  1
 20 22  1  0
 21 20  2  0
M  END
$$$$
