MST.pdb
     RDKit          3D

 22 21  0  0  1  0  0  0  0  0999 V2000
    8.4019  -17.7323   17.5966 C   0  0  0  0  0  0  0  0  0  0  0  0
    7.8394  -16.3351   16.5542 S   0  0  0  0  0  0  0  0  0  0  0  0
    7.4126  -14.9842   17.6621 C   0  0  0  0  0  0  0  0  0  0  0  0
    8.3058  -14.9853   18.9084 C   0  0  0  0  0  0  0  0  0  0  0  0
    7.7951  -13.8741   19.7986 C   0  0  2  0  0  0  0  0  0  0  0  0
    7.9800  -12.6334   19.0806 N   0  0  0  0  0  0  0  0  0  0  0  0
    8.4868  -13.8129   21.0861 C   0  0  0  0  0  0  0  0  0  0  0  0
    9.5522  -13.1723   21.2903 O   0  0  0  0  0  0  0  0  0  0  0  0
    6.4503  -15.0267   24.2854 O   0  0  0  0  0  0  0  0  0  0  0  0
    7.5081  -14.1281   24.5033 C   0  0  0  0  0  0  0  0  0  0  0  0
    8.5894  -14.5301   23.4910 C   0  0  2  0  0  0  0  0  0  0  0  0
    7.9453  -14.5111   22.1961 N   0  0  0  0  0  0  0  0  0  0  0  0
    9.0647  -15.9060   23.7538 C   0  0  0  0  0  0  0  0  0  0  0  0
    8.3692  -16.8724   23.3775 O   0  0  0  0  0  0  0  0  0  0  0  0
   12.1299  -17.6030   22.6288 C   0  0  0  0  0  0  0  0  0  0  0  0
   12.0607  -17.7997   24.1087 C   0  0  1  0  0  0  0  0  0  0  0  0
   12.9823  -16.9508   24.7099 O   0  0  0  0  0  0  0  0  0  0  0  0
   10.6616  -17.5636   24.6398 C   0  0  2  0  0  0  0  0  0  0  0  0
   10.2852  -16.1892   24.4195 N   0  0  0  0  0  0  0  0  0  0  0  0
   10.5407  -17.9743   26.0444 C   0  0  0  0  0  0  0  0  0  0  0  0
   10.1684  -17.1885   26.9517 O   0  0  0  0  0  0  0  0  0  0  0  0
   10.8450  -19.2766   26.4023 O   0  0  0  0  0  0  0  0  0  0  0  0
  2  1  1  0
  3  2  1  0
  3  4  1  0
  4  5  1  0
  5  7  1  0
  5  6  1  6
  7 12  1  0
  7  8  2  0
  9 10  1  0
 11 10  1  1
 11 13  1  0
 12 11  1  0
 13 14  2  0
 16 15  1  6
 16 18  1  0
 16 17  1  0
 18 20  1  0
 19 13  1  0
 18 19  1  1
 20 22  1  0
 21 20  2  0
M  END
$$$$
