MST.pdb
     RDKit          3D

 22 21  0  0  1  0  0  0  0  0999 V2000
    6.2793  -14.0004   18.7307 C   0  0  0  0  0  0  0  0  0  0  0  0
    7.7478  -12.9580   18.3961 S   0  0  0  0  0  0  0  0  0  0  0  0
    8.5784  -12.6902   19.9687 C   0  0  0  0  0  0  0  0  0  0  0  0
    8.1807  -13.7577   20.9950 C   0  0  0  0  0  0  0  0  0  0  0  0
    9.4724  -14.3202   21.5458 C   0  0  2  0  0  0  0  0  0  0  0  0
   10.0198  -15.1980   20.5365 N   0  0  0  0  0  0  0  0  0  0  0  0
    9.2856  -15.0544   22.7971 C   0  0  0  0  0  0  0  0  0  0  0  0
    8.4821  -14.7155   23.7063 O   0  0  0  0  0  0  0  0  0  0  0  0
   11.9282  -18.0899   23.8229 O   0  0  0  0  0  0  0  0  0  0  0  0
   10.5564  -18.3817   23.9062 C   0  0  0  0  0  0  0  0  0  0  0  0
    9.8800  -17.0394   24.2165 C   0  0  2  0  0  0  0  0  0  0  0  0
   10.0457  -16.2295   23.0297 N   0  0  0  0  0  0  0  0  0  0  0  0
   10.5596  -16.3603   25.3414 C   0  0  0  0  0  0  0  0  0  0  0  0
   11.6319  -15.7566   25.1295 O   0  0  0  0  0  0  0  0  0  0  0  0
   10.0257  -13.4153   27.1919 C   0  0  0  0  0  0  0  0  0  0  0  0
   10.0651  -14.5037   28.2153 C   0  0  1  0  0  0  0  0  0  0  0  0
    8.7599  -14.8215   28.5715 O   0  0  0  0  0  0  0  0  0  0  0  0
   10.8130  -15.7204   27.7097 C   0  0  2  0  0  0  0  0  0  0  0  0
   10.0504  -16.3587   26.6657 N   0  0  0  0  0  0  0  0  0  0  0  0
   11.1631  -16.6331   28.8055 C   0  0  0  0  0  0  0  0  0  0  0  0
   10.7766  -17.8283   28.8430 O   0  0  0  0  0  0  0  0  0  0  0  0
   11.9502  -16.1756   29.8485 O   0  0  0  0  0  0  0  0  0  0  0  0
  2  1  1  0
  3  2  1  0
  3  4  1  0
  4  5  1  0
  5  7  1  0
  5  6  1  6
  7 12  1  0
  7  8  2  0
  9 10  1  0
 11 10  1  6
 11 13  1  0
 12 11  1  0
 13 14  2  0
 16 15  1  6
 16 18  1  0
 16 17  1  0
 18 20  1  0
 19 13  1  0
 18 19  1  6
 20 22  1  0
 21 20  2  0
M  END
$$$$
