MST.pdb
     RDKit          3D

 22 21  0  0  1  0  0  0  0  0999 V2000
    7.2918  -12.2038   28.4680 C   0  0  0  0  0  0  0  0  0  0  0  0
    6.7925  -11.5043   26.8504 S   0  0  0  0  0  0  0  0  0  0  0  0
    6.1535  -12.8621   25.8592 C   0  0  0  0  0  0  0  0  0  0  0  0
    7.2687  -13.8424   25.4765 C   0  0  0  0  0  0  0  0  0  0  0  0
    6.5998  -14.9792   24.7357 C   0  0  2  0  0  0  0  0  0  0  0  0
    5.7796  -15.6872   25.6922 N   0  0  0  0  0  0  0  0  0  0  0  0
    7.5568  -15.8995   24.1218 C   0  0  0  0  0  0  0  0  0  0  0  0
    8.0103  -16.9318   24.6837 O   0  0  0  0  0  0  0  0  0  0  0  0
   10.0044  -14.9596   20.7398 O   0  0  0  0  0  0  0  0  0  0  0  0
    9.0422  -15.9818   20.6854 C   0  0  0  0  0  0  0  0  0  0  0  0
    8.9443  -16.5159   22.1210 C   0  0  2  0  0  0  0  0  0  0  0  0
    8.0226  -15.6378   22.8075 N   0  0  0  0  0  0  0  0  0  0  0  0
   10.2567  -16.4341   22.7988 C   0  0  0  0  0  0  0  0  0  0  0  0
   10.6683  -15.3242   23.1961 O   0  0  0  0  0  0  0  0  0  0  0  0
   11.9684  -18.5592   25.8075 C   0  0  0  0  0  0  0  0  0  0  0  0
   12.6974  -18.5893   24.5032 C   0  0  1  0  0  0  0  0  0  0  0  0
   12.3817  -19.7740   23.8488 O   0  0  0  0  0  0  0  0  0  0  0  0
   12.3688  -17.3810   23.6503 C   0  0  2  0  0  0  0  0  0  0  0  0
   11.0831  -17.5652   23.0241 N   0  0  0  0  0  0  0  0  0  0  0  0
   13.4400  -17.0912   22.6886 C   0  0  0  0  0  0  0  0  0  0  0  0
   13.2583  -17.1068   21.4452 O   0  0  0  0  0  0  0  0  0  0  0  0
   14.7082  -16.7864   23.1525 O   0  0  0  0  0  0  0  0  0  0  0  0
  2  1  1  0
  3  2  1  0
  3  4  1  0
  4  5  1  0
  5  7  1  0
  5  6  1  1
  7 12  1  0
  7  8  2  0
  9 10  1  0
 11 10  1  6
 11 13  1  0
 12 11  1  0
 13 14  2  0
 16 15  1  1
 16 18  1  0
 16 17  1  0
 18 20  1  0
 19 13  1  0
 18 19  1  6
 20 22  1  0
 21 20  2  0
M  END
$$$$
