MST.pdb
     RDKit          3D

 22 21  0  0  1  0  0  0  0  0999 V2000
    8.2141  -11.6079   20.0600 C   0  0  0  0  0  0  0  0  0  0  0  0
    7.3843  -12.1838   18.5319 S   0  0  0  0  0  0  0  0  0  0  0  0
    8.2088  -13.6974   18.0181 C   0  0  0  0  0  0  0  0  0  0  0  0
    8.2787  -14.7091   19.1681 C   0  0  0  0  0  0  0  0  0  0  0  0
    8.8722  -15.9733   18.5868 C   0  0  2  0  0  0  0  0  0  0  0  0
    7.9297  -16.4789   17.6147 N   0  0  0  0  0  0  0  0  0  0  0  0
    9.1398  -16.9942   19.5996 C   0  0  0  0  0  0  0  0  0  0  0  0
    8.3136  -17.8767   19.9542 O   0  0  0  0  0  0  0  0  0  0  0  0
   12.8382  -17.4686   20.3812 O   0  0  0  0  0  0  0  0  0  0  0  0
   12.1021  -18.5626   20.8663 C   0  0  0  0  0  0  0  0  0  0  0  0
   10.7388  -17.9820   21.2658 C   0  0  2  0  0  0  0  0  0  0  0  0
   10.4047  -17.0168   20.2417 N   0  0  0  0  0  0  0  0  0  0  0  0
   10.8328  -17.2726   22.5605 C   0  0  0  0  0  0  0  0  0  0  0  0
   11.5890  -16.2839   22.6591 O   0  0  0  0  0  0  0  0  0  0  0  0
    8.5814  -15.2297   24.6078 C   0  0  0  0  0  0  0  0  0  0  0  0
    9.0265  -16.3774   25.4553 C   0  0  1  0  0  0  0  0  0  0  0  0
    8.0121  -17.3269   25.4798 O   0  0  0  0  0  0  0  0  0  0  0  0
   10.3281  -16.9702   24.9556 C   0  0  2  0  0  0  0  0  0  0  0  0
   10.0994  -17.6616   23.7111 N   0  0  0  0  0  0  0  0  0  0  0  0
   10.9627  -17.8161   25.9745 C   0  0  0  0  0  0  0  0  0  0  0  0
   11.2593  -19.0198   25.7687 O   0  0  0  0  0  0  0  0  0  0  0  0
   11.2535  -17.2826   27.2185 O   0  0  0  0  0  0  0  0  0  0  0  0
  2  1  1  0
  3  2  1  0
  3  4  1  0
  4  5  1  0
  5  7  1  0
  5  6  1  6
  7 12  1  0
  7  8  2  0
  9 10  1  0
 11 10  1  6
 11 13  1  0
 12 11  1  0
 13 14  2  0
 16 15  1  6
 16 18  1  0
 16 17  1  0
 18 20  1  0
 19 13  1  0
 18 19  1  6
 20 22  1  0
 21 20  2  0
M  END
$$$$
