MST.pdb
     RDKit          3D

 22 21  0  0  1  0  0  0  0  0999 V2000
   -3.6404  -24.2843   20.5937 C   0  0  0  0  0  0  0  0  0  0  0  0
   -2.0009  -24.7626   21.2559 S   0  0  0  0  0  0  0  0  0  0  0  0
   -1.5821  -23.5785   22.5432 C   0  0  0  0  0  0  0  0  0  0  0  0
   -2.0069  -24.0883   23.9255 C   0  0  0  0  0  0  0  0  0  0  0  0
   -3.0185  -23.0947   24.4525 C   0  0  2  0  0  0  0  0  0  0  0  0
   -2.3542  -21.8139   24.5370 N   0  0  0  0  0  0  0  0  0  0  0  0
   -3.5523  -23.4668   25.7626 C   0  0  0  0  0  0  0  0  0  0  0  0
   -4.1876  -24.5297   25.9950 O   0  0  0  0  0  0  0  0  0  0  0  0
   -3.4834  -22.3971   30.4361 O   0  0  0  0  0  0  0  0  0  0  0  0
   -2.9837  -22.0925   29.1588 C   0  0  0  0  0  0  0  0  0  0  0  0
   -3.8692  -22.8810   28.1844 C   0  0  2  0  0  0  0  0  0  0  0  0
   -3.3569  -22.5927   26.8629 N   0  0  0  0  0  0  0  0  0  0  0  0
   -5.2696  -22.4093   28.2533 C   0  0  0  0  0  0  0  0  0  0  0  0
   -5.5913  -21.3671   27.6454 O   0  0  0  0  0  0  0  0  0  0  0  0
   -8.4689  -24.5038   27.6154 C   0  0  0  0  0  0  0  0  0  0  0  0
   -8.6069  -23.7337   28.8888 C   0  0  1  0  0  0  0  0  0  0  0  0
   -8.4312  -24.6084   29.9544 O   0  0  0  0  0  0  0  0  0  0  0  0
   -7.6284  -22.5788   28.9532 C   0  0  2  0  0  0  0  0  0  0  0  0
   -6.2796  -23.0876   28.9833 N   0  0  0  0  0  0  0  0  0  0  0  0
   -7.9281  -21.6789   30.0743 C   0  0  0  0  0  0  0  0  0  0  0  0
   -7.1200  -21.4735   31.0145 O   0  0  0  0  0  0  0  0  0  0  0  0
   -9.1458  -21.0213   30.1136 O   0  0  0  0  0  0  0  0  0  0  0  0
  2  1  1  0
  3  2  1  0
  3  4  1  0
  4  5  1  0
  5  7  1  0
  5  6  1  1
  7 12  1  0
  7  8  2  0
  9 10  1  0
 11 10  1  1
 11 13  1  0
 12 11  1  0
 13 14  2  0
 16 15  1  6
 16 18  1  0
 16 17  1  0
 18 20  1  0
 19 13  1  0
 18 19  1  1
 20 22  1  0
 21 20  2  0
M  END
$$$$
