MYM.pdb
     RDKit          3D

 29 29  0  0  1  0  0  0  0  0999 V2000
   10.3096  -18.1813   15.5402 C   0  0  0  0  0  0  0  0  0  0  0  0
    9.3715  -19.6030   16.1066 S   0  0  0  0  0  0  0  0  0  0  0  0
    9.6117  -19.8355   17.8800 C   0  0  0  0  0  0  0  0  0  0  0  0
    9.7401  -18.4859   18.5577 C   0  0  0  0  0  0  0  0  0  0  0  0
    9.8738  -18.6396   20.0591 C   0  0  2  0  0  0  0  0  0  0  0  0
    8.6596  -19.2678   20.5680 N   0  0  0  0  0  0  0  0  0  0  0  0
   10.0341  -17.3409   20.7380 C   0  0  0  0  0  0  0  0  0  0  0  0
   11.0123  -16.5644   20.4671 O   0  0  0  0  0  0  0  0  0  0  0  0
    6.1859  -12.9537   27.2937 O   0  0  0  0  0  0  0  0  0  0  0  0
    6.5930  -13.4713   26.0698 C   0  0  0  0  0  0  0  0  0  0  0  0
    7.1599  -12.6295   25.1484 C   0  0  0  0  0  0  0  0  0  0  0  0
    7.5613  -13.1400   23.9414 C   0  0  0  0  0  0  0  0  0  0  0  0
    7.4027  -14.4832   23.6434 C   0  0  0  0  0  0  0  0  0  0  0  0
    7.8634  -14.9477   22.3122 C   0  0  0  0  0  0  0  0  0  0  0  0
    9.2646  -15.5163   22.3239 C   0  0  2  0  0  0  0  0  0  0  0  0
    9.1372  -16.8553   21.7256 N   0  0  0  0  0  0  0  0  0  0  0  0
    9.8680  -15.5943   23.6638 C   0  0  0  0  0  0  0  0  0  0  0  0
   10.5039  -14.5475   24.0367 O   0  0  0  0  0  0  0  0  0  0  0  0
    6.8316  -15.3447   24.5652 C   0  0  0  0  0  0  0  0  0  0  0  0
    6.4310  -14.8276   25.7738 C   0  0  0  0  0  0  0  0  0  0  0  0
    9.1420  -12.8726   28.8761 C   0  0  0  0  0  0  0  0  0  0  0  0
    9.2404  -14.6795   28.7065 S   0  0  0  0  0  0  0  0  0  0  0  0
    9.9644  -15.0772   27.0722 C   0  0  0  0  0  0  0  0  0  0  0  0
    9.9806  -16.5469   26.8660 C   0  0  0  0  0  0  0  0  0  0  0  0
   10.7014  -16.9089   25.5863 C   0  0  2  0  0  0  0  0  0  0  0  0
    9.7618  -16.7305   24.4863 N   0  0  0  0  0  0  0  0  0  0  0  0
   11.0753  -18.3351   25.6291 C   0  0  0  0  0  0  0  0  0  0  0  0
   12.1297  -18.7118   26.4840 O   0  0  0  0  0  0  0  0  0  0  0  0
   10.5039  -19.2222   24.9455 O   0  0  0  0  0  0  0  0  0  0  0  0
  1  2  1  0
  3  4  1  0
  3  2  1  0
  5  4  1  0
  5  6  1  1
  7  5  1  0
  8  7  2  0
  9 10  1  0
 10 11  2  0
 10 20  1  0
 11 12  1  0
 12 13  2  0
 13 14  1  0
 15 14  1  1
 15 16  1  0
 16  7  1  0
 17 15  1  0
 17 26  1  0
 18 17  2  0
 19 13  1  0
 20 19  2  0
 22 21  1  0
 23 22  1  0
 24 23  1  0
 25 24  1  1
 25 26  1  0
 27 25  1  0
 27 28  1  0
 29 27  2  0
M  END
$$$$
