MYM.pdb
     RDKit          3D

 29 29  0  0  1  0  0  0  0  0999 V2000
    9.7105  -13.0313   18.9384 C   0  0  0  0  0  0  0  0  0  0  0  0
    8.0133  -12.8852   18.3726 S   0  0  0  0  0  0  0  0  0  0  0  0
    7.2463  -14.5166   18.2908 C   0  0  0  0  0  0  0  0  0  0  0  0
    6.8435  -14.9604   19.6829 C   0  0  0  0  0  0  0  0  0  0  0  0
    8.0537  -15.3726   20.4961 C   0  0  2  0  0  0  0  0  0  0  0  0
    8.6723  -16.5248   19.8499 N   0  0  0  0  0  0  0  0  0  0  0  0
    7.6923  -15.7608   21.8715 C   0  0  0  0  0  0  0  0  0  0  0  0
    7.0644  -14.9610   22.6456 O   0  0  0  0  0  0  0  0  0  0  0  0
    7.7246  -20.9247   29.1422 O   0  0  0  0  0  0  0  0  0  0  0  0
    7.7337  -20.4156   27.8491 C   0  0  0  0  0  0  0  0  0  0  0  0
    8.9295  -20.3010   27.1890 C   0  0  0  0  0  0  0  0  0  0  0  0
    8.9384  -19.7989   25.9137 C   0  0  0  0  0  0  0  0  0  0  0  0
    7.7652  -19.4091   25.2892 C   0  0  0  0  0  0  0  0  0  0  0  0
    7.8695  -18.8747   23.9095 C   0  0  0  0  0  0  0  0  0  0  0  0
    7.6595  -17.3796   23.8247 C   0  0  2  0  0  0  0  0  0  0  0  0
    8.0037  -17.0248   22.4380 N   0  0  0  0  0  0  0  0  0  0  0  0
    8.4671  -16.6062   24.7813 C   0  0  0  0  0  0  0  0  0  0  0  0
    9.7002  -16.4675   24.4662 O   0  0  0  0  0  0  0  0  0  0  0  0
    6.5502  -19.5196   25.9445 C   0  0  0  0  0  0  0  0  0  0  0  0
    6.5471  -20.0238   27.2230 C   0  0  0  0  0  0  0  0  0  0  0  0
    5.8848  -10.5239   26.3265 C   0  0  0  0  0  0  0  0  0  0  0  0
    6.2632  -11.9246   27.4211 S   0  0  0  0  0  0  0  0  0  0  0  0
    7.5086  -12.9891   26.6033 C   0  0  0  0  0  0  0  0  0  0  0  0
    7.7955  -14.1772   27.4453 C   0  0  0  0  0  0  0  0  0  0  0  0
    8.7423  -15.1257   26.7437 C   0  0  2  0  0  0  0  0  0  0  0  0
    7.9357  -16.0535   25.9606 N   0  0  0  0  0  0  0  0  0  0  0  0
    9.4754  -15.9117   27.7538 C   0  0  0  0  0  0  0  0  0  0  0  0
   10.6436  -15.3478   28.3031 O   0  0  0  0  0  0  0  0  0  0  0  0
    9.1114  -17.0502   28.1441 O   0  0  0  0  0  0  0  0  0  0  0  0
  1  2  1  0
  3  4  1  0
  3  2  1  0
  5  4  1  0
  5  6  1  6
  7  5  1  0
  8  7  2  0
  9 10  1  0
 10 11  2  0
 10 20  1  0
 11 12  1  0
 12 13  2  0
 13 14  1  0
 15 14  1  6
 15 16  1  0
 16  7  1  0
 17 15  1  0
 17 26  1  0
 18 17  2  0
 19 13  1  0
 20 19  2  0
 22 21  1  0
 23 22  1  0
 24 23  1  0
 25 24  1  1
 25 26  1  0
 27 25  1  0
 27 28  1  0
 29 27  2  0
M  END
$$$$
