MYM.pdb
     RDKit          3D

 29 29  0  0  1  0  0  0  0  0999 V2000
    1.9925  -18.8390   22.5312 C   0  0  0  0  0  0  0  0  0  0  0  0
    2.3695  -20.5474   22.1296 S   0  0  0  0  0  0  0  0  0  0  0  0
    3.8445  -21.0812   23.0217 C   0  0  0  0  0  0  0  0  0  0  0  0
    5.0832  -20.6246   22.2771 C   0  0  0  0  0  0  0  0  0  0  0  0
    6.0938  -20.0100   23.2240 C   0  0  2  0  0  0  0  0  0  0  0  0
    5.3742  -19.4272   24.3512 N   0  0  0  0  0  0  0  0  0  0  0  0
    6.8776  -18.9397   22.5810 C   0  0  0  0  0  0  0  0  0  0  0  0
    7.7389  -19.1990   21.6732 O   0  0  0  0  0  0  0  0  0  0  0  0
    9.0896  -11.6309   18.5314 O   0  0  0  0  0  0  0  0  0  0  0  0
    8.4839  -12.5558   19.3734 C   0  0  0  0  0  0  0  0  0  0  0  0
    8.2474  -13.8230   18.9072 C   0  0  0  0  0  0  0  0  0  0  0  0
    7.6499  -14.7351   19.7376 C   0  0  0  0  0  0  0  0  0  0  0  0
    7.2851  -14.3959   21.0299 C   0  0  0  0  0  0  0  0  0  0  0  0
    6.6418  -15.4457   21.8571 C   0  0  0  0  0  0  0  0  0  0  0  0
    7.5994  -16.5220   22.3169 C   0  0  2  0  0  0  0  0  0  0  0  0
    6.7449  -17.5646   22.9083 N   0  0  0  0  0  0  0  0  0  0  0  0
    8.6052  -16.0551   23.2843 C   0  0  0  0  0  0  0  0  0  0  0  0
    9.0574  -14.8760   23.0739 O   0  0  0  0  0  0  0  0  0  0  0  0
    7.5183  -13.1194   21.5136 C   0  0  0  0  0  0  0  0  0  0  0  0
    8.1177  -12.2088   20.6768 C   0  0  0  0  0  0  0  0  0  0  0  0
    7.2762  -12.7140   26.6686 C   0  0  0  0  0  0  0  0  0  0  0  0
    8.4001  -13.2767   27.9814 S   0  0  0  0  0  0  0  0  0  0  0  0
    9.4752  -14.5972   27.3079 C   0  0  0  0  0  0  0  0  0  0  0  0
    8.8691  -15.1715   26.0807 C   0  0  0  0  0  0  0  0  0  0  0  0
    9.7807  -16.2042   25.4556 C   0  0  2  0  0  0  0  0  0  0  0  0
    9.0472  -16.8373   24.3667 N   0  0  0  0  0  0  0  0  0  0  0  0
   10.0876  -17.2456   26.4540 C   0  0  0  0  0  0  0  0  0  0  0  0
   10.9996  -16.9244   27.4785 O   0  0  0  0  0  0  0  0  0  0  0  0
    9.5792  -18.3955   26.4347 O   0  0  0  0  0  0  0  0  0  0  0  0
  1  2  1  0
  3  4  1  0
  3  2  1  0
  5  4  1  0
  5  6  1  1
  7  5  1  0
  8  7  2  0
  9 10  1  0
 10 11  2  0
 10 20  1  0
 11 12  1  0
 12 13  2  0
 13 14  1  0
 15 14  1  1
 15 16  1  0
 16  7  1  0
 17 15  1  0
 17 26  1  0
 18 17  2  0
 19 13  1  0
 20 19  2  0
 22 21  1  0
 23 22  1  0
 24 23  1  0
 25 24  1  1
 25 26  1  0
 27 25  1  0
 27 28  1  0
 29 27  2  0
M  END
$$$$
