MYM.pdb
     RDKit          3D

 29 29  0  0  1  0  0  0  0  0999 V2000
    0.0196  -21.0084   19.3455 C   0  0  0  0  0  0  0  0  0  0  0  0
    0.6774  -20.3036   20.8596 S   0  0  0  0  0  0  0  0  0  0  0  0
    2.0153  -19.1549   20.4766 C   0  0  0  0  0  0  0  0  0  0  0  0
    2.5926  -18.5983   21.7627 C   0  0  0  0  0  0  0  0  0  0  0  0
    4.0785  -18.3358   21.6255 C   0  0  2  0  0  0  0  0  0  0  0  0
    4.7111  -19.5364   21.0903 N   0  0  0  0  0  0  0  0  0  0  0  0
    4.7097  -18.0270   22.9213 C   0  0  0  0  0  0  0  0  0  0  0  0
    4.3282  -17.0324   23.6273 O   0  0  0  0  0  0  0  0  0  0  0  0
    9.9274  -19.1086   30.0345 O   0  0  0  0  0  0  0  0  0  0  0  0
    9.2086  -19.2581   28.8545 C   0  0  0  0  0  0  0  0  0  0  0  0
    7.8518  -19.4416   28.9223 C   0  0  0  0  0  0  0  0  0  0  0  0
    7.1429  -19.5891   27.7585 C   0  0  0  0  0  0  0  0  0  0  0  0
    7.7742  -19.5557   26.5262 C   0  0  0  0  0  0  0  0  0  0  0  0
    6.9287  -19.7264   25.3195 C   0  0  0  0  0  0  0  0  0  0  0  0
    6.4338  -18.4200   24.7406 C   0  0  2  0  0  0  0  0  0  0  0  0
    5.7687  -18.7897   23.4804 N   0  0  0  0  0  0  0  0  0  0  0  0
    7.4959  -17.4294   24.5037 C   0  0  0  0  0  0  0  0  0  0  0  0
    8.3028  -17.7130   23.5510 O   0  0  0  0  0  0  0  0  0  0  0  0
    9.1442  -19.3710   26.4434 C   0  0  0  0  0  0  0  0  0  0  0  0
    9.8501  -19.2235   27.6133 C   0  0  0  0  0  0  0  0  0  0  0  0
    6.8142  -10.8800   26.5368 C   0  0  0  0  0  0  0  0  0  0  0  0
    6.1344  -12.5649   26.4902 S   0  0  0  0  0  0  0  0  0  0  0  0
    6.9457  -13.4880   25.1327 C   0  0  0  0  0  0  0  0  0  0  0  0
    8.2813  -13.9665   25.5687 C   0  0  0  0  0  0  0  0  0  0  0  0
    8.6398  -15.2708   24.8916 C   0  0  2  0  0  0  0  0  0  0  0  0
    7.6270  -16.2517   25.2616 N   0  0  0  0  0  0  0  0  0  0  0  0
    9.9352  -15.7459   25.4130 C   0  0  0  0  0  0  0  0  0  0  0  0
   11.0917  -15.0273   25.0515 O   0  0  0  0  0  0  0  0  0  0  0  0
   10.0557  -16.7521   26.1573 O   0  0  0  0  0  0  0  0  0  0  0  0
  1  2  1  0
  3  4  1  0
  3  2  1  0
  5  4  1  0
  5  6  1  1
  7  5  1  0
  8  7  2  0
  9 10  1  0
 10 11  2  0
 10 20  1  0
 11 12  1  0
 12 13  2  0
 13 14  1  0
 15 14  1  6
 15 16  1  0
 16  7  1  0
 17 15  1  0
 17 26  1  0
 18 17  2  0
 19 13  1  0
 20 19  2  0
 22 21  1  0
 23 22  1  0
 24 23  1  0
 25 24  1  1
 25 26  1  0
 27 25  1  0
 27 28  1  0
 29 27  2  0
M  END
$$$$
