NWR.pdb
     RDKit          3D

 34 35  0  0  1  0  0  0  0  0999 V2000
    8.3363  -18.0973   18.6565 N   0  0  0  0  0  0  0  0  0  0  0  0
    7.5112  -16.9536   18.6146 C   0  0  0  0  0  0  0  0  0  0  0  0
    7.0062  -16.5857   17.5200 O   0  0  0  0  0  0  0  0  0  0  0  0
    7.2460  -16.1905   19.8732 C   0  0  0  0  0  0  0  0  0  0  0  0
    8.1693  -16.6967   20.9678 C   0  0  2  0  0  0  0  0  0  0  0  0
    7.6645  -18.0034   21.3386 N   0  0  0  0  0  0  0  0  0  0  0  0
    8.1426  -15.8180   22.1506 C   0  0  0  0  0  0  0  0  0  0  0  0
    7.0709  -15.3208   22.5616 O   0  0  0  0  0  0  0  0  0  0  0  0
    9.3217  -15.4842   22.8914 N   0  0  0  0  0  0  0  0  0  0  0  0
    9.4737  -15.8006   24.2680 C   0  0  1  0  0  0  0  0  0  0  0  0
    8.1958  -16.3680   24.8554 C   0  0  0  0  0  0  0  0  0  0  0  0
    7.2307  -15.3023   25.1883 C   0  0  0  0  0  0  0  0  0  0  0  0
    5.8466  -15.3408   25.0541 C   0  0  0  0  0  0  0  0  0  0  0  0
    5.3230  -14.1910   25.4977 N   0  0  0  0  0  0  0  0  0  0  0  0
    6.3167  -13.3929   25.9206 C   0  0  0  0  0  0  0  0  0  0  0  0
    6.2913  -12.1213   26.4497 C   0  0  0  0  0  0  0  0  0  0  0  0
    7.4546  -11.4816   26.8095 C   0  0  0  0  0  0  0  0  0  0  0  0
    8.6267  -12.1408   26.6271 C   0  0  0  0  0  0  0  0  0  0  0  0
    8.6787  -13.4049   26.1034 C   0  0  0  0  0  0  0  0  0  0  0  0
    7.5236  -14.0799   25.7310 C   0  0  0  0  0  0  0  0  0  0  0  0
   10.5494  -16.7914   24.5283 C   0  0  0  0  0  0  0  0  0  0  0  0
   10.2107  -18.0051   24.5101 O   0  0  0  0  0  0  0  0  0  0  0  0
   16.3014  -17.0715   20.4791 N   0  0  0  0  0  0  0  0  0  0  0  0
   17.2350  -17.7217   21.3280 C   0  0  0  0  0  0  0  0  0  0  0  0
   18.1621  -18.4315   20.8164 N   0  0  0  0  0  0  0  0  0  0  0  0
   17.2034  -17.6312   22.7423 N   0  0  0  0  0  0  0  0  0  0  0  0
   16.1788  -16.8979   23.3940 C   0  0  0  0  0  0  0  0  0  0  0  0
   15.2881  -17.7147   24.2910 C   0  0  0  0  0  0  0  0  0  0  0  0
   14.2933  -16.8569   24.9695 C   0  0  0  0  0  0  0  0  0  0  0  0
   12.9200  -17.4463   25.0807 C   0  0  2  0  0  0  0  0  0  0  0  0
   11.8944  -16.4572   24.7886 N   0  0  0  0  0  0  0  0  0  0  0  0
   12.6424  -18.1934   26.3030 C   0  0  0  0  0  0  0  0  0  0  0  0
   11.7406  -17.6086   27.2181 O   0  0  0  0  0  0  0  0  0  0  0  0
   13.1056  -19.2858   26.6367 O   0  0  0  0  0  0  0  0  0  0  0  0
  2  4  1  0
  2  1  1  0
  3  2  2  0
  5  4  1  0
  5  7  1  0
  5  6  1  1
  7  8  2  0
  9 10  1  0
  9  7  1  0
 11 12  1  0
 10 11  1  6
 12 13  2  0
 14 13  1  0
 15 14  1  0
 16 15  2  0
 17 16  1  0
 18 19  1  0
 18 17  2  0
 19 20  2  0
 20 15  1  0
 20 12  1  0
 21 10  1  0
 21 22  2  0
 23 24  1  0
 24 26  1  0
 25 24  2  0
 26 27  1  0
 28 27  1  0
 28 29  1  0
 30 29  1  1
 30 31  1  0
 30 32  1  0
 31 21  1  0
 32 34  2  0
 32 33  1  0
M  END
$$$$
