NWR.pdb
     RDKit          3D

 34 35  0  0  1  0  0  0  0  0999 V2000
    7.4244  -13.2119   17.7238 N   0  0  0  0  0  0  0  0  0  0  0  0
    8.5643  -13.8186   18.2924 C   0  0  0  0  0  0  0  0  0  0  0  0
    9.4272  -14.3533   17.5454 O   0  0  0  0  0  0  0  0  0  0  0  0
    8.7339  -13.8195   19.7783 C   0  0  0  0  0  0  0  0  0  0  0  0
    9.0486  -15.2306   20.2439 C   0  0  2  0  0  0  0  0  0  0  0  0
    7.8383  -15.9977   20.0283 N   0  0  0  0  0  0  0  0  0  0  0  0
    9.3911  -15.2661   21.6768 C   0  0  0  0  0  0  0  0  0  0  0  0
   10.3427  -14.5926   22.1303 O   0  0  0  0  0  0  0  0  0  0  0  0
    8.6682  -16.0601   22.6241 N   0  0  0  0  0  0  0  0  0  0  0  0
    9.0571  -16.1661   23.9864 C   0  0  1  0  0  0  0  0  0  0  0  0
    7.8562  -16.1612   24.9124 C   0  0  0  0  0  0  0  0  0  0  0  0
    7.1610  -14.8594   24.8939 C   0  0  0  0  0  0  0  0  0  0  0  0
    6.1587  -14.4468   24.0219 C   0  0  0  0  0  0  0  0  0  0  0  0
    5.7601  -13.2120   24.3524 N   0  0  0  0  0  0  0  0  0  0  0  0
    6.4672  -12.7943   25.4148 C   0  0  0  0  0  0  0  0  0  0  0  0
    6.4327  -11.6076   26.1134 C   0  0  0  0  0  0  0  0  0  0  0  0
    7.2714  -11.3912   27.1819 C   0  0  0  0  0  0  0  0  0  0  0  0
    8.1331  -12.3814   27.5261 C   0  0  0  0  0  0  0  0  0  0  0  0
    8.1868  -13.5699   26.8481 C   0  0  0  0  0  0  0  0  0  0  0  0
    7.3536  -13.8217   25.7660 C   0  0  0  0  0  0  0  0  0  0  0  0
    9.8299  -17.3997   24.2829 C   0  0  0  0  0  0  0  0  0  0  0  0
    9.3206  -18.4866   23.8989 O   0  0  0  0  0  0  0  0  0  0  0  0
   15.5690  -22.4643   25.0920 N   0  0  0  0  0  0  0  0  0  0  0  0
   15.8825  -21.8684   23.8424 C   0  0  0  0  0  0  0  0  0  0  0  0
   16.2158  -22.6079   22.8589 N   0  0  0  0  0  0  0  0  0  0  0  0
   15.8483  -20.4704   23.6104 N   0  0  0  0  0  0  0  0  0  0  0  0
   15.4498  -19.5794   24.6398 C   0  0  0  0  0  0  0  0  0  0  0  0
   14.0354  -19.7603   25.1212 C   0  0  0  0  0  0  0  0  0  0  0  0
   13.2122  -18.5758   24.7969 C   0  0  0  0  0  0  0  0  0  0  0  0
   11.7893  -18.6471   25.2618 C   0  0  2  0  0  0  0  0  0  0  0  0
   11.0699  -17.4210   24.9539 N   0  0  0  0  0  0  0  0  0  0  0  0
   11.5887  -19.0801   26.6407 C   0  0  0  0  0  0  0  0  0  0  0  0
   11.1094  -18.1130   27.5506 O   0  0  0  0  0  0  0  0  0  0  0  0
   11.7896  -20.2010   27.1124 O   0  0  0  0  0  0  0  0  0  0  0  0
  2  4  1  0
  2  1  1  0
  3  2  2  0
  5  4  1  0
  5  7  1  0
  5  6  1  1
  7  8  2  0
  9 10  1  0
  9  7  1  0
 11 12  1  0
 10 11  1  1
 12 13  2  0
 14 13  1  0
 15 14  1  0
 16 15  2  0
 17 16  1  0
 18 19  1  0
 18 17  2  0
 19 20  2  0
 20 15  1  0
 20 12  1  0
 21 10  1  0
 21 22  2  0
 23 24  1  0
 24 26  1  0
 25 24  2  0
 26 27  1  0
 28 27  1  0
 28 29  1  0
 30 29  1  1
 30 31  1  0
 30 32  1  0
 31 21  1  0
 32 34  2  0
 32 33  1  0
M  END
$$$$
