NWR.pdb
     RDKit          3D

 34 35  0  0  1  0  0  0  0  0999 V2000
    7.8688  -12.5015   17.6491 N   0  0  0  0  0  0  0  0  0  0  0  0
    7.2399  -13.5708   18.3213 C   0  0  0  0  0  0  0  0  0  0  0  0
    6.5392  -14.3930   17.6720 O   0  0  0  0  0  0  0  0  0  0  0  0
    7.4133  -13.7148   19.7997 C   0  0  0  0  0  0  0  0  0  0  0  0
    8.0100  -15.0784   20.1019 C   0  0  2  0  0  0  0  0  0  0  0  0
    6.8901  -15.9958   20.1632 N   0  0  0  0  0  0  0  0  0  0  0  0
    8.7115  -15.0894   21.3979 C   0  0  0  0  0  0  0  0  0  0  0  0
    9.7159  -14.3702   21.5947 O   0  0  0  0  0  0  0  0  0  0  0  0
    8.2942  -15.9097   22.4949 N   0  0  0  0  0  0  0  0  0  0  0  0
    9.0491  -16.0245   23.6930 C   0  0  1  0  0  0  0  0  0  0  0  0
    8.1665  -16.3605   24.8795 C   0  0  0  0  0  0  0  0  0  0  0  0
    7.2442  -15.2541   25.2013 C   0  0  0  0  0  0  0  0  0  0  0  0
    5.8544  -15.2656   25.1421 C   0  0  0  0  0  0  0  0  0  0  0  0
    5.3807  -14.0802   25.5462 N   0  0  0  0  0  0  0  0  0  0  0  0
    6.4128  -13.2847   25.8703 C   0  0  0  0  0  0  0  0  0  0  0  0
    6.4438  -11.9854   26.3267 C   0  0  0  0  0  0  0  0  0  0  0  0
    7.6385  -11.3558   26.5881 C   0  0  0  0  0  0  0  0  0  0  0  0
    8.7844  -12.0531   26.3824 C   0  0  0  0  0  0  0  0  0  0  0  0
    8.7805  -13.3453   25.9297 C   0  0  0  0  0  0  0  0  0  0  0  0
    7.5925  -14.0110   25.6573 C   0  0  0  0  0  0  0  0  0  0  0  0
   10.1035  -17.0688   23.6257 C   0  0  0  0  0  0  0  0  0  0  0  0
    9.7074  -18.2588   23.5022 O   0  0  0  0  0  0  0  0  0  0  0  0
   16.5977  -19.6934   22.8920 N   0  0  0  0  0  0  0  0  0  0  0  0
   17.1069  -19.4838   21.5836 C   0  0  0  0  0  0  0  0  0  0  0  0
   18.0495  -20.2242   21.1495 N   0  0  0  0  0  0  0  0  0  0  0  0
   16.6241  -18.4805   20.7063 N   0  0  0  0  0  0  0  0  0  0  0  0
   15.5550  -17.6346   21.0988 C   0  0  0  0  0  0  0  0  0  0  0  0
   14.6026  -18.2390   22.0951 C   0  0  0  0  0  0  0  0  0  0  0  0
   13.5075  -17.2987   22.4155 C   0  0  0  0  0  0  0  0  0  0  0  0
   12.5023  -17.8101   23.4023 C   0  0  2  0  0  0  0  0  0  0  0  0
   11.4878  -16.8087   23.6915 N   0  0  0  0  0  0  0  0  0  0  0  0
   13.0466  -18.4180   24.6120 C   0  0  0  0  0  0  0  0  0  0  0  0
   12.9161  -17.6835   25.8104 O   0  0  0  0  0  0  0  0  0  0  0  0
   13.6132  -19.5079   24.7149 O   0  0  0  0  0  0  0  0  0  0  0  0
  2  4  1  0
  2  1  1  0
  3  2  2  0
  5  4  1  0
  5  7  1  0
  5  6  1  1
  7  8  2  0
  9 10  1  0
  9  7  1  0
 11 12  1  0
 10 11  1  1
 12 13  2  0
 14 13  1  0
 15 14  1  0
 16 15  2  0
 17 16  1  0
 18 19  1  0
 18 17  2  0
 19 20  2  0
 20 15  1  0
 20 12  1  0
 21 10  1  0
 21 22  2  0
 23 24  1  0
 24 26  1  0
 25 24  2  0
 26 27  1  0
 28 27  1  0
 28 29  1  0
 30 29  1  1
 30 31  1  0
 30 32  1  0
 31 21  1  0
 32 34  2  0
 32 33  1  0
M  END
$$$$
