NWR.pdb
     RDKit          3D

 34 35  0  0  1  0  0  0  0  0999 V2000
    7.6014  -15.0318   17.1050 N   0  0  0  0  0  0  0  0  0  0  0  0
    7.7693  -15.9739   18.1417 C   0  0  0  0  0  0  0  0  0  0  0  0
    7.2761  -17.1279   18.0250 O   0  0  0  0  0  0  0  0  0  0  0  0
    8.5321  -15.5896   19.3694 C   0  0  0  0  0  0  0  0  0  0  0  0
    7.6820  -15.8751   20.5952 C   0  0  2  0  0  0  0  0  0  0  0  0
    6.5882  -14.9259   20.5480 N   0  0  0  0  0  0  0  0  0  0  0  0
    8.4410  -15.6720   21.8420 C   0  0  0  0  0  0  0  0  0  0  0  0
    9.2719  -14.7430   21.9482 O   0  0  0  0  0  0  0  0  0  0  0  0
    8.2774  -16.5107   22.9909 N   0  0  0  0  0  0  0  0  0  0  0  0
    9.0386  -16.3370   24.1778 C   0  0  1  0  0  0  0  0  0  0  0  0
    8.1861  -16.5148   25.4195 C   0  0  0  0  0  0  0  0  0  0  0  0
    7.2145  -15.4145   25.5736 C   0  0  0  0  0  0  0  0  0  0  0  0
    5.8296  -15.4858   25.4632 C   0  0  0  0  0  0  0  0  0  0  0  0
    5.2998  -14.2805   25.7070 N   0  0  0  0  0  0  0  0  0  0  0  0
    6.2902  -13.4140   25.9746 C   0  0  0  0  0  0  0  0  0  0  0  0
    6.2583  -12.0703   26.2761 C   0  0  0  0  0  0  0  0  0  0  0  0
    7.4191  -11.3695   26.5072 C   0  0  0  0  0  0  0  0  0  0  0  0
    8.5954  -12.0417   26.4287 C   0  0  0  0  0  0  0  0  0  0  0  0
    8.6538  -13.3769   26.1310 C   0  0  0  0  0  0  0  0  0  0  0  0
    7.5014  -14.1146   25.8935 C   0  0  0  0  0  0  0  0  0  0  0  0
   10.1755  -17.2863   24.2914 C   0  0  0  0  0  0  0  0  0  0  0  0
   10.0277  -18.4078   23.7359 O   0  0  0  0  0  0  0  0  0  0  0  0
   14.1245  -13.5338   19.5406 N   0  0  0  0  0  0  0  0  0  0  0  0
   14.4170  -14.8947   19.2622 C   0  0  0  0  0  0  0  0  0  0  0  0
   14.4392  -15.2986   18.0533 N   0  0  0  0  0  0  0  0  0  0  0  0
   14.6928  -15.8579   20.2650 N   0  0  0  0  0  0  0  0  0  0  0  0
   14.3488  -15.6070   21.6182 C   0  0  0  0  0  0  0  0  0  0  0  0
   13.6937  -16.7605   22.3291 C   0  0  0  0  0  0  0  0  0  0  0  0
   13.3974  -16.4137   23.7355 C   0  0  0  0  0  0  0  0  0  0  0  0
   12.6794  -17.4756   24.5117 C   0  0  2  0  0  0  0  0  0  0  0  0
   11.3801  -17.0090   24.9699 N   0  0  0  0  0  0  0  0  0  0  0  0
   13.4463  -18.1204   25.5724 C   0  0  0  0  0  0  0  0  0  0  0  0
   13.5070  -17.4513   26.8139 O   0  0  0  0  0  0  0  0  0  0  0  0
   14.0545  -19.1910   25.5147 O   0  0  0  0  0  0  0  0  0  0  0  0
  2  4  1  0
  2  1  1  0
  3  2  2  0
  5  4  1  0
  5  7  1  0
  5  6  1  1
  7  8  2  0
  9 10  1  0
  9  7  1  0
 11 12  1  0
 10 11  1  1
 12 13  2  0
 14 13  1  0
 15 14  1  0
 16 15  2  0
 17 16  1  0
 18 19  1  0
 18 17  2  0
 19 20  2  0
 20 15  1  0
 20 12  1  0
 21 10  1  0
 21 22  2  0
 23 24  1  0
 24 26  1  0
 25 24  2  0
 26 27  1  0
 28 27  1  0
 28 29  1  0
 30 29  1  1
 30 31  1  0
 30 32  1  0
 31 21  1  0
 32 34  2  0
 32 33  1  0
M  END
$$$$
