NWR.pdb
     RDKit          3D

 34 35  0  0  1  0  0  0  0  0999 V2000
    7.1022  -13.6467   17.1442 N   0  0  0  0  0  0  0  0  0  0  0  0
    8.4646  -13.7073   17.5060 C   0  0  0  0  0  0  0  0  0  0  0  0
    9.3363  -13.9408   16.6261 O   0  0  0  0  0  0  0  0  0  0  0  0
    8.8576  -13.4932   18.9330 C   0  0  0  0  0  0  0  0  0  0  0  0
    9.5735  -14.7312   19.4448 C   0  0  2  0  0  0  0  0  0  0  0  0
    8.8661  -15.8608   18.8763 N   0  0  0  0  0  0  0  0  0  0  0  0
    9.5200  -14.8211   20.9148 C   0  0  0  0  0  0  0  0  0  0  0  0
   10.5424  -14.6342   21.6108 O   0  0  0  0  0  0  0  0  0  0  0  0
    8.3146  -15.1223   21.6266 N   0  0  0  0  0  0  0  0  0  0  0  0
    8.2255  -15.0494   23.0426 C   0  0  1  0  0  0  0  0  0  0  0  0
    6.7838  -15.0580   23.5130 C   0  0  0  0  0  0  0  0  0  0  0  0
    6.6830  -14.7902   24.9609 C   0  0  0  0  0  0  0  0  0  0  0  0
    6.5255  -15.7185   25.9850 C   0  0  0  0  0  0  0  0  0  0  0  0
    6.5127  -15.0842   27.1641 N   0  0  0  0  0  0  0  0  0  0  0  0
    6.6560  -13.7659   26.9527 C   0  0  0  0  0  0  0  0  0  0  0  0
    6.6962  -12.7084   27.8345 C   0  0  0  0  0  0  0  0  0  0  0  0
    6.8429  -11.4170   27.3840 C   0  0  0  0  0  0  0  0  0  0  0  0
    6.9462  -11.2170   26.0458 C   0  0  0  0  0  0  0  0  0  0  0  0
    6.9094  -12.2510   25.1489 C   0  0  0  0  0  0  0  0  0  0  0  0
    6.7638  -13.5665   25.5695 C   0  0  0  0  0  0  0  0  0  0  0  0
    8.9151  -16.1692   23.7336 C   0  0  0  0  0  0  0  0  0  0  0  0
    8.6512  -16.3214   24.9564 O   0  0  0  0  0  0  0  0  0  0  0  0
   13.8438  -23.3330   23.5228 N   0  0  0  0  0  0  0  0  0  0  0  0
   12.8244  -23.1566   22.5509 C   0  0  0  0  0  0  0  0  0  0  0  0
   12.2726  -24.1789   22.0256 N   0  0  0  0  0  0  0  0  0  0  0  0
   12.3683  -21.8872   22.1151 N   0  0  0  0  0  0  0  0  0  0  0  0
   13.0232  -20.7025   22.5393 C   0  0  0  0  0  0  0  0  0  0  0  0
   12.2705  -19.8943   23.5616 C   0  0  0  0  0  0  0  0  0  0  0  0
   11.3469  -18.9435   22.9066 C   0  0  0  0  0  0  0  0  0  0  0  0
   10.5975  -18.0431   23.8411 C   0  0  2  0  0  0  0  0  0  0  0  0
    9.8259  -17.0484   23.1125 N   0  0  0  0  0  0  0  0  0  0  0  0
   11.3768  -17.4585   24.9274 C   0  0  0  0  0  0  0  0  0  0  0  0
   11.4533  -18.1971   26.1280 O   0  0  0  0  0  0  0  0  0  0  0  0
   11.9832  -16.3854   24.9233 O   0  0  0  0  0  0  0  0  0  0  0  0
  2  4  1  0
  2  1  1  0
  3  2  2  0
  5  4  1  0
  5  7  1  0
  5  6  1  6
  7  8  2  0
  9 10  1  0
  9  7  1  0
 11 12  1  0
 10 11  1  6
 12 13  2  0
 14 13  1  0
 15 14  1  0
 16 15  2  0
 17 16  1  0
 18 19  1  0
 18 17  2  0
 19 20  2  0
 20 15  1  0
 20 12  1  0
 21 10  1  0
 21 22  2  0
 23 24  1  0
 24 26  1  0
 25 24  2  0
 26 27  1  0
 28 27  1  0
 28 29  1  0
 30 29  1  6
 30 31  1  0
 30 32  1  0
 31 21  1  0
 32 34  2  0
 32 33  1  0
M  END
$$$$
