NWR.pdb
     RDKit          3D

 34 35  0  0  1  0  0  0  0  0999 V2000
    6.5791  -13.3692   18.0517 N   0  0  0  0  0  0  0  0  0  0  0  0
    7.6899  -14.1005   18.5231 C   0  0  0  0  0  0  0  0  0  0  0  0
    8.3193  -14.8589   17.7374 O   0  0  0  0  0  0  0  0  0  0  0  0
    8.1069  -13.9658   19.9530 C   0  0  0  0  0  0  0  0  0  0  0  0
    8.5270  -15.3267   20.4807 C   0  0  2  0  0  0  0  0  0  0  0  0
    7.2988  -16.0664   20.6901 N   0  0  0  0  0  0  0  0  0  0  0  0
    9.2448  -15.2142   21.7630 C   0  0  0  0  0  0  0  0  0  0  0  0
   10.3028  -14.5533   21.8550 O   0  0  0  0  0  0  0  0  0  0  0  0
    8.7836  -15.8432   22.9638 N   0  0  0  0  0  0  0  0  0  0  0  0
    9.5093  -15.7848   24.1837 C   0  0  1  0  0  0  0  0  0  0  0  0
    8.6418  -16.1630   25.3687 C   0  0  0  0  0  0  0  0  0  0  0  0
    7.5265  -15.2136   25.5505 C   0  0  0  0  0  0  0  0  0  0  0  0
    6.1646  -15.4760   25.4421 C   0  0  0  0  0  0  0  0  0  0  0  0
    5.4726  -14.3626   25.7149 N   0  0  0  0  0  0  0  0  0  0  0  0
    6.3332  -13.3720   25.9996 C   0  0  0  0  0  0  0  0  0  0  0  0
    6.1150  -12.0530   26.3318 C   0  0  0  0  0  0  0  0  0  0  0  0
    7.1675  -11.2017   26.5759 C   0  0  0  0  0  0  0  0  0  0  0  0
    8.4259  -11.7003   26.4789 C   0  0  0  0  0  0  0  0  0  0  0  0
    8.6692  -13.0072   26.1506 C   0  0  0  0  0  0  0  0  0  0  0  0
    7.6302  -13.8937   25.8993 C   0  0  0  0  0  0  0  0  0  0  0  0
   10.6929  -16.6823   24.2072 C   0  0  0  0  0  0  0  0  0  0  0  0
   10.5080  -17.8651   23.8137 O   0  0  0  0  0  0  0  0  0  0  0  0
   20.4305  -17.0484   23.0959 N   0  0  0  0  0  0  0  0  0  0  0  0
   19.1703  -16.4182   23.2683 C   0  0  0  0  0  0  0  0  0  0  0  0
   19.0867  -15.1483   23.1934 N   0  0  0  0  0  0  0  0  0  0  0  0
   17.9689  -17.1256   23.5245 N   0  0  0  0  0  0  0  0  0  0  0  0
   16.7300  -16.4384   23.5951 C   0  0  0  0  0  0  0  0  0  0  0  0
   15.5334  -17.3149   23.8500 C   0  0  0  0  0  0  0  0  0  0  0  0
   14.2920  -16.5131   23.8945 C   0  0  0  0  0  0  0  0  0  0  0  0
   13.1365  -17.1730   24.5838 C   0  0  2  0  0  0  0  0  0  0  0  0
   11.9789  -16.2937   24.6355 N   0  0  0  0  0  0  0  0  0  0  0  0
   13.4286  -17.7869   25.8749 C   0  0  0  0  0  0  0  0  0  0  0  0
   12.5270  -17.5197   26.9277 O   0  0  0  0  0  0  0  0  0  0  0  0
   14.3783  -18.5188   26.1604 O   0  0  0  0  0  0  0  0  0  0  0  0
  2  4  1  0
  2  1  1  0
  3  2  2  0
  5  4  1  0
  5  7  1  0
  5  6  1  1
  7  8  2  0
  9 10  1  0
  9  7  1  0
 11 12  1  0
 10 11  1  1
 12 13  2  0
 14 13  1  0
 15 14  1  0
 16 15  2  0
 17 16  1  0
 18 19  1  0
 18 17  2  0
 19 20  2  0
 20 15  1  0
 20 12  1  0
 21 10  1  0
 21 22  2  0
 23 24  1  0
 24 26  1  0
 25 24  2  0
 26 27  1  0
 28 27  1  0
 28 29  1  0
 30 29  1  1
 30 31  1  0
 30 32  1  0
 31 21  1  0
 32 34  2  0
 32 33  1  0
M  END
$$$$
