NWR.pdb
     RDKit          3D

 34 35  0  0  1  0  0  0  0  0999 V2000
    7.2558  -15.2934   17.5160 N   0  0  0  0  0  0  0  0  0  0  0  0
    7.3655  -13.9996   18.0681 C   0  0  0  0  0  0  0  0  0  0  0  0
    7.0401  -12.9954   17.3797 O   0  0  0  0  0  0  0  0  0  0  0  0
    7.8684  -13.8365   19.4671 C   0  0  0  0  0  0  0  0  0  0  0  0
    8.1945  -15.2035   20.0430 C   0  0  2  0  0  0  0  0  0  0  0  0
    6.9188  -15.8528   20.2681 N   0  0  0  0  0  0  0  0  0  0  0  0
    8.9116  -15.0956   21.3260 C   0  0  0  0  0  0  0  0  0  0  0  0
    9.9881  -14.4645   21.4130 O   0  0  0  0  0  0  0  0  0  0  0  0
    8.4290  -15.6957   22.5332 N   0  0  0  0  0  0  0  0  0  0  0  0
    9.1864  -15.7089   23.7351 C   0  0  1  0  0  0  0  0  0  0  0  0
    8.3367  -16.1068   24.9266 C   0  0  0  0  0  0  0  0  0  0  0  0
    7.2663  -15.1236   25.1833 C   0  0  0  0  0  0  0  0  0  0  0  0
    5.8957  -15.3039   25.0283 C   0  0  0  0  0  0  0  0  0  0  0  0
    5.2542  -14.1883   25.3982 N   0  0  0  0  0  0  0  0  0  0  0  0
    6.1568  -13.2756   25.7923 C   0  0  0  0  0  0  0  0  0  0  0  0
    5.9975  -11.9858   26.2491 C   0  0  0  0  0  0  0  0  0  0  0  0
    7.0855  -11.2174   26.5921 C   0  0  0  0  0  0  0  0  0  0  0  0
    8.3194  -11.7682   26.4664 C   0  0  0  0  0  0  0  0  0  0  0  0
    8.5044  -13.0477   26.0152 C   0  0  0  0  0  0  0  0  0  0  0  0
    7.4281  -13.8510   25.6617 C   0  0  0  0  0  0  0  0  0  0  0  0
   10.3405  -16.6431   23.6926 C   0  0  0  0  0  0  0  0  0  0  0  0
   10.0962  -17.8197   23.3129 O   0  0  0  0  0  0  0  0  0  0  0  0
   14.4578  -14.6638   19.0272 N   0  0  0  0  0  0  0  0  0  0  0  0
   15.5581  -14.7081   19.9230 C   0  0  0  0  0  0  0  0  0  0  0  0
   16.4672  -13.8176   19.8469 N   0  0  0  0  0  0  0  0  0  0  0  0
   15.7163  -15.7019   20.9213 N   0  0  0  0  0  0  0  0  0  0  0  0
   14.9252  -16.8791   20.8969 C   0  0  0  0  0  0  0  0  0  0  0  0
   13.6299  -16.7873   21.6578 C   0  0  0  0  0  0  0  0  0  0  0  0
   13.8781  -16.6945   23.1124 C   0  0  0  0  0  0  0  0  0  0  0  0
   12.7762  -17.2260   23.9778 C   0  0  2  0  0  0  0  0  0  0  0  0
   11.6606  -16.2951   24.0455 N   0  0  0  0  0  0  0  0  0  0  0  0
   13.1761  -17.7138   25.2936 C   0  0  0  0  0  0  0  0  0  0  0  0
   12.9848  -16.8386   26.3845 O   0  0  0  0  0  0  0  0  0  0  0  0
   13.6663  -18.8103   25.5707 O   0  0  0  0  0  0  0  0  0  0  0  0
  2  4  1  0
  2  1  1  0
  3  2  2  0
  5  4  1  0
  5  7  1  0
  5  6  1  1
  7  8  2  0
  9 10  1  0
  9  7  1  0
 11 12  1  0
 10 11  1  1
 12 13  2  0
 14 13  1  0
 15 14  1  0
 16 15  2  0
 17 16  1  0
 18 19  1  0
 18 17  2  0
 19 20  2  0
 20 15  1  0
 20 12  1  0
 21 10  1  0
 21 22  2  0
 23 24  1  0
 24 26  1  0
 25 24  2  0
 26 27  1  0
 28 27  1  0
 28 29  1  0
 30 29  1  1
 30 31  1  0
 30 32  1  0
 31 21  1  0
 32 34  2  0
 32 33  1  0
M  END
$$$$
