RMQ.pdb
     RDKit          3D

 29 28  0  0  1  0  0  0  0  0999 V2000
   19.2843  -18.0210  -18.0849 N   0  0  0  0  0  0  0  0  0  0  0  0
   17.9979  -17.6725  -17.5470 C   0  0  0  0  0  0  0  0  0  0  0  0
   17.0353  -18.5382  -17.5611 N   0  0  0  0  0  0  0  0  0  0  0  0
   17.7508  -16.3929  -16.9915 N   0  0  0  0  0  0  0  0  0  0  0  0
   18.6453  -15.2715  -17.1415 C   0  0  0  0  0  0  0  0  0  0  0  0
   19.9295  -15.4778  -16.3710 C   0  0  0  0  0  0  0  0  0  0  0  0
   20.4590  -14.2249  -15.7557 C   0  0  0  0  0  0  0  0  0  0  0  0
   21.0177  -13.3155  -16.8017 C   0  0  2  0  0  0  0  0  0  0  0  0
   21.8010  -14.0252  -17.7954 N   0  0  0  0  0  0  0  0  0  0  0  0
   21.8226  -12.2157  -16.1751 C   0  0  0  0  0  0  0  0  0  0  0  0
   21.2671  -11.5038  -15.3232 O   0  0  0  0  0  0  0  0  0  0  0  0
   16.0952  -18.3412  -17.2057 C   0  0  0  0  0  0  0  0  0  0  0  0
   28.2210  -12.3508  -15.8746 S   0  0  0  0  0  0  0  0  0  0  0  0
   28.0389  -10.5295  -15.9778 C   0  0  0  0  0  0  0  0  0  0  0  0
   26.3064  -10.0737  -15.6202 C   0  0  0  0  0  0  0  0  0  0  0  0
   25.3849  -11.0655  -16.2303 C   0  0  2  0  0  0  0  0  0  0  0  0
   23.9296  -10.8700  -15.8877 N   0  0  0  0  0  0  0  0  0  0  0  0
   23.1861  -11.9592  -16.5164 C   0  0  0  0  0  0  0  0  0  0  0  0
   23.4182   -9.5522  -16.2846 O   0  0  0  0  0  0  0  0  0  0  0  0
   23.3297   -9.2889  -17.5070 N   0  0  0  0  0  0  0  0  0  0  0  0
   18.6715   -8.0157  -18.1215 C   0  0  0  0  0  0  0  0  0  0  0  0
   18.5681   -7.4384  -16.8069 O   0  0  0  0  0  0  0  0  0  0  0  0
   17.4291   -7.1787  -16.4124 C   0  0  0  0  0  0  0  0  0  0  0  0
   19.7861   -7.2080  -16.0635 C   0  0  0  0  0  0  0  0  0  0  0  0
   21.0913   -7.6472  -16.5729 C   0  0  1  0  0  0  0  0  0  0  0  0
   22.3060   -7.3261  -15.7816 N   0  0  0  0  0  0  0  0  0  0  0  0
   23.0117   -8.5468  -15.3729 C   0  0  0  0  0  0  0  0  0  0  0  0
   22.0584   -6.4868  -14.6245 O   0  0  0  0  0  0  0  0  0  0  0  0
   21.6824   -5.1410  -14.7661 O   0  0  0  0  0  0  0  0  0  0  0  0
  1  2  1  0
  2  3  2  0
  4  5  1  0
  4  2  1  0
  6  5  1  0
  7  6  1  0
  8 10  1  0
  8  7  1  0
  8  9  1  6
 10 11  2  0
 13 12  1  0
 13 14  1  0
 15 14  1  0
 16 15  1  1
 17 16  1  0
 17 10  1  0
 18 16  1  0
 18 19  2  0
 20 21  1  0
 21 22  2  0
 23 21  1  0
 23 24  1  0
 25 24  1  6
 25 26  1  0
 25 27  1  0
 26 18  1  0
 27 28  1  0
 29 27  2  0
M  END
$$$$
