RMQ.pdb
     RDKit          3D

 29 28  0  0  1  0  0  0  0  0999 V2000
   27.4940  -26.1191  -16.4422 N   0  0  0  0  0  0  0  0  0  0  0  0
   27.2401  -26.0248  -17.8537 C   0  0  0  0  0  0  0  0  0  0  0  0
   27.2903  -27.0873  -18.5919 N   0  0  0  0  0  0  0  0  0  0  0  0
   26.9293  -24.7866  -18.4679 N   0  0  0  0  0  0  0  0  0  0  0  0
   26.8393  -23.5395  -17.7490 C   0  0  0  0  0  0  0  0  0  0  0  0
   28.1282  -23.2202  -17.0266 C   0  0  0  0  0  0  0  0  0  0  0  0
   27.9385  -22.9386  -15.5728 C   0  0  0  0  0  0  0  0  0  0  0  0
   27.0414  -21.7601  -15.3737 C   0  0  2  0  0  0  0  0  0  0  0  0
   27.7786  -20.5245  -15.1880 N   0  0  0  0  0  0  0  0  0  0  0  0
   26.1001  -21.9957  -14.2298 C   0  0  0  0  0  0  0  0  0  0  0  0
   25.3375  -22.9729  -14.2984 O   0  0  0  0  0  0  0  0  0  0  0  0
   27.0878  -27.0859  -19.5958 C   0  0  0  0  0  0  0  0  0  0  0  0
   27.2921  -20.0814   -8.4143 S   0  0  0  0  0  0  0  0  0  0  0  0
   25.4821  -20.1127   -8.1247 C   0  0  0  0  0  0  0  0  0  0  0  0
   24.6385  -20.7058   -9.6325 C   0  0  0  0  0  0  0  0  0  0  0  0
   25.5955  -20.7437  -10.7673 C   0  0  1  0  0  0  0  0  0  0  0  0
   25.0529  -21.3622  -12.0309 N   0  0  0  0  0  0  0  0  0  0  0  0
   26.0480  -21.1501  -13.0793 C   0  0  0  0  0  0  0  0  0  0  0  0
   23.7347  -20.8369  -12.4073 O   0  0  0  0  0  0  0  0  0  0  0  0
   23.6204  -19.6069  -12.6212 N   0  0  0  0  0  0  0  0  0  0  0  0
   18.2624  -24.1722  -13.7043 C   0  0  0  0  0  0  0  0  0  0  0  0
   17.8753  -22.7861  -13.7371 O   0  0  0  0  0  0  0  0  0  0  0  0
   16.6960  -22.5548  -14.0131 C   0  0  0  0  0  0  0  0  0  0  0  0
   18.8813  -21.7882  -13.4522 C   0  0  0  0  0  0  0  0  0  0  0  0
   20.2657  -22.1619  -13.1361 C   0  0  1  0  0  0  0  0  0  0  0  0
   21.2583  -21.0808  -12.9108 N   0  0  0  0  0  0  0  0  0  0  0  0
   22.5703  -21.6314  -12.5491 C   0  0  0  0  0  0  0  0  0  0  0  0
   20.8497  -20.0918  -11.9314 O   0  0  0  0  0  0  0  0  0  0  0  0
   20.1864  -18.9149  -12.3155 O   0  0  0  0  0  0  0  0  0  0  0  0
  1  2  1  0
  2  3  2  0
  4  5  1  0
  4  2  1  0
  6  5  1  0
  7  6  1  0
  8 10  1  0
  8  7  1  0
  8  9  1  1
 10 11  2  0
 13 12  1  0
 13 14  1  0
 15 14  1  0
 16 15  1  1
 17 16  1  0
 17 10  1  0
 18 16  1  0
 18 19  2  0
 20 21  1  0
 21 22  2  0
 23 21  1  0
 23 24  1  0
 25 24  1  6
 25 26  1  0
 25 27  1  0
 26 18  1  0
 27 28  1  0
 29 27  2  0
M  END
$$$$
