RMQ.pdb
     RDKit          3D

 29 28  0  0  1  0  0  0  0  0999 V2000
   28.5429  -18.3254  -19.3308 N   0  0  0  0  0  0  0  0  0  0  0  0
   27.8991  -17.2556  -18.6189 C   0  0  0  0  0  0  0  0  0  0  0  0
   27.4681  -16.2183  -19.2626 N   0  0  0  0  0  0  0  0  0  0  0  0
   27.7174  -17.3061  -17.2149 N   0  0  0  0  0  0  0  0  0  0  0  0
   27.7426  -18.5287  -16.4503 C   0  0  0  0  0  0  0  0  0  0  0  0
   26.8811  -19.5978  -17.0829 C   0  0  0  0  0  0  0  0  0  0  0  0
   26.8373  -20.8659  -16.2962 C   0  0  0  0  0  0  0  0  0  0  0  0
   27.4419  -20.6717  -14.9435 C   0  0  2  0  0  0  0  0  0  0  0  0
   28.7469  -21.2937  -14.8226 N   0  0  0  0  0  0  0  0  0  0  0  0
   26.5157  -21.1646  -13.8715 C   0  0  0  0  0  0  0  0  0  0  0  0
   25.6450  -21.9895  -14.1919 O   0  0  0  0  0  0  0  0  0  0  0  0
   27.0427  -15.4074  -18.8040 C   0  0  0  0  0  0  0  0  0  0  0  0
   27.6609  -20.1209   -7.6872 S   0  0  0  0  0  0  0  0  0  0  0  0
   25.8463  -20.2984   -7.4952 C   0  0  0  0  0  0  0  0  0  0  0  0
   25.1283  -20.9021   -9.0627 C   0  0  0  0  0  0  0  0  0  0  0  0
   26.0629  -20.6336  -10.1850 C   0  0  1  0  0  0  0  0  0  0  0  0
   25.5995  -21.1393  -11.5278 N   0  0  0  0  0  0  0  0  0  0  0  0
   26.5958  -20.7272  -12.5137 C   0  0  0  0  0  0  0  0  0  0  0  0
   24.2509  -20.6785  -11.8808 O   0  0  0  0  0  0  0  0  0  0  0  0
   24.1146  -19.5145  -12.3261 N   0  0  0  0  0  0  0  0  0  0  0  0
   20.4698  -23.5247  -15.6649 C   0  0  0  0  0  0  0  0  0  0  0  0
   19.6042  -22.4876  -15.1679 O   0  0  0  0  0  0  0  0  0  0  0  0
   18.5104  -22.3750  -15.7259 C   0  0  0  0  0  0  0  0  0  0  0  0
   20.0758  -21.6690  -14.0739 C   0  0  0  0  0  0  0  0  0  0  0  0
   21.3736  -21.9169  -13.4334 C   0  0  1  0  0  0  0  0  0  0  0  0
   21.7744  -21.0608  -12.2884 N   0  0  0  0  0  0  0  0  0  0  0  0
   23.0802  -21.4661  -11.7537 C   0  0  0  0  0  0  0  0  0  0  0  0
   20.7976  -21.0029  -11.2174 O   0  0  0  0  0  0  0  0  0  0  0  0
   20.6829  -22.0399  -10.2772 O   0  0  0  0  0  0  0  0  0  0  0  0
  1  2  1  0
  2  3  2  0
  4  5  1  0
  4  2  1  0
  6  5  1  0
  7  6  1  0
  8 10  1  0
  8  7  1  0
  8  9  1  6
 10 11  2  0
 13 12  1  0
 13 14  1  0
 15 14  1  0
 16 15  1  1
 17 16  1  0
 17 10  1  0
 18 16  1  0
 18 19  2  0
 20 21  1  0
 21 22  2  0
 23 21  1  0
 23 24  1  0
 25 24  1  6
 25 26  1  0
 25 27  1  0
 26 18  1  0
 27 28  1  0
 29 27  2  0
M  END
$$$$
