RMQ.pdb
     RDKit          3D

 29 28  0  0  1  0  0  0  0  0999 V2000
   30.3003  -23.6048  -16.6023 N   0  0  0  0  0  0  0  0  0  0  0  0
   29.5128  -24.8071  -16.6008 C   0  0  0  0  0  0  0  0  0  0  0  0
   29.9691  -25.8780  -16.0341 N   0  0  0  0  0  0  0  0  0  0  0  0
   28.2331  -24.8535  -17.2069 N   0  0  0  0  0  0  0  0  0  0  0  0
   27.5811  -23.7036  -17.7838 C   0  0  0  0  0  0  0  0  0  0  0  0
   27.2864  -22.6501  -16.7404 C   0  0  0  0  0  0  0  0  0  0  0  0
   25.8386  -22.5525  -16.3894 C   0  0  0  0  0  0  0  0  0  0  0  0
   25.5083  -23.4561  -15.2459 C   0  0  2  0  0  0  0  0  0  0  0  0
   25.1192  -24.7843  -15.6804 N   0  0  0  0  0  0  0  0  0  0  0  0
   24.4474  -22.8479  -14.3771 C   0  0  0  0  0  0  0  0  0  0  0  0
   23.3003  -23.3170  -14.4485 O   0  0  0  0  0  0  0  0  0  0  0  0
   29.4885  -26.7817  -16.0678 C   0  0  0  0  0  0  0  0  0  0  0  0
   27.3663  -20.4077   -9.3528 S   0  0  0  0  0  0  0  0  0  0  0  0
   25.5433  -20.3586   -9.1640 C   0  0  0  0  0  0  0  0  0  0  0  0
   24.7705  -21.3377  -10.4986 C   0  0  0  0  0  0  0  0  0  0  0  0
   24.2420  -20.4327  -11.5505 C   0  0  2  0  0  0  0  0  0  0  0  0
   23.6196  -21.1328  -12.7320 N   0  0  0  0  0  0  0  0  0  0  0  0
   24.7029  -21.7638  -13.4822 C   0  0  0  0  0  0  0  0  0  0  0  0
   22.8158  -20.2367  -13.5725 O   0  0  0  0  0  0  0  0  0  0  0  0
   23.3420  -19.7506  -14.6013 N   0  0  0  0  0  0  0  0  0  0  0  0
   18.7823  -23.2638  -16.0125 C   0  0  0  0  0  0  0  0  0  0  0  0
   19.0868  -22.2080  -16.9423 O   0  0  0  0  0  0  0  0  0  0  0  0
   18.5695  -22.2968  -18.0581 C   0  0  0  0  0  0  0  0  0  0  0  0
   19.9632  -21.1444  -16.5065 C   0  0  0  0  0  0  0  0  0  0  0  0
   20.5836  -21.1575  -15.1757 C   0  0  2  0  0  0  0  0  0  0  0  0
   20.3954  -19.9778  -14.2939 N   0  0  0  0  0  0  0  0  0  0  0  0
   21.4719  -19.8802  -13.3004 C   0  0  0  0  0  0  0  0  0  0  0  0
   19.1054  -19.9286  -13.6321 O   0  0  0  0  0  0  0  0  0  0  0  0
   18.0068  -19.2820  -14.2216 O   0  0  0  0  0  0  0  0  0  0  0  0
  1  2  1  0
  2  3  2  0
  4  5  1  0
  4  2  1  0
  6  5  1  0
  7  6  1  0
  8 10  1  0
  8  7  1  0
  8  9  1  6
 10 11  2  0
 13 12  1  0
 13 14  1  0
 15 14  1  0
 16 15  1  1
 17 16  1  0
 17 10  1  0
 18 16  1  0
 18 19  2  0
 20 21  1  0
 21 22  2  0
 23 21  1  0
 23 24  1  0
 25 24  1  6
 25 26  1  0
 25 27  1  0
 26 18  1  0
 27 28  1  0
 29 27  2  0
M  END
$$$$
