RMQ.pdb
     RDKit          3D

 29 28  0  0  1  0  0  0  0  0999 V2000
   20.5473  -25.8965  -13.9140 N   0  0  0  0  0  0  0  0  0  0  0  0
   19.3133  -25.4804  -13.3062 C   0  0  0  0  0  0  0  0  0  0  0  0
   18.6924  -26.2752  -12.4943 N   0  0  0  0  0  0  0  0  0  0  0  0
   18.7511  -24.2073  -13.5709 N   0  0  0  0  0  0  0  0  0  0  0  0
   19.5035  -22.9777  -13.5262 C   0  0  0  0  0  0  0  0  0  0  0  0
   20.8947  -23.1565  -14.0901 C   0  0  0  0  0  0  0  0  0  0  0  0
   21.6858  -21.8910  -14.1282 C   0  0  0  0  0  0  0  0  0  0  0  0
   21.7919  -21.2908  -12.7637 C   0  0  2  0  0  0  0  0  0  0  0  0
   20.7146  -20.3619  -12.4790 N   0  0  0  0  0  0  0  0  0  0  0  0
   23.1265  -20.6326  -12.5749 C   0  0  0  0  0  0  0  0  0  0  0  0
   23.2706  -19.4788  -13.0099 O   0  0  0  0  0  0  0  0  0  0  0  0
   17.7949  -26.0458  -12.0576 C   0  0  0  0  0  0  0  0  0  0  0  0
   27.4058  -20.9046   -7.8452 S   0  0  0  0  0  0  0  0  0  0  0  0
   28.5383  -21.3265   -9.2239 C   0  0  0  0  0  0  0  0  0  0  0  0
   27.7800  -20.8187  -10.8063 C   0  0  0  0  0  0  0  0  0  0  0  0
   26.3621  -21.2571  -10.8529 C   0  0  2  0  0  0  0  0  0  0  0  0
   25.5828  -20.7505  -12.0401 N   0  0  0  0  0  0  0  0  0  0  0  0
   24.2238  -21.2738  -11.9222 C   0  0  0  0  0  0  0  0  0  0  0  0
   26.1998  -21.1029  -13.3249 O   0  0  0  0  0  0  0  0  0  0  0  0
   26.2985  -22.3154  -13.6279 N   0  0  0  0  0  0  0  0  0  0  0  0
   24.7487  -19.1713  -18.8585 C   0  0  0  0  0  0  0  0  0  0  0  0
   24.1346  -19.7058  -17.6714 O   0  0  0  0  0  0  0  0  0  0  0  0
   22.9019  -19.7332  -17.6589 C   0  0  0  0  0  0  0  0  0  0  0  0
   24.9944  -20.1589  -16.6014 C   0  0  0  0  0  0  0  0  0  0  0  0
   26.4541  -20.0197  -16.6781 C   0  0  2  0  0  0  0  0  0  0  0  0
   27.2756  -20.5332  -15.5529 N   0  0  0  0  0  0  0  0  0  0  0  0
   26.6954  -20.1584  -14.2575 C   0  0  0  0  0  0  0  0  0  0  0  0
   28.6700  -20.1363  -15.6038 O   0  0  0  0  0  0  0  0  0  0  0  0
   29.5814  -20.7803  -16.4565 O   0  0  0  0  0  0  0  0  0  0  0  0
  1  2  1  0
  2  3  2  0
  4  5  1  0
  4  2  1  0
  6  5  1  0
  7  6  1  0
  8 10  1  0
  8  7  1  0
  8  9  1  6
 10 11  2  0
 13 12  1  0
 13 14  1  0
 15 14  1  0
 16 15  1  1
 17 16  1  0
 17 10  1  0
 18 16  1  0
 18 19  2  0
 20 21  1  0
 21 22  2  0
 23 21  1  0
 23 24  1  0
 25 24  1  1
 25 26  1  0
 25 27  1  0
 26 18  1  0
 27 28  1  0
 29 27  2  0
M  END
$$$$
