RMQ.pdb
     RDKit          3D

 29 28  0  0  1  0  0  0  0  0999 V2000
   13.9240  -11.1409  -19.7127 N   0  0  0  0  0  0  0  0  0  0  0  0
   14.0760  -11.8923  -18.4970 C   0  0  0  0  0  0  0  0  0  0  0  0
   13.0515  -12.1000  -17.7331 N   0  0  0  0  0  0  0  0  0  0  0  0
   15.3308  -12.4220  -18.1073 N   0  0  0  0  0  0  0  0  0  0  0  0
   16.5331  -12.2861  -18.8922 C   0  0  0  0  0  0  0  0  0  0  0  0
   17.7114  -12.9586  -18.2254 C   0  0  0  0  0  0  0  0  0  0  0  0
   18.9469  -12.9566  -19.0633 C   0  0  0  0  0  0  0  0  0  0  0  0
   20.0588  -13.6753  -18.3702 C   0  0  2  0  0  0  0  0  0  0  0  0
   19.6017  -14.8554  -17.6609 N   0  0  0  0  0  0  0  0  0  0  0  0
   20.7951  -12.7507  -17.4466 C   0  0  0  0  0  0  0  0  0  0  0  0
   20.3658  -12.6249  -16.2886 O   0  0  0  0  0  0  0  0  0  0  0  0
   13.0916  -12.6606  -16.8770 C   0  0  0  0  0  0  0  0  0  0  0  0
   27.9741  -10.7062  -15.2770 S   0  0  0  0  0  0  0  0  0  0  0  0
   26.8332  -11.4965  -16.4749 C   0  0  0  0  0  0  0  0  0  0  0  0
   25.1237  -10.9520  -16.1315 C   0  0  0  0  0  0  0  0  0  0  0  0
   24.1779  -11.6461  -17.0419 C   0  0  1  0  0  0  0  0  0  0  0  0
   22.7327  -11.2510  -16.8722 N   0  0  0  0  0  0  0  0  0  0  0  0
   21.9565  -12.0189  -17.8429 C   0  0  0  0  0  0  0  0  0  0  0  0
   22.5125   -9.8059  -17.0093 O   0  0  0  0  0  0  0  0  0  0  0  0
   22.4606   -9.3160  -18.1621 N   0  0  0  0  0  0  0  0  0  0  0  0
   19.1327   -6.8676  -19.2570 C   0  0  0  0  0  0  0  0  0  0  0  0
   19.0061   -6.0123  -18.1062 O   0  0  0  0  0  0  0  0  0  0  0  0
   18.3293   -4.9925  -18.2554 C   0  0  0  0  0  0  0  0  0  0  0  0
   19.6730   -6.4051  -16.8854 C   0  0  0  0  0  0  0  0  0  0  0  0
   20.4918   -7.6219  -16.8151 C   0  0  1  0  0  0  0  0  0  0  0  0
   21.7636   -7.5777  -16.0502 N   0  0  0  0  0  0  0  0  0  0  0  0
   22.3509   -8.9167  -15.9183 C   0  0  0  0  0  0  0  0  0  0  0  0
   21.6521   -6.9555  -14.7445 O   0  0  0  0  0  0  0  0  0  0  0  0
   21.9043   -7.6789  -13.5673 O   0  0  0  0  0  0  0  0  0  0  0  0
  1  2  1  0
  2  3  2  0
  4  5  1  0
  4  2  1  0
  6  5  1  0
  7  6  1  0
  8 10  1  0
  8  7  1  0
  8  9  1  1
 10 11  2  0
 13 12  1  0
 13 14  1  0
 15 14  1  0
 16 15  1  1
 17 16  1  0
 17 10  1  0
 18 16  1  0
 18 19  2  0
 20 21  1  0
 21 22  2  0
 23 21  1  0
 23 24  1  0
 25 24  1  6
 25 26  1  0
 25 27  1  0
 26 18  1  0
 27 28  1  0
 29 27  2  0
M  END
$$$$
