RMQ.pdb
     RDKit          3D

 29 28  0  0  1  0  0  0  0  0999 V2000
   10.1028  -24.0672   -3.1988 N   0  0  0  0  0  0  0  0  0  0  0  0
    9.8301  -23.2504   -4.3495 C   0  0  0  0  0  0  0  0  0  0  0  0
    9.3952  -23.7953   -5.4405 N   0  0  0  0  0  0  0  0  0  0  0  0
   10.0230  -21.8472   -4.3227 N   0  0  0  0  0  0  0  0  0  0  0  0
   10.2835  -21.1004   -3.1166 C   0  0  0  0  0  0  0  0  0  0  0  0
    9.0145  -20.8462   -2.3352 C   0  0  0  0  0  0  0  0  0  0  0  0
    9.2486  -20.1507   -1.0351 C   0  0  0  0  0  0  0  0  0  0  0  0
   10.0457  -18.9029   -1.2373 C   0  0  2  0  0  0  0  0  0  0  0  0
   10.0437  -18.4590   -2.6184 N   0  0  0  0  0  0  0  0  0  0  0  0
   11.4486  -19.0814   -0.7373 C   0  0  0  0  0  0  0  0  0  0  0  0
   12.3466  -19.2498   -1.5778 O   0  0  0  0  0  0  0  0  0  0  0  0
    9.2281  -23.2710   -6.3042 C   0  0  0  0  0  0  0  0  0  0  0  0
   17.2864  -17.0743    3.6254 S   0  0  0  0  0  0  0  0  0  0  0  0
   15.5828  -17.7391    3.4950 C   0  0  0  0  0  0  0  0  0  0  0  0
   14.9785  -17.5228    1.7847 C   0  0  0  0  0  0  0  0  0  0  0  0
   13.5250  -17.8191    1.7193 C   0  0  2  0  0  0  0  0  0  0  0  0
   13.1781  -19.1446    1.0897 N   0  0  0  0  0  0  0  0  0  0  0  0
   11.7869  -19.0653    0.6507 C   0  0  0  0  0  0  0  0  0  0  0  0
   13.4094  -20.2841    1.9861 O   0  0  0  0  0  0  0  0  0  0  0  0
   12.4904  -20.6263    2.7671 N   0  0  0  0  0  0  0  0  0  0  0  0
   13.4468  -26.5342    2.5045 C   0  0  0  0  0  0  0  0  0  0  0  0
   14.7567  -25.9664    2.6881 O   0  0  0  0  0  0  0  0  0  0  0  0
   15.7105  -26.6769    2.3627 C   0  0  0  0  0  0  0  0  0  0  0  0
   14.8531  -24.6312    3.2334 C   0  0  0  0  0  0  0  0  0  0  0  0
   14.6776  -23.4426    2.3894 C   0  0  2  0  0  0  0  0  0  0  0  0
   14.8585  -22.1033    3.0042 N   0  0  0  0  0  0  0  0  0  0  0  0
   14.6109  -21.0336    2.0297 C   0  0  0  0  0  0  0  0  0  0  0  0
   16.1494  -21.9075    3.6364 O   0  0  0  0  0  0  0  0  0  0  0  0
   16.5165  -22.6280    4.7848 O   0  0  0  0  0  0  0  0  0  0  0  0
  1  2  1  0
  2  3  2  0
  4  5  1  0
  4  2  1  0
  6  5  1  0
  7  6  1  0
  8 10  1  0
  8  7  1  0
  8  9  1  6
 10 11  2  0
 13 12  1  0
 13 14  1  0
 15 14  1  0
 16 15  1  6
 17 16  1  0
 17 10  1  0
 18 16  1  0
 18 19  2  0
 20 21  1  0
 21 22  2  0
 23 21  1  0
 23 24  1  0
 25 24  1  1
 25 26  1  0
 25 27  1  0
 26 18  1  0
 27 28  1  0
 29 27  2  0
M  END
$$$$
