IPR.pdb
     RDKit          3D

 27 27  0  0  1  0  0  0  0  0999 V2000
   19.9197  -25.1771  -13.8086 C   0  0  0  0  0  0  0  0  0  0  0  0
   20.1777  -25.8924  -12.5379 C   0  0  0  0  0  0  0  0  0  0  0  0
   18.9913  -25.8677  -11.6199 C   0  0  2  0  0  0  0  0  0  0  0  0
   18.7295  -24.4134  -11.1771 C   0  0  0  0  0  0  0  0  0  0  0  0
   19.2751  -26.6632  -10.3693 C   0  0  2  0  0  0  0  0  0  0  0  0
   19.7009  -27.9777  -10.6849 N   0  0  0  0  0  0  0  0  0  0  0  0
   18.1604  -26.5866   -9.3923 C   0  0  0  0  0  0  0  0  0  0  0  0
   17.2898  -27.5353   -9.5533 O   0  0  0  0  0  0  0  0  0  0  0  0
   18.0041  -25.6398   -8.3988 N   0  0  0  0  0  0  0  0  0  0  0  0
   18.7588  -24.5121   -8.0051 C   0  0  0  0  0  0  0  0  0  0  0  0
   18.9298  -24.8151   -6.5031 C   0  0  0  0  0  0  0  0  0  0  0  0
   17.5579  -25.3612   -6.1720 C   0  0  0  0  0  0  0  0  0  0  0  0
   16.8561  -25.6235   -7.4812 C   0  0  1  0  0  0  0  0  0  0  0  0
   15.8592  -24.5992   -7.8403 C   0  0  0  0  0  0  0  0  0  0  0  0
   16.2166  -23.5113   -8.3109 O   0  0  0  0  0  0  0  0  0  0  0  0
    7.6922  -26.8060   -8.8538 N   0  0  0  0  0  0  0  0  0  0  0  0
    8.6597  -26.7923   -9.8799 C   0  0  0  0  0  0  0  0  0  0  0  0
    8.5343  -27.5866  -10.8788 N   0  0  0  0  0  0  0  0  0  0  0  0
    9.7517  -25.8931   -9.7776 N   0  0  0  0  0  0  0  0  0  0  0  0
    9.7656  -24.9359   -8.7162 C   0  0  0  0  0  0  0  0  0  0  0  0
   10.9926  -24.0252   -8.7618 C   0  0  0  0  0  0  0  0  0  0  0  0
   12.1569  -24.8046   -8.2409 C   0  0  0  0  0  0  0  0  0  0  0  0
   13.4209  -23.9885   -8.1498 C   0  0  2  0  0  0  0  0  0  0  0  0
   14.4744  -24.8192   -7.6628 N   0  0  0  0  0  0  0  0  0  0  0  0
   13.1868  -22.9047   -7.1366 C   0  0  0  0  0  0  0  0  0  0  0  0
   12.5367  -21.7339   -7.4638 O   0  0  0  0  0  0  0  0  0  0  0  0
   13.5864  -23.0491   -5.9530 O   0  0  0  0  0  0  0  0  0  0  0  0
  1  2  1  0
  3  2  1  0
  3  5  1  0
  3  4  1  1
  5  7  1  0
  5  6  1  6
  7  8  2  0
  9 13  1  0
  9  7  1  0
 10  9  1  0
 11 12  1  0
 11 10  1  0
 12 13  1  0
 13 14  1  6
 14 15  2  0
 16 17  1  0
 17 19  1  0
 17 18  2  0
 19 20  1  0
 20 21  1  0
 21 22  1  0
 23 22  1  1
 23 25  1  0
 24 23  1  0
 24 14  1  0
 25 27  2  0
 25 26  1  0
M  END
$$$$
