IPR.pdb
     RDKit          3D

 27 27  0  0  1  0  0  0  0  0999 V2000
   26.3674  -20.3094   -9.0035 C   0  0  0  0  0  0  0  0  0  0  0  0
   27.0076  -20.1324  -10.3269 C   0  0  0  0  0  0  0  0  0  0  0  0
   26.0220  -20.2308  -11.4538 C   0  0  2  0  0  0  0  0  0  0  0  0
   25.5208  -21.6861  -11.5564 C   0  0  0  0  0  0  0  0  0  0  0  0
   26.6878  -19.9019  -12.7676 C   0  0  2  0  0  0  0  0  0  0  0  0
   27.4611  -18.7185  -12.6668 N   0  0  0  0  0  0  0  0  0  0  0  0
   25.7307  -19.9267  -13.9016 C   0  0  0  0  0  0  0  0  0  0  0  0
   25.0692  -18.8166  -14.0206 O   0  0  0  0  0  0  0  0  0  0  0  0
   25.5165  -20.9782  -14.7713 N   0  0  0  0  0  0  0  0  0  0  0  0
   26.0710  -22.2729  -14.8844 C   0  0  0  0  0  0  0  0  0  0  0  0
   26.4950  -22.2543  -16.3666 C   0  0  0  0  0  0  0  0  0  0  0  0
   25.3183  -21.5297  -16.9831 C   0  0  0  0  0  0  0  0  0  0  0  0
   24.5194  -20.9351  -15.8502 C   0  0  1  0  0  0  0  0  0  0  0  0
   23.2967  -21.6894  -15.5211 C   0  0  0  0  0  0  0  0  0  0  0  0
   23.3699  -22.8054  -14.9903 O   0  0  0  0  0  0  0  0  0  0  0  0
   16.8843  -22.5364  -11.0155 N   0  0  0  0  0  0  0  0  0  0  0  0
   16.9907  -23.5974  -11.9387 C   0  0  0  0  0  0  0  0  0  0  0  0
   16.2134  -24.6115  -11.8299 N   0  0  0  0  0  0  0  0  0  0  0  0
   17.9611  -23.5116  -12.9694 N   0  0  0  0  0  0  0  0  0  0  0  0
   18.9629  -22.4948  -12.8968 C   0  0  0  0  0  0  0  0  0  0  0  0
   18.7713  -21.4041  -13.9507 C   0  0  0  0  0  0  0  0  0  0  0  0
   20.1262  -20.9158  -14.3511 C   0  0  0  0  0  0  0  0  0  0  0  0
   20.7672  -21.7631  -15.4204 C   0  0  2  0  0  0  0  0  0  0  0  0
   22.0107  -21.1717  -15.7963 N   0  0  0  0  0  0  0  0  0  0  0  0
   19.8651  -21.7342  -16.6209 C   0  0  0  0  0  0  0  0  0  0  0  0
   18.7882  -22.5867  -16.7398 O   0  0  0  0  0  0  0  0  0  0  0  0
   20.0801  -20.9184  -17.5536 O   0  0  0  0  0  0  0  0  0  0  0  0
  1  2  1  0
  3  2  1  0
  3  5  1  0
  3  4  1  6
  5  7  1  0
  5  6  1  1
  7  8  2  0
  9 13  1  0
  9  7  1  0
 10  9  1  0
 11 12  1  0
 11 10  1  0
 12 13  1  0
 13 14  1  1
 14 15  2  0
 16 17  1  0
 17 19  1  0
 17 18  2  0
 19 20  1  0
 20 21  1  0
 21 22  1  0
 23 22  1  1
 23 25  1  0
 24 23  1  0
 24 14  1  0
 25 27  2  0
 25 26  1  0
M  END
$$$$
