IPR.pdb
     RDKit          3D

 27 27  0  0  1  0  0  0  0  0999 V2000
   26.5120  -20.6084   -7.5408 C   0  0  0  0  0  0  0  0  0  0  0  0
   26.2040  -21.2788   -8.8247 C   0  0  0  0  0  0  0  0  0  0  0  0
   26.0517  -20.3031   -9.9541 C   0  0  2  0  0  0  0  0  0  0  0  0
   24.8538  -19.3770   -9.6592 C   0  0  0  0  0  0  0  0  0  0  0  0
   25.7396  -21.0288  -11.2400 C   0  0  2  0  0  0  0  0  0  0  0  0
   26.7218  -22.0101  -11.5248 N   0  0  0  0  0  0  0  0  0  0  0  0
   25.4519  -20.0927  -12.3552 C   0  0  0  0  0  0  0  0  0  0  0  0
   24.3404  -19.4441  -12.1880 O   0  0  0  0  0  0  0  0  0  0  0  0
   26.2339  -19.8855  -13.4748 N   0  0  0  0  0  0  0  0  0  0  0  0
   27.4152  -20.4906  -13.9593 C   0  0  0  0  0  0  0  0  0  0  0  0
   28.2909  -19.2391  -14.1688 C   0  0  0  0  0  0  0  0  0  0  0  0
   27.2679  -18.2748  -14.7284 C   0  0  0  0  0  0  0  0  0  0  0  0
   25.9088  -18.8901  -14.5061 C   0  0  1  0  0  0  0  0  0  0  0  0
   25.3232  -19.4977  -15.7143 C   0  0  0  0  0  0  0  0  0  0  0  0
   25.7330  -20.5890  -16.1314 O   0  0  0  0  0  0  0  0  0  0  0  0
   20.0577  -21.0158  -11.1154 N   0  0  0  0  0  0  0  0  0  0  0  0
   19.8066  -21.8882  -12.1949 C   0  0  0  0  0  0  0  0  0  0  0  0
   18.8404  -22.7277  -12.1186 N   0  0  0  0  0  0  0  0  0  0  0  0
   20.6356  -21.8110  -13.3429 N   0  0  0  0  0  0  0  0  0  0  0  0
   21.7020  -20.8595  -13.3665 C   0  0  0  0  0  0  0  0  0  0  0  0
   22.4605  -20.8592  -14.6938 C   0  0  0  0  0  0  0  0  0  0  0  0
   22.2711  -19.5176  -15.3252 C   0  0  0  0  0  0  0  0  0  0  0  0
   22.9734  -19.3849  -16.6523 C   0  0  2  0  0  0  0  0  0  0  0  0
   24.2840  -18.8640  -16.4326 N   0  0  0  0  0  0  0  0  0  0  0  0
   22.2119  -18.3795  -17.4678 C   0  0  0  0  0  0  0  0  0  0  0  0
   21.3065  -18.7648  -18.4334 O   0  0  0  0  0  0  0  0  0  0  0  0
   22.3900  -17.1487  -17.2808 O   0  0  0  0  0  0  0  0  0  0  0  0
  1  2  1  0
  3  2  1  0
  3  5  1  0
  3  4  1  1
  5  7  1  0
  5  6  1  6
  7  8  2  0
  9 13  1  0
  9  7  1  0
 10  9  1  0
 11 12  1  0
 11 10  1  0
 12 13  1  0
 13 14  1  6
 14 15  2  0
 16 17  1  0
 17 19  1  0
 17 18  2  0
 19 20  1  0
 20 21  1  0
 21 22  1  0
 23 22  1  1
 23 25  1  0
 24 23  1  0
 24 14  1  0
 25 27  2  0
 25 26  1  0
M  END
$$$$
