IPR.pdb
     RDKit          3D

 27 27  0  0  1  0  0  0  0  0999 V2000
   25.6035  -19.4916  -17.9016 C   0  0  0  0  0  0  0  0  0  0  0  0
   26.4019  -20.0165  -16.7704 C   0  0  0  0  0  0  0  0  0  0  0  0
   25.5403  -20.5719  -15.6750 C   0  0  2  0  0  0  0  0  0  0  0  0
   24.6901  -19.4314  -15.0781 C   0  0  0  0  0  0  0  0  0  0  0  0
   26.3945  -21.1150  -14.5556 C   0  0  2  0  0  0  0  0  0  0  0  0
   27.4127  -21.9648  -15.0555 N   0  0  0  0  0  0  0  0  0  0  0  0
   25.5786  -21.6966  -13.4607 C   0  0  0  0  0  0  0  0  0  0  0  0
   25.3517  -22.9636  -13.6264 O   0  0  0  0  0  0  0  0  0  0  0  0
   25.0831  -21.0240  -12.3607 N   0  0  0  0  0  0  0  0  0  0  0  0
   25.1257  -19.6732  -11.9485 C   0  0  0  0  0  0  0  0  0  0  0  0
   25.6817  -19.8461  -10.5209 C   0  0  0  0  0  0  0  0  0  0  0  0
   24.9312  -21.0833  -10.0785 C   0  0  0  0  0  0  0  0  0  0  0  0
   24.2944  -21.6806  -11.3085 C   0  0  1  0  0  0  0  0  0  0  0  0
   22.8515  -21.4051  -11.4279 C   0  0  0  0  0  0  0  0  0  0  0  0
   22.4504  -20.4048  -12.0372 O   0  0  0  0  0  0  0  0  0  0  0  0
   17.6945  -25.1799   -6.0033 N   0  0  0  0  0  0  0  0  0  0  0  0
   17.0132  -24.4895   -7.0273 C   0  0  0  0  0  0  0  0  0  0  0  0
   15.7597  -24.6947   -7.2035 N   0  0  0  0  0  0  0  0  0  0  0  0
   17.7390  -23.5805   -7.8386 N   0  0  0  0  0  0  0  0  0  0  0  0
   19.1550  -23.4793   -7.6719 C   0  0  0  0  0  0  0  0  0  0  0  0
   19.7856  -22.4512   -8.6112 C   0  0  0  0  0  0  0  0  0  0  0  0
   19.8006  -23.0398   -9.9851 C   0  0  0  0  0  0  0  0  0  0  0  0
   20.4686  -22.1498  -11.0018 C   0  0  2  0  0  0  0  0  0  0  0  0
   21.8841  -22.2634  -10.8578 N   0  0  0  0  0  0  0  0  0  0  0  0
   20.0882  -20.7327  -10.6810 C   0  0  0  0  0  0  0  0  0  0  0  0
   18.9754  -20.1371  -11.2354 O   0  0  0  0  0  0  0  0  0  0  0  0
   20.7898  -20.0539   -9.8881 O   0  0  0  0  0  0  0  0  0  0  0  0
  1  2  1  0
  3  2  1  0
  3  5  1  0
  3  4  1  1
  5  7  1  0
  5  6  1  6
  7  8  2  0
  9 13  1  0
  9  7  1  0
 10  9  1  0
 11 12  1  0
 11 10  1  0
 12 13  1  0
 13 14  1  6
 14 15  2  0
 16 17  1  0
 17 19  1  0
 17 18  2  0
 19 20  1  0
 20 21  1  0
 21 22  1  0
 23 22  1  1
 23 25  1  0
 24 23  1  0
 24 14  1  0
 25 27  2  0
 25 26  1  0
M  END
$$$$
