IPR.pdb
     RDKit          3D

 27 27  0  0  1  0  0  0  0  0999 V2000
   27.5960  -15.6538  -16.3253 C   0  0  0  0  0  0  0  0  0  0  0  0
   28.0943  -16.9989  -15.9576 C   0  0  0  0  0  0  0  0  0  0  0  0
   27.0129  -17.8715  -15.3920 C   0  0  2  0  0  0  0  0  0  0  0  0
   26.6230  -17.3459  -13.9951 C   0  0  0  0  0  0  0  0  0  0  0  0
   27.5162  -19.2820  -15.2057 C   0  0  2  0  0  0  0  0  0  0  0  0
   28.2055  -19.7353  -16.3581 N   0  0  0  0  0  0  0  0  0  0  0  0
   26.4540  -20.1950  -14.7151 C   0  0  0  0  0  0  0  0  0  0  0  0
   25.8606  -20.8327  -15.6770 O   0  0  0  0  0  0  0  0  0  0  0  0
   26.0857  -20.3923  -13.3985 N   0  0  0  0  0  0  0  0  0  0  0  0
   26.5005  -19.8150  -12.1775 C   0  0  0  0  0  0  0  0  0  0  0  0
   26.8376  -21.0900  -11.3790 C   0  0  0  0  0  0  0  0  0  0  0  0
   25.7055  -21.9961  -11.8115 C   0  0  0  0  0  0  0  0  0  0  0  0
   25.0370  -21.3390  -12.9933 C   0  0  1  0  0  0  0  0  0  0  0  0
   23.7662  -20.6690  -12.6644 C   0  0  0  0  0  0  0  0  0  0  0  0
   23.7529  -19.6686  -11.9351 O   0  0  0  0  0  0  0  0  0  0  0  0
   18.7756  -18.1082  -18.7121 N   0  0  0  0  0  0  0  0  0  0  0  0
   18.0660  -17.5316  -17.6382 C   0  0  0  0  0  0  0  0  0  0  0  0
   17.0991  -16.7246  -17.8791 N   0  0  0  0  0  0  0  0  0  0  0  0
   18.4444  -17.8638  -16.3124 N   0  0  0  0  0  0  0  0  0  0  0  0
   19.6192  -18.6504  -16.1021 C   0  0  0  0  0  0  0  0  0  0  0  0
   19.7820  -19.0865  -14.6460 C   0  0  0  0  0  0  0  0  0  0  0  0
   21.0481  -19.8748  -14.5465 C   0  0  0  0  0  0  0  0  0  0  0  0
   21.2956  -20.4227  -13.1642 C   0  0  2  0  0  0  0  0  0  0  0  0
   22.5304  -21.1386  -13.1641 N   0  0  0  0  0  0  0  0  0  0  0  0
   20.1981  -21.4028  -12.8634 C   0  0  0  0  0  0  0  0  0  0  0  0
   19.0070  -21.0059  -12.2940 O   0  0  0  0  0  0  0  0  0  0  0  0
   20.3493  -22.6225  -13.1302 O   0  0  0  0  0  0  0  0  0  0  0  0
  1  2  1  0
  3  2  1  0
  3  5  1  0
  3  4  1  1
  5  7  1  0
  5  6  1  6
  7  8  2  0
  9 13  1  0
  9  7  1  0
 10  9  1  0
 11 12  1  0
 11 10  1  0
 12 13  1  0
 13 14  1  1
 14 15  2  0
 16 17  1  0
 17 19  1  0
 17 18  2  0
 19 20  1  0
 20 21  1  0
 21 22  1  0
 23 22  1  6
 23 25  1  0
 24 23  1  0
 24 14  1  0
 25 27  2  0
 25 26  1  0
M  END
$$$$
