IPR.pdb
     RDKit          3D

 27 27  0  0  1  0  0  0  0  0999 V2000
   27.4242  -13.1916  -16.8229 C   0  0  0  0  0  0  0  0  0  0  0  0
   28.0115  -14.5338  -17.0377 C   0  0  0  0  0  0  0  0  0  0  0  0
   27.0006  -15.6302  -16.8738 C   0  0  2  0  0  0  0  0  0  0  0  0
   26.6589  -15.7782  -15.3767 C   0  0  0  0  0  0  0  0  0  0  0  0
   27.5758  -16.9503  -17.3254 C   0  0  2  0  0  0  0  0  0  0  0  0
   28.2836  -16.8092  -18.5452 N   0  0  0  0  0  0  0  0  0  0  0  0
   26.5631  -18.0353  -17.3141 C   0  0  0  0  0  0  0  0  0  0  0  0
   25.8420  -18.0560  -18.3928 O   0  0  0  0  0  0  0  0  0  0  0  0
   26.3562  -18.9536  -16.3032 N   0  0  0  0  0  0  0  0  0  0  0  0
   26.9725  -19.1744  -15.0511 C   0  0  0  0  0  0  0  0  0  0  0  0
   27.3083  -20.6738  -15.1785 C   0  0  0  0  0  0  0  0  0  0  0  0
   26.0603  -21.1804  -15.8682 C   0  0  0  0  0  0  0  0  0  0  0  0
   25.2973  -19.9718  -16.3504 C   0  0  1  0  0  0  0  0  0  0  0  0
   24.1384  -19.6224  -15.5096 C   0  0  0  0  0  0  0  0  0  0  0  0
   24.2990  -19.0498  -14.4237 O   0  0  0  0  0  0  0  0  0  0  0  0
   17.0318  -17.0680  -18.5257 N   0  0  0  0  0  0  0  0  0  0  0  0
   16.7911  -16.6092  -17.2140 C   0  0  0  0  0  0  0  0  0  0  0  0
   15.6789  -16.0330  -16.9391 N   0  0  0  0  0  0  0  0  0  0  0  0
   17.7929  -16.8001  -16.2285 N   0  0  0  0  0  0  0  0  0  0  0  0
   19.0405  -17.3835  -16.6109 C   0  0  0  0  0  0  0  0  0  0  0  0
   20.0234  -17.4866  -15.4445 C   0  0  0  0  0  0  0  0  0  0  0  0
   21.2868  -18.0911  -15.9669 C   0  0  0  0  0  0  0  0  0  0  0  0
   21.6218  -19.4106  -15.3199 C   0  0  2  0  0  0  0  0  0  0  0  0
   22.8165  -19.9246  -15.9079 N   0  0  0  0  0  0  0  0  0  0  0  0
   20.5073  -20.3657  -15.6382 C   0  0  0  0  0  0  0  0  0  0  0  0
   19.4360  -20.5396  -14.7881 O   0  0  0  0  0  0  0  0  0  0  0  0
   20.5326  -21.0343  -16.7031 O   0  0  0  0  0  0  0  0  0  0  0  0
  1  2  1  0
  3  2  1  0
  3  5  1  0
  3  4  1  1
  5  7  1  0
  5  6  1  6
  7  8  2  0
  9 13  1  0
  9  7  1  0
 10  9  1  0
 11 12  1  0
 11 10  1  0
 12 13  1  0
 13 14  1  1
 14 15  2  0
 16 17  1  0
 17 19  1  0
 17 18  2  0
 19 20  1  0
 20 21  1  0
 21 22  1  0
 23 22  1  6
 23 25  1  0
 24 23  1  0
 24 14  1  0
 25 27  2  0
 25 26  1  0
M  END
$$$$
