IPR.pdb
     RDKit          3D

 27 27  0  0  1  0  0  0  0  0999 V2000
   19.8974  -19.6233  -13.7940 C   0  0  0  0  0  0  0  0  0  0  0  0
   21.1037  -20.4545  -13.5774 C   0  0  0  0  0  0  0  0  0  0  0  0
   22.3060  -19.6307  -13.2213 C   0  0  2  0  0  0  0  0  0  0  0  0
   22.7113  -18.7801  -14.4427 C   0  0  0  0  0  0  0  0  0  0  0  0
   23.4798  -20.5225  -12.8981 C   0  0  2  0  0  0  0  0  0  0  0  0
   23.9256  -21.2183  -14.0496 N   0  0  0  0  0  0  0  0  0  0  0  0
   23.2231  -21.3781  -11.7130 C   0  0  0  0  0  0  0  0  0  0  0  0
   23.0381  -22.6235  -12.0273 O   0  0  0  0  0  0  0  0  0  0  0  0
   23.1721  -20.9624  -10.3967 N   0  0  0  0  0  0  0  0  0  0  0  0
   23.2798  -19.6993   -9.7728 C   0  0  0  0  0  0  0  0  0  0  0  0
   24.3814  -20.0045   -8.7382 C   0  0  0  0  0  0  0  0  0  0  0  0
   23.9703  -21.3920   -8.2959 C   0  0  0  0  0  0  0  0  0  0  0  0
   22.9326  -21.8814   -9.2750 C   0  0  1  0  0  0  0  0  0  0  0  0
   21.5507  -21.8071   -8.7679 C   0  0  0  0  0  0  0  0  0  0  0  0
   20.9469  -20.7266   -8.7433 O   0  0  0  0  0  0  0  0  0  0  0  0
   15.0467  -24.3276  -12.1930 N   0  0  0  0  0  0  0  0  0  0  0  0
   14.5960  -23.8287  -10.9531 C   0  0  0  0  0  0  0  0  0  0  0  0
   13.5170  -23.1376  -10.9035 N   0  0  0  0  0  0  0  0  0  0  0  0
   15.3541  -24.1082   -9.7877 N   0  0  0  0  0  0  0  0  0  0  0  0
   16.7743  -23.9520   -9.8293 C   0  0  0  0  0  0  0  0  0  0  0  0
   17.4581  -24.4494   -8.5556 C   0  0  0  0  0  0  0  0  0  0  0  0
   18.9321  -24.2768   -8.7340 C   0  0  0  0  0  0  0  0  0  0  0  0
   19.4728  -23.0557   -8.0349 C   0  0  2  0  0  0  0  0  0  0  0  0
   20.8722  -22.9539   -8.2966 N   0  0  0  0  0  0  0  0  0  0  0  0
   19.2973  -23.2659   -6.5582 C   0  0  0  0  0  0  0  0  0  0  0  0
   20.3087  -23.7767   -5.7729 O   0  0  0  0  0  0  0  0  0  0  0  0
   18.2068  -22.9746   -6.0035 O   0  0  0  0  0  0  0  0  0  0  0  0
  1  2  1  0
  3  2  1  0
  3  5  1  0
  3  4  1  6
  5  7  1  0
  5  6  1  6
  7  8  2  0
  9 13  1  0
  9  7  1  0
 10  9  1  0
 11 12  1  0
 11 10  1  0
 12 13  1  0
 13 14  1  1
 14 15  2  0
 16 17  1  0
 17 19  1  0
 17 18  2  0
 19 20  1  0
 20 21  1  0
 21 22  1  0
 23 22  1  6
 23 25  1  0
 24 23  1  0
 24 14  1  0
 25 27  2  0
 25 26  1  0
M  END
$$$$
