KPF.pdb
     RDKit          3D

 28 29  0  0  1  0  0  0  0  0999 V2000
    6.7833  -18.5326   19.3221 N   0  0  0  0  0  0  0  0  0  0  0  0
    6.5158  -17.3963   20.0369 C   0  0  1  0  0  0  0  0  0  0  0  0
    5.6333  -17.5717   21.2203 C   0  0  0  0  0  0  0  0  0  0  0  0
    4.8224  -18.7249   21.4879 C   0  0  0  0  0  0  0  0  0  0  0  0
    5.1511  -19.9794   22.1306 C   0  0  0  0  0  0  0  0  0  0  0  0
    4.1030  -21.0228   22.2424 C   0  0  0  0  0  0  0  0  0  0  0  0
    4.8382  -22.2339   22.7636 N   0  0  0  0  0  0  0  0  0  0  0  0
    7.7156  -16.6260   20.5106 C   0  0  0  0  0  0  0  0  0  0  0  0
    8.7979  -17.2900   20.3777 O   0  0  0  0  0  0  0  0  0  0  0  0
    7.6987  -15.3230   21.0440 N   0  0  0  0  0  0  0  0  0  0  0  0
    6.6535  -14.3777   21.3457 C   0  0  0  0  0  0  0  0  0  0  0  0
    7.1844  -13.1142   20.6772 C   0  0  0  0  0  0  0  0  0  0  0  0
    8.6817  -13.2671   20.7760 C   0  0  0  0  0  0  0  0  0  0  0  0
    8.8973  -14.6008   21.4546 C   0  0  1  0  0  0  0  0  0  0  0  0
    9.0207  -14.5213   22.9172 C   0  0  0  0  0  0  0  0  0  0  0  0
    8.6649  -13.4485   23.4796 O   0  0  0  0  0  0  0  0  0  0  0  0
    9.5099  -15.5687   23.6974 N   0  0  0  0  0  0  0  0  0  0  0  0
    9.5895  -15.5497   25.1450 C   0  0  1  0  0  0  0  0  0  0  0  0
    8.2476  -15.5323   25.7632 C   0  0  0  0  0  0  0  0  0  0  0  0
    7.6764  -14.1949   26.0015 C   0  0  0  0  0  0  0  0  0  0  0  0
    8.3973  -13.1884   26.5864 C   0  0  0  0  0  0  0  0  0  0  0  0
    7.8758  -11.9312   26.8086 C   0  0  0  0  0  0  0  0  0  0  0  0
    6.5841  -11.6624   26.4379 C   0  0  0  0  0  0  0  0  0  0  0  0
    5.8234  -12.6472   25.8468 C   0  0  0  0  0  0  0  0  0  0  0  0
    6.3726  -13.9074   25.6325 C   0  0  0  0  0  0  0  0  0  0  0  0
   10.4980  -16.6239   25.6368 C   0  0  0  0  0  0  0  0  0  0  0  0
   10.9490  -16.7791   26.9126 O   0  0  0  0  0  0  0  0  0  0  0  0
   10.8980  -17.4867   24.7714 O   0  0  0  0  0  0  0  0  0  0  0  0
  2  1  1  1
  3  2  1  0
  3  4  1  0
  5  4  1  0
  5  6  1  0
  6  7  1  0
  8 10  1  0
  8  2  1  0
  9  8  2  0
 10 14  1  0
 11 12  1  0
 11 10  1  0
 12 13  1  0
 13 14  1  0
 14 15  1  1
 15 17  1  0
 16 15  2  0
 17 18  1  0
 18 19  1  1
 19 20  1  0
 20 21  2  0
 21 22  1  0
 23 22  2  0
 24 23  1  0
 25 24  2  0
 25 20  1  0
 26 27  1  0
 26 18  1  0
 28 26  2  0
M  END
$$$$
