KPF.pdb
     RDKit          3D

 28 29  0  0  1  0  0  0  0  0999 V2000
    9.4072  -17.1971   16.8353 N   0  0  0  0  0  0  0  0  0  0  0  0
   10.1435  -17.5265   17.9413 C   0  0  1  0  0  0  0  0  0  0  0  0
   11.4296  -16.7979   18.1000 C   0  0  0  0  0  0  0  0  0  0  0  0
   11.5769  -15.4853   18.6608 C   0  0  0  0  0  0  0  0  0  0  0  0
   12.4805  -14.9911   19.6778 C   0  0  0  0  0  0  0  0  0  0  0  0
   13.9169  -14.8333   19.3438 C   0  0  0  0  0  0  0  0  0  0  0  0
   14.2467  -13.4252   19.7766 N   0  0  0  0  0  0  0  0  0  0  0  0
    9.4274  -17.4185   19.2576 C   0  0  0  0  0  0  0  0  0  0  0  0
    8.2989  -16.8321   19.1457 O   0  0  0  0  0  0  0  0  0  0  0  0
    9.9034  -17.8941   20.4945 N   0  0  0  0  0  0  0  0  0  0  0  0
   11.2072  -18.2460   20.9978 C   0  0  0  0  0  0  0  0  0  0  0  0
   10.9367  -19.6158   21.6107 C   0  0  0  0  0  0  0  0  0  0  0  0
    9.5001  -19.5219   22.0607 C   0  0  0  0  0  0  0  0  0  0  0  0
    9.0489  -18.1383   21.6509 C   0  0  1  0  0  0  0  0  0  0  0  0
    9.2211  -17.1141   22.6912 C   0  0  0  0  0  0  0  0  0  0  0  0
   10.3912  -16.6991   22.9195 O   0  0  0  0  0  0  0  0  0  0  0  0
    8.1580  -16.5910   23.4270 N   0  0  0  0  0  0  0  0  0  0  0  0
    8.2724  -15.5055   24.3814 C   0  0  1  0  0  0  0  0  0  0  0  0
    7.1259  -14.5779   24.2897 C   0  0  0  0  0  0  0  0  0  0  0  0
    7.0917  -13.5097   25.3044 C   0  0  0  0  0  0  0  0  0  0  0  0
    7.9665  -12.4564   25.2834 C   0  0  0  0  0  0  0  0  0  0  0  0
    7.9399  -11.4478   26.2235 C   0  0  0  0  0  0  0  0  0  0  0  0
    7.0086  -11.4874   27.2281 C   0  0  0  0  0  0  0  0  0  0  0  0
    6.1099  -12.5300   27.2866 C   0  0  0  0  0  0  0  0  0  0  0  0
    6.1565  -13.5351   26.3258 C   0  0  0  0  0  0  0  0  0  0  0  0
    8.5515  -16.0322   25.7474 C   0  0  0  0  0  0  0  0  0  0  0  0
    7.9579  -17.1080   26.3352 O   0  0  0  0  0  0  0  0  0  0  0  0
    9.4368  -15.4081   26.4401 O   0  0  0  0  0  0  0  0  0  0  0  0
  2  1  1  6
  3  2  1  0
  3  4  1  0
  5  4  1  0
  5  6  1  0
  6  7  1  0
  8 10  1  0
  8  2  1  0
  9  8  2  0
 10 14  1  0
 11 12  1  0
 11 10  1  0
 12 13  1  0
 13 14  1  0
 14 15  1  1
 15 17  1  0
 16 15  2  0
 17 18  1  0
 18 19  1  1
 19 20  1  0
 20 21  2  0
 21 22  1  0
 23 22  2  0
 24 23  1  0
 25 24  2  0
 25 20  1  0
 26 27  1  0
 26 18  1  0
 28 26  2  0
M  END
$$$$
