KPF.pdb
     RDKit          3D

 28 29  0  0  1  0  0  0  0  0999 V2000
    8.4716  -14.5888   17.0170 N   0  0  0  0  0  0  0  0  0  0  0  0
    8.3898  -15.6968   17.8167 C   0  0  1  0  0  0  0  0  0  0  0  0
    9.5956  -16.5661   17.8393 C   0  0  0  0  0  0  0  0  0  0  0  0
   10.9382  -16.1180   18.0752 C   0  0  0  0  0  0  0  0  0  0  0  0
   12.1833  -16.8547   18.1201 C   0  0  0  0  0  0  0  0  0  0  0  0
   13.4521  -16.1064   18.2932 C   0  0  0  0  0  0  0  0  0  0  0  0
   14.5125  -17.1796   18.3445 N   0  0  0  0  0  0  0  0  0  0  0  0
    8.0223  -15.4406   19.2507 C   0  0  0  0  0  0  0  0  0  0  0  0
    8.1814  -14.2168   19.5778 O   0  0  0  0  0  0  0  0  0  0  0  0
    7.5519  -16.4035   20.1641 N   0  0  0  0  0  0  0  0  0  0  0  0
    7.5077  -17.8439   20.1669 C   0  0  0  0  0  0  0  0  0  0  0  0
    6.0540  -18.1025   20.5479 C   0  0  0  0  0  0  0  0  0  0  0  0
    5.7050  -16.9241   21.4223 C   0  0  0  0  0  0  0  0  0  0  0  0
    6.9540  -16.0728   21.4526 C   0  0  1  0  0  0  0  0  0  0  0  0
    7.8587  -16.3673   22.5733 C   0  0  0  0  0  0  0  0  0  0  0  0
    8.5710  -17.4066   22.4959 O   0  0  0  0  0  0  0  0  0  0  0  0
    7.9586  -15.5565   23.7035 N   0  0  0  0  0  0  0  0  0  0  0  0
    9.0047  -15.6608   24.7020 C   0  0  1  0  0  0  0  0  0  0  0  0
    9.4706  -14.3296   25.1426 C   0  0  0  0  0  0  0  0  0  0  0  0
    8.4318  -13.4480   25.7042 C   0  0  0  0  0  0  0  0  0  0  0  0
    7.5005  -12.8257   24.9165 C   0  0  0  0  0  0  0  0  0  0  0  0
    6.5199  -12.0038   25.4311 C   0  0  0  0  0  0  0  0  0  0  0  0
    6.4629  -11.7878   26.7833 C   0  0  0  0  0  0  0  0  0  0  0  0
    7.3815  -12.3941   27.6118 C   0  0  0  0  0  0  0  0  0  0  0  0
    8.3607  -13.2197   27.0685 C   0  0  0  0  0  0  0  0  0  0  0  0
    8.5954  -16.5823   25.7995 C   0  0  0  0  0  0  0  0  0  0  0  0
    9.4162  -17.1477   26.7279 O   0  0  0  0  0  0  0  0  0  0  0  0
    7.3457  -16.8750   25.8756 O   0  0  0  0  0  0  0  0  0  0  0  0
  2  1  1  1
  3  2  1  0
  3  4  1  0
  5  4  1  0
  5  6  1  0
  6  7  1  0
  8 10  1  0
  8  2  1  0
  9  8  2  0
 10 14  1  0
 11 12  1  0
 11 10  1  0
 12 13  1  0
 13 14  1  0
 14 15  1  1
 15 17  1  0
 16 15  2  0
 17 18  1  0
 18 19  1  1
 19 20  1  0
 20 21  2  0
 21 22  1  0
 23 22  2  0
 24 23  1  0
 25 24  2  0
 25 20  1  0
 26 27  1  0
 26 18  1  0
 28 26  2  0
M  END
$$$$
