KPF.pdb
     RDKit          3D

 28 29  0  0  1  0  0  0  0  0999 V2000
    7.0529  -18.8387   19.4913 N   0  0  0  0  0  0  0  0  0  0  0  0
    6.8007  -17.8822   20.4375 C   0  0  1  0  0  0  0  0  0  0  0  0
    6.1701  -18.3679   21.6931 C   0  0  0  0  0  0  0  0  0  0  0  0
    6.6221  -19.4858   22.4711 C   0  0  0  0  0  0  0  0  0  0  0  0
    6.0269  -20.1377   23.6181 C   0  0  0  0  0  0  0  0  0  0  0  0
    6.7957  -21.1941   24.3200 C   0  0  0  0  0  0  0  0  0  0  0  0
    5.7581  -22.2277   24.6863 N   0  0  0  0  0  0  0  0  0  0  0  0
    7.9782  -17.0446   20.8484 C   0  0  0  0  0  0  0  0  0  0  0  0
    9.0902  -17.6035   20.5637 O   0  0  0  0  0  0  0  0  0  0  0  0
    7.9133  -15.7850   21.4746 N   0  0  0  0  0  0  0  0  0  0  0  0
    6.8635  -15.0435   22.1266 C   0  0  0  0  0  0  0  0  0  0  0  0
    6.9865  -13.6831   21.4487 C   0  0  0  0  0  0  0  0  0  0  0  0
    8.4565  -13.5832   21.1256 C   0  0  0  0  0  0  0  0  0  0  0  0
    9.0544  -14.8863   21.6053 C   0  0  1  0  0  0  0  0  0  0  0  0
    9.5697  -14.8440   22.9813 C   0  0  0  0  0  0  0  0  0  0  0  0
   10.6720  -14.2611   23.1784 O   0  0  0  0  0  0  0  0  0  0  0  0
    8.8995  -15.4157   24.0625 N   0  0  0  0  0  0  0  0  0  0  0  0
    9.4803  -15.6242   25.3746 C   0  0  1  0  0  0  0  0  0  0  0  0
    9.4953  -14.3772   26.1670 C   0  0  0  0  0  0  0  0  0  0  0  0
    8.2227  -13.6351   26.2057 C   0  0  0  0  0  0  0  0  0  0  0  0
    8.1444  -12.3463   26.6620 C   0  0  0  0  0  0  0  0  0  0  0  0
    6.9607  -11.6396   26.6969 C   0  0  0  0  0  0  0  0  0  0  0  0
    5.8059  -12.2375   26.2640 C   0  0  0  0  0  0  0  0  0  0  0  0
    5.8402  -13.5334   25.7977 C   0  0  0  0  0  0  0  0  0  0  0  0
    7.0471  -14.2251   25.7716 C   0  0  0  0  0  0  0  0  0  0  0  0
    8.8508  -16.7944   26.0495 C   0  0  0  0  0  0  0  0  0  0  0  0
    7.7917  -17.5178   25.5911 O   0  0  0  0  0  0  0  0  0  0  0  0
    9.3546  -17.1544   27.1763 O   0  0  0  0  0  0  0  0  0  0  0  0
  2  1  1  6
  3  2  1  0
  3  4  1  0
  5  4  1  0
  5  6  1  0
  6  7  1  0
  8 10  1  0
  8  2  1  0
  9  8  2  0
 10 14  1  0
 11 12  1  0
 11 10  1  0
 12 13  1  0
 13 14  1  0
 14 15  1  1
 15 17  1  0
 16 15  2  0
 17 18  1  0
 18 19  1  1
 19 20  1  0
 20 21  2  0
 21 22  1  0
 23 22  2  0
 24 23  1  0
 25 24  2  0
 25 20  1  0
 26 27  1  0
 26 18  1  0
 28 26  2  0
M  END
$$$$
