AKF.pdb
     RDKit          3D

 26 26  0  0  1  0  0  0  0  0999 V2000
    8.7045  -19.6265   20.0537 C   0  0  0  0  0  0  0  0  0  0  0  0
    8.4481  -18.8775   21.3357 C   0  0  2  0  0  0  0  0  0  0  0  0
    7.0139  -18.7760   21.5142 N   0  0  0  0  0  0  0  0  0  0  0  0
    9.0218  -17.5251   21.3422 C   0  0  0  0  0  0  0  0  0  0  0  0
   10.2544  -17.3113   21.2027 O   0  0  0  0  0  0  0  0  0  0  0  0
    8.1841  -16.3925   21.5098 N   0  0  0  0  0  0  0  0  0  0  0  0
    8.7135  -15.0234   21.6221 C   0  0  1  0  0  0  0  0  0  0  0  0
    7.9470  -14.1031   20.7104 C   0  0  0  0  0  0  0  0  0  0  0  0
    8.1923  -14.4784   19.2806 C   0  0  0  0  0  0  0  0  0  0  0  0
    8.0874  -13.2638   18.3566 C   0  0  0  0  0  0  0  0  0  0  0  0
    8.3532  -13.6223   16.9136 C   0  0  0  0  0  0  0  0  0  0  0  0
    8.3332  -12.3690   16.1709 N   0  0  0  0  0  0  0  0  0  0  0  0
    8.7401  -14.6065   23.0312 C   0  0  0  0  0  0  0  0  0  0  0  0
    7.9950  -13.7447   23.5410 O   0  0  0  0  0  0  0  0  0  0  0  0
    9.6725  -15.1912   23.9669 N   0  0  0  0  0  0  0  0  0  0  0  0
    9.3234  -15.4120   25.3707 C   0  0  1  0  0  0  0  0  0  0  0  0
    7.8459  -15.4664   25.5570 C   0  0  0  0  0  0  0  0  0  0  0  0
    7.3307  -14.1697   26.0247 C   0  0  0  0  0  0  0  0  0  0  0  0
    8.0934  -13.0443   26.1925 C   0  0  0  0  0  0  0  0  0  0  0  0
    7.5699  -11.8311   26.6272 C   0  0  0  0  0  0  0  0  0  0  0  0
    6.2264  -11.7268   26.9098 C   0  0  0  0  0  0  0  0  0  0  0  0
    5.4500  -12.8501   26.7456 C   0  0  0  0  0  0  0  0  0  0  0  0
    5.9758  -14.0374   26.3175 C   0  0  0  0  0  0  0  0  0  0  0  0
    9.9543  -16.6657   25.8257 C   0  0  0  0  0  0  0  0  0  0  0  0
   10.3586  -17.5890   25.0770 O   0  0  0  0  0  0  0  0  0  0  0  0
   10.1232  -16.8551   27.2131 O   0  0  0  0  0  0  0  0  0  0  0  0
  2  4  1  0
  2  1  1  6
  3  2  1  0
  4  5  2  0
  6  7  1  0
  6  4  1  0
  7  8  1  6
  8  9  1  0
 10  9  1  0
 11 10  1  0
 12 11  1  0
 13 14  2  0
 13  7  1  0
 15 13  1  0
 16 24  1  0
 16 15  1  0
 16 17  1  6
 18 17  1  0
 19 18  2  0
 20 19  1  0
 21 20  2  0
 21 22  1  0
 22 23  2  0
 23 18  1  0
 24 26  1  0
 25 24  2  0
M  END
$$$$
