AKF.pdb
     RDKit          3D

 26 26  0  0  1  0  0  0  0  0999 V2000
    7.5957  -12.3578   18.8135 C   0  0  0  0  0  0  0  0  0  0  0  0
    8.6384  -13.3337   19.2937 C   0  0  2  0  0  0  0  0  0  0  0  0
    8.9209  -14.2539   18.2109 N   0  0  0  0  0  0  0  0  0  0  0  0
    8.2138  -14.1045   20.4700 C   0  0  0  0  0  0  0  0  0  0  0  0
    7.8805  -13.5581   21.5539 O   0  0  0  0  0  0  0  0  0  0  0  0
    8.1653  -15.5213   20.4185 N   0  0  0  0  0  0  0  0  0  0  0  0
    7.8652  -16.3487   21.5988 C   0  0  1  0  0  0  0  0  0  0  0  0
    7.6475  -17.7776   21.1787 C   0  0  0  0  0  0  0  0  0  0  0  0
    7.0755  -17.8225   19.7945 C   0  0  0  0  0  0  0  0  0  0  0  0
    6.7766  -19.2578   19.3580 C   0  0  0  0  0  0  0  0  0  0  0  0
    7.6963  -19.7194   18.2524 C   0  0  0  0  0  0  0  0  0  0  0  0
    7.2600  -21.0618   17.8917 N   0  0  0  0  0  0  0  0  0  0  0  0
    8.9032  -16.1629   22.6225 C   0  0  0  0  0  0  0  0  0  0  0  0
   10.1273  -16.3294   22.4449 O   0  0  0  0  0  0  0  0  0  0  0  0
    8.5640  -15.7563   23.9666 N   0  0  0  0  0  0  0  0  0  0  0  0
    9.5791  -15.6151   25.0112 C   0  0  1  0  0  0  0  0  0  0  0  0
    9.7412  -14.1905   25.4169 C   0  0  0  0  0  0  0  0  0  0  0  0
    8.4411  -13.5961   25.7663 C   0  0  0  0  0  0  0  0  0  0  0  0
    7.4619  -13.2802   24.8620 C   0  0  0  0  0  0  0  0  0  0  0  0
    6.2392  -12.7283   25.2297 C   0  0  0  0  0  0  0  0  0  0  0  0
    5.9729  -12.4765   26.5569 C   0  0  0  0  0  0  0  0  0  0  0  0
    6.9485  -12.7890   27.4747 C   0  0  0  0  0  0  0  0  0  0  0  0
    8.1466  -13.3314   27.1013 C   0  0  0  0  0  0  0  0  0  0  0  0
    9.1909  -16.4468   26.1663 C   0  0  0  0  0  0  0  0  0  0  0  0
    8.0940  -17.0442   26.2956 O   0  0  0  0  0  0  0  0  0  0  0  0
   10.1187  -16.5911   27.2187 O   0  0  0  0  0  0  0  0  0  0  0  0
  2  4  1  0
  2  1  1  6
  3  2  1  0
  4  5  2  0
  6  7  1  0
  6  4  1  0
  7  8  1  6
  8  9  1  0
 10  9  1  0
 11 10  1  0
 12 11  1  0
 13 14  2  0
 13  7  1  0
 15 13  1  0
 16 24  1  0
 16 15  1  0
 16 17  1  1
 18 17  1  0
 19 18  2  0
 20 19  1  0
 21 20  2  0
 21 22  1  0
 22 23  2  0
 23 18  1  0
 24 26  1  0
 25 24  2  0
M  END
$$$$
