AKF.pdb
     RDKit          3D

 26 26  0  0  1  0  0  0  0  0999 V2000
    7.9877  -12.0387   19.7999 C   0  0  0  0  0  0  0  0  0  0  0  0
    8.1822  -13.4493   19.3072 C   0  0  2  0  0  0  0  0  0  0  0  0
    7.2734  -13.6645   18.1995 N   0  0  0  0  0  0  0  0  0  0  0  0
    7.9213  -14.4646   20.3364 C   0  0  0  0  0  0  0  0  0  0  0  0
    6.7714  -14.9279   20.5549 O   0  0  0  0  0  0  0  0  0  0  0  0
    8.9824  -14.9653   21.1337 N   0  0  0  0  0  0  0  0  0  0  0  0
    8.8475  -16.1705   21.9686 C   0  0  1  0  0  0  0  0  0  0  0  0
    9.6098  -17.3100   21.3472 C   0  0  0  0  0  0  0  0  0  0  0  0
    9.4357  -18.5506   22.1694 C   0  0  0  0  0  0  0  0  0  0  0  0
   10.1177  -19.7549   21.5178 C   0  0  0  0  0  0  0  0  0  0  0  0
    9.9660  -21.0103   22.3439 C   0  0  0  0  0  0  0  0  0  0  0  0
   10.6251  -22.0732   21.5967 N   0  0  0  0  0  0  0  0  0  0  0  0
    9.2231  -15.8675   23.3567 C   0  0  0  0  0  0  0  0  0  0  0  0
   10.2918  -15.3296   23.7122 O   0  0  0  0  0  0  0  0  0  0  0  0
    8.3421  -16.1853   24.4566 N   0  0  0  0  0  0  0  0  0  0  0  0
    8.7685  -16.0583   25.8506 C   0  0  1  0  0  0  0  0  0  0  0  0
    7.6305  -15.6671   26.7294 C   0  0  0  0  0  0  0  0  0  0  0  0
    7.3584  -14.2250   26.6203 C   0  0  0  0  0  0  0  0  0  0  0  0
    6.2771  -13.6838   25.9767 C   0  0  0  0  0  0  0  0  0  0  0  0
    6.0460  -12.3142   25.9022 C   0  0  0  0  0  0  0  0  0  0  0  0
    6.9282  -11.4376   26.4930 C   0  0  0  0  0  0  0  0  0  0  0  0
    8.0183  -11.9688   27.1420 C   0  0  0  0  0  0  0  0  0  0  0  0
    8.2350  -13.3171   27.2089 C   0  0  0  0  0  0  0  0  0  0  0  0
    9.3501  -17.3417   26.2883 C   0  0  0  0  0  0  0  0  0  0  0  0
    9.2217  -18.4387   25.6913 O   0  0  0  0  0  0  0  0  0  0  0  0
   10.1154  -17.3509   27.4730 O   0  0  0  0  0  0  0  0  0  0  0  0
  2  4  1  0
  2  1  1  1
  3  2  1  0
  4  5  2  0
  6  7  1  0
  6  4  1  0
  7  8  1  6
  8  9  1  0
 10  9  1  0
 11 10  1  0
 12 11  1  0
 13 14  2  0
 13  7  1  0
 15 13  1  0
 16 24  1  0
 16 15  1  0
 16 17  1  1
 18 17  1  0
 19 18  2  0
 20 19  1  0
 21 20  2  0
 21 22  1  0
 22 23  2  0
 23 18  1  0
 24 26  1  0
 25 24  2  0
M  END
$$$$
