AKF.pdb
     RDKit          3D

 26 26  0  0  1  0  0  0  0  0999 V2000
    7.1676  -19.6229   19.7272 C   0  0  0  0  0  0  0  0  0  0  0  0
    7.4501  -19.1252   21.1211 C   0  0  2  0  0  0  0  0  0  0  0  0
    6.1853  -19.0067   21.8177 N   0  0  0  0  0  0  0  0  0  0  0  0
    8.1268  -17.8215   21.1456 C   0  0  0  0  0  0  0  0  0  0  0  0
    9.2525  -17.6323   20.6149 O   0  0  0  0  0  0  0  0  0  0  0  0
    7.5177  -16.7103   21.7833 N   0  0  0  0  0  0  0  0  0  0  0  0
    8.1372  -15.3750   21.8139 C   0  0  1  0  0  0  0  0  0  0  0  0
    7.0882  -14.3200   21.5851 C   0  0  0  0  0  0  0  0  0  0  0  0
    7.6522  -13.2099   20.7517 C   0  0  0  0  0  0  0  0  0  0  0  0
    7.2316  -13.3398   19.2866 C   0  0  0  0  0  0  0  0  0  0  0  0
    7.8579  -12.2742   18.4185 C   0  0  0  0  0  0  0  0  0  0  0  0
    8.9621  -12.9156   17.7170 N   0  0  0  0  0  0  0  0  0  0  0  0
    8.9145  -15.2075   23.0500 C   0  0  0  0  0  0  0  0  0  0  0  0
    9.7678  -14.3186   23.2488 O   0  0  0  0  0  0  0  0  0  0  0  0
    8.7373  -16.1001   24.1719 N   0  0  0  0  0  0  0  0  0  0  0  0
    9.4377  -15.8961   25.4405 C   0  0  1  0  0  0  0  0  0  0  0  0
    8.4782  -15.7936   26.5760 C   0  0  0  0  0  0  0  0  0  0  0  0
    7.8093  -14.4828   26.5774 C   0  0  0  0  0  0  0  0  0  0  0  0
    6.4638  -14.2959   26.4014 C   0  0  0  0  0  0  0  0  0  0  0  0
    5.8636  -13.0411   26.4189 C   0  0  0  0  0  0  0  0  0  0  0  0
    6.6325  -11.9169   26.6202 C   0  0  0  0  0  0  0  0  0  0  0  0
    7.9852  -12.0915   26.7979 C   0  0  0  0  0  0  0  0  0  0  0  0
    8.5640  -13.3300   26.7787 C   0  0  0  0  0  0  0  0  0  0  0  0
   10.3776  -17.0141   25.6494 C   0  0  0  0  0  0  0  0  0  0  0  0
   10.4993  -18.0113   24.8961 O   0  0  0  0  0  0  0  0  0  0  0  0
   11.2136  -16.9717   26.7844 O   0  0  0  0  0  0  0  0  0  0  0  0
  2  4  1  0
  2  1  1  6
  3  2  1  0
  4  5  2  0
  6  7  1  0
  6  4  1  0
  7  8  1  1
  8  9  1  0
 10  9  1  0
 11 10  1  0
 12 11  1  0
 13 14  2  0
 13  7  1  0
 15 13  1  0
 16 24  1  0
 16 15  1  0
 16 17  1  1
 18 17  1  0
 19 18  2  0
 20 19  1  0
 21 20  2  0
 21 22  1  0
 22 23  2  0
 23 18  1  0
 24 26  1  0
 25 24  2  0
M  END
$$$$
