AKF.pdb
     RDKit          3D

 26 26  0  0  1  0  0  0  0  0999 V2000
    7.9799  -11.9937   19.6722 C   0  0  0  0  0  0  0  0  0  0  0  0
    8.2752  -13.4137   19.2637 C   0  0  2  0  0  0  0  0  0  0  0  0
    7.5476  -13.6870   18.0410 N   0  0  0  0  0  0  0  0  0  0  0  0
    7.8837  -14.4024   20.2773 C   0  0  0  0  0  0  0  0  0  0  0  0
    6.6872  -14.5767   20.6272 O   0  0  0  0  0  0  0  0  0  0  0  0
    8.8657  -15.2095   20.9073 N   0  0  0  0  0  0  0  0  0  0  0  0
    8.5204  -16.3171   21.8138 C   0  0  1  0  0  0  0  0  0  0  0  0
    9.0808  -17.6078   21.2794 C   0  0  0  0  0  0  0  0  0  0  0  0
    8.2182  -18.7560   21.7071 C   0  0  0  0  0  0  0  0  0  0  0  0
    8.8168  -20.0968   21.2781 C   0  0  0  0  0  0  0  0  0  0  0  0
    7.9535  -21.2643   21.6940 C   0  0  0  0  0  0  0  0  0  0  0  0
    8.6253  -22.4625   21.2085 N   0  0  0  0  0  0  0  0  0  0  0  0
    8.9323  -15.9927   23.1867 C   0  0  0  0  0  0  0  0  0  0  0  0
   10.0437  -15.5287   23.5141 O   0  0  0  0  0  0  0  0  0  0  0  0
    8.0396  -16.1976   24.3039 N   0  0  0  0  0  0  0  0  0  0  0  0
    8.4523  -15.9318   25.6824 C   0  0  1  0  0  0  0  0  0  0  0  0
    7.2969  -15.4969   26.5171 C   0  0  0  0  0  0  0  0  0  0  0  0
    7.0966  -14.0427   26.4140 C   0  0  0  0  0  0  0  0  0  0  0  0
    5.9210  -13.4435   26.0462 C   0  0  0  0  0  0  0  0  0  0  0  0
    5.7646  -12.0634   25.9693 C   0  0  0  0  0  0  0  0  0  0  0  0
    6.8233  -11.2363   26.2707 C   0  0  0  0  0  0  0  0  0  0  0  0
    8.0094  -11.8261   26.6410 C   0  0  0  0  0  0  0  0  0  0  0  0
    8.1512  -13.1840   26.7132 C   0  0  0  0  0  0  0  0  0  0  0  0
    9.0684  -17.1521   26.2375 C   0  0  0  0  0  0  0  0  0  0  0  0
    9.6271  -17.2385   27.3586 O   0  0  0  0  0  0  0  0  0  0  0  0
    9.0338  -18.3249   25.4548 O   0  0  0  0  0  0  0  0  0  0  0  0
  2  4  1  0
  2  1  1  1
  3  2  1  0
  4  5  2  0
  6  7  1  0
  6  4  1  0
  7  8  1  6
  8  9  1  0
 10  9  1  0
 11 10  1  0
 12 11  1  0
 13 14  2  0
 13  7  1  0
 15 13  1  0
 16 24  1  0
 16 15  1  0
 16 17  1  1
 18 17  1  0
 19 18  2  0
 20 19  1  0
 21 20  2  0
 21 22  1  0
 22 23  2  0
 23 18  1  0
 24 26  1  0
 25 24  2  0
M  END
$$$$
