AKF.pdb
     RDKit          3D

 26 26  0  0  1  0  0  0  0  0999 V2000
    8.8670  -12.6255   19.4652 C   0  0  0  0  0  0  0  0  0  0  0  0
    8.1066  -13.9112   19.2671 C   0  0  2  0  0  0  0  0  0  0  0  0
    6.8284  -13.5859   18.6674 N   0  0  0  0  0  0  0  0  0  0  0  0
    7.8688  -14.6434   20.5183 C   0  0  0  0  0  0  0  0  0  0  0  0
    7.2467  -14.1402   21.4900 O   0  0  0  0  0  0  0  0  0  0  0  0
    8.3443  -15.9710   20.6726 N   0  0  0  0  0  0  0  0  0  0  0  0
    8.1831  -16.7315   21.9229 C   0  0  1  0  0  0  0  0  0  0  0  0
    8.2811  -18.2066   21.6395 C   0  0  0  0  0  0  0  0  0  0  0  0
    8.1644  -18.9818   22.9165 C   0  0  0  0  0  0  0  0  0  0  0  0
    7.0317  -20.0076   22.8478 C   0  0  0  0  0  0  0  0  0  0  0  0
    6.8604  -20.7539   24.1497 C   0  0  0  0  0  0  0  0  0  0  0  0
    5.7750  -21.7022   23.9372 N   0  0  0  0  0  0  0  0  0  0  0  0
    9.1249  -16.2393   22.9381 C   0  0  0  0  0  0  0  0  0  0  0  0
   10.3243  -15.9619   22.7330 O   0  0  0  0  0  0  0  0  0  0  0  0
    8.7096  -16.0327   24.3062 N   0  0  0  0  0  0  0  0  0  0  0  0
    9.6504  -15.6111   25.3447 C   0  0  1  0  0  0  0  0  0  0  0  0
    9.7127  -14.1256   25.4454 C   0  0  0  0  0  0  0  0  0  0  0  0
    8.4032  -13.5730   25.8269 C   0  0  0  0  0  0  0  0  0  0  0  0
    8.0736  -13.1535   27.0885 C   0  0  0  0  0  0  0  0  0  0  0  0
    6.8276  -12.6260   27.4112 C   0  0  0  0  0  0  0  0  0  0  0  0
    5.8608  -12.5084   26.4380 C   0  0  0  0  0  0  0  0  0  0  0  0
    6.1795  -12.9267   25.1670 C   0  0  0  0  0  0  0  0  0  0  0  0
    7.4079  -13.4435   24.8617 C   0  0  0  0  0  0  0  0  0  0  0  0
    9.2367  -16.2054   26.6302 C   0  0  0  0  0  0  0  0  0  0  0  0
    8.1682  -16.8340   26.8297 O   0  0  0  0  0  0  0  0  0  0  0  0
   10.1035  -16.0631   27.7337 O   0  0  0  0  0  0  0  0  0  0  0  0
  2  4  1  0
  2  1  1  1
  3  2  1  0
  4  5  2  0
  6  7  1  0
  6  4  1  0
  7  8  1  6
  8  9  1  0
 10  9  1  0
 11 10  1  0
 12 11  1  0
 13 14  2  0
 13  7  1  0
 15 13  1  0
 16 24  1  0
 16 15  1  0
 16 17  1  1
 18 17  1  0
 19 18  2  0
 20 19  1  0
 21 20  2  0
 21 22  1  0
 22 23  2  0
 23 18  1  0
 24 26  1  0
 25 24  2  0
M  END
$$$$
