PPR.pdb
     RDKit          3D

 26 27  0  0  1  0  0  0  0  0999 V2000
   28.3004  -20.2826  -15.9423 N   0  0  0  0  0  0  0  0  0  0  0  0
   28.7307  -19.0134  -16.4626 C   0  0  0  0  0  0  0  0  0  0  0  0
   27.8066  -17.9637  -15.9389 C   0  0  0  0  0  0  0  0  0  0  0  0
   26.7827  -18.7820  -15.1482 C   0  0  0  0  0  0  0  0  0  0  0  0
   27.7005  -19.9135  -14.6619 C   0  0  1  0  0  0  0  0  0  0  0  0
   26.9351  -21.0233  -14.0715 C   0  0  0  0  0  0  0  0  0  0  0  0
   27.0520  -22.1550  -14.6081 O   0  0  0  0  0  0  0  0  0  0  0  0
   26.1144  -20.7803  -12.9464 N   0  0  0  0  0  0  0  0  0  0  0  0
   26.0299  -19.5534  -12.1942 C   0  0  0  0  0  0  0  0  0  0  0  0
   25.7797  -20.0313  -10.7814 C   0  0  0  0  0  0  0  0  0  0  0  0
   25.5284  -21.5143  -10.8540 C   0  0  0  0  0  0  0  0  0  0  0  0
   25.2061  -21.7163  -12.3381 C   0  0  1  0  0  0  0  0  0  0  0  0
   23.7860  -21.3463  -12.5519 C   0  0  0  0  0  0  0  0  0  0  0  0
   23.5004  -20.1249  -12.5964 O   0  0  0  0  0  0  0  0  0  0  0  0
   15.9444  -24.6646  -13.6200 N   0  0  0  0  0  0  0  0  0  0  0  0
   17.2067  -25.3196  -13.4984 C   0  0  0  0  0  0  0  0  0  0  0  0
   17.4149  -26.3868  -14.2072 N   0  0  0  0  0  0  0  0  0  0  0  0
   18.2341  -24.8572  -12.6427 N   0  0  0  0  0  0  0  0  0  0  0  0
   18.0509  -23.6132  -11.8351 C   0  0  0  0  0  0  0  0  0  0  0  0
   18.9953  -22.6266  -12.4137 C   0  0  0  0  0  0  0  0  0  0  0  0
   20.4421  -22.8197  -12.4028 C   0  0  0  0  0  0  0  0  0  0  0  0
   21.3258  -21.7879  -12.9751 C   0  0  2  0  0  0  0  0  0  0  0  0
   22.7514  -22.2849  -12.7061 N   0  0  0  0  0  0  0  0  0  0  0  0
   21.2644  -20.4829  -12.2814 C   0  0  0  0  0  0  0  0  0  0  0  0
   21.6698  -20.1927  -11.1595 O   0  0  0  0  0  0  0  0  0  0  0  0
   20.6641  -19.4019  -12.9774 O   0  0  0  0  0  0  0  0  0  0  0  0
  2  1  1  0
  3  2  1  0
  4  3  1  0
  4  5  1  0
  5  6  1  6
  5  1  1  0
  6  7  2  0
  8  6  1  0
  8  9  1  0
  9 10  1  0
 11 10  1  0
 12  8  1  0
 12 11  1  0
 13 14  2  0
 12 13  1  1
 16 15  1  0
 17 16  2  0
 18 16  1  0
 19 20  1  0
 19 18  1  0
 20 21  1  0
 22 21  1  1
 22 23  1  0
 22 24  1  0
 23 13  1  0
 24 26  1  0
 25 24  2  0
M  END
$$$$
