PPR.pdb
     RDKit          3D

 26 27  0  0  1  0  0  0  0  0999 V2000
   27.9481  -20.4658  -15.4087 N   0  0  0  0  0  0  0  0  0  0  0  0
   28.5789  -19.2768  -15.9136 C   0  0  0  0  0  0  0  0  0  0  0  0
   27.8424  -18.0977  -15.3684 C   0  0  0  0  0  0  0  0  0  0  0  0
   26.7015  -18.7486  -14.5823 C   0  0  0  0  0  0  0  0  0  0  0  0
   27.4230  -20.0229  -14.1189 C   0  0  1  0  0  0  0  0  0  0  0  0
   26.4883  -21.0008  -13.5392 C   0  0  0  0  0  0  0  0  0  0  0  0
   26.3922  -22.1171  -14.1112 O   0  0  0  0  0  0  0  0  0  0  0  0
   25.7488  -20.6556  -12.3848 N   0  0  0  0  0  0  0  0  0  0  0  0
   25.9422  -19.4907  -11.5578 C   0  0  0  0  0  0  0  0  0  0  0  0
   25.6020  -19.9910  -10.1719 C   0  0  0  0  0  0  0  0  0  0  0  0
   25.0291  -21.3747  -10.3293 C   0  0  0  0  0  0  0  0  0  0  0  0
   24.6604  -21.4058  -11.8160 C   0  0  1  0  0  0  0  0  0  0  0  0
   23.3556  -20.7197  -11.9778 C   0  0  0  0  0  0  0  0  0  0  0  0
   23.3227  -19.4773  -11.8028 O   0  0  0  0  0  0  0  0  0  0  0  0
   24.1368  -20.0189  -16.7960 N   0  0  0  0  0  0  0  0  0  0  0  0
   23.7021  -21.2191  -17.4345 C   0  0  0  0  0  0  0  0  0  0  0  0
   24.6033  -22.0138  -17.9255 N   0  0  0  0  0  0  0  0  0  0  0  0
   22.3385  -21.5765  -17.5541 N   0  0  0  0  0  0  0  0  0  0  0  0
   21.2717  -20.7273  -16.9424 C   0  0  0  0  0  0  0  0  0  0  0  0
   20.7331  -21.5253  -15.8141 C   0  0  0  0  0  0  0  0  0  0  0  0
   21.4741  -21.7386  -14.5747 C   0  0  0  0  0  0  0  0  0  0  0  0
   21.2858  -20.8188  -13.4381 C   0  0  2  0  0  0  0  0  0  0  0  0
   22.1633  -21.3832  -12.3143 N   0  0  0  0  0  0  0  0  0  0  0  0
   19.9213  -20.8299  -12.8674 C   0  0  0  0  0  0  0  0  0  0  0  0
   19.4378  -21.6133  -12.0551 O   0  0  0  0  0  0  0  0  0  0  0  0
   19.0276  -19.8137  -13.2939 O   0  0  0  0  0  0  0  0  0  0  0  0
  2  1  1  0
  3  2  1  0
  4  3  1  0
  4  5  1  0
  5  6  1  6
  5  1  1  0
  6  7  2  0
  8  6  1  0
  8  9  1  0
  9 10  1  0
 11 10  1  0
 12  8  1  0
 12 11  1  0
 13 14  2  0
 12 13  1  1
 16 15  1  0
 17 16  2  0
 18 16  1  0
 19 20  1  0
 19 18  1  0
 20 21  1  0
 22 21  1  6
 22 23  1  0
 22 24  1  0
 23 13  1  0
 24 26  1  0
 25 24  2  0
M  END
$$$$
