PPR.pdb
     RDKit          3D

 26 27  0  0  1  0  0  0  0  0999 V2000
   27.5930  -18.8126  -17.1422 N   0  0  0  0  0  0  0  0  0  0  0  0
   27.8523  -17.4825  -17.6221 C   0  0  0  0  0  0  0  0  0  0  0  0
   27.7724  -16.5495  -16.4589 C   0  0  0  0  0  0  0  0  0  0  0  0
   27.3673  -17.4778  -15.3111 C   0  0  0  0  0  0  0  0  0  0  0  0
   28.0866  -18.7557  -15.7679 C   0  0  1  0  0  0  0  0  0  0  0  0
   27.6691  -19.9288  -14.9833 C   0  0  0  0  0  0  0  0  0  0  0  0
   26.9819  -20.8025  -15.5723 O   0  0  0  0  0  0  0  0  0  0  0  0
   28.0486  -20.0273  -13.6251 N   0  0  0  0  0  0  0  0  0  0  0  0
   28.9083  -19.1207  -12.9059 C   0  0  0  0  0  0  0  0  0  0  0  0
   29.6349  -20.0282  -11.9387 C   0  0  0  0  0  0  0  0  0  0  0  0
   28.9833  -21.3828  -12.0285 C   0  0  0  0  0  0  0  0  0  0  0  0
   27.6467  -21.0557  -12.7021 C   0  0  1  0  0  0  0  0  0  0  0  0
   26.7213  -20.5494  -11.6596 C   0  0  0  0  0  0  0  0  0  0  0  0
   26.8916  -19.3766  -11.2464 O   0  0  0  0  0  0  0  0  0  0  0  0
   23.1450  -21.0332  -15.4798 N   0  0  0  0  0  0  0  0  0  0  0  0
   21.7690  -20.9262  -15.1160 C   0  0  0  0  0  0  0  0  0  0  0  0
   20.8760  -21.3249  -15.9695 N   0  0  0  0  0  0  0  0  0  0  0  0
   21.3403  -20.4068  -13.8719 N   0  0  0  0  0  0  0  0  0  0  0  0
   21.5408  -21.1845  -12.6116 C   0  0  0  0  0  0  0  0  0  0  0  0
   22.8201  -20.6920  -12.0453 C   0  0  0  0  0  0  0  0  0  0  0  0
   23.3194  -21.1149  -10.7406 C   0  0  0  0  0  0  0  0  0  0  0  0
   24.6150  -20.6103  -10.2504 C   0  0  2  0  0  0  0  0  0  0  0  0
   25.6718  -21.3087  -11.1146 N   0  0  0  0  0  0  0  0  0  0  0  0
   24.9468  -21.0281   -8.8709 C   0  0  0  0  0  0  0  0  0  0  0  0
   25.5161  -22.0494   -8.4966 O   0  0  0  0  0  0  0  0  0  0  0  0
   24.5719  -20.1552   -7.8169 O   0  0  0  0  0  0  0  0  0  0  0  0
  2  1  1  0
  3  2  1  0
  4  3  1  0
  4  5  1  0
  5  6  1  1
  5  1  1  0
  6  7  2  0
  8  6  1  0
  8  9  1  0
  9 10  1  0
 11 10  1  0
 12  8  1  0
 12 11  1  0
 13 14  2  0
 12 13  1  1
 16 15  1  0
 17 16  2  0
 18 16  1  0
 19 20  1  0
 19 18  1  0
 20 21  1  0
 22 21  1  6
 22 23  1  0
 22 24  1  0
 23 13  1  0
 24 26  1  0
 25 24  2  0
M  END
$$$$
