PPR.pdb
     RDKit          3D

 26 27  0  0  1  0  0  0  0  0999 V2000
   28.5514  -20.6984   -8.0135 N   0  0  0  0  0  0  0  0  0  0  0  0
   29.1664  -20.6138   -6.7168 C   0  0  0  0  0  0  0  0  0  0  0  0
   28.5005  -19.5104   -5.9623 C   0  0  0  0  0  0  0  0  0  0  0  0
   27.5183  -18.9452   -6.9914 C   0  0  0  0  0  0  0  0  0  0  0  0
   27.1892  -20.2402   -7.7488 C   0  0  1  0  0  0  0  0  0  0  0  0
   26.4462  -19.9738   -8.9910 C   0  0  0  0  0  0  0  0  0  0  0  0
   25.3868  -19.3019   -8.8973 O   0  0  0  0  0  0  0  0  0  0  0  0
   26.9413  -20.4728  -10.2175 N   0  0  0  0  0  0  0  0  0  0  0  0
   27.9992  -21.4372  -10.3878 C   0  0  0  0  0  0  0  0  0  0  0  0
   28.6707  -20.9907  -11.6671 C   0  0  0  0  0  0  0  0  0  0  0  0
   27.8115  -19.9069  -12.2627 C   0  0  0  0  0  0  0  0  0  0  0  0
   26.4805  -20.1097  -11.5316 C   0  0  1  0  0  0  0  0  0  0  0  0
   25.7548  -21.2159  -12.2019 C   0  0  0  0  0  0  0  0  0  0  0  0
   25.9461  -22.3818  -11.7783 O   0  0  0  0  0  0  0  0  0  0  0  0
   20.9007  -22.5982   -8.2344 N   0  0  0  0  0  0  0  0  0  0  0  0
   19.7817  -22.2223   -9.0367 C   0  0  0  0  0  0  0  0  0  0  0  0
   18.7197  -22.9676   -8.9960 N   0  0  0  0  0  0  0  0  0  0  0  0
   19.7815  -21.0787   -9.8695 N   0  0  0  0  0  0  0  0  0  0  0  0
   21.0552  -20.3604  -10.1778 C   0  0  0  0  0  0  0  0  0  0  0  0
   21.7056  -21.1554  -11.2478 C   0  0  0  0  0  0  0  0  0  0  0  0
   22.9349  -20.7298  -11.9097 C   0  0  0  0  0  0  0  0  0  0  0  0
   23.4012  -21.4344  -13.1178 C   0  0  2  0  0  0  0  0  0  0  0  0
   24.8711  -21.0280  -13.2783 N   0  0  0  0  0  0  0  0  0  0  0  0
   22.7638  -20.9769  -14.3717 C   0  0  0  0  0  0  0  0  0  0  0  0
   22.8879  -19.8977  -14.9438 O   0  0  0  0  0  0  0  0  0  0  0  0
   21.8876  -21.8812  -15.0257 O   0  0  0  0  0  0  0  0  0  0  0  0
  2  1  1  0
  3  2  1  0
  4  3  1  0
  4  5  1  0
  5  6  1  6
  5  1  1  0
  6  7  2  0
  8  6  1  0
  8  9  1  0
  9 10  1  0
 11 10  1  0
 12  8  1  0
 12 11  1  0
 13 14  2  0
 12 13  1  6
 16 15  1  0
 17 16  2  0
 18 16  1  0
 19 20  1  0
 19 18  1  0
 20 21  1  0
 22 21  1  1
 22 23  1  0
 22 24  1  0
 23 13  1  0
 24 26  1  0
 25 24  2  0
M  END
$$$$
