PPR.pdb
     RDKit          3D

 26 27  0  0  1  0  0  0  0  0999 V2000
   25.6526  -16.6397  -17.0311 N   0  0  0  0  0  0  0  0  0  0  0  0
   25.6265  -15.2357  -16.7232 C   0  0  0  0  0  0  0  0  0  0  0  0
   25.6468  -15.0897  -15.2372 C   0  0  0  0  0  0  0  0  0  0  0  0
   25.6060  -16.5424  -14.7565 C   0  0  0  0  0  0  0  0  0  0  0  0
   26.3921  -17.1984  -15.9014 C   0  0  1  0  0  0  0  0  0  0  0  0
   26.3022  -18.6668  -15.8558 C   0  0  0  0  0  0  0  0  0  0  0  0
   25.6717  -19.2357  -16.7838 O   0  0  0  0  0  0  0  0  0  0  0  0
   26.9155  -19.3678  -14.7923 N   0  0  0  0  0  0  0  0  0  0  0  0
   27.5613  -18.7881  -13.6412 C   0  0  0  0  0  0  0  0  0  0  0  0
   28.6837  -19.7588  -13.3498 C   0  0  0  0  0  0  0  0  0  0  0  0
   28.4765  -20.9551  -14.2407 C   0  0  0  0  0  0  0  0  0  0  0  0
   27.0111  -20.7976  -14.6594 C   0  0  1  0  0  0  0  0  0  0  0  0
   26.1631  -21.3211  -13.5612 C   0  0  0  0  0  0  0  0  0  0  0  0
   26.2357  -22.5466  -13.2999 O   0  0  0  0  0  0  0  0  0  0  0  0
   20.6893  -20.2362   -8.5081 N   0  0  0  0  0  0  0  0  0  0  0  0
   21.2625  -21.0702   -7.5017 C   0  0  0  0  0  0  0  0  0  0  0  0
   20.4616  -21.7464   -6.7361 N   0  0  0  0  0  0  0  0  0  0  0  0
   22.6583  -21.1898   -7.3046 N   0  0  0  0  0  0  0  0  0  0  0  0
   23.6162  -20.4083   -8.1444 C   0  0  0  0  0  0  0  0  0  0  0  0
   23.4993  -20.9793   -9.5083 C   0  0  0  0  0  0  0  0  0  0  0  0
   24.4599  -20.6908  -10.5687 C   0  0  0  0  0  0  0  0  0  0  0  0
   24.2246  -21.1999  -11.9321 C   0  0  2  0  0  0  0  0  0  0  0  0
   25.2893  -20.5227  -12.8036 N   0  0  0  0  0  0  0  0  0  0  0  0
   22.9431  -20.7658  -12.5297 C   0  0  0  0  0  0  0  0  0  0  0  0
   22.6590  -19.6791  -13.0254 O   0  0  0  0  0  0  0  0  0  0  0  0
   21.8807  -21.7062  -12.5491 O   0  0  0  0  0  0  0  0  0  0  0  0
  2  1  1  0
  3  2  1  0
  4  3  1  0
  4  5  1  0
  5  6  1  1
  5  1  1  0
  6  7  2  0
  8  6  1  0
  8  9  1  0
  9 10  1  0
 11 10  1  0
 12  8  1  0
 12 11  1  0
 13 14  2  0
 12 13  1  1
 16 15  1  0
 17 16  2  0
 18 16  1  0
 19 20  1  0
 19 18  1  0
 20 21  1  0
 22 21  1  1
 22 23  1  0
 22 24  1  0
 23 13  1  0
 24 26  1  0
 25 24  2  0
M  END
$$$$
