PPR.pdb
     RDKit          3D

 26 27  0  0  1  0  0  0  0  0999 V2000
   27.6911  -23.0731  -17.0174 N   0  0  0  0  0  0  0  0  0  0  0  0
   27.5366  -23.1953  -18.4414 C   0  0  0  0  0  0  0  0  0  0  0  0
   26.3703  -22.3578  -18.8517 C   0  0  0  0  0  0  0  0  0  0  0  0
   25.8501  -21.8279  -17.5131 C   0  0  0  0  0  0  0  0  0  0  0  0
   27.1836  -21.7275  -16.7577 C   0  0  1  0  0  0  0  0  0  0  0  0
   26.9814  -21.4825  -15.3207 C   0  0  0  0  0  0  0  0  0  0  0  0
   27.3122  -22.4001  -14.5263 O   0  0  0  0  0  0  0  0  0  0  0  0
   26.4342  -20.2501  -14.8961 N   0  0  0  0  0  0  0  0  0  0  0  0
   26.1023  -19.1242  -15.7330 C   0  0  0  0  0  0  0  0  0  0  0  0
   26.3992  -17.9357  -14.8464 C   0  0  0  0  0  0  0  0  0  0  0  0
   26.6895  -18.4724  -13.4697 C   0  0  0  0  0  0  0  0  0  0  0  0
   26.1052  -19.8867  -13.5430 C   0  0  1  0  0  0  0  0  0  0  0  0
   24.6417  -19.7885  -13.3241 C   0  0  0  0  0  0  0  0  0  0  0  0
   23.9131  -19.5846  -14.3256 O   0  0  0  0  0  0  0  0  0  0  0  0
   19.3906  -23.6490   -7.3322 N   0  0  0  0  0  0  0  0  0  0  0  0
   19.4105  -23.7178   -8.7577 C   0  0  0  0  0  0  0  0  0  0  0  0
   18.9407  -24.7855   -9.3270 N   0  0  0  0  0  0  0  0  0  0  0  0
   19.9178  -22.6773   -9.5711 N   0  0  0  0  0  0  0  0  0  0  0  0
   20.5245  -21.4573   -8.9575 C   0  0  0  0  0  0  0  0  0  0  0  0
   20.8705  -20.5744  -10.0981 C   0  0  0  0  0  0  0  0  0  0  0  0
   22.2441  -20.3663  -10.5455 C   0  0  0  0  0  0  0  0  0  0  0  0
   22.5373  -20.2406  -11.9848 C   0  0  2  0  0  0  0  0  0  0  0  0
   24.0329  -19.9108  -12.0634 N   0  0  0  0  0  0  0  0  0  0  0  0
   21.8812  -19.0881  -12.6399 C   0  0  0  0  0  0  0  0  0  0  0  0
   22.2043  -17.9041  -12.6085 O   0  0  0  0  0  0  0  0  0  0  0  0
   20.7226  -19.3514  -13.4155 O   0  0  0  0  0  0  0  0  0  0  0  0
  2  1  1  0
  3  2  1  0
  4  3  1  0
  4  5  1  0
  5  6  1  1
  5  1  1  0
  6  7  2  0
  8  6  1  0
  8  9  1  0
  9 10  1  0
 11 10  1  0
 12  8  1  0
 12 11  1  0
 13 14  2  0
 12 13  1  6
 16 15  1  0
 17 16  2  0
 18 16  1  0
 19 20  1  0
 19 18  1  0
 20 21  1  0
 22 21  1  1
 22 23  1  0
 22 24  1  0
 23 13  1  0
 24 26  1  0
 25 24  2  0
M  END
$$$$
