CCR.pdb
     RDKit          3D

 24 23  0  0  1  0  0  0  0  0999 V2000
   25.5844  -16.5355  -16.5308 N   0  0  0  0  0  0  0  0  0  0  0  0
   25.8287  -15.3752  -17.3297 C   0  0  1  0  0  0  0  0  0  0  0  0
   24.7334  -15.2442  -18.3846 C   0  0  0  0  0  0  0  0  0  0  0  0
   24.6876  -16.6920  -19.4620 S   0  0  0  0  0  0  0  0  0  0  0  0
   25.8028  -14.1041  -16.5606 C   0  0  0  0  0  0  0  0  0  0  0  0
   24.9652  -13.9996  -15.6382 O   0  0  0  0  0  0  0  0  0  0  0  0
   26.6689  -12.9991  -16.8055 N   0  0  0  0  0  0  0  0  0  0  0  0
   26.6117  -11.7764  -16.0424 C   0  0  1  0  0  0  0  0  0  0  0  0
   28.0237  -11.2387  -15.9273 C   0  0  0  0  0  0  0  0  0  0  0  0
   28.0099   -9.6399  -15.0996 S   0  0  0  0  0  0  0  0  0  0  0  0
   25.6905  -10.7692  -16.5672 C   0  0  0  0  0  0  0  0  0  0  0  0
   25.7828  -10.5123  -17.8087 O   0  0  0  0  0  0  0  0  0  0  0  0
   17.3710  -10.4142  -17.2268 N   0  0  0  0  0  0  0  0  0  0  0  0
   17.6355   -9.1002  -17.6708 C   0  0  0  0  0  0  0  0  0  0  0  0
   16.6981   -8.3641  -18.1509 N   0  0  0  0  0  0  0  0  0  0  0  0
   18.9629   -8.6235  -17.5700 N   0  0  0  0  0  0  0  0  0  0  0  0
   19.9679   -9.6318  -17.0926 C   0  0  0  0  0  0  0  0  0  0  0  0
   21.2839   -8.9722  -16.9847 C   0  0  0  0  0  0  0  0  0  0  0  0
   22.4963   -9.6838  -16.5989 C   0  0  0  0  0  0  0  0  0  0  0  0
   23.8181   -9.0529  -16.4609 C   0  0  2  0  0  0  0  0  0  0  0  0
   24.7241  -10.0717  -15.8189 N   0  0  0  0  0  0  0  0  0  0  0  0
   23.9420   -7.8974  -15.5837 C   0  0  0  0  0  0  0  0  0  0  0  0
   24.5963   -7.8309  -14.3769 O   0  0  0  0  0  0  0  0  0  0  0  0
   23.3761   -6.7972  -15.9524 O   0  0  0  0  0  0  0  0  0  0  0  0
  2  3  1  0
  2  1  1  1
  4  3  1  0
  5  2  1  0
  5  6  2  0
  7  5  1  0
  8 11  1  0
  8  7  1  0
  8  9  1  6
 10  9  1  0
 11 21  1  0
 12 11  2  0
 14 13  1  0
 15 14  2  0
 16 14  1  0
 17 16  1  0
 18 17  1  0
 19 18  1  0
 20 19  1  1
 21 20  1  0
 22 23  1  0
 22 20  1  0
 24 22  2  0
M  END
$$$$
