CCR.pdb
     RDKit          3D

 24 23  0  0  1  0  0  0  0  0999 V2000
   26.3682  -16.1179  -18.6071 N   0  0  0  0  0  0  0  0  0  0  0  0
   26.3946  -14.7687  -19.0795 C   0  0  1  0  0  0  0  0  0  0  0  0
   25.2162  -14.5364  -20.0215 C   0  0  0  0  0  0  0  0  0  0  0  0
   25.4060  -15.4787  -21.5496 S   0  0  0  0  0  0  0  0  0  0  0  0
   26.2557  -13.7555  -18.0016 C   0  0  0  0  0  0  0  0  0  0  0  0
   25.4081  -13.9699  -17.1079 O   0  0  0  0  0  0  0  0  0  0  0  0
   27.0243  -12.5581  -17.9205 N   0  0  0  0  0  0  0  0  0  0  0  0
   26.8440  -11.5823  -16.8737 C   0  0  1  0  0  0  0  0  0  0  0  0
   28.1934  -10.9525  -16.5935 C   0  0  0  0  0  0  0  0  0  0  0  0
   28.0480   -9.7473  -15.2639 S   0  0  0  0  0  0  0  0  0  0  0  0
   25.8220  -10.5725  -17.1468 C   0  0  0  0  0  0  0  0  0  0  0  0
   25.8419  -10.0483  -18.3045 O   0  0  0  0  0  0  0  0  0  0  0  0
   17.3859  -10.4340  -15.5307 N   0  0  0  0  0  0  0  0  0  0  0  0
   17.5044   -9.5072  -16.5893 C   0  0  0  0  0  0  0  0  0  0  0  0
   16.4621   -9.0390  -17.1770 N   0  0  0  0  0  0  0  0  0  0  0  0
   18.8051   -9.1134  -16.9800 N   0  0  0  0  0  0  0  0  0  0  0  0
   19.9242   -9.7756  -16.2291 C   0  0  0  0  0  0  0  0  0  0  0  0
   21.2056   -9.2137  -16.6992 C   0  0  0  0  0  0  0  0  0  0  0  0
   22.4963   -9.6344  -16.1678 C   0  0  0  0  0  0  0  0  0  0  0  0
   23.7925   -9.1266  -16.6434 C   0  0  2  0  0  0  0  0  0  0  0  0
   24.8329  -10.1409  -16.2436 N   0  0  0  0  0  0  0  0  0  0  0  0
   24.2990   -7.8871  -16.0716 C   0  0  0  0  0  0  0  0  0  0  0  0
   23.9747   -6.6033  -16.4397 O   0  0  0  0  0  0  0  0  0  0  0  0
   25.1586   -7.9728  -15.1122 O   0  0  0  0  0  0  0  0  0  0  0  0
  2  3  1  0
  2  1  1  1
  4  3  1  0
  5  2  1  0
  5  6  2  0
  7  5  1  0
  8 11  1  0
  8  7  1  0
  8  9  1  6
 10  9  1  0
 11 21  1  0
 12 11  2  0
 14 13  1  0
 15 14  2  0
 16 14  1  0
 17 16  1  0
 18 17  1  0
 19 18  1  0
 20 19  1  1
 21 20  1  0
 22 23  1  0
 22 20  1  0
 24 22  2  0
M  END
$$$$
