CCR.pdb
     RDKit          3D

 24 23  0  0  1  0  0  0  0  0999 V2000
   26.9226   -9.5768  -17.1134 N   0  0  0  0  0  0  0  0  0  0  0  0
   25.8201  -10.1297  -16.3902 C   0  0  1  0  0  0  0  0  0  0  0  0
   26.2861  -10.5574  -15.0010 C   0  0  0  0  0  0  0  0  0  0  0  0
   27.2532  -12.0800  -15.0766 S   0  0  0  0  0  0  0  0  0  0  0  0
   24.7104   -9.1674  -16.1653 C   0  0  0  0  0  0  0  0  0  0  0  0
   25.0122   -7.9906  -15.8700 O   0  0  0  0  0  0  0  0  0  0  0  0
   23.3277   -9.4982  -16.2644 N   0  0  0  0  0  0  0  0  0  0  0  0
   22.2757   -8.5355  -16.0473 C   0  0  1  0  0  0  0  0  0  0  0  0
   21.8740   -7.9794  -17.3984 C   0  0  0  0  0  0  0  0  0  0  0  0
   20.5332   -6.7937  -17.2042 S   0  0  0  0  0  0  0  0  0  0  0  0
   21.1219   -9.0452  -15.3075 C   0  0  0  0  0  0  0  0  0  0  0  0
   20.6991  -10.1957  -15.6441 O   0  0  0  0  0  0  0  0  0  0  0  0
   16.3226   -5.7594   -8.4955 N   0  0  0  0  0  0  0  0  0  0  0  0
   15.5534   -6.8497   -8.9573 C   0  0  0  0  0  0  0  0  0  0  0  0
   14.3318   -6.9996   -8.5880 N   0  0  0  0  0  0  0  0  0  0  0  0
   16.1712   -7.7685   -9.8368 N   0  0  0  0  0  0  0  0  0  0  0  0
   17.2471   -7.1902  -10.7102 C   0  0  0  0  0  0  0  0  0  0  0  0
   17.7132   -8.2368  -11.6408 C   0  0  0  0  0  0  0  0  0  0  0  0
   18.9078   -8.0894  -12.4632 C   0  0  0  0  0  0  0  0  0  0  0  0
   19.2690   -8.9916  -13.5676 C   0  0  2  0  0  0  0  0  0  0  0  0
   20.4518   -8.3738  -14.2679 N   0  0  0  0  0  0  0  0  0  0  0  0
   18.3074   -9.1829  -14.6439 C   0  0  0  0  0  0  0  0  0  0  0  0
   17.9229   -8.2668  -15.5935 O   0  0  0  0  0  0  0  0  0  0  0  0
   17.7279  -10.3327  -14.7372 O   0  0  0  0  0  0  0  0  0  0  0  0
  2  3  1  0
  2  1  1  1
  4  3  1  0
  5  2  1  0
  5  6  2  0
  7  5  1  0
  8 11  1  0
  8  7  1  0
  8  9  1  6
 10  9  1  0
 11 21  1  0
 12 11  2  0
 14 13  1  0
 15 14  2  0
 16 14  1  0
 17 16  1  0
 18 17  1  0
 19 18  1  0
 20 19  1  1
 21 20  1  0
 22 23  1  0
 22 20  1  0
 24 22  2  0
M  END
$$$$
