CCR.pdb
     RDKit          3D

 24 23  0  0  1  0  0  0  0  0999 V2000
   22.6437  -22.2544   -7.1240 N   0  0  0  0  0  0  0  0  0  0  0  0
   22.0921  -21.2745   -8.0070 C   0  0  1  0  0  0  0  0  0  0  0  0
   21.2061  -20.3170   -7.2146 C   0  0  0  0  0  0  0  0  0  0  0  0
   20.5790  -21.0987   -5.7130 S   0  0  0  0  0  0  0  0  0  0  0  0
   23.1148  -20.4239   -8.6691 C   0  0  0  0  0  0  0  0  0  0  0  0
   22.7144  -19.5442   -9.4622 O   0  0  0  0  0  0  0  0  0  0  0  0
   24.5192  -20.5452   -8.4589 N   0  0  0  0  0  0  0  0  0  0  0  0
   25.4954  -19.9195   -9.3169 C   0  0  1  0  0  0  0  0  0  0  0  0
   26.6247  -19.4174   -8.4402 C   0  0  0  0  0  0  0  0  0  0  0  0
   27.1933  -20.7339   -7.3517 S   0  0  0  0  0  0  0  0  0  0  0  0
   25.9888  -20.7656  -10.4027 C   0  0  0  0  0  0  0  0  0  0  0  0
   25.7256  -22.0061  -10.3156 O   0  0  0  0  0  0  0  0  0  0  0  0
   20.7505  -20.6035  -16.0414 N   0  0  0  0  0  0  0  0  0  0  0  0
   21.6007  -21.5018  -16.7226 C   0  0  0  0  0  0  0  0  0  0  0  0
   21.2022  -22.1165  -17.7782 N   0  0  0  0  0  0  0  0  0  0  0  0
   22.9012  -21.7018  -16.2048 N   0  0  0  0  0  0  0  0  0  0  0  0
   23.1357  -21.1358  -14.8338 C   0  0  0  0  0  0  0  0  0  0  0  0
   24.5612  -21.3050  -14.4907 C   0  0  0  0  0  0  0  0  0  0  0  0
   25.1359  -20.8265  -13.2392 C   0  0  0  0  0  0  0  0  0  0  0  0
   26.5540  -20.9646  -12.8733 C   0  0  2  0  0  0  0  0  0  0  0  0
   26.7210  -20.3231  -11.5200 N   0  0  0  0  0  0  0  0  0  0  0  0
   27.5464  -20.2812  -13.6905 C   0  0  0  0  0  0  0  0  0  0  0  0
   28.3650  -20.8331  -14.6467 O   0  0  0  0  0  0  0  0  0  0  0  0
   27.7028  -19.0120  -13.5132 O   0  0  0  0  0  0  0  0  0  0  0  0
  2  3  1  0
  2  1  1  1
  4  3  1  0
  5  2  1  0
  5  6  2  0
  7  5  1  0
  8 11  1  0
  8  7  1  0
  8  9  1  1
 10  9  1  0
 11 21  1  0
 12 11  2  0
 14 13  1  0
 15 14  2  0
 16 14  1  0
 17 16  1  0
 18 17  1  0
 19 18  1  0
 20 19  1  6
 21 20  1  0
 22 23  1  0
 22 20  1  0
 24 22  2  0
M  END
$$$$
