CCR.pdb
     RDKit          3D

 24 23  0  0  1  0  0  0  0  0999 V2000
   27.0931  -21.6671   -9.3542 N   0  0  0  0  0  0  0  0  0  0  0  0
   25.9945  -20.7522   -9.3684 C   0  0  1  0  0  0  0  0  0  0  0  0
   26.3379  -19.5316   -8.5187 C   0  0  0  0  0  0  0  0  0  0  0  0
   27.2965  -19.9986   -7.0619 S   0  0  0  0  0  0  0  0  0  0  0  0
   25.6730  -20.2257  -10.7201 C   0  0  0  0  0  0  0  0  0  0  0  0
   24.7284  -19.4124  -10.8177 O   0  0  0  0  0  0  0  0  0  0  0  0
   26.3701  -20.5864  -11.9096 N   0  0  0  0  0  0  0  0  0  0  0  0
   26.0502  -20.0322  -13.2023 C   0  0  1  0  0  0  0  0  0  0  0  0
   27.3423  -19.9119  -13.9846 C   0  0  0  0  0  0  0  0  0  0  0  0
   28.6535  -20.8251  -13.1550 S   0  0  0  0  0  0  0  0  0  0  0  0
   25.0319  -20.7691  -13.9499 C   0  0  0  0  0  0  0  0  0  0  0  0
   25.0004  -22.0270  -13.7708 O   0  0  0  0  0  0  0  0  0  0  0  0
   20.2701  -24.0956  -11.4752 N   0  0  0  0  0  0  0  0  0  0  0  0
   19.7631  -22.9620  -10.8031 C   0  0  0  0  0  0  0  0  0  0  0  0
   19.6283  -22.9573   -9.5253 N   0  0  0  0  0  0  0  0  0  0  0  0
   19.4093  -21.8359  -11.5817 N   0  0  0  0  0  0  0  0  0  0  0  0
   20.0046  -21.8011  -12.9598 C   0  0  0  0  0  0  0  0  0  0  0  0
   20.7290  -20.5263  -13.1292 C   0  0  0  0  0  0  0  0  0  0  0  0
   22.1405  -20.4600  -13.4876 C   0  0  0  0  0  0  0  0  0  0  0  0
   22.6580  -20.6495  -14.8516 C   0  0  2  0  0  0  0  0  0  0  0  0
   24.0979  -20.2052  -14.8387 N   0  0  0  0  0  0  0  0  0  0  0  0
   22.0751  -19.8586  -15.9260 C   0  0  0  0  0  0  0  0  0  0  0  0
   22.3113  -18.5353  -16.2123 O   0  0  0  0  0  0  0  0  0  0  0  0
   21.2302  -20.4383  -16.7113 O   0  0  0  0  0  0  0  0  0  0  0  0
  2  3  1  0
  2  1  1  6
  4  3  1  0
  5  2  1  0
  5  6  2  0
  7  5  1  0
  8 11  1  0
  8  7  1  0
  8  9  1  6
 10  9  1  0
 11 21  1  0
 12 11  2  0
 14 13  1  0
 15 14  2  0
 16 14  1  0
 17 16  1  0
 18 17  1  0
 19 18  1  0
 20 19  1  1
 21 20  1  0
 22 23  1  0
 22 20  1  0
 24 22  2  0
M  END
$$$$
