CCR.pdb
     RDKit          3D

 24 23  0  0  1  0  0  0  0  0999 V2000
   26.8497  -15.5259  -18.3444 N   0  0  0  0  0  0  0  0  0  0  0  0
   26.4888  -16.3656  -17.2449 C   0  0  1  0  0  0  0  0  0  0  0  0
   26.9952  -15.7468  -15.9447 C   0  0  0  0  0  0  0  0  0  0  0  0
   28.7631  -16.0401  -15.7269 S   0  0  0  0  0  0  0  0  0  0  0  0
   25.0217  -16.5252  -17.0716 C   0  0  0  0  0  0  0  0  0  0  0  0
   24.2842  -15.6014  -17.4789 O   0  0  0  0  0  0  0  0  0  0  0  0
   24.4023  -17.6606  -16.4730 N   0  0  0  0  0  0  0  0  0  0  0  0
   22.9724  -17.8493  -16.4484 C   0  0  1  0  0  0  0  0  0  0  0  0
   22.4845  -17.8613  -17.8829 C   0  0  0  0  0  0  0  0  0  0  0  0
   20.7142  -18.1856  -17.9302 S   0  0  0  0  0  0  0  0  0  0  0  0
   22.5230  -19.0315  -15.7143 C   0  0  0  0  0  0  0  0  0  0  0  0
   22.9573  -20.1519  -16.1287 O   0  0  0  0  0  0  0  0  0  0  0  0
   23.9729  -20.7315   -8.9407 N   0  0  0  0  0  0  0  0  0  0  0  0
   24.9920  -20.7150   -9.9179 C   0  0  0  0  0  0  0  0  0  0  0  0
   26.0588  -20.0194   -9.7478 N   0  0  0  0  0  0  0  0  0  0  0  0
   24.7989  -21.4872  -11.0866 N   0  0  0  0  0  0  0  0  0  0  0  0
   23.9757  -20.8296  -12.1565 C   0  0  0  0  0  0  0  0  0  0  0  0
   22.5825  -20.7222  -11.6813 C   0  0  0  0  0  0  0  0  0  0  0  0
   21.5307  -20.0730  -12.4543 C   0  0  0  0  0  0  0  0  0  0  0  0
   21.2946  -20.3037  -13.8879 C   0  0  2  0  0  0  0  0  0  0  0  0
   21.6607  -19.0282  -14.6022 N   0  0  0  0  0  0  0  0  0  0  0  0
   19.9301  -20.5532  -14.3304 C   0  0  0  0  0  0  0  0  0  0  0  0
   19.1012  -19.6923  -15.0089 O   0  0  0  0  0  0  0  0  0  0  0  0
   19.4103  -21.7040  -14.0618 O   0  0  0  0  0  0  0  0  0  0  0  0
  2  3  1  0
  2  1  1  6
  4  3  1  0
  5  2  1  0
  5  6  2  0
  7  5  1  0
  8 11  1  0
  8  7  1  0
  8  9  1  6
 10  9  1  0
 11 21  1  0
 12 11  2  0
 14 13  1  0
 15 14  2  0
 16 14  1  0
 17 16  1  0
 18 17  1  0
 19 18  1  0
 20 19  1  1
 21 20  1  0
 22 23  1  0
 22 20  1  0
 24 22  2  0
M  END
$$$$
