CCR.pdb
     RDKit          3D

 24 23  0  0  1  0  0  0  0  0999 V2000
   24.2057  -12.7802  -20.5813 N   0  0  0  0  0  0  0  0  0  0  0  0
   23.1332  -13.0204  -19.6670 C   0  0  1  0  0  0  0  0  0  0  0  0
   23.0863  -14.5053  -19.3166 C   0  0  0  0  0  0  0  0  0  0  0  0
   23.4960  -15.5273  -20.7473 S   0  0  0  0  0  0  0  0  0  0  0  0
   23.2796  -12.3047  -18.3731 C   0  0  0  0  0  0  0  0  0  0  0  0
   22.3710  -12.4441  -17.5255 O   0  0  0  0  0  0  0  0  0  0  0  0
   24.3860  -11.4719  -18.0362 N   0  0  0  0  0  0  0  0  0  0  0  0
   24.4533  -10.7199  -16.8072 C   0  0  1  0  0  0  0  0  0  0  0  0
   25.9096  -10.3924  -16.5467 C   0  0  0  0  0  0  0  0  0  0  0  0
   26.0562   -9.3500  -15.0861 S   0  0  0  0  0  0  0  0  0  0  0  0
   23.6153   -9.5218  -16.7752 C   0  0  0  0  0  0  0  0  0  0  0  0
   23.7269   -8.7288  -17.7623 O   0  0  0  0  0  0  0  0  0  0  0  0
   15.2599   -8.3980  -16.2182 N   0  0  0  0  0  0  0  0  0  0  0  0
   15.6446   -7.0403  -16.2638 C   0  0  0  0  0  0  0  0  0  0  0  0
   14.7664   -6.1082  -16.3689 N   0  0  0  0  0  0  0  0  0  0  0  0
   17.0249   -6.7420  -16.1908 N   0  0  0  0  0  0  0  0  0  0  0  0
   17.9326   -7.9364  -16.1240 C   0  0  0  0  0  0  0  0  0  0  0  0
   19.3268   -7.4643  -16.0149 C   0  0  0  0  0  0  0  0  0  0  0  0
   20.4646   -8.3714  -15.9264 C   0  0  0  0  0  0  0  0  0  0  0  0
   21.8664   -7.9345  -15.8347 C   0  0  2  0  0  0  0  0  0  0  0  0
   22.7087   -9.1815  -15.7542 N   0  0  0  0  0  0  0  0  0  0  0  0
   22.2774   -7.1787  -14.6602 C   0  0  0  0  0  0  0  0  0  0  0  0
   22.2312   -5.8163  -14.4850 O   0  0  0  0  0  0  0  0  0  0  0  0
   22.7506   -7.8365  -13.6552 O   0  0  0  0  0  0  0  0  0  0  0  0
  2  3  1  0
  2  1  1  6
  4  3  1  0
  5  2  1  0
  5  6  2  0
  7  5  1  0
  8 11  1  0
  8  7  1  0
  8  9  1  6
 10  9  1  0
 11 21  1  0
 12 11  2  0
 14 13  1  0
 15 14  2  0
 16 14  1  0
 17 16  1  0
 18 17  1  0
 19 18  1  0
 20 19  1  1
 21 20  1  0
 22 23  1  0
 22 20  1  0
 24 22  2  0
M  END
$$$$
