CCR.pdb
     RDKit          3D

 24 23  0  0  1  0  0  0  0  0999 V2000
   17.8164  -25.8191   -7.3079 N   0  0  0  0  0  0  0  0  0  0  0  0
   18.8034  -25.4931   -8.2896 C   0  0  1  0  0  0  0  0  0  0  0  0
   18.7802  -26.5391   -9.4011 C   0  0  0  0  0  0  0  0  0  0  0  0
   17.1316  -26.6907  -10.1209 S   0  0  0  0  0  0  0  0  0  0  0  0
   18.5715  -24.1871   -8.9592 C   0  0  0  0  0  0  0  0  0  0  0  0
   17.4606  -23.6378   -8.7931 O   0  0  0  0  0  0  0  0  0  0  0  0
   19.5309  -23.5215   -9.7762 N   0  0  0  0  0  0  0  0  0  0  0  0
   19.2583  -22.2714  -10.4422 C   0  0  1  0  0  0  0  0  0  0  0  0
   20.5863  -21.5915  -10.7072 C   0  0  0  0  0  0  0  0  0  0  0  0
   20.3136  -19.9067  -11.2806 S   0  0  0  0  0  0  0  0  0  0  0  0
   18.4578  -22.3881  -11.6605 C   0  0  0  0  0  0  0  0  0  0  0  0
   18.7394  -23.3598  -12.4298 O   0  0  0  0  0  0  0  0  0  0  0  0
   13.1882  -21.0885   -9.2493 N   0  0  0  0  0  0  0  0  0  0  0  0
   12.1133  -21.3813  -10.1167 C   0  0  0  0  0  0  0  0  0  0  0  0
   10.9447  -20.8885   -9.9099 N   0  0  0  0  0  0  0  0  0  0  0  0
   12.3654  -22.2330  -11.2169 N   0  0  0  0  0  0  0  0  0  0  0  0
   13.7529  -22.8043  -11.2761 C   0  0  0  0  0  0  0  0  0  0  0  0
   14.2856  -22.6103  -12.6389 C   0  0  0  0  0  0  0  0  0  0  0  0
   15.2149  -21.5402  -12.9803 C   0  0  0  0  0  0  0  0  0  0  0  0
   16.6329  -21.7495  -13.3113 C   0  0  2  0  0  0  0  0  0  0  0  0
   17.4159  -21.5232  -12.0437 N   0  0  0  0  0  0  0  0  0  0  0  0
   17.2614  -20.8392  -14.2579 C   0  0  0  0  0  0  0  0  0  0  0  0
   17.1995  -20.8870  -15.6300 O   0  0  0  0  0  0  0  0  0  0  0  0
   17.9707  -19.8708  -13.7828 O   0  0  0  0  0  0  0  0  0  0  0  0
  2  3  1  0
  2  1  1  1
  4  3  1  0
  5  2  1  0
  5  6  2  0
  7  5  1  0
  8 11  1  0
  8  7  1  0
  8  9  1  6
 10  9  1  0
 11 21  1  0
 12 11  2  0
 14 13  1  0
 15 14  2  0
 16 14  1  0
 17 16  1  0
 18 17  1  0
 19 18  1  0
 20 19  1  1
 21 20  1  0
 22 23  1  0
 22 20  1  0
 24 22  2  0
M  END
$$$$
