DAP.pdb
     RDKit          3D

 21 21  0  0  1  0  0  0  0  0999 V2000
   19.7357  -15.0795  -17.6303 N   0  0  0  0  0  0  0  0  0  0  0  0
   19.6654  -13.6893  -18.0941 C   0  0  1  0  0  0  0  0  0  0  0  0
   18.1993  -13.3564  -18.1368 C   0  0  0  0  0  0  0  0  0  0  0  0
   17.4257  -14.1039  -19.1379 C   0  0  0  0  0  0  0  0  0  0  0  0
   17.6932  -14.1074  -20.3577 O   0  0  0  0  0  0  0  0  0  0  0  0
   20.4234  -12.8481  -17.1094 C   0  0  0  0  0  0  0  0  0  0  0  0
   20.2001  -12.8548  -15.8962 O   0  0  0  0  0  0  0  0  0  0  0  0
   16.3218  -14.8530  -18.6681 O   0  0  0  0  0  0  0  0  0  0  0  0
   23.5144  -10.8231  -17.4594 C   0  0  0  0  0  0  0  0  0  0  0  0
   22.2294  -11.1277  -16.7284 C   0  0  2  0  0  0  0  0  0  0  0  0
   21.4527  -11.9969  -17.5857 N   0  0  0  0  0  0  0  0  0  0  0  0
   21.4271   -9.8710  -16.5392 C   0  0  0  0  0  0  0  0  0  0  0  0
   20.5755   -9.5143  -17.4248 O   0  0  0  0  0  0  0  0  0  0  0  0
   21.5712   -9.0464  -15.4062 N   0  0  0  0  0  0  0  0  0  0  0  0
   22.3744   -9.3296  -14.2413 C   0  0  0  0  0  0  0  0  0  0  0  0
   21.4607   -8.7433  -13.1535 C   0  0  0  0  0  0  0  0  0  0  0  0
   21.1675   -7.3893  -13.7591 C   0  0  0  0  0  0  0  0  0  0  0  0
   20.9305   -7.7668  -15.2206 C   0  0  1  0  0  0  0  0  0  0  0  0
   21.5703   -6.6951  -16.0230 C   0  0  0  0  0  0  0  0  0  0  0  0
   20.9773   -5.5865  -16.0667 O   0  0  0  0  0  0  0  0  0  0  0  0
   22.7574   -6.8325  -16.7149 O   0  0  0  0  0  0  0  0  0  0  0  0
  2  1  1  1
  3  2  1  0
  3  4  1  0
  4  8  1  0
  5  4  2  0
  6  2  1  0
  7  6  2  0
 10  9  1  6
 10 12  1  0
 10 11  1  0
 11  6  1  0
 12 14  1  0
 13 12  2  0
 14 15  1  0
 14 18  1  0
 15 16  1  0
 16 17  1  0
 18 17  1  0
 18 19  1  6
 19 21  1  0
 20 19  2  0
M  END
$$$$
