DAP.pdb
     RDKit          3D

 21 21  0  0  1  0  0  0  0  0999 V2000
   17.6211  -12.5549  -15.8238 N   0  0  0  0  0  0  0  0  0  0  0  0
   17.1834  -11.1566  -15.7466 C   0  0  1  0  0  0  0  0  0  0  0  0
   16.3245  -11.0746  -14.5147 C   0  0  0  0  0  0  0  0  0  0  0  0
   14.9515  -11.5696  -14.6856 C   0  0  0  0  0  0  0  0  0  0  0  0
   14.6756  -12.7229  -15.0771 O   0  0  0  0  0  0  0  0  0  0  0  0
   18.4152  -10.3046  -15.6535 C   0  0  0  0  0  0  0  0  0  0  0  0
   19.2992  -10.4777  -14.8107 O   0  0  0  0  0  0  0  0  0  0  0  0
   13.9025  -10.6706  -14.3832 O   0  0  0  0  0  0  0  0  0  0  0  0
   19.8064   -7.8130  -18.0289 C   0  0  0  0  0  0  0  0  0  0  0  0
   19.7817   -8.4339  -16.6533 C   0  0  2  0  0  0  0  0  0  0  0  0
   18.5837   -9.2417  -16.5769 N   0  0  0  0  0  0  0  0  0  0  0  0
   19.6564   -7.3669  -15.6023 C   0  0  0  0  0  0  0  0  0  0  0  0
   18.5074   -7.0682  -15.1254 O   0  0  0  0  0  0  0  0  0  0  0  0
   20.7701   -6.6623  -15.1048 N   0  0  0  0  0  0  0  0  0  0  0  0
   22.1476   -6.8668  -15.4828 C   0  0  0  0  0  0  0  0  0  0  0  0
   22.8213   -6.6458  -14.1193 C   0  0  0  0  0  0  0  0  0  0  0  0
   22.1650   -5.3466  -13.7101 C   0  0  0  0  0  0  0  0  0  0  0  0
   20.7168   -5.6071  -14.1219 C   0  0  1  0  0  0  0  0  0  0  0  0
   20.2238   -4.3296  -14.6934 C   0  0  0  0  0  0  0  0  0  0  0  0
   20.2552   -4.2175  -15.9460 O   0  0  0  0  0  0  0  0  0  0  0  0
   19.7392   -3.2708  -13.9512 O   0  0  0  0  0  0  0  0  0  0  0  0
  2  1  1  1
  3  2  1  0
  3  4  1  0
  4  8  1  0
  5  4  2  0
  6  2  1  0
  7  6  2  0
 10  9  1  6
 10 12  1  0
 10 11  1  0
 11  6  1  0
 12 14  1  0
 13 12  2  0
 14 15  1  0
 14 18  1  0
 15 16  1  0
 16 17  1  0
 18 17  1  0
 18 19  1  6
 19 21  1  0
 20 19  2  0
M  END
$$$$
