DAP.pdb
     RDKit          3D

 21 21  0  0  1  0  0  0  0  0999 V2000
   17.7326  -10.6798  -14.4864 N   0  0  0  0  0  0  0  0  0  0  0  0
   18.5585   -9.9682  -15.4684 C   0  0  1  0  0  0  0  0  0  0  0  0
   17.7684   -9.9937  -16.7480 C   0  0  0  0  0  0  0  0  0  0  0  0
   17.6496  -11.3180  -17.3736 C   0  0  0  0  0  0  0  0  0  0  0  0
   16.5575  -11.8708  -17.6212 O   0  0  0  0  0  0  0  0  0  0  0  0
   18.7771   -8.5777  -14.9485 C   0  0  0  0  0  0  0  0  0  0  0  0
   17.8856   -7.7273  -14.8864 O   0  0  0  0  0  0  0  0  0  0  0  0
   18.8537  -11.9823  -17.7040 O   0  0  0  0  0  0  0  0  0  0  0  0
   21.6857   -7.1062  -13.1521 C   0  0  0  0  0  0  0  0  0  0  0  0
   20.3659   -6.9434  -13.8662 C   0  0  2  0  0  0  0  0  0  0  0  0
   20.0716   -8.2094  -14.5020 N   0  0  0  0  0  0  0  0  0  0  0  0
   20.4892   -5.9227  -14.9625 C   0  0  0  0  0  0  0  0  0  0  0  0
   20.8445   -6.2832  -16.1374 O   0  0  0  0  0  0  0  0  0  0  0  0
   20.2262   -4.5546  -14.7537 N   0  0  0  0  0  0  0  0  0  0  0  0
   19.7821   -3.9494  -13.5214 C   0  0  0  0  0  0  0  0  0  0  0  0
   18.8258   -2.8886  -14.0889 C   0  0  0  0  0  0  0  0  0  0  0  0
   19.7147   -2.2728  -15.1457 C   0  0  0  0  0  0  0  0  0  0  0  0
   20.3581   -3.5197  -15.7507 C   0  0  1  0  0  0  0  0  0  0  0  0
   21.7751   -3.1597  -16.0045 C   0  0  0  0  0  0  0  0  0  0  0  0
   22.6182   -3.5313  -15.1480 O   0  0  0  0  0  0  0  0  0  0  0  0
   22.2228   -2.4540  -17.1037 O   0  0  0  0  0  0  0  0  0  0  0  0
  2  1  1  1
  3  2  1  0
  3  4  1  0
  4  8  1  0
  5  4  2  0
  6  2  1  0
  7  6  2  0
 10  9  1  6
 10 12  1  0
 10 11  1  0
 11  6  1  0
 12 14  1  0
 13 12  2  0
 14 15  1  0
 14 18  1  0
 15 16  1  0
 16 17  1  0
 18 17  1  0
 18 19  1  1
 19 21  1  0
 20 19  2  0
M  END
$$$$
