DAP.pdb
     RDKit          3D

 21 21  0  0  1  0  0  0  0  0999 V2000
   25.2329  -18.1689  -15.5076 N   0  0  0  0  0  0  0  0  0  0  0  0
   26.3498  -18.8980  -14.8964 C   0  0  1  0  0  0  0  0  0  0  0  0
   27.5869  -18.1421  -15.2969 C   0  0  0  0  0  0  0  0  0  0  0  0
   27.9897  -18.3165  -16.6993 C   0  0  0  0  0  0  0  0  0  0  0  0
   28.0380  -17.3823  -17.5266 O   0  0  0  0  0  0  0  0  0  0  0  0
   26.1262  -18.9012  -13.4126 C   0  0  0  0  0  0  0  0  0  0  0  0
   26.1558  -17.8817  -12.7186 O   0  0  0  0  0  0  0  0  0  0  0  0
   28.3371  -19.6247  -17.1096 O   0  0  0  0  0  0  0  0  0  0  0  0
   24.7503  -21.4459  -11.1254 C   0  0  0  0  0  0  0  0  0  0  0  0
   25.6523  -20.2540  -11.3361 C   0  0  2  0  0  0  0  0  0  0  0  0
   25.8662  -20.1341  -12.7621 N   0  0  0  0  0  0  0  0  0  0  0  0
   26.9971  -20.5018  -10.7125 C   0  0  0  0  0  0  0  0  0  0  0  0
   27.9720  -20.9122  -11.4321 O   0  0  0  0  0  0  0  0  0  0  0  0
   27.2421  -20.2992   -9.3402 N   0  0  0  0  0  0  0  0  0  0  0  0
   26.3024  -19.7874   -8.3720 C   0  0  0  0  0  0  0  0  0  0  0  0
   27.2566  -18.9433   -7.5125 C   0  0  0  0  0  0  0  0  0  0  0  0
   28.3590  -19.9512   -7.2777 C   0  0  0  0  0  0  0  0  0  0  0  0
   28.4893  -20.5725   -8.6676 C   0  0  1  0  0  0  0  0  0  0  0  0
   28.7015  -22.0237   -8.4426 C   0  0  0  0  0  0  0  0  0  0  0  0
   29.8547  -22.3817   -8.0898 O   0  0  0  0  0  0  0  0  0  0  0  0
   27.7299  -22.9934   -8.5925 O   0  0  0  0  0  0  0  0  0  0  0  0
  2  1  1  6
  3  2  1  0
  3  4  1  0
  4  8  1  0
  5  4  2  0
  6  2  1  0
  7  6  2  0
 10  9  1  6
 10 12  1  0
 10 11  1  0
 11  6  1  0
 12 14  1  0
 13 12  2  0
 14 15  1  0
 14 18  1  0
 15 16  1  0
 16 17  1  0
 18 17  1  0
 18 19  1  1
 19 21  1  0
 20 19  2  0
M  END
$$$$
