DAP.pdb
     RDKit          3D

 21 21  0  0  1  0  0  0  0  0999 V2000
   20.7830   -8.0684  -21.7399 N   0  0  0  0  0  0  0  0  0  0  0  0
   20.1029   -8.5510  -20.5327 C   0  0  1  0  0  0  0  0  0  0  0  0
   20.1928  -10.0510  -20.5965 C   0  0  0  0  0  0  0  0  0  0  0  0
   19.1355  -10.6997  -21.3842 C   0  0  0  0  0  0  0  0  0  0  0  0
   18.2249  -10.0748  -21.9672 O   0  0  0  0  0  0  0  0  0  0  0  0
   20.8249   -7.9758  -19.3497 C   0  0  0  0  0  0  0  0  0  0  0  0
   21.9714   -7.5242  -19.4069 O   0  0  0  0  0  0  0  0  0  0  0  0
   19.1737  -12.1108  -21.4713 O   0  0  0  0  0  0  0  0  0  0  0  0
   20.8743   -5.8597  -17.2007 C   0  0  0  0  0  0  0  0  0  0  0  0
   20.7327   -7.3343  -16.9111 C   0  0  2  0  0  0  0  0  0  0  0  0
   20.1656   -7.9437  -18.0946 N   0  0  0  0  0  0  0  0  0  0  0  0
   19.7513   -7.5540  -15.7942 C   0  0  0  0  0  0  0  0  0  0  0  0
   18.4944   -7.5333  -16.0316 O   0  0  0  0  0  0  0  0  0  0  0  0
   20.1585   -7.7870  -14.4660 N   0  0  0  0  0  0  0  0  0  0  0  0
   21.5191   -7.8884  -13.9958 C   0  0  0  0  0  0  0  0  0  0  0  0
   21.3430   -8.9941  -12.9431 C   0  0  0  0  0  0  0  0  0  0  0  0
   20.1496   -8.4513  -12.1898 C   0  0  0  0  0  0  0  0  0  0  0  0
   19.2712   -7.9663  -13.3422 C   0  0  1  0  0  0  0  0  0  0  0  0
   18.6761   -6.6863  -12.8849 C   0  0  0  0  0  0  0  0  0  0  0  0
   17.7483   -6.7609  -12.0386 O   0  0  0  0  0  0  0  0  0  0  0  0
   19.0685   -5.4361  -13.3207 O   0  0  0  0  0  0  0  0  0  0  0  0
  2  1  1  6
  3  2  1  0
  3  4  1  0
  4  8  1  0
  5  4  2  0
  6  2  1  0
  7  6  2  0
 10  9  1  6
 10 12  1  0
 10 11  1  0
 11  6  1  0
 12 14  1  0
 13 12  2  0
 14 15  1  0
 14 18  1  0
 15 16  1  0
 16 17  1  0
 18 17  1  0
 18 19  1  1
 19 21  1  0
 20 19  2  0
M  END
$$$$
