DAP.pdb
     RDKit          3D

 21 21  0  0  1  0  0  0  0  0999 V2000
   20.3521  -12.6595  -18.2862 N   0  0  0  0  0  0  0  0  0  0  0  0
   21.1467  -11.4271  -18.3380 C   0  0  1  0  0  0  0  0  0  0  0  0
   20.4897  -10.5723  -19.3867 C   0  0  0  0  0  0  0  0  0  0  0  0
   20.6347  -11.0644  -20.7637 C   0  0  0  0  0  0  0  0  0  0  0  0
   19.6817  -11.4864  -21.4516 O   0  0  0  0  0  0  0  0  0  0  0  0
   21.1034  -10.8067  -16.9724 C   0  0  0  0  0  0  0  0  0  0  0  0
   20.0653  -10.6716  -16.3199 O   0  0  0  0  0  0  0  0  0  0  0  0
   21.9360  -11.0487  -21.3175 O   0  0  0  0  0  0  0  0  0  0  0  0
   23.8334   -9.8280  -14.6408 C   0  0  0  0  0  0  0  0  0  0  0  0
   22.3887   -9.7560  -15.0722 C   0  0  2  0  0  0  0  0  0  0  0  0
   22.3124  -10.3479  -16.3903 N   0  0  0  0  0  0  0  0  0  0  0  0
   21.9574   -8.3230  -15.2117 C   0  0  0  0  0  0  0  0  0  0  0  0
   22.1334   -7.7051  -16.3180 O   0  0  0  0  0  0  0  0  0  0  0  0
   21.3541   -7.6099  -14.1573 N   0  0  0  0  0  0  0  0  0  0  0  0
   21.0602   -8.1205  -12.8400 C   0  0  0  0  0  0  0  0  0  0  0  0
   19.7220   -7.4095  -12.5840 C   0  0  0  0  0  0  0  0  0  0  0  0
   20.1018   -5.9940  -12.9561 C   0  0  0  0  0  0  0  0  0  0  0  0
   20.9239   -6.2339  -14.2215 C   0  0  1  0  0  0  0  0  0  0  0  0
   22.0618   -5.2843  -14.1494 C   0  0  0  0  0  0  0  0  0  0  0  0
   23.1601   -5.7430  -13.7421 O   0  0  0  0  0  0  0  0  0  0  0  0
   21.9955   -3.9491  -14.4955 O   0  0  0  0  0  0  0  0  0  0  0  0
  2  1  1  1
  3  2  1  0
  3  4  1  0
  4  8  1  0
  5  4  2  0
  6  2  1  0
  7  6  2  0
 10  9  1  6
 10 12  1  0
 10 11  1  0
 11  6  1  0
 12 14  1  0
 13 12  2  0
 14 15  1  0
 14 18  1  0
 15 16  1  0
 16 17  1  0
 18 17  1  0
 18 19  1  1
 19 21  1  0
 20 19  2  0
M  END
$$$$
