DAP.pdb
     RDKit          3D

 21 21  0  0  1  0  0  0  0  0999 V2000
   22.5354  -18.5765  -18.0786 N   0  0  0  0  0  0  0  0  0  0  0  0
   22.4657  -18.3975  -16.6240 C   0  0  1  0  0  0  0  0  0  0  0  0
   21.3243  -19.2650  -16.1692 C   0  0  0  0  0  0  0  0  0  0  0  0
   19.9877  -18.7136  -16.4313 C   0  0  0  0  0  0  0  0  0  0  0  0
   19.1732  -19.2235  -17.2289 O   0  0  0  0  0  0  0  0  0  0  0  0
   23.7854  -18.8285  -16.0544 C   0  0  0  0  0  0  0  0  0  0  0  0
   24.2326  -19.9728  -16.1658 O   0  0  0  0  0  0  0  0  0  0  0  0
   19.6281  -17.5400  -15.7287 O   0  0  0  0  0  0  0  0  0  0  0  0
   26.2880  -16.9482  -13.9995 C   0  0  0  0  0  0  0  0  0  0  0  0
   25.7798  -18.2204  -14.6334 C   0  0  2  0  0  0  0  0  0  0  0  0
   24.5692  -17.8802  -15.3492 N   0  0  0  0  0  0  0  0  0  0  0  0
   25.3952  -19.2134  -13.5728 C   0  0  0  0  0  0  0  0  0  0  0  0
   24.1739  -19.3211  -13.2076 O   0  0  0  0  0  0  0  0  0  0  0  0
   26.3378  -20.0518  -12.9459 N   0  0  0  0  0  0  0  0  0  0  0  0
   27.7402  -20.1516  -13.2705 C   0  0  0  0  0  0  0  0  0  0  0  0
   27.9421  -21.6614  -13.0659 C   0  0  0  0  0  0  0  0  0  0  0  0
   27.3002  -21.8300  -11.7073 C   0  0  0  0  0  0  0  0  0  0  0  0
   26.0526  -20.9616  -11.8626 C   0  0  1  0  0  0  0  0  0  0  0  0
   25.8862  -20.2589  -10.5663 C   0  0  0  0  0  0  0  0  0  0  0  0
   26.3460  -19.0905  -10.4899 O   0  0  0  0  0  0  0  0  0  0  0  0
   25.2682  -20.7956   -9.4542 O   0  0  0  0  0  0  0  0  0  0  0  0
  2  1  1  6
  3  2  1  0
  3  4  1  0
  4  8  1  0
  5  4  2  0
  6  2  1  0
  7  6  2  0
 10  9  1  1
 10 12  1  0
 10 11  1  0
 11  6  1  0
 12 14  1  0
 13 12  2  0
 14 15  1  0
 14 18  1  0
 15 16  1  0
 16 17  1  0
 18 17  1  0
 18 19  1  1
 19 21  1  0
 20 19  2  0
M  END
$$$$
