DAP.pdb
     RDKit          3D

 21 21  0  0  1  0  0  0  0  0999 V2000
   21.8243  -21.1558  -15.0507 N   0  0  0  0  0  0  0  0  0  0  0  0
   22.5905  -20.1015  -14.3768 C   0  0  1  0  0  0  0  0  0  0  0  0
   21.5634  -19.1465  -13.8337 C   0  0  0  0  0  0  0  0  0  0  0  0
   20.8862  -18.3263  -14.8477 C   0  0  0  0  0  0  0  0  0  0  0  0
   21.4061  -18.0030  -15.9361 O   0  0  0  0  0  0  0  0  0  0  0  0
   23.4028  -20.7559  -13.2981 C   0  0  0  0  0  0  0  0  0  0  0  0
   22.9080  -21.4122  -12.3782 O   0  0  0  0  0  0  0  0  0  0  0  0
   19.5735  -17.8919  -14.5501 O   0  0  0  0  0  0  0  0  0  0  0  0
   27.0517  -21.3561  -13.0157 C   0  0  0  0  0  0  0  0  0  0  0  0
   25.6948  -21.2457  -12.3635 C   0  0  2  0  0  0  0  0  0  0  0  0
   24.8141  -20.6203  -13.3262 N   0  0  0  0  0  0  0  0  0  0  0  0
   25.7617  -20.3297  -11.1738 C   0  0  0  0  0  0  0  0  0  0  0  0
   25.7327  -19.0613  -11.3385 O   0  0  0  0  0  0  0  0  0  0  0  0
   25.8571  -20.8121   -9.8538 N   0  0  0  0  0  0  0  0  0  0  0  0
   25.8603  -22.1973   -9.4495 C   0  0  0  0  0  0  0  0  0  0  0  0
   25.0482  -22.0850   -8.1496 C   0  0  0  0  0  0  0  0  0  0  0  0
   25.7712  -20.9340   -7.4873 C   0  0  0  0  0  0  0  0  0  0  0  0
   25.9679  -19.9902   -8.6728 C   0  0  1  0  0  0  0  0  0  0  0  0
   27.3269  -19.4170   -8.5111 C   0  0  0  0  0  0  0  0  0  0  0  0
   27.4344  -18.4107   -7.7639 O   0  0  0  0  0  0  0  0  0  0  0  0
   28.4656  -19.9089   -9.1180 O   0  0  0  0  0  0  0  0  0  0  0  0
  2  1  1  1
  3  2  1  0
  3  4  1  0
  4  8  1  0
  5  4  2  0
  6  2  1  0
  7  6  2  0
 10  9  1  6
 10 12  1  0
 10 11  1  0
 11  6  1  0
 12 14  1  0
 13 12  2  0
 14 15  1  0
 14 18  1  0
 15 16  1  0
 16 17  1  0
 18 17  1  0
 18 19  1  1
 19 21  1  0
 20 19  2  0
M  END
$$$$
