DAP.pdb
     RDKit          3D

 21 21  0  0  1  0  0  0  0  0999 V2000
   36.0389   -1.4130  -13.2114 N   0  0  0  0  0  0  0  0  0  0  0  0
   37.3633   -1.8992  -12.8085 C   0  0  1  0  0  0  0  0  0  0  0  0
   38.0474   -0.7176  -12.1777 C   0  0  0  0  0  0  0  0  0  0  0  0
   38.4648    0.3295  -13.1204 C   0  0  0  0  0  0  0  0  0  0  0  0
   39.1893    0.1162  -14.1150 O   0  0  0  0  0  0  0  0  0  0  0  0
   37.1530   -3.0306  -11.8455 C   0  0  0  0  0  0  0  0  0  0  0  0
   36.5618   -2.9066  -10.7699 O   0  0  0  0  0  0  0  0  0  0  0  0
   38.0074    1.6432  -12.8648 O   0  0  0  0  0  0  0  0  0  0  0  0
   38.0127   -6.6621  -12.1011 C   0  0  0  0  0  0  0  0  0  0  0  0
   37.5272   -5.4688  -11.3145 C   0  0  2  0  0  0  0  0  0  0  0  0
   37.6551   -4.3146  -12.1776 N   0  0  0  0  0  0  0  0  0  0  0  0
   38.4193   -5.2282  -10.1291 C   0  0  0  0  0  0  0  0  0  0  0  0
   39.4317   -4.4532  -10.2352 O   0  0  0  0  0  0  0  0  0  0  0  0
   38.1892   -5.8297   -8.8763 N   0  0  0  0  0  0  0  0  0  0  0  0
   37.0644   -6.6615   -8.5228 C   0  0  0  0  0  0  0  0  0  0  0  0
   36.8485   -6.1957   -7.0742 C   0  0  0  0  0  0  0  0  0  0  0  0
   38.2642   -6.2963   -6.5527 C   0  0  0  0  0  0  0  0  0  0  0  0
   39.0507   -5.7109   -7.7247 C   0  0  1  0  0  0  0  0  0  0  0  0
   40.2724   -6.5442   -7.8471 C   0  0  0  0  0  0  0  0  0  0  0  0
   41.1865   -6.3397   -7.0074 O   0  0  0  0  0  0  0  0  0  0  0  0
   40.4689   -7.5159   -8.8082 O   0  0  0  0  0  0  0  0  0  0  0  0
  2  1  1  1
  3  2  1  0
  3  4  1  0
  4  8  1  0
  5  4  2  0
  6  2  1  0
  7  6  2  0
 10  9  1  6
 10 12  1  0
 10 11  1  0
 11  6  1  0
 12 14  1  0
 13 12  2  0
 14 15  1  0
 14 18  1  0
 15 16  1  0
 16 17  1  0
 18 17  1  0
 18 19  1  6
 19 21  1  0
 20 19  2  0
M  END
$$$$
