DAP.pdb
     RDKit          3D

 21 21  0  0  1  0  0  0  0  0999 V2000
   19.1917  -12.9682  -16.8223 N   0  0  0  0  0  0  0  0  0  0  0  0
   20.0795  -11.8797  -17.2462 C   0  0  1  0  0  0  0  0  0  0  0  0
   19.9823  -11.8467  -18.7467 C   0  0  0  0  0  0  0  0  0  0  0  0
   20.6422  -12.9662  -19.4327 C   0  0  0  0  0  0  0  0  0  0  0  0
   20.0243  -13.8778  -20.0214 O   0  0  0  0  0  0  0  0  0  0  0  0
   19.5820  -10.6180  -16.6041 C   0  0  0  0  0  0  0  0  0  0  0  0
   18.4635  -10.1428  -16.8162 O   0  0  0  0  0  0  0  0  0  0  0  0
   22.0562  -12.9893  -19.4103 O   0  0  0  0  0  0  0  0  0  0  0  0
   21.0176   -8.5984  -13.8233 C   0  0  0  0  0  0  0  0  0  0  0  0
   20.0122   -8.7751  -14.9352 C   0  0  2  0  0  0  0  0  0  0  0  0
   20.4323   -9.9264  -15.7044 N   0  0  0  0  0  0  0  0  0  0  0  0
   20.0485   -7.5934  -15.8631 C   0  0  0  0  0  0  0  0  0  0  0  0
   20.8460   -7.5878  -16.8635 O   0  0  0  0  0  0  0  0  0  0  0  0
   19.2271   -6.4638  -15.6800 N   0  0  0  0  0  0  0  0  0  0  0  0
   18.2717   -6.2668  -14.6166 C   0  0  0  0  0  0  0  0  0  0  0  0
   17.1655   -5.5419  -15.3993 C   0  0  0  0  0  0  0  0  0  0  0  0
   17.9895   -4.4855  -16.1002 C   0  0  0  0  0  0  0  0  0  0  0  0
   19.2043   -5.3029  -16.5369 C   0  0  1  0  0  0  0  0  0  0  0  0
   20.3801   -4.4232  -16.3246 C   0  0  0  0  0  0  0  0  0  0  0  0
   21.1156   -4.6853  -15.3382 O   0  0  0  0  0  0  0  0  0  0  0  0
   20.7157   -3.3509  -17.1274 O   0  0  0  0  0  0  0  0  0  0  0  0
  2  1  1  1
  3  2  1  0
  3  4  1  0
  4  8  1  0
  5  4  2  0
  6  2  1  0
  7  6  2  0
 10  9  1  1
 10 12  1  0
 10 11  1  0
 11  6  1  0
 12 14  1  0
 13 12  2  0
 14 15  1  0
 14 18  1  0
 15 16  1  0
 16 17  1  0
 18 17  1  0
 18 19  1  1
 19 21  1  0
 20 19  2  0
M  END
$$$$
