DAP.pdb
     RDKit          3D

 21 21  0  0  1  0  0  0  0  0999 V2000
   25.5804  -21.9266  -11.8237 N   0  0  0  0  0  0  0  0  0  0  0  0
   26.8936  -21.2731  -11.8561 C   0  0  1  0  0  0  0  0  0  0  0  0
   26.8785  -20.4074  -13.0859 C   0  0  0  0  0  0  0  0  0  0  0  0
   27.1222  -21.1219  -14.3466 C   0  0  0  0  0  0  0  0  0  0  0  0
   27.9203  -20.7274  -15.2223 O   0  0  0  0  0  0  0  0  0  0  0  0
   27.0326  -20.4804  -10.5896 C   0  0  0  0  0  0  0  0  0  0  0  0
   27.9316  -19.6577  -10.3979 O   0  0  0  0  0  0  0  0  0  0  0  0
   26.4004  -22.3201  -14.5555 O   0  0  0  0  0  0  0  0  0  0  0  0
   24.7038  -20.0098   -7.7390 C   0  0  0  0  0  0  0  0  0  0  0  0
   26.0992  -19.9348   -8.3097 C   0  0  2  0  0  0  0  0  0  0  0  0
   26.0873  -20.6780   -9.5511 N   0  0  0  0  0  0  0  0  0  0  0  0
   27.0732  -20.6254   -7.3970 C   0  0  0  0  0  0  0  0  0  0  0  0
   27.2433  -21.8907   -7.4798 O   0  0  0  0  0  0  0  0  0  0  0  0
   27.8264  -19.9299   -6.4308 N   0  0  0  0  0  0  0  0  0  0  0  0
   27.8550  -18.5001   -6.2383 C   0  0  0  0  0  0  0  0  0  0  0  0
   29.3400  -18.3204   -5.8853 C   0  0  0  0  0  0  0  0  0  0  0  0
   29.4898  -19.3920   -4.8291 C   0  0  0  0  0  0  0  0  0  0  0  0
   28.7054  -20.5400   -5.4626 C   0  0  1  0  0  0  0  0  0  0  0  0
   27.9604  -21.1813   -4.3511 C   0  0  0  0  0  0  0  0  0  0  0  0
   26.7235  -20.9592   -4.2931 O   0  0  0  0  0  0  0  0  0  0  0  0
   28.5274  -21.9947   -3.3900 O   0  0  0  0  0  0  0  0  0  0  0  0
  2  1  1  1
  3  2  1  0
  3  4  1  0
  4  8  1  0
  5  4  2  0
  6  2  1  0
  7  6  2  0
 10  9  1  1
 10 12  1  0
 10 11  1  0
 11  6  1  0
 12 14  1  0
 13 12  2  0
 14 15  1  0
 14 18  1  0
 15 16  1  0
 16 17  1  0
 18 17  1  0
 18 19  1  1
 19 21  1  0
 20 19  2  0
M  END
$$$$
