DAP.pdb
     RDKit          3D

 21 21  0  0  1  0  0  0  0  0999 V2000
   16.6215  -12.0662  -15.0820 N   0  0  0  0  0  0  0  0  0  0  0  0
   16.8158  -10.7683  -15.7382 C   0  0  1  0  0  0  0  0  0  0  0  0
   15.5684   -9.9813  -15.4438 C   0  0  0  0  0  0  0  0  0  0  0  0
   14.3642  -10.4485  -16.1446 C   0  0  0  0  0  0  0  0  0  0  0  0
   14.3567  -10.8144  -17.3386 O   0  0  0  0  0  0  0  0  0  0  0  0
   18.0475  -10.1464  -15.1485 C   0  0  0  0  0  0  0  0  0  0  0  0
   18.1727   -9.8932  -13.9476 O   0  0  0  0  0  0  0  0  0  0  0  0
   13.1599  -10.4757  -15.4035 O   0  0  0  0  0  0  0  0  0  0  0  0
   21.4309   -9.6154  -16.5642 C   0  0  0  0  0  0  0  0  0  0  0  0
   20.3802   -9.2670  -15.5379 C   0  0  2  0  0  0  0  0  0  0  0  0
   19.1314   -9.8285  -16.0058 N   0  0  0  0  0  0  0  0  0  0  0  0
   20.1911   -7.7775  -15.4711 C   0  0  0  0  0  0  0  0  0  0  0  0
   19.2308   -7.2236  -16.1098 O   0  0  0  0  0  0  0  0  0  0  0  0
   21.0409   -6.9412  -14.7209 N   0  0  0  0  0  0  0  0  0  0  0  0
   22.0980   -7.3705  -13.8375 C   0  0  0  0  0  0  0  0  0  0  0  0
   21.9469   -6.3169  -12.7288 C   0  0  0  0  0  0  0  0  0  0  0  0
   21.9049   -5.0589  -13.5666 C   0  0  0  0  0  0  0  0  0  0  0  0
   20.9933   -5.4989  -14.7111 C   0  0  1  0  0  0  0  0  0  0  0  0
   21.5760   -4.9080  -15.9411 C   0  0  0  0  0  0  0  0  0  0  0  0
   22.3815   -5.6244  -16.5895 O   0  0  0  0  0  0  0  0  0  0  0  0
   21.2960   -3.6414  -16.4144 O   0  0  0  0  0  0  0  0  0  0  0  0
  2  1  1  1
  3  2  1  0
  3  4  1  0
  4  8  1  0
  5  4  2  0
  6  2  1  0
  7  6  2  0
 10  9  1  6
 10 12  1  0
 10 11  1  0
 11  6  1  0
 12 14  1  0
 13 12  2  0
 14 15  1  0
 14 18  1  0
 15 16  1  0
 16 17  1  0
 18 17  1  0
 18 19  1  6
 19 21  1  0
 20 19  2  0
M  END
$$$$
