HLV.pdb
     RDKit          3D

 26 26  0  0  1  0  0  0  0  0999 V2000
    8.8360  -15.3205   20.6714 N   0  0  0  0  0  0  0  0  0  0  0  0
    8.3017  -16.1022   21.7533 C   0  0  1  0  0  0  0  0  0  0  0  0
    8.6940  -17.5409   21.5497 C   0  0  0  0  0  0  0  0  0  0  0  0
    7.9246  -18.0629   20.3897 C   0  0  0  0  0  0  0  0  0  0  0  0
    6.7052  -18.7537   20.4212 C   0  0  0  0  0  0  0  0  0  0  0  0
    6.3399  -19.0531   19.1715 N   0  0  0  0  0  0  0  0  0  0  0  0
    7.2748  -18.5824   18.3442 C   0  0  0  0  0  0  0  0  0  0  0  0
    8.2310  -17.9846   19.0822 N   0  0  0  0  0  0  0  0  0  0  0  0
    8.7226  -15.5750   23.0619 C   0  0  0  0  0  0  0  0  0  0  0  0
    9.9296  -15.4686   23.3844 O   0  0  0  0  0  0  0  0  0  0  0  0
    5.9153  -11.9369   26.4510 C   0  0  0  0  0  0  0  0  0  0  0  0
    7.0531  -12.5861   25.6660 C   0  0  1  0  0  0  0  0  0  0  0  0
    8.3351  -11.9638   26.2821 C   0  0  0  0  0  0  0  0  0  0  0  0
    7.0754  -14.0347   26.0594 C   0  0  0  0  0  0  0  0  0  0  0  0
    8.1697  -14.7534   25.3577 C   0  0  2  0  0  0  0  0  0  0  0  0
    7.7606  -15.1649   24.0122 N   0  0  0  0  0  0  0  0  0  0  0  0
    8.6447  -15.9202   26.1237 C   0  0  0  0  0  0  0  0  0  0  0  0
    7.9185  -16.8958   26.3767 O   0  0  0  0  0  0  0  0  0  0  0  0
   11.8767  -17.9461   25.4288 C   0  0  0  0  0  0  0  0  0  0  0  0
   11.9030  -17.5112   26.8843 C   0  0  1  0  0  0  0  0  0  0  0  0
   12.9064  -16.4171   27.1088 C   0  0  0  0  0  0  0  0  0  0  0  0
   10.5073  -17.1257   27.3406 C   0  0  2  0  0  0  0  0  0  0  0  0
    9.9923  -15.9921   26.6257 N   0  0  0  0  0  0  0  0  0  0  0  0
   10.5794  -16.7485   28.7831 C   0  0  0  0  0  0  0  0  0  0  0  0
   10.8752  -17.6243   29.7958 O   0  0  0  0  0  0  0  0  0  0  0  0
   10.3521  -15.5404   29.0881 O   0  0  0  0  0  0  0  0  0  0  0  0
  2  1  1  6
  3  2  1  0
  4  8  1  0
  4  3  1  0
  5  4  2  0
  6  5  1  0
  6  7  1  0
  7  8  2  0
  9 10  2  0
  9  2  1  0
 12 11  1  1
 12 14  1  0
 12 13  1  0
 15 16  1  0
 15 14  1  1
 16  9  1  0
 17 15  1  0
 18 17  2  0
 20 19  1  6
 20 22  1  0
 20 21  1  0
 22 23  1  6
 23 17  1  0
 24 25  1  0
 24 22  1  0
 26 24  2  0
M  END
$$$$
