HLV.pdb
     RDKit          3D

 26 26  0  0  1  0  0  0  0  0999 V2000
    9.9374  -13.5901   19.9699 N   0  0  0  0  0  0  0  0  0  0  0  0
    8.6657  -13.9067   20.5613 C   0  0  1  0  0  0  0  0  0  0  0  0
    8.0646  -15.0708   19.8205 C   0  0  0  0  0  0  0  0  0  0  0  0
    7.8229  -14.6419   18.4178 C   0  0  0  0  0  0  0  0  0  0  0  0
    7.8847  -13.3383   17.9058 C   0  0  0  0  0  0  0  0  0  0  0  0
    7.6030  -13.3676   16.6002 N   0  0  0  0  0  0  0  0  0  0  0  0
    7.3642  -14.6347   16.2577 C   0  0  0  0  0  0  0  0  0  0  0  0
    7.4975  -15.4027   17.3572 N   0  0  0  0  0  0  0  0  0  0  0  0
    8.7871  -14.1514   22.0081 C   0  0  0  0  0  0  0  0  0  0  0  0
    9.7736  -14.7431   22.5068 O   0  0  0  0  0  0  0  0  0  0  0  0
    8.3065  -12.4845   26.9357 C   0  0  0  0  0  0  0  0  0  0  0  0
    7.0560  -13.2783   26.5635 C   0  0  1  0  0  0  0  0  0  0  0  0
    5.8964  -12.4749   27.2119 C   0  0  0  0  0  0  0  0  0  0  0  0
    6.8757  -13.1268   25.0809 C   0  0  0  0  0  0  0  0  0  0  0  0
    7.9595  -13.8269   24.3450 C   0  0  2  0  0  0  0  0  0  0  0  0
    7.7761  -13.7184   22.8953 N   0  0  0  0  0  0  0  0  0  0  0  0
    8.0694  -15.2433   24.7389 C   0  0  0  0  0  0  0  0  0  0  0  0
    7.1352  -16.0507   24.6024 O   0  0  0  0  0  0  0  0  0  0  0  0
   10.9839  -19.1333   25.5387 C   0  0  0  0  0  0  0  0  0  0  0  0
   10.7355  -17.7281   25.0169 C   0  0  1  0  0  0  0  0  0  0  0  0
   10.7255  -17.6974   23.5158 C   0  0  0  0  0  0  0  0  0  0  0  0
    9.4626  -17.1630   25.6208 C   0  0  2  0  0  0  0  0  0  0  0  0
    9.2803  -15.7732   25.3100 N   0  0  0  0  0  0  0  0  0  0  0  0
    9.5634  -17.2787   27.1056 C   0  0  0  0  0  0  0  0  0  0  0  0
    9.1492  -18.3704   27.8244 O   0  0  0  0  0  0  0  0  0  0  0  0
   10.0646  -16.3035   27.7398 O   0  0  0  0  0  0  0  0  0  0  0  0
  2  1  1  6
  3  2  1  0
  4  8  1  0
  4  3  1  0
  5  4  2  0
  6  5  1  0
  6  7  1  0
  7  8  2  0
  9 10  2  0
  9  2  1  0
 12 11  1  1
 12 14  1  0
 12 13  1  0
 15 16  1  0
 15 14  1  1
 16  9  1  0
 17 15  1  0
 18 17  2  0
 20 19  1  6
 20 22  1  0
 20 21  1  0
 22 23  1  1
 23 17  1  0
 24 25  1  0
 24 22  1  0
 26 24  2  0
M  END
$$$$
