HLV.pdb
     RDKit          3D

 26 26  0  0  1  0  0  0  0  0999 V2000
    9.0159  -16.0925   20.3943 N   0  0  0  0  0  0  0  0  0  0  0  0
    8.3052  -16.5163   21.5701 C   0  0  1  0  0  0  0  0  0  0  0  0
    8.5716  -17.9806   21.7942 C   0  0  0  0  0  0  0  0  0  0  0  0
    7.8180  -18.7433   20.7646 C   0  0  0  0  0  0  0  0  0  0  0  0
    7.0760  -18.2220   19.6956 C   0  0  0  0  0  0  0  0  0  0  0  0
    6.5485  -19.2308   18.9964 N   0  0  0  0  0  0  0  0  0  0  0  0
    6.9226  -20.3736   19.5742 C   0  0  0  0  0  0  0  0  0  0  0  0
    7.6894  -20.0768   20.6421 N   0  0  0  0  0  0  0  0  0  0  0  0
    8.6477  -15.6880   22.7380 C   0  0  0  0  0  0  0  0  0  0  0  0
    9.8295  -15.5371   23.1287 O   0  0  0  0  0  0  0  0  0  0  0  0
    8.1595  -11.6628   26.0825 C   0  0  0  0  0  0  0  0  0  0  0  0
    7.1711  -12.7691   26.4451 C   0  0  1  0  0  0  0  0  0  0  0  0
    5.8866  -12.0018   26.8595 C   0  0  0  0  0  0  0  0  0  0  0  0
    6.8274  -13.4753   25.1658 C   0  0  0  0  0  0  0  0  0  0  0  0
    7.9474  -14.3478   24.7292 C   0  0  2  0  0  0  0  0  0  0  0  0
    7.6354  -15.0251   23.4679 N   0  0  0  0  0  0  0  0  0  0  0  0
    8.3122  -15.3363   25.7604 C   0  0  0  0  0  0  0  0  0  0  0  0
    7.5424  -16.2416   26.1221 O   0  0  0  0  0  0  0  0  0  0  0  0
   11.3882  -17.5377   25.5977 C   0  0  0  0  0  0  0  0  0  0  0  0
   11.4271  -16.8479   26.9509 C   0  0  1  0  0  0  0  0  0  0  0  0
   12.4770  -15.7752   26.9864 C   0  0  0  0  0  0  0  0  0  0  0  0
   10.0479  -16.3271   27.3127 C   0  0  2  0  0  0  0  0  0  0  0  0
    9.5961  -15.3048   26.4115 N   0  0  0  0  0  0  0  0  0  0  0  0
   10.1247  -15.7197   28.6741 C   0  0  0  0  0  0  0  0  0  0  0  0
   10.3770  -16.4269   29.8213 O   0  0  0  0  0  0  0  0  0  0  0  0
    9.9448  -14.4698   28.7725 O   0  0  0  0  0  0  0  0  0  0  0  0
  2  1  1  6
  3  2  1  0
  4  8  1  0
  4  3  1  0
  5  4  2  0
  6  5  1  0
  6  7  1  0
  7  8  2  0
  9 10  2  0
  9  2  1  0
 12 11  1  6
 12 14  1  0
 12 13  1  0
 15 16  1  0
 15 14  1  1
 16  9  1  0
 17 15  1  0
 18 17  2  0
 20 19  1  6
 20 22  1  0
 20 21  1  0
 22 23  1  6
 23 17  1  0
 24 25  1  0
 24 22  1  0
 26 24  2  0
M  END
$$$$
