HLV.pdb
     RDKit          3D

 26 26  0  0  1  0  0  0  0  0999 V2000
    9.5174  -15.9649   20.2107 N   0  0  0  0  0  0  0  0  0  0  0  0
    8.4211  -16.0700   21.1348 C   0  0  1  0  0  0  0  0  0  0  0  0
    7.9955  -17.5112   21.2178 C   0  0  0  0  0  0  0  0  0  0  0  0
    7.4311  -17.8961   19.8975 C   0  0  0  0  0  0  0  0  0  0  0  0
    7.3255  -17.0938   18.7528 C   0  0  0  0  0  0  0  0  0  0  0  0
    6.7622  -17.8041   17.7715 N   0  0  0  0  0  0  0  0  0  0  0  0
    6.5041  -19.0256   18.2418 C   0  0  0  0  0  0  0  0  0  0  0  0
    6.9089  -19.0790   19.5263 N   0  0  0  0  0  0  0  0  0  0  0  0
    8.7628  -15.4986   22.4479 C   0  0  0  0  0  0  0  0  0  0  0  0
    9.9257  -15.5418   22.9150 O   0  0  0  0  0  0  0  0  0  0  0  0
    8.4557  -11.8854   26.3214 C   0  0  0  0  0  0  0  0  0  0  0  0
    7.3723  -12.9541   26.4504 C   0  0  1  0  0  0  0  0  0  0  0  0
    6.1217  -12.1637   26.9212 C   0  0  0  0  0  0  0  0  0  0  0  0
    7.0585  -13.4190   25.0580 C   0  0  0  0  0  0  0  0  0  0  0  0
    8.0907  -14.3726   24.5767 C   0  0  2  0  0  0  0  0  0  0  0  0
    7.7717  -14.8721   23.2366 N   0  0  0  0  0  0  0  0  0  0  0  0
    8.2788  -15.4999   25.5080 C   0  0  0  0  0  0  0  0  0  0  0  0
    7.3449  -16.2379   25.8632 O   0  0  0  0  0  0  0  0  0  0  0  0
   10.7327  -18.3426   24.9606 C   0  0  0  0  0  0  0  0  0  0  0  0
   11.0304  -17.7644   26.3337 C   0  0  1  0  0  0  0  0  0  0  0  0
   12.2885  -16.9450   26.3196 C   0  0  0  0  0  0  0  0  0  0  0  0
    9.8319  -16.9851   26.8444 C   0  0  2  0  0  0  0  0  0  0  0  0
    9.5711  -15.8094   26.0626 N   0  0  0  0  0  0  0  0  0  0  0  0
   10.1296  -16.5378   28.2371 C   0  0  0  0  0  0  0  0  0  0  0  0
   10.2493  -17.3832   29.3100 O   0  0  0  0  0  0  0  0  0  0  0  0
   10.2810  -15.2964   28.4375 O   0  0  0  0  0  0  0  0  0  0  0  0
  2  1  1  6
  3  2  1  0
  4  8  1  0
  4  3  1  0
  5  4  2  0
  6  5  1  0
  6  7  1  0
  7  8  2  0
  9 10  2  0
  9  2  1  0
 12 11  1  6
 12 14  1  0
 12 13  1  0
 15 16  1  0
 15 14  1  1
 16  9  1  0
 17 15  1  0
 18 17  2  0
 20 19  1  6
 20 22  1  0
 20 21  1  0
 22 23  1  6
 23 17  1  0
 24 25  1  0
 24 22  1  0
 26 24  2  0
M  END
$$$$
