HLV.pdb
     RDKit          3D

 26 26  0  0  1  0  0  0  0  0999 V2000
    9.6707  -15.0636   20.5994 N   0  0  0  0  0  0  0  0  0  0  0  0
    8.8275  -15.7704   21.5250 C   0  0  1  0  0  0  0  0  0  0  0  0
    8.9429  -17.2463   21.2538 C   0  0  0  0  0  0  0  0  0  0  0  0
    8.0896  -17.5613   20.0780 C   0  0  0  0  0  0  0  0  0  0  0  0
    7.3989  -16.6539   19.2626 C   0  0  0  0  0  0  0  0  0  0  0  0
    6.7458  -17.3291   18.3128 N   0  0  0  0  0  0  0  0  0  0  0  0
    6.9906  -18.6289   18.4877 C   0  0  0  0  0  0  0  0  0  0  0  0
    7.8025  -18.7668   19.5546 N   0  0  0  0  0  0  0  0  0  0  0  0
    9.1412  -15.4196   22.9200 C   0  0  0  0  0  0  0  0  0  0  0  0
   10.3096  -15.4563   23.3734 O   0  0  0  0  0  0  0  0  0  0  0  0
    6.0002  -12.0619   26.1787 C   0  0  0  0  0  0  0  0  0  0  0  0
    7.2061  -12.6748   25.4698 C   0  0  1  0  0  0  0  0  0  0  0  0
    8.4239  -11.9740   26.1303 C   0  0  0  0  0  0  0  0  0  0  0  0
    7.2778  -14.1096   25.9052 C   0  0  0  0  0  0  0  0  0  0  0  0
    8.3998  -14.8092   25.2285 C   0  0  2  0  0  0  0  0  0  0  0  0
    8.1152  -15.0231   23.8072 N   0  0  0  0  0  0  0  0  0  0  0  0
    8.7254  -16.0909   25.8803 C   0  0  0  0  0  0  0  0  0  0  0  0
    7.9085  -17.0222   25.9715 O   0  0  0  0  0  0  0  0  0  0  0  0
   12.0438  -18.2656   25.3181 C   0  0  0  0  0  0  0  0  0  0  0  0
   11.8470  -17.9432   26.7897 C   0  0  1  0  0  0  0  0  0  0  0  0
   12.8006  -16.8774   27.2470 C   0  0  0  0  0  0  0  0  0  0  0  0
   10.3968  -17.5826   27.0571 C   0  0  2  0  0  0  0  0  0  0  0  0
   10.0237  -16.3346   26.4532 N   0  0  0  0  0  0  0  0  0  0  0  0
   10.2207  -17.4350   28.5320 C   0  0  0  0  0  0  0  0  0  0  0  0
   10.3793  -18.4554   29.4340 O   0  0  0  0  0  0  0  0  0  0  0  0
    9.9044  -16.2917   28.9760 O   0  0  0  0  0  0  0  0  0  0  0  0
  2  1  1  6
  3  2  1  0
  4  8  1  0
  4  3  1  0
  5  4  2  0
  6  5  1  0
  6  7  1  0
  7  8  2  0
  9 10  2  0
  9  2  1  0
 12 11  1  1
 12 14  1  0
 12 13  1  0
 15 16  1  0
 15 14  1  1
 16  9  1  0
 17 15  1  0
 18 17  2  0
 20 19  1  6
 20 22  1  0
 20 21  1  0
 22 23  1  6
 23 17  1  0
 24 25  1  0
 24 22  1  0
 26 24  2  0
M  END
$$$$
