HLV.pdb
     RDKit          3D

 26 26  0  0  1  0  0  0  0  0999 V2000
    9.2527  -15.3349   20.5640 N   0  0  0  0  0  0  0  0  0  0  0  0
    8.3830  -15.9000   21.5597 C   0  0  1  0  0  0  0  0  0  0  0  0
    8.3716  -17.3964   21.3984 C   0  0  0  0  0  0  0  0  0  0  0  0
    7.6636  -17.7121   20.1299 C   0  0  0  0  0  0  0  0  0  0  0  0
    7.1995  -16.8043   19.1678 C   0  0  0  0  0  0  0  0  0  0  0  0
    6.6168  -17.4805   18.1738 N   0  0  0  0  0  0  0  0  0  0  0  0
    6.6897  -18.7813   18.4611 C   0  0  0  0  0  0  0  0  0  0  0  0
    7.3224  -18.9189   19.6432 N   0  0  0  0  0  0  0  0  0  0  0  0
    8.7646  -15.4746   22.9165 C   0  0  0  0  0  0  0  0  0  0  0  0
    9.9597  -15.4304   23.2933 O   0  0  0  0  0  0  0  0  0  0  0  0
    5.7339  -12.0707   26.1146 C   0  0  0  0  0  0  0  0  0  0  0  0
    6.9226  -12.7126   25.4024 C   0  0  1  0  0  0  0  0  0  0  0  0
    8.1487  -11.9238   25.9365 C   0  0  0  0  0  0  0  0  0  0  0  0
    7.0591  -14.1004   25.9583 C   0  0  0  0  0  0  0  0  0  0  0  0
    8.1321  -14.8465   25.2525 C   0  0  2  0  0  0  0  0  0  0  0  0
    7.7766  -15.0957   23.8531 N   0  0  0  0  0  0  0  0  0  0  0  0
    8.4588  -16.1157   25.9278 C   0  0  0  0  0  0  0  0  0  0  0  0
    7.6164  -17.0083   26.1194 O   0  0  0  0  0  0  0  0  0  0  0  0
   11.5976  -18.2538   25.0081 C   0  0  0  0  0  0  0  0  0  0  0  0
   11.5642  -18.0825   26.5173 C   0  0  1  0  0  0  0  0  0  0  0  0
   12.6365  -17.1405   26.9833 C   0  0  0  0  0  0  0  0  0  0  0  0
   10.1777  -17.6562   26.9651 C   0  0  2  0  0  0  0  0  0  0  0  0
    9.7881  -16.3918   26.4074 N   0  0  0  0  0  0  0  0  0  0  0  0
   10.1975  -17.5020   28.4497 C   0  0  0  0  0  0  0  0  0  0  0  0
   10.3832  -18.5363   29.3304 O   0  0  0  0  0  0  0  0  0  0  0  0
   10.0320  -16.3390   28.9234 O   0  0  0  0  0  0  0  0  0  0  0  0
  2  1  1  6
  3  2  1  0
  4  8  1  0
  4  3  1  0
  5  4  2  0
  6  5  1  0
  6  7  1  0
  7  8  2  0
  9 10  2  0
  9  2  1  0
 12 11  1  1
 12 14  1  0
 12 13  1  0
 15 16  1  0
 15 14  1  1
 16  9  1  0
 17 15  1  0
 18 17  2  0
 20 19  1  6
 20 22  1  0
 20 21  1  0
 22 23  1  6
 23 17  1  0
 24 25  1  0
 24 22  1  0
 26 24  2  0
M  END
$$$$
