HLV.pdb
     RDKit          3D

 26 26  0  0  1  0  0  0  0  0999 V2000
   10.2595  -14.3007   20.8818 N   0  0  0  0  0  0  0  0  0  0  0  0
    8.9676  -14.3329   21.5119 C   0  0  1  0  0  0  0  0  0  0  0  0
    8.0956  -15.3148   20.7766 C   0  0  0  0  0  0  0  0  0  0  0  0
    7.8022  -14.7469   19.4344 C   0  0  0  0  0  0  0  0  0  0  0  0
    8.3089  -13.5609   18.8850 C   0  0  0  0  0  0  0  0  0  0  0  0
    7.8061  -13.3976   17.6581 N   0  0  0  0  0  0  0  0  0  0  0  0
    7.0000  -14.4293   17.4017 C   0  0  0  0  0  0  0  0  0  0  0  0
    6.9991  -15.2431   18.4760 N   0  0  0  0  0  0  0  0  0  0  0  0
    9.0738  -14.6287   22.9503 C   0  0  0  0  0  0  0  0  0  0  0  0
   10.1279  -15.0682   23.4677 O   0  0  0  0  0  0  0  0  0  0  0  0
    5.8878  -11.9316   26.6166 C   0  0  0  0  0  0  0  0  0  0  0  0
    7.0954  -12.5124   25.8841 C   0  0  1  0  0  0  0  0  0  0  0  0
    8.3024  -12.1046   26.7714 C   0  0  0  0  0  0  0  0  0  0  0  0
    6.9919  -14.0055   26.0004 C   0  0  0  0  0  0  0  0  0  0  0  0
    8.0869  -14.6688   25.2472 C   0  0  2  0  0  0  0  0  0  0  0  0
    7.9697  -14.4221   23.8077 N   0  0  0  0  0  0  0  0  0  0  0  0
    8.1406  -16.1182   25.5119 C   0  0  0  0  0  0  0  0  0  0  0  0
    7.1654  -16.8674   25.3364 O   0  0  0  0  0  0  0  0  0  0  0  0
   10.4597  -18.5904   23.9502 C   0  0  0  0  0  0  0  0  0  0  0  0
   10.6454  -18.7573   25.4488 C   0  0  1  0  0  0  0  0  0  0  0  0
   11.9558  -18.1825   25.9035 C   0  0  0  0  0  0  0  0  0  0  0  0
    9.4602  -18.1676   26.1919 C   0  0  2  0  0  0  0  0  0  0  0  0
    9.3410  -16.7506   25.9938 N   0  0  0  0  0  0  0  0  0  0  0  0
    9.6676  -18.3983   27.6520 C   0  0  0  0  0  0  0  0  0  0  0  0
    9.6722  -19.6346   28.2448 O   0  0  0  0  0  0  0  0  0  0  0  0
    9.8512  -17.3842   28.3883 O   0  0  0  0  0  0  0  0  0  0  0  0
  2  1  1  6
  3  2  1  0
  4  8  1  0
  4  3  1  0
  5  4  2  0
  6  5  1  0
  6  7  1  0
  7  8  2  0
  9 10  2  0
  9  2  1  0
 12 11  1  1
 12 14  1  0
 12 13  1  0
 15 16  1  0
 15 14  1  1
 16  9  1  0
 17 15  1  0
 18 17  2  0
 20 19  1  6
 20 22  1  0
 20 21  1  0
 22 23  1  1
 23 17  1  0
 24 25  1  0
 24 22  1  0
 26 24  2  0
M  END
$$$$
