HLV.pdb
     RDKit          3D

 26 26  0  0  1  0  0  0  0  0999 V2000
    9.9288  -16.5218   20.3054 N   0  0  0  0  0  0  0  0  0  0  0  0
    9.0578  -16.8923   21.3876 C   0  0  1  0  0  0  0  0  0  0  0  0
    9.3510  -18.3159   21.7783 C   0  0  0  0  0  0  0  0  0  0  0  0
    8.7463  -19.2038   20.7508 C   0  0  0  0  0  0  0  0  0  0  0  0
    8.0747  -18.8165   19.5829 C   0  0  0  0  0  0  0  0  0  0  0  0
    7.6797  -19.9088   18.9229 N   0  0  0  0  0  0  0  0  0  0  0  0
    8.0711  -20.9766   19.6204 C   0  0  0  0  0  0  0  0  0  0  0  0
    8.7151  -20.5484   20.7242 N   0  0  0  0  0  0  0  0  0  0  0  0
    9.1692  -15.9552   22.5177 C   0  0  0  0  0  0  0  0  0  0  0  0
   10.2544  -15.4120   22.8328 O   0  0  0  0  0  0  0  0  0  0  0  0
    7.6175  -11.9775   25.3675 C   0  0  0  0  0  0  0  0  0  0  0  0
    7.0071  -13.2276   25.9976 C   0  0  1  0  0  0  0  0  0  0  0  0
    5.5689  -12.7878   26.3829 C   0  0  0  0  0  0  0  0  0  0  0  0
    6.8428  -14.2300   24.8923 C   0  0  0  0  0  0  0  0  0  0  0  0
    8.1601  -14.7780   24.4792 C   0  0  2  0  0  0  0  0  0  0  0  0
    8.0346  -15.6334   23.2961 N   0  0  0  0  0  0  0  0  0  0  0  0
    8.8192  -15.5159   25.5723 C   0  0  0  0  0  0  0  0  0  0  0  0
    8.7222  -16.7474   25.7024 O   0  0  0  0  0  0  0  0  0  0  0  0
   11.8748  -13.5794   28.0274 C   0  0  0  0  0  0  0  0  0  0  0  0
   10.9212  -14.5988   28.6271 C   0  0  1  0  0  0  0  0  0  0  0  0
    9.8156  -13.9286   29.3904 C   0  0  0  0  0  0  0  0  0  0  0  0
   10.4029  -15.5300   27.5459 C   0  0  2  0  0  0  0  0  0  0  0  0
    9.6202  -14.8401   26.5596 N   0  0  0  0  0  0  0  0  0  0  0  0
    9.5156  -16.5415   28.1922 C   0  0  0  0  0  0  0  0  0  0  0  0
    9.9678  -17.6087   28.9248 O   0  0  0  0  0  0  0  0  0  0  0  0
    8.2645  -16.4022   28.0531 O   0  0  0  0  0  0  0  0  0  0  0  0
  2  1  1  6
  3  2  1  0
  4  8  1  0
  4  3  1  0
  5  4  2  0
  6  5  1  0
  6  7  1  0
  7  8  2  0
  9 10  2  0
  9  2  1  0
 12 11  1  6
 12 14  1  0
 12 13  1  0
 15 16  1  0
 15 14  1  1
 16  9  1  0
 17 15  1  0
 18 17  2  0
 20 19  1  6
 20 22  1  0
 20 21  1  0
 22 23  1  6
 23 17  1  0
 24 25  1  0
 24 22  1  0
 26 24  2  0
M  END
$$$$
