HLV.pdb
     RDKit          3D

 26 26  0  0  1  0  0  0  0  0999 V2000
    8.1573  -16.3542   20.6782 N   0  0  0  0  0  0  0  0  0  0  0  0
    9.4653  -16.4759   21.2626 C   0  0  1  0  0  0  0  0  0  0  0  0
   10.4938  -16.1140   20.2252 C   0  0  0  0  0  0  0  0  0  0  0  0
   10.0552  -16.6928   18.9280 C   0  0  0  0  0  0  0  0  0  0  0  0
   10.0590  -18.0445   18.5567 C   0  0  0  0  0  0  0  0  0  0  0  0
    9.5900  -18.1571   17.3109 N   0  0  0  0  0  0  0  0  0  0  0  0
    9.2873  -16.9343   16.8717 C   0  0  0  0  0  0  0  0  0  0  0  0
    9.5691  -16.0513   17.8501 N   0  0  0  0  0  0  0  0  0  0  0  0
    9.5863  -15.6737   22.4912 C   0  0  0  0  0  0  0  0  0  0  0  0
   10.6957  -15.4116   23.0134 O   0  0  0  0  0  0  0  0  0  0  0  0
    8.5061  -12.4216   26.4574 C   0  0  0  0  0  0  0  0  0  0  0  0
    7.4018  -13.4686   26.3291 C   0  0  1  0  0  0  0  0  0  0  0  0
    6.0971  -12.6703   26.5954 C   0  0  0  0  0  0  0  0  0  0  0  0
    7.3485  -13.8626   24.8815 C   0  0  0  0  0  0  0  0  0  0  0  0
    8.4787  -14.7638   24.5398 C   0  0  2  0  0  0  0  0  0  0  0  0
    8.4337  -15.1650   23.1312 N   0  0  0  0  0  0  0  0  0  0  0  0
    8.5169  -15.9556   25.4069 C   0  0  0  0  0  0  0  0  0  0  0  0
    7.5150  -16.6567   25.6258 O   0  0  0  0  0  0  0  0  0  0  0  0
   10.4597  -19.0453   24.8761 C   0  0  0  0  0  0  0  0  0  0  0  0
   10.8977  -18.5285   26.2360 C   0  0  1  0  0  0  0  0  0  0  0  0
   12.2561  -17.8929   26.1665 C   0  0  0  0  0  0  0  0  0  0  0  0
    9.8447  -17.5946   26.8048 C   0  0  2  0  0  0  0  0  0  0  0  0
    9.7324  -16.3758   26.0543 N   0  0  0  0  0  0  0  0  0  0  0  0
   10.2524  -17.2278   28.1932 C   0  0  0  0  0  0  0  0  0  0  0  0
   10.2948  -18.1087   29.2430 O   0  0  0  0  0  0  0  0  0  0  0  0
   10.5799  -16.0241   28.4123 O   0  0  0  0  0  0  0  0  0  0  0  0
  2  1  1  6
  3  2  1  0
  4  8  1  0
  4  3  1  0
  5  4  2  0
  6  5  1  0
  6  7  1  0
  7  8  2  0
  9 10  2  0
  9  2  1  0
 12 11  1  6
 12 14  1  0
 12 13  1  0
 15 16  1  0
 15 14  1  1
 16  9  1  0
 17 15  1  0
 18 17  2  0
 20 19  1  6
 20 22  1  0
 20 21  1  0
 22 23  1  6
 23 17  1  0
 24 25  1  0
 24 22  1  0
 26 24  2  0
M  END
$$$$
