GRV.pdb
     RDKit          3D

 23 22  0  0  1  0  0  0  0  0999 V2000
   17.0133  -20.9541    4.5270 N   0  0  0  0  0  0  0  0  0  0  0  0
   17.8676  -19.8574    4.1313 C   0  0  0  0  0  0  0  0  0  0  0  0
   17.3978  -18.5779    4.7249 C   0  0  0  0  0  0  0  0  0  0  0  0
   16.2231  -18.5113    5.1437 O   0  0  0  0  0  0  0  0  0  0  0  0
   21.9567  -11.1556    6.8808 N   0  0  0  0  0  0  0  0  0  0  0  0
   20.5965  -10.8738    7.1898 C   0  0  0  0  0  0  0  0  0  0  0  0
   20.2529   -9.7359    7.7304 N   0  0  0  0  0  0  0  0  0  0  0  0
   19.5487  -11.7891    6.9375 N   0  0  0  0  0  0  0  0  0  0  0  0
   19.8181  -13.0786    6.3408 C   0  0  0  0  0  0  0  0  0  0  0  0
   18.5914  -13.9536    6.2322 C   0  0  0  0  0  0  0  0  0  0  0  0
   18.9720  -15.2425    5.5826 C   0  0  0  0  0  0  0  0  0  0  0  0
   17.7950  -16.1638    5.3425 C   0  0  2  0  0  0  0  0  0  0  0  0
   18.2264  -17.4274    4.8366 N   0  0  0  0  0  0  0  0  0  0  0  0
   16.7693  -15.5155    4.4906 C   0  0  0  0  0  0  0  0  0  0  0  0
   16.9486  -15.3819    3.2519 O   0  0  0  0  0  0  0  0  0  0  0  0
   19.2502   -9.5846    7.9429 C   0  0  0  0  0  0  0  0  0  0  0  0
   12.9014  -16.3284    4.4571 C   0  0  1  0  0  0  0  0  0  0  0  0
   13.1255  -14.8373    4.6070 C   0  0  0  0  0  0  0  0  0  0  0  0
   12.1304  -14.1622    3.6857 C   0  0  2  0  0  0  0  0  0  0  0  0
   14.5029  -14.4219    4.1882 N   0  0  0  0  0  0  0  0  0  0  0  0
   15.5420  -15.0125    5.0065 C   0  0  0  0  0  0  0  0  0  0  0  0
   14.5592  -12.9333    4.2309 O   0  0  0  0  0  0  0  0  0  0  0  0
   15.1313  -12.3463    5.1627 O   0  0  0  0  0  0  0  0  0  0  0  0
  1  2  1  0
  3  4  2  0
  3  2  1  0
  6  5  1  0
  7  6  2  0
  8  6  1  0
  9 10  1  0
  9  8  1  0
 10 11  1  0
 12 11  1  6
 12 13  1  0
 12 14  1  0
 13  3  1  0
 14 20  1  0
 15 14  2  0
 17 16  1  1
 17 19  1  0
 18 17  1  0
 19 21  1  0
 19 20  1  6
 21 22  2  0
 21 23  1  0
M  END
$$$$
