GRV.pdb
     RDKit          3D

 23 22  0  0  1  0  0  0  0  0999 V2000
   19.5753  -18.9960  -14.6732 N   0  0  0  0  0  0  0  0  0  0  0  0
   20.7089  -19.7674  -15.1307 C   0  0  0  0  0  0  0  0  0  0  0  0
   21.9846  -19.0667  -14.8276 C   0  0  0  0  0  0  0  0  0  0  0  0
   21.9834  -17.8184  -14.7859 O   0  0  0  0  0  0  0  0  0  0  0  0
   25.7626  -20.4890   -8.5270 N   0  0  0  0  0  0  0  0  0  0  0  0
   24.7188  -21.1059   -9.2720 C   0  0  0  0  0  0  0  0  0  0  0  0
   23.5340  -21.2790   -8.7509 N   0  0  0  0  0  0  0  0  0  0  0  0
   24.8925  -21.5636  -10.5984 N   0  0  0  0  0  0  0  0  0  0  0  0
   25.9507  -21.0374  -11.4319 C   0  0  0  0  0  0  0  0  0  0  0  0
   25.5667  -19.7662  -12.1521 C   0  0  0  0  0  0  0  0  0  0  0  0
   25.4041  -20.0634  -13.6058 C   0  0  0  0  0  0  0  0  0  0  0  0
   24.4535  -19.1180  -14.3088 C   0  0  2  0  0  0  0  0  0  0  0  0
   23.2053  -19.7545  -14.5834 N   0  0  0  0  0  0  0  0  0  0  0  0
   25.0800  -18.5221  -15.5131 C   0  0  0  0  0  0  0  0  0  0  0  0
   25.2188  -19.1936  -16.5687 O   0  0  0  0  0  0  0  0  0  0  0  0
   22.8055  -21.7194   -9.3414 C   0  0  0  0  0  0  0  0  0  0  0  0
   26.9144  -14.4457  -17.8124 C   0  0  1  0  0  0  0  0  0  0  0  0
   26.4130  -15.1040  -16.5431 C   0  0  0  0  0  0  0  0  0  0  0  0
   27.5223  -14.9599  -15.5216 C   0  0  2  0  0  0  0  0  0  0  0  0
   26.1380  -16.5653  -16.7279 N   0  0  0  0  0  0  0  0  0  0  0  0
   25.5555  -17.1813  -15.5535 C   0  0  0  0  0  0  0  0  0  0  0  0
   27.4209  -17.2230  -17.1056 O   0  0  0  0  0  0  0  0  0  0  0  0
   28.1817  -17.6763  -16.2363 O   0  0  0  0  0  0  0  0  0  0  0  0
  1  2  1  0
  3  4  2  0
  3  2  1  0
  6  5  1  0
  7  6  2  0
  8  6  1  0
  9 10  1  0
  9  8  1  0
 10 11  1  0
 12 11  1  6
 12 13  1  0
 12 14  1  0
 13  3  1  0
 14 20  1  0
 15 14  2  0
 17 16  1  1
 17 19  1  0
 18 17  1  0
 19 21  1  0
 19 20  1  6
 21 22  2  0
 21 23  1  0
M  END
$$$$
