GRV.pdb
     RDKit          3D

 23 22  0  0  1  0  0  0  0  0999 V2000
   21.5978  -16.5173  -18.9250 N   0  0  0  0  0  0  0  0  0  0  0  0
   21.1844  -17.6860  -18.1817 C   0  0  0  0  0  0  0  0  0  0  0  0
   21.9815  -17.8314  -16.9352 C   0  0  0  0  0  0  0  0  0  0  0  0
   23.0071  -17.1318  -16.7988 O   0  0  0  0  0  0  0  0  0  0  0  0
   23.9156  -21.6509  -10.5608 N   0  0  0  0  0  0  0  0  0  0  0  0
   23.0658  -21.0113   -9.6152 C   0  0  0  0  0  0  0  0  0  0  0  0
   23.3681  -20.9941   -8.3450 N   0  0  0  0  0  0  0  0  0  0  0  0
   21.8622  -20.3661   -9.9814 N   0  0  0  0  0  0  0  0  0  0  0  0
   21.3775  -20.4178  -11.3430 C   0  0  0  0  0  0  0  0  0  0  0  0
   22.2532  -19.6649  -12.3169 C   0  0  0  0  0  0  0  0  0  0  0  0
   21.6144  -19.6950  -13.6656 C   0  0  0  0  0  0  0  0  0  0  0  0
   22.4158  -18.9697  -14.7254 C   0  0  2  0  0  0  0  0  0  0  0  0
   21.6280  -18.7314  -15.8921 N   0  0  0  0  0  0  0  0  0  0  0  0
   23.6868  -19.6756  -15.0159 C   0  0  0  0  0  0  0  0  0  0  0  0
   23.6882  -20.7868  -15.6073 O   0  0  0  0  0  0  0  0  0  0  0  0
   22.7162  -20.5132   -7.6991 C   0  0  0  0  0  0  0  0  0  0  0  0
   27.0932  -17.9164  -16.3354 C   0  0  1  0  0  0  0  0  0  0  0  0
   27.3421  -18.8440  -15.1634 C   0  0  0  0  0  0  0  0  0  0  0  0
   28.5860  -19.6382  -15.5053 C   0  0  2  0  0  0  0  0  0  0  0  0
   26.2170  -19.8106  -14.9512 N   0  0  0  0  0  0  0  0  0  0  0  0
   24.9604  -19.1548  -14.6525 C   0  0  0  0  0  0  0  0  0  0  0  0
   26.6182  -20.7387  -13.8563 O   0  0  0  0  0  0  0  0  0  0  0  0
   26.1447  -20.6169  -12.7157 O   0  0  0  0  0  0  0  0  0  0  0  0
  1  2  1  0
  3  4  2  0
  3  2  1  0
  6  5  1  0
  7  6  2  0
  8  6  1  0
  9 10  1  0
  9  8  1  0
 10 11  1  0
 12 11  1  1
 12 13  1  0
 12 14  1  0
 13  3  1  0
 14 20  1  0
 15 14  2  0
 17 16  1  1
 17 19  1  0
 18 17  1  0
 19 21  1  0
 19 20  1  6
 21 22  2  0
 21 23  1  0
M  END
$$$$
