GRV.pdb
     RDKit          3D

 23 22  0  0  1  0  0  0  0  0999 V2000
   26.7154  -25.1125  -16.6188 N   0  0  0  0  0  0  0  0  0  0  0  0
   26.1499  -23.8136  -16.9063 C   0  0  0  0  0  0  0  0  0  0  0  0
   26.2805  -22.9071  -15.7352 C   0  0  0  0  0  0  0  0  0  0  0  0
   26.6426  -23.3929  -14.6431 O   0  0  0  0  0  0  0  0  0  0  0  0
   21.5244  -18.0153  -16.4818 N   0  0  0  0  0  0  0  0  0  0  0  0
   22.4396  -17.6579  -17.5114 C   0  0  0  0  0  0  0  0  0  0  0  0
   22.0484  -17.5624  -18.7536 N   0  0  0  0  0  0  0  0  0  0  0  0
   23.8050  -17.3888  -17.2622 N   0  0  0  0  0  0  0  0  0  0  0  0
   24.3445  -17.4695  -15.9228 C   0  0  0  0  0  0  0  0  0  0  0  0
   24.4770  -18.8870  -15.4175 C   0  0  0  0  0  0  0  0  0  0  0  0
   25.9183  -19.1756  -15.1575 C   0  0  0  0  0  0  0  0  0  0  0  0
   26.1747  -20.6009  -14.7167 C   0  0  2  0  0  0  0  0  0  0  0  0
   26.0116  -21.5122  -15.8036 N   0  0  0  0  0  0  0  0  0  0  0  0
   25.3543  -20.9539  -13.5333 C   0  0  0  0  0  0  0  0  0  0  0  0
   24.2300  -21.5039  -13.6673 O   0  0  0  0  0  0  0  0  0  0  0  0
   22.7509  -17.2819  -19.4616 C   0  0  0  0  0  0  0  0  0  0  0  0
   25.6079  -19.2365   -9.4669 C   0  0  1  0  0  0  0  0  0  0  0  0
   25.7061  -20.7230   -9.7432 C   0  0  0  0  0  0  0  0  0  0  0  0
   27.1826  -21.0353   -9.8748 C   0  0  1  0  0  0  0  0  0  0  0  0
   25.0327  -21.1116  -11.0241 N   0  0  0  0  0  0  0  0  0  0  0  0
   25.7748  -20.6992  -12.1978 C   0  0  0  0  0  0  0  0  0  0  0  0
   23.6641  -20.5218  -11.0129 O   0  0  0  0  0  0  0  0  0  0  0  0
   23.4129  -19.4888  -11.6530 O   0  0  0  0  0  0  0  0  0  0  0  0
  1  2  1  0
  3  4  2  0
  3  2  1  0
  6  5  1  0
  7  6  2  0
  8  6  1  0
  9 10  1  0
  9  8  1  0
 10 11  1  0
 12 11  1  6
 12 13  1  0
 12 14  1  0
 13  3  1  0
 14 20  1  0
 15 14  2  0
 17 16  1  1
 17 19  1  0
 18 17  1  0
 19 21  1  0
 19 20  1  6
 21 22  2  0
 21 23  1  0
M  END
$$$$
