GRV.pdb
     RDKit          3D

 23 22  0  0  1  0  0  0  0  0999 V2000
   26.4970  -19.6285  -18.9059 N   0  0  0  0  0  0  0  0  0  0  0  0
   25.2013  -20.1581  -18.5453 C   0  0  0  0  0  0  0  0  0  0  0  0
   24.8818  -19.8576  -17.1247 C   0  0  0  0  0  0  0  0  0  0  0  0
   25.7484  -19.2912  -16.4261 O   0  0  0  0  0  0  0  0  0  0  0  0
   18.9191  -21.2956  -10.9827 N   0  0  0  0  0  0  0  0  0  0  0  0
   19.0398  -21.9622  -12.2342 C   0  0  0  0  0  0  0  0  0  0  0  0
   18.7656  -23.2340  -12.3464 N   0  0  0  0  0  0  0  0  0  0  0  0
   19.4568  -21.3049  -13.4145 N   0  0  0  0  0  0  0  0  0  0  0  0
   19.9325  -19.9397  -13.3746 C   0  0  0  0  0  0  0  0  0  0  0  0
   21.4341  -19.8274  -13.4952 C   0  0  0  0  0  0  0  0  0  0  0  0
   21.8281  -20.0991  -14.9091 C   0  0  0  0  0  0  0  0  0  0  0  0
   23.3188  -19.9897  -15.1482 C   0  0  2  0  0  0  0  0  0  0  0  0
   23.6340  -20.1865  -16.5268 N   0  0  0  0  0  0  0  0  0  0  0  0
   24.0761  -20.8883  -14.2442 C   0  0  0  0  0  0  0  0  0  0  0  0
   23.9540  -22.1385  -14.3251 O   0  0  0  0  0  0  0  0  0  0  0  0
   18.8333  -23.6622  -13.2874 C   0  0  0  0  0  0  0  0  0  0  0  0
   27.5953  -19.6352  -12.1413 C   0  0  1  0  0  0  0  0  0  0  0  0
   27.1853  -21.0675  -12.4179 C   0  0  0  0  0  0  0  0  0  0  0  0
   27.6219  -21.3693  -13.8367 C   0  0  1  0  0  0  0  0  0  0  0  0
   25.7020  -21.2628  -12.3362 N   0  0  0  0  0  0  0  0  0  0  0  0
   24.9706  -20.4068  -13.2476 C   0  0  0  0  0  0  0  0  0  0  0  0
   25.2915  -21.0269  -10.9231 O   0  0  0  0  0  0  0  0  0  0  0  0
   24.6357  -20.0203  -10.6123 O   0  0  0  0  0  0  0  0  0  0  0  0
  1  2  1  0
  3  4  2  0
  3  2  1  0
  6  5  1  0
  7  6  2  0
  8  6  1  0
  9 10  1  0
  9  8  1  0
 10 11  1  0
 12 11  1  6
 12 13  1  0
 12 14  1  0
 13  3  1  0
 14 20  1  0
 15 14  2  0
 17 16  1  1
 17 19  1  0
 18 17  1  0
 19 21  1  0
 19 20  1  6
 21 22  2  0
 21 23  1  0
M  END
$$$$
