GRV.pdb
     RDKit          3D

 23 22  0  0  1  0  0  0  0  0999 V2000
   21.9979  -21.0192   -7.3447 N   0  0  0  0  0  0  0  0  0  0  0  0
   22.4078  -21.7995   -8.4903 C   0  0  0  0  0  0  0  0  0  0  0  0
   22.6054  -20.9311   -9.6807 C   0  0  0  0  0  0  0  0  0  0  0  0
   22.1694  -19.7613   -9.6437 O   0  0  0  0  0  0  0  0  0  0  0  0
   28.5973  -20.0667  -15.0743 N   0  0  0  0  0  0  0  0  0  0  0  0
   27.4129  -20.7867  -15.3970 C   0  0  0  0  0  0  0  0  0  0  0  0
   26.9698  -20.8343  -16.6244 N   0  0  0  0  0  0  0  0  0  0  0  0
   26.6531  -21.4834  -14.4294 N   0  0  0  0  0  0  0  0  0  0  0  0
   27.0259  -21.4547  -13.0323 C   0  0  0  0  0  0  0  0  0  0  0  0
   25.9210  -20.9572  -12.1301 C   0  0  0  0  0  0  0  0  0  0  0  0
   24.6190  -21.0706  -12.8512 C   0  0  0  0  0  0  0  0  0  0  0  0
   23.4382  -20.5857  -12.0374 C   0  0  2  0  0  0  0  0  0  0  0  0
   23.2685  -21.3733  -10.8586 N   0  0  0  0  0  0  0  0  0  0  0  0
   22.2109  -20.5054  -12.8652 C   0  0  0  0  0  0  0  0  0  0  0  0
   21.4533  -21.5021  -12.9960 O   0  0  0  0  0  0  0  0  0  0  0  0
   26.0539  -21.2891  -16.7907 C   0  0  0  0  0  0  0  0  0  0  0  0
   20.0299  -17.0238  -13.0433 C   0  0  1  0  0  0  0  0  0  0  0  0
   20.1388  -17.7324  -14.3781 C   0  0  0  0  0  0  0  0  0  0  0  0
   18.7544  -17.6994  -14.9922 C   0  0  2  0  0  0  0  0  0  0  0  0
   20.5486  -19.1663  -14.2318 N   0  0  0  0  0  0  0  0  0  0  0  0
   21.8179  -19.3222  -13.5516 C   0  0  0  0  0  0  0  0  0  0  0  0
   20.5861  -19.7675  -15.5949 O   0  0  0  0  0  0  0  0  0  0  0  0
   21.5980  -19.6653  -16.3059 O   0  0  0  0  0  0  0  0  0  0  0  0
  1  2  1  0
  3  4  2  0
  3  2  1  0
  6  5  1  0
  7  6  2  0
  8  6  1  0
  9 10  1  0
  9  8  1  0
 10 11  1  0
 12 11  1  6
 12 13  1  0
 12 14  1  0
 13  3  1  0
 14 20  1  0
 15 14  2  0
 17 16  1  6
 17 19  1  0
 18 17  1  0
 19 21  1  0
 19 20  1  1
 21 22  2  0
 21 23  1  0
M  END
$$$$
