GRV.pdb
     RDKit          3D

 23 22  0  0  1  0  0  0  0  0999 V2000
   25.8394  -21.6343  -18.1357 N   0  0  0  0  0  0  0  0  0  0  0  0
   26.3621  -20.5659  -17.3143 C   0  0  0  0  0  0  0  0  0  0  0  0
   26.6865  -21.0564  -15.9489 C   0  0  0  0  0  0  0  0  0  0  0  0
   25.9012  -21.8589  -15.4019 O   0  0  0  0  0  0  0  0  0  0  0  0
   32.6580  -23.1440  -12.8267 N   0  0  0  0  0  0  0  0  0  0  0  0
   32.6713  -22.7795  -11.4512 C   0  0  0  0  0  0  0  0  0  0  0  0
   33.3433  -23.4800  -10.5777 N   0  0  0  0  0  0  0  0  0  0  0  0
   31.9715  -21.6580  -10.9497 N   0  0  0  0  0  0  0  0  0  0  0  0
   31.3433  -20.7137  -11.8471 C   0  0  0  0  0  0  0  0  0  0  0  0
   29.8805  -21.0032  -12.0891 C   0  0  0  0  0  0  0  0  0  0  0  0
   29.5512  -20.6794  -13.5085 C   0  0  0  0  0  0  0  0  0  0  0  0
   28.1039  -20.9449  -13.8642 C   0  0  2  0  0  0  0  0  0  0  0  0
   27.8506  -20.6525  -15.2387 N   0  0  0  0  0  0  0  0  0  0  0  0
   27.1845  -20.2386  -12.9402 C   0  0  0  0  0  0  0  0  0  0  0  0
   27.2534  -18.9909  -12.7886 O   0  0  0  0  0  0  0  0  0  0  0  0
   33.3536  -23.1481   -9.5963 C   0  0  0  0  0  0  0  0  0  0  0  0
   22.8424  -19.6984  -10.8410 C   0  0  1  0  0  0  0  0  0  0  0  0
   23.8258  -20.3610  -11.7843 C   0  0  0  0  0  0  0  0  0  0  0  0
   23.4656  -21.8321  -11.8109 C   0  0  2  0  0  0  0  0  0  0  0  0
   25.2423  -20.2375  -11.3117 N   0  0  0  0  0  0  0  0  0  0  0  0
   26.1862  -20.9104  -12.1804 C   0  0  0  0  0  0  0  0  0  0  0  0
   25.3046  -20.7752   -9.9231 O   0  0  0  0  0  0  0  0  0  0  0  0
   24.8223  -20.1381   -8.9737 O   0  0  0  0  0  0  0  0  0  0  0  0
  1  2  1  0
  3  4  2  0
  3  2  1  0
  6  5  1  0
  7  6  2  0
  8  6  1  0
  9 10  1  0
  9  8  1  0
 10 11  1  0
 12 11  1  1
 12 13  1  0
 12 14  1  0
 13  3  1  0
 14 20  1  0
 15 14  2  0
 17 16  1  6
 17 19  1  0
 18 17  1  0
 19 21  1  0
 19 20  1  1
 21 22  2  0
 21 23  1  0
M  END
$$$$
