GRV.pdb
     RDKit          3D

 23 22  0  0  1  0  0  0  0  0999 V2000
   30.7336  -30.2011  -16.9453 N   0  0  0  0  0  0  0  0  0  0  0  0
   29.3909  -30.7361  -16.9355 C   0  0  0  0  0  0  0  0  0  0  0  0
   29.2786  -31.8703  -15.9807 C   0  0  0  0  0  0  0  0  0  0  0  0
   30.3146  -32.2766  -15.4138 O   0  0  0  0  0  0  0  0  0  0  0  0
   23.7808  -32.5637   -9.4625 N   0  0  0  0  0  0  0  0  0  0  0  0
   25.1330  -32.9303   -9.2123 C   0  0  0  0  0  0  0  0  0  0  0  0
   25.6510  -32.8110   -8.0196 N   0  0  0  0  0  0  0  0  0  0  0  0
   25.9874  -33.4368  -10.2185 N   0  0  0  0  0  0  0  0  0  0  0  0
   25.5690  -33.4634  -11.6026 C   0  0  0  0  0  0  0  0  0  0  0  0
   26.6267  -34.0052  -12.5353 C   0  0  0  0  0  0  0  0  0  0  0  0
   26.8016  -33.0551  -13.6732 C   0  0  0  0  0  0  0  0  0  0  0  0
   27.8646  -33.4896  -14.6595 C   0  0  2  0  0  0  0  0  0  0  0  0
   28.0445  -32.5123  -15.6848 N   0  0  0  0  0  0  0  0  0  0  0  0
   27.5839  -34.8451  -15.1906 C   0  0  0  0  0  0  0  0  0  0  0  0
   26.6277  -35.0426  -15.9850 O   0  0  0  0  0  0  0  0  0  0  0  0
   26.6139  -33.1640   -7.8730 C   0  0  0  0  0  0  0  0  0  0  0  0
   30.4565  -37.4430  -16.2459 C   0  0  1  0  0  0  0  0  0  0  0  0
   29.3643  -38.1408  -15.4611 C   0  0  0  0  0  0  0  0  0  0  0  0
   29.0331  -39.4064  -16.2249 C   0  0  2  0  0  0  0  0  0  0  0  0
   28.1166  -37.3171  -15.3626 N   0  0  0  0  0  0  0  0  0  0  0  0
   28.3600  -35.9866  -14.8442 C   0  0  0  0  0  0  0  0  0  0  0  0
   27.1482  -38.0627  -14.5098 O   0  0  0  0  0  0  0  0  0  0  0  0
   26.6518  -39.1314  -14.8989 O   0  0  0  0  0  0  0  0  0  0  0  0
  1  2  1  0
  3  4  2  0
  3  2  1  0
  6  5  1  0
  7  6  2  0
  8  6  1  0
  9 10  1  0
  9  8  1  0
 10 11  1  0
 12 11  1  1
 12 13  1  0
 12 14  1  0
 13  3  1  0
 14 20  1  0
 15 14  2  0
 17 16  1  1
 17 19  1  0
 18 17  1  0
 19 21  1  0
 19 20  1  6
 21 22  2  0
 21 23  1  0
M  END
$$$$
