GRV.pdb
     RDKit          3D

 23 22  0  0  1  0  0  0  0  0999 V2000
   23.7758  -21.6282  -20.0529 N   0  0  0  0  0  0  0  0  0  0  0  0
   23.7711  -20.6977  -18.9468 C   0  0  0  0  0  0  0  0  0  0  0  0
   23.0136  -21.2494  -17.7925 C   0  0  0  0  0  0  0  0  0  0  0  0
   22.4506  -22.3565  -17.9238 O   0  0  0  0  0  0  0  0  0  0  0  0
   24.3384  -21.9725  -11.1518 N   0  0  0  0  0  0  0  0  0  0  0  0
   25.6010  -21.6036  -11.6949 C   0  0  0  0  0  0  0  0  0  0  0  0
   26.6090  -22.4335  -11.6738 N   0  0  0  0  0  0  0  0  0  0  0  0
   25.8426  -20.3397  -12.2806 N   0  0  0  0  0  0  0  0  0  0  0  0
   24.7712  -19.5938  -12.9030 C   0  0  0  0  0  0  0  0  0  0  0  0
   24.3114  -20.1904  -14.2126 C   0  0  0  0  0  0  0  0  0  0  0  0
   22.8518  -20.4895  -14.1224 C   0  0  0  0  0  0  0  0  0  0  0  0
   22.2900  -21.1203  -15.3786 C   0  0  2  0  0  0  0  0  0  0  0  0
   22.9020  -20.5726  -16.5466 N   0  0  0  0  0  0  0  0  0  0  0  0
   20.8098  -21.0398  -15.4053 C   0  0  0  0  0  0  0  0  0  0  0  0
   20.2256  -19.9391  -15.5830 O   0  0  0  0  0  0  0  0  0  0  0  0
   27.5256  -22.0899  -12.0132 C   0  0  0  0  0  0  0  0  0  0  0  0
   18.3789  -24.6276  -15.4584 C   0  0  1  0  0  0  0  0  0  0  0  0
   17.9417  -23.2995  -16.0422 C   0  0  0  0  0  0  0  0  0  0  0  0
   18.4635  -23.2666  -17.4639 C   0  0  1  0  0  0  0  0  0  0  0  0
   18.5249  -22.1322  -15.3056 N   0  0  0  0  0  0  0  0  0  0  0  0
   19.9710  -22.1768  -15.2351 C   0  0  0  0  0  0  0  0  0  0  0  0
   17.9161  -22.1053  -13.9456 O   0  0  0  0  0  0  0  0  0  0  0  0
   18.5695  -22.4560  -12.9507 O   0  0  0  0  0  0  0  0  0  0  0  0
  1  2  1  0
  3  4  2  0
  3  2  1  0
  6  5  1  0
  7  6  2  0
  8  6  1  0
  9 10  1  0
  9  8  1  0
 10 11  1  0
 12 11  1  1
 12 13  1  0
 12 14  1  0
 13  3  1  0
 14 20  1  0
 15 14  2  0
 17 16  1  6
 17 19  1  0
 18 17  1  0
 19 21  1  0
 19 20  1  6
 21 22  2  0
 21 23  1  0
M  END
$$$$
