GRV.pdb
     RDKit          3D

 23 22  0  0  1  0  0  0  0  0999 V2000
   27.3238  -17.8310  -18.6750 N   0  0  0  0  0  0  0  0  0  0  0  0
   26.9342  -17.5467  -17.3123 C   0  0  0  0  0  0  0  0  0  0  0  0
   25.9002  -18.5072  -16.8447 C   0  0  0  0  0  0  0  0  0  0  0  0
   25.1308  -19.0122  -17.6890 O   0  0  0  0  0  0  0  0  0  0  0  0
   27.1805  -21.3836  -10.3838 N   0  0  0  0  0  0  0  0  0  0  0  0
   25.9097  -20.8592  -10.0158 C   0  0  0  0  0  0  0  0  0  0  0  0
   25.7626  -20.1626   -8.9211 N   0  0  0  0  0  0  0  0  0  0  0  0
   24.7462  -21.0544  -10.7950 N   0  0  0  0  0  0  0  0  0  0  0  0
   24.7367  -21.9996  -11.8896 C   0  0  0  0  0  0  0  0  0  0  0  0
   24.2035  -21.4162  -13.1770 C   0  0  0  0  0  0  0  0  0  0  0  0
   25.1530  -20.3734  -13.6659 C   0  0  0  0  0  0  0  0  0  0  0  0
   24.7391  -19.7560  -14.9847 C   0  0  2  0  0  0  0  0  0  0  0  0
   25.7487  -18.8759  -15.4794 N   0  0  0  0  0  0  0  0  0  0  0  0
   23.4065  -19.1143  -14.8836 C   0  0  0  0  0  0  0  0  0  0  0  0
   23.2280  -18.1078  -14.1491 O   0  0  0  0  0  0  0  0  0  0  0  0
   24.8389  -19.7277   -8.7450 C   0  0  0  0  0  0  0  0  0  0  0  0
   20.3613  -20.0037  -17.7692 C   0  0  1  0  0  0  0  0  0  0  0  0
   20.4446  -18.7079  -16.9882 C   0  0  0  0  0  0  0  0  0  0  0  0
   21.4070  -17.8156  -17.7446 C   0  0  1  0  0  0  0  0  0  0  0  0
   20.9855  -18.9084  -15.6053 N   0  0  0  0  0  0  0  0  0  0  0  0
   22.2666  -19.5842  -15.5945 C   0  0  0  0  0  0  0  0  0  0  0  0
   19.9659  -19.6661  -14.8260 O   0  0  0  0  0  0  0  0  0  0  0  0
   20.1579  -20.8518  -14.5140 O   0  0  0  0  0  0  0  0  0  0  0  0
  1  2  1  0
  3  4  2  0
  3  2  1  0
  6  5  1  0
  7  6  2  0
  8  6  1  0
  9 10  1  0
  9  8  1  0
 10 11  1  0
 12 11  1  1
 12 13  1  0
 12 14  1  0
 13  3  1  0
 14 20  1  0
 15 14  2  0
 17 16  1  6
 17 19  1  0
 18 17  1  0
 19 21  1  0
 19 20  1  6
 21 22  2  0
 21 23  1  0
M  END
$$$$
