QLR.pdb
     RDKit          3D

 29 28  0  0  1  0  0  0  0  0999 V2000
    6.4387  -17.7071   19.1782 N   0  0  0  0  0  0  0  0  0  0  0  0
    7.3285  -16.8452   18.5068 C   0  0  0  0  0  0  0  0  0  0  0  0
    7.8778  -17.1310   17.4371 O   0  0  0  0  0  0  0  0  0  0  0  0
    7.6286  -15.5065   19.1194 C   0  0  0  0  0  0  0  0  0  0  0  0
    6.8014  -15.2916   20.3519 C   0  0  0  0  0  0  0  0  0  0  0  0
    7.0109  -13.9228   20.9073 C   0  0  2  0  0  0  0  0  0  0  0  0
    7.6774  -13.0593   19.9203 N   0  0  0  0  0  0  0  0  0  0  0  0
    7.8305  -13.9620   22.1233 C   0  0  0  0  0  0  0  0  0  0  0  0
    9.0814  -13.9319   22.1380 O   0  0  0  0  0  0  0  0  0  0  0  0
    5.7042  -11.9665   26.8026 C   0  0  0  0  0  0  0  0  0  0  0  0
    6.7167  -12.2316   25.6997 C   0  0  1  0  0  0  0  0  0  0  0  0
    7.9560  -11.3822   25.9331 C   0  0  0  0  0  0  0  0  0  0  0  0
    7.0179  -13.7034   25.7438 C   0  0  0  0  0  0  0  0  0  0  0  0
    7.9356  -14.0636   24.6173 C   0  0  2  0  0  0  0  0  0  0  0  0
    7.1723  -14.0396   23.3889 N   0  0  0  0  0  0  0  0  0  0  0  0
    8.4611  -15.4458   24.7982 C   0  0  0  0  0  0  0  0  0  0  0  0
    7.6992  -16.4218   24.8160 O   0  0  0  0  0  0  0  0  0  0  0  0
   15.4331  -20.4455   24.7093 N   0  0  0  0  0  0  0  0  0  0  0  0
   14.3883  -21.0184   23.9329 C   0  0  0  0  0  0  0  0  0  0  0  0
   14.6082  -22.1331   23.3391 N   0  0  0  0  0  0  0  0  0  0  0  0
   13.1212  -20.3988   23.7982 N   0  0  0  0  0  0  0  0  0  0  0  0
   12.9768  -18.9915   23.4846 C   0  0  0  0  0  0  0  0  0  0  0  0
   12.5784  -18.1658   24.6443 C   0  0  0  0  0  0  0  0  0  0  0  0
   11.7481  -16.9695   24.4181 C   0  0  0  0  0  0  0  0  0  0  0  0
   10.4243  -16.9467   25.1023 C   0  0  2  0  0  0  0  0  0  0  0  0
    9.8473  -15.6000   24.9473 N   0  0  0  0  0  0  0  0  0  0  0  0
   10.4101  -17.2281   26.5371 C   0  0  0  0  0  0  0  0  0  0  0  0
   10.3501  -16.3274   27.4408 O   0  0  0  0  0  0  0  0  0  0  0  0
   10.4612  -18.5304   27.0108 O   0  0  0  0  0  0  0  0  0  0  0  0
  1  2  1  0
  2  3  2  0
  4  5  1  0
  4  2  1  0
  6  8  1  0
  6  5  1  0
  6  7  1  6
  8  9  2  0
 11 10  1  1
 11 13  1  0
 12 11  1  0
 14 13  1  1
 14 16  1  0
 15 14  1  0
 15  8  1  0
 16 17  2  0
 18 19  1  0
 19 20  2  0
 19 21  1  0
 21 22  1  0
 23 22  1  0
 23 24  1  0
 25 24  1  1
 25 27  1  0
 26 25  1  0
 26 16  1  0
 27 28  2  0
 27 29  1  0
M  END
$$$$
