QLR.pdb
     RDKit          3D

 29 28  0  0  1  0  0  0  0  0999 V2000
   10.8280  -15.2950   13.4555 N   0  0  0  0  0  0  0  0  0  0  0  0
   10.1015  -16.4877   13.2685 C   0  0  0  0  0  0  0  0  0  0  0  0
    9.8051  -16.9383   12.1564 O   0  0  0  0  0  0  0  0  0  0  0  0
    9.6617  -17.2565   14.4822 C   0  0  0  0  0  0  0  0  0  0  0  0
   10.0021  -16.5061   15.7354 C   0  0  0  0  0  0  0  0  0  0  0  0
    9.6061  -17.2791   16.9485 C   0  0  2  0  0  0  0  0  0  0  0  0
    8.1618  -17.5585   16.9365 N   0  0  0  0  0  0  0  0  0  0  0  0
    9.9299  -16.5445   18.1763 C   0  0  0  0  0  0  0  0  0  0  0  0
   11.0915  -16.2996   18.5720 O   0  0  0  0  0  0  0  0  0  0  0  0
    6.3994  -12.7985   19.7311 C   0  0  0  0  0  0  0  0  0  0  0  0
    7.7068  -13.5085   19.4175 C   0  0  1  0  0  0  0  0  0  0  0  0
    8.8291  -12.4871   19.3216 C   0  0  0  0  0  0  0  0  0  0  0  0
    7.9301  -14.4979   20.5266 C   0  0  0  0  0  0  0  0  0  0  0  0
    9.1248  -15.3438   20.2139 C   0  0  2  0  0  0  0  0  0  0  0  0
    8.8573  -16.0669   18.9901 N   0  0  0  0  0  0  0  0  0  0  0  0
    9.3479  -16.3458   21.2936 C   0  0  0  0  0  0  0  0  0  0  0  0
    8.5577  -17.2831   21.4686 O   0  0  0  0  0  0  0  0  0  0  0  0
   15.5926  -21.8593   23.7289 N   0  0  0  0  0  0  0  0  0  0  0  0
   14.8838  -21.2282   22.6697 C   0  0  0  0  0  0  0  0  0  0  0  0
   14.4383  -21.9561   21.7129 N   0  0  0  0  0  0  0  0  0  0  0  0
   14.6564  -19.8300   22.6413 N   0  0  0  0  0  0  0  0  0  0  0  0
   13.9547  -19.1379   23.7034 C   0  0  0  0  0  0  0  0  0  0  0  0
   12.4944  -19.0533   23.4894 C   0  0  0  0  0  0  0  0  0  0  0  0
   11.9635  -18.0164   22.5868 C   0  0  0  0  0  0  0  0  0  0  0  0
   10.8191  -17.2144   23.1047 C   0  0  2  0  0  0  0  0  0  0  0  0
   10.4830  -16.1883   22.1024 N   0  0  0  0  0  0  0  0  0  0  0  0
   11.0224  -16.4971   24.3626 C   0  0  0  0  0  0  0  0  0  0  0  0
   11.0611  -15.2241   24.4605 O   0  0  0  0  0  0  0  0  0  0  0  0
   11.1886  -17.1815   25.5571 O   0  0  0  0  0  0  0  0  0  0  0  0
  1  2  1  0
  2  3  2  0
  4  5  1  0
  4  2  1  0
  6  8  1  0
  6  5  1  0
  6  7  1  6
  8  9  2  0
 11 10  1  1
 11 13  1  0
 12 11  1  0
 14 13  1  1
 14 16  1  0
 15 14  1  0
 15  8  1  0
 16 17  2  0
 18 19  1  0
 19 20  2  0
 19 21  1  0
 21 22  1  0
 23 22  1  0
 23 24  1  0
 25 24  1  6
 25 27  1  0
 26 25  1  0
 26 16  1  0
 27 28  2  0
 27 29  1  0
M  END
$$$$
