QLR.pdb
     RDKit          3D

 29 28  0  0  1  0  0  0  0  0999 V2000
    9.5052  -14.1795   16.7192 N   0  0  0  0  0  0  0  0  0  0  0  0
    8.3439  -13.4660   17.0765 C   0  0  0  0  0  0  0  0  0  0  0  0
    7.6020  -12.9158   16.2552 O   0  0  0  0  0  0  0  0  0  0  0  0
    7.9838  -13.3659   18.5318 C   0  0  0  0  0  0  0  0  0  0  0  0
    8.9600  -14.1342   19.3721 C   0  0  0  0  0  0  0  0  0  0  0  0
    8.2540  -14.9719   20.3849 C   0  0  2  0  0  0  0  0  0  0  0  0
    6.7959  -14.8459   20.2363 N   0  0  0  0  0  0  0  0  0  0  0  0
    8.6207  -14.5780   21.7496 C   0  0  0  0  0  0  0  0  0  0  0  0
    9.7956  -14.4469   22.1596 O   0  0  0  0  0  0  0  0  0  0  0  0
    8.0679  -11.8018   25.9969 C   0  0  0  0  0  0  0  0  0  0  0  0
    6.9780  -12.8605   26.0534 C   0  0  1  0  0  0  0  0  0  0  0  0
    5.7521  -12.2907   26.7494 C   0  0  0  0  0  0  0  0  0  0  0  0
    6.6941  -13.2550   24.6312 C   0  0  0  0  0  0  0  0  0  0  0  0
    7.8870  -13.9512   24.0541 C   0  0  2  0  0  0  0  0  0  0  0  0
    7.5769  -14.3215   22.6907 N   0  0  0  0  0  0  0  0  0  0  0  0
    8.1735  -15.2024   24.8102 C   0  0  0  0  0  0  0  0  0  0  0  0
    7.2909  -16.0496   25.0015 O   0  0  0  0  0  0  0  0  0  0  0  0
   12.7380  -21.1371   22.3406 N   0  0  0  0  0  0  0  0  0  0  0  0
   13.3390  -21.0555   23.6269 C   0  0  0  0  0  0  0  0  0  0  0  0
   13.5977  -22.1450   24.2513 N   0  0  0  0  0  0  0  0  0  0  0  0
   13.6586  -19.8156   24.2336 N   0  0  0  0  0  0  0  0  0  0  0  0
   12.9723  -18.5863   23.8910 C   0  0  0  0  0  0  0  0  0  0  0  0
   11.8424  -18.2702   24.7904 C   0  0  0  0  0  0  0  0  0  0  0  0
   11.1563  -16.9739   24.6473 C   0  0  0  0  0  0  0  0  0  0  0  0
    9.9861  -16.7449   25.5412 C   0  0  2  0  0  0  0  0  0  0  0  0
    9.4767  -15.3844   25.2962 N   0  0  0  0  0  0  0  0  0  0  0  0
   10.2198  -16.8339   26.9819 C   0  0  0  0  0  0  0  0  0  0  0  0
   10.4360  -15.8242   27.7339 O   0  0  0  0  0  0  0  0  0  0  0  0
   10.2183  -18.0586   27.6323 O   0  0  0  0  0  0  0  0  0  0  0  0
  1  2  1  0
  2  3  2  0
  4  5  1  0
  4  2  1  0
  6  8  1  0
  6  5  1  0
  6  7  1  1
  8  9  2  0
 11 10  1  6
 11 13  1  0
 12 11  1  0
 14 13  1  1
 14 16  1  0
 15 14  1  0
 15  8  1  0
 16 17  2  0
 18 19  1  0
 19 20  2  0
 19 21  1  0
 21 22  1  0
 23 22  1  0
 23 24  1  0
 25 24  1  6
 25 27  1  0
 26 25  1  0
 26 16  1  0
 27 28  2  0
 27 29  1  0
M  END
$$$$
