QLR.pdb
     RDKit          3D

 29 28  0  0  1  0  0  0  0  0999 V2000
    9.6216  -14.5577   13.3796 N   0  0  0  0  0  0  0  0  0  0  0  0
    8.3832  -15.1068   13.7672 C   0  0  0  0  0  0  0  0  0  0  0  0
    7.3866  -15.1246   13.0364 O   0  0  0  0  0  0  0  0  0  0  0  0
    8.2626  -15.7038   15.1408 C   0  0  0  0  0  0  0  0  0  0  0  0
    9.1908  -16.8720   15.2930 C   0  0  0  0  0  0  0  0  0  0  0  0
    8.9774  -17.5608   16.5991 C   0  0  2  0  0  0  0  0  0  0  0  0
    7.5423  -17.7669   16.8481 N   0  0  0  0  0  0  0  0  0  0  0  0
    9.5373  -16.7818   17.7089 C   0  0  0  0  0  0  0  0  0  0  0  0
   10.7594  -16.5865   17.8941 O   0  0  0  0  0  0  0  0  0  0  0  0
    6.3495  -12.9644   20.0768 C   0  0  0  0  0  0  0  0  0  0  0  0
    7.5966  -13.5897   19.4720 C   0  0  1  0  0  0  0  0  0  0  0  0
    8.6770  -12.5297   19.3272 C   0  0  0  0  0  0  0  0  0  0  0  0
    8.0077  -14.6997   20.3982 C   0  0  0  0  0  0  0  0  0  0  0  0
    9.1447  -15.4639   19.7947 C   0  0  2  0  0  0  0  0  0  0  0  0
    8.6402  -16.1968   18.6544 N   0  0  0  0  0  0  0  0  0  0  0  0
    9.6796  -16.4545   20.7704 C   0  0  0  0  0  0  0  0  0  0  0  0
    9.1480  -17.5641   20.9107 O   0  0  0  0  0  0  0  0  0  0  0  0
   16.5556  -18.2429   24.1860 N   0  0  0  0  0  0  0  0  0  0  0  0
   16.5490  -19.4671   23.4621 C   0  0  0  0  0  0  0  0  0  0  0  0
   17.2255  -20.4538   23.9231 N   0  0  0  0  0  0  0  0  0  0  0  0
   15.8220  -19.6273   22.2567 N   0  0  0  0  0  0  0  0  0  0  0  0
   15.0968  -18.5355   21.6388 C   0  0  0  0  0  0  0  0  0  0  0  0
   13.7711  -18.2892   22.2448 C   0  0  0  0  0  0  0  0  0  0  0  0
   12.8712  -17.3043   21.6188 C   0  0  0  0  0  0  0  0  0  0  0  0
   11.5502  -17.1047   22.2793 C   0  0  2  0  0  0  0  0  0  0  0  0
   10.8045  -16.0845   21.5222 N   0  0  0  0  0  0  0  0  0  0  0  0
   11.5613  -16.6473   23.6681 C   0  0  0  0  0  0  0  0  0  0  0  0
   11.3923  -15.4313   24.0207 O   0  0  0  0  0  0  0  0  0  0  0  0
   11.7610  -17.5374   24.7125 O   0  0  0  0  0  0  0  0  0  0  0  0
  1  2  1  0
  2  3  2  0
  4  5  1  0
  4  2  1  0
  6  8  1  0
  6  5  1  0
  6  7  1  1
  8  9  2  0
 11 10  1  1
 11 13  1  0
 12 11  1  0
 14 13  1  1
 14 16  1  0
 15 14  1  0
 15  8  1  0
 16 17  2  0
 18 19  1  0
 19 20  2  0
 19 21  1  0
 21 22  1  0
 23 22  1  0
 23 24  1  0
 25 24  1  6
 25 27  1  0
 26 25  1  0
 26 16  1  0
 27 28  2  0
 27 29  1  0
M  END
$$$$
