QLR.pdb
     RDKit          3D

 29 28  0  0  1  0  0  0  0  0999 V2000
    9.8060  -13.3953   17.2189 N   0  0  0  0  0  0  0  0  0  0  0  0
    8.4961  -13.8534   16.9746 C   0  0  0  0  0  0  0  0  0  0  0  0
    8.1218  -14.2988   15.8841 O   0  0  0  0  0  0  0  0  0  0  0  0
    7.4976  -13.7999   18.0961 C   0  0  0  0  0  0  0  0  0  0  0  0
    8.1810  -13.5091   19.3991 C   0  0  0  0  0  0  0  0  0  0  0  0
    8.2683  -14.7351   20.2449 C   0  0  2  0  0  0  0  0  0  0  0  0
    6.9907  -15.4642   20.2344 N   0  0  0  0  0  0  0  0  0  0  0  0
    8.6042  -14.4005   21.6331 C   0  0  0  0  0  0  0  0  0  0  0  0
    9.7659  -14.2055   22.0556 O   0  0  0  0  0  0  0  0  0  0  0  0
    7.9650  -11.9300   26.0167 C   0  0  0  0  0  0  0  0  0  0  0  0
    6.8801  -12.9953   26.0042 C   0  0  1  0  0  0  0  0  0  0  0  0
    5.6399  -12.4652   26.7062 C   0  0  0  0  0  0  0  0  0  0  0  0
    6.6217  -13.3222   24.5601 C   0  0  0  0  0  0  0  0  0  0  0  0
    7.8264  -13.9874   23.9711 C   0  0  2  0  0  0  0  0  0  0  0  0
    7.5443  -14.2842   22.5838 N   0  0  0  0  0  0  0  0  0  0  0  0
    8.0980  -15.2773   24.6650 C   0  0  0  0  0  0  0  0  0  0  0  0
    7.3100  -16.2285   24.5768 O   0  0  0  0  0  0  0  0  0  0  0  0
   14.6073  -19.8834   22.1055 N   0  0  0  0  0  0  0  0  0  0  0  0
   14.2609  -20.4768   23.3506 C   0  0  0  0  0  0  0  0  0  0  0  0
   14.7394  -21.6326   23.6315 N   0  0  0  0  0  0  0  0  0  0  0  0
   13.4101  -19.8331   24.2829 N   0  0  0  0  0  0  0  0  0  0  0  0
   12.7854  -18.5552   24.0071 C   0  0  0  0  0  0  0  0  0  0  0  0
   11.7652  -18.1687   25.0049 C   0  0  0  0  0  0  0  0  0  0  0  0
   11.0109  -16.9182   24.8079 C   0  0  0  0  0  0  0  0  0  0  0  0
    9.8515  -16.6971   25.7179 C   0  0  2  0  0  0  0  0  0  0  0  0
    9.2762  -15.3740   25.4201 N   0  0  0  0  0  0  0  0  0  0  0  0
   10.1206  -16.7050   27.1551 C   0  0  0  0  0  0  0  0  0  0  0  0
   10.3035  -17.7666   27.8415 O   0  0  0  0  0  0  0  0  0  0  0  0
   10.1960  -15.5221   27.8749 O   0  0  0  0  0  0  0  0  0  0  0  0
  1  2  1  0
  2  3  2  0
  4  5  1  0
  4  2  1  0
  6  8  1  0
  6  5  1  0
  6  7  1  1
  8  9  2  0
 11 10  1  6
 11 13  1  0
 12 11  1  0
 14 13  1  1
 14 16  1  0
 15 14  1  0
 15  8  1  0
 16 17  2  0
 18 19  1  0
 19 20  2  0
 19 21  1  0
 21 22  1  0
 23 22  1  0
 23 24  1  0
 25 24  1  6
 25 27  1  0
 26 25  1  0
 26 16  1  0
 27 28  2  0
 27 29  1  0
M  END
$$$$
