QLR.pdb
     RDKit          3D

 29 28  0  0  1  0  0  0  0  0999 V2000
    8.0148  -18.7995   19.5327 N   0  0  0  0  0  0  0  0  0  0  0  0
    7.6624  -17.5422   19.0032 C   0  0  0  0  0  0  0  0  0  0  0  0
    8.2596  -17.0067   18.0629 O   0  0  0  0  0  0  0  0  0  0  0  0
    6.4995  -16.8096   19.6102 C   0  0  0  0  0  0  0  0  0  0  0  0
    6.7475  -16.5356   21.0637 C   0  0  0  0  0  0  0  0  0  0  0  0
    7.2746  -15.1549   21.2677 C   0  0  2  0  0  0  0  0  0  0  0  0
    8.3914  -14.8854   20.3489 N   0  0  0  0  0  0  0  0  0  0  0  0
    7.7448  -14.9631   22.6439 C   0  0  0  0  0  0  0  0  0  0  0  0
    8.9319  -15.1015   23.0147 O   0  0  0  0  0  0  0  0  0  0  0  0
    5.3791  -11.3267   25.9180 C   0  0  0  0  0  0  0  0  0  0  0  0
    6.4276  -12.1831   25.2257 C   0  0  1  0  0  0  0  0  0  0  0  0
    7.8135  -11.6435   25.5418 C   0  0  0  0  0  0  0  0  0  0  0  0
    6.2328  -13.5851   25.7312 C   0  0  0  0  0  0  0  0  0  0  0  0
    7.1843  -14.5079   25.0357 C   0  0  2  0  0  0  0  0  0  0  0  0
    6.7957  -14.5915   23.6449 N   0  0  0  0  0  0  0  0  0  0  0  0
    7.0954  -15.8775   25.6148 C   0  0  0  0  0  0  0  0  0  0  0  0
    6.0072  -16.4604   25.7128 O   0  0  0  0  0  0  0  0  0  0  0  0
    6.9346  -21.0115   22.1975 N   0  0  0  0  0  0  0  0  0  0  0  0
    6.1838  -21.4344   23.3289 C   0  0  0  0  0  0  0  0  0  0  0  0
    5.4729  -22.4966   23.2290 N   0  0  0  0  0  0  0  0  0  0  0  0
    6.1989  -20.7225   24.5539 N   0  0  0  0  0  0  0  0  0  0  0  0
    7.0831  -21.0783   25.6453 C   0  0  0  0  0  0  0  0  0  0  0  0
    8.2914  -20.2304   25.7271 C   0  0  0  0  0  0  0  0  0  0  0  0
    8.1797  -18.7952   25.4119 C   0  0  0  0  0  0  0  0  0  0  0  0
    8.2664  -17.8576   26.5672 C   0  0  2  0  0  0  0  0  0  0  0  0
    8.2869  -16.4806   26.0441 N   0  0  0  0  0  0  0  0  0  0  0  0
    9.4367  -17.9759   27.4358 C   0  0  0  0  0  0  0  0  0  0  0  0
   10.4087  -17.1471   27.4410 O   0  0  0  0  0  0  0  0  0  0  0  0
    9.5591  -19.0275   28.3314 O   0  0  0  0  0  0  0  0  0  0  0  0
  1  2  1  0
  2  3  2  0
  4  5  1  0
  4  2  1  0
  6  8  1  0
  6  5  1  0
  6  7  1  6
  8  9  2  0
 11 10  1  1
 11 13  1  0
 12 11  1  0
 14 13  1  1
 14 16  1  0
 15 14  1  0
 15  8  1  0
 16 17  2  0
 18 19  1  0
 19 20  2  0
 19 21  1  0
 21 22  1  0
 23 22  1  0
 23 24  1  0
 25 24  1  6
 25 27  1  0
 26 25  1  0
 26 16  1  0
 27 28  2  0
 27 29  1  0
M  END
$$$$
