QLR.pdb
     RDKit          3D

 29 28  0  0  1  0  0  0  0  0999 V2000
    6.1349  -19.4145   21.1451 N   0  0  0  0  0  0  0  0  0  0  0  0
    7.1360  -19.2506   20.1672 C   0  0  0  0  0  0  0  0  0  0  0  0
    7.4282  -20.1197   19.3384 O   0  0  0  0  0  0  0  0  0  0  0  0
    7.8910  -17.9522   20.1253 C   0  0  0  0  0  0  0  0  0  0  0  0
    7.3930  -17.0165   21.1864 C   0  0  0  0  0  0  0  0  0  0  0  0
    8.1168  -15.7129   21.1356 C   0  0  2  0  0  0  0  0  0  0  0  0
    9.3251  -15.8229   20.3037 N   0  0  0  0  0  0  0  0  0  0  0  0
    8.5118  -15.2713   22.4776 C   0  0  0  0  0  0  0  0  0  0  0  0
    9.6443  -15.4491   22.9791 O   0  0  0  0  0  0  0  0  0  0  0  0
    8.2430  -11.9640   26.5572 C   0  0  0  0  0  0  0  0  0  0  0  0
    7.0509  -12.9078   26.5578 C   0  0  1  0  0  0  0  0  0  0  0  0
    5.8570  -12.2176   27.1981 C   0  0  0  0  0  0  0  0  0  0  0  0
    6.7961  -13.2719   25.1220 C   0  0  0  0  0  0  0  0  0  0  0  0
    7.8641  -14.2045   24.6418 C   0  0  2  0  0  0  0  0  0  0  0  0
    7.5497  -14.5884   23.2831 N   0  0  0  0  0  0  0  0  0  0  0  0
    7.8826  -15.4424   25.4704 C   0  0  0  0  0  0  0  0  0  0  0  0
    6.9337  -16.2378   25.4520 O   0  0  0  0  0  0  0  0  0  0  0  0
   12.5364  -21.8159   23.1720 N   0  0  0  0  0  0  0  0  0  0  0  0
   12.0473  -22.2106   24.4478 C   0  0  0  0  0  0  0  0  0  0  0  0
   12.2691  -23.4096   24.8437 N   0  0  0  0  0  0  0  0  0  0  0  0
   11.3285  -21.3245   25.2878 N   0  0  0  0  0  0  0  0  0  0  0  0
   10.9119  -20.0080   24.8486 C   0  0  0  0  0  0  0  0  0  0  0  0
   10.3280  -19.1827   25.9273 C   0  0  0  0  0  0  0  0  0  0  0  0
    9.8646  -17.8196   25.6128 C   0  0  0  0  0  0  0  0  0  0  0  0
    9.3070  -17.0339   26.7499 C   0  0  2  0  0  0  0  0  0  0  0  0
    9.0118  -15.6727   26.2701 N   0  0  0  0  0  0  0  0  0  0  0  0
   10.1576  -16.8700   27.9279 C   0  0  0  0  0  0  0  0  0  0  0  0
   10.7958  -15.7985   28.2043 O   0  0  0  0  0  0  0  0  0  0  0  0
   10.3225  -17.9015   28.8400 O   0  0  0  0  0  0  0  0  0  0  0  0
  1  2  1  0
  2  3  2  0
  4  5  1  0
  4  2  1  0
  6  8  1  0
  6  5  1  0
  6  7  1  6
  8  9  2  0
 11 10  1  6
 11 13  1  0
 12 11  1  0
 14 13  1  1
 14 16  1  0
 15 14  1  0
 15  8  1  0
 16 17  2  0
 18 19  1  0
 19 20  2  0
 19 21  1  0
 21 22  1  0
 23 22  1  0
 23 24  1  0
 25 24  1  6
 25 27  1  0
 26 25  1  0
 26 16  1  0
 27 28  2  0
 27 29  1  0
M  END
$$$$
