QLR.pdb
     RDKit          3D

 29 28  0  0  1  0  0  0  0  0999 V2000
    1.4088  -19.0273   21.8026 N   0  0  0  0  0  0  0  0  0  0  0  0
    1.8539  -20.2177   22.4109 C   0  0  0  0  0  0  0  0  0  0  0  0
    1.2238  -21.2803   22.3718 O   0  0  0  0  0  0  0  0  0  0  0  0
    3.1634  -20.1997   23.1474 C   0  0  0  0  0  0  0  0  0  0  0  0
    3.7529  -18.8206   23.1443 C   0  0  0  0  0  0  0  0  0  0  0  0
    5.1883  -18.8493   23.5501 C   0  0  2  0  0  0  0  0  0  0  0  0
    5.3354  -19.4271   24.8949 N   0  0  0  0  0  0  0  0  0  0  0  0
    5.7666  -17.5011   23.5548 C   0  0  0  0  0  0  0  0  0  0  0  0
    5.7343  -16.7110   22.5849 O   0  0  0  0  0  0  0  0  0  0  0  0
    6.6837  -12.8707   25.3691 C   0  0  0  0  0  0  0  0  0  0  0  0
    7.6247  -13.8069   26.1107 C   0  0  1  0  0  0  0  0  0  0  0  0
    7.8491  -13.2880   27.5222 C   0  0  0  0  0  0  0  0  0  0  0  0
    6.9739  -15.1616   26.0982 C   0  0  0  0  0  0  0  0  0  0  0  0
    7.1368  -15.7861   24.7476 C   0  0  2  0  0  0  0  0  0  0  0  0
    6.4159  -17.0400   24.7408 N   0  0  0  0  0  0  0  0  0  0  0  0
    8.5721  -16.0864   24.4847 C   0  0  0  0  0  0  0  0  0  0  0  0
    9.1782  -16.9391   25.1474 O   0  0  0  0  0  0  0  0  0  0  0  0
    8.7361  -11.9354   17.9284 N   0  0  0  0  0  0  0  0  0  0  0  0
    8.5782  -13.3303   17.7007 C   0  0  0  0  0  0  0  0  0  0  0  0
    8.0197  -13.7130   16.6119 N   0  0  0  0  0  0  0  0  0  0  0  0
    9.0171  -14.3020   18.6338 N   0  0  0  0  0  0  0  0  0  0  0  0
    9.7832  -13.9525   19.8130 C   0  0  0  0  0  0  0  0  0  0  0  0
   10.1850  -15.1212   20.6242 C   0  0  0  0  0  0  0  0  0  0  0  0
   10.9443  -14.9007   21.8678 C   0  0  0  0  0  0  0  0  0  0  0  0
   10.5657  -15.7518   23.0313 C   0  0  2  0  0  0  0  0  0  0  0  0
    9.2097  -15.3692   23.4617 N   0  0  0  0  0  0  0  0  0  0  0  0
   11.4067  -15.6631   24.2242 C   0  0  0  0  0  0  0  0  0  0  0  0
   11.1817  -14.8690   25.1990 O   0  0  0  0  0  0  0  0  0  0  0  0
   12.5303  -16.4631   24.3679 O   0  0  0  0  0  0  0  0  0  0  0  0
  1  2  1  0
  2  3  2  0
  4  5  1  0
  4  2  1  0
  6  8  1  0
  6  5  1  0
  6  7  1  1
  8  9  2  0
 11 10  1  6
 11 13  1  0
 12 11  1  0
 14 13  1  1
 14 16  1  0
 15 14  1  0
 15  8  1  0
 16 17  2  0
 18 19  1  0
 19 20  2  0
 19 21  1  0
 21 22  1  0
 23 22  1  0
 23 24  1  0
 25 24  1  6
 25 27  1  0
 26 25  1  0
 26 16  1  0
 27 28  2  0
 27 29  1  0
M  END
$$$$
