QLR.pdb
     RDKit          3D

 29 28  0  0  1  0  0  0  0  0999 V2000
    9.7873  -19.6483   30.7070 N   0  0  0  0  0  0  0  0  0  0  0  0
   10.9375  -19.8735   29.9250 C   0  0  0  0  0  0  0  0  0  0  0  0
   12.0191  -20.2445   30.3943 O   0  0  0  0  0  0  0  0  0  0  0  0
   10.8499  -19.6524   28.4415 C   0  0  0  0  0  0  0  0  0  0  0  0
    9.4860  -19.1587   28.0601 C   0  0  0  0  0  0  0  0  0  0  0  0
    9.4964  -18.5512   26.6975 C   0  0  2  0  0  0  0  0  0  0  0  0
   10.7906  -17.9060   26.4274 N   0  0  0  0  0  0  0  0  0  0  0  0
    8.4353  -17.5485   26.5542 C   0  0  0  0  0  0  0  0  0  0  0  0
    7.2207  -17.7647   26.7640 O   0  0  0  0  0  0  0  0  0  0  0  0
    5.8926  -13.1629   26.6493 C   0  0  0  0  0  0  0  0  0  0  0  0
    7.1279  -12.9251   25.7954 C   0  0  1  0  0  0  0  0  0  0  0  0
    7.6081  -11.4949   25.9841 C   0  0  0  0  0  0  0  0  0  0  0  0
    8.1513  -13.9330   26.2380 C   0  0  0  0  0  0  0  0  0  0  0  0
    7.7829  -15.2870   25.7165 C   0  0  2  0  0  0  0  0  0  0  0  0
    8.7943  -16.2267   26.1481 N   0  0  0  0  0  0  0  0  0  0  0  0
    7.7724  -15.2839   24.2268 C   0  0  0  0  0  0  0  0  0  0  0  0
    6.7291  -15.0676   23.5957 O   0  0  0  0  0  0  0  0  0  0  0  0
    8.0078  -14.9836   17.0456 N   0  0  0  0  0  0  0  0  0  0  0  0
    7.9507  -13.5627   17.0679 C   0  0  0  0  0  0  0  0  0  0  0  0
    8.2503  -12.9217   15.9987 N   0  0  0  0  0  0  0  0  0  0  0  0
    7.5745  -12.8404   18.2273 N   0  0  0  0  0  0  0  0  0  0  0  0
    8.3527  -12.8773   19.4489 C   0  0  0  0  0  0  0  0  0  0  0  0
    8.1094  -14.0836   20.2682 C   0  0  0  0  0  0  0  0  0  0  0  0
    8.7250  -14.1762   21.6039 C   0  0  0  0  0  0  0  0  0  0  0  0
    9.0311  -15.5495   22.0951 C   0  0  2  0  0  0  0  0  0  0  0  0
    8.9849  -15.5345   23.5676 N   0  0  0  0  0  0  0  0  0  0  0  0
   10.3337  -16.1105   21.7389 C   0  0  0  0  0  0  0  0  0  0  0  0
   11.3480  -16.1094   22.5153 O   0  0  0  0  0  0  0  0  0  0  0  0
   10.5458  -16.6943   20.4991 O   0  0  0  0  0  0  0  0  0  0  0  0
  1  2  1  0
  2  3  2  0
  4  5  1  0
  4  2  1  0
  6  8  1  0
  6  5  1  0
  6  7  1  1
  8  9  2  0
 11 10  1  1
 11 13  1  0
 12 11  1  0
 14 13  1  6
 14 16  1  0
 15 14  1  0
 15  8  1  0
 16 17  2  0
 18 19  1  0
 19 20  2  0
 19 21  1  0
 21 22  1  0
 23 22  1  0
 23 24  1  0
 25 24  1  1
 25 27  1  0
 26 25  1  0
 26 16  1  0
 27 28  2  0
 27 29  1  0
M  END
$$$$
