RAN.pdb
     RDKit          3D

 25 24  0  0  1  0  0  0  0  0999 V2000
   14.1398  -23.0280   -7.1002 N   0  0  0  0  0  0  0  0  0  0  0  0
   13.6070  -21.9393   -7.8445 C   0  0  0  0  0  0  0  0  0  0  0  0
   13.5125  -21.9950   -9.1268 N   0  0  0  0  0  0  0  0  0  0  0  0
   13.1580  -20.7485   -7.1864 N   0  0  0  0  0  0  0  0  0  0  0  0
   12.7287  -20.7624   -5.8009 C   0  0  0  0  0  0  0  0  0  0  0  0
   13.6458  -21.5392   -4.9200 C   0  0  0  0  0  0  0  0  0  0  0  0
   13.3237  -21.5355   -3.4691 C   0  0  0  0  0  0  0  0  0  0  0  0
   12.5194  -22.6882   -2.9686 C   0  0  2  0  0  0  0  0  0  0  0  0
   11.2578  -22.7582   -3.6343 N   0  0  0  0  0  0  0  0  0  0  0  0
   12.4246  -22.7119   -1.4845 C   0  0  0  0  0  0  0  0  0  0  0  0
   11.4157  -22.2005   -0.9146 O   0  0  0  0  0  0  0  0  0  0  0  0
   13.1333  -21.1813   -9.6475 C   0  0  0  0  0  0  0  0  0  0  0  0
   13.3312  -24.6578    1.4004 C   0  0  2  0  0  0  0  0  0  0  0  0
   13.2392  -23.2668    0.8095 N   0  0  0  0  0  0  0  0  0  0  0  0
   13.3980  -23.2765   -0.6248 C   0  0  0  0  0  0  0  0  0  0  0  0
   14.2500  -22.3743    1.4267 O   0  0  0  0  0  0  0  0  0  0  0  0
   15.3732  -22.2555    0.8959 N   0  0  0  0  0  0  0  0  0  0  0  0
   18.3911  -21.2728    4.6195 C   0  0  0  0  0  0  0  0  0  0  0  0
   17.0640  -20.8296    4.3617 O   0  0  0  0  0  0  0  0  0  0  0  0
   16.6525  -19.7561    4.8576 C   0  0  0  0  0  0  0  0  0  0  0  0
   16.1913  -21.6622    3.5004 C   0  0  2  0  0  0  0  0  0  0  0  0
   14.8859  -20.9127    3.3156 N   0  0  0  0  0  0  0  0  0  0  0  0
   13.8992  -21.6749    2.6192 C   0  0  0  0  0  0  0  0  0  0  0  0
   15.1958  -19.6920    2.5382 O   0  0  0  0  0  0  0  0  0  0  0  0
   14.7180  -18.4316    2.8869 O   0  0  0  0  0  0  0  0  0  0  0  0
  1  2  1  0
  2  3  2  0
  4  5  1  0
  4  2  1  0
  6  7  1  0
  6  5  1  0
  7  8  1  0
  8  9  1  6
 10  8  1  0
 10 11  2  0
 13 12  1  6
 13 14  1  0
 14 10  1  0
 15 13  1  0
 16 15  2  0
 18 17  1  0
 19 18  2  0
 20 18  1  0
 21 20  1  1
 21 22  1  0
 22 15  1  0
 23 24  1  0
 23 21  1  0
 25 23  2  0
M  END
$$$$
