RAN.pdb
     RDKit          3D

 25 24  0  0  1  0  0  0  0  0999 V2000
   35.5135  -25.4652  -12.5512 N   0  0  0  0  0  0  0  0  0  0  0  0
   35.1809  -25.7118  -13.9119 C   0  0  0  0  0  0  0  0  0  0  0  0
   35.7236  -26.6802  -14.5629 N   0  0  0  0  0  0  0  0  0  0  0  0
   34.2293  -24.8885  -14.5971 N   0  0  0  0  0  0  0  0  0  0  0  0
   33.0759  -25.4581  -15.2676 C   0  0  0  0  0  0  0  0  0  0  0  0
   32.2464  -24.4328  -15.9612 C   0  0  0  0  0  0  0  0  0  0  0  0
   30.9605  -24.9066  -16.5363 C   0  0  0  0  0  0  0  0  0  0  0  0
   31.0569  -25.7464  -17.7656 C   0  0  2  0  0  0  0  0  0  0  0  0
   31.2907  -24.9379  -18.9195 N   0  0  0  0  0  0  0  0  0  0  0  0
   29.9103  -26.6837  -17.9037 C   0  0  0  0  0  0  0  0  0  0  0  0
   28.8647  -26.3068  -18.5109 O   0  0  0  0  0  0  0  0  0  0  0  0
   35.4423  -26.8565  -15.5462 C   0  0  0  0  0  0  0  0  0  0  0  0
   29.0318  -30.2908  -17.1460 C   0  0  1  0  0  0  0  0  0  0  0  0
   28.7496  -28.8726  -17.5951 N   0  0  0  0  0  0  0  0  0  0  0  0
   29.8866  -28.0061  -17.3978 C   0  0  0  0  0  0  0  0  0  0  0  0
   27.5673  -28.3298  -16.8833 O   0  0  0  0  0  0  0  0  0  0  0  0
   27.7214  -27.7367  -15.7961 N   0  0  0  0  0  0  0  0  0  0  0  0
   22.1059  -25.9319  -17.7628 C   0  0  0  0  0  0  0  0  0  0  0  0
   23.2218  -26.4454  -17.0451 O   0  0  0  0  0  0  0  0  0  0  0  0
   23.2361  -26.4063  -15.7938 C   0  0  0  0  0  0  0  0  0  0  0  0
   24.3539  -27.0215  -17.8088 C   0  0  2  0  0  0  0  0  0  0  0  0
   25.1303  -27.9187  -16.8639 N   0  0  0  0  0  0  0  0  0  0  0  0
   26.2806  -28.5066  -17.4726 C   0  0  0  0  0  0  0  0  0  0  0  0
   24.2068  -28.9913  -16.4316 O   0  0  0  0  0  0  0  0  0  0  0  0
   23.2805  -28.8239  -15.4058 O   0  0  0  0  0  0  0  0  0  0  0  0
  1  2  1  0
  2  3  2  0
  4  5  1  0
  4  2  1  0
  6  7  1  0
  6  5  1  0
  7  8  1  0
  8  9  1  6
 10  8  1  0
 10 11  2  0
 13 12  1  6
 13 14  1  0
 14 10  1  0
 15 13  1  0
 16 15  2  0
 18 17  1  0
 19 18  2  0
 20 18  1  0
 21 20  1  1
 21 22  1  0
 22 15  1  0
 23 24  1  0
 23 21  1  0
 25 23  2  0
M  END
$$$$
