RAN.pdb
     RDKit          3D

 25 24  0  0  1  0  0  0  0  0999 V2000
   25.2225  -21.1326   -8.2537 N   0  0  0  0  0  0  0  0  0  0  0  0
   23.8338  -20.9227   -8.4785 C   0  0  0  0  0  0  0  0  0  0  0  0
   22.9865  -20.9959   -7.5127 N   0  0  0  0  0  0  0  0  0  0  0  0
   23.3384  -20.6217   -9.7888 N   0  0  0  0  0  0  0  0  0  0  0  0
   23.8006  -21.3427  -10.9595 C   0  0  0  0  0  0  0  0  0  0  0  0
   25.1544  -20.9098  -11.4072 C   0  0  0  0  0  0  0  0  0  0  0  0
   25.2525  -20.3892  -12.7957 C   0  0  0  0  0  0  0  0  0  0  0  0
   25.1462  -21.3994  -13.8885 C   0  0  2  0  0  0  0  0  0  0  0  0
   25.3271  -22.7220  -13.3808 N   0  0  0  0  0  0  0  0  0  0  0  0
   26.0145  -21.0715  -15.0506 C   0  0  0  0  0  0  0  0  0  0  0  0
   25.9032  -19.9431  -15.6151 O   0  0  0  0  0  0  0  0  0  0  0  0
   21.9756  -20.8658   -7.7082 C   0  0  0  0  0  0  0  0  0  0  0  0
   28.9752  -22.4699  -16.9351 C   0  0  2  0  0  0  0  0  0  0  0  0
   27.7686  -21.5731  -16.7551 N   0  0  0  0  0  0  0  0  0  0  0  0
   26.9882  -21.9415  -15.5986 C   0  0  0  0  0  0  0  0  0  0  0  0
   26.9191  -21.5981  -17.9704 O   0  0  0  0  0  0  0  0  0  0  0  0
   25.9828  -22.4193  -18.0509 N   0  0  0  0  0  0  0  0  0  0  0  0
   22.7298  -19.2232  -20.5061 C   0  0  0  0  0  0  0  0  0  0  0  0
   24.0153  -19.8001  -20.7030 O   0  0  0  0  0  0  0  0  0  0  0  0
   24.3452  -20.2290  -21.8321 C   0  0  0  0  0  0  0  0  0  0  0  0
   24.9431  -19.8790  -19.5500 C   0  0  2  0  0  0  0  0  0  0  0  0
   26.2514  -20.4546  -20.0573 N   0  0  0  0  0  0  0  0  0  0  0  0
   27.2053  -20.6724  -19.0170 C   0  0  0  0  0  0  0  0  0  0  0  0
   26.8029  -19.4824  -21.0273 O   0  0  0  0  0  0  0  0  0  0  0  0
   26.2360  -19.2584  -22.2791 O   0  0  0  0  0  0  0  0  0  0  0  0
  1  2  1  0
  2  3  2  0
  4  5  1  0
  4  2  1  0
  6  7  1  0
  6  5  1  0
  7  8  1  0
  8  9  1  1
 10  8  1  0
 10 11  2  0
 13 12  1  1
 13 14  1  0
 14 10  1  0
 15 13  1  0
 16 15  2  0
 18 17  1  0
 19 18  2  0
 20 18  1  0
 21 20  1  1
 21 22  1  0
 22 15  1  0
 23 24  1  0
 23 21  1  0
 25 23  2  0
M  END
$$$$
