RAN.pdb
     RDKit          3D

 25 24  0  0  1  0  0  0  0  0999 V2000
   30.1535  -21.1996  -11.7339 N   0  0  0  0  0  0  0  0  0  0  0  0
   29.6377  -21.6188  -10.4764 C   0  0  0  0  0  0  0  0  0  0  0  0
   30.3096  -22.4071   -9.7127 N   0  0  0  0  0  0  0  0  0  0  0  0
   28.3537  -21.1731  -10.0229 N   0  0  0  0  0  0  0  0  0  0  0  0
   27.1300  -21.5832  -10.6853 C   0  0  0  0  0  0  0  0  0  0  0  0
   26.9920  -21.0062  -12.0522 C   0  0  0  0  0  0  0  0  0  0  0  0
   25.7574  -20.2210  -12.3129 C   0  0  0  0  0  0  0  0  0  0  0  0
   24.5313  -21.0071  -12.6365 C   0  0  2  0  0  0  0  0  0  0  0  0
   24.8657  -22.3444  -13.0101 N   0  0  0  0  0  0  0  0  0  0  0  0
   23.6495  -20.3080  -13.6090 C   0  0  0  0  0  0  0  0  0  0  0  0
   23.2600  -19.1281  -13.3633 O   0  0  0  0  0  0  0  0  0  0  0  0
   29.9276  -22.6674   -8.7834 C   0  0  0  0  0  0  0  0  0  0  0  0
   22.4290  -20.7200  -17.1531 C   0  0  2  0  0  0  0  0  0  0  0  0
   22.4242  -20.0950  -15.7740 N   0  0  0  0  0  0  0  0  0  0  0  0
   23.1927  -20.8668  -14.8274 C   0  0  0  0  0  0  0  0  0  0  0  0
   21.0339  -19.9297  -15.2854 O   0  0  0  0  0  0  0  0  0  0  0  0
   20.6741  -20.5125  -14.2421 N   0  0  0  0  0  0  0  0  0  0  0  0
   16.2899  -18.6596  -14.8606 C   0  0  0  0  0  0  0  0  0  0  0  0
   17.1057  -17.5237  -14.5992 O   0  0  0  0  0  0  0  0  0  0  0  0
   16.6164  -16.5126  -14.0461 C   0  0  0  0  0  0  0  0  0  0  0  0
   18.5335  -17.5681  -14.9941 C   0  0  2  0  0  0  0  0  0  0  0  0
   18.7949  -18.9323  -15.6031 N   0  0  0  0  0  0  0  0  0  0  0  0
   20.1462  -19.1010  -16.0334 C   0  0  0  0  0  0  0  0  0  0  0  0
   17.8930  -19.0640  -16.7691 O   0  0  0  0  0  0  0  0  0  0  0  0
   16.5575  -19.4403  -16.6535 O   0  0  0  0  0  0  0  0  0  0  0  0
  1  2  1  0
  2  3  2  0
  4  5  1  0
  4  2  1  0
  6  7  1  0
  6  5  1  0
  7  8  1  0
  8  9  1  6
 10  8  1  0
 10 11  2  0
 13 12  1  6
 13 14  1  0
 14 10  1  0
 15 13  1  0
 16 15  2  0
 18 17  1  0
 19 18  2  0
 20 18  1  0
 21 20  1  1
 21 22  1  0
 22 15  1  0
 23 24  1  0
 23 21  1  0
 25 23  2  0
M  END
$$$$
