RAN.pdb
     RDKit          3D

 25 24  0  0  1  0  0  0  0  0999 V2000
   21.8820  -27.3799  -14.2932 N   0  0  0  0  0  0  0  0  0  0  0  0
   20.7426  -26.5957  -14.6250 C   0  0  0  0  0  0  0  0  0  0  0  0
   19.5707  -26.9142  -14.1992 N   0  0  0  0  0  0  0  0  0  0  0  0
   20.8679  -25.4259  -15.4428 N   0  0  0  0  0  0  0  0  0  0  0  0
   22.1644  -24.8631  -15.7694 C   0  0  0  0  0  0  0  0  0  0  0  0
   22.0671  -23.6471  -16.6252 C   0  0  0  0  0  0  0  0  0  0  0  0
   23.3539  -23.0535  -17.0729 C   0  0  0  0  0  0  0  0  0  0  0  0
   24.4679  -23.0673  -16.0805 C   0  0  2  0  0  0  0  0  0  0  0  0
   24.0730  -22.4384  -14.8606 N   0  0  0  0  0  0  0  0  0  0  0  0
   25.7398  -22.5456  -16.6481 C   0  0  0  0  0  0  0  0  0  0  0  0
   26.3531  -23.2179  -17.5290 O   0  0  0  0  0  0  0  0  0  0  0  0
   18.7554  -26.3261  -14.4573 C   0  0  0  0  0  0  0  0  0  0  0  0
   27.8484  -19.4097  -16.5941 C   0  0  2  0  0  0  0  0  0  0  0  0
   27.5812  -20.8743  -16.8704 N   0  0  0  0  0  0  0  0  0  0  0  0
   26.3443  -21.3202  -16.2759 C   0  0  0  0  0  0  0  0  0  0  0  0
   28.7080  -21.7067  -16.3841 O   0  0  0  0  0  0  0  0  0  0  0  0
   28.5795  -22.3627  -15.3303 N   0  0  0  0  0  0  0  0  0  0  0  0
   31.1880  -26.0121  -15.6023 C   0  0  0  0  0  0  0  0  0  0  0  0
   30.8776  -25.2970  -16.7925 O   0  0  0  0  0  0  0  0  0  0  0  0
   31.3842  -25.6435  -17.8838 C   0  0  0  0  0  0  0  0  0  0  0  0
   29.9493  -24.1447  -16.7077 C   0  0  1  0  0  0  0  0  0  0  0  0
   30.6924  -22.9237  -17.2147 N   0  0  0  0  0  0  0  0  0  0  0  0
   29.9133  -21.7288  -17.1464 C   0  0  0  0  0  0  0  0  0  0  0  0
   31.0498  -23.1915  -18.6257 O   0  0  0  0  0  0  0  0  0  0  0  0
   32.3602  -23.3994  -19.0476 O   0  0  0  0  0  0  0  0  0  0  0  0
  1  2  1  0
  2  3  2  0
  4  5  1  0
  4  2  1  0
  6  7  1  0
  6  5  1  0
  7  8  1  0
  8  9  1  1
 10  8  1  0
 10 11  2  0
 13 12  1  6
 13 14  1  0
 14 10  1  0
 15 13  1  0
 16 15  2  0
 18 17  1  0
 19 18  2  0
 20 18  1  0
 21 20  1  1
 21 22  1  0
 22 15  1  0
 23 24  1  0
 23 21  1  0
 25 23  2  0
M  END
$$$$
