EHC.pdb
     RDKit          3D

 26 26  0  0  1  0  0  0  0  0999 V2000
   11.7633  -17.2649   16.0274 N   0  0  0  0  0  0  0  0  0  0  0  0
   11.0459  -18.0116   17.0679 C   0  0  1  0  0  0  0  0  0  0  0  0
   11.6571  -19.3657   17.2655 C   0  0  0  0  0  0  0  0  0  0  0  0
   12.9042  -19.3856   18.0738 C   0  0  0  0  0  0  0  0  0  0  0  0
   13.5532  -20.6786   18.2392 C   0  0  0  0  0  0  0  0  0  0  0  0
   13.1207  -21.7118   17.6840 O   0  0  0  0  0  0  0  0  0  0  0  0
   11.1058  -17.1891   18.3073 C   0  0  0  0  0  0  0  0  0  0  0  0
   12.1032  -16.4305   18.4796 O   0  0  0  0  0  0  0  0  0  0  0  0
   14.6829  -20.7833   19.0313 O   0  0  0  0  0  0  0  0  0  0  0  0
   10.1137  -17.1948   19.3206 N   0  0  0  0  0  0  0  0  0  0  0  0
   10.1455  -16.2798   20.4544 C   0  0  1  0  0  0  0  0  0  0  0  0
    8.8111  -15.7486   20.8455 C   0  0  0  0  0  0  0  0  0  0  0  0
    8.2646  -14.6856   20.0135 C   0  0  0  0  0  0  0  0  0  0  0  0
    8.7902  -13.9543   18.9765 C   0  0  0  0  0  0  0  0  0  0  0  0
    7.8833  -13.0562   18.5155 N   0  0  0  0  0  0  0  0  0  0  0  0
    6.8027  -13.2402   19.2732 C   0  0  0  0  0  0  0  0  0  0  0  0
    6.9998  -14.1968   20.1667 N   0  0  0  0  0  0  0  0  0  0  0  0
   10.6565  -17.0416   21.6265 C   0  0  0  0  0  0  0  0  0  0  0  0
   10.4432  -18.2658   21.6937 O   0  0  0  0  0  0  0  0  0  0  0  0
   11.3802  -16.4150   22.6709 N   0  0  0  0  0  0  0  0  0  0  0  0
   11.8586  -17.2158   23.7685 C   0  0  1  0  0  0  0  0  0  0  0  0
   12.9282  -16.4191   24.4912 C   0  0  0  0  0  0  0  0  0  0  0  0
   14.2663  -16.0639   23.3343 S   0  0  0  0  0  0  0  0  0  0  0  0
   10.7542  -17.5468   24.7237 C   0  0  0  0  0  0  0  0  0  0  0  0
   10.9733  -18.3792   25.8094 O   0  0  0  0  0  0  0  0  0  0  0  0
    9.6126  -17.0639   24.5396 O   0  0  0  0  0  0  0  0  0  0  0  0
  2  1  1  6
  2  7  1  0
  3  2  1  0
  4  3  1  0
  5  4  1  0
  6  5  2  0
  7 10  1  0
  7  8  2  0
  9  5  1  0
 10 11  1  0
 11 12  1  1
 12 13  1  0
 13 17  1  0
 14 13  2  0
 14 15  1  0
 15 16  1  0
 17 16  2  0
 18 11  1  0
 18 19  2  0
 20 18  1  0
 21 20  1  0
 21 22  1  1
 23 22  1  0
 24 21  1  0
 25 24  1  0
 26 24  2  0
M  END
$$$$
