EHC.pdb
     RDKit          3D

 26 26  0  0  1  0  0  0  0  0999 V2000
   11.6298  -18.8577   21.4673 N   0  0  0  0  0  0  0  0  0  0  0  0
   12.1802  -17.5138   21.2531 C   0  0  1  0  0  0  0  0  0  0  0  0
   12.2102  -17.1799   19.7923 C   0  0  0  0  0  0  0  0  0  0  0  0
   12.3360  -18.3455   18.8788 C   0  0  0  0  0  0  0  0  0  0  0  0
   12.3849  -18.0540   17.4530 C   0  0  0  0  0  0  0  0  0  0  0  0
   11.5516  -18.5294   16.6515 O   0  0  0  0  0  0  0  0  0  0  0  0
   11.3228  -16.5696   22.0210 C   0  0  0  0  0  0  0  0  0  0  0  0
   11.5385  -15.3287   21.9043 O   0  0  0  0  0  0  0  0  0  0  0  0
   13.3771  -17.2281   16.9549 O   0  0  0  0  0  0  0  0  0  0  0  0
   10.2694  -16.9656   22.8838 N   0  0  0  0  0  0  0  0  0  0  0  0
    9.4517  -16.0059   23.6147 C   0  0  1  0  0  0  0  0  0  0  0  0
    8.0448  -16.4429   23.8280 C   0  0  0  0  0  0  0  0  0  0  0  0
    7.1646  -16.3915   22.6690 C   0  0  0  0  0  0  0  0  0  0  0  0
    7.3461  -15.9419   21.3839 C   0  0  0  0  0  0  0  0  0  0  0  0
    6.2110  -16.0984   20.6568 N   0  0  0  0  0  0  0  0  0  0  0  0
    5.3358  -16.6443   21.5003 C   0  0  0  0  0  0  0  0  0  0  0  0
    5.8722  -16.8286   22.6964 N   0  0  0  0  0  0  0  0  0  0  0  0
   10.0538  -15.8470   24.9665 C   0  0  0  0  0  0  0  0  0  0  0  0
   10.9448  -16.6362   25.3300 O   0  0  0  0  0  0  0  0  0  0  0  0
    9.6433  -14.8227   25.8550 N   0  0  0  0  0  0  0  0  0  0  0  0
   10.2441  -14.7484   27.1621 C   0  0  1  0  0  0  0  0  0  0  0  0
    9.6799  -13.5266   27.8622 C   0  0  0  0  0  0  0  0  0  0  0  0
   10.5356  -13.3148   29.4364 S   0  0  0  0  0  0  0  0  0  0  0  0
    9.9403  -15.9704   27.9719 C   0  0  0  0  0  0  0  0  0  0  0  0
    8.7341  -16.6381   27.8339 O   0  0  0  0  0  0  0  0  0  0  0  0
   10.7897  -16.3976   28.7882 O   0  0  0  0  0  0  0  0  0  0  0  0
  2  1  1  6
  2  7  1  0
  3  2  1  0
  4  3  1  0
  5  4  1  0
  6  5  2  0
  7 10  1  0
  7  8  2  0
  9  5  1  0
 10 11  1  0
 11 12  1  1
 12 13  1  0
 13 17  1  0
 14 13  2  0
 14 15  1  0
 15 16  1  0
 17 16  2  0
 18 11  1  0
 18 19  2  0
 20 18  1  0
 21 20  1  0
 21 22  1  1
 23 22  1  0
 24 21  1  0
 25 24  1  0
 26 24  2  0
M  END
$$$$
