EHC.pdb
     RDKit          3D

 26 26  0  0  1  0  0  0  0  0999 V2000
   10.3683  -18.6745   21.4664 N   0  0  0  0  0  0  0  0  0  0  0  0
   10.5557  -17.3580   20.8448 C   0  0  1  0  0  0  0  0  0  0  0  0
    9.7134  -17.2292   19.6117 C   0  0  0  0  0  0  0  0  0  0  0  0
   10.4697  -17.0734   18.3418 C   0  0  0  0  0  0  0  0  0  0  0  0
   10.8054  -18.2977   17.6286 C   0  0  0  0  0  0  0  0  0  0  0  0
    9.9549  -19.1852   17.4010 O   0  0  0  0  0  0  0  0  0  0  0  0
   10.1962  -16.3416   21.8714 C   0  0  0  0  0  0  0  0  0  0  0  0
   10.8097  -15.2355   21.8651 O   0  0  0  0  0  0  0  0  0  0  0  0
   12.0998  -18.4997   17.1832 O   0  0  0  0  0  0  0  0  0  0  0  0
    9.2039  -16.5262   22.8675 N   0  0  0  0  0  0  0  0  0  0  0  0
    8.9267  -15.5281   23.8925 C   0  0  1  0  0  0  0  0  0  0  0  0
    7.5292  -15.5536   24.4047 C   0  0  0  0  0  0  0  0  0  0  0  0
    7.1219  -14.4326   25.2403 C   0  0  0  0  0  0  0  0  0  0  0  0
    7.7780  -13.3023   25.6628 C   0  0  0  0  0  0  0  0  0  0  0  0
    6.9705  -12.5445   26.4473 N   0  0  0  0  0  0  0  0  0  0  0  0
    5.8199  -13.2142   26.5032 C   0  0  0  0  0  0  0  0  0  0  0  0
    5.8809  -14.3336   25.7992 N   0  0  0  0  0  0  0  0  0  0  0  0
    9.8074  -15.8273   25.0544 C   0  0  0  0  0  0  0  0  0  0  0  0
   10.4999  -16.8612   25.0399 O   0  0  0  0  0  0  0  0  0  0  0  0
    9.8825  -14.9696   26.1795 N   0  0  0  0  0  0  0  0  0  0  0  0
   10.7068  -15.3523   27.2970 C   0  0  1  0  0  0  0  0  0  0  0  0
   10.6320  -14.2430   28.3290 C   0  0  0  0  0  0  0  0  0  0  0  0
   10.8582  -12.6596   27.4943 S   0  0  0  0  0  0  0  0  0  0  0  0
   10.2340  -16.6341   27.9093 C   0  0  0  0  0  0  0  0  0  0  0  0
   10.9293  -17.2287   28.9500 O   0  0  0  0  0  0  0  0  0  0  0  0
    9.1928  -17.1794   27.4746 O   0  0  0  0  0  0  0  0  0  0  0  0
  2  1  1  1
  2  7  1  0
  3  2  1  0
  4  3  1  0
  5  4  1  0
  6  5  2  0
  7 10  1  0
  7  8  2  0
  9  5  1  0
 10 11  1  0
 11 12  1  1
 12 13  1  0
 13 17  1  0
 14 13  2  0
 14 15  1  0
 15 16  1  0
 17 16  2  0
 18 11  1  0
 18 19  2  0
 20 18  1  0
 21 20  1  0
 21 22  1  1
 23 22  1  0
 24 21  1  0
 25 24  1  0
 26 24  2  0
M  END
$$$$
