EHC.pdb
     RDKit          3D

 26 26  0  0  1  0  0  0  0  0999 V2000
   11.4881  -18.2031   16.8735 N   0  0  0  0  0  0  0  0  0  0  0  0
   10.3599  -18.6168   17.7165 C   0  0  1  0  0  0  0  0  0  0  0  0
   10.4892  -20.0585   18.1053 C   0  0  0  0  0  0  0  0  0  0  0  0
   11.7196  -20.4014   18.8654 C   0  0  0  0  0  0  0  0  0  0  0  0
   11.8440  -21.7804   19.3164 C   0  0  0  0  0  0  0  0  0  0  0  0
   12.8248  -22.1716   19.9855 O   0  0  0  0  0  0  0  0  0  0  0  0
   10.3577  -17.7195   18.9044 C   0  0  0  0  0  0  0  0  0  0  0  0
   11.4162  -17.0853   19.1826 O   0  0  0  0  0  0  0  0  0  0  0  0
   10.8558  -22.6968   19.0032 O   0  0  0  0  0  0  0  0  0  0  0  0
    9.2415  -17.5222   19.7566 N   0  0  0  0  0  0  0  0  0  0  0  0
    9.2522  -16.5625   20.8532 C   0  0  1  0  0  0  0  0  0  0  0  0
    7.9967  -15.7734   20.9837 C   0  0  0  0  0  0  0  0  0  0  0  0
    7.8036  -14.6945   20.0249 C   0  0  0  0  0  0  0  0  0  0  0  0
    7.0765  -14.6032   18.8632 C   0  0  0  0  0  0  0  0  0  0  0  0
    7.2179  -13.3745   18.3047 N   0  0  0  0  0  0  0  0  0  0  0  0
    8.0330  -12.7155   19.1275 C   0  0  0  0  0  0  0  0  0  0  0  0
    8.3948  -13.4712   20.1523 N   0  0  0  0  0  0  0  0  0  0  0  0
    9.3993  -17.3336   22.1177 C   0  0  0  0  0  0  0  0  0  0  0  0
    8.8257  -18.4326   22.2279 O   0  0  0  0  0  0  0  0  0  0  0  0
   10.1739  -16.8545   23.2028 N   0  0  0  0  0  0  0  0  0  0  0  0
   10.6094  -17.7825   24.2147 C   0  0  1  0  0  0  0  0  0  0  0  0
   11.5682  -18.7612   23.5635 C   0  0  0  0  0  0  0  0  0  0  0  0
   12.2013  -19.8804   24.8292 S   0  0  0  0  0  0  0  0  0  0  0  0
   11.3046  -17.0777   25.3379 C   0  0  0  0  0  0  0  0  0  0  0  0
   11.2448  -17.5646   26.6337 O   0  0  0  0  0  0  0  0  0  0  0  0
   11.9514  -16.0302   25.1039 O   0  0  0  0  0  0  0  0  0  0  0  0
  2  1  1  6
  2  7  1  0
  3  2  1  0
  4  3  1  0
  5  4  1  0
  6  5  2  0
  7 10  1  0
  7  8  2  0
  9  5  1  0
 10 11  1  0
 11 12  1  1
 12 13  1  0
 13 17  1  0
 14 13  2  0
 14 15  1  0
 15 16  1  0
 17 16  2  0
 18 11  1  0
 18 19  2  0
 20 18  1  0
 21 20  1  0
 21 22  1  6
 23 22  1  0
 24 21  1  0
 25 24  1  0
 26 24  2  0
M  END
$$$$
