IEQ.pdb
     RDKit          3D

 27 26  0  0  1  0  0  0  0  0999 V2000
    7.7044  -11.0766   26.8424 C   0  0  0  0  0  0  0  0  0  0  0  0
    7.5611  -12.5604   26.9872 C   0  0  0  0  0  0  0  0  0  0  0  0
    6.7994  -13.1960   25.8501 C   0  0  2  0  0  0  0  0  0  0  0  0
    5.4227  -12.5480   25.7816 C   0  0  0  0  0  0  0  0  0  0  0  0
    6.7518  -14.6872   25.9332 C   0  0  2  0  0  0  0  0  0  0  0  0
    7.4386  -15.0443   27.1867 N   0  0  0  0  0  0  0  0  0  0  0  0
    7.4268  -15.4115   24.8666 C   0  0  0  0  0  0  0  0  0  0  0  0
    6.8015  -16.2458   24.1235 O   0  0  0  0  0  0  0  0  0  0  0  0
    8.8214  -15.2927   24.5182 N   0  0  0  0  0  0  0  0  0  0  0  0
    9.6575  -16.4331   24.2904 C   0  0  1  0  0  0  0  0  0  0  0  0
   10.7323  -16.1091   23.3175 C   0  0  0  0  0  0  0  0  0  0  0  0
   11.7010  -17.1605   22.9556 C   0  0  0  0  0  0  0  0  0  0  0  0
   12.7306  -16.8115   21.9611 C   0  0  0  0  0  0  0  0  0  0  0  0
   12.7299  -17.3102   20.7999 O   0  0  0  0  0  0  0  0  0  0  0  0
   10.2479  -16.9903   25.5121 C   0  0  0  0  0  0  0  0  0  0  0  0
   10.8685  -16.2908   26.3425 O   0  0  0  0  0  0  0  0  0  0  0  0
   13.7394  -15.9173   22.2731 O   0  0  0  0  0  0  0  0  0  0  0  0
    7.0655  -21.2668   27.6482 N   0  0  0  0  0  0  0  0  0  0  0  0
    8.1148  -21.6233   28.5286 C   0  0  0  0  0  0  0  0  0  0  0  0
    7.8511  -22.2943   29.5469 O   0  0  0  0  0  0  0  0  0  0  0  0
    9.4994  -21.1606   28.1706 C   0  0  0  0  0  0  0  0  0  0  0  0
    9.4253  -20.3169   26.9302 C   0  0  0  0  0  0  0  0  0  0  0  0
   10.1180  -18.9851   27.0660 C   0  0  2  0  0  0  0  0  0  0  0  0
   10.1002  -18.3809   25.7460 N   0  0  0  0  0  0  0  0  0  0  0  0
   11.5321  -19.1061   27.4841 C   0  0  0  0  0  0  0  0  0  0  0  0
   11.8352  -19.1192   28.7017 O   0  0  0  0  0  0  0  0  0  0  0  0
   12.5695  -19.2091   26.5726 O   0  0  0  0  0  0  0  0  0  0  0  0
  2  1  1  0
  2  3  1  0
  3  4  1  1
  5  3  1  0
  5  6  1  1
  7  8  2  0
  7  5  1  0
  9  7  1  0
 10  9  1  0
 10 11  1  6
 12 11  1  0
 12 13  1  0
 13 14  2  0
 15 10  1  0
 16 15  2  0
 17 13  1  0
 19 18  1  0
 20 19  2  0
 21 19  1  0
 22 21  1  0
 23 22  1  6
 23 24  1  0
 24 15  1  0
 25 23  1  0
 26 25  2  0
 27 25  1  0
M  END
$$$$
