IEQ.pdb
     RDKit          3D

 27 26  0  0  1  0  0  0  0  0999 V2000
    6.2925  -11.5170   26.8485 C   0  0  0  0  0  0  0  0  0  0  0  0
    5.9130  -12.7385   26.0693 C   0  0  0  0  0  0  0  0  0  0  0  0
    7.0848  -13.6437   25.7786 C   0  0  2  0  0  0  0  0  0  0  0  0
    8.1752  -12.8098   25.1189 C   0  0  0  0  0  0  0  0  0  0  0  0
    6.7099  -14.8601   24.9957 C   0  0  2  0  0  0  0  0  0  0  0  0
    5.7793  -15.6192   25.8490 N   0  0  0  0  0  0  0  0  0  0  0  0
    7.7976  -15.7654   24.6560 C   0  0  0  0  0  0  0  0  0  0  0  0
    8.2330  -16.6326   25.4912 O   0  0  0  0  0  0  0  0  0  0  0  0
    8.4966  -15.8075   23.3951 N   0  0  0  0  0  0  0  0  0  0  0  0
    9.5587  -16.7325   23.1345 C   0  0  1  0  0  0  0  0  0  0  0  0
   10.1280  -16.5093   21.7807 C   0  0  0  0  0  0  0  0  0  0  0  0
   11.2552  -17.3511   21.3384 C   0  0  0  0  0  0  0  0  0  0  0  0
   11.6894  -17.2099   19.9375 C   0  0  0  0  0  0  0  0  0  0  0  0
   11.2788  -17.9900   19.0320 O   0  0  0  0  0  0  0  0  0  0  0  0
   10.6322  -16.7012   24.1337 C   0  0  0  0  0  0  0  0  0  0  0  0
   11.0946  -15.6349   24.5954 O   0  0  0  0  0  0  0  0  0  0  0  0
   12.5691  -16.2076   19.5685 O   0  0  0  0  0  0  0  0  0  0  0  0
    9.5601  -19.5339   28.7423 N   0  0  0  0  0  0  0  0  0  0  0  0
   10.9018  -19.3607   29.1584 C   0  0  0  0  0  0  0  0  0  0  0  0
   11.2231  -19.6816   30.3206 O   0  0  0  0  0  0  0  0  0  0  0  0
   11.8648  -18.7917   28.1544 C   0  0  0  0  0  0  0  0  0  0  0  0
   11.1190  -18.4751   26.8897 C   0  0  0  0  0  0  0  0  0  0  0  0
   12.0162  -18.0791   25.7450 C   0  0  2  0  0  0  0  0  0  0  0  0
   11.1562  -17.9393   24.5837 N   0  0  0  0  0  0  0  0  0  0  0  0
   13.0366  -19.1020   25.4262 C   0  0  0  0  0  0  0  0  0  0  0  0
   12.7896  -20.0068   24.5927 O   0  0  0  0  0  0  0  0  0  0  0  0
   14.2883  -19.1117   26.0184 O   0  0  0  0  0  0  0  0  0  0  0  0
  2  1  1  0
  2  3  1  0
  3  4  1  6
  5  3  1  0
  5  6  1  1
  7  8  2  0
  7  5  1  0
  9  7  1  0
 10  9  1  0
 10 11  1  6
 12 11  1  0
 12 13  1  0
 13 14  2  0
 15 10  1  0
 16 15  2  0
 17 13  1  0
 19 18  1  0
 20 19  2  0
 21 19  1  0
 22 21  1  0
 23 22  1  1
 23 24  1  0
 24 15  1  0
 25 23  1  0
 26 25  2  0
 27 25  1  0
M  END
$$$$
