IEQ.pdb
     RDKit          3D

 27 26  0  0  1  0  0  0  0  0999 V2000
    5.7462  -11.3409   26.4951 C   0  0  0  0  0  0  0  0  0  0  0  0
    5.5234  -12.6079   25.7280 C   0  0  0  0  0  0  0  0  0  0  0  0
    6.7575  -13.4717   25.6390 C   0  0  2  0  0  0  0  0  0  0  0  0
    7.8830  -12.6305   25.0513 C   0  0  0  0  0  0  0  0  0  0  0  0
    6.5281  -14.7539   24.9068 C   0  0  2  0  0  0  0  0  0  0  0  0
    5.4635  -15.4559   25.6446 N   0  0  0  0  0  0  0  0  0  0  0  0
    7.6601  -15.6659   24.8389 C   0  0  0  0  0  0  0  0  0  0  0  0
    7.9828  -16.4082   25.8310 O   0  0  0  0  0  0  0  0  0  0  0  0
    8.5277  -15.8495   23.7014 N   0  0  0  0  0  0  0  0  0  0  0  0
    9.6278  -16.7667   23.7128 C   0  0  1  0  0  0  0  0  0  0  0  0
   10.4473  -16.6177   22.4827 C   0  0  0  0  0  0  0  0  0  0  0  0
   11.6536  -17.4519   22.3296 C   0  0  0  0  0  0  0  0  0  0  0  0
   12.4346  -17.2823   21.0918 C   0  0  0  0  0  0  0  0  0  0  0  0
   13.6592  -17.5885   21.0307 O   0  0  0  0  0  0  0  0  0  0  0  0
   10.4865  -16.6497   24.8962 C   0  0  0  0  0  0  0  0  0  0  0  0
   10.9742  -15.5612   25.2723 O   0  0  0  0  0  0  0  0  0  0  0  0
   11.8432  -16.7773   19.9473 O   0  0  0  0  0  0  0  0  0  0  0  0
   12.7201  -16.5326   30.3645 N   0  0  0  0  0  0  0  0  0  0  0  0
   11.4040  -16.5729   29.8456 C   0  0  0  0  0  0  0  0  0  0  0  0
   10.7340  -15.5209   29.8077 O   0  0  0  0  0  0  0  0  0  0  0  0
   10.8940  -17.9036   29.3677 C   0  0  0  0  0  0  0  0  0  0  0  0
   10.3745  -17.7512   27.9667 C   0  0  0  0  0  0  0  0  0  0  0  0
   11.4493  -17.8390   26.9135 C   0  0  2  0  0  0  0  0  0  0  0  0
   10.7656  -17.8286   25.6327 N   0  0  0  0  0  0  0  0  0  0  0  0
   12.2371  -19.0891   26.9905 C   0  0  0  0  0  0  0  0  0  0  0  0
   13.2140  -19.1766   27.7731 O   0  0  0  0  0  0  0  0  0  0  0  0
   11.9419  -20.2011   26.2199 O   0  0  0  0  0  0  0  0  0  0  0  0
  2  1  1  0
  2  3  1  0
  3  4  1  6
  5  3  1  0
  5  6  1  1
  7  8  2  0
  7  5  1  0
  9  7  1  0
 10  9  1  0
 10 11  1  6
 12 11  1  0
 12 13  1  0
 13 14  2  0
 15 10  1  0
 16 15  2  0
 17 13  1  0
 19 18  1  0
 20 19  2  0
 21 19  1  0
 22 21  1  0
 23 22  1  1
 23 24  1  0
 24 15  1  0
 25 23  1  0
 26 25  2  0
 27 25  1  0
M  END
$$$$
