IEQ.pdb
     RDKit          3D

 27 26  0  0  1  0  0  0  0  0999 V2000
    7.1126  -11.8036   19.2450 C   0  0  0  0  0  0  0  0  0  0  0  0
    7.5454  -13.2360   19.1814 C   0  0  0  0  0  0  0  0  0  0  0  0
    7.8028  -13.8383   20.5408 C   0  0  2  0  0  0  0  0  0  0  0  0
    8.7289  -12.9021   21.3060 C   0  0  0  0  0  0  0  0  0  0  0  0
    8.2995  -15.2461   20.4774 C   0  0  2  0  0  0  0  0  0  0  0  0
    7.2494  -16.0146   19.7867 N   0  0  0  0  0  0  0  0  0  0  0  0
    8.5270  -15.9049   21.7549 C   0  0  0  0  0  0  0  0  0  0  0  0
    7.6168  -15.9558   22.6538 O   0  0  0  0  0  0  0  0  0  0  0  0
    9.7469  -16.5586   22.1609 N   0  0  0  0  0  0  0  0  0  0  0  0
    9.9487  -17.0550   23.4892 C   0  0  1  0  0  0  0  0  0  0  0  0
   11.0383  -18.0645   23.5117 C   0  0  0  0  0  0  0  0  0  0  0  0
   11.0261  -19.1427   22.5057 C   0  0  0  0  0  0  0  0  0  0  0  0
   12.2177  -20.0063   22.4326 C   0  0  0  0  0  0  0  0  0  0  0  0
   13.3294  -19.5720   22.0172 O   0  0  0  0  0  0  0  0  0  0  0  0
   10.2240  -16.0082   24.4791 C   0  0  0  0  0  0  0  0  0  0  0  0
   11.1835  -15.2130   24.3727 O   0  0  0  0  0  0  0  0  0  0  0  0
   12.1534  -21.3328   22.8211 O   0  0  0  0  0  0  0  0  0  0  0  0
    6.3697  -12.5444   27.1844 N   0  0  0  0  0  0  0  0  0  0  0  0
    6.5934  -12.9475   25.8463 C   0  0  0  0  0  0  0  0  0  0  0  0
    5.8279  -12.5342   24.9518 O   0  0  0  0  0  0  0  0  0  0  0  0
    7.7580  -13.8625   25.5896 C   0  0  0  0  0  0  0  0  0  0  0  0
    8.4523  -14.1437   26.8915 C   0  0  0  0  0  0  0  0  0  0  0  0
    9.6278  -15.0776   26.7571 C   0  0  2  0  0  0  0  0  0  0  0  0
    9.3575  -15.9073   25.5968 N   0  0  0  0  0  0  0  0  0  0  0  0
    9.7920  -15.9757   27.9215 C   0  0  0  0  0  0  0  0  0  0  0  0
   10.0754  -15.5064   29.0501 O   0  0  0  0  0  0  0  0  0  0  0  0
    9.6438  -17.3492   27.8262 O   0  0  0  0  0  0  0  0  0  0  0  0
  2  1  1  0
  2  3  1  0
  3  4  1  6
  5  3  1  0
  5  6  1  6
  7  8  2  0
  7  5  1  0
  9  7  1  0
 10  9  1  0
 10 11  1  6
 12 11  1  0
 12 13  1  0
 13 14  2  0
 15 10  1  0
 16 15  2  0
 17 13  1  0
 19 18  1  0
 20 19  2  0
 21 19  1  0
 22 21  1  0
 23 22  1  1
 23 24  1  0
 24 15  1  0
 25 23  1  0
 26 25  2  0
 27 25  1  0
M  END
$$$$
