IEQ.pdb
     RDKit          3D

 27 26  0  0  1  0  0  0  0  0999 V2000
    6.2384  -10.9740   26.9392 C   0  0  0  0  0  0  0  0  0  0  0  0
    5.7653  -12.1450   26.1341 C   0  0  0  0  0  0  0  0  0  0  0  0
    6.8778  -13.0910   25.7540 C   0  0  2  0  0  0  0  0  0  0  0  0
    7.9348  -12.2989   24.9957 C   0  0  0  0  0  0  0  0  0  0  0  0
    6.3980  -14.2997   25.0180 C   0  0  2  0  0  0  0  0  0  0  0  0
    5.4216  -14.9532   25.9069 N   0  0  0  0  0  0  0  0  0  0  0  0
    7.4063  -15.2994   24.6989 C   0  0  0  0  0  0  0  0  0  0  0  0
    7.8762  -16.0861   25.5930 O   0  0  0  0  0  0  0  0  0  0  0  0
    7.9830  -15.5293   23.3970 N   0  0  0  0  0  0  0  0  0  0  0  0
    9.0003  -16.5114   23.1685 C   0  0  1  0  0  0  0  0  0  0  0  0
    9.3297  -16.5984   21.7226 C   0  0  0  0  0  0  0  0  0  0  0  0
   10.3620  -17.5574   21.2875 C   0  0  0  0  0  0  0  0  0  0  0  0
   10.6986  -17.5767   19.8532 C   0  0  0  0  0  0  0  0  0  0  0  0
   11.8314  -17.2086   19.4307 O   0  0  0  0  0  0  0  0  0  0  0  0
   10.2262  -16.2879   23.9424 C   0  0  0  0  0  0  0  0  0  0  0  0
   10.8800  -15.2236   23.8802 O   0  0  0  0  0  0  0  0  0  0  0  0
    9.7739  -18.0035   18.9165 O   0  0  0  0  0  0  0  0  0  0  0  0
   11.2238  -16.8308   30.0855 N   0  0  0  0  0  0  0  0  0  0  0  0
   11.8311  -17.9214   29.4185 C   0  0  0  0  0  0  0  0  0  0  0  0
   11.8379  -19.0415   29.9683 O   0  0  0  0  0  0  0  0  0  0  0  0
   12.4375  -17.6510   28.0700 C   0  0  0  0  0  0  0  0  0  0  0  0
   11.3364  -17.5403   27.0545 C   0  0  0  0  0  0  0  0  0  0  0  0
   11.8285  -17.2228   25.6656 C   0  0  2  0  0  0  0  0  0  0  0  0
   10.6750  -17.3316   24.7906 N   0  0  0  0  0  0  0  0  0  0  0  0
   12.8506  -18.1759   25.1796 C   0  0  0  0  0  0  0  0  0  0  0  0
   12.5109  -19.2991   24.7352 O   0  0  0  0  0  0  0  0  0  0  0  0
   14.2038  -17.8823   25.1902 O   0  0  0  0  0  0  0  0  0  0  0  0
  2  1  1  0
  2  3  1  0
  3  4  1  6
  5  3  1  0
  5  6  1  1
  7  8  2  0
  7  5  1  0
  9  7  1  0
 10  9  1  0
 10 11  1  6
 12 11  1  0
 12 13  1  0
 13 14  2  0
 15 10  1  0
 16 15  2  0
 17 13  1  0
 19 18  1  0
 20 19  2  0
 21 19  1  0
 22 21  1  0
 23 22  1  1
 23 24  1  0
 24 15  1  0
 25 23  1  0
 26 25  2  0
 27 25  1  0
M  END
$$$$
