IEQ.pdb
     RDKit          3D

 27 26  0  0  1  0  0  0  0  0999 V2000
    5.6819  -11.5279   26.2614 C   0  0  0  0  0  0  0  0  0  0  0  0
    5.5230  -12.8663   25.6080 C   0  0  0  0  0  0  0  0  0  0  0  0
    6.8274  -13.6092   25.4541 C   0  0  2  0  0  0  0  0  0  0  0  0
    7.8167  -12.6886   24.7516 C   0  0  0  0  0  0  0  0  0  0  0  0
    6.6740  -14.9377   24.7875 C   0  0  2  0  0  0  0  0  0  0  0  0
    5.7476  -15.7100   25.6337 N   0  0  0  0  0  0  0  0  0  0  0  0
    7.8846  -15.7350   24.6585 C   0  0  0  0  0  0  0  0  0  0  0  0
    8.3426  -16.4207   25.6379 O   0  0  0  0  0  0  0  0  0  0  0  0
    8.6915  -15.8560   23.4691 N   0  0  0  0  0  0  0  0  0  0  0  0
    9.8226  -16.7313   23.3924 C   0  0  1  0  0  0  0  0  0  0  0  0
   10.4413  -16.6714   22.0432 C   0  0  0  0  0  0  0  0  0  0  0  0
   11.6030  -17.5337   21.7574 C   0  0  0  0  0  0  0  0  0  0  0  0
   12.1899  -17.4443   20.4089 C   0  0  0  0  0  0  0  0  0  0  0  0
   13.3754  -17.0473   20.2245 O   0  0  0  0  0  0  0  0  0  0  0  0
   10.8421  -16.4756   24.4156 C   0  0  0  0  0  0  0  0  0  0  0  0
   11.3461  -15.3460   24.5999 O   0  0  0  0  0  0  0  0  0  0  0  0
   11.4519  -17.7966   19.2927 O   0  0  0  0  0  0  0  0  0  0  0  0
   10.7775  -14.2001   27.9713 N   0  0  0  0  0  0  0  0  0  0  0  0
   10.9754  -15.0788   29.0630 C   0  0  0  0  0  0  0  0  0  0  0  0
   11.2559  -14.6031   30.1819 O   0  0  0  0  0  0  0  0  0  0  0  0
   10.8320  -16.5509   28.7953 C   0  0  0  0  0  0  0  0  0  0  0  0
   10.5621  -16.7555   27.3320 C   0  0  0  0  0  0  0  0  0  0  0  0
   11.6931  -17.4317   26.6002 C   0  0  2  0  0  0  0  0  0  0  0  0
   11.2627  -17.5647   25.2200 N   0  0  0  0  0  0  0  0  0  0  0  0
   11.9859  -18.7891   27.1108 C   0  0  0  0  0  0  0  0  0  0  0  0
   11.2733  -19.7635   26.7686 O   0  0  0  0  0  0  0  0  0  0  0  0
   13.0385  -19.0469   27.9729 O   0  0  0  0  0  0  0  0  0  0  0  0
  2  1  1  0
  2  3  1  0
  3  4  1  6
  5  3  1  0
  5  6  1  1
  7  8  2  0
  7  5  1  0
  9  7  1  0
 10  9  1  0
 10 11  1  6
 12 11  1  0
 12 13  1  0
 13 14  2  0
 15 10  1  0
 16 15  2  0
 17 13  1  0
 19 18  1  0
 20 19  2  0
 21 19  1  0
 22 21  1  0
 23 22  1  1
 23 24  1  0
 24 15  1  0
 25 23  1  0
 26 25  2  0
 27 25  1  0
M  END
$$$$
