NRR.pdb
     RDKit          3D

 31 30  0  0  1  0  0  0  0  0999 V2000
   20.3563  -29.8370   -0.6601 N   0  0  0  0  0  0  0  0  0  0  0  0
   20.0626  -30.3493   -1.9614 C   0  0  0  0  0  0  0  0  0  0  0  0
   20.6793  -31.3166   -2.4334 O   0  0  0  0  0  0  0  0  0  0  0  0
   18.9941  -29.6728   -2.7108 C   0  0  0  0  0  0  0  0  0  0  0  0
   18.5314  -28.4478   -2.0028 C   0  0  2  0  0  0  0  0  0  0  0  0
   17.9025  -28.6519   -0.7381 N   0  0  0  0  0  0  0  0  0  0  0  0
   17.6165  -27.6577   -2.8870 C   0  0  0  0  0  0  0  0  0  0  0  0
   16.3819  -27.6018   -2.5565 O   0  0  0  0  0  0  0  0  0  0  0  0
   13.6859  -21.7737   -1.4793 N   0  0  0  0  0  0  0  0  0  0  0  0
   14.1678  -23.0451   -1.0684 C   0  0  0  0  0  0  0  0  0  0  0  0
   14.2295  -23.3432    0.1836 N   0  0  0  0  0  0  0  0  0  0  0  0
   14.5745  -23.9675   -2.0668 N   0  0  0  0  0  0  0  0  0  0  0  0
   14.8096  -23.5129   -3.4180 C   0  0  0  0  0  0  0  0  0  0  0  0
   15.2990  -24.7232   -4.2246 C   0  0  0  0  0  0  0  0  0  0  0  0
   16.7521  -24.9804   -3.9607 C   0  0  0  0  0  0  0  0  0  0  0  0
   17.2495  -26.1055   -4.8251 C   0  0  2  0  0  0  0  0  0  0  0  0
   18.0992  -27.0034   -4.0361 N   0  0  0  0  0  0  0  0  0  0  0  0
   18.0806  -25.5794   -5.9165 C   0  0  0  0  0  0  0  0  0  0  0  0
   19.3211  -25.8064   -6.0303 O   0  0  0  0  0  0  0  0  0  0  0  0
   14.5939  -24.2578    0.5207 N   0  0  0  0  0  0  0  0  0  0  0  0
   21.4956  -27.1864  -12.3197 C   0  0  0  0  0  0  0  0  0  0  0  0
   20.8307  -28.3473  -11.8415 N   0  0  0  0  0  0  0  0  0  0  0  0
   21.4166  -29.4777  -11.9597 N   0  0  0  0  0  0  0  0  0  0  0  0
   19.5392  -28.2682  -11.2427 C   0  0  0  0  0  0  0  0  0  0  0  0
   18.9977  -26.9597  -10.9797 C   0  0  0  0  0  0  0  0  0  0  0  0
   19.3097  -26.5165   -9.5447 C   0  0  0  0  0  0  0  0  0  0  0  0
   18.0534  -26.1975   -8.8037 C   0  0  2  0  0  0  0  0  0  0  0  0
   18.0977  -24.7931   -8.2576 N   0  0  0  0  0  0  0  0  0  0  0  0
   17.4839  -24.7558   -6.9300 C   0  0  0  0  0  0  0  0  0  0  0  0
   17.3157  -23.9116   -9.1633 O   0  0  0  0  0  0  0  0  0  0  0  0
   16.1465  -23.5429   -9.0052 O   0  0  0  0  0  0  0  0  0  0  0  0
  2  1  1  0
  3  2  2  0
  4  2  1  0
  4  5  1  0
  5  6  1  1
  7  8  2  0
  7  5  1  0
  9 10  1  0
 10 12  1  0
 11 10  2  0
 12 13  1  0
 13 14  1  0
 14 15  1  0
 16 15  1  1
 16 17  1  0
 17  7  1  0
 18 16  1  0
 19 18  2  0
 20 21  1  0
 21 22  2  0
 23 21  1  0
 23 24  1  0
 24 25  1  0
 25 26  1  0
 27 26  1  1
 27 28  1  0
 28 18  1  0
 29 27  1  0
 30 29  2  0
 31 29  1  0
M  END
$$$$
