NRR.pdb
     RDKit          3D

 31 30  0  0  1  0  0  0  0  0999 V2000
   16.5013  -28.3890   -3.9113 N   0  0  0  0  0  0  0  0  0  0  0  0
   15.6800  -27.2474   -3.6578 C   0  0  0  0  0  0  0  0  0  0  0  0
   14.6268  -27.3358   -3.0082 O   0  0  0  0  0  0  0  0  0  0  0  0
   16.1460  -25.9651   -4.2050 C   0  0  0  0  0  0  0  0  0  0  0  0
   17.4910  -26.1018   -4.8281 C   0  0  2  0  0  0  0  0  0  0  0  0
   18.6083  -25.9218   -3.9589 N   0  0  0  0  0  0  0  0  0  0  0  0
   17.6157  -25.1674   -5.9920 C   0  0  0  0  0  0  0  0  0  0  0  0
   17.3273  -23.9372   -5.7924 O   0  0  0  0  0  0  0  0  0  0  0  0
   21.1799  -25.8602  -14.1829 N   0  0  0  0  0  0  0  0  0  0  0  0
   20.6424  -24.5496  -14.0771 C   0  0  0  0  0  0  0  0  0  0  0  0
   20.7404  -23.7254  -15.0625 N   0  0  0  0  0  0  0  0  0  0  0  0
   20.0007  -24.1793  -12.8671 N   0  0  0  0  0  0  0  0  0  0  0  0
   19.9348  -25.1151  -11.7682 C   0  0  0  0  0  0  0  0  0  0  0  0
   19.1452  -24.4357  -10.6412 C   0  0  0  0  0  0  0  0  0  0  0  0
   19.0251  -25.3474   -9.4574 C   0  0  0  0  0  0  0  0  0  0  0  0
   18.1528  -24.7240   -8.4034 C   0  0  2  0  0  0  0  0  0  0  0  0
   18.0340  -25.6280   -7.2547 N   0  0  0  0  0  0  0  0  0  0  0  0
   16.7954  -24.5146   -8.9252 C   0  0  0  0  0  0  0  0  0  0  0  0
   16.0009  -25.4552   -9.2208 O   0  0  0  0  0  0  0  0  0  0  0  0
   20.3561  -22.7592  -15.0203 N   0  0  0  0  0  0  0  0  0  0  0  0
   12.1915  -20.9422   -4.1417 C   0  0  0  0  0  0  0  0  0  0  0  0
   12.8554  -22.1907   -4.0036 N   0  0  0  0  0  0  0  0  0  0  0  0
   13.0032  -22.6762   -2.8300 N   0  0  0  0  0  0  0  0  0  0  0  0
   13.3517  -22.8960   -5.1391 C   0  0  0  0  0  0  0  0  0  0  0  0
   13.3928  -22.1999   -6.3993 C   0  0  0  0  0  0  0  0  0  0  0  0
   13.9847  -23.0916   -7.4982 C   0  0  0  0  0  0  0  0  0  0  0  0
   14.0419  -22.3616   -8.7994 C   0  0  2  0  0  0  0  0  0  0  0  0
   14.9943  -23.0402   -9.7507 N   0  0  0  0  0  0  0  0  0  0  0  0
   16.3093  -23.1784   -9.1241 C   0  0  0  0  0  0  0  0  0  0  0  0
   15.1360  -22.1891  -10.9609 O   0  0  0  0  0  0  0  0  0  0  0  0
   16.1817  -21.6937  -11.3959 O   0  0  0  0  0  0  0  0  0  0  0  0
  2  1  1  0
  3  2  2  0
  4  2  1  0
  4  5  1  0
  5  6  1  1
  7  8  2  0
  7  5  1  0
  9 10  1  0
 10 12  1  0
 11 10  2  0
 12 13  1  0
 13 14  1  0
 14 15  1  0
 16 15  1  6
 16 17  1  0
 17  7  1  0
 18 16  1  0
 19 18  2  0
 20 21  1  0
 21 22  2  0
 23 21  1  0
 23 24  1  0
 24 25  1  0
 25 26  1  0
 27 26  1  1
 27 28  1  0
 28 18  1  0
 29 27  1  0
 30 29  2  0
 31 29  1  0
M  END
$$$$
