NRR.pdb
     RDKit          3D

 31 30  0  0  1  0  0  0  0  0999 V2000
   17.7892  -26.8934   -8.9243 N   0  0  0  0  0  0  0  0  0  0  0  0
   18.6735  -25.7735   -8.8482 C   0  0  0  0  0  0  0  0  0  0  0  0
   19.3216  -25.5259   -7.8198 O   0  0  0  0  0  0  0  0  0  0  0  0
   18.7759  -24.9312  -10.0486 C   0  0  0  0  0  0  0  0  0  0  0  0
   18.0154  -25.5184  -11.1857 C   0  0  2  0  0  0  0  0  0  0  0  0
   18.4372  -26.8089  -11.6250 N   0  0  0  0  0  0  0  0  0  0  0  0
   18.0202  -24.5752  -12.3490 C   0  0  0  0  0  0  0  0  0  0  0  0
   18.7559  -24.8796  -13.3504 O   0  0  0  0  0  0  0  0  0  0  0  0
   16.4116  -16.9415  -14.3481 N   0  0  0  0  0  0  0  0  0  0  0  0
   15.6589  -17.3644  -15.4761 C   0  0  0  0  0  0  0  0  0  0  0  0
   15.5909  -16.6225  -16.5273 N   0  0  0  0  0  0  0  0  0  0  0  0
   14.9918  -18.6149  -15.4118 N   0  0  0  0  0  0  0  0  0  0  0  0
   15.0547  -19.4064  -14.2047 C   0  0  0  0  0  0  0  0  0  0  0  0
   16.1395  -20.4709  -14.4168 C   0  0  0  0  0  0  0  0  0  0  0  0
   16.2288  -21.3777  -13.2264 C   0  0  0  0  0  0  0  0  0  0  0  0
   17.1744  -22.5132  -13.5036 C   0  0  2  0  0  0  0  0  0  0  0  0
   17.2447  -23.4005  -12.3380 N   0  0  0  0  0  0  0  0  0  0  0  0
   18.5319  -22.0001  -13.7331 C   0  0  0  0  0  0  0  0  0  0  0  0
   19.3876  -21.8345  -12.8145 O   0  0  0  0  0  0  0  0  0  0  0  0
   14.9862  -16.8622  -17.3395 N   0  0  0  0  0  0  0  0  0  0  0  0
   25.5322  -24.6894  -15.1135 C   0  0  0  0  0  0  0  0  0  0  0  0
   25.7437  -23.3070  -15.3639 N   0  0  0  0  0  0  0  0  0  0  0  0
   26.8542  -22.9444  -15.8837 N   0  0  0  0  0  0  0  0  0  0  0  0
   24.7494  -22.3355  -15.0468 C   0  0  0  0  0  0  0  0  0  0  0  0
   23.4812  -22.8064  -14.5522 C   0  0  0  0  0  0  0  0  0  0  0  0
   22.4369  -22.8475  -15.6750 C   0  0  0  0  0  0  0  0  0  0  0  0
   21.0542  -22.8664  -15.1121 C   0  0  1  0  0  0  0  0  0  0  0  0
   20.3844  -21.5286  -15.2968 N   0  0  0  0  0  0  0  0  0  0  0  0
   18.9455  -21.6560  -15.0642 C   0  0  0  0  0  0  0  0  0  0  0  0
   20.5978  -21.0856  -16.6994 O   0  0  0  0  0  0  0  0  0  0  0  0
   19.7522  -21.0576  -17.6006 O   0  0  0  0  0  0  0  0  0  0  0  0
  2  1  1  0
  3  2  2  0
  4  2  1  0
  4  5  1  0
  5  6  1  6
  7  8  2  0
  7  5  1  0
  9 10  1  0
 10 12  1  0
 11 10  2  0
 12 13  1  0
 13 14  1  0
 14 15  1  0
 16 15  1  1
 16 17  1  0
 17  7  1  0
 18 16  1  0
 19 18  2  0
 20 21  1  0
 21 22  2  0
 23 21  1  0
 23 24  1  0
 24 25  1  0
 25 26  1  0
 27 26  1  1
 27 28  1  0
 28 18  1  0
 29 27  1  0
 30 29  2  0
 31 29  1  0
M  END
$$$$
