NRR.pdb
     RDKit          3D

 31 30  0  0  1  0  0  0  0  0999 V2000
   26.9519  -17.5542  -19.7623 N   0  0  0  0  0  0  0  0  0  0  0  0
   27.1200  -16.1781  -20.1087 C   0  0  0  0  0  0  0  0  0  0  0  0
   28.0901  -15.7902  -20.7776 O   0  0  0  0  0  0  0  0  0  0  0  0
   26.0866  -15.2473  -19.6331 C   0  0  0  0  0  0  0  0  0  0  0  0
   25.0237  -15.9631  -18.8755 C   0  0  2  0  0  0  0  0  0  0  0  0
   23.9695  -15.1546  -18.3546 N   0  0  0  0  0  0  0  0  0  0  0  0
   25.6327  -16.7576  -17.7615 C   0  0  0  0  0  0  0  0  0  0  0  0
   26.5690  -17.5747  -18.0650 O   0  0  0  0  0  0  0  0  0  0  0  0
   19.2064  -20.4102  -15.2906 N   0  0  0  0  0  0  0  0  0  0  0  0
   19.8723  -20.9334  -16.4310 C   0  0  0  0  0  0  0  0  0  0  0  0
   19.8751  -22.2019  -16.6571 N   0  0  0  0  0  0  0  0  0  0  0  0
   20.5270  -20.0273  -17.3048 N   0  0  0  0  0  0  0  0  0  0  0  0
   20.7341  -18.6557  -16.9008 C   0  0  0  0  0  0  0  0  0  0  0  0
   22.0315  -18.6154  -16.0821 C   0  0  0  0  0  0  0  0  0  0  0  0
   23.0022  -17.6418  -16.6796 C   0  0  0  0  0  0  0  0  0  0  0  0
   24.2387  -17.5476  -15.8295 C   0  0  2  0  0  0  0  0  0  0  0  0
   25.1898  -16.6089  -16.4336 N   0  0  0  0  0  0  0  0  0  0  0  0
   24.9101  -18.8527  -15.7619 C   0  0  0  0  0  0  0  0  0  0  0  0
   24.9699  -19.6657  -16.7308 O   0  0  0  0  0  0  0  0  0  0  0  0
   20.3113  -22.6148  -17.5068 N   0  0  0  0  0  0  0  0  0  0  0  0
   22.1377  -25.5574  -15.4778 C   0  0  0  0  0  0  0  0  0  0  0  0
   21.7409  -24.4620  -14.6646 N   0  0  0  0  0  0  0  0  0  0  0  0
   20.5032  -24.3399  -14.3677 N   0  0  0  0  0  0  0  0  0  0  0  0
   22.6903  -23.5127  -14.1848 C   0  0  0  0  0  0  0  0  0  0  0  0
   24.0771  -23.7223  -14.5127 C   0  0  0  0  0  0  0  0  0  0  0  0
   24.9459  -22.5788  -13.9738 C   0  0  0  0  0  0  0  0  0  0  0  0
   25.3025  -21.6245  -15.0653 C   0  0  2  0  0  0  0  0  0  0  0  0
   26.2329  -20.5537  -14.5552 N   0  0  0  0  0  0  0  0  0  0  0  0
   25.5453  -19.2623  -14.5412 C   0  0  0  0  0  0  0  0  0  0  0  0
   27.3932  -20.4599  -15.4793 O   0  0  0  0  0  0  0  0  0  0  0  0
   28.1944  -21.3611  -15.7511 O   0  0  0  0  0  0  0  0  0  0  0  0
  2  1  1  0
  3  2  2  0
  4  2  1  0
  4  5  1  0
  5  6  1  1
  7  8  2  0
  7  5  1  0
  9 10  1  0
 10 12  1  0
 11 10  2  0
 12 13  1  0
 13 14  1  0
 14 15  1  0
 16 15  1  6
 16 17  1  0
 17  7  1  0
 18 16  1  0
 19 18  2  0
 20 21  1  0
 21 22  2  0
 23 21  1  0
 23 24  1  0
 24 25  1  0
 25 26  1  0
 27 26  1  1
 27 28  1  0
 28 18  1  0
 29 27  1  0
 30 29  2  0
 31 29  1  0
M  END
$$$$
