NRR.pdb
     RDKit          3D

 31 30  0  0  1  0  0  0  0  0999 V2000
   27.7515  -23.4176  -20.5518 N   0  0  0  0  0  0  0  0  0  0  0  0
   28.3119  -22.4492  -19.6629 C   0  0  0  0  0  0  0  0  0  0  0  0
   29.1150  -21.5910  -20.0594 O   0  0  0  0  0  0  0  0  0  0  0  0
   27.8888  -22.5218  -18.2570 C   0  0  0  0  0  0  0  0  0  0  0  0
   27.2143  -21.2649  -17.8313 C   0  0  2  0  0  0  0  0  0  0  0  0
   28.0243  -20.0902  -17.8167 N   0  0  0  0  0  0  0  0  0  0  0  0
   26.5875  -21.4488  -16.4836 C   0  0  0  0  0  0  0  0  0  0  0  0
   25.7584  -22.4134  -16.3469 O   0  0  0  0  0  0  0  0  0  0  0  0
   29.4898  -21.7234   -9.1639 N   0  0  0  0  0  0  0  0  0  0  0  0
   30.4250  -22.0624  -10.1778 C   0  0  0  0  0  0  0  0  0  0  0  0
   31.2816  -23.0049   -9.9832 N   0  0  0  0  0  0  0  0  0  0  0  0
   30.3879  -21.3403  -11.3986 N   0  0  0  0  0  0  0  0  0  0  0  0
   29.3085  -20.4159  -11.6590 C   0  0  0  0  0  0  0  0  0  0  0  0
   28.3763  -21.0833  -12.6791 C   0  0  0  0  0  0  0  0  0  0  0  0
   27.2486  -20.1651  -13.0429 C   0  0  0  0  0  0  0  0  0  0  0  0
   26.3574  -20.8115  -14.0668 C   0  0  2  0  0  0  0  0  0  0  0  0
   26.9003  -20.5922  -15.4114 N   0  0  0  0  0  0  0  0  0  0  0  0
   25.0226  -20.1980  -14.0391 C   0  0  0  0  0  0  0  0  0  0  0  0
   24.7744  -19.0306  -14.4624 O   0  0  0  0  0  0  0  0  0  0  0  0
   31.9098  -23.3506  -10.7374 N   0  0  0  0  0  0  0  0  0  0  0  0
   17.6280  -23.0095  -13.9127 C   0  0  0  0  0  0  0  0  0  0  0  0
   18.4344  -24.1764  -13.9944 N   0  0  0  0  0  0  0  0  0  0  0  0
   17.9654  -25.2747  -13.5376 N   0  0  0  0  0  0  0  0  0  0  0  0
   19.7388  -24.1374  -14.5687 C   0  0  0  0  0  0  0  0  0  0  0  0
   20.2240  -22.8706  -15.0529 C   0  0  0  0  0  0  0  0  0  0  0  0
   21.1270  -22.1963  -14.0123 C   0  0  0  0  0  0  0  0  0  0  0  0
   21.7199  -20.9402  -14.5597 C   0  0  1  0  0  0  0  0  0  0  0  0
   22.6062  -20.2779  -13.5357 N   0  0  0  0  0  0  0  0  0  0  0  0
   23.9122  -20.9366  -13.5074 C   0  0  0  0  0  0  0  0  0  0  0  0
   21.9736  -20.4277  -12.1992 O   0  0  0  0  0  0  0  0  0  0  0  0
   22.3955  -21.1054  -11.2554 O   0  0  0  0  0  0  0  0  0  0  0  0
  2  1  1  0
  3  2  2  0
  4  2  1  0
  4  5  1  0
  5  6  1  1
  7  8  2  0
  7  5  1  0
  9 10  1  0
 10 12  1  0
 11 10  2  0
 12 13  1  0
 13 14  1  0
 14 15  1  0
 16 15  1  1
 16 17  1  0
 17  7  1  0
 18 16  1  0
 19 18  2  0
 20 21  1  0
 21 22  2  0
 23 21  1  0
 23 24  1  0
 24 25  1  0
 25 26  1  0
 27 26  1  6
 27 28  1  0
 28 18  1  0
 29 27  1  0
 30 29  2  0
 31 29  1  0
M  END
$$$$
