NRR.pdb
     RDKit          3D

 31 30  0  0  1  0  0  0  0  0999 V2000
   18.8306  -27.5904   -6.5692 N   0  0  0  0  0  0  0  0  0  0  0  0
   18.0909  -27.5850   -5.3466 C   0  0  0  0  0  0  0  0  0  0  0  0
   17.8088  -28.6372   -4.7531 O   0  0  0  0  0  0  0  0  0  0  0  0
   17.6820  -26.2713   -4.8290 C   0  0  0  0  0  0  0  0  0  0  0  0
   16.7632  -25.5811   -5.7753 C   0  0  2  0  0  0  0  0  0  0  0  0
   17.3264  -25.1909   -7.0270 N   0  0  0  0  0  0  0  0  0  0  0  0
   16.1499  -24.3845   -5.1157 C   0  0  0  0  0  0  0  0  0  0  0  0
   16.6014  -23.2342   -5.4465 O   0  0  0  0  0  0  0  0  0  0  0  0
   11.9130  -18.7502   -5.6234 N   0  0  0  0  0  0  0  0  0  0  0  0
   10.8713  -19.7115   -5.5310 C   0  0  0  0  0  0  0  0  0  0  0  0
    9.6388  -19.3360   -5.5269 N   0  0  0  0  0  0  0  0  0  0  0  0
   11.2246  -21.0830   -5.4448 N   0  0  0  0  0  0  0  0  0  0  0  0
   12.6145  -21.4670   -5.3553 C   0  0  0  0  0  0  0  0  0  0  0  0
   12.6574  -22.9992   -5.2804 C   0  0  0  0  0  0  0  0  0  0  0  0
   12.9539  -23.4509   -3.8822 C   0  0  0  0  0  0  0  0  0  0  0  0
   14.4286  -23.3584   -3.6042 C   0  0  2  0  0  0  0  0  0  0  0  0
   15.1173  -24.5235   -4.1691 N   0  0  0  0  0  0  0  0  0  0  0  0
   14.6754  -23.3762   -2.1559 C   0  0  0  0  0  0  0  0  0  0  0  0
   14.9129  -24.4293   -1.4942 O   0  0  0  0  0  0  0  0  0  0  0  0
    8.8505  -20.0141   -5.4856 N   0  0  0  0  0  0  0  0  0  0  0  0
   15.7897  -17.0441    4.0505 C   0  0  0  0  0  0  0  0  0  0  0  0
   16.4423  -17.4315    2.8494 N   0  0  0  0  0  0  0  0  0  0  0  0
   17.1524  -16.5641    2.2342 N   0  0  0  0  0  0  0  0  0  0  0  0
   16.3159  -18.7533    2.3301 C   0  0  0  0  0  0  0  0  0  0  0  0
   15.1607  -19.5215    2.7174 C   0  0  0  0  0  0  0  0  0  0  0  0
   15.1995  -20.9215    2.0917 C   0  0  0  0  0  0  0  0  0  0  0  0
   14.9411  -20.8528    0.6228 C   0  0  2  0  0  0  0  0  0  0  0  0
   14.9031  -22.2350    0.0223 N   0  0  0  0  0  0  0  0  0  0  0  0
   14.6527  -22.1458   -1.4164 C   0  0  0  0  0  0  0  0  0  0  0  0
   13.7864  -22.9893    0.6492 O   0  0  0  0  0  0  0  0  0  0  0  0
   12.6203  -23.0529    0.2441 O   0  0  0  0  0  0  0  0  0  0  0  0
  2  1  1  0
  3  2  2  0
  4  2  1  0
  4  5  1  0
  5  6  1  6
  7  8  2  0
  7  5  1  0
  9 10  1  0
 10 12  1  0
 11 10  2  0
 12 13  1  0
 13 14  1  0
 14 15  1  0
 16 15  1  1
 16 17  1  0
 17  7  1  0
 18 16  1  0
 19 18  2  0
 20 21  1  0
 21 22  2  0
 23 21  1  0
 23 24  1  0
 24 25  1  0
 25 26  1  0
 27 26  1  6
 27 28  1  0
 28 18  1  0
 29 27  1  0
 30 29  2  0
 31 29  1  0
M  END
$$$$
