NRR.pdb
     RDKit          3D

 31 30  0  0  1  0  0  0  0  0999 V2000
   28.6186  -22.1892  -20.2533 N   0  0  0  0  0  0  0  0  0  0  0  0
   27.3608  -22.3785  -19.6022 C   0  0  0  0  0  0  0  0  0  0  0  0
   26.2909  -22.3283  -20.2281 O   0  0  0  0  0  0  0  0  0  0  0  0
   27.3993  -22.6355  -18.1554 C   0  0  0  0  0  0  0  0  0  0  0  0
   27.2214  -21.3776  -17.3795 C   0  0  2  0  0  0  0  0  0  0  0  0
   28.1851  -20.3517  -17.6148 N   0  0  0  0  0  0  0  0  0  0  0  0
   27.1712  -21.6805  -15.9136 C   0  0  0  0  0  0  0  0  0  0  0  0
   26.3384  -22.5703  -15.5248 O   0  0  0  0  0  0  0  0  0  0  0  0
   31.6616  -22.3025   -8.8059 N   0  0  0  0  0  0  0  0  0  0  0  0
   32.0500  -22.4880  -10.1595 C   0  0  0  0  0  0  0  0  0  0  0  0
   32.8476  -23.4473  -10.4813 N   0  0  0  0  0  0  0  0  0  0  0  0
   31.5384  -21.5954  -11.1366 N   0  0  0  0  0  0  0  0  0  0  0  0
   30.5155  -20.6401  -10.7778 C   0  0  0  0  0  0  0  0  0  0  0  0
   29.2116  -21.1014  -11.4426 C   0  0  0  0  0  0  0  0  0  0  0  0
   29.2478  -20.8339  -12.9171 C   0  0  0  0  0  0  0  0  0  0  0  0
   27.9767  -21.3067  -13.5659 C   0  0  2  0  0  0  0  0  0  0  0  0
   28.0087  -21.0105  -15.0019 N   0  0  0  0  0  0  0  0  0  0  0  0
   26.8228  -20.5891  -13.0068 C   0  0  0  0  0  0  0  0  0  0  0  0
   26.4746  -19.4258  -13.3659 O   0  0  0  0  0  0  0  0  0  0  0  0
   33.2201  -23.5615  -11.4462 N   0  0  0  0  0  0  0  0  0  0  0  0
   19.5288  -22.5830  -11.3243 C   0  0  0  0  0  0  0  0  0  0  0  0
   19.0796  -21.4952  -12.1202 N   0  0  0  0  0  0  0  0  0  0  0  0
   17.8567  -21.1340  -12.0248 N   0  0  0  0  0  0  0  0  0  0  0  0
   19.9611  -20.8139  -13.0099 C   0  0  0  0  0  0  0  0  0  0  0  0
   21.2644  -21.3844  -13.2349 C   0  0  0  0  0  0  0  0  0  0  0  0
   22.3200  -20.7013  -12.3561 C   0  0  0  0  0  0  0  0  0  0  0  0
   23.6839  -21.2266  -12.6613 C   0  0  1  0  0  0  0  0  0  0  0  0
   24.7076  -20.6250  -11.7325 N   0  0  0  0  0  0  0  0  0  0  0  0
   26.0218  -21.2136  -11.9921 C   0  0  0  0  0  0  0  0  0  0  0  0
   24.3172  -20.9418  -10.3339 O   0  0  0  0  0  0  0  0  0  0  0  0
   24.8151  -21.8094   -9.6077 O   0  0  0  0  0  0  0  0  0  0  0  0
  2  1  1  0
  3  2  2  0
  4  2  1  0
  4  5  1  0
  5  6  1  1
  7  8  2  0
  7  5  1  0
  9 10  1  0
 10 12  1  0
 11 10  2  0
 12 13  1  0
 13 14  1  0
 14 15  1  0
 16 15  1  1
 16 17  1  0
 17  7  1  0
 18 16  1  0
 19 18  2  0
 20 21  1  0
 21 22  2  0
 23 21  1  0
 23 24  1  0
 24 25  1  0
 25 26  1  0
 27 26  1  6
 27 28  1  0
 28 18  1  0
 29 27  1  0
 30 29  2  0
 31 29  1  0
M  END
$$$$
