NRR.pdb
     RDKit          3D

 31 30  0  0  1  0  0  0  0  0999 V2000
   20.3949  -31.6978  -11.8540 N   0  0  0  0  0  0  0  0  0  0  0  0
   20.0154  -31.5025  -10.4903 C   0  0  0  0  0  0  0  0  0  0  0  0
   19.4788  -32.4049   -9.8294 O   0  0  0  0  0  0  0  0  0  0  0  0
   20.2929  -30.1802   -9.9113 C   0  0  0  0  0  0  0  0  0  0  0  0
   20.9924  -29.3003  -10.8874 C   0  0  2  0  0  0  0  0  0  0  0  0
   22.4147  -29.4092  -10.9256 N   0  0  0  0  0  0  0  0  0  0  0  0
   20.6130  -27.8703  -10.6542 C   0  0  0  0  0  0  0  0  0  0  0  0
   21.3285  -27.1979   -9.8342 O   0  0  0  0  0  0  0  0  0  0  0  0
   20.3928  -23.3610  -16.2869 N   0  0  0  0  0  0  0  0  0  0  0  0
   20.9482  -22.5467  -15.2641 C   0  0  0  0  0  0  0  0  0  0  0  0
   21.9740  -21.8062  -15.5080 N   0  0  0  0  0  0  0  0  0  0  0  0
   20.3459  -22.5722  -13.9797 N   0  0  0  0  0  0  0  0  0  0  0  0
   19.0041  -23.0838  -13.8208 C   0  0  0  0  0  0  0  0  0  0  0  0
   18.9352  -23.7544  -12.4422 C   0  0  0  0  0  0  0  0  0  0  0  0
   19.3097  -25.2026  -12.5407 C   0  0  0  0  0  0  0  0  0  0  0  0
   19.2070  -25.8623  -11.1936 C   0  0  2  0  0  0  0  0  0  0  0  0
   19.5117  -27.2919  -11.3130 N   0  0  0  0  0  0  0  0  0  0  0  0
   17.8343  -25.7589  -10.6800 C   0  0  0  0  0  0  0  0  0  0  0  0
   16.8434  -26.3593  -11.1910 O   0  0  0  0  0  0  0  0  0  0  0  0
   22.4541  -21.2582  -14.7650 N   0  0  0  0  0  0  0  0  0  0  0  0
   16.6498  -26.6208   -2.8823 C   0  0  0  0  0  0  0  0  0  0  0  0
   16.0880  -25.3683   -3.2485 N   0  0  0  0  0  0  0  0  0  0  0  0
   15.4188  -24.7207   -2.3723 N   0  0  0  0  0  0  0  0  0  0  0  0
   16.2577  -24.8346   -4.5597 C   0  0  0  0  0  0  0  0  0  0  0  0
   17.2449  -25.4449   -5.4127 C   0  0  0  0  0  0  0  0  0  0  0  0
   17.2179  -24.8217   -6.8141 C   0  0  0  0  0  0  0  0  0  0  0  0
   16.1206  -25.4131   -7.6359 C   0  0  1  0  0  0  0  0  0  0  0  0
   16.1829  -24.9056   -9.0540 N   0  0  0  0  0  0  0  0  0  0  0  0
   17.5648  -24.9375   -9.5337 C   0  0  0  0  0  0  0  0  0  0  0  0
   15.7108  -23.4964   -9.0702 O   0  0  0  0  0  0  0  0  0  0  0  0
   16.3586  -22.5056   -9.4262 O   0  0  0  0  0  0  0  0  0  0  0  0
  2  1  1  0
  3  2  2  0
  4  2  1  0
  4  5  1  0
  5  6  1  1
  7  8  2  0
  7  5  1  0
  9 10  1  0
 10 12  1  0
 11 10  2  0
 12 13  1  0
 13 14  1  0
 14 15  1  0
 16 15  1  6
 16 17  1  0
 17  7  1  0
 18 16  1  0
 19 18  2  0
 20 21  1  0
 21 22  2  0
 23 21  1  0
 23 24  1  0
 24 25  1  0
 25 26  1  0
 27 26  1  6
 27 28  1  0
 28 18  1  0
 29 27  1  0
 30 29  2  0
 31 29  1  0
M  END
$$$$
