NRR.pdb
     RDKit          3D

 31 30  0  0  1  0  0  0  0  0999 V2000
   24.5425  -26.7514  -16.2805 N   0  0  0  0  0  0  0  0  0  0  0  0
   23.9226  -25.5514  -16.7468 C   0  0  0  0  0  0  0  0  0  0  0  0
   23.7193  -25.3517  -17.9542 O   0  0  0  0  0  0  0  0  0  0  0  0
   23.5387  -24.5672  -15.7246 C   0  0  0  0  0  0  0  0  0  0  0  0
   24.4517  -23.3915  -15.7383 C   0  0  2  0  0  0  0  0  0  0  0  0
   25.6914  -23.5497  -15.0496 N   0  0  0  0  0  0  0  0  0  0  0  0
   23.7428  -22.1839  -15.2071 C   0  0  0  0  0  0  0  0  0  0  0  0
   24.4648  -21.2160  -14.7848 O   0  0  0  0  0  0  0  0  0  0  0  0
   18.4802  -17.6419  -16.7603 N   0  0  0  0  0  0  0  0  0  0  0  0
   19.1963  -16.4187  -16.8536 C   0  0  0  0  0  0  0  0  0  0  0  0
   18.6056  -15.3494  -17.2634 N   0  0  0  0  0  0  0  0  0  0  0  0
   20.5665  -16.4092  -16.4855 N   0  0  0  0  0  0  0  0  0  0  0  0
   21.3993  -17.5549  -16.7705 C   0  0  0  0  0  0  0  0  0  0  0  0
   21.0761  -18.6233  -15.7173 C   0  0  0  0  0  0  0  0  0  0  0  0
   21.8948  -19.8574  -15.9494 C   0  0  0  0  0  0  0  0  0  0  0  0
   21.6300  -20.8711  -14.8711 C   0  0  2  0  0  0  0  0  0  0  0  0
   22.3369  -22.1196  -15.1749 N   0  0  0  0  0  0  0  0  0  0  0  0
   20.1975  -21.1931  -14.8163 C   0  0  0  0  0  0  0  0  0  0  0  0
   19.4664  -21.3316  -15.8409 O   0  0  0  0  0  0  0  0  0  0  0  0
   19.1201  -14.4623  -17.4400 N   0  0  0  0  0  0  0  0  0  0  0  0
   14.9591  -18.2410  -17.1828 C   0  0  0  0  0  0  0  0  0  0  0  0
   14.9434  -18.2462  -15.7621 N   0  0  0  0  0  0  0  0  0  0  0  0
   14.6592  -17.1593  -15.1515 N   0  0  0  0  0  0  0  0  0  0  0  0
   15.2371  -19.4288  -15.0218 C   0  0  0  0  0  0  0  0  0  0  0  0
   15.8757  -20.5171  -15.7164 C   0  0  0  0  0  0  0  0  0  0  0  0
   16.2155  -21.6589  -14.7501 C   0  0  0  0  0  0  0  0  0  0  0  0
   17.6483  -22.0570  -14.8832 C   0  0  2  0  0  0  0  0  0  0  0  0
   18.3094  -22.1316  -13.5305 N   0  0  0  0  0  0  0  0  0  0  0  0
   19.5568  -21.3670  -13.5433 C   0  0  0  0  0  0  0  0  0  0  0  0
   18.6312  -23.5537  -13.2423 O   0  0  0  0  0  0  0  0  0  0  0  0
   17.8356  -24.4994  -13.2173 O   0  0  0  0  0  0  0  0  0  0  0  0
  2  1  1  0
  3  2  2  0
  4  2  1  0
  4  5  1  0
  5  6  1  1
  7  8  2  0
  7  5  1  0
  9 10  1  0
 10 12  1  0
 11 10  2  0
 12 13  1  0
 13 14  1  0
 14 15  1  0
 16 15  1  6
 16 17  1  0
 17  7  1  0
 18 16  1  0
 19 18  2  0
 20 21  1  0
 21 22  2  0
 23 21  1  0
 23 24  1  0
 24 25  1  0
 25 26  1  0
 27 26  1  1
 27 28  1  0
 28 18  1  0
 29 27  1  0
 30 29  2  0
 31 29  1  0
M  END
$$$$
