TGS.pdb
     RDKit          3D

 18 17  0  0  1  0  0  0  0  0999 V2000
    8.2620  -12.2529   18.0930 C   0  0  0  0  0  0  0  0  0  0  0  0
    7.9540  -13.1737   19.2437 C   0  0  1  0  0  0  0  0  0  0  0  0
    7.8321  -14.4685   18.7181 O   0  0  0  0  0  0  0  0  0  0  0  0
    9.0900  -13.2144   20.2345 C   0  0  2  0  0  0  0  0  0  0  0  0
   10.3041  -13.6145   19.5929 N   0  0  0  0  0  0  0  0  0  0  0  0
    8.7712  -14.0353   21.4304 C   0  0  0  0  0  0  0  0  0  0  0  0
    7.8617  -13.6614   22.1939 O   0  0  0  0  0  0  0  0  0  0  0  0
    9.4727  -15.2460   21.7408 N   0  0  0  0  0  0  0  0  0  0  0  0
    9.1505  -16.0618   22.8810 C   0  0  0  0  0  0  0  0  0  0  0  0
    9.8623  -15.6333   24.1112 C   0  0  0  0  0  0  0  0  0  0  0  0
   11.0576  -15.8840   24.3577 O   0  0  0  0  0  0  0  0  0  0  0  0
    7.4337  -13.7298   26.8229 O   0  0  0  0  0  0  0  0  0  0  0  0
    8.7332  -13.2701   26.7829 C   0  0  0  0  0  0  0  0  0  0  0  0
    9.6930  -14.3465   26.2769 C   0  0  2  0  0  0  0  0  0  0  0  0
    9.1159  -14.8868   25.0632 N   0  0  0  0  0  0  0  0  0  0  0  0
    9.8067  -15.3969   27.3220 C   0  0  0  0  0  0  0  0  0  0  0  0
   10.4320  -15.1486   28.5341 O   0  0  0  0  0  0  0  0  0  0  0  0
    9.3351  -16.5466   27.1323 O   0  0  0  0  0  0  0  0  0  0  0  0
  2  3  1  0
  2  1  1  6
  4  2  1  0
  4  5  1  6
  6  4  1  0
  7  6  2  0
  8  6  1  0
  9  8  1  0
 10  9  1  0
 10 15  1  0
 11 10  2  0
 12 13  1  0
 14 13  1  1
 14 15  1  0
 14 16  1  0
 16 18  2  0
 16 17  1  0
M  END
$$$$
