TGS.pdb
     RDKit          3D

 18 17  0  0  1  0  0  0  0  0999 V2000
    2.3707  -21.5152   20.3293 C   0  0  0  0  0  0  0  0  0  0  0  0
    2.5716  -20.2943   21.1873 C   0  0  1  0  0  0  0  0  0  0  0  0
    2.0529  -20.5892   22.4568 O   0  0  0  0  0  0  0  0  0  0  0  0
    4.0364  -19.9916   21.3783 C   0  0  2  0  0  0  0  0  0  0  0  0
    4.4632  -20.3737   22.6889 N   0  0  0  0  0  0  0  0  0  0  0  0
    4.3727  -18.5829   21.0493 C   0  0  0  0  0  0  0  0  0  0  0  0
    4.3940  -18.2307   19.8554 O   0  0  0  0  0  0  0  0  0  0  0  0
    4.6748  -17.6094   22.0569 N   0  0  0  0  0  0  0  0  0  0  0  0
    5.0824  -16.2659   21.7438 C   0  0  0  0  0  0  0  0  0  0  0  0
    6.4916  -16.1876   21.2838 C   0  0  0  0  0  0  0  0  0  0  0  0
    7.2461  -17.1705   21.1525 O   0  0  0  0  0  0  0  0  0  0  0  0
    7.7563  -13.0733   18.9001 O   0  0  0  0  0  0  0  0  0  0  0  0
    8.4519  -13.2198   20.0817 C   0  0  0  0  0  0  0  0  0  0  0  0
    8.3786  -14.6555   20.6009 C   0  0  2  0  0  0  0  0  0  0  0  0
    7.0005  -14.8965   20.9759 N   0  0  0  0  0  0  0  0  0  0  0  0
    9.2758  -14.7700   21.7801 C   0  0  0  0  0  0  0  0  0  0  0  0
   10.6489  -14.8962   21.6366 O   0  0  0  0  0  0  0  0  0  0  0  0
    8.8090  -14.7552   22.9472 O   0  0  0  0  0  0  0  0  0  0  0  0
  2  3  1  0
  2  1  1  6
  4  2  1  0
  4  5  1  1
  6  4  1  0
  7  6  2  0
  8  6  1  0
  9  8  1  0
 10  9  1  0
 10 15  1  0
 11 10  2  0
 12 13  1  0
 14 13  1  1
 14 15  1  0
 14 16  1  0
 16 18  2  0
 16 17  1  0
M  END
$$$$
