TGS.pdb
     RDKit          3D

 18 17  0  0  1  0  0  0  0  0999 V2000
    9.6686  -18.9038   14.8685 C   0  0  0  0  0  0  0  0  0  0  0  0
    9.1152  -18.4324   16.1870 C   0  0  1  0  0  0  0  0  0  0  0  0
    8.3579  -19.4861   16.7199 O   0  0  0  0  0  0  0  0  0  0  0  0
   10.2175  -18.1488   17.1761 C   0  0  2  0  0  0  0  0  0  0  0  0
   11.0185  -19.3151   17.3860 N   0  0  0  0  0  0  0  0  0  0  0  0
    9.7076  -17.5631   18.4420 C   0  0  0  0  0  0  0  0  0  0  0  0
    9.5171  -16.3343   18.5046 O   0  0  0  0  0  0  0  0  0  0  0  0
    9.4252  -18.3605   19.5990 N   0  0  0  0  0  0  0  0  0  0  0  0
    9.0305  -17.7909   20.8596 C   0  0  0  0  0  0  0  0  0  0  0  0
   10.1725  -17.2058   21.6061 C   0  0  0  0  0  0  0  0  0  0  0  0
   11.3049  -17.0118   21.1239 O   0  0  0  0  0  0  0  0  0  0  0  0
   11.1380  -15.1623   25.9404 O   0  0  0  0  0  0  0  0  0  0  0  0
   10.2442  -15.6602   25.0159 C   0  0  0  0  0  0  0  0  0  0  0  0
   10.9637  -16.2754   23.8159 C   0  0  2  0  0  0  0  0  0  0  0  0
    9.9429  -16.8478   22.9625 N   0  0  0  0  0  0  0  0  0  0  0  0
   11.8865  -17.3275   24.3161 C   0  0  0  0  0  0  0  0  0  0  0  0
   13.1323  -17.0116   24.8355 O   0  0  0  0  0  0  0  0  0  0  0  0
   11.5584  -18.5405   24.2807 O   0  0  0  0  0  0  0  0  0  0  0  0
  2  3  1  0
  2  1  1  6
  4  2  1  0
  4  5  1  1
  6  4  1  0
  7  6  2  0
  8  6  1  0
  9  8  1  0
 10  9  1  0
 10 15  1  0
 11 10  2  0
 12 13  1  0
 14 13  1  1
 14 15  1  0
 14 16  1  0
 16 18  2  0
 16 17  1  0
M  END
$$$$
