TGS.pdb
     RDKit          3D

 18 17  0  0  1  0  0  0  0  0999 V2000
   10.6965  -18.2395   18.9489 C   0  0  0  0  0  0  0  0  0  0  0  0
    9.7933  -17.2277   19.6025 C   0  0  1  0  0  0  0  0  0  0  0  0
    8.4779  -17.6952   19.4649 O   0  0  0  0  0  0  0  0  0  0  0  0
   10.0631  -17.1249   21.0826 C   0  0  2  0  0  0  0  0  0  0  0  0
    9.8704  -18.3912   21.7190 N   0  0  0  0  0  0  0  0  0  0  0  0
    9.2905  -16.0318   21.7260 C   0  0  0  0  0  0  0  0  0  0  0  0
    9.5334  -14.8529   21.4077 O   0  0  0  0  0  0  0  0  0  0  0  0
    8.2722  -16.2823   22.7029 N   0  0  0  0  0  0  0  0  0  0  0  0
    7.3997  -15.2520   23.1997 C   0  0  0  0  0  0  0  0  0  0  0  0
    8.0167  -14.4560   24.2903 C   0  0  0  0  0  0  0  0  0  0  0  0
    9.1879  -14.5980   24.6911 O   0  0  0  0  0  0  0  0  0  0  0  0
    5.3891  -12.5137   26.7197 O   0  0  0  0  0  0  0  0  0  0  0  0
    6.4876  -11.7428   26.4023 C   0  0  0  0  0  0  0  0  0  0  0  0
    7.6738  -12.6067   25.9746 C   0  0  2  0  0  0  0  0  0  0  0  0
    7.2033  -13.4683   24.9096 N   0  0  0  0  0  0  0  0  0  0  0  0
    8.1133  -13.4066   27.1475 C   0  0  0  0  0  0  0  0  0  0  0  0
    7.9392  -14.7812   27.1936 O   0  0  0  0  0  0  0  0  0  0  0  0
    8.6587  -12.8530   28.1356 O   0  0  0  0  0  0  0  0  0  0  0  0
  2  3  1  0
  2  1  1  1
  4  2  1  0
  4  5  1  1
  6  4  1  0
  7  6  2  0
  8  6  1  0
  9  8  1  0
 10  9  1  0
 10 15  1  0
 11 10  2  0
 12 13  1  0
 14 13  1  1
 14 15  1  0
 14 16  1  0
 16 18  2  0
 16 17  1  0
M  END
$$$$
