TGS.pdb
     RDKit          3D

 18 17  0  0  1  0  0  0  0  0999 V2000
    8.7624  -14.3708   15.6875 C   0  0  0  0  0  0  0  0  0  0  0  0
    7.6597  -15.3193   16.0766 C   0  0  1  0  0  0  0  0  0  0  0  0
    7.7640  -16.4419   15.2419 O   0  0  0  0  0  0  0  0  0  0  0  0
    7.8335  -15.8140   17.4904 C   0  0  2  0  0  0  0  0  0  0  0  0
    6.8474  -16.8016   17.8035 N   0  0  0  0  0  0  0  0  0  0  0  0
    7.8750  -14.7060   18.4785 C   0  0  0  0  0  0  0  0  0  0  0  0
    8.8328  -13.9110   18.4537 O   0  0  0  0  0  0  0  0  0  0  0  0
    6.8513  -14.5158   19.4635 N   0  0  0  0  0  0  0  0  0  0  0  0
    6.8110  -13.3706   20.3330 C   0  0  0  0  0  0  0  0  0  0  0  0
    7.7561  -13.4831   21.4723 C   0  0  0  0  0  0  0  0  0  0  0  0
    7.8551  -12.6478   22.3914 O   0  0  0  0  0  0  0  0  0  0  0  0
    9.7505  -16.4768   24.4007 O   0  0  0  0  0  0  0  0  0  0  0  0
    8.9384  -16.1085   23.3488 C   0  0  0  0  0  0  0  0  0  0  0  0
    9.5120  -14.9119   22.5904 C   0  0  2  0  0  0  0  0  0  0  0  0
    8.5990  -14.6274   21.5025 N   0  0  0  0  0  0  0  0  0  0  0  0
   10.8524  -15.2894   22.0713 C   0  0  0  0  0  0  0  0  0  0  0  0
   11.0725  -15.5022   20.7192 O   0  0  0  0  0  0  0  0  0  0  0  0
   11.8289  -15.4264   22.8511 O   0  0  0  0  0  0  0  0  0  0  0  0
  2  3  1  0
  2  1  1  6
  4  2  1  0
  4  5  1  1
  6  4  1  0
  7  6  2  0
  8  6  1  0
  9  8  1  0
 10  9  1  0
 10 15  1  0
 11 10  2  0
 12 13  1  0
 14 13  1  6
 14 15  1  0
 14 16  1  0
 16 18  2  0
 16 17  1  0
M  END
$$$$
