TGS.pdb
     RDKit          3D

 18 17  0  0  1  0  0  0  0  0999 V2000
    2.0285  -18.7061   22.7276 C   0  0  0  0  0  0  0  0  0  0  0  0
    3.2506  -19.2971   22.0763 C   0  0  1  0  0  0  0  0  0  0  0  0
    3.0162  -20.6717   21.9241 O   0  0  0  0  0  0  0  0  0  0  0  0
    3.4601  -18.7382   20.6915 C   0  0  2  0  0  0  0  0  0  0  0  0
    3.4318  -19.7842   19.7164 N   0  0  0  0  0  0  0  0  0  0  0  0
    4.6789  -17.8946   20.5981 C   0  0  0  0  0  0  0  0  0  0  0  0
    5.7573  -18.4261   20.2747 O   0  0  0  0  0  0  0  0  0  0  0  0
    4.6617  -16.4869   20.8667 N   0  0  0  0  0  0  0  0  0  0  0  0
    5.8469  -15.6725   20.8280 C   0  0  0  0  0  0  0  0  0  0  0  0
    6.7252  -15.8835   22.0061 C   0  0  0  0  0  0  0  0  0  0  0  0
    6.4771  -16.6720   22.9383 O   0  0  0  0  0  0  0  0  0  0  0  0
    8.9677  -15.3729   25.5239 O   0  0  0  0  0  0  0  0  0  0  0  0
    8.1335  -15.1887   24.4414 C   0  0  0  0  0  0  0  0  0  0  0  0
    8.9026  -15.2613   23.1225 C   0  0  2  0  0  0  0  0  0  0  0  0
    7.9275  -15.1270   22.0599 N   0  0  0  0  0  0  0  0  0  0  0  0
    9.5829  -16.5808   23.0529 C   0  0  0  0  0  0  0  0  0  0  0  0
   10.8540  -16.7692   23.5730 O   0  0  0  0  0  0  0  0  0  0  0  0
    9.0187  -17.5678   22.5164 O   0  0  0  0  0  0  0  0  0  0  0  0
  2  3  1  0
  2  1  1  6
  4  2  1  0
  4  5  1  6
  6  4  1  0
  7  6  2  0
  8  6  1  0
  9  8  1  0
 10  9  1  0
 10 15  1  0
 11 10  2  0
 12 13  1  0
 14 13  1  1
 14 15  1  0
 14 16  1  0
 16 18  2  0
 16 17  1  0
M  END
$$$$
