GNS.pdb
     RDKit          3D

 19 18  0  0  1  0  0  0  0  0999 V2000
   18.4677  -12.5538  -16.8415 N   0  0  0  0  0  0  0  0  0  0  0  0
   19.1953  -11.4648  -17.4674 C   0  0  0  0  0  0  0  0  0  0  0  0
   20.1256  -10.8115  -16.5012 C   0  0  0  0  0  0  0  0  0  0  0  0
   19.9367  -10.8105  -15.2747 O   0  0  0  0  0  0  0  0  0  0  0  0
   24.4216  -11.9886  -17.1837 N   0  0  0  0  0  0  0  0  0  0  0  0
   24.0132  -11.0747  -16.1431 C   0  0  0  0  0  0  0  0  0  0  0  0
   23.9856  -11.5257  -14.9939 O   0  0  0  0  0  0  0  0  0  0  0  0
   23.6564   -9.6879  -16.4694 C   0  0  0  0  0  0  0  0  0  0  0  0
   22.1842   -9.3868  -16.3106 C   0  0  2  0  0  0  0  0  0  0  0  0
   21.2639  -10.1724  -17.0311 N   0  0  0  0  0  0  0  0  0  0  0  0
   21.8646   -7.9518  -16.2598 C   0  0  0  0  0  0  0  0  0  0  0  0
   21.8505   -7.2763  -17.3438 O   0  0  0  0  0  0  0  0  0  0  0  0
   19.4327   -4.3045  -14.6963 O   0  0  0  0  0  0  0  0  0  0  0  0
   19.7369   -5.6628  -14.7676 C   0  0  0  0  0  0  0  0  0  0  0  0
   21.2026   -5.8603  -15.1028 C   0  0  2  0  0  0  0  0  0  0  0  0
   21.5642   -7.2458  -15.0762 N   0  0  0  0  0  0  0  0  0  0  0  0
   22.0122   -5.0945  -14.1284 C   0  0  0  0  0  0  0  0  0  0  0  0
   21.9892   -3.7143  -14.0854 O   0  0  0  0  0  0  0  0  0  0  0  0
   22.7413   -5.7045  -13.3166 O   0  0  0  0  0  0  0  0  0  0  0  0
  1  2  1  0
  2  3  1  0
  3 10  1  0
  3  4  2  0
  6  5  1  0
  7  6  2  0
  8  6  1  0
  9  8  1  6
 10  9  1  0
 11  9  1  0
 11 12  2  0
 14 13  1  0
 15 14  1  1
 15 16  1  0
 16 11  1  0
 17 15  1  0
 18 17  1  0
 19 17  2  0
M  END
$$$$
