GNS.pdb
     RDKit          3D

 19 18  0  0  1  0  0  0  0  0999 V2000
   18.4582  -11.6139  -16.3568 N   0  0  0  0  0  0  0  0  0  0  0  0
   18.3425  -10.1675  -16.3970 C   0  0  0  0  0  0  0  0  0  0  0  0
   19.5298   -9.5134  -15.7738 C   0  0  0  0  0  0  0  0  0  0  0  0
   19.5633   -9.1640  -14.5835 O   0  0  0  0  0  0  0  0  0  0  0  0
   22.5098  -11.3371  -15.6729 N   0  0  0  0  0  0  0  0  0  0  0  0
   23.4230  -10.5750  -16.4915 C   0  0  0  0  0  0  0  0  0  0  0  0
   24.4236  -11.1713  -16.9016 O   0  0  0  0  0  0  0  0  0  0  0  0
   23.1456   -9.1664  -16.8012 C   0  0  0  0  0  0  0  0  0  0  0  0
   21.8499   -8.6594  -16.2118 C   0  0  2  0  0  0  0  0  0  0  0  0
   20.6523   -9.2929  -16.5961 N   0  0  0  0  0  0  0  0  0  0  0  0
   21.7677   -7.1944  -16.1074 C   0  0  0  0  0  0  0  0  0  0  0  0
   21.3939   -6.5159  -17.1230 O   0  0  0  0  0  0  0  0  0  0  0  0
   19.9432   -3.5118  -14.6551 O   0  0  0  0  0  0  0  0  0  0  0  0
   20.2464   -4.8547  -14.8721 C   0  0  0  0  0  0  0  0  0  0  0  0
   21.7462   -5.0739  -14.8213 C   0  0  2  0  0  0  0  0  0  0  0  0
   22.0773   -6.4620  -14.9423 N   0  0  0  0  0  0  0  0  0  0  0  0
   22.2550   -4.5293  -13.5422 C   0  0  0  0  0  0  0  0  0  0  0  0
   22.7379   -5.3487  -12.5410 O   0  0  0  0  0  0  0  0  0  0  0  0
   22.2521   -3.2937  -13.3525 O   0  0  0  0  0  0  0  0  0  0  0  0
  1  2  1  0
  2  3  1  0
  3 10  1  0
  3  4  2  0
  6  5  1  0
  7  6  2  0
  8  6  1  0
  9  8  1  6
 10  9  1  0
 11  9  1  0
 11 12  2  0
 14 13  1  0
 15 14  1  1
 15 16  1  0
 16 11  1  0
 17 15  1  0
 18 17  1  0
 19 17  2  0
M  END
$$$$
