GNS.pdb
     RDKit          3D

 19 18  0  0  1  0  0  0  0  0999 V2000
   18.0100  -11.7740  -16.5955 N   0  0  0  0  0  0  0  0  0  0  0  0
   18.9337  -10.8450  -17.2206 C   0  0  0  0  0  0  0  0  0  0  0  0
   19.1393   -9.6351  -16.3722 C   0  0  0  0  0  0  0  0  0  0  0  0
   18.2560   -9.1648  -15.6383 O   0  0  0  0  0  0  0  0  0  0  0  0
   22.7791   -9.8424  -13.9638 N   0  0  0  0  0  0  0  0  0  0  0  0
   22.0161   -8.6188  -13.8900 C   0  0  0  0  0  0  0  0  0  0  0  0
   21.3992   -8.4172  -12.8395 O   0  0  0  0  0  0  0  0  0  0  0  0
   21.9970   -7.6848  -15.0234 C   0  0  0  0  0  0  0  0  0  0  0  0
   20.7413   -7.7711  -15.8594 C   0  0  2  0  0  0  0  0  0  0  0  0
   20.4036   -9.0158  -16.4249 N   0  0  0  0  0  0  0  0  0  0  0  0
   20.5227   -6.6131  -16.7399 C   0  0  0  0  0  0  0  0  0  0  0  0
   21.0875   -6.5839  -17.8851 O   0  0  0  0  0  0  0  0  0  0  0  0
   17.4554   -5.4030  -18.2155 O   0  0  0  0  0  0  0  0  0  0  0  0
   17.9864   -4.2697  -17.6022 C   0  0  0  0  0  0  0  0  0  0  0  0
   19.4704   -4.4512  -17.3483 C   0  0  2  0  0  0  0  0  0  0  0  0
   19.7165   -5.5039  -16.4090 N   0  0  0  0  0  0  0  0  0  0  0  0
   20.0189   -3.1707  -16.8472 C   0  0  0  0  0  0  0  0  0  0  0  0
   20.3483   -2.1349  -17.6992 O   0  0  0  0  0  0  0  0  0  0  0  0
   20.1931   -3.0119  -15.6196 O   0  0  0  0  0  0  0  0  0  0  0  0
  1  2  1  0
  2  3  1  0
  3 10  1  0
  3  4  2  0
  6  5  1  0
  7  6  2  0
  8  6  1  0
  9  8  1  6
 10  9  1  0
 11  9  1  0
 11 12  2  0
 14 13  1  0
 15 14  1  1
 15 16  1  0
 16 11  1  0
 17 15  1  0
 18 17  1  0
 19 17  2  0
M  END
$$$$
