GNS.pdb
     RDKit          3D

 19 18  0  0  1  0  0  0  0  0999 V2000
   21.2004  -12.9779  -17.1988 N   0  0  0  0  0  0  0  0  0  0  0  0
   22.2187  -11.9593  -17.0182 C   0  0  0  0  0  0  0  0  0  0  0  0
   21.6125  -10.5985  -16.9361 C   0  0  0  0  0  0  0  0  0  0  0  0
   21.4069   -9.8878  -17.9324 O   0  0  0  0  0  0  0  0  0  0  0  0
   17.6487  -10.9368  -15.1143 N   0  0  0  0  0  0  0  0  0  0  0  0
   18.2481   -9.7145  -15.5955 C   0  0  0  0  0  0  0  0  0  0  0  0
   17.8992   -9.3347  -16.7175 O   0  0  0  0  0  0  0  0  0  0  0  0
   19.2182   -8.9860  -14.7677 C   0  0  0  0  0  0  0  0  0  0  0  0
   20.6000   -8.9130  -15.3749 C   0  0  2  0  0  0  0  0  0  0  0  0
   21.2667  -10.1210  -15.6566 N   0  0  0  0  0  0  0  0  0  0  0  0
   21.4514   -7.8549  -14.8097 C   0  0  0  0  0  0  0  0  0  0  0  0
   22.0975   -8.0823  -13.7316 O   0  0  0  0  0  0  0  0  0  0  0  0
   23.4376   -5.3410  -17.0303 O   0  0  0  0  0  0  0  0  0  0  0  0
   23.0215   -4.6524  -15.8923 C   0  0  0  0  0  0  0  0  0  0  0  0
   22.5338   -5.6235  -14.8345 C   0  0  2  0  0  0  0  0  0  0  0  0
   21.6142   -6.5756  -15.3813 N   0  0  0  0  0  0  0  0  0  0  0  0
   21.8927   -4.8484  -13.7484 C   0  0  0  0  0  0  0  0  0  0  0  0
   20.5481   -4.9727  -13.4589 O   0  0  0  0  0  0  0  0  0  0  0  0
   22.5788   -4.0556  -13.0676 O   0  0  0  0  0  0  0  0  0  0  0  0
  1  2  1  0
  2  3  1  0
  3 10  1  0
  3  4  2  0
  6  5  1  0
  7  6  2  0
  8  6  1  0
  9  8  1  1
 10  9  1  0
 11  9  1  0
 11 12  2  0
 14 13  1  0
 15 14  1  6
 15 16  1  0
 16 11  1  0
 17 15  1  0
 18 17  1  0
 19 17  2  0
M  END
$$$$
