GNS.pdb
     RDKit          3D

 19 18  0  0  1  0  0  0  0  0999 V2000
   18.5833  -11.7783  -16.9727 N   0  0  0  0  0  0  0  0  0  0  0  0
   18.5837  -10.3362  -17.1383 C   0  0  0  0  0  0  0  0  0  0  0  0
   19.4234   -9.6736  -16.0983 C   0  0  0  0  0  0  0  0  0  0  0  0
   19.0245   -9.4567  -14.9434 O   0  0  0  0  0  0  0  0  0  0  0  0
   22.0127  -11.2278  -14.7832 N   0  0  0  0  0  0  0  0  0  0  0  0
   23.1910  -10.4642  -15.1199 C   0  0  0  0  0  0  0  0  0  0  0  0
   24.2766  -11.0344  -14.9750 O   0  0  0  0  0  0  0  0  0  0  0  0
   23.0686   -9.0839  -15.6069 C   0  0  0  0  0  0  0  0  0  0  0  0
   21.6436   -8.5847  -15.6636 C   0  0  2  0  0  0  0  0  0  0  0  0
   20.7256   -9.2852  -16.4698 N   0  0  0  0  0  0  0  0  0  0  0  0
   21.5198   -7.1198  -15.7166 C   0  0  0  0  0  0  0  0  0  0  0  0
   21.6144   -6.5254  -16.8432 O   0  0  0  0  0  0  0  0  0  0  0  0
   19.6802   -3.0239  -14.5806 O   0  0  0  0  0  0  0  0  0  0  0  0
   19.7598   -4.4123  -14.4882 C   0  0  0  0  0  0  0  0  0  0  0  0
   21.1859   -4.8770  -14.7118 C   0  0  2  0  0  0  0  0  0  0  0  0
   21.2986   -6.2996  -14.5906 N   0  0  0  0  0  0  0  0  0  0  0  0
   22.0578   -4.2019  -13.7242 C   0  0  0  0  0  0  0  0  0  0  0  0
   22.3089   -2.8450  -13.7796 O   0  0  0  0  0  0  0  0  0  0  0  0
   22.5873   -4.8697  -12.8097 O   0  0  0  0  0  0  0  0  0  0  0  0
  1  2  1  0
  2  3  1  0
  3 10  1  0
  3  4  2  0
  6  5  1  0
  7  6  2  0
  8  6  1  0
  9  8  1  6
 10  9  1  0
 11  9  1  0
 11 12  2  0
 14 13  1  0
 15 14  1  1
 15 16  1  0
 16 11  1  0
 17 15  1  0
 18 17  1  0
 19 17  2  0
M  END
$$$$
