GNS.pdb
     RDKit          3D

 19 18  0  0  1  0  0  0  0  0999 V2000
   17.6592   -9.2685  -17.8266 N   0  0  0  0  0  0  0  0  0  0  0  0
   18.7500   -9.3454  -16.8720 C   0  0  0  0  0  0  0  0  0  0  0  0
   18.9414   -8.0456  -16.1650 C   0  0  0  0  0  0  0  0  0  0  0  0
   18.0232   -7.2298  -15.9878 O   0  0  0  0  0  0  0  0  0  0  0  0
   21.2550   -4.1301  -13.7855 N   0  0  0  0  0  0  0  0  0  0  0  0
   22.0308   -5.2988  -13.4435 C   0  0  0  0  0  0  0  0  0  0  0  0
   22.8559   -5.1653  -12.5345 O   0  0  0  0  0  0  0  0  0  0  0  0
   21.8237   -6.5644  -14.1593 C   0  0  0  0  0  0  0  0  0  0  0  0
   20.6504   -6.5381  -15.1112 C   0  0  2  0  0  0  0  0  0  0  0  0
   20.2340   -7.7542  -15.6864 N   0  0  0  0  0  0  0  0  0  0  0  0
   20.6431   -5.3871  -16.0272 C   0  0  0  0  0  0  0  0  0  0  0  0
   21.2298   -5.4849  -17.1576 O   0  0  0  0  0  0  0  0  0  0  0  0
   18.7095   -2.6605  -18.8127 O   0  0  0  0  0  0  0  0  0  0  0  0
   18.9186   -3.6593  -17.8634 C   0  0  0  0  0  0  0  0  0  0  0  0
   19.8358   -3.1606  -16.7634 C   0  0  2  0  0  0  0  0  0  0  0  0
   20.0221   -4.1521  -15.7468 N   0  0  0  0  0  0  0  0  0  0  0  0
   19.2477   -1.9307  -16.1863 C   0  0  0  0  0  0  0  0  0  0  0  0
   19.4936   -0.6826  -16.7240 O   0  0  0  0  0  0  0  0  0  0  0  0
   18.5060   -2.0127  -15.1835 O   0  0  0  0  0  0  0  0  0  0  0  0
  1  2  1  0
  2  3  1  0
  3 10  1  0
  3  4  2  0
  6  5  1  0
  7  6  2  0
  8  6  1  0
  9  8  1  6
 10  9  1  0
 11  9  1  0
 11 12  2  0
 14 13  1  0
 15 14  1  6
 15 16  1  0
 16 11  1  0
 17 15  1  0
 18 17  1  0
 19 17  2  0
M  END
$$$$
