GNS.pdb
     RDKit          3D

 19 18  0  0  1  0  0  0  0  0999 V2000
   34.5150  -26.5305  -15.2304 N   0  0  0  0  0  0  0  0  0  0  0  0
   33.4627  -25.5400  -15.3665 C   0  0  0  0  0  0  0  0  0  0  0  0
   32.2947  -26.0922  -16.1126 C   0  0  0  0  0  0  0  0  0  0  0  0
   32.2952  -27.2187  -16.6332 O   0  0  0  0  0  0  0  0  0  0  0  0
   27.3721  -27.8307  -16.3416 N   0  0  0  0  0  0  0  0  0  0  0  0
   27.5638  -26.4115  -16.5262 C   0  0  0  0  0  0  0  0  0  0  0  0
   26.7259  -25.8285  -17.2210 O   0  0  0  0  0  0  0  0  0  0  0  0
   28.7063  -25.7286  -15.9053 C   0  0  0  0  0  0  0  0  0  0  0  0
   29.9216  -25.6441  -16.7992 C   0  0  2  0  0  0  0  0  0  0  0  0
   31.1504  -25.2772  -16.2173 N   0  0  0  0  0  0  0  0  0  0  0  0
   29.6596  -25.0465  -18.1176 C   0  0  0  0  0  0  0  0  0  0  0  0
   29.6591  -23.7749  -18.2379 O   0  0  0  0  0  0  0  0  0  0  0  0
   30.7798  -26.4719  -21.7663 O   0  0  0  0  0  0  0  0  0  0  0  0
   29.4376  -26.1013  -21.7065 C   0  0  0  0  0  0  0  0  0  0  0  0
   29.2032  -25.1446  -20.5535 C   0  0  2  0  0  0  0  0  0  0  0  0
   29.4028  -25.7881  -19.2896 N   0  0  0  0  0  0  0  0  0  0  0  0
   27.8230  -24.6190  -20.6553 C   0  0  0  0  0  0  0  0  0  0  0  0
   27.5536  -23.3752  -21.1916 O   0  0  0  0  0  0  0  0  0  0  0  0
   26.8665  -25.3126  -20.2471 O   0  0  0  0  0  0  0  0  0  0  0  0
  1  2  1  0
  2  3  1  0
  3 10  1  0
  3  4  2  0
  6  5  1  0
  7  6  2  0
  8  6  1  0
  9  8  1  1
 10  9  1  0
 11  9  1  0
 11 12  2  0
 14 13  1  0
 15 14  1  6
 15 16  1  0
 16 11  1  0
 17 15  1  0
 18 17  1  0
 19 17  2  0
M  END
$$$$
