GNS.pdb
     RDKit          3D

 19 18  0  0  1  0  0  0  0  0999 V2000
   27.2015  -32.7258  -14.0850 N   0  0  0  0  0  0  0  0  0  0  0  0
   25.9019  -33.2064  -13.6525 C   0  0  0  0  0  0  0  0  0  0  0  0
   25.7284  -33.0424  -12.1797 C   0  0  0  0  0  0  0  0  0  0  0  0
   26.5886  -32.5248  -11.4503 O   0  0  0  0  0  0  0  0  0  0  0  0
   21.3852  -33.3953   -7.8614 N   0  0  0  0  0  0  0  0  0  0  0  0
   22.4559  -32.7116   -8.5476 C   0  0  0  0  0  0  0  0  0  0  0  0
   23.1226  -31.9186   -7.8757 O   0  0  0  0  0  0  0  0  0  0  0  0
   22.7114  -32.9696   -9.9708 C   0  0  0  0  0  0  0  0  0  0  0  0
   24.1361  -33.3762  -10.2674 C   0  0  2  0  0  0  0  0  0  0  0  0
   24.5234  -33.5051  -11.6152 N   0  0  0  0  0  0  0  0  0  0  0  0
   24.6655  -34.4151   -9.3706 C   0  0  0  0  0  0  0  0  0  0  0  0
   24.4972  -35.6450   -9.6716 O   0  0  0  0  0  0  0  0  0  0  0  0
   28.2015  -35.2250   -6.9216 O   0  0  0  0  0  0  0  0  0  0  0  0
   26.9817  -34.7433   -6.4498 C   0  0  0  0  0  0  0  0  0  0  0  0
   25.8473  -35.2115   -7.3407 C   0  0  2  0  0  0  0  0  0  0  0  0
   25.3632  -34.1515   -8.1733 N   0  0  0  0  0  0  0  0  0  0  0  0
   24.7612  -35.7317   -6.4799 C   0  0  0  0  0  0  0  0  0  0  0  0
   24.9423  -36.8271   -5.6586 O   0  0  0  0  0  0  0  0  0  0  0  0
   23.6439  -35.1711   -6.4889 O   0  0  0  0  0  0  0  0  0  0  0  0
  1  2  1  0
  2  3  1  0
  3 10  1  0
  3  4  2  0
  6  5  1  0
  7  6  2  0
  8  6  1  0
  9  8  1  6
 10  9  1  0
 11  9  1  0
 11 12  2  0
 14 13  1  0
 15 14  1  1
 15 16  1  0
 16 11  1  0
 17 15  1  0
 18 17  1  0
 19 17  2  0
M  END
$$$$
