REQ.pdb
     RDKit          3D

 30 29  0  0  1  0  0  0  0  0999 V2000
    8.5956  -11.5579   20.2230 N   0  0  0  0  0  0  0  0  0  0  0  0
    8.2214  -12.7973   19.6269 C   0  0  0  0  0  0  0  0  0  0  0  0
    8.6253  -13.0758   18.4420 N   0  0  0  0  0  0  0  0  0  0  0  0
    7.4068  -13.7075   20.3523 N   0  0  0  0  0  0  0  0  0  0  0  0
    6.9925  -14.9779   19.7249 C   0  0  0  0  0  0  0  0  0  0  0  0
    7.3875  -16.1162   20.5947 C   0  0  0  0  0  0  0  0  0  0  0  0
    8.3968  -17.0487   20.0730 C   0  0  0  0  0  0  0  0  0  0  0  0
    8.7124  -18.2841   20.8305 C   0  0  2  0  0  0  0  0  0  0  0  0
    7.6174  -19.1440   21.1388 N   0  0  0  0  0  0  0  0  0  0  0  0
    9.6527  -18.0508   21.9538 C   0  0  0  0  0  0  0  0  0  0  0  0
    9.2408  -18.2919   23.1367 O   0  0  0  0  0  0  0  0  0  0  0  0
    8.3355  -13.9967   17.9941 N   0  0  0  0  0  0  0  0  0  0  0  0
   10.9846  -17.5790   21.8543 C   0  0  2  0  0  0  0  0  0  0  0  0
   11.8344  -17.3479   22.9865 C   0  0  0  0  0  0  0  0  0  0  0  0
   13.1846  -16.7907   22.7352 C   0  0  0  0  0  0  0  0  0  0  0  0
   14.1529  -16.7092   23.8346 C   0  0  0  0  0  0  0  0  0  0  0  0
   15.4450  -16.0735   23.5251 O   0  0  0  0  0  0  0  0  0  0  0  0
   16.1664  -15.5357   24.4047 C   0  0  0  0  0  0  0  0  0  0  0  0
   11.1248  -16.7115   24.1254 O   0  0  0  0  0  0  0  0  0  0  0  0
   10.1888  -15.8960   23.9998 O   0  0  0  0  0  0  0  0  0  0  0  0
   15.9395  -16.0369   22.2205 N   0  0  0  0  0  0  0  0  0  0  0  0
    6.5534  -17.3889   25.3224 C   0  0  0  0  0  0  0  0  0  0  0  0
    7.2120  -16.1336   25.0519 O   0  0  0  0  0  0  0  0  0  0  0  0
    6.5493  -15.1568   24.6549 C   0  0  0  0  0  0  0  0  0  0  0  0
    8.6706  -16.0929   25.2698 C   0  0  0  0  0  0  0  0  0  0  0  0
    9.1973  -17.3740   25.8025 C   0  0  2  0  0  0  0  0  0  0  0  0
   10.5239  -17.2882   26.5125 N   0  0  0  0  0  0  0  0  0  0  0  0
   11.5098  -17.0283   25.4585 C   0  0  0  0  0  0  0  0  0  0  0  0
   10.8076  -18.5743   27.1929 O   0  0  0  0  0  0  0  0  0  0  0  0
   11.8452  -18.7385   28.0935 O   0  0  0  0  0  0  0  0  0  0  0  0
  2  3  2  0
  2  1  1  0
  4  2  1  0
  5  4  1  0
  6  5  1  0
  7  6  1  0
  8  7  1  0
  8  9  1  1
 10 11  2  0
 10  8  1  0
 12 10  1  0
 13 18  1  0
 13 12  1  0
 13 14  1  6
 15 14  1  0
 16 17  2  0
 16 15  1  0
 18 27  1  0
 19 18  2  0
 20 16  1  0
 22 24  1  0
 22 21  1  0
 23 22  2  0
 26 25  1  1
 25 24  1  0
 27 26  1  0
 28 26  1  0
 29 28  1  0
 30 28  2  0
M  END
$$$$
