REQ.pdb
     RDKit          3D

 30 29  0  0  1  0  0  0  0  0999 V2000
    8.2669  -13.5720   20.2596 N   0  0  0  0  0  0  0  0  0  0  0  0
    7.1588  -13.3900   19.3819 C   0  0  0  0  0  0  0  0  0  0  0  0
    5.9836  -13.7267   19.7698 N   0  0  0  0  0  0  0  0  0  0  0  0
    7.3699  -12.8382   18.0899 N   0  0  0  0  0  0  0  0  0  0  0  0
    8.1681  -13.5847   17.0976 C   0  0  0  0  0  0  0  0  0  0  0  0
    7.9449  -15.0434   17.2730 C   0  0  0  0  0  0  0  0  0  0  0  0
    8.8868  -15.7740   18.1330 C   0  0  0  0  0  0  0  0  0  0  0  0
   10.0371  -16.4829   17.5215 C   0  0  2  0  0  0  0  0  0  0  0  0
    9.7623  -17.7410   16.9094 N   0  0  0  0  0  0  0  0  0  0  0  0
   11.2511  -16.4601   18.3736 C   0  0  0  0  0  0  0  0  0  0  0  0
   11.3583  -17.3476   19.2835 O   0  0  0  0  0  0  0  0  0  0  0  0
    5.1489  -13.5300   19.1396 N   0  0  0  0  0  0  0  0  0  0  0  0
   12.3257  -15.5413   18.2859 C   0  0  2  0  0  0  0  0  0  0  0  0
   13.3468  -15.4122   19.2849 C   0  0  0  0  0  0  0  0  0  0  0  0
   14.5118  -14.5499   18.9753 C   0  0  0  0  0  0  0  0  0  0  0  0
   15.6584  -14.5222   19.8903 C   0  0  0  0  0  0  0  0  0  0  0  0
   16.8300  -13.7451   19.4508 O   0  0  0  0  0  0  0  0  0  0  0  0
   18.0125  -14.1083   19.6811 C   0  0  0  0  0  0  0  0  0  0  0  0
   12.8008  -15.2155   20.6519 O   0  0  0  0  0  0  0  0  0  0  0  0
   12.1393  -14.2181   21.0050 O   0  0  0  0  0  0  0  0  0  0  0  0
   16.6824  -12.5496   18.7459 N   0  0  0  0  0  0  0  0  0  0  0  0
    8.3428  -16.1261   22.0058 C   0  0  0  0  0  0  0  0  0  0  0  0
    8.6958  -15.2262   23.0773 O   0  0  0  0  0  0  0  0  0  0  0  0
    7.8290  -14.4849   23.5774 C   0  0  0  0  0  0  0  0  0  0  0  0
   10.1033  -15.2458   23.5192 C   0  0  0  0  0  0  0  0  0  0  0  0
   10.9278  -16.1980   22.7344 C   0  0  2  0  0  0  0  0  0  0  0  0
   12.4134  -16.1278   22.9778 N   0  0  0  0  0  0  0  0  0  0  0  0
   13.0266  -16.2067   21.6481 C   0  0  0  0  0  0  0  0  0  0  0  0
   12.8338  -17.2730   23.8199 O   0  0  0  0  0  0  0  0  0  0  0  0
   12.8176  -17.2384   25.2031 O   0  0  0  0  0  0  0  0  0  0  0  0
  2  3  2  0
  2  1  1  0
  4  2  1  0
  5  4  1  0
  6  5  1  0
  7  6  1  0
  8  7  1  0
  8  9  1  1
 10 11  2  0
 10  8  1  0
 12 10  1  0
 13 18  1  0
 13 12  1  0
 13 14  1  6
 15 14  1  0
 16 17  2  0
 16 15  1  0
 18 27  1  0
 19 18  2  0
 20 16  1  0
 22 24  1  0
 22 21  1  0
 23 22  2  0
 26 25  1  6
 25 24  1  0
 27 26  1  0
 28 26  1  0
 29 28  1  0
 30 28  2  0
M  END
$$$$
