REQ.pdb
     RDKit          3D

 30 29  0  0  1  0  0  0  0  0999 V2000
   10.2183  -13.4076   18.6713 N   0  0  0  0  0  0  0  0  0  0  0  0
    8.8477  -13.1178   18.4088 C   0  0  0  0  0  0  0  0  0  0  0  0
    8.3809  -11.9582   18.6956 N   0  0  0  0  0  0  0  0  0  0  0  0
    8.0168  -14.1163   17.8333 N   0  0  0  0  0  0  0  0  0  0  0  0
    8.5359  -15.4869   17.6570 C   0  0  0  0  0  0  0  0  0  0  0  0
    7.6131  -16.4569   18.3020 C   0  0  0  0  0  0  0  0  0  0  0  0
    8.1036  -17.8279   18.5022 C   0  0  0  0  0  0  0  0  0  0  0  0
    8.3394  -18.3269   19.8788 C   0  0  2  0  0  0  0  0  0  0  0  0
    7.2711  -18.1676   20.8098 N   0  0  0  0  0  0  0  0  0  0  0  0
    9.6787  -17.9660   20.4045 C   0  0  0  0  0  0  0  0  0  0  0  0
   10.6472  -18.7615   20.1671 O   0  0  0  0  0  0  0  0  0  0  0  0
    7.3404  -11.7694   18.5760 N   0  0  0  0  0  0  0  0  0  0  0  0
   10.0060  -16.8116   21.1573 C   0  0  2  0  0  0  0  0  0  0  0  0
   11.3256  -16.5229   21.6396 C   0  0  0  0  0  0  0  0  0  0  0  0
   12.2140  -15.7082   20.7772 C   0  0  0  0  0  0  0  0  0  0  0  0
   13.5446  -15.3245   21.2622 C   0  0  0  0  0  0  0  0  0  0  0  0
   14.4810  -14.7923   20.2573 O   0  0  0  0  0  0  0  0  0  0  0  0
   14.3916  -13.6255   19.7950 C   0  0  0  0  0  0  0  0  0  0  0  0
   11.3473  -16.1243   23.0701 O   0  0  0  0  0  0  0  0  0  0  0  0
   11.7954  -15.0372   23.4874 O   0  0  0  0  0  0  0  0  0  0  0  0
   15.5294  -15.5692   19.7621 N   0  0  0  0  0  0  0  0  0  0  0  0
    7.2700  -14.3733   25.9315 C   0  0  0  0  0  0  0  0  0  0  0  0
    7.4251  -14.9684   24.6260 O   0  0  0  0  0  0  0  0  0  0  0  0
    6.5404  -14.8139   23.7632 C   0  0  0  0  0  0  0  0  0  0  0  0
    8.6588  -15.7442   24.3965 C   0  0  0  0  0  0  0  0  0  0  0  0
    9.5054  -15.8304   25.6123 C   0  0  1  0  0  0  0  0  0  0  0  0
   10.7637  -16.6482   25.4736 N   0  0  0  0  0  0  0  0  0  0  0  0
   10.8323  -17.0134   24.0550 C   0  0  0  0  0  0  0  0  0  0  0  0
   10.6663  -17.8583   26.3243 O   0  0  0  0  0  0  0  0  0  0  0  0
   10.7165  -17.8148   27.7064 O   0  0  0  0  0  0  0  0  0  0  0  0
  2  3  2  0
  2  1  1  0
  4  2  1  0
  5  4  1  0
  6  5  1  0
  7  6  1  0
  8  7  1  0
  8  9  1  1
 10 11  2  0
 10  8  1  0
 12 10  1  0
 13 18  1  0
 13 12  1  0
 13 14  1  6
 15 14  1  0
 16 17  2  0
 16 15  1  0
 18 27  1  0
 19 18  2  0
 20 16  1  0
 22 24  1  0
 22 21  1  0
 23 22  2  0
 26 25  1  6
 25 24  1  0
 27 26  1  0
 28 26  1  0
 29 28  1  0
 30 28  2  0
M  END
$$$$
