REQ.pdb
     RDKit          3D

 30 29  0  0  1  0  0  0  0  0999 V2000
   10.5289  -14.1381   20.4450 N   0  0  0  0  0  0  0  0  0  0  0  0
   10.9907  -13.6576   19.1851 C   0  0  0  0  0  0  0  0  0  0  0  0
   12.2462  -13.6745   18.9242 N   0  0  0  0  0  0  0  0  0  0  0  0
   10.0551  -13.1667   18.2353 N   0  0  0  0  0  0  0  0  0  0  0  0
    8.6317  -13.0443   18.6071 C   0  0  0  0  0  0  0  0  0  0  0  0
    8.0166  -14.3951   18.6786 C   0  0  0  0  0  0  0  0  0  0  0  0
    7.6960  -14.9235   20.0121 C   0  0  0  0  0  0  0  0  0  0  0  0
    7.2227  -16.3223   20.1506 C   0  0  2  0  0  0  0  0  0  0  0  0
    6.1095  -16.7046   19.3457 N   0  0  0  0  0  0  0  0  0  0  0  0
    7.1508  -16.7726   21.5621 C   0  0  0  0  0  0  0  0  0  0  0  0
    6.1003  -16.4869   22.2268 O   0  0  0  0  0  0  0  0  0  0  0  0
   12.5851  -13.3587   17.9660 N   0  0  0  0  0  0  0  0  0  0  0  0
    8.1417  -17.4992   22.2668 C   0  0  2  0  0  0  0  0  0  0  0  0
    8.1389  -17.6752   23.6903 C   0  0  0  0  0  0  0  0  0  0  0  0
    8.4795  -19.0161   24.2220 C   0  0  0  0  0  0  0  0  0  0  0  0
    8.5460  -19.2269   25.6724 C   0  0  0  0  0  0  0  0  0  0  0  0
    8.9145  -20.5802   26.1225 O   0  0  0  0  0  0  0  0  0  0  0  0
    8.5790  -21.6196   25.4978 C   0  0  0  0  0  0  0  0  0  0  0  0
    8.7954  -16.5576   24.4153 O   0  0  0  0  0  0  0  0  0  0  0  0
    9.9665  -16.1804   24.2079 O   0  0  0  0  0  0  0  0  0  0  0  0
    9.6660  -20.7777   27.2819 N   0  0  0  0  0  0  0  0  0  0  0  0
    5.3228  -12.0046   26.0856 C   0  0  0  0  0  0  0  0  0  0  0  0
    6.5067  -11.4905   26.7312 O   0  0  0  0  0  0  0  0  0  0  0  0
    6.4825  -10.3690   27.2721 C   0  0  0  0  0  0  0  0  0  0  0  0
    7.7017  -12.3553   26.7041 C   0  0  0  0  0  0  0  0  0  0  0  0
    7.4172  -13.6928   26.1275 C   0  0  2  0  0  0  0  0  0  0  0  0
    8.5963  -14.6270   26.0356 N   0  0  0  0  0  0  0  0  0  0  0  0
    8.0732  -15.8490   25.4164 C   0  0  0  0  0  0  0  0  0  0  0  0
    9.1158  -14.9070   27.3955 O   0  0  0  0  0  0  0  0  0  0  0  0
    9.9815  -14.0579   28.0620 O   0  0  0  0  0  0  0  0  0  0  0  0
  2  3  2  0
  2  1  1  0
  4  2  1  0
  5  4  1  0
  6  5  1  0
  7  6  1  0
  8  7  1  0
  8  9  1  1
 10 11  2  0
 10  8  1  0
 12 10  1  0
 13 18  1  0
 13 12  1  0
 13 14  1  6
 15 14  1  0
 16 17  2  0
 16 15  1  0
 18 27  1  0
 19 18  2  0
 20 16  1  0
 22 24  1  0
 22 21  1  0
 23 22  2  0
 26 25  1  6
 25 24  1  0
 27 26  1  0
 28 26  1  0
 29 28  1  0
 30 28  2  0
M  END
$$$$
