REQ.pdb
     RDKit          3D

 30 29  0  0  1  0  0  0  0  0999 V2000
    8.6514  -11.5436   20.1462 N   0  0  0  0  0  0  0  0  0  0  0  0
    8.3153  -12.5767   19.2236 C   0  0  0  0  0  0  0  0  0  0  0  0
    8.5621  -12.4142   17.9757 N   0  0  0  0  0  0  0  0  0  0  0  0
    7.7120  -13.7723   19.6978 N   0  0  0  0  0  0  0  0  0  0  0  0
    7.5958  -14.0063   21.1508 C   0  0  0  0  0  0  0  0  0  0  0  0
    8.2877  -15.2715   21.5095 C   0  0  0  0  0  0  0  0  0  0  0  0
    7.6253  -16.5322   21.1460 C   0  0  0  0  0  0  0  0  0  0  0  0
    8.2397  -17.8225   21.5426 C   0  0  2  0  0  0  0  0  0  0  0  0
    7.4474  -18.9934   21.3563 N   0  0  0  0  0  0  0  0  0  0  0  0
    8.9448  -17.7522   22.8457 C   0  0  0  0  0  0  0  0  0  0  0  0
    8.2404  -17.7915   23.9084 O   0  0  0  0  0  0  0  0  0  0  0  0
    8.2663  -13.1654   17.2823 N   0  0  0  0  0  0  0  0  0  0  0  0
   10.3433  -17.6431   23.0428 C   0  0  2  0  0  0  0  0  0  0  0  0
   10.9680  -17.6412   24.3340 C   0  0  0  0  0  0  0  0  0  0  0  0
   12.3078  -18.2635   24.4548 C   0  0  0  0  0  0  0  0  0  0  0  0
   13.1983  -18.3024   23.2893 C   0  0  0  0  0  0  0  0  0  0  0  0
   14.4821  -19.0021   23.4676 O   0  0  0  0  0  0  0  0  0  0  0  0
   15.0012  -19.7110   22.5669 C   0  0  0  0  0  0  0  0  0  0  0  0
   10.8456  -16.3387   25.0369 O   0  0  0  0  0  0  0  0  0  0  0  0
   11.5154  -15.3246   24.7540 O   0  0  0  0  0  0  0  0  0  0  0  0
   15.1963  -18.9105   24.6633 N   0  0  0  0  0  0  0  0  0  0  0  0
    5.9230  -13.5842   26.0439 C   0  0  0  0  0  0  0  0  0  0  0  0
    6.6826  -12.7291   26.9239 O   0  0  0  0  0  0  0  0  0  0  0  0
    6.1941  -11.6545   27.3209 C   0  0  0  0  0  0  0  0  0  0  0  0
    8.0281  -13.2007   27.3033 C   0  0  0  0  0  0  0  0  0  0  0  0
    8.4023  -14.4574   26.6083 C   0  0  1  0  0  0  0  0  0  0  0  0
    9.7963  -14.9618   26.8795 N   0  0  0  0  0  0  0  0  0  0  0  0
    9.9155  -16.2016   26.1054 C   0  0  0  0  0  0  0  0  0  0  0  0
    9.9550  -15.2291   28.3289 O   0  0  0  0  0  0  0  0  0  0  0  0
   10.3519  -14.2619   29.2354 O   0  0  0  0  0  0  0  0  0  0  0  0
  2  3  2  0
  2  1  1  0
  4  2  1  0
  5  4  1  0
  6  5  1  0
  7  6  1  0
  8  7  1  0
  8  9  1  1
 10 11  2  0
 10  8  1  0
 12 10  1  0
 13 18  1  0
 13 12  1  0
 13 14  1  6
 15 14  1  0
 16 17  2  0
 16 15  1  0
 18 27  1  0
 19 18  2  0
 20 16  1  0
 22 24  1  0
 22 21  1  0
 23 22  2  0
 26 25  1  6
 25 24  1  0
 27 26  1  0
 28 26  1  0
 29 28  1  0
 30 28  2  0
M  END
$$$$
