REQ.pdb
     RDKit          3D

 30 29  0  0  1  0  0  0  0  0999 V2000
    8.3421  -13.2314   17.1624 N   0  0  0  0  0  0  0  0  0  0  0  0
    8.1197  -12.9987   18.5509 C   0  0  0  0  0  0  0  0  0  0  0  0
    7.9556  -11.7985   18.9720 N   0  0  0  0  0  0  0  0  0  0  0  0
    8.0824  -14.0983   19.4497 N   0  0  0  0  0  0  0  0  0  0  0  0
    7.7762  -13.8673   20.8753 C   0  0  0  0  0  0  0  0  0  0  0  0
    7.8480  -15.1536   21.6159 C   0  0  0  0  0  0  0  0  0  0  0  0
    8.6888  -16.2166   21.0471 C   0  0  0  0  0  0  0  0  0  0  0  0
    8.8287  -17.5042   21.7696 C   0  0  2  0  0  0  0  0  0  0  0  0
    7.6848  -18.3553   21.7893 N   0  0  0  0  0  0  0  0  0  0  0  0
    9.5198  -17.3643   23.0747 C   0  0  0  0  0  0  0  0  0  0  0  0
    8.8417  -17.5739   24.1345 O   0  0  0  0  0  0  0  0  0  0  0  0
    7.8238  -11.6236   20.0135 N   0  0  0  0  0  0  0  0  0  0  0  0
   10.8777  -17.0154   23.2765 C   0  0  2  0  0  0  0  0  0  0  0  0
   11.4983  -16.9441   24.5677 C   0  0  0  0  0  0  0  0  0  0  0  0
   12.9719  -16.7936   24.6192 C   0  0  0  0  0  0  0  0  0  0  0  0
   13.6019  -15.6066   24.0302 C   0  0  0  0  0  0  0  0  0  0  0  0
   14.9413  -15.7958   23.4473 O   0  0  0  0  0  0  0  0  0  0  0  0
   15.9812  -15.3060   23.9592 C   0  0  0  0  0  0  0  0  0  0  0  0
   10.7713  -16.0598   25.5139 O   0  0  0  0  0  0  0  0  0  0  0  0
   10.2097  -14.9948   25.1863 O   0  0  0  0  0  0  0  0  0  0  0  0
   15.1244  -16.5396   22.2806 N   0  0  0  0  0  0  0  0  0  0  0  0
    8.6248  -12.9018   27.7143 C   0  0  0  0  0  0  0  0  0  0  0  0
    8.0681  -13.5005   26.5250 O   0  0  0  0  0  0  0  0  0  0  0  0
    7.5783  -12.7784   25.6364 C   0  0  0  0  0  0  0  0  0  0  0  0
    8.1179  -14.9727   26.4417 C   0  0  0  0  0  0  0  0  0  0  0  0
    8.6258  -15.5916   27.6912 C   0  0  2  0  0  0  0  0  0  0  0  0
   10.1172  -15.5182   27.8952 N   0  0  0  0  0  0  0  0  0  0  0  0
   10.6892  -16.4184   26.8888 C   0  0  0  0  0  0  0  0  0  0  0  0
   10.4548  -15.9767   29.2639 O   0  0  0  0  0  0  0  0  0  0  0  0
   10.2206  -15.2139   30.3944 O   0  0  0  0  0  0  0  0  0  0  0  0
  2  3  2  0
  2  1  1  0
  4  2  1  0
  5  4  1  0
  6  5  1  0
  7  6  1  0
  8  7  1  0
  8  9  1  1
 10 11  2  0
 10  8  1  0
 12 10  1  0
 13 18  1  0
 13 12  1  0
 13 14  1  6
 15 14  1  0
 16 17  2  0
 16 15  1  0
 18 27  1  0
 19 18  2  0
 20 16  1  0
 22 24  1  0
 22 21  1  0
 23 22  2  0
 26 25  1  6
 25 24  1  0
 27 26  1  0
 28 26  1  0
 29 28  1  0
 30 28  2  0
M  END
$$$$
