REQ.pdb
     RDKit          3D

 30 29  0  0  1  0  0  0  0  0999 V2000
    6.8384  -12.5761   18.8112 N   0  0  0  0  0  0  0  0  0  0  0  0
    7.5853  -13.1916   17.7651 C   0  0  0  0  0  0  0  0  0  0  0  0
    8.5175  -12.5317   17.1817 N   0  0  0  0  0  0  0  0  0  0  0  0
    7.2882  -14.5271   17.3824 N   0  0  0  0  0  0  0  0  0  0  0  0
    7.6058  -15.6387   18.3004 C   0  0  0  0  0  0  0  0  0  0  0  0
    7.6378  -15.1373   19.6989 C   0  0  0  0  0  0  0  0  0  0  0  0
    8.8459  -15.4125   20.4896 C   0  0  0  0  0  0  0  0  0  0  0  0
    9.0193  -16.7428   21.1219 C   0  0  2  0  0  0  0  0  0  0  0  0
    7.8439  -17.3665   21.6345 N   0  0  0  0  0  0  0  0  0  0  0  0
   10.1978  -16.8082   22.0203 C   0  0  0  0  0  0  0  0  0  0  0  0
   11.3065  -16.3524   21.5844 O   0  0  0  0  0  0  0  0  0  0  0  0
    9.0007  -12.9507   16.3310 N   0  0  0  0  0  0  0  0  0  0  0  0
   10.2272  -17.3329   23.3357 C   0  0  1  0  0  0  0  0  0  0  0  0
   11.4213  -17.4437   24.1226 C   0  0  0  0  0  0  0  0  0  0  0  0
   11.3783  -18.3070   25.3266 C   0  0  0  0  0  0  0  0  0  0  0  0
   12.5117  -18.3109   26.2584 C   0  0  0  0  0  0  0  0  0  0  0  0
   12.3738  -19.1576   27.4557 O   0  0  0  0  0  0  0  0  0  0  0  0
   11.9758  -18.7107   28.5626 C   0  0  0  0  0  0  0  0  0  0  0  0
   12.6450  -17.6215   23.2999 O   0  0  0  0  0  0  0  0  0  0  0  0
   12.7105  -18.3528   22.2911 O   0  0  0  0  0  0  0  0  0  0  0  0
   12.6825  -20.5182   27.4194 N   0  0  0  0  0  0  0  0  0  0  0  0
   14.6162  -13.6694   19.2658 C   0  0  0  0  0  0  0  0  0  0  0  0
   14.7426  -15.1068   19.2933 O   0  0  0  0  0  0  0  0  0  0  0  0
   14.3195  -15.7863   18.3392 C   0  0  0  0  0  0  0  0  0  0  0  0
   15.3829  -15.6905   20.4874 C   0  0  0  0  0  0  0  0  0  0  0  0
   14.3920  -16.1281   21.5018 C   0  0  1  0  0  0  0  0  0  0  0  0
   14.9642  -16.7940   22.7268 N   0  0  0  0  0  0  0  0  0  0  0  0
   13.8368  -16.9292   23.6548 C   0  0  0  0  0  0  0  0  0  0  0  0
   16.0248  -15.9372   23.3086 O   0  0  0  0  0  0  0  0  0  0  0  0
   15.9542  -15.4124   24.5870 O   0  0  0  0  0  0  0  0  0  0  0  0
  2  3  2  0
  2  1  1  0
  4  2  1  0
  5  4  1  0
  6  5  1  0
  7  6  1  0
  8  7  1  0
  8  9  1  1
 10 11  2  0
 10  8  1  0
 12 10  1  0
 13 18  1  0
 13 12  1  0
 13 14  1  6
 15 14  1  0
 16 17  2  0
 16 15  1  0
 18 27  1  0
 19 18  2  0
 20 16  1  0
 22 24  1  0
 22 21  1  0
 23 22  2  0
 26 25  1  6
 25 24  1  0
 27 26  1  0
 28 26  1  0
 29 28  1  0
 30 28  2  0
M  END
$$$$
