REQ.pdb
     RDKit          3D

 30 29  0  0  1  0  0  0  0  0999 V2000
    8.9427  -15.5529   16.7513 N   0  0  0  0  0  0  0  0  0  0  0  0
    8.2830  -14.4189   16.1943 C   0  0  0  0  0  0  0  0  0  0  0  0
    7.9635  -14.4207   14.9523 N   0  0  0  0  0  0  0  0  0  0  0  0
    7.9878  -13.3021   17.0214 N   0  0  0  0  0  0  0  0  0  0  0  0
    8.5947  -13.2056   18.3636 C   0  0  0  0  0  0  0  0  0  0  0  0
    7.5926  -13.5859   19.3929 C   0  0  0  0  0  0  0  0  0  0  0  0
    8.0738  -14.3351   20.5623 C   0  0  0  0  0  0  0  0  0  0  0  0
    8.2399  -15.8061   20.4712 C   0  0  2  0  0  0  0  0  0  0  0  0
    7.1972  -16.5295   19.8211 N   0  0  0  0  0  0  0  0  0  0  0  0
    8.7212  -16.4143   21.7357 C   0  0  0  0  0  0  0  0  0  0  0  0
    7.9189  -16.4437   22.7269 O   0  0  0  0  0  0  0  0  0  0  0  0
    7.6439  -13.5152   14.4935 N   0  0  0  0  0  0  0  0  0  0  0  0
   10.0005  -16.9766   21.9674 C   0  0  2  0  0  0  0  0  0  0  0  0
   10.4360  -17.4662   23.2433 C   0  0  0  0  0  0  0  0  0  0  0  0
   11.5400  -18.4549   23.2643 C   0  0  0  0  0  0  0  0  0  0  0  0
   12.9115  -18.0184   22.9793 C   0  0  0  0  0  0  0  0  0  0  0  0
   13.9704  -18.5812   23.8347 O   0  0  0  0  0  0  0  0  0  0  0  0
   14.0846  -19.8151   24.0526 C   0  0  0  0  0  0  0  0  0  0  0  0
   10.5712  -16.3939   24.2620 O   0  0  0  0  0  0  0  0  0  0  0  0
   11.2878  -15.3821   24.1228 O   0  0  0  0  0  0  0  0  0  0  0  0
   14.9133  -17.7596   24.4542 N   0  0  0  0  0  0  0  0  0  0  0  0
    6.1573  -13.5010   25.8885 C   0  0  0  0  0  0  0  0  0  0  0  0
    6.9883  -12.8904   26.8981 O   0  0  0  0  0  0  0  0  0  0  0  0
    6.5969  -11.8670   27.4900 C   0  0  0  0  0  0  0  0  0  0  0  0
    8.2854  -13.5400   27.1670 C   0  0  0  0  0  0  0  0  0  0  0  0
    8.5193  -14.7162   26.2928 C   0  0  2  0  0  0  0  0  0  0  0  0
    9.8447  -15.4101   26.4747 N   0  0  0  0  0  0  0  0  0  0  0  0
    9.8522  -16.4933   25.4863 C   0  0  0  0  0  0  0  0  0  0  0  0
    9.9366  -15.9530   27.8511 O   0  0  0  0  0  0  0  0  0  0  0  0
   10.6013  -15.3026   28.8758 O   0  0  0  0  0  0  0  0  0  0  0  0
  2  3  2  0
  2  1  1  0
  4  2  1  0
  5  4  1  0
  6  5  1  0
  7  6  1  0
  8  7  1  0
  8  9  1  1
 10 11  2  0
 10  8  1  0
 12 10  1  0
 13 18  1  0
 13 12  1  0
 13 14  1  6
 15 14  1  0
 16 17  2  0
 16 15  1  0
 18 27  1  0
 19 18  2  0
 20 16  1  0
 22 24  1  0
 22 21  1  0
 23 22  2  0
 26 25  1  6
 25 24  1  0
 27 26  1  0
 28 26  1  0
 29 28  1  0
 30 28  2  0
M  END
$$$$
