NSQ.pdb
     RDKit          3D

 24 23  0  0  1  0  0  0  0  0999 V2000
   16.0453  -12.3738  -18.5207 N   0  0  0  0  0  0  0  0  0  0  0  0
   17.1225  -11.4328  -18.5400 C   0  0  0  0  0  0  0  0  0  0  0  0
   17.7515  -11.2909  -19.6134 O   0  0  0  0  0  0  0  0  0  0  0  0
   17.5088  -10.6389  -17.3571 C   0  0  0  0  0  0  0  0  0  0  0  0
   18.9489  -10.8683  -17.0452 C   0  0  2  0  0  0  0  0  0  0  0  0
   19.2372  -12.2181  -16.6660 N   0  0  0  0  0  0  0  0  0  0  0  0
   19.4649   -9.8843  -16.0306 C   0  0  0  0  0  0  0  0  0  0  0  0
   18.8844   -9.7181  -14.9309 O   0  0  0  0  0  0  0  0  0  0  0  0
   23.1181   -7.7608  -14.0153 O   0  0  0  0  0  0  0  0  0  0  0  0
   22.6088   -8.6667  -14.9235 C   0  0  0  0  0  0  0  0  0  0  0  0
   21.1871   -8.2123  -15.2858 C   0  0  2  0  0  0  0  0  0  0  0  0
   20.6204   -9.1079  -16.2699 N   0  0  0  0  0  0  0  0  0  0  0  0
   21.1832   -6.8051  -15.7528 C   0  0  0  0  0  0  0  0  0  0  0  0
   21.5914   -6.5853  -16.9460 O   0  0  0  0  0  0  0  0  0  0  0  0
   16.8279   -2.7017  -15.4391 N   0  0  0  0  0  0  0  0  0  0  0  0
   17.9130   -1.8713  -15.8253 C   0  0  0  0  0  0  0  0  0  0  0  0
   17.6158   -0.6584  -16.1137 O   0  0  0  0  0  0  0  0  0  0  0  0
   19.3123   -2.3540  -15.8918 C   0  0  0  0  0  0  0  0  0  0  0  0
   19.5226   -3.7678  -15.5271 C   0  0  0  0  0  0  0  0  0  0  0  0
   20.9236   -4.3018  -15.5447 C   0  0  2  0  0  0  0  0  0  0  0  0
   20.7769   -5.6861  -15.0226 N   0  0  0  0  0  0  0  0  0  0  0  0
   21.9664   -3.5601  -14.8925 C   0  0  0  0  0  0  0  0  0  0  0  0
   22.3836   -3.8313  -13.6000 O   0  0  0  0  0  0  0  0  0  0  0  0
   22.5647   -2.5975  -15.4746 O   0  0  0  0  0  0  0  0  0  0  0  0
  2  1  1  0
  2  3  2  0
  4  2  1  0
  5  4  1  0
  5  6  1  1
  7  8  2  0
  7  5  1  0
  9 10  1  0
 11 10  1  6
 11 12  1  0
 12  7  1  0
 13 11  1  0
 13 21  1  0
 14 13  2  0
 16 17  2  0
 16 15  1  0
 18 16  1  0
 20 19  1  1
 19 18  1  0
 20 21  1  0
 20 22  1  0
 22 23  1  0
 24 22  2  0
M  END
$$$$
