NSQ.pdb
     RDKit          3D

 24 23  0  0  1  0  0  0  0  0999 V2000
   26.2327  -22.0767  -10.1413 N   0  0  0  0  0  0  0  0  0  0  0  0
   26.1025  -20.6545  -10.0591 C   0  0  0  0  0  0  0  0  0  0  0  0
   26.2623  -20.1197   -8.9383 O   0  0  0  0  0  0  0  0  0  0  0  0
   25.7915  -19.8134  -11.2316 C   0  0  0  0  0  0  0  0  0  0  0  0
   25.5855  -20.6766  -12.4299 C   0  0  2  0  0  0  0  0  0  0  0  0
   26.6810  -21.5621  -12.6840 N   0  0  0  0  0  0  0  0  0  0  0  0
   25.2319  -19.8672  -13.6481 C   0  0  0  0  0  0  0  0  0  0  0  0
   24.2976  -19.0302  -13.6250 O   0  0  0  0  0  0  0  0  0  0  0  0
   27.8192  -19.0281  -16.6299 O   0  0  0  0  0  0  0  0  0  0  0  0
   26.6384  -19.5179  -17.1501 C   0  0  0  0  0  0  0  0  0  0  0  0
   25.5488  -19.3336  -16.0834 C   0  0  2  0  0  0  0  0  0  0  0  0
   25.9328  -20.0129  -14.8657 N   0  0  0  0  0  0  0  0  0  0  0  0
   24.2329  -19.7989  -16.5838 C   0  0  0  0  0  0  0  0  0  0  0  0
   24.1080  -21.0510  -16.8194 O   0  0  0  0  0  0  0  0  0  0  0  0
   21.5623  -21.7123  -12.9514 N   0  0  0  0  0  0  0  0  0  0  0  0
   20.4007  -21.5973  -13.7599 C   0  0  0  0  0  0  0  0  0  0  0  0
   19.3431  -22.1602  -13.3051 O   0  0  0  0  0  0  0  0  0  0  0  0
   20.3872  -20.8703  -15.0510 C   0  0  0  0  0  0  0  0  0  0  0  0
   21.6656  -20.2556  -15.4560 C   0  0  0  0  0  0  0  0  0  0  0  0
   21.7268  -19.5604  -16.7831 C   0  0  2  0  0  0  0  0  0  0  0  0
   23.1070  -19.0091  -16.8259 N   0  0  0  0  0  0  0  0  0  0  0  0
   20.7210  -18.5903  -17.1151 C   0  0  0  0  0  0  0  0  0  0  0  0
   20.8834  -17.2339  -16.8873 O   0  0  0  0  0  0  0  0  0  0  0  0
   19.6103  -18.9327  -17.6370 O   0  0  0  0  0  0  0  0  0  0  0  0
  2  1  1  0
  2  3  2  0
  4  2  1  0
  5  4  1  0
  5  6  1  6
  7  8  2  0
  7  5  1  0
  9 10  1  0
 11 10  1  6
 11 12  1  0
 12  7  1  0
 13 11  1  0
 13 21  1  0
 14 13  2  0
 16 17  2  0
 16 15  1  0
 18 16  1  0
 20 19  1  1
 19 18  1  0
 20 21  1  0
 20 22  1  0
 22 23  1  0
 24 22  2  0
M  END
$$$$
