NSQ.pdb
     RDKit          3D

 24 23  0  0  1  0  0  0  0  0999 V2000
   20.9549  -28.2492  -16.1330 N   0  0  0  0  0  0  0  0  0  0  0  0
   21.8223  -27.8153  -15.0815 C   0  0  0  0  0  0  0  0  0  0  0  0
   22.9814  -28.2879  -15.0515 O   0  0  0  0  0  0  0  0  0  0  0  0
   21.4022  -26.8463  -14.0504 C   0  0  0  0  0  0  0  0  0  0  0  0
   20.0120  -26.3849  -14.3298 C   0  0  2  0  0  0  0  0  0  0  0  0
   19.8273  -25.9279  -15.6736 N   0  0  0  0  0  0  0  0  0  0  0  0
   19.5500  -25.3623  -13.3273 C   0  0  0  0  0  0  0  0  0  0  0  0
   20.1307  -25.2235  -12.2240 O   0  0  0  0  0  0  0  0  0  0  0  0
   16.6803  -21.5930  -12.3733 O   0  0  0  0  0  0  0  0  0  0  0  0
   17.1734  -22.4489  -13.3372 C   0  0  0  0  0  0  0  0  0  0  0  0
   17.9406  -23.5675  -12.6168 C   0  0  2  0  0  0  0  0  0  0  0  0
   18.4474  -24.5172  -13.5827 N   0  0  0  0  0  0  0  0  0  0  0  0
   17.0887  -24.2213  -11.5943 C   0  0  0  0  0  0  0  0  0  0  0  0
   16.3852  -25.2211  -11.9739 O   0  0  0  0  0  0  0  0  0  0  0  0
   18.5726  -25.2660   -5.7620 N   0  0  0  0  0  0  0  0  0  0  0  0
   17.2521  -25.7847   -5.8211 C   0  0  0  0  0  0  0  0  0  0  0  0
   16.8609  -26.4407   -4.7920 O   0  0  0  0  0  0  0  0  0  0  0  0
   16.3608  -25.5867   -6.9881 C   0  0  0  0  0  0  0  0  0  0  0  0
   16.9248  -24.8004   -8.1016 C   0  0  0  0  0  0  0  0  0  0  0  0
   16.0685  -24.5725   -9.3111 C   0  0  2  0  0  0  0  0  0  0  0  0
   16.9731  -23.8587  -10.2507 N   0  0  0  0  0  0  0  0  0  0  0  0
   14.7930  -23.9302   -9.1581 C   0  0  0  0  0  0  0  0  0  0  0  0
   13.6609  -24.6036   -8.7304 O   0  0  0  0  0  0  0  0  0  0  0  0
   14.6336  -22.6931   -9.4178 O   0  0  0  0  0  0  0  0  0  0  0  0
  2  1  1  0
  2  3  2  0
  4  2  1  0
  5  4  1  0
  5  6  1  6
  7  8  2  0
  7  5  1  0
  9 10  1  0
 11 10  1  6
 11 12  1  0
 12  7  1  0
 13 11  1  0
 13 21  1  0
 14 13  2  0
 16 17  2  0
 16 15  1  0
 18 16  1  0
 20 19  1  1
 19 18  1  0
 20 21  1  0
 20 22  1  0
 22 23  1  0
 24 22  2  0
M  END
$$$$
