NSQ.pdb
     RDKit          3D

 24 23  0  0  1  0  0  0  0  0999 V2000
   19.4127  -13.4913  -17.8731 N   0  0  0  0  0  0  0  0  0  0  0  0
   18.9127  -12.3727  -18.6113 C   0  0  0  0  0  0  0  0  0  0  0  0
   18.6459  -12.5473  -19.8221 O   0  0  0  0  0  0  0  0  0  0  0  0
   18.7052  -11.0442  -18.0023 C   0  0  0  0  0  0  0  0  0  0  0  0
   19.0552  -11.0942  -16.5537 C   0  0  2  0  0  0  0  0  0  0  0  0
   18.2488  -12.0124  -15.8085 N   0  0  0  0  0  0  0  0  0  0  0  0
   19.0562   -9.7244  -15.9309 C   0  0  0  0  0  0  0  0  0  0  0  0
   19.3875   -8.7097  -16.5901 O   0  0  0  0  0  0  0  0  0  0  0  0
   18.8970   -9.1473  -11.8422 O   0  0  0  0  0  0  0  0  0  0  0  0
   18.0393   -8.3311  -12.5515 C   0  0  0  0  0  0  0  0  0  0  0  0
   18.5888   -8.2099  -13.9806 C   0  0  2  0  0  0  0  0  0  0  0  0
   18.6860   -9.5211  -14.5831 N   0  0  0  0  0  0  0  0  0  0  0  0
   19.8907   -7.5003  -13.9896 C   0  0  0  0  0  0  0  0  0  0  0  0
   20.9279   -8.1882  -14.2892 O   0  0  0  0  0  0  0  0  0  0  0  0
   22.6759   -6.6050  -17.9346 N   0  0  0  0  0  0  0  0  0  0  0  0
   23.4454   -5.6857  -17.1736 C   0  0  0  0  0  0  0  0  0  0  0  0
   24.4952   -5.2246  -17.7461 O   0  0  0  0  0  0  0  0  0  0  0  0
   23.0733   -5.2658  -15.8023 C   0  0  0  0  0  0  0  0  0  0  0  0
   21.8465   -5.8747  -15.2542 C   0  0  0  0  0  0  0  0  0  0  0  0
   21.4382   -5.5090  -13.8586 C   0  0  2  0  0  0  0  0  0  0  0  0
   20.1057   -6.1502  -13.7045 N   0  0  0  0  0  0  0  0  0  0  0  0
   21.4495   -4.1286  -13.4621 C   0  0  0  0  0  0  0  0  0  0  0  0
   22.6030   -3.4712  -13.0675 O   0  0  0  0  0  0  0  0  0  0  0  0
   20.3840   -3.4302  -13.4463 O   0  0  0  0  0  0  0  0  0  0  0  0
  2  1  1  0
  2  3  2  0
  4  2  1  0
  5  4  1  0
  5  6  1  1
  7  8  2  0
  7  5  1  0
  9 10  1  0
 11 10  1  1
 11 12  1  0
 12  7  1  0
 13 11  1  0
 13 21  1  0
 14 13  2  0
 16 17  2  0
 16 15  1  0
 18 16  1  0
 20 19  1  6
 19 18  1  0
 20 21  1  0
 20 22  1  0
 22 23  1  0
 24 22  2  0
M  END
$$$$
