NSQ.pdb
     RDKit          3D

 24 23  0  0  1  0  0  0  0  0999 V2000
   18.0236  -12.1802  -18.0428 N   0  0  0  0  0  0  0  0  0  0  0  0
   17.0983  -11.0906  -18.0937 C   0  0  0  0  0  0  0  0  0  0  0  0
   16.1461  -11.1735  -18.9025 O   0  0  0  0  0  0  0  0  0  0  0  0
   17.2279   -9.8941  -17.2389 C   0  0  0  0  0  0  0  0  0  0  0  0
   18.4153  -10.0379  -16.3484 C   0  0  2  0  0  0  0  0  0  0  0  0
   18.2825  -11.0977  -15.3956 N   0  0  0  0  0  0  0  0  0  0  0  0
   18.7774   -8.7369  -15.6847 C   0  0  0  0  0  0  0  0  0  0  0  0
   17.9329   -8.0862  -15.0234 O   0  0  0  0  0  0  0  0  0  0  0  0
   22.2704   -5.6527  -14.4090 O   0  0  0  0  0  0  0  0  0  0  0  0
   21.9750   -6.8373  -15.0526 C   0  0  0  0  0  0  0  0  0  0  0  0
   20.4473   -6.9270  -15.1829 C   0  0  2  0  0  0  0  0  0  0  0  0
   20.0778   -8.1931  -15.7763 N   0  0  0  0  0  0  0  0  0  0  0  0
   19.9126   -5.7789  -15.9539 C   0  0  0  0  0  0  0  0  0  0  0  0
   19.9034   -5.8865  -17.2294 O   0  0  0  0  0  0  0  0  0  0  0  0
   15.3732   -1.9882  -14.1650 N   0  0  0  0  0  0  0  0  0  0  0  0
   15.7716   -1.3999  -15.3944 C   0  0  0  0  0  0  0  0  0  0  0  0
   15.0451   -0.4309  -15.8137 O   0  0  0  0  0  0  0  0  0  0  0  0
   16.9548   -1.8575  -16.1599 C   0  0  0  0  0  0  0  0  0  0  0  0
   17.6784   -3.0124  -15.5953 C   0  0  0  0  0  0  0  0  0  0  0  0
   18.9154   -3.4846  -16.2989 C   0  0  2  0  0  0  0  0  0  0  0  0
   19.4134   -4.5842  -15.4308 N   0  0  0  0  0  0  0  0  0  0  0  0
   19.9340   -2.5327  -16.6442 C   0  0  0  0  0  0  0  0  0  0  0  0
   20.9772   -2.2087  -15.7928 O   0  0  0  0  0  0  0  0  0  0  0  0
   19.9266   -1.9244  -17.7637 O   0  0  0  0  0  0  0  0  0  0  0  0
  2  1  1  0
  2  3  2  0
  4  2  1  0
  5  4  1  0
  5  6  1  1
  7  8  2  0
  7  5  1  0
  9 10  1  0
 11 10  1  6
 11 12  1  0
 12  7  1  0
 13 11  1  0
 13 21  1  0
 14 13  2  0
 16 17  2  0
 16 15  1  0
 18 16  1  0
 20 19  1  1
 19 18  1  0
 20 21  1  0
 20 22  1  0
 22 23  1  0
 24 22  2  0
M  END
$$$$
