NSQ.pdb
     RDKit          3D

 24 23  0  0  1  0  0  0  0  0999 V2000
   13.7998  -14.8169  -13.1365 N   0  0  0  0  0  0  0  0  0  0  0  0
   13.6401  -14.1969  -11.8573 C   0  0  0  0  0  0  0  0  0  0  0  0
   12.6159  -14.4830  -11.1962 O   0  0  0  0  0  0  0  0  0  0  0  0
   14.6258  -13.2487  -11.3024 C   0  0  0  0  0  0  0  0  0  0  0  0
   15.7554  -13.0784  -12.2609 C   0  0  2  0  0  0  0  0  0  0  0  0
   16.4885  -14.2861  -12.4910 N   0  0  0  0  0  0  0  0  0  0  0  0
   16.6622  -11.9462  -11.8612 C   0  0  0  0  0  0  0  0  0  0  0  0
   17.4754  -12.0667  -10.9135 O   0  0  0  0  0  0  0  0  0  0  0  0
   17.4442   -8.9372  -14.4543 O   0  0  0  0  0  0  0  0  0  0  0  0
   18.3373   -9.2005  -13.4356 C   0  0  0  0  0  0  0  0  0  0  0  0
   17.5240   -9.6096  -12.1986 C   0  0  2  0  0  0  0  0  0  0  0  0
   16.6384  -10.7033  -12.5319 N   0  0  0  0  0  0  0  0  0  0  0  0
   16.7850   -8.4505  -11.6429 C   0  0  0  0  0  0  0  0  0  0  0  0
   15.5082   -8.4763  -11.7307 O   0  0  0  0  0  0  0  0  0  0  0  0
   13.9225   -8.1205   -7.5054 N   0  0  0  0  0  0  0  0  0  0  0  0
   13.9637   -6.7059   -7.6211 C   0  0  0  0  0  0  0  0  0  0  0  0
   13.2232   -6.0546   -6.8027 O   0  0  0  0  0  0  0  0  0  0  0  0
   14.8086   -6.0037   -8.6154 C   0  0  0  0  0  0  0  0  0  0  0  0
   15.6426   -6.8662   -9.4737 C   0  0  0  0  0  0  0  0  0  0  0  0
   16.5033   -6.2104  -10.5116 C   0  0  2  0  0  0  0  0  0  0  0  0
   17.3396   -7.3258  -11.0283 N   0  0  0  0  0  0  0  0  0  0  0  0
   17.2691   -5.0481  -10.1572 C   0  0  0  0  0  0  0  0  0  0  0  0
   18.6476   -5.0702  -10.0244 O   0  0  0  0  0  0  0  0  0  0  0  0
   16.7119   -3.9236   -9.9372 O   0  0  0  0  0  0  0  0  0  0  0  0
  2  1  1  0
  2  3  2  0
  4  2  1  0
  5  4  1  0
  5  6  1  1
  7  8  2  0
  7  5  1  0
  9 10  1  0
 11 10  1  6
 11 12  1  0
 12  7  1  0
 13 11  1  0
 13 21  1  0
 14 13  2  0
 16 17  2  0
 16 15  1  0
 18 16  1  0
 20 19  1  1
 19 18  1  0
 20 21  1  0
 20 22  1  0
 22 23  1  0
 24 22  2  0
M  END
$$$$
