NSQ.pdb
     RDKit          3D

 24 23  0  0  1  0  0  0  0  0999 V2000
   20.5166  -16.1542  -13.5900 N   0  0  0  0  0  0  0  0  0  0  0  0
   19.5310  -15.2342  -14.0678 C   0  0  0  0  0  0  0  0  0  0  0  0
   18.3402  -15.6204  -14.0960 O   0  0  0  0  0  0  0  0  0  0  0  0
   19.8668  -13.8699  -14.5201 C   0  0  0  0  0  0  0  0  0  0  0  0
   19.3977  -13.6745  -15.9220 C   0  0  2  0  0  0  0  0  0  0  0  0
   20.1160  -14.4659  -16.8741 N   0  0  0  0  0  0  0  0  0  0  0  0
   19.3812  -12.2204  -16.3087 C   0  0  0  0  0  0  0  0  0  0  0  0
   20.0786  -11.7915  -17.2592 O   0  0  0  0  0  0  0  0  0  0  0  0
   16.1797   -9.9761  -16.2900 O   0  0  0  0  0  0  0  0  0  0  0  0
   17.1538   -9.2995  -15.5842 C   0  0  0  0  0  0  0  0  0  0  0  0
   18.5143   -9.8825  -15.9943 C   0  0  2  0  0  0  0  0  0  0  0  0
   18.5836  -11.2783  -15.6221 N   0  0  0  0  0  0  0  0  0  0  0  0
   19.6263   -9.0983  -15.4054 C   0  0  0  0  0  0  0  0  0  0  0  0
   19.9926   -9.4064  -14.2181 O   0  0  0  0  0  0  0  0  0  0  0  0
   23.6866   -5.5161  -18.6480 N   0  0  0  0  0  0  0  0  0  0  0  0
   24.0972   -5.3131  -17.3040 C   0  0  0  0  0  0  0  0  0  0  0  0
   25.1348   -4.5790  -17.1395 O   0  0  0  0  0  0  0  0  0  0  0  0
   23.3816   -5.8990  -16.1464 C   0  0  0  0  0  0  0  0  0  0  0  0
   22.2093   -6.7337  -16.4707 C   0  0  0  0  0  0  0  0  0  0  0  0
   21.4373   -7.3396  -15.3371 C   0  0  2  0  0  0  0  0  0  0  0  0
   20.3219   -8.0519  -16.0147 N   0  0  0  0  0  0  0  0  0  0  0  0
   20.9977   -6.4996  -14.2581 C   0  0  0  0  0  0  0  0  0  0  0  0
   19.8282   -5.7597  -14.3125 O   0  0  0  0  0  0  0  0  0  0  0  0
   21.6733   -6.3851  -13.1840 O   0  0  0  0  0  0  0  0  0  0  0  0
  2  1  1  0
  2  3  2  0
  4  2  1  0
  5  4  1  0
  5  6  1  6
  7  8  2  0
  7  5  1  0
  9 10  1  0
 11 10  1  1
 11 12  1  0
 12  7  1  0
 13 11  1  0
 13 21  1  0
 14 13  2  0
 16 17  2  0
 16 15  1  0
 18 16  1  0
 20 19  1  6
 19 18  1  0
 20 21  1  0
 20 22  1  0
 22 23  1  0
 24 22  2  0
M  END
$$$$
