NSQ.pdb
     RDKit          3D

 24 23  0  0  1  0  0  0  0  0999 V2000
   12.9831  -12.3120  -14.9325 N   0  0  0  0  0  0  0  0  0  0  0  0
   14.3705  -12.5666  -14.6950 C   0  0  0  0  0  0  0  0  0  0  0  0
   14.6667  -13.3586  -13.7714 O   0  0  0  0  0  0  0  0  0  0  0  0
   15.4439  -11.9372  -15.4891 C   0  0  0  0  0  0  0  0  0  0  0  0
   16.5036  -11.4155  -14.5791 C   0  0  2  0  0  0  0  0  0  0  0  0
   17.1194  -12.4350  -13.7852 N   0  0  0  0  0  0  0  0  0  0  0  0
   16.0022  -10.2784  -13.7307 C   0  0  0  0  0  0  0  0  0  0  0  0
   15.4801   -9.2615  -14.2474 O   0  0  0  0  0  0  0  0  0  0  0  0
   14.3010   -8.7719   -9.5717 O   0  0  0  0  0  0  0  0  0  0  0  0
   14.7596   -9.8258  -10.3356 C   0  0  0  0  0  0  0  0  0  0  0  0
   15.6037   -9.2397  -11.4771 C   0  0  2  0  0  0  0  0  0  0  0  0
   16.0966  -10.3054  -12.3216 N   0  0  0  0  0  0  0  0  0  0  0  0
   16.7056   -8.4020  -10.9455 C   0  0  0  0  0  0  0  0  0  0  0  0
   17.8145   -8.9892  -10.6918 O   0  0  0  0  0  0  0  0  0  0  0  0
   20.7503   -7.1869  -13.5172 N   0  0  0  0  0  0  0  0  0  0  0  0
   21.0673   -6.2230  -12.5239 C   0  0  0  0  0  0  0  0  0  0  0  0
   22.2364   -5.7033  -12.6000 O   0  0  0  0  0  0  0  0  0  0  0  0
   20.1183   -5.8222  -11.4590 C   0  0  0  0  0  0  0  0  0  0  0  0
   18.8301   -6.5407  -11.4422 C   0  0  0  0  0  0  0  0  0  0  0  0
   17.8728   -6.2503  -10.3253 C   0  0  2  0  0  0  0  0  0  0  0  0
   16.6608   -7.0295  -10.6917 N   0  0  0  0  0  0  0  0  0  0  0  0
   17.5844   -4.8852   -9.9842 C   0  0  0  0  0  0  0  0  0  0  0  0
   16.4277   -4.2397  -10.3885 O   0  0  0  0  0  0  0  0  0  0  0  0
   18.3915   -4.1864   -9.2887 O   0  0  0  0  0  0  0  0  0  0  0  0
  2  1  1  0
  2  3  2  0
  4  2  1  0
  5  4  1  0
  5  6  1  1
  7  8  2  0
  7  5  1  0
  9 10  1  0
 11 10  1  1
 11 12  1  0
 12  7  1  0
 13 11  1  0
 13 21  1  0
 14 13  2  0
 16 17  2  0
 16 15  1  0
 18 16  1  0
 20 19  1  6
 19 18  1  0
 20 21  1  0
 20 22  1  0
 22 23  1  0
 24 22  2  0
M  END
$$$$
