NSQ.pdb
     RDKit          3D

 24 23  0  0  1  0  0  0  0  0999 V2000
   27.4488  -21.7691  -16.9891 N   0  0  0  0  0  0  0  0  0  0  0  0
   27.8458  -21.3310  -15.6865 C   0  0  0  0  0  0  0  0  0  0  0  0
   28.5612  -22.1016  -15.0067 O   0  0  0  0  0  0  0  0  0  0  0  0
   27.4462  -20.0240  -15.1289 C   0  0  0  0  0  0  0  0  0  0  0  0
   26.5223  -19.3344  -16.0746 C   0  0  2  0  0  0  0  0  0  0  0  0
   27.0524  -19.2179  -17.3991 N   0  0  0  0  0  0  0  0  0  0  0  0
   26.0658  -18.0039  -15.5404 C   0  0  0  0  0  0  0  0  0  0  0  0
   25.3844  -17.9231  -14.4901 O   0  0  0  0  0  0  0  0  0  0  0  0
   26.5048  -13.2168  -15.6203 O   0  0  0  0  0  0  0  0  0  0  0  0
   26.9299  -14.4134  -16.1608 C   0  0  0  0  0  0  0  0  0  0  0  0
   25.9380  -15.5005  -15.7210 C   0  0  2  0  0  0  0  0  0  0  0  0
   26.3827  -16.7927  -16.1943 N   0  0  0  0  0  0  0  0  0  0  0  0
   24.5655  -15.1849  -16.1849 C   0  0  0  0  0  0  0  0  0  0  0  0
   24.1527  -15.7864  -17.2368 O   0  0  0  0  0  0  0  0  0  0  0  0
   20.2763  -17.9060  -15.2730 N   0  0  0  0  0  0  0  0  0  0  0  0
   19.5396  -16.8007  -15.7749 C   0  0  0  0  0  0  0  0  0  0  0  0
   18.2857  -16.9970  -15.9528 O   0  0  0  0  0  0  0  0  0  0  0  0
   20.1602  -15.4893  -16.0756 C   0  0  0  0  0  0  0  0  0  0  0  0
   21.6157  -15.4006  -15.8525 C   0  0  0  0  0  0  0  0  0  0  0  0
   22.2922  -14.0878  -16.1115 C   0  0  2  0  0  0  0  0  0  0  0  0
   23.6690  -14.2948  -15.5899 N   0  0  0  0  0  0  0  0  0  0  0  0
   21.6837  -12.8776  -15.6340 C   0  0  0  0  0  0  0  0  0  0  0  0
   22.2565  -12.0876  -14.6511 O   0  0  0  0  0  0  0  0  0  0  0  0
   20.5677  -12.4665  -16.0911 O   0  0  0  0  0  0  0  0  0  0  0  0
  2  1  1  0
  2  3  2  0
  4  2  1  0
  5  4  1  0
  5  6  1  6
  7  8  2  0
  7  5  1  0
  9 10  1  0
 11 10  1  6
 11 12  1  0
 12  7  1  0
 13 11  1  0
 13 21  1  0
 14 13  2  0
 16 17  2  0
 16 15  1  0
 18 16  1  0
 20 19  1  1
 19 18  1  0
 20 21  1  0
 20 22  1  0
 22 23  1  0
 24 22  2  0
M  END
$$$$
