NSQ.pdb
     RDKit          3D

 24 23  0  0  1  0  0  0  0  0999 V2000
   16.1023  -13.2920  -16.9199 N   0  0  0  0  0  0  0  0  0  0  0  0
   17.3297  -12.6570  -17.2892 C   0  0  0  0  0  0  0  0  0  0  0  0
   17.6796  -12.7215  -18.4897 O   0  0  0  0  0  0  0  0  0  0  0  0
   18.1807  -11.9415  -16.3183 C   0  0  0  0  0  0  0  0  0  0  0  0
   19.5846  -11.8938  -16.8186 C   0  0  2  0  0  0  0  0  0  0  0  0
   20.2260  -13.1734  -16.8260 N   0  0  0  0  0  0  0  0  0  0  0  0
   20.4045  -10.8661  -16.0867 C   0  0  0  0  0  0  0  0  0  0  0  0
   19.9767  -10.3134  -15.0449 O   0  0  0  0  0  0  0  0  0  0  0  0
   24.7215   -8.7280  -15.6221 O   0  0  0  0  0  0  0  0  0  0  0  0
   23.9425   -9.5568  -16.4038 C   0  0  0  0  0  0  0  0  0  0  0  0
   22.5163   -9.5271  -15.8345 C   0  0  2  0  0  0  0  0  0  0  0  0
   21.6861  -10.4798  -16.5378 N   0  0  0  0  0  0  0  0  0  0  0  0
   21.9520   -8.1571  -15.8890 C   0  0  0  0  0  0  0  0  0  0  0  0
   21.4098   -7.7930  -16.9900 O   0  0  0  0  0  0  0  0  0  0  0  0
   17.2511   -6.2178  -16.0714 N   0  0  0  0  0  0  0  0  0  0  0  0
   17.6963   -5.0116  -15.4688 C   0  0  0  0  0  0  0  0  0  0  0  0
   16.8475   -4.0517  -15.4420 O   0  0  0  0  0  0  0  0  0  0  0  0
   19.0524   -4.8517  -14.8937 C   0  0  0  0  0  0  0  0  0  0  0  0
   19.9153   -6.0473  -14.9397 C   0  0  0  0  0  0  0  0  0  0  0  0
   21.3981   -5.8461  -15.0348 C   0  0  2  0  0  0  0  0  0  0  0  0
   21.9490   -7.2156  -14.8576 N   0  0  0  0  0  0  0  0  0  0  0  0
   22.0301   -4.8700  -14.1918 C   0  0  0  0  0  0  0  0  0  0  0  0
   21.9599   -3.5088  -14.4377 O   0  0  0  0  0  0  0  0  0  0  0  0
   22.7024   -5.2108  -13.1645 O   0  0  0  0  0  0  0  0  0  0  0  0
  2  1  1  0
  2  3  2  0
  4  2  1  0
  5  4  1  0
  5  6  1  1
  7  8  2  0
  7  5  1  0
  9 10  1  0
 11 10  1  6
 11 12  1  0
 12  7  1  0
 13 11  1  0
 13 21  1  0
 14 13  2  0
 16 17  2  0
 16 15  1  0
 18 16  1  0
 20 19  1  1
 19 18  1  0
 20 21  1  0
 20 22  1  0
 22 23  1  0
 24 22  2  0
M  END
$$$$
