SFG.pdb
     RDKit          3D

 22 22  0  0  1  0  0  0  0  0999 V2000
   10.9353  -18.6141   22.3931 O   0  0  0  0  0  0  0  0  0  0  0  0
    9.8389  -18.4087   21.5836 C   0  0  0  0  0  0  0  0  0  0  0  0
    9.7590  -16.9932   21.0322 C   0  0  2  0  0  0  0  0  0  0  0  0
   10.9892  -16.7739   20.2988 N   0  0  0  0  0  0  0  0  0  0  0  0
    9.6625  -15.9939   22.1107 C   0  0  0  0  0  0  0  0  0  0  0  0
   10.6770  -15.3995   22.5070 O   0  0  0  0  0  0  0  0  0  0  0  0
    8.4171  -15.6641   22.7442 N   0  0  0  0  0  0  0  0  0  0  0  0
    8.2846  -14.7602   23.8231 C   0  0  1  0  0  0  0  0  0  0  0  0
    6.8767  -14.2919   24.1529 C   0  0  0  0  0  0  0  0  0  0  0  0
    6.8261  -13.2350   25.1676 C   0  0  0  0  0  0  0  0  0  0  0  0
    6.1024  -13.4404   26.3225 C   0  0  0  0  0  0  0  0  0  0  0  0
    6.0135  -12.4564   27.3196 C   0  0  0  0  0  0  0  0  0  0  0  0
    6.6614  -11.2579   27.1456 C   0  0  0  0  0  0  0  0  0  0  0  0
    7.3743  -11.0758   25.9903 C   0  0  0  0  0  0  0  0  0  0  0  0
    7.4675  -12.0462   24.9963 C   0  0  0  0  0  0  0  0  0  0  0  0
    9.1036  -15.0418   25.0185 C   0  0  0  0  0  0  0  0  0  0  0  0
    9.6278  -14.1360   25.7190 O   0  0  0  0  0  0  0  0  0  0  0  0
    9.3643  -16.3803   25.4734 N   0  0  0  0  0  0  0  0  0  0  0  0
   10.0476  -16.6695   26.6967 C   0  0  0  0  0  0  0  0  0  0  0  0
   10.2849  -18.0887   26.9374 C   0  0  0  0  0  0  0  0  0  0  0  0
    9.4644  -18.7791   27.5815 O   0  0  0  0  0  0  0  0  0  0  0  0
   11.4252  -18.7003   26.4568 O   0  0  0  0  0  0  0  0  0  0  0  0
  1  2  1  0
  2  3  1  0
  3  4  1  1
  3  5  1  0
  5  6  2  0
  7  5  1  0
  7  8  1  0
  8  9  1  1
 10  9  1  0
 11 10  2  0
 12 11  1  0
 13 14  1  0
 13 12  2  0
 14 15  2  0
 15 10  1  0
 16 18  1  0
 16  8  1  0
 17 16  2  0
 19 18  1  0
 19 20  1  0
 20 22  1  0
 21 20  2  0
M  END
$$$$
