SFG.pdb
     RDKit          3D

 22 22  0  0  1  0  0  0  0  0999 V2000
   11.0388  -20.1315   19.8593 O   0  0  0  0  0  0  0  0  0  0  0  0
    9.7276  -19.7380   19.6991 C   0  0  0  0  0  0  0  0  0  0  0  0
    9.5886  -18.3026   19.2152 C   0  0  2  0  0  0  0  0  0  0  0  0
   10.3757  -18.2057   18.0026 N   0  0  0  0  0  0  0  0  0  0  0  0
   10.1134  -17.3425   20.2020 C   0  0  0  0  0  0  0  0  0  0  0  0
   11.2053  -16.7843   20.0140 O   0  0  0  0  0  0  0  0  0  0  0  0
    9.4036  -17.0112   21.4052 N   0  0  0  0  0  0  0  0  0  0  0  0
    9.8610  -16.0888   22.3740 C   0  0  1  0  0  0  0  0  0  0  0  0
    8.8452  -15.0854   22.8951 C   0  0  0  0  0  0  0  0  0  0  0  0
    8.0671  -14.4277   21.8410 C   0  0  0  0  0  0  0  0  0  0  0  0
    6.8491  -14.9555   21.4702 C   0  0  0  0  0  0  0  0  0  0  0  0
    6.0708  -14.3699   20.4594 C   0  0  0  0  0  0  0  0  0  0  0  0
    6.5291  -13.2435   19.8210 C   0  0  0  0  0  0  0  0  0  0  0  0
    7.7419  -12.7367   20.2057 C   0  0  0  0  0  0  0  0  0  0  0  0
    8.5203  -13.3112   21.2070 C   0  0  0  0  0  0  0  0  0  0  0  0
   10.7454  -16.6275   23.4260 C   0  0  0  0  0  0  0  0  0  0  0  0
   10.3425  -17.4136   24.3236 O   0  0  0  0  0  0  0  0  0  0  0  0
   12.1410  -16.2916   23.5030 N   0  0  0  0  0  0  0  0  0  0  0  0
   13.0140  -16.8105   24.5107 C   0  0  0  0  0  0  0  0  0  0  0  0
   14.3574  -16.2417   24.5002 C   0  0  0  0  0  0  0  0  0  0  0  0
   14.7117  -15.4423   23.6057 O   0  0  0  0  0  0  0  0  0  0  0  0
   15.2681  -16.5764   25.4819 O   0  0  0  0  0  0  0  0  0  0  0  0
  1  2  1  0
  2  3  1  0
  3  4  1  6
  3  5  1  0
  5  6  2  0
  7  5  1  0
  7  8  1  0
  8  9  1  1
 10  9  1  0
 11 10  2  0
 12 11  1  0
 13 14  1  0
 13 12  2  0
 14 15  2  0
 15 10  1  0
 16 18  1  0
 16  8  1  0
 17 16  2  0
 19 18  1  0
 19 20  1  0
 20 22  1  0
 21 20  2  0
M  END
$$$$
