SFG.pdb
     RDKit          3D

 22 22  0  0  1  0  0  0  0  0999 V2000
    8.5860  -15.9491   19.8284 O   0  0  0  0  0  0  0  0  0  0  0  0
    7.3270  -15.3928   19.8996 C   0  0  0  0  0  0  0  0  0  0  0  0
    7.3079  -14.0436   20.6020 C   0  0  2  0  0  0  0  0  0  0  0  0
    7.9687  -13.1128   19.7097 N   0  0  0  0  0  0  0  0  0  0  0  0
    8.0433  -14.0842   21.8781 C   0  0  0  0  0  0  0  0  0  0  0  0
    9.1144  -13.4707   22.0040 O   0  0  0  0  0  0  0  0  0  0  0  0
    7.5686  -14.8195   23.0162 N   0  0  0  0  0  0  0  0  0  0  0  0
    8.2208  -14.8598   24.2698 C   0  0  1  0  0  0  0  0  0  0  0  0
    7.3317  -14.8631   25.5026 C   0  0  0  0  0  0  0  0  0  0  0  0
    6.9807  -13.5236   25.9839 C   0  0  0  0  0  0  0  0  0  0  0  0
    5.6736  -13.0951   25.8975 C   0  0  0  0  0  0  0  0  0  0  0  0
    5.2879  -11.8180   26.3343 C   0  0  0  0  0  0  0  0  0  0  0  0
    6.2317  -10.9707   26.8613 C   0  0  0  0  0  0  0  0  0  0  0  0
    7.5242  -11.4176   26.9372 C   0  0  0  0  0  0  0  0  0  0  0  0
    7.9153  -12.6825   26.5063 C   0  0  0  0  0  0  0  0  0  0  0  0
    9.3767  -15.7715   24.3784 C   0  0  0  0  0  0  0  0  0  0  0  0
   10.0282  -15.9279   25.4446 O   0  0  0  0  0  0  0  0  0  0  0  0
    9.8460  -16.5529   23.2668 N   0  0  0  0  0  0  0  0  0  0  0  0
   10.9243  -17.4875   23.3700 C   0  0  0  0  0  0  0  0  0  0  0  0
   12.0653  -17.1938   22.5096 C   0  0  0  0  0  0  0  0  0  0  0  0
   11.9342  -17.1218   21.2677 O   0  0  0  0  0  0  0  0  0  0  0  0
   13.3179  -16.9887   23.0519 O   0  0  0  0  0  0  0  0  0  0  0  0
  1  2  1  0
  2  3  1  0
  3  4  1  6
  3  5  1  0
  5  6  2  0
  7  5  1  0
  7  8  1  0
  8  9  1  1
 10  9  1  0
 11 10  2  0
 12 11  1  0
 13 14  1  0
 13 12  2  0
 14 15  2  0
 15 10  1  0
 16 18  1  0
 16  8  1  0
 17 16  2  0
 19 18  1  0
 19 20  1  0
 20 22  1  0
 21 20  2  0
M  END
$$$$
