SFG.pdb
     RDKit          3D

 22 22  0  0  1  0  0  0  0  0999 V2000
   10.3028  -19.1440   22.2397 O   0  0  0  0  0  0  0  0  0  0  0  0
   10.7196  -18.4638   21.1158 C   0  0  0  0  0  0  0  0  0  0  0  0
    9.8866  -17.2251   20.8229 C   0  0  2  0  0  0  0  0  0  0  0  0
   10.5605  -16.5290   19.7456 N   0  0  0  0  0  0  0  0  0  0  0  0
    9.8095  -16.3323   21.9925 C   0  0  0  0  0  0  0  0  0  0  0  0
   10.7871  -15.6419   22.3195 O   0  0  0  0  0  0  0  0  0  0  0  0
    8.6251  -16.2180   22.7959 N   0  0  0  0  0  0  0  0  0  0  0  0
    8.4968  -15.3594   23.9117 C   0  0  1  0  0  0  0  0  0  0  0  0
    7.1411  -14.7030   24.1162 C   0  0  0  0  0  0  0  0  0  0  0  0
    7.1168  -13.7190   25.2025 C   0  0  0  0  0  0  0  0  0  0  0  0
    6.4830  -14.0331   26.3854 C   0  0  0  0  0  0  0  0  0  0  0  0
    6.4223  -13.1222   27.4518 C   0  0  0  0  0  0  0  0  0  0  0  0
    7.0071  -11.8866   27.3188 C   0  0  0  0  0  0  0  0  0  0  0  0
    7.6311  -11.5962   26.1346 C   0  0  0  0  0  0  0  0  0  0  0  0
    7.6958  -12.4936   25.0720 C   0  0  0  0  0  0  0  0  0  0  0  0
    9.1205  -15.8194   25.1680 C   0  0  0  0  0  0  0  0  0  0  0  0
    8.8065  -16.8999   25.7335 O   0  0  0  0  0  0  0  0  0  0  0  0
   10.1393  -15.0618   25.8424 N   0  0  0  0  0  0  0  0  0  0  0  0
   10.9315  -15.5949   26.9078 C   0  0  0  0  0  0  0  0  0  0  0  0
   10.3092  -15.5141   28.2248 C   0  0  0  0  0  0  0  0  0  0  0  0
    9.5008  -14.6003   28.5006 O   0  0  0  0  0  0  0  0  0  0  0  0
   10.6019  -16.4491   29.1971 O   0  0  0  0  0  0  0  0  0  0  0  0
  1  2  1  0
  2  3  1  0
  3  4  1  6
  3  5  1  0
  5  6  2  0
  7  5  1  0
  7  8  1  0
  8  9  1  1
 10  9  1  0
 11 10  2  0
 12 11  1  0
 13 14  1  0
 13 12  2  0
 14 15  2  0
 15 10  1  0
 16 18  1  0
 16  8  1  0
 17 16  2  0
 19 18  1  0
 19 20  1  0
 20 22  1  0
 21 20  2  0
M  END
$$$$
