SFG.pdb
     RDKit          3D

 22 22  0  0  1  0  0  0  0  0999 V2000
    8.5495  -19.0179   20.4835 O   0  0  0  0  0  0  0  0  0  0  0  0
    7.2583  -18.5850   20.2715 C   0  0  0  0  0  0  0  0  0  0  0  0
    7.1653  -17.0916   19.9972 C   0  0  2  0  0  0  0  0  0  0  0  0
    7.9794  -16.8435   18.8247 N   0  0  0  0  0  0  0  0  0  0  0  0
    7.6935  -16.2983   21.1209 C   0  0  0  0  0  0  0  0  0  0  0  0
    8.8015  -15.7470   21.0325 O   0  0  0  0  0  0  0  0  0  0  0  0
    6.9691  -16.1262   22.3483 N   0  0  0  0  0  0  0  0  0  0  0  0
    7.4388  -15.3832   23.4556 C   0  0  1  0  0  0  0  0  0  0  0  0
    6.3899  -14.6756   24.2979 C   0  0  0  0  0  0  0  0  0  0  0  0
    6.9507  -13.7689   25.3041 C   0  0  0  0  0  0  0  0  0  0  0  0
    7.0756  -12.4279   25.0114 C   0  0  0  0  0  0  0  0  0  0  0  0
    7.6159  -11.5204   25.9360 C   0  0  0  0  0  0  0  0  0  0  0  0
    8.0320  -11.9743   27.1638 C   0  0  0  0  0  0  0  0  0  0  0  0
    7.8985  -13.3106   27.4328 C   0  0  0  0  0  0  0  0  0  0  0  0
    7.3638  -14.2174   26.5215 C   0  0  0  0  0  0  0  0  0  0  0  0
    8.5104  -16.0070   24.2565 C   0  0  0  0  0  0  0  0  0  0  0  0
    8.2817  -16.7963   25.2108 O   0  0  0  0  0  0  0  0  0  0  0  0
    9.9032  -15.7569   24.0038 N   0  0  0  0  0  0  0  0  0  0  0  0
   10.9496  -16.2461   24.8480 C   0  0  0  0  0  0  0  0  0  0  0  0
   12.2947  -15.8731   24.4240 C   0  0  0  0  0  0  0  0  0  0  0  0
   12.4803  -15.2063   23.3821 O   0  0  0  0  0  0  0  0  0  0  0  0
   13.3943  -16.2507   25.1680 O   0  0  0  0  0  0  0  0  0  0  0  0
  1  2  1  0
  2  3  1  0
  3  4  1  6
  3  5  1  0
  5  6  2  0
  7  5  1  0
  7  8  1  0
  8  9  1  1
 10  9  1  0
 11 10  2  0
 12 11  1  0
 13 14  1  0
 13 12  2  0
 14 15  2  0
 15 10  1  0
 16 18  1  0
 16  8  1  0
 17 16  2  0
 19 18  1  0
 19 20  1  0
 20 22  1  0
 21 20  2  0
M  END
$$$$
