SFG.pdb
     RDKit          3D

 22 22  0  0  1  0  0  0  0  0999 V2000
    8.3227  -15.2499   18.8096 O   0  0  0  0  0  0  0  0  0  0  0  0
    7.1810  -14.5427   19.1193 C   0  0  0  0  0  0  0  0  0  0  0  0
    7.4318  -13.3950   20.0857 C   0  0  2  0  0  0  0  0  0  0  0  0
    8.3592  -12.5015   19.4218 N   0  0  0  0  0  0  0  0  0  0  0  0
    8.0401  -13.8653   21.3427 C   0  0  0  0  0  0  0  0  0  0  0  0
    9.2499  -13.6921   21.5567 O   0  0  0  0  0  0  0  0  0  0  0  0
    7.2807  -14.5332   22.3617 N   0  0  0  0  0  0  0  0  0  0  0  0
    7.8157  -14.9839   23.5902 C   0  0  1  0  0  0  0  0  0  0  0  0
    6.8658  -15.0214   24.7762 C   0  0  0  0  0  0  0  0  0  0  0  0
    6.8747  -13.7966   25.5817 C   0  0  0  0  0  0  0  0  0  0  0  0
    5.8037  -12.9321   25.5100 C   0  0  0  0  0  0  0  0  0  0  0  0
    5.7685  -11.7414   26.2526 C   0  0  0  0  0  0  0  0  0  0  0  0
    6.8242  -11.4250   27.0722 C   0  0  0  0  0  0  0  0  0  0  0  0
    7.8776  -12.2986   27.1276 C   0  0  0  0  0  0  0  0  0  0  0  0
    7.9207  -13.4814   26.3944 C   0  0  0  0  0  0  0  0  0  0  0  0
    8.7167  -16.1513   23.5240 C   0  0  0  0  0  0  0  0  0  0  0  0
    8.3000  -17.3315   23.3845 O   0  0  0  0  0  0  0  0  0  0  0  0
   10.1458  -16.0251   23.6145 N   0  0  0  0  0  0  0  0  0  0  0  0
   11.0319  -17.1478   23.5820 C   0  0  0  0  0  0  0  0  0  0  0  0
   12.4478  -16.8009   23.5235 C   0  0  0  0  0  0  0  0  0  0  0  0
   12.8158  -15.6095   23.4247 O   0  0  0  0  0  0  0  0  0  0  0  0
   13.4136  -17.7856   23.5764 O   0  0  0  0  0  0  0  0  0  0  0  0
  1  2  1  0
  2  3  1  0
  3  4  1  6
  3  5  1  0
  5  6  2  0
  7  5  1  0
  7  8  1  0
  8  9  1  1
 10  9  1  0
 11 10  2  0
 12 11  1  0
 13 14  1  0
 13 12  2  0
 14 15  2  0
 15 10  1  0
 16 18  1  0
 16  8  1  0
 17 16  2  0
 19 18  1  0
 19 20  1  0
 20 22  1  0
 21 20  2  0
M  END
$$$$
