SFG.pdb
     RDKit          3D

 22 22  0  0  1  0  0  0  0  0999 V2000
   10.3530  -20.0748   20.5043 O   0  0  0  0  0  0  0  0  0  0  0  0
    9.0491  -19.7326   20.2171 C   0  0  0  0  0  0  0  0  0  0  0  0
    8.9198  -18.3669   19.5597 C   0  0  2  0  0  0  0  0  0  0  0  0
    9.5580  -18.4789   18.2637 N   0  0  0  0  0  0  0  0  0  0  0  0
    9.6046  -17.3209   20.3393 C   0  0  0  0  0  0  0  0  0  0  0  0
   10.6022  -16.7463   19.8767 O   0  0  0  0  0  0  0  0  0  0  0  0
    9.1622  -16.9216   21.6455 N   0  0  0  0  0  0  0  0  0  0  0  0
    9.7969  -15.9376   22.4376 C   0  0  1  0  0  0  0  0  0  0  0  0
    8.9211  -14.8087   22.9560 C   0  0  0  0  0  0  0  0  0  0  0  0
    8.1184  -14.1562   21.9172 C   0  0  0  0  0  0  0  0  0  0  0  0
    6.8446  -14.6149   21.6590 C   0  0  0  0  0  0  0  0  0  0  0  0
    6.0397  -14.0318   20.6678 C   0  0  0  0  0  0  0  0  0  0  0  0
    6.5282  -12.9784   19.9342 C   0  0  0  0  0  0  0  0  0  0  0  0
    7.7965  -12.5395   20.2078 C   0  0  0  0  0  0  0  0  0  0  0  0
    8.6015  -13.1120   21.1890 C   0  0  0  0  0  0  0  0  0  0  0  0
   10.7733  -16.4254   23.4313 C   0  0  0  0  0  0  0  0  0  0  0  0
   10.4367  -17.0334   24.4815 O   0  0  0  0  0  0  0  0  0  0  0  0
   12.1899  -16.2405   23.2715 N   0  0  0  0  0  0  0  0  0  0  0  0
   13.1556  -16.7975   24.1682 C   0  0  0  0  0  0  0  0  0  0  0  0
   14.5376  -16.4364   23.8712 C   0  0  0  0  0  0  0  0  0  0  0  0
   15.1083  -16.8628   22.8431 O   0  0  0  0  0  0  0  0  0  0  0  0
   15.2457  -15.6131   24.7232 O   0  0  0  0  0  0  0  0  0  0  0  0
  1  2  1  0
  2  3  1  0
  3  4  1  6
  3  5  1  0
  5  6  2  0
  7  5  1  0
  7  8  1  0
  8  9  1  1
 10  9  1  0
 11 10  2  0
 12 11  1  0
 13 14  1  0
 13 12  2  0
 14 15  2  0
 15 10  1  0
 16 18  1  0
 16  8  1  0
 17 16  2  0
 19 18  1  0
 19 20  1  0
 20 22  1  0
 21 20  2  0
M  END
$$$$
