SFG.pdb
     RDKit          3D

 22 22  0  0  1  0  0  0  0  0999 V2000
    8.2477  -17.3638   20.7949 O   0  0  0  0  0  0  0  0  0  0  0  0
    6.9649  -16.8636   20.8555 C   0  0  0  0  0  0  0  0  0  0  0  0
    6.9143  -15.3901   21.2304 C   0  0  2  0  0  0  0  0  0  0  0  0
    7.3242  -14.6573   20.0497 N   0  0  0  0  0  0  0  0  0  0  0  0
    7.8418  -15.0769   22.3316 C   0  0  0  0  0  0  0  0  0  0  0  0
    8.8221  -14.3421   22.1355 O   0  0  0  0  0  0  0  0  0  0  0  0
    7.6625  -15.5944   23.6587 N   0  0  0  0  0  0  0  0  0  0  0  0
    8.4415  -15.2152   24.7759 C   0  0  1  0  0  0  0  0  0  0  0  0
    7.7048  -15.0361   26.0932 C   0  0  0  0  0  0  0  0  0  0  0  0
    7.3174  -13.6500   26.3721 C   0  0  0  0  0  0  0  0  0  0  0  0
    5.9806  -13.3173   26.4163 C   0  0  0  0  0  0  0  0  0  0  0  0
    5.5578  -12.0027   26.6687 C   0  0  0  0  0  0  0  0  0  0  0  0
    6.4946  -11.0202   26.8775 C   0  0  0  0  0  0  0  0  0  0  0  0
    7.8169  -11.3738   26.8288 C   0  0  0  0  0  0  0  0  0  0  0  0
    8.2449  -12.6749   26.5790 C   0  0  0  0  0  0  0  0  0  0  0  0
    9.7484  -15.8858   24.9218 C   0  0  0  0  0  0  0  0  0  0  0  0
   10.4403  -15.8174   25.9718 O   0  0  0  0  0  0  0  0  0  0  0  0
   10.3308  -16.6715   23.8682 N   0  0  0  0  0  0  0  0  0  0  0  0
   11.5789  -17.3573   24.0049 C   0  0  0  0  0  0  0  0  0  0  0  0
   12.0118  -18.0721   22.8090 C   0  0  0  0  0  0  0  0  0  0  0  0
   11.6369  -19.2448   22.5881 O   0  0  0  0  0  0  0  0  0  0  0  0
   12.8477  -17.4651   21.8936 O   0  0  0  0  0  0  0  0  0  0  0  0
  1  2  1  0
  2  3  1  0
  3  4  1  6
  3  5  1  0
  5  6  2  0
  7  5  1  0
  7  8  1  0
  8  9  1  1
 10  9  1  0
 11 10  2  0
 12 11  1  0
 13 14  1  0
 13 12  2  0
 14 15  2  0
 15 10  1  0
 16 18  1  0
 16  8  1  0
 17 16  2  0
 19 18  1  0
 19 20  1  0
 20 22  1  0
 21 20  2  0
M  END
$$$$
