KNG.pdb
     RDKit          3D

 22 21  0  0  1  0  0  0  0  0999 V2000
    7.3992  -21.9745   22.8595 N   0  0  0  0  0  0  0  0  0  0  0  0
    6.7955  -20.6866   22.6777 C   0  0  1  0  0  0  0  0  0  0  0  0
    5.4110  -20.6798   22.1447 C   0  0  0  0  0  0  0  0  0  0  0  0
    5.0889  -21.9097   21.3629 C   0  0  0  0  0  0  0  0  0  0  0  0
    3.7616  -21.9503   20.6955 C   0  0  0  0  0  0  0  0  0  0  0  0
    3.5968  -23.2607   19.9384 C   0  0  0  0  0  0  0  0  0  0  0  0
    2.3323  -23.2198   19.2683 N   0  0  0  0  0  0  0  0  0  0  0  0
    6.7733  -19.9732   24.0049 C   0  0  0  0  0  0  0  0  0  0  0  0
    6.3461  -18.7954   24.0147 O   0  0  0  0  0  0  0  0  0  0  0  0
    7.1524  -22.3907   27.1106 N   0  0  0  0  0  0  0  0  0  0  0  0
    6.1625  -21.5266   27.7089 C   0  0  0  0  0  0  0  0  0  0  0  0
    5.3812  -22.0899   28.4992 O   0  0  0  0  0  0  0  0  0  0  0  0
    6.1469  -20.1132   27.3603 C   0  0  0  0  0  0  0  0  0  0  0  0
    7.2332  -19.7423   26.4141 C   0  0  2  0  0  0  0  0  0  0  0  0
    7.2072  -20.5740   25.2092 N   0  0  0  0  0  0  0  0  0  0  0  0
    8.5966  -19.7455   26.9427 C   0  0  0  0  0  0  0  0  0  0  0  0
    8.8628  -19.8987   28.1443 O   0  0  0  0  0  0  0  0  0  0  0  0
    9.7108  -19.5657   26.0634 N   0  0  0  0  0  0  0  0  0  0  0  0
   11.0672  -19.5132   26.5387 C   0  0  0  0  0  0  0  0  0  0  0  0
   12.0357  -19.2883   25.4427 C   0  0  0  0  0  0  0  0  0  0  0  0
   11.6464  -19.0531   24.2718 O   0  0  0  0  0  0  0  0  0  0  0  0
   13.4107  -19.3246   25.6472 O   0  0  0  0  0  0  0  0  0  0  0  0
  2  1  1  1
  2  3  1  0
  2  8  1  0
  4  3  1  0
  5  4  1  0
  6  5  1  0
  7  6  1  0
  8  9  2  0
 11 13  1  0
 11 10  1  0
 12 11  2  0
 14 13  1  1
 14 16  1  0
 15 14  1  0
 15  8  1  0
 16 17  2  0
 18 19  1  0
 18 16  1  0
 19 20  1  0
 20 21  2  0
 20 22  1  0
M  END
$$$$
