KNG.pdb
     RDKit          3D

 22 21  0  0  1  0  0  0  0  0999 V2000
    8.8456  -14.6444   20.1338 N   0  0  0  0  0  0  0  0  0  0  0  0
    7.9549  -15.1733   21.1253 C   0  0  1  0  0  0  0  0  0  0  0  0
    7.6920  -16.6320   21.0606 C   0  0  0  0  0  0  0  0  0  0  0  0
    7.3204  -17.0898   19.6894 C   0  0  0  0  0  0  0  0  0  0  0  0
    6.8093  -18.4797   19.5632 C   0  0  0  0  0  0  0  0  0  0  0  0
    6.3866  -18.7530   18.1265 C   0  0  0  0  0  0  0  0  0  0  0  0
    5.9642  -20.1188   18.0497 N   0  0  0  0  0  0  0  0  0  0  0  0
    8.5211  -14.8755   22.4897 C   0  0  0  0  0  0  0  0  0  0  0  0
    9.7590  -15.0027   22.6361 O   0  0  0  0  0  0  0  0  0  0  0  0
    5.7668  -12.3965   24.6630 N   0  0  0  0  0  0  0  0  0  0  0  0
    6.4187  -13.1465   25.7104 C   0  0  0  0  0  0  0  0  0  0  0  0
    5.6517  -13.6425   26.5578 O   0  0  0  0  0  0  0  0  0  0  0  0
    7.8696  -13.2657   25.7034 C   0  0  0  0  0  0  0  0  0  0  0  0
    8.3474  -14.4269   24.9058 C   0  0  2  0  0  0  0  0  0  0  0  0
    7.7219  -14.4671   23.5825 N   0  0  0  0  0  0  0  0  0  0  0  0
    8.2089  -15.7478   25.5176 C   0  0  0  0  0  0  0  0  0  0  0  0
    7.1681  -16.4199   25.4631 O   0  0  0  0  0  0  0  0  0  0  0  0
    9.3061  -16.3327   26.2254 N   0  0  0  0  0  0  0  0  0  0  0  0
    9.2464  -17.6580   26.7809 C   0  0  0  0  0  0  0  0  0  0  0  0
   10.5007  -18.0323   27.4712 C   0  0  0  0  0  0  0  0  0  0  0  0
   11.4934  -17.2626   27.4742 O   0  0  0  0  0  0  0  0  0  0  0  0
   10.6460  -19.2401   28.1449 O   0  0  0  0  0  0  0  0  0  0  0  0
  2  1  1  6
  2  3  1  0
  2  8  1  0
  4  3  1  0
  5  4  1  0
  6  5  1  0
  7  6  1  0
  8  9  2  0
 11 13  1  0
 11 10  1  0
 12 11  2  0
 14 13  1  1
 14 16  1  0
 15 14  1  0
 15  8  1  0
 16 17  2  0
 18 19  1  0
 18 16  1  0
 19 20  1  0
 20 21  2  0
 20 22  1  0
M  END
$$$$
