KNG.pdb
     RDKit          3D

 22 21  0  0  1  0  0  0  0  0999 V2000
    8.4207  -16.8811   20.9157 N   0  0  0  0  0  0  0  0  0  0  0  0
    8.9549  -15.5859   21.2211 C   0  0  1  0  0  0  0  0  0  0  0  0
    8.2642  -14.4281   20.6018 C   0  0  0  0  0  0  0  0  0  0  0  0
    8.3183  -14.4557   19.1105 C   0  0  0  0  0  0  0  0  0  0  0  0
    7.6941  -13.3113   18.3966 C   0  0  0  0  0  0  0  0  0  0  0  0
    7.7013  -13.5645   16.8955 C   0  0  0  0  0  0  0  0  0  0  0  0
    6.9740  -12.5010   16.2715 N   0  0  0  0  0  0  0  0  0  0  0  0
    8.9178  -15.3892   22.7146 C   0  0  0  0  0  0  0  0  0  0  0  0
    9.1378  -14.2335   23.1456 O   0  0  0  0  0  0  0  0  0  0  0  0
    6.6285  -16.9355   23.4603 N   0  0  0  0  0  0  0  0  0  0  0  0
    6.4699  -17.1173   24.8838 C   0  0  0  0  0  0  0  0  0  0  0  0
    5.3999  -17.6535   25.2297 O   0  0  0  0  0  0  0  0  0  0  0  0
    7.5298  -16.6781   25.7800 C   0  0  0  0  0  0  0  0  0  0  0  0
    8.7083  -16.1335   25.0537 C   0  0  2  0  0  0  0  0  0  0  0  0
    8.6494  -16.4393   23.6229 N   0  0  0  0  0  0  0  0  0  0  0  0
   10.0266  -16.5241   25.5512 C   0  0  0  0  0  0  0  0  0  0  0  0
   10.3914  -16.3554   26.7244 O   0  0  0  0  0  0  0  0  0  0  0  0
   10.9760  -17.1359   24.6729 N   0  0  0  0  0  0  0  0  0  0  0  0
   12.2933  -17.5168   25.1064 C   0  0  0  0  0  0  0  0  0  0  0  0
   13.3532  -16.7470   24.4180 C   0  0  0  0  0  0  0  0  0  0  0  0
   13.0668  -15.8517   23.5848 O   0  0  0  0  0  0  0  0  0  0  0  0
   14.7055  -16.9701   24.6534 O   0  0  0  0  0  0  0  0  0  0  0  0
  2  1  1  1
  2  3  1  0
  2  8  1  0
  4  3  1  0
  5  4  1  0
  6  5  1  0
  7  6  1  0
  8  9  2  0
 11 13  1  0
 11 10  1  0
 12 11  2  0
 14 13  1  1
 14 16  1  0
 15 14  1  0
 15  8  1  0
 16 17  2  0
 18 19  1  0
 18 16  1  0
 19 20  1  0
 20 21  2  0
 20 22  1  0
M  END
$$$$
