KNG.pdb
     RDKit          3D

 22 21  0  0  1  0  0  0  0  0999 V2000
    9.2399  -16.1312   19.2683 N   0  0  0  0  0  0  0  0  0  0  0  0
    9.1947  -14.7420   19.6207 C   0  0  1  0  0  0  0  0  0  0  0  0
    8.2661  -13.8947   18.8329 C   0  0  0  0  0  0  0  0  0  0  0  0
    8.3336  -14.1742   17.3683 C   0  0  0  0  0  0  0  0  0  0  0  0
    7.3545  -13.4634   16.5051 C   0  0  0  0  0  0  0  0  0  0  0  0
    7.6217  -13.7806   15.0404 C   0  0  0  0  0  0  0  0  0  0  0  0
    6.5682  -13.1932   14.2690 N   0  0  0  0  0  0  0  0  0  0  0  0
    8.7959  -14.6250   21.0691 C   0  0  0  0  0  0  0  0  0  0  0  0
    8.5916  -13.4722   21.5154 O   0  0  0  0  0  0  0  0  0  0  0  0
    6.9232  -14.3343   25.6904 N   0  0  0  0  0  0  0  0  0  0  0  0
    6.5534  -15.5566   25.0167 C   0  0  0  0  0  0  0  0  0  0  0  0
    5.9625  -16.3914   25.7282 O   0  0  0  0  0  0  0  0  0  0  0  0
    6.8841  -15.7216   23.6085 C   0  0  0  0  0  0  0  0  0  0  0  0
    8.3268  -15.4939   23.3262 C   0  0  2  0  0  0  0  0  0  0  0  0
    8.6480  -15.7449   21.9198 N   0  0  0  0  0  0  0  0  0  0  0  0
    9.2835  -16.2291   24.1522 C   0  0  0  0  0  0  0  0  0  0  0  0
    9.4140  -16.0471   25.3720 O   0  0  0  0  0  0  0  0  0  0  0  0
   10.1328  -17.2185   23.5634 N   0  0  0  0  0  0  0  0  0  0  0  0
   11.4845  -16.9343   23.1624 C   0  0  0  0  0  0  0  0  0  0  0  0
   12.4113  -16.8845   24.3150 C   0  0  0  0  0  0  0  0  0  0  0  0
   12.0016  -17.0864   25.4852 O   0  0  0  0  0  0  0  0  0  0  0  0
   13.7675  -16.6154   24.1668 O   0  0  0  0  0  0  0  0  0  0  0  0
  2  1  1  6
  2  3  1  0
  2  8  1  0
  4  3  1  0
  5  4  1  0
  6  5  1  0
  7  6  1  0
  8  9  2  0
 11 13  1  0
 11 10  1  0
 12 11  2  0
 14 13  1  1
 14 16  1  0
 15 14  1  0
 15  8  1  0
 16 17  2  0
 18 19  1  0
 18 16  1  0
 19 20  1  0
 20 21  2  0
 20 22  1  0
M  END
$$$$
