LHN.pdb
     RDKit          3D

 27 27  0  0  1  0  0  0  0  0999 V2000
   29.3647  -20.7477   -4.5870 C   0  0  0  0  0  0  0  0  0  0  0  0
   28.3165  -19.9419   -5.2991 C   0  0  1  0  0  0  0  0  0  0  0  0
   28.5713  -18.4604   -5.2543 C   0  0  0  0  0  0  0  0  0  0  0  0
   28.1353  -20.4685   -6.7014 C   0  0  0  0  0  0  0  0  0  0  0  0
   27.0975  -19.6796   -7.4677 C   0  0  2  0  0  0  0  0  0  0  0  0
   25.9114  -19.4828   -6.6940 N   0  0  0  0  0  0  0  0  0  0  0  0
   26.8206  -20.4354   -8.7320 C   0  0  0  0  0  0  0  0  0  0  0  0
   27.7480  -21.1714   -9.1635 O   0  0  0  0  0  0  0  0  0  0  0  0
   25.5769  -20.3256   -9.4063 N   0  0  0  0  0  0  0  0  0  0  0  0
   25.3421  -21.0983  -10.6546 C   0  0  1  0  0  0  0  0  0  0  0  0
   23.8774  -21.3427  -10.6752 C   0  0  0  0  0  0  0  0  0  0  0  0
   23.3366  -21.8844  -11.9321 C   0  0  0  0  0  0  0  0  0  0  0  0
   23.9662  -22.1468  -13.1262 C   0  0  0  0  0  0  0  0  0  0  0  0
   23.0879  -22.6112  -14.0238 N   0  0  0  0  0  0  0  0  0  0  0  0
   21.8831  -22.6579  -13.4323 C   0  0  0  0  0  0  0  0  0  0  0  0
   22.0322  -22.2200  -12.1719 N   0  0  0  0  0  0  0  0  0  0  0  0
   25.8737  -20.2385  -11.7329 C   0  0  0  0  0  0  0  0  0  0  0  0
   25.8774  -18.9562  -11.6093 O   0  0  0  0  0  0  0  0  0  0  0  0
   28.2736  -18.3318  -16.0959 N   0  0  0  0  0  0  0  0  0  0  0  0
   28.6932  -19.6269  -15.7132 C   0  0  0  0  0  0  0  0  0  0  0  0
   29.6544  -20.1775  -16.3696 O   0  0  0  0  0  0  0  0  0  0  0  0
   28.1397  -20.4202  -14.6254 C   0  0  0  0  0  0  0  0  0  0  0  0
   26.9543  -19.7620  -13.9468 C   0  0  2  0  0  0  0  0  0  0  0  0
   26.4188  -20.7070  -12.9624 N   0  0  0  0  0  0  0  0  0  0  0  0
   25.9383  -19.4045  -14.9455 C   0  0  0  0  0  0  0  0  0  0  0  0
   25.8151  -18.1189  -15.4984 O   0  0  0  0  0  0  0  0  0  0  0  0
   25.1168  -20.2486  -15.3583 O   0  0  0  0  0  0  0  0  0  0  0  0
  2  1  1  6
  2  3  1  0
  4  2  1  0
  5  4  1  0
  5  6  1  1
  7  8  2  0
  7  5  1  0
  9  7  1  0
 10  9  1  0
 11 12  1  0
 10 11  1  6
 12 16  1  0
 13 14  1  0
 13 12  2  0
 14 15  1  0
 15 16  2  0
 17 10  1  0
 17 18  2  0
 20 19  1  0
 21 20  2  0
 23 22  1  6
 22 20  1  0
 23 24  1  0
 24 17  1  0
 25 23  1  0
 26 25  1  0
 27 25  2  0
M  END
$$$$
