LHN.pdb
     RDKit          3D

 27 27  0  0  1  0  0  0  0  0999 V2000
   21.6031  -18.9912  -16.3195 C   0  0  0  0  0  0  0  0  0  0  0  0
   21.8394  -19.8693  -15.1243 C   0  0  1  0  0  0  0  0  0  0  0  0
   23.2421  -19.7821  -14.5889 C   0  0  0  0  0  0  0  0  0  0  0  0
   20.7885  -19.5965  -14.0766 C   0  0  0  0  0  0  0  0  0  0  0  0
   20.8633  -20.5858  -12.9354 C   0  0  2  0  0  0  0  0  0  0  0  0
   21.3907  -21.8433  -13.3650 N   0  0  0  0  0  0  0  0  0  0  0  0
   19.4763  -20.7210  -12.3835 C   0  0  0  0  0  0  0  0  0  0  0  0
   18.9043  -19.6557  -12.0288 O   0  0  0  0  0  0  0  0  0  0  0  0
   18.8427  -21.9853  -12.2674 N   0  0  0  0  0  0  0  0  0  0  0  0
   17.4820  -22.0786  -11.6754 C   0  0  1  0  0  0  0  0  0  0  0  0
   16.6145  -22.5226  -12.7960 C   0  0  0  0  0  0  0  0  0  0  0  0
   16.1274  -21.4586  -13.6885 C   0  0  0  0  0  0  0  0  0  0  0  0
   15.9513  -20.1157  -13.4509 C   0  0  0  0  0  0  0  0  0  0  0  0
   15.4571  -19.5110  -14.5385 N   0  0  0  0  0  0  0  0  0  0  0  0
   15.3054  -20.4436  -15.4928 C   0  0  0  0  0  0  0  0  0  0  0  0
   15.7090  -21.6175  -14.9813 N   0  0  0  0  0  0  0  0  0  0  0  0
   17.6274  -23.0259  -10.5501 C   0  0  0  0  0  0  0  0  0  0  0  0
   18.7918  -23.4379  -10.1842 O   0  0  0  0  0  0  0  0  0  0  0  0
   18.4961  -25.6428   -6.3150 N   0  0  0  0  0  0  0  0  0  0  0  0
   17.8667  -24.3783   -6.3867 C   0  0  0  0  0  0  0  0  0  0  0  0
   17.5027  -23.8129   -5.2887 O   0  0  0  0  0  0  0  0  0  0  0  0
   17.5837  -23.6301   -7.6029 C   0  0  0  0  0  0  0  0  0  0  0  0
   16.8196  -24.4339   -8.6367 C   0  0  2  0  0  0  0  0  0  0  0  0
   16.5529  -23.5564   -9.7802 N   0  0  0  0  0  0  0  0  0  0  0  0
   15.5698  -24.9414   -8.0553 C   0  0  0  0  0  0  0  0  0  0  0  0
   15.5254  -25.9302   -7.0584 O   0  0  0  0  0  0  0  0  0  0  0  0
   14.4620  -24.5062   -8.4312 O   0  0  0  0  0  0  0  0  0  0  0  0
  2  1  1  6
  2  3  1  0
  4  2  1  0
  5  4  1  0
  5  6  1  6
  7  8  2  0
  7  5  1  0
  9  7  1  0
 10  9  1  0
 11 12  1  0
 10 11  1  6
 12 16  1  0
 13 14  1  0
 13 12  2  0
 14 15  1  0
 15 16  2  0
 17 10  1  0
 17 18  2  0
 20 19  1  0
 21 20  2  0
 23 22  1  1
 22 20  1  0
 23 24  1  0
 24 17  1  0
 25 23  1  0
 26 25  1  0
 27 25  2  0
M  END
$$$$
