LHN.pdb
     RDKit          3D

 27 27  0  0  1  0  0  0  0  0999 V2000
   22.5102  -19.3278  -16.9462 C   0  0  0  0  0  0  0  0  0  0  0  0
   21.6516  -18.1923  -16.4679 C   0  0  1  0  0  0  0  0  0  0  0  0
   20.9766  -18.4687  -15.1528 C   0  0  0  0  0  0  0  0  0  0  0  0
   22.4537  -16.9144  -16.4639 C   0  0  0  0  0  0  0  0  0  0  0  0
   21.6084  -15.7222  -16.0757 C   0  0  2  0  0  0  0  0  0  0  0  0
   20.2455  -15.8941  -16.4720 N   0  0  0  0  0  0  0  0  0  0  0  0
   22.2294  -14.5190  -16.7187 C   0  0  0  0  0  0  0  0  0  0  0  0
   23.4514  -14.3213  -16.4829 O   0  0  0  0  0  0  0  0  0  0  0  0
   21.4771  -13.6490  -17.5497 N   0  0  0  0  0  0  0  0  0  0  0  0
   22.1232  -12.4454  -18.1367 C   0  0  1  0  0  0  0  0  0  0  0  0
   21.6800  -12.4347  -19.5541 C   0  0  0  0  0  0  0  0  0  0  0  0
   22.4796  -13.2518  -20.4807 C   0  0  0  0  0  0  0  0  0  0  0  0
   23.6206  -13.9854  -20.2550 C   0  0  0  0  0  0  0  0  0  0  0  0
   24.0384  -14.5584  -21.3907 N   0  0  0  0  0  0  0  0  0  0  0  0
   23.1826  -14.2093  -22.3650 C   0  0  0  0  0  0  0  0  0  0  0  0
   22.2431  -13.4220  -21.8175 N   0  0  0  0  0  0  0  0  0  0  0  0
   21.6529  -11.3220  -17.2992 C   0  0  0  0  0  0  0  0  0  0  0  0
   20.5707  -11.4257  -16.6082 O   0  0  0  0  0  0  0  0  0  0  0  0
   20.8361   -7.1125  -14.3395 N   0  0  0  0  0  0  0  0  0  0  0  0
   21.3745   -8.3693  -13.9780 C   0  0  0  0  0  0  0  0  0  0  0  0
   21.4520   -8.6649  -12.7272 O   0  0  0  0  0  0  0  0  0  0  0  0
   21.8592   -9.3896  -14.8962 C   0  0  0  0  0  0  0  0  0  0  0  0
   21.7200   -8.9984  -16.3543 C   0  0  2  0  0  0  0  0  0  0  0  0
   22.3125  -10.0669  -17.1644 N   0  0  0  0  0  0  0  0  0  0  0  0
   22.3918   -7.7149  -16.5968 C   0  0  0  0  0  0  0  0  0  0  0  0
   23.4572   -7.5571  -17.4987 O   0  0  0  0  0  0  0  0  0  0  0  0
   22.0375   -6.6797  -15.9962 O   0  0  0  0  0  0  0  0  0  0  0  0
  2  1  1  1
  2  3  1  0
  4  2  1  0
  5  4  1  0
  5  6  1  6
  7  8  2  0
  7  5  1  0
  9  7  1  0
 10  9  1  0
 11 12  1  0
 10 11  1  6
 12 16  1  0
 13 14  1  0
 13 12  2  0
 14 15  1  0
 15 16  2  0
 17 10  1  0
 17 18  2  0
 20 19  1  0
 21 20  2  0
 23 22  1  1
 22 20  1  0
 23 24  1  0
 24 17  1  0
 25 23  1  0
 26 25  1  0
 27 25  2  0
M  END
$$$$
