LHN.pdb
     RDKit          3D

 27 27  0  0  1  0  0  0  0  0999 V2000
   21.3769  -19.3958  -16.9865 C   0  0  0  0  0  0  0  0  0  0  0  0
   21.0957  -18.0592  -17.6109 C   0  0  1  0  0  0  0  0  0  0  0  0
   19.7824  -18.0076  -18.3418 C   0  0  0  0  0  0  0  0  0  0  0  0
   21.2383  -16.9728  -16.5737 C   0  0  0  0  0  0  0  0  0  0  0  0
   21.0436  -15.5973  -17.1709 C   0  0  2  0  0  0  0  0  0  0  0  0
   21.4349  -15.5621  -18.5456 N   0  0  0  0  0  0  0  0  0  0  0  0
   21.8440  -14.6425  -16.3377 C   0  0  0  0  0  0  0  0  0  0  0  0
   21.6129  -14.6446  -15.0990 O   0  0  0  0  0  0  0  0  0  0  0  0
   22.8116  -13.7815  -16.9171 N   0  0  0  0  0  0  0  0  0  0  0  0
   23.4658  -12.7380  -16.0842 C   0  0  1  0  0  0  0  0  0  0  0  0
   24.9122  -12.8582  -16.3990 C   0  0  0  0  0  0  0  0  0  0  0  0
   25.7714  -11.7812  -15.8817 C   0  0  0  0  0  0  0  0  0  0  0  0
   25.9164  -11.3027  -14.6007 C   0  0  0  0  0  0  0  0  0  0  0  0
   26.7905  -10.2888  -14.5782 N   0  0  0  0  0  0  0  0  0  0  0  0
   27.2242  -10.0935  -15.8341 C   0  0  0  0  0  0  0  0  0  0  0  0
   26.6105  -10.9923  -16.6201 N   0  0  0  0  0  0  0  0  0  0  0  0
   22.8148  -11.4739  -16.4880 C   0  0  0  0  0  0  0  0  0  0  0  0
   22.2139  -11.3778  -17.6234 O   0  0  0  0  0  0  0  0  0  0  0  0
   20.1203   -7.0490  -16.8764 N   0  0  0  0  0  0  0  0  0  0  0  0
   19.7047   -8.3738  -16.6075 C   0  0  0  0  0  0  0  0  0  0  0  0
   18.4447   -8.6376  -16.6368 O   0  0  0  0  0  0  0  0  0  0  0  0
   20.5753   -9.4982  -16.2966 C   0  0  0  0  0  0  0  0  0  0  0  0
   22.0356   -9.1095  -16.1745 C   0  0  2  0  0  0  0  0  0  0  0  0
   22.7754  -10.2848  -15.7052 N   0  0  0  0  0  0  0  0  0  0  0  0
   22.1800   -7.9848  -15.2408 C   0  0  0  0  0  0  0  0  0  0  0  0
   22.0546   -6.6392  -15.6246 O   0  0  0  0  0  0  0  0  0  0  0  0
   22.4275   -8.1789  -14.0330 O   0  0  0  0  0  0  0  0  0  0  0  0
  2  1  1  1
  2  3  1  0
  4  2  1  0
  5  4  1  0
  5  6  1  6
  7  8  2  0
  7  5  1  0
  9  7  1  0
 10  9  1  0
 11 12  1  0
 10 11  1  6
 12 16  1  0
 13 14  1  0
 13 12  2  0
 14 15  1  0
 15 16  2  0
 17 10  1  0
 17 18  2  0
 20 19  1  0
 21 20  2  0
 23 22  1  1
 22 20  1  0
 23 24  1  0
 24 17  1  0
 25 23  1  0
 26 25  1  0
 27 25  2  0
M  END
$$$$
