LHN.pdb
     RDKit          3D

 27 27  0  0  1  0  0  0  0  0999 V2000
   28.6515  -11.2168  -16.5502 C   0  0  0  0  0  0  0  0  0  0  0  0
   27.5670  -12.2525  -16.4704 C   0  0  1  0  0  0  0  0  0  0  0  0
   27.5910  -13.0431  -15.1913 C   0  0  0  0  0  0  0  0  0  0  0  0
   26.2292  -11.6106  -16.7438 C   0  0  0  0  0  0  0  0  0  0  0  0
   25.1013  -12.6159  -16.6836 C   0  0  2  0  0  0  0  0  0  0  0  0
   25.2219  -13.6019  -17.7120 N   0  0  0  0  0  0  0  0  0  0  0  0
   23.8217  -11.8436  -16.7976 C   0  0  0  0  0  0  0  0  0  0  0  0
   23.5202  -11.4185  -17.9448 O   0  0  0  0  0  0  0  0  0  0  0  0
   22.9947  -11.6049  -15.6696 N   0  0  0  0  0  0  0  0  0  0  0  0
   21.7371  -10.8275  -15.8263 C   0  0  1  0  0  0  0  0  0  0  0  0
   20.6812  -11.7022  -15.2559 C   0  0  0  0  0  0  0  0  0  0  0  0
   19.3164  -11.1518  -15.2723 C   0  0  0  0  0  0  0  0  0  0  0  0
   18.8723   -9.8967  -15.6162 C   0  0  0  0  0  0  0  0  0  0  0  0
   17.5451   -9.8129  -15.4598 N   0  0  0  0  0  0  0  0  0  0  0  0
   17.1089  -11.0027  -15.0153 C   0  0  0  0  0  0  0  0  0  0  0  0
   18.1756  -11.8100  -14.9020 N   0  0  0  0  0  0  0  0  0  0  0  0
   21.9890   -9.5594  -15.1099 C   0  0  0  0  0  0  0  0  0  0  0  0
   23.1359   -9.3251  -14.5721 O   0  0  0  0  0  0  0  0  0  0  0  0
   22.5439   -4.5389  -13.9963 N   0  0  0  0  0  0  0  0  0  0  0  0
   22.9432   -5.3013  -15.1185 C   0  0  0  0  0  0  0  0  0  0  0  0
   23.7778   -4.7784  -15.9479 O   0  0  0  0  0  0  0  0  0  0  0  0
   22.4997   -6.6502  -15.4394 C   0  0  0  0  0  0  0  0  0  0  0  0
   21.4712   -7.1904  -14.4653 C   0  0  2  0  0  0  0  0  0  0  0  0
   21.0434   -8.5067  -14.9481 N   0  0  0  0  0  0  0  0  0  0  0  0
   20.3341   -6.2653  -14.3707 C   0  0  0  0  0  0  0  0  0  0  0  0
   19.2834   -6.2325  -15.3026 O   0  0  0  0  0  0  0  0  0  0  0  0
   20.2483   -5.4449  -13.4340 O   0  0  0  0  0  0  0  0  0  0  0  0
  2  1  1  1
  2  3  1  0
  4  2  1  0
  5  4  1  0
  5  6  1  6
  7  8  2  0
  7  5  1  0
  9  7  1  0
 10  9  1  0
 11 12  1  0
 10 11  1  1
 12 16  1  0
 13 14  1  0
 13 12  2  0
 14 15  1  0
 15 16  2  0
 17 10  1  0
 17 18  2  0
 20 19  1  0
 21 20  2  0
 23 22  1  6
 22 20  1  0
 23 24  1  0
 24 17  1  0
 25 23  1  0
 26 25  1  0
 27 25  2  0
M  END
$$$$
