LHN.pdb
     RDKit          3D

 27 27  0  0  1  0  0  0  0  0999 V2000
   21.7242  -13.9503  -21.1371 C   0  0  0  0  0  0  0  0  0  0  0  0
   22.3978  -12.9946  -20.1948 C   0  0  1  0  0  0  0  0  0  0  0  0
   23.4688  -12.1669  -20.8502 C   0  0  0  0  0  0  0  0  0  0  0  0
   21.3585  -12.1622  -19.4851 C   0  0  0  0  0  0  0  0  0  0  0  0
   21.9828  -11.2275  -18.4735 C   0  0  2  0  0  0  0  0  0  0  0  0
   22.8256  -11.9321  -17.5584 N   0  0  0  0  0  0  0  0  0  0  0  0
   20.8573  -10.5292  -17.7719 C   0  0  0  0  0  0  0  0  0  0  0  0
   19.9932   -9.9765  -18.5038 O   0  0  0  0  0  0  0  0  0  0  0  0
   20.7723  -10.4938  -16.3560 N   0  0  0  0  0  0  0  0  0  0  0  0
   19.6565   -9.7618  -15.7005 C   0  0  1  0  0  0  0  0  0  0  0  0
   19.0163  -10.7675  -14.8150 C   0  0  0  0  0  0  0  0  0  0  0  0
   18.0392  -11.6588  -15.4606 C   0  0  0  0  0  0  0  0  0  0  0  0
   18.0910  -13.0146  -15.6848 C   0  0  0  0  0  0  0  0  0  0  0  0
   16.9928  -13.4218  -16.3334 N   0  0  0  0  0  0  0  0  0  0  0  0
   16.2158  -12.3460  -16.5395 C   0  0  0  0  0  0  0  0  0  0  0  0
   16.8457  -11.2833  -16.0139 N   0  0  0  0  0  0  0  0  0  0  0  0
   20.3047   -8.6183  -15.0246 C   0  0  0  0  0  0  0  0  0  0  0  0
   21.5006   -8.7230  -14.5574 O   0  0  0  0  0  0  0  0  0  0  0  0
   22.1973   -3.9865  -13.6202 N   0  0  0  0  0  0  0  0  0  0  0  0
   22.5337   -4.9051  -14.6415 C   0  0  0  0  0  0  0  0  0  0  0  0
   23.6476   -4.7440  -15.2667 O   0  0  0  0  0  0  0  0  0  0  0  0
   21.7327   -6.0436  -15.0673 C   0  0  0  0  0  0  0  0  0  0  0  0
   20.4848   -6.2450  -14.2301 C   0  0  2  0  0  0  0  0  0  0  0  0
   19.7131   -7.3374  -14.8301 N   0  0  0  0  0  0  0  0  0  0  0  0
   19.7015   -5.0031  -14.1887 C   0  0  0  0  0  0  0  0  0  0  0  0
   19.8920   -3.9996  -13.2242 O   0  0  0  0  0  0  0  0  0  0  0  0
   18.8077   -4.7778  -15.0301 O   0  0  0  0  0  0  0  0  0  0  0  0
  2  1  1  6
  2  3  1  0
  4  2  1  0
  5  4  1  0
  5  6  1  1
  7  8  2  0
  7  5  1  0
  9  7  1  0
 10  9  1  0
 11 12  1  0
 10 11  1  1
 12 16  1  0
 13 14  1  0
 13 12  2  0
 14 15  1  0
 15 16  2  0
 17 10  1  0
 17 18  2  0
 20 19  1  0
 21 20  2  0
 23 22  1  6
 22 20  1  0
 23 24  1  0
 24 17  1  0
 25 23  1  0
 26 25  1  0
 27 25  2  0
M  END
$$$$
