LHN.pdb
     RDKit          3D

 27 27  0  0  1  0  0  0  0  0999 V2000
   17.1650  -14.5368  -17.3465 C   0  0  0  0  0  0  0  0  0  0  0  0
   18.6091  -14.6691  -17.7367 C   0  0  1  0  0  0  0  0  0  0  0  0
   18.8725  -14.3164  -19.1748 C   0  0  0  0  0  0  0  0  0  0  0  0
   19.4704  -13.8938  -16.7705 C   0  0  0  0  0  0  0  0  0  0  0  0
   20.9097  -13.8280  -17.2295 C   0  0  2  0  0  0  0  0  0  0  0  0
   21.5946  -15.0593  -16.9867 N   0  0  0  0  0  0  0  0  0  0  0  0
   21.5472  -12.6819  -16.5038 C   0  0  0  0  0  0  0  0  0  0  0  0
   21.4155  -12.6647  -15.2507 O   0  0  0  0  0  0  0  0  0  0  0  0
   22.2616  -11.6695  -17.1954 N   0  0  0  0  0  0  0  0  0  0  0  0
   22.8953  -10.5607  -16.4341 C   0  0  1  0  0  0  0  0  0  0  0  0
   24.2638  -10.4505  -17.0003 C   0  0  0  0  0  0  0  0  0  0  0  0
   25.2593  -11.3873  -16.4550 C   0  0  0  0  0  0  0  0  0  0  0  0
   25.1507  -12.2954  -15.4281 C   0  0  0  0  0  0  0  0  0  0  0  0
   26.3150  -12.9298  -15.2421 N   0  0  0  0  0  0  0  0  0  0  0  0
   27.1920  -12.4481  -16.1379 C   0  0  0  0  0  0  0  0  0  0  0  0
   26.5566  -11.5186  -16.8691 N   0  0  0  0  0  0  0  0  0  0  0  0
   22.0056   -9.4006  -16.6518 C   0  0  0  0  0  0  0  0  0  0  0  0
   21.4676   -9.1922  -17.8035 O   0  0  0  0  0  0  0  0  0  0  0  0
   18.8922   -5.1473  -16.3189 N   0  0  0  0  0  0  0  0  0  0  0  0
   18.6079   -6.2909  -15.5369 C   0  0  0  0  0  0  0  0  0  0  0  0
   17.4600   -6.3667  -14.9586 O   0  0  0  0  0  0  0  0  0  0  0  0
   19.4993   -7.4202  -15.3153 C   0  0  0  0  0  0  0  0  0  0  0  0
   20.8370   -7.2739  -16.0137 C   0  0  2  0  0  0  0  0  0  0  0  0
   21.6565   -8.4374  -15.6625 N   0  0  0  0  0  0  0  0  0  0  0  0
   21.4864   -6.0234  -15.5987 C   0  0  0  0  0  0  0  0  0  0  0  0
   22.6864   -5.9794  -14.8696 O   0  0  0  0  0  0  0  0  0  0  0  0
   20.9880   -4.9148  -15.8820 O   0  0  0  0  0  0  0  0  0  0  0  0
  2  1  1  1
  2  3  1  0
  4  2  1  0
  5  4  1  0
  5  6  1  1
  7  8  2  0
  7  5  1  0
  9  7  1  0
 10  9  1  0
 11 12  1  0
 10 11  1  6
 12 16  1  0
 13 14  1  0
 13 12  2  0
 14 15  1  0
 15 16  2  0
 17 10  1  0
 17 18  2  0
 20 19  1  0
 21 20  2  0
 23 22  1  1
 22 20  1  0
 23 24  1  0
 24 17  1  0
 25 23  1  0
 26 25  1  0
 27 25  2  0
M  END
$$$$
