LHN.pdb
     RDKit          3D

 27 27  0  0  1  0  0  0  0  0999 V2000
   28.1395  -13.0441  -18.5806 C   0  0  0  0  0  0  0  0  0  0  0  0
   27.8213  -12.3658  -17.2791 C   0  0  1  0  0  0  0  0  0  0  0  0
   28.8699  -11.3764  -16.8509 C   0  0  0  0  0  0  0  0  0  0  0  0
   26.4364  -11.7703  -17.3407 C   0  0  0  0  0  0  0  0  0  0  0  0
   26.0606  -11.0875  -16.0449 C   0  0  2  0  0  0  0  0  0  0  0  0
   26.1712  -11.9777  -14.9316 N   0  0  0  0  0  0  0  0  0  0  0  0
   24.6627  -10.5732  -16.2120 C   0  0  0  0  0  0  0  0  0  0  0  0
   24.4726   -9.7508  -17.1476 O   0  0  0  0  0  0  0  0  0  0  0  0
   23.6096  -10.9927  -15.3586 N   0  0  0  0  0  0  0  0  0  0  0  0
   22.2303  -10.4843  -15.5817 C   0  0  1  0  0  0  0  0  0  0  0  0
   21.3481  -11.5110  -14.9710 C   0  0  0  0  0  0  0  0  0  0  0  0
   19.9045  -11.2312  -15.0299 C   0  0  0  0  0  0  0  0  0  0  0  0
   19.2302  -10.1733  -15.5929 C   0  0  0  0  0  0  0  0  0  0  0  0
   17.9126  -10.3007  -15.3923 N   0  0  0  0  0  0  0  0  0  0  0  0
   17.7109  -11.4344  -14.7013 C   0  0  0  0  0  0  0  0  0  0  0  0
   18.9106  -11.9956  -14.4824 N   0  0  0  0  0  0  0  0  0  0  0  0
   22.2151   -9.1508  -14.9443 C   0  0  0  0  0  0  0  0  0  0  0  0
   23.0124   -8.8792  -13.9696 O   0  0  0  0  0  0  0  0  0  0  0  0
   21.9201   -4.0756  -13.7058 N   0  0  0  0  0  0  0  0  0  0  0  0
   22.7930   -4.6951  -14.6301 C   0  0  0  0  0  0  0  0  0  0  0  0
   23.8129   -4.0300  -15.0488 O   0  0  0  0  0  0  0  0  0  0  0  0
   22.6562   -6.0409  -15.1679 C   0  0  0  0  0  0  0  0  0  0  0  0
   21.4493   -6.7824  -14.6272 C   0  0  2  0  0  0  0  0  0  0  0  0
   21.3662   -8.0710  -15.3211 N   0  0  0  0  0  0  0  0  0  0  0  0
   20.2334   -5.9863  -14.8403 C   0  0  0  0  0  0  0  0  0  0  0  0
   19.6954   -5.1212  -13.8730 O   0  0  0  0  0  0  0  0  0  0  0  0
   19.6068   -6.0446  -15.9181 O   0  0  0  0  0  0  0  0  0  0  0  0
  2  1  1  6
  2  3  1  0
  4  2  1  0
  5  4  1  0
  5  6  1  1
  7  8  2  0
  7  5  1  0
  9  7  1  0
 10  9  1  0
 11 12  1  0
 10 11  1  1
 12 16  1  0
 13 14  1  0
 13 12  2  0
 14 15  1  0
 15 16  2  0
 17 10  1  0
 17 18  2  0
 20 19  1  0
 21 20  2  0
 23 22  1  6
 22 20  1  0
 23 24  1  0
 24 17  1  0
 25 23  1  0
 26 25  1  0
 27 25  2  0
M  END
$$$$
