TSQ.pdb
     RDKit          3D

 23 22  0  0  1  0  0  0  0  0999 V2000
   10.4684  -15.2627   19.1396 C   0  0  0  0  0  0  0  0  0  0  0  0
    9.9752  -13.8512   18.7893 C   0  0  1  0  0  0  0  0  0  0  0  0
   10.3094  -13.5171   17.5070 O   0  0  0  0  0  0  0  0  0  0  0  0
    8.4964  -13.8404   19.0809 C   0  0  2  0  0  0  0  0  0  0  0  0
    7.9159  -12.5448   18.7049 N   0  0  0  0  0  0  0  0  0  0  0  0
    8.1544  -14.2070   20.4545 C   0  0  0  0  0  0  0  0  0  0  0  0
    8.3702  -13.3084   21.3458 O   0  0  0  0  0  0  0  0  0  0  0  0
    6.9850  -18.0579   21.7182 O   0  0  0  0  0  0  0  0  0  0  0  0
    6.3669  -16.9312   22.2495 C   0  0  0  0  0  0  0  0  0  0  0  0
    7.3006  -15.7163   22.2049 C   0  0  2  0  0  0  0  0  0  0  0  0
    7.6154  -15.4689   20.8140 N   0  0  0  0  0  0  0  0  0  0  0  0
    8.5070  -15.9835   23.0040 C   0  0  0  0  0  0  0  0  0  0  0  0
    9.5838  -16.2530   22.4084 O   0  0  0  0  0  0  0  0  0  0  0  0
   10.9246  -13.3837   27.8517 N   0  0  0  0  0  0  0  0  0  0  0  0
    9.5406  -13.6599   27.8511 C   0  0  0  0  0  0  0  0  0  0  0  0
    8.7720  -13.0176   28.5951 O   0  0  0  0  0  0  0  0  0  0  0  0
    9.0064  -14.7254   26.9539 C   0  0  0  0  0  0  0  0  0  0  0  0
   10.0873  -15.1849   26.0241 C   0  0  0  0  0  0  0  0  0  0  0  0
    9.7107  -16.3402   25.1530 C   0  0  2  0  0  0  0  0  0  0  0  0
    8.5140  -15.9511   24.4191 N   0  0  0  0  0  0  0  0  0  0  0  0
    9.4333  -17.5684   25.9112 C   0  0  0  0  0  0  0  0  0  0  0  0
   10.4489  -18.2297   26.5762 O   0  0  0  0  0  0  0  0  0  0  0  0
    8.2759  -18.0441   25.9734 O   0  0  0  0  0  0  0  0  0  0  0  0
  2  1  1  6
  2  4  1  0
  3  2  1  0
  4  5  1  1
  6  4  1  0
  6 11  1  0
  7  6  2  0
  8  9  1  0
 10  9  1  6
 10 11  1  0
 10 12  1  0
 12 20  1  0
 13 12  2  0
 15 17  1  0
 15 14  1  0
 16 15  2  0
 18 17  1  0
 19 18  1  1
 20 19  1  0
 21 19  1  0
 21 22  1  0
 23 21  2  0
M  END
$$$$
