TSQ.pdb
     RDKit          3D

 23 22  0  0  1  0  0  0  0  0999 V2000
    7.7519  -19.3848   17.2156 C   0  0  0  0  0  0  0  0  0  0  0  0
    8.0715  -18.6868   18.5456 C   0  0  1  0  0  0  0  0  0  0  0  0
    8.9431  -19.4276   19.2933 O   0  0  0  0  0  0  0  0  0  0  0  0
    8.5601  -17.3067   18.1869 C   0  0  2  0  0  0  0  0  0  0  0  0
    9.7199  -17.3977   17.2904 N   0  0  0  0  0  0  0  0  0  0  0  0
    8.8348  -16.4504   19.3399 C   0  0  0  0  0  0  0  0  0  0  0  0
   10.0711  -16.3207   19.6612 O   0  0  0  0  0  0  0  0  0  0  0  0
    5.9258  -15.2430   22.0317 O   0  0  0  0  0  0  0  0  0  0  0  0
    6.9423  -14.3308   21.7704 C   0  0  0  0  0  0  0  0  0  0  0  0
    8.2014  -15.0389   21.2575 C   0  0  2  0  0  0  0  0  0  0  0  0
    7.8211  -15.7890   20.0795 N   0  0  0  0  0  0  0  0  0  0  0  0
    8.7503  -15.9077   22.3107 C   0  0  0  0  0  0  0  0  0  0  0  0
    8.4542  -17.1320   22.3051 O   0  0  0  0  0  0  0  0  0  0  0  0
   13.9720  -18.1455   22.2551 N   0  0  0  0  0  0  0  0  0  0  0  0
   13.6009  -17.2816   23.3075 C   0  0  0  0  0  0  0  0  0  0  0  0
   14.3274  -16.3136   23.6109 O   0  0  0  0  0  0  0  0  0  0  0  0
   12.3338  -17.5364   24.0525 C   0  0  0  0  0  0  0  0  0  0  0  0
   11.6208  -16.2396   24.2853 C   0  0  0  0  0  0  0  0  0  0  0  0
   10.1305  -16.3476   24.3345 C   0  0  2  0  0  0  0  0  0  0  0  0
    9.6012  -15.4289   23.3356 N   0  0  0  0  0  0  0  0  0  0  0  0
    9.5701  -16.0053   25.6495 C   0  0  0  0  0  0  0  0  0  0  0  0
    9.0556  -14.7447   25.8889 O   0  0  0  0  0  0  0  0  0  0  0  0
    9.5447  -16.8427   26.5810 O   0  0  0  0  0  0  0  0  0  0  0  0
  2  1  1  6
  2  4  1  0
  3  2  1  0
  4  5  1  1
  6  4  1  0
  6 11  1  0
  7  6  2  0
  8  9  1  0
 10  9  1  1
 10 11  1  0
 10 12  1  0
 12 20  1  0
 13 12  2  0
 15 17  1  0
 15 14  1  0
 16 15  2  0
 18 17  1  0
 19 18  1  1
 20 19  1  0
 21 19  1  0
 21 22  1  0
 23 21  2  0
M  END
$$$$
