TSQ.pdb
     RDKit          3D

 23 22  0  0  1  0  0  0  0  0999 V2000
    6.9769  -15.9313   19.5650 C   0  0  0  0  0  0  0  0  0  0  0  0
    7.8431  -14.9051   18.8201 C   0  0  1  0  0  0  0  0  0  0  0  0
    7.4291  -14.7586   17.5260 O   0  0  0  0  0  0  0  0  0  0  0  0
    7.8001  -13.6441   19.6447 C   0  0  2  0  0  0  0  0  0  0  0  0
    8.3642  -12.5221   18.8833 N   0  0  0  0  0  0  0  0  0  0  0  0
    8.4216  -13.7691   20.9624 C   0  0  0  0  0  0  0  0  0  0  0  0
    9.7050  -13.7410   20.9829 O   0  0  0  0  0  0  0  0  0  0  0  0
    6.2805  -14.6113   24.4701 O   0  0  0  0  0  0  0  0  0  0  0  0
    7.4562  -13.8732   24.5523 C   0  0  0  0  0  0  0  0  0  0  0  0
    8.3973  -14.2021   23.3879 C   0  0  2  0  0  0  0  0  0  0  0  0
    7.6811  -13.9134   22.1636 N   0  0  0  0  0  0  0  0  0  0  0  0
    8.8129  -15.6117   23.4640 C   0  0  0  0  0  0  0  0  0  0  0  0
    8.0856  -16.4901   22.9291 O   0  0  0  0  0  0  0  0  0  0  0  0
   12.8654  -18.7393   21.2978 N   0  0  0  0  0  0  0  0  0  0  0  0
   12.8082  -17.3410   21.4801 C   0  0  0  0  0  0  0  0  0  0  0  0
   13.4938  -16.5857   20.7616 O   0  0  0  0  0  0  0  0  0  0  0  0
   11.9216  -16.7757   22.5384 C   0  0  0  0  0  0  0  0  0  0  0  0
   11.1679  -17.8854   23.2051 C   0  0  0  0  0  0  0  0  0  0  0  0
   10.2635  -17.4475   24.3122 C   0  0  2  0  0  0  0  0  0  0  0  0
    9.9993  -16.0287   24.1137 N   0  0  0  0  0  0  0  0  0  0  0  0
   10.8462  -17.6473   25.6467 C   0  0  0  0  0  0  0  0  0  0  0  0
   11.0009  -16.5820   26.5140 O   0  0  0  0  0  0  0  0  0  0  0  0
   11.2152  -18.7818   26.0295 O   0  0  0  0  0  0  0  0  0  0  0  0
  2  1  1  1
  2  4  1  0
  3  2  1  0
  4  5  1  6
  6  4  1  0
  6 11  1  0
  7  6  2  0
  8  9  1  0
 10  9  1  1
 10 11  1  0
 10 12  1  0
 12 20  1  0
 13 12  2  0
 15 17  1  0
 15 14  1  0
 16 15  2  0
 18 17  1  0
 19 18  1  6
 20 19  1  0
 21 19  1  0
 21 22  1  0
 23 21  2  0
M  END
$$$$
