TSQ.pdb
     RDKit          3D

 23 22  0  0  1  0  0  0  0  0999 V2000
    7.9204  -19.7267   17.1953 C   0  0  0  0  0  0  0  0  0  0  0  0
    8.4462  -19.0239   18.4554 C   0  0  1  0  0  0  0  0  0  0  0  0
    9.5386  -19.6712   18.9604 O   0  0  0  0  0  0  0  0  0  0  0  0
    8.6863  -17.5881   18.0643 C   0  0  2  0  0  0  0  0  0  0  0  0
    9.5896  -17.5228   16.9082 N   0  0  0  0  0  0  0  0  0  0  0  0
    9.1500  -16.7386   19.1605 C   0  0  0  0  0  0  0  0  0  0  0  0
   10.4198  -16.5658   19.2384 O   0  0  0  0  0  0  0  0  0  0  0  0
    6.8137  -15.5976   22.5168 O   0  0  0  0  0  0  0  0  0  0  0  0
    7.7123  -14.7042   21.9442 C   0  0  0  0  0  0  0  0  0  0  0  0
    8.8523  -15.4450   21.2362 C   0  0  2  0  0  0  0  0  0  0  0  0
    8.2771  -16.1277   20.0970 N   0  0  0  0  0  0  0  0  0  0  0  0
    9.4972  -16.3804   22.1714 C   0  0  0  0  0  0  0  0  0  0  0  0
    9.6361  -17.5845   21.8285 O   0  0  0  0  0  0  0  0  0  0  0  0
   15.6099  -16.3981   23.5823 N   0  0  0  0  0  0  0  0  0  0  0  0
   14.3905  -16.3043   22.8780 C   0  0  0  0  0  0  0  0  0  0  0  0
   14.3586  -16.5110   21.6480 O   0  0  0  0  0  0  0  0  0  0  0  0
   13.1423  -15.9563   23.6172 C   0  0  0  0  0  0  0  0  0  0  0  0
   12.1108  -17.0175   23.3847 C   0  0  0  0  0  0  0  0  0  0  0  0
   10.8638  -16.8629   24.1948 C   0  0  2  0  0  0  0  0  0  0  0  0
    9.9721  -15.9876   23.4457 N   0  0  0  0  0  0  0  0  0  0  0  0
   11.1065  -16.2815   25.5227 C   0  0  0  0  0  0  0  0  0  0  0  0
   11.7908  -16.9949   26.4891 O   0  0  0  0  0  0  0  0  0  0  0  0
   10.7016  -15.1313   25.8105 O   0  0  0  0  0  0  0  0  0  0  0  0
  2  1  1  6
  2  4  1  0
  3  2  1  0
  4  5  1  6
  6  4  1  0
  6 11  1  0
  7  6  2  0
  8  9  1  0
 10  9  1  1
 10 11  1  0
 10 12  1  0
 12 20  1  0
 13 12  2  0
 15 17  1  0
 15 14  1  0
 16 15  2  0
 18 17  1  0
 19 18  1  6
 20 19  1  0
 21 19  1  0
 21 22  1  0
 23 21  2  0
M  END
$$$$
