TSQ.pdb
     RDKit          3D

 23 22  0  0  1  0  0  0  0  0999 V2000
    5.9657  -13.5461   25.7189 C   0  0  0  0  0  0  0  0  0  0  0  0
    7.2578  -14.2248   25.2413 C   0  0  1  0  0  0  0  0  0  0  0  0
    8.0810  -14.5118   26.2936 O   0  0  0  0  0  0  0  0  0  0  0  0
    6.8273  -15.4204   24.4305 C   0  0  2  0  0  0  0  0  0  0  0  0
    6.1323  -16.3895   25.2877 N   0  0  0  0  0  0  0  0  0  0  0  0
    7.9071  -16.0487   23.6707 C   0  0  0  0  0  0  0  0  0  0  0  0
    8.3431  -17.1645   24.1324 O   0  0  0  0  0  0  0  0  0  0  0  0
   10.6331  -16.2853   19.6905 O   0  0  0  0  0  0  0  0  0  0  0  0
    9.7242  -15.5601   20.4531 C   0  0  0  0  0  0  0  0  0  0  0  0
    9.5609  -16.1731   21.8486 C   0  0  2  0  0  0  0  0  0  0  0  0
    8.4610  -15.4867   22.4919 N   0  0  0  0  0  0  0  0  0  0  0  0
   10.8154  -16.0343   22.6053 C   0  0  0  0  0  0  0  0  0  0  0  0
   11.1039  -14.9143   23.1045 O   0  0  0  0  0  0  0  0  0  0  0  0
   12.7172  -20.1877   26.2367 N   0  0  0  0  0  0  0  0  0  0  0  0
   11.8662  -19.1118   26.5682 C   0  0  0  0  0  0  0  0  0  0  0  0
   11.1237  -19.1838   27.5684 O   0  0  0  0  0  0  0  0  0  0  0  0
   11.8628  -17.8896   25.7127 C   0  0  0  0  0  0  0  0  0  0  0  0
   12.9018  -18.0254   24.6421 C   0  0  0  0  0  0  0  0  0  0  0  0
   12.9013  -16.9252   23.6298 C   0  0  2  0  0  0  0  0  0  0  0  0
   11.7179  -17.1072   22.7999 N   0  0  0  0  0  0  0  0  0  0  0  0
   14.0958  -16.9282   22.7734 C   0  0  0  0  0  0  0  0  0  0  0  0
   13.9921  -17.1981   21.4215 O   0  0  0  0  0  0  0  0  0  0  0  0
   15.2315  -16.6877   23.2445 O   0  0  0  0  0  0  0  0  0  0  0  0
  2  1  1  1
  2  4  1  0
  3  2  1  0
  4  5  1  1
  6  4  1  0
  6 11  1  0
  7  6  2  0
  8  9  1  0
 10  9  1  6
 10 11  1  0
 10 12  1  0
 12 20  1  0
 13 12  2  0
 15 17  1  0
 15 14  1  0
 16 15  2  0
 18 17  1  0
 19 18  1  1
 20 19  1  0
 21 19  1  0
 21 22  1  0
 23 21  2  0
M  END
$$$$
