TSQ.pdb
     RDKit          3D

 23 22  0  0  1  0  0  0  0  0999 V2000
    8.1687  -16.8225   16.7558 C   0  0  0  0  0  0  0  0  0  0  0  0
    8.4728  -15.6088   15.8655 C   0  0  1  0  0  0  0  0  0  0  0  0
    8.0718  -15.8300   14.5779 O   0  0  0  0  0  0  0  0  0  0  0  0
    7.8237  -14.4251   16.5359 C   0  0  2  0  0  0  0  0  0  0  0  0
    7.8462  -13.2612   15.6404 N   0  0  0  0  0  0  0  0  0  0  0  0
    8.3759  -14.1049   17.8514 C   0  0  0  0  0  0  0  0  0  0  0  0
    9.5849  -13.6726   17.8628 O   0  0  0  0  0  0  0  0  0  0  0  0
    6.6425  -15.3331   21.4299 O   0  0  0  0  0  0  0  0  0  0  0  0
    7.2831  -14.0988   21.4266 C   0  0  0  0  0  0  0  0  0  0  0  0
    8.3345  -14.0252   20.3137 C   0  0  2  0  0  0  0  0  0  0  0  0
    7.6476  -14.2511   19.0598 N   0  0  0  0  0  0  0  0  0  0  0  0
    9.3870  -15.0254   20.5535 C   0  0  0  0  0  0  0  0  0  0  0  0
    9.3181  -16.1349   19.9612 O   0  0  0  0  0  0  0  0  0  0  0  0
   15.2352  -14.2660   20.6140 N   0  0  0  0  0  0  0  0  0  0  0  0
   14.2975  -14.3238   19.5609 C   0  0  0  0  0  0  0  0  0  0  0  0
   14.5762  -13.8403   18.4449 O   0  0  0  0  0  0  0  0  0  0  0  0
   12.9721  -14.9676   19.7943 C   0  0  0  0  0  0  0  0  0  0  0  0
   12.8044  -15.2519   21.2555 C   0  0  0  0  0  0  0  0  0  0  0  0
   11.4799  -15.8363   21.6289 C   0  0  2  0  0  0  0  0  0  0  0  0
   10.4799  -14.7970   21.4235 N   0  0  0  0  0  0  0  0  0  0  0  0
   11.4226  -16.2911   23.0254 C   0  0  0  0  0  0  0  0  0  0  0  0
   12.1588  -17.3852   23.4402 O   0  0  0  0  0  0  0  0  0  0  0  0
   10.7092  -15.7019   23.8701 O   0  0  0  0  0  0  0  0  0  0  0  0
  2  1  1  1
  2  4  1  0
  3  2  1  0
  4  5  1  6
  6  4  1  0
  6 11  1  0
  7  6  2  0
  8  9  1  0
 10  9  1  1
 10 11  1  0
 10 12  1  0
 12 20  1  0
 13 12  2  0
 15 17  1  0
 15 14  1  0
 16 15  2  0
 18 17  1  0
 19 18  1  1
 20 19  1  0
 21 19  1  0
 21 22  1  0
 23 21  2  0
M  END
$$$$
