TSQ.pdb
     RDKit          3D

 23 22  0  0  1  0  0  0  0  0999 V2000
   11.0532  -13.9668   19.6813 C   0  0  0  0  0  0  0  0  0  0  0  0
    9.8888  -13.0553   19.2672 C   0  0  1  0  0  0  0  0  0  0  0  0
   10.2305  -12.2748   18.1987 O   0  0  0  0  0  0  0  0  0  0  0  0
    8.7084  -13.9636   19.0354 C   0  0  2  0  0  0  0  0  0  0  0  0
    7.5558  -13.1852   18.5638 N   0  0  0  0  0  0  0  0  0  0  0  0
    8.3618  -14.7997   20.1839 C   0  0  0  0  0  0  0  0  0  0  0  0
    7.7109  -14.2183   21.1256 O   0  0  0  0  0  0  0  0  0  0  0  0
   10.0427  -18.6208   21.0674 O   0  0  0  0  0  0  0  0  0  0  0  0
    8.6948  -18.3538   21.2810 C   0  0  0  0  0  0  0  0  0  0  0  0
    8.4608  -16.8598   21.5319 C   0  0  2  0  0  0  0  0  0  0  0  0
    8.7079  -16.1718   20.2827 N   0  0  0  0  0  0  0  0  0  0  0  0
    9.3494  -16.3882   22.6059 C   0  0  0  0  0  0  0  0  0  0  0  0
   10.3727  -15.7205   22.2997 O   0  0  0  0  0  0  0  0  0  0  0  0
    7.9062  -13.1551   27.0449 N   0  0  0  0  0  0  0  0  0  0  0  0
    9.1508  -13.5070   27.6097 C   0  0  0  0  0  0  0  0  0  0  0  0
    9.5327  -12.9717   28.6700 O   0  0  0  0  0  0  0  0  0  0  0  0
   10.0038  -14.5234   26.9278 C   0  0  0  0  0  0  0  0  0  0  0  0
    9.2797  -15.0639   25.7330 C   0  0  0  0  0  0  0  0  0  0  0  0
   10.0135  -16.1346   24.9911 C   0  0  2  0  0  0  0  0  0  0  0  0
    9.1058  -16.6509   23.9753 N   0  0  0  0  0  0  0  0  0  0  0  0
   10.4496  -17.2406   25.8552 C   0  0  0  0  0  0  0  0  0  0  0  0
    9.8653  -18.4890   25.7495 O   0  0  0  0  0  0  0  0  0  0  0  0
   11.3566  -17.0806   26.7045 O   0  0  0  0  0  0  0  0  0  0  0  0
  2  1  1  6
  2  4  1  0
  3  2  1  0
  4  5  1  1
  6  4  1  0
  6 11  1  0
  7  6  2  0
  8  9  1  0
 10  9  1  6
 10 11  1  0
 10 12  1  0
 12 20  1  0
 13 12  2  0
 15 17  1  0
 15 14  1  0
 16 15  2  0
 18 17  1  0
 19 18  1  1
 20 19  1  0
 21 19  1  0
 21 22  1  0
 23 21  2  0
M  END
$$$$
