TSQ.pdb
     RDKit          3D

 23 22  0  0  1  0  0  0  0  0999 V2000
    8.2393  -16.3264   17.4909 C   0  0  0  0  0  0  0  0  0  0  0  0
    8.4999  -14.9576   16.8454 C   0  0  1  0  0  0  0  0  0  0  0  0
    8.1325  -14.9562   15.5291 O   0  0  0  0  0  0  0  0  0  0  0  0
    7.7826  -13.9470   17.7035 C   0  0  2  0  0  0  0  0  0  0  0  0
    7.8655  -12.6142   17.0921 N   0  0  0  0  0  0  0  0  0  0  0  0
    8.2192  -13.9291   19.0989 C   0  0  0  0  0  0  0  0  0  0  0  0
    9.4332  -13.5642   19.3027 O   0  0  0  0  0  0  0  0  0  0  0  0
    7.3034  -14.9125   23.7668 O   0  0  0  0  0  0  0  0  0  0  0  0
    6.8475  -14.8532   22.4544 C   0  0  0  0  0  0  0  0  0  0  0  0
    7.9654  -14.4172   21.5006 C   0  0  2  0  0  0  0  0  0  0  0  0
    7.3784  -14.2864   20.1840 N   0  0  0  0  0  0  0  0  0  0  0  0
    9.0550  -15.4060   21.5225 C   0  0  0  0  0  0  0  0  0  0  0  0
    9.2644  -16.1033   20.4945 O   0  0  0  0  0  0  0  0  0  0  0  0
   13.4131  -14.3023   19.6060 N   0  0  0  0  0  0  0  0  0  0  0  0
   14.1416  -15.1487   20.4689 C   0  0  0  0  0  0  0  0  0  0  0  0
   15.3878  -15.1780   20.4147 O   0  0  0  0  0  0  0  0  0  0  0  0
   13.4086  -16.0066   21.4447 C   0  0  0  0  0  0  0  0  0  0  0  0
   11.9916  -15.5343   21.5604 C   0  0  0  0  0  0  0  0  0  0  0  0
   11.1477  -16.3218   22.5106 C   0  0  2  0  0  0  0  0  0  0  0  0
    9.8840  -15.6108   22.6514 N   0  0  0  0  0  0  0  0  0  0  0  0
   11.7633  -16.4780   23.8361 C   0  0  0  0  0  0  0  0  0  0  0  0
   12.8085  -17.3624   24.0270 O   0  0  0  0  0  0  0  0  0  0  0  0
   11.3584  -15.8174   24.8206 O   0  0  0  0  0  0  0  0  0  0  0  0
  2  1  1  1
  2  4  1  0
  3  2  1  0
  4  5  1  6
  6  4  1  0
  6 11  1  0
  7  6  2  0
  8  9  1  0
 10  9  1  1
 10 11  1  0
 10 12  1  0
 12 20  1  0
 13 12  2  0
 15 17  1  0
 15 14  1  0
 16 15  2  0
 18 17  1  0
 19 18  1  6
 20 19  1  0
 21 19  1  0
 21 22  1  0
 23 21  2  0
M  END
$$$$
