TSQ.pdb
     RDKit          3D

 23 22  0  0  1  0  0  0  0  0999 V2000
    7.9699  -19.3698   19.3083 C   0  0  0  0  0  0  0  0  0  0  0  0
    8.7881  -19.0057   18.0609 C   0  0  1  0  0  0  0  0  0  0  0  0
    8.4792  -19.8263   17.0127 O   0  0  0  0  0  0  0  0  0  0  0  0
    8.5402  -17.5400   17.8112 C   0  0  2  0  0  0  0  0  0  0  0  0
    9.2095  -17.1171   16.5742 N   0  0  0  0  0  0  0  0  0  0  0  0
    8.8882  -16.6737   18.9366 C   0  0  0  0  0  0  0  0  0  0  0  0
   10.1415  -16.5594   19.1906 O   0  0  0  0  0  0  0  0  0  0  0  0
    6.1223  -15.4086   21.7949 O   0  0  0  0  0  0  0  0  0  0  0  0
    7.1591  -14.5395   21.4733 C   0  0  0  0  0  0  0  0  0  0  0  0
    8.3663  -15.3022   20.9159 C   0  0  2  0  0  0  0  0  0  0  0  0
    7.9249  -15.9873   19.7197 N   0  0  0  0  0  0  0  0  0  0  0  0
    8.8779  -16.2378   21.9299 C   0  0  0  0  0  0  0  0  0  0  0  0
    8.3896  -17.3975   21.9891 O   0  0  0  0  0  0  0  0  0  0  0  0
   14.2918  -18.0077   23.4515 N   0  0  0  0  0  0  0  0  0  0  0  0
   14.0320  -16.6475   23.1797 C   0  0  0  0  0  0  0  0  0  0  0  0
   14.9484  -15.9011   22.7796 O   0  0  0  0  0  0  0  0  0  0  0  0
   12.6536  -16.1114   23.3750 C   0  0  0  0  0  0  0  0  0  0  0  0
   11.7017  -17.2469   23.5951 C   0  0  0  0  0  0  0  0  0  0  0  0
   10.2949  -16.8334   23.8873 C   0  0  2  0  0  0  0  0  0  0  0  0
    9.8999  -15.8935   22.8468 N   0  0  0  0  0  0  0  0  0  0  0  0
   10.1431  -16.1908   25.2004 C   0  0  0  0  0  0  0  0  0  0  0  0
    9.6571  -14.9005   25.3008 O   0  0  0  0  0  0  0  0  0  0  0  0
   10.4487  -16.7929   26.2558 O   0  0  0  0  0  0  0  0  0  0  0  0
  2  1  1  1
  2  4  1  0
  3  2  1  0
  4  5  1  6
  6  4  1  0
  6 11  1  0
  7  6  2  0
  8  9  1  0
 10  9  1  1
 10 11  1  0
 10 12  1  0
 12 20  1  0
 13 12  2  0
 15 17  1  0
 15 14  1  0
 16 15  2  0
 18 17  1  0
 19 18  1  6
 20 19  1  0
 21 19  1  0
 21 22  1  0
 23 21  2  0
M  END
$$$$
