TSQ.pdb
     RDKit          3D

 23 22  0  0  1  0  0  0  0  0999 V2000
    9.2126  -12.4249   20.3085 C   0  0  0  0  0  0  0  0  0  0  0  0
    8.4801  -12.7730   19.0045 C   0  0  1  0  0  0  0  0  0  0  0  0
    8.7889  -11.8836   18.0139 O   0  0  0  0  0  0  0  0  0  0  0  0
    8.8293  -14.2071   18.6985 C   0  0  2  0  0  0  0  0  0  0  0  0
    8.1649  -14.6368   17.4613 N   0  0  0  0  0  0  0  0  0  0  0  0
    8.5717  -15.1340   19.7997 C   0  0  0  0  0  0  0  0  0  0  0  0
    7.5302  -15.8748   19.6781 O   0  0  0  0  0  0  0  0  0  0  0  0
    9.2005  -18.7101   21.9950 O   0  0  0  0  0  0  0  0  0  0  0  0
    9.3017  -17.6240   21.1327 C   0  0  0  0  0  0  0  0  0  0  0  0
    9.1508  -16.3005   21.8913 C   0  0  2  0  0  0  0  0  0  0  0  0
    9.4017  -15.2338   20.9457 N   0  0  0  0  0  0  0  0  0  0  0  0
   10.0887  -16.2644   23.0246 C   0  0  0  0  0  0  0  0  0  0  0  0
   11.3110  -16.0627   22.7965 O   0  0  0  0  0  0  0  0  0  0  0  0
    8.4551  -13.8670   28.2321 N   0  0  0  0  0  0  0  0  0  0  0  0
    9.7540  -14.2433   28.6357 C   0  0  0  0  0  0  0  0  0  0  0  0
   10.1556  -13.9771   29.7867 O   0  0  0  0  0  0  0  0  0  0  0  0
   10.6408  -14.9613   27.6746 C   0  0  0  0  0  0  0  0  0  0  0  0
    9.8696  -15.2925   26.4338 C   0  0  0  0  0  0  0  0  0  0  0  0
   10.6003  -16.1579   25.4580 C   0  0  2  0  0  0  0  0  0  0  0  0
    9.6788  -16.4461   24.3672 N   0  0  0  0  0  0  0  0  0  0  0  0
   11.0649  -17.4234   26.0438 C   0  0  0  0  0  0  0  0  0  0  0  0
   12.2574  -17.4806   26.7407 O   0  0  0  0  0  0  0  0  0  0  0  0
   10.3955  -18.4759   25.9269 O   0  0  0  0  0  0  0  0  0  0  0  0
  2  1  1  1
  2  4  1  0
  3  2  1  0
  4  5  1  6
  6  4  1  0
  6 11  1  0
  7  6  2  0
  8  9  1  0
 10  9  1  6
 10 11  1  0
 10 12  1  0
 12 20  1  0
 13 12  2  0
 15 17  1  0
 15 14  1  0
 16 15  2  0
 18 17  1  0
 19 18  1  1
 20 19  1  0
 21 19  1  0
 21 22  1  0
 23 21  2  0
M  END
$$$$
