TSQ.pdb
     RDKit          3D

 23 22  0  0  1  0  0  0  0  0999 V2000
   18.1416  -18.0280   14.8819 C   0  0  0  0  0  0  0  0  0  0  0  0
   17.6558  -17.9569   16.3370 C   0  0  1  0  0  0  0  0  0  0  0  0
   17.2311  -16.6970   16.6531 O   0  0  0  0  0  0  0  0  0  0  0  0
   16.6094  -19.0322   16.4818 C   0  0  2  0  0  0  0  0  0  0  0  0
   15.5601  -18.8568   15.4694 N   0  0  0  0  0  0  0  0  0  0  0  0
   16.0482  -19.1440   17.8274 C   0  0  0  0  0  0  0  0  0  0  0  0
   14.8176  -18.8001   17.9529 O   0  0  0  0  0  0  0  0  0  0  0  0
   18.2756  -20.1168   21.2208 O   0  0  0  0  0  0  0  0  0  0  0  0
   16.9841  -20.6203   21.1102 C   0  0  0  0  0  0  0  0  0  0  0  0
   16.1156  -19.7229   20.2214 C   0  0  2  0  0  0  0  0  0  0  0  0
   16.7903  -19.6011   18.9466 N   0  0  0  0  0  0  0  0  0  0  0  0
   15.9211  -18.4159   20.8691 C   0  0  0  0  0  0  0  0  0  0  0  0
   16.5805  -17.4266   20.4530 O   0  0  0  0  0  0  0  0  0  0  0  0
   10.3014  -14.9186   23.3156 N   0  0  0  0  0  0  0  0  0  0  0  0
   11.3067  -15.8879   23.5197 C   0  0  0  0  0  0  0  0  0  0  0  0
   11.1083  -16.8440   24.2964 O   0  0  0  0  0  0  0  0  0  0  0  0
   12.6065  -15.7587   22.7990 C   0  0  0  0  0  0  0  0  0  0  0  0
   13.5149  -16.8801   23.2005 C   0  0  0  0  0  0  0  0  0  0  0  0
   14.8402  -16.8870   22.5087 C   0  0  2  0  0  0  0  0  0  0  0  0
   15.0217  -18.2175   21.9439 N   0  0  0  0  0  0  0  0  0  0  0  0
   15.9629  -16.5880   23.4089 C   0  0  0  0  0  0  0  0  0  0  0  0
   16.6207  -17.6049   24.0755 O   0  0  0  0  0  0  0  0  0  0  0  0
   16.3497  -15.4108   23.5937 O   0  0  0  0  0  0  0  0  0  0  0  0
  2  1  1  6
  2  4  1  0
  3  2  1  0
  4  5  1  6
  6  4  1  0
  6 11  1  0
  7  6  2  0
  8  9  1  0
 10  9  1  1
 10 11  1  0
 10 12  1  0
 12 20  1  0
 13 12  2  0
 15 17  1  0
 15 14  1  0
 16 15  2  0
 18 17  1  0
 19 18  1  1
 20 19  1  0
 21 19  1  0
 21 22  1  0
 23 21  2  0
M  END
$$$$
