AFC.pdb
     RDKit          3D

 23 23  0  0  1  0  0  0  0  0999 V2000
    7.4340  -20.8518   22.6904 C   0  0  0  0  0  0  0  0  0  0  0  0
    6.7751  -19.5927   22.1840 C   0  0  2  0  0  0  0  0  0  0  0  0
    6.9371  -19.5575   20.7528 N   0  0  0  0  0  0  0  0  0  0  0  0
    7.3421  -18.3676   22.8005 C   0  0  0  0  0  0  0  0  0  0  0  0
    8.3397  -17.8160   22.2831 O   0  0  0  0  0  0  0  0  0  0  0  0
    6.8096  -17.7680   23.9697 N   0  0  0  0  0  0  0  0  0  0  0  0
    7.3254  -16.5788   24.5972 C   0  0  1  0  0  0  0  0  0  0  0  0
    6.3109  -15.6422   25.1002 C   0  0  0  0  0  0  0  0  0  0  0  0
    6.7383  -14.4307   25.7474 C   0  0  0  0  0  0  0  0  0  0  0  0
    6.7409  -14.2280   27.1060 C   0  0  0  0  0  0  0  0  0  0  0  0
    7.1712  -13.0229   27.6285 C   0  0  0  0  0  0  0  0  0  0  0  0
    7.6086  -11.9911   26.8192 C   0  0  0  0  0  0  0  0  0  0  0  0
    7.6108  -12.1845   25.4414 C   0  0  0  0  0  0  0  0  0  0  0  0
    7.1812  -13.3873   24.9209 C   0  0  0  0  0  0  0  0  0  0  0  0
    8.3905  -16.9637   25.5536 C   0  0  0  0  0  0  0  0  0  0  0  0
    8.1426  -17.7621   26.5152 O   0  0  0  0  0  0  0  0  0  0  0  0
    9.7348  -16.5037   25.4969 N   0  0  0  0  0  0  0  0  0  0  0  0
   10.7814  -17.0087   26.3647 C   0  0  1  0  0  0  0  0  0  0  0  0
   12.1445  -16.8935   25.7075 C   0  0  0  0  0  0  0  0  0  0  0  0
   12.3612  -15.1405   25.2603 S   0  0  0  0  0  0  0  0  0  0  0  0
   10.7571  -16.4411   27.7134 C   0  0  0  0  0  0  0  0  0  0  0  0
   11.5869  -16.9511   28.7155 O   0  0  0  0  0  0  0  0  0  0  0  0
   10.0188  -15.4873   28.0687 O   0  0  0  0  0  0  0  0  0  0  0  0
  2  1  1  1
  2  3  1  0
  4  2  1  0
  4  5  2  0
  6  4  1  0
  7  6  1  0
  7  8  1  1
  9  8  1  0
  9 14  2  0
 10  9  1  0
 11 10  2  0
 11 12  1  0
 12 13  2  0
 13 14  1  0
 15  7  1  0
 16 15  2  0
 17 15  1  0
 18 17  1  0
 18 21  1  0
 19 20  1  0
 18 19  1  6
 21 22  1  0
 23 21  2  0
M  END
$$$$
