AFC.pdb
     RDKit          3D

 23 23  0  0  1  0  0  0  0  0999 V2000
    9.8473  -19.2642   21.4203 C   0  0  0  0  0  0  0  0  0  0  0  0
    9.2872  -17.9659   20.8941 C   0  0  2  0  0  0  0  0  0  0  0  0
   10.0385  -17.6084   19.7178 N   0  0  0  0  0  0  0  0  0  0  0  0
    9.3447  -16.8744   21.8979 C   0  0  0  0  0  0  0  0  0  0  0  0
   10.3491  -16.1290   21.9489 O   0  0  0  0  0  0  0  0  0  0  0  0
    8.3049  -16.6173   22.8268 N   0  0  0  0  0  0  0  0  0  0  0  0
    8.3584  -15.6318   23.8756 C   0  0  1  0  0  0  0  0  0  0  0  0
    7.1022  -14.9119   24.1273 C   0  0  0  0  0  0  0  0  0  0  0  0
    7.0647  -13.9129   25.1616 C   0  0  0  0  0  0  0  0  0  0  0  0
    7.5085  -12.6208   25.0183 C   0  0  0  0  0  0  0  0  0  0  0  0
    7.4290  -11.7368   26.0778 C   0  0  0  0  0  0  0  0  0  0  0  0
    6.9090  -12.1104   27.3028 C   0  0  0  0  0  0  0  0  0  0  0  0
    6.4563  -13.4166   27.4603 C   0  0  0  0  0  0  0  0  0  0  0  0
    6.5359  -14.2982   26.4025 C   0  0  0  0  0  0  0  0  0  0  0  0
    9.0187  -16.2277   25.0614 C   0  0  0  0  0  0  0  0  0  0  0  0
    8.6438  -17.3581   25.5142 O   0  0  0  0  0  0  0  0  0  0  0  0
   10.0887  -15.6270   25.7799 N   0  0  0  0  0  0  0  0  0  0  0  0
   10.8640  -16.3328   26.7820 C   0  0  1  0  0  0  0  0  0  0  0  0
   12.2507  -15.7337   26.9276 C   0  0  0  0  0  0  0  0  0  0  0  0
   12.0205  -14.0209   27.5053 S   0  0  0  0  0  0  0  0  0  0  0  0
   10.1772  -16.4808   28.0657 C   0  0  0  0  0  0  0  0  0  0  0  0
    8.9594  -15.8366   28.3000 O   0  0  0  0  0  0  0  0  0  0  0  0
   10.6068  -17.1708   29.0250 O   0  0  0  0  0  0  0  0  0  0  0  0
  2  1  1  1
  2  3  1  0
  4  2  1  0
  4  5  2  0
  6  4  1  0
  7  6  1  0
  7  8  1  1
  9  8  1  0
  9 14  2  0
 10  9  1  0
 11 10  2  0
 11 12  1  0
 12 13  2  0
 13 14  1  0
 15  7  1  0
 16 15  2  0
 17 15  1  0
 18 17  1  0
 18 21  1  0
 19 20  1  0
 18 19  1  1
 21 22  1  0
 23 21  2  0
M  END
$$$$
