AFC.pdb
     RDKit          3D

 23 23  0  0  1  0  0  0  0  0999 V2000
    9.5531  -18.6978   20.8810 C   0  0  0  0  0  0  0  0  0  0  0  0
    9.4242  -17.2488   20.4811 C   0  0  2  0  0  0  0  0  0  0  0  0
   10.4805  -16.9559   19.5460 N   0  0  0  0  0  0  0  0  0  0  0  0
    9.4921  -16.3303   21.6447 C   0  0  0  0  0  0  0  0  0  0  0  0
   10.6017  -15.9003   22.0332 O   0  0  0  0  0  0  0  0  0  0  0  0
    8.3479  -15.8986   22.3619 N   0  0  0  0  0  0  0  0  0  0  0  0
    8.3763  -15.1112   23.5674 C   0  0  1  0  0  0  0  0  0  0  0  0
    7.1868  -14.2817   23.8054 C   0  0  0  0  0  0  0  0  0  0  0  0
    7.0699  -13.5685   25.0491 C   0  0  0  0  0  0  0  0  0  0  0  0
    6.3174  -13.9826   26.1211 C   0  0  0  0  0  0  0  0  0  0  0  0
    6.2709  -13.2211   27.2737 C   0  0  0  0  0  0  0  0  0  0  0  0
    6.9675  -12.0331   27.3921 C   0  0  0  0  0  0  0  0  0  0  0  0
    7.7333  -11.6031   26.3130 C   0  0  0  0  0  0  0  0  0  0  0  0
    7.7792  -12.3636   25.1633 C   0  0  0  0  0  0  0  0  0  0  0  0
    8.8078  -15.9728   24.6938 C   0  0  0  0  0  0  0  0  0  0  0  0
    8.1944  -17.0591   24.9529 O   0  0  0  0  0  0  0  0  0  0  0  0
    9.9002  -15.6885   25.5586 N   0  0  0  0  0  0  0  0  0  0  0  0
   10.3729  -16.6164   26.5681 C   0  0  1  0  0  0  0  0  0  0  0  0
   11.8150  -17.0162   26.3162 C   0  0  0  0  0  0  0  0  0  0  0  0
   12.7396  -15.4739   26.0214 S   0  0  0  0  0  0  0  0  0  0  0  0
   10.1461  -16.1632   27.9410 C   0  0  0  0  0  0  0  0  0  0  0  0
   10.4552  -16.9904   29.0241 O   0  0  0  0  0  0  0  0  0  0  0  0
    9.6740  -15.0390   28.2484 O   0  0  0  0  0  0  0  0  0  0  0  0
  2  1  1  1
  2  3  1  0
  4  2  1  0
  4  5  2  0
  6  4  1  0
  7  6  1  0
  7  8  1  1
  9  8  1  0
  9 14  2  0
 10  9  1  0
 11 10  2  0
 11 12  1  0
 12 13  2  0
 13 14  1  0
 15  7  1  0
 16 15  2  0
 17 15  1  0
 18 17  1  0
 18 21  1  0
 19 20  1  0
 18 19  1  6
 21 22  1  0
 23 21  2  0
M  END
$$$$
