AFC.pdb
     RDKit          3D

 23 23  0  0  1  0  0  0  0  0999 V2000
   -6.5802  -24.5259   22.9951 C   0  0  0  0  0  0  0  0  0  0  0  0
   -7.1187  -25.1821   24.2424 C   0  0  2  0  0  0  0  0  0  0  0  0
   -8.5520  -25.0356   24.2316 N   0  0  0  0  0  0  0  0  0  0  0  0
   -6.5471  -24.6002   25.4822 C   0  0  0  0  0  0  0  0  0  0  0  0
   -5.5037  -25.0870   25.9736 O   0  0  0  0  0  0  0  0  0  0  0  0
   -7.1251  -23.4984   26.1618 N   0  0  0  0  0  0  0  0  0  0  0  0
   -6.6013  -22.9008   27.3629 C   0  0  1  0  0  0  0  0  0  0  0  0
   -6.5136  -21.4339   27.3493 C   0  0  0  0  0  0  0  0  0  0  0  0
   -5.6037  -20.7970   26.4352 C   0  0  0  0  0  0  0  0  0  0  0  0
   -4.2595  -20.6259   26.6607 C   0  0  0  0  0  0  0  0  0  0  0  0
   -3.4704  -19.9975   25.7158 C   0  0  0  0  0  0  0  0  0  0  0  0
   -3.9927  -19.5241   24.5268 C   0  0  0  0  0  0  0  0  0  0  0  0
   -5.3529  -19.6915   24.2869 C   0  0  0  0  0  0  0  0  0  0  0  0
   -6.1397  -20.3186   25.2303 C   0  0  0  0  0  0  0  0  0  0  0  0
   -7.2798  -23.5038   28.5348 C   0  0  0  0  0  0  0  0  0  0  0  0
   -8.5419  -23.4028   28.6778 O   0  0  0  0  0  0  0  0  0  0  0  0
   -6.6220  -24.2239   29.5695 N   0  0  0  0  0  0  0  0  0  0  0  0
   -7.3197  -25.1000   30.4911 C   0  0  1  0  0  0  0  0  0  0  0  0
   -8.1489  -26.1316   29.7487 C   0  0  0  0  0  0  0  0  0  0  0  0
   -9.0504  -27.0842   31.0136 S   0  0  0  0  0  0  0  0  0  0  0  0
   -6.4544  -25.6992   31.5079 C   0  0  0  0  0  0  0  0  0  0  0  0
   -6.9611  -26.0338   32.7666 O   0  0  0  0  0  0  0  0  0  0  0  0
   -5.2341  -25.9526   31.3414 O   0  0  0  0  0  0  0  0  0  0  0  0
  2  1  1  6
  2  3  1  0
  4  2  1  0
  4  5  2  0
  6  4  1  0
  7  6  1  0
  7  8  1  6
  9  8  1  0
  9 14  2  0
 10  9  1  0
 11 10  2  0
 11 12  1  0
 12 13  2  0
 13 14  1  0
 15  7  1  0
 16 15  2  0
 17 15  1  0
 18 17  1  0
 18 21  1  0
 19 20  1  0
 18 19  1  6
 21 22  1  0
 23 21  2  0
M  END
$$$$
