EER.pdb
     RDKit          3D

 30 29  0  0  1  0  0  0  0  0999 V2000
   13.8316   -2.5001   -9.4365 N   0  0  0  0  0  0  0  0  0  0  0  0
   14.3278   -3.8168   -9.1088 C   0  0  1  0  0  0  0  0  0  0  0  0
   13.1893   -4.6083   -8.4161 C   0  0  0  0  0  0  0  0  0  0  0  0
   12.8658   -3.9375   -7.0953 C   0  0  0  0  0  0  0  0  0  0  0  0
   13.8488   -4.3768   -6.0807 C   0  0  0  0  0  0  0  0  0  0  0  0
   13.8377   -3.8313   -4.9281 O   0  0  0  0  0  0  0  0  0  0  0  0
   14.8632   -4.5789  -10.2381 C   0  0  0  0  0  0  0  0  0  0  0  0
   14.2786   -4.5036  -11.3552 O   0  0  0  0  0  0  0  0  0  0  0  0
   14.8086   -5.3567   -6.2754 O   0  0  0  0  0  0  0  0  0  0  0  0
   15.9957   -5.4204  -10.2470 N   0  0  0  0  0  0  0  0  0  0  0  0
   16.5653   -6.0759  -11.3714 C   0  0  1  0  0  0  0  0  0  0  0  0
   17.7599   -5.4816  -12.0017 C   0  0  0  0  0  0  0  0  0  0  0  0
   17.3172   -4.4382  -13.0262 C   0  0  0  0  0  0  0  0  0  0  0  0
   18.4382   -3.9372  -13.8345 C   0  0  0  0  0  0  0  0  0  0  0  0
   19.6041   -4.3159  -13.6035 O   0  0  0  0  0  0  0  0  0  0  0  0
   16.8335   -7.4877  -11.0289 C   0  0  0  0  0  0  0  0  0  0  0  0
   17.4790   -7.7378   -9.9490 O   0  0  0  0  0  0  0  0  0  0  0  0
   18.2299   -3.0381  -14.8661 O   0  0  0  0  0  0  0  0  0  0  0  0
   11.0115  -12.7747  -10.0215 N   0  0  0  0  0  0  0  0  0  0  0  0
   11.3508  -11.5301   -9.4402 C   0  0  0  0  0  0  0  0  0  0  0  0
   10.5187  -10.8666   -8.7228 N   0  0  0  0  0  0  0  0  0  0  0  0
   12.6488  -10.9529   -9.6301 N   0  0  0  0  0  0  0  0  0  0  0  0
   13.7403  -11.7083  -10.2265 C   0  0  0  0  0  0  0  0  0  0  0  0
   14.9540  -10.8175  -10.2399 C   0  0  0  0  0  0  0  0  0  0  0  0
   15.7040  -10.8388  -11.5216 C   0  0  0  0  0  0  0  0  0  0  0  0
   16.9513   -9.9693  -11.5374 C   0  0  2  0  0  0  0  0  0  0  0  0
   16.4381   -8.6082  -11.7939 N   0  0  0  0  0  0  0  0  0  0  0  0
   17.7796  -10.3536  -12.6899 C   0  0  0  0  0  0  0  0  0  0  0  0
   17.6178   -9.7561  -13.7911 O   0  0  0  0  0  0  0  0  0  0  0  0
   18.7439  -11.3389  -12.6705 O   0  0  0  0  0  0  0  0  0  0  0  0
  2  1  1  6
  2  3  1  0
  4  3  1  0
  4  5  1  0
  5  6  2  0
  7  2  1  0
  8  7  2  0
  9  5  1  0
 10  7  1  0
 11 10  1  0
 12 13  1  0
 11 12  1  1
 13 14  1  0
 14 18  1  0
 14 15  2  0
 16 11  1  0
 16 17  2  0
 20 19  1  0
 21 20  2  0
 22 20  1  0
 23 22  1  0
 24 23  1  0
 25 24  1  0
 26 25  1  6
 26 27  1  0
 27 16  1  0
 28 26  1  0
 29 28  2  0
 30 28  1  0
M  END
$$$$
