EER.pdb
     RDKit          3D

 30 29  0  0  1  0  0  0  0  0999 V2000
   19.9142  -20.1773  -16.2505 N   0  0  0  0  0  0  0  0  0  0  0  0
   20.9658  -19.2103  -16.0357 C   0  0  1  0  0  0  0  0  0  0  0  0
   20.6737  -18.4583  -14.7121 C   0  0  0  0  0  0  0  0  0  0  0  0
   19.4457  -17.5906  -14.9078 C   0  0  0  0  0  0  0  0  0  0  0  0
   19.2315  -16.7804  -13.6885 C   0  0  0  0  0  0  0  0  0  0  0  0
   18.2716  -15.9415  -13.6609 O   0  0  0  0  0  0  0  0  0  0  0  0
   22.3226  -19.7594  -16.0200 C   0  0  0  0  0  0  0  0  0  0  0  0
   22.5719  -20.7447  -15.2701 O   0  0  0  0  0  0  0  0  0  0  0  0
   20.0024  -16.8535  -12.5397 O   0  0  0  0  0  0  0  0  0  0  0  0
   23.4368  -19.3183  -16.7649 N   0  0  0  0  0  0  0  0  0  0  0  0
   24.7468  -19.8676  -16.7507 C   0  0  1  0  0  0  0  0  0  0  0  0
   25.6275  -19.6168  -17.9079 C   0  0  0  0  0  0  0  0  0  0  0  0
   26.9139  -20.4238  -17.7407 C   0  0  0  0  0  0  0  0  0  0  0  0
   27.8431  -20.2341  -18.8640 C   0  0  0  0  0  0  0  0  0  0  0  0
   28.7189  -19.3470  -18.8181 O   0  0  0  0  0  0  0  0  0  0  0  0
   25.4323  -19.4625  -15.5064 C   0  0  0  0  0  0  0  0  0  0  0  0
   25.5078  -18.2110  -15.2353 O   0  0  0  0  0  0  0  0  0  0  0  0
   27.7703  -21.0301  -19.9941 O   0  0  0  0  0  0  0  0  0  0  0  0
   22.1959  -21.7782  -11.9632 N   0  0  0  0  0  0  0  0  0  0  0  0
   22.1443  -20.9576  -10.8117 C   0  0  0  0  0  0  0  0  0  0  0  0
   21.0423  -20.4589  -10.3825 N   0  0  0  0  0  0  0  0  0  0  0  0
   23.3304  -20.6460  -10.0702 N   0  0  0  0  0  0  0  0  0  0  0  0
   24.6396  -21.1252  -10.4874 C   0  0  0  0  0  0  0  0  0  0  0  0
   25.0760  -20.2888  -11.6606 C   0  0  0  0  0  0  0  0  0  0  0  0
   26.3645  -20.7179  -12.2616 C   0  0  0  0  0  0  0  0  0  0  0  0
   26.8314  -19.8638  -13.4298 C   0  0  2  0  0  0  0  0  0  0  0  0
   26.0233  -20.3410  -14.5704 N   0  0  0  0  0  0  0  0  0  0  0  0
   28.2366  -20.1868  -13.7181 C   0  0  0  0  0  0  0  0  0  0  0  0
   28.5030  -21.0095  -14.6391 O   0  0  0  0  0  0  0  0  0  0  0  0
   29.3183  -19.6540  -13.0494 O   0  0  0  0  0  0  0  0  0  0  0  0
  2  1  1  1
  2  3  1  0
  4  3  1  0
  4  5  1  0
  5  6  2  0
  7  2  1  0
  8  7  2  0
  9  5  1  0
 10  7  1  0
 11 10  1  0
 12 13  1  0
 11 12  1  6
 13 14  1  0
 14 18  1  0
 14 15  2  0
 16 11  1  0
 16 17  2  0
 20 19  1  0
 21 20  2  0
 22 20  1  0
 23 22  1  0
 24 23  1  0
 25 24  1  0
 26 25  1  1
 26 27  1  0
 27 16  1  0
 28 26  1  0
 29 28  2  0
 30 28  1  0
M  END
$$$$
