EER.pdb
     RDKit          3D

 30 29  0  0  1  0  0  0  0  0999 V2000
   15.9811  -29.6640   -2.5998 N   0  0  0  0  0  0  0  0  0  0  0  0
   16.6240  -28.3930   -2.3575 C   0  0  1  0  0  0  0  0  0  0  0  0
   16.8248  -27.6809   -3.7196 C   0  0  0  0  0  0  0  0  0  0  0  0
   18.2936  -27.7470   -4.0900 C   0  0  0  0  0  0  0  0  0  0  0  0
   18.8957  -26.4083   -3.9057 C   0  0  0  0  0  0  0  0  0  0  0  0
   18.1449  -25.4280   -3.5872 O   0  0  0  0  0  0  0  0  0  0  0  0
   15.9263  -27.5113   -1.4204 C   0  0  0  0  0  0  0  0  0  0  0  0
   14.7103  -27.2409   -1.6294 O   0  0  0  0  0  0  0  0  0  0  0  0
   20.2418  -26.1148   -4.0519 O   0  0  0  0  0  0  0  0  0  0  0  0
   16.4520  -26.8988   -0.2631 N   0  0  0  0  0  0  0  0  0  0  0  0
   15.7261  -26.2068    0.7431 C   0  0  1  0  0  0  0  0  0  0  0  0
   16.1535  -26.3564    2.1476 C   0  0  0  0  0  0  0  0  0  0  0  0
   15.1240  -25.6875    3.0569 C   0  0  0  0  0  0  0  0  0  0  0  0
   15.5127  -25.7379    4.4738 C   0  0  0  0  0  0  0  0  0  0  0  0
   16.5455  -25.1599    4.8677 O   0  0  0  0  0  0  0  0  0  0  0  0
   15.6547  -24.7731    0.3944 C   0  0  0  0  0  0  0  0  0  0  0  0
   16.7487  -24.1584    0.1283 O   0  0  0  0  0  0  0  0  0  0  0  0
   14.7471  -26.4236    5.4010 O   0  0  0  0  0  0  0  0  0  0  0  0
    8.6693  -19.0792   -0.7227 N   0  0  0  0  0  0  0  0  0  0  0  0
    9.8762  -18.3940   -0.9983 C   0  0  0  0  0  0  0  0  0  0  0  0
    9.8954  -17.1453   -1.2948 N   0  0  0  0  0  0  0  0  0  0  0  0
   11.1386  -19.0713   -0.9581 N   0  0  0  0  0  0  0  0  0  0  0  0
   11.2541  -20.4434   -0.4872 C   0  0  0  0  0  0  0  0  0  0  0  0
   12.7117  -20.8174   -0.5333 C   0  0  0  0  0  0  0  0  0  0  0  0
   12.9872  -22.2214   -0.1351 C   0  0  0  0  0  0  0  0  0  0  0  0
   14.4574  -22.6085   -0.1639 C   0  0  2  0  0  0  0  0  0  0  0  0
   14.4725  -24.0020    0.3257 N   0  0  0  0  0  0  0  0  0  0  0  0
   15.1806  -21.7873    0.8182 C   0  0  0  0  0  0  0  0  0  0  0  0
   15.8540  -20.7968    0.4162 O   0  0  0  0  0  0  0  0  0  0  0  0
   15.1874  -22.0134    2.1784 O   0  0  0  0  0  0  0  0  0  0  0  0
  2  1  1  6
  2  3  1  0
  4  3  1  0
  4  5  1  0
  5  6  2  0
  7  2  1  0
  8  7  2  0
  9  5  1  0
 10  7  1  0
 11 10  1  0
 12 13  1  0
 11 12  1  1
 13 14  1  0
 14 18  1  0
 14 15  2  0
 16 11  1  0
 16 17  2  0
 20 19  1  0
 21 20  2  0
 22 20  1  0
 23 22  1  0
 24 23  1  0
 25 24  1  0
 26 25  1  1
 26 27  1  0
 27 16  1  0
 28 26  1  0
 29 28  2  0
 30 28  1  0
M  END
$$$$
