EER.pdb
     RDKit          3D

 30 29  0  0  1  0  0  0  0  0999 V2000
   23.8297  -16.0999  -16.9310 N   0  0  0  0  0  0  0  0  0  0  0  0
   23.0765  -17.2657  -16.5301 C   0  0  1  0  0  0  0  0  0  0  0  0
   22.2916  -17.7860  -17.7613 C   0  0  0  0  0  0  0  0  0  0  0  0
   22.4245  -16.7756  -18.8841 C   0  0  0  0  0  0  0  0  0  0  0  0
   23.1160  -17.4146  -20.0252 C   0  0  0  0  0  0  0  0  0  0  0  0
   24.3109  -17.0657  -20.3018 O   0  0  0  0  0  0  0  0  0  0  0  0
   23.8685  -18.3452  -15.9384 C   0  0  0  0  0  0  0  0  0  0  0  0
   23.2889  -19.4212  -15.6196 O   0  0  0  0  0  0  0  0  0  0  0  0
   22.5663  -18.3872  -20.8446 O   0  0  0  0  0  0  0  0  0  0  0  0
   25.2532  -18.3459  -15.6676 N   0  0  0  0  0  0  0  0  0  0  0  0
   26.0063  -19.3890  -15.0649 C   0  0  1  0  0  0  0  0  0  0  0  0
   27.4563  -19.4539  -15.3305 C   0  0  0  0  0  0  0  0  0  0  0  0
   28.0184  -20.7380  -14.7230 C   0  0  0  0  0  0  0  0  0  0  0  0
   28.6293  -21.6140  -15.7332 C   0  0  0  0  0  0  0  0  0  0  0  0
   28.6860  -21.2592  -16.9277 O   0  0  0  0  0  0  0  0  0  0  0  0
   25.7669  -19.3838  -13.6071 C   0  0  0  0  0  0  0  0  0  0  0  0
   25.9936  -18.3003  -12.9590 O   0  0  0  0  0  0  0  0  0  0  0  0
   29.1540  -22.8472  -15.3867 O   0  0  0  0  0  0  0  0  0  0  0  0
   18.8440  -20.2464   -9.8887 N   0  0  0  0  0  0  0  0  0  0  0  0
   19.0573  -20.3591  -11.2829 C   0  0  0  0  0  0  0  0  0  0  0  0
   18.0920  -20.2839  -12.1255 N   0  0  0  0  0  0  0  0  0  0  0  0
   20.3712  -20.5640  -11.8174 N   0  0  0  0  0  0  0  0  0  0  0  0
   21.5231  -20.7719  -10.9528 C   0  0  0  0  0  0  0  0  0  0  0  0
   22.7211  -20.9903  -11.8381 C   0  0  0  0  0  0  0  0  0  0  0  0
   23.9615  -21.3392  -11.0997 C   0  0  0  0  0  0  0  0  0  0  0  0
   25.1416  -20.4221  -11.3796 C   0  0  2  0  0  0  0  0  0  0  0  0
   25.3034  -20.4810  -12.8467 N   0  0  0  0  0  0  0  0  0  0  0  0
   26.3481  -21.0091  -10.7781 C   0  0  0  0  0  0  0  0  0  0  0  0
   27.1083  -21.7215  -11.4927 O   0  0  0  0  0  0  0  0  0  0  0  0
   26.7304  -20.8443   -9.4636 O   0  0  0  0  0  0  0  0  0  0  0  0
  2  1  1  6
  2  3  1  0
  4  3  1  0
  4  5  1  0
  5  6  2  0
  7  2  1  0
  8  7  2  0
  9  5  1  0
 10  7  1  0
 11 10  1  0
 12 13  1  0
 11 12  1  1
 13 14  1  0
 14 18  1  0
 14 15  2  0
 16 11  1  0
 16 17  2  0
 20 19  1  0
 21 20  2  0
 22 20  1  0
 23 22  1  0
 24 23  1  0
 25 24  1  0
 26 25  1  6
 26 27  1  0
 27 16  1  0
 28 26  1  0
 29 28  2  0
 30 28  1  0
M  END
$$$$
