EER.pdb
     RDKit          3D

 30 29  0  0  1  0  0  0  0  0999 V2000
   18.5592  -19.9658  -15.6776 N   0  0  0  0  0  0  0  0  0  0  0  0
   19.4670  -19.7697  -14.5709 C   0  0  1  0  0  0  0  0  0  0  0  0
   18.8884  -20.4980  -13.3309 C   0  0  0  0  0  0  0  0  0  0  0  0
   18.3389  -21.8414  -13.7696 C   0  0  0  0  0  0  0  0  0  0  0  0
   17.7886  -22.5433  -12.5893 C   0  0  0  0  0  0  0  0  0  0  0  0
   17.2500  -23.6889  -12.7431 O   0  0  0  0  0  0  0  0  0  0  0  0
   20.8459  -20.1964  -14.8139 C   0  0  0  0  0  0  0  0  0  0  0  0
   21.3627  -21.0535  -14.0434 O   0  0  0  0  0  0  0  0  0  0  0  0
   17.8064  -22.0539  -11.2933 O   0  0  0  0  0  0  0  0  0  0  0  0
   21.7116  -19.7619  -15.8398 N   0  0  0  0  0  0  0  0  0  0  0  0
   23.0155  -20.2501  -16.1226 C   0  0  1  0  0  0  0  0  0  0  0  0
   23.6001  -19.9683  -17.4478 C   0  0  0  0  0  0  0  0  0  0  0  0
   23.0708  -20.9884  -18.4545 C   0  0  0  0  0  0  0  0  0  0  0  0
   23.5935  -20.7603  -19.8094 C   0  0  0  0  0  0  0  0  0  0  0  0
   23.0643  -19.9142  -20.5578 O   0  0  0  0  0  0  0  0  0  0  0  0
   23.9438  -19.8038  -15.0638 C   0  0  0  0  0  0  0  0  0  0  0  0
   23.7688  -18.6394  -14.5549 O   0  0  0  0  0  0  0  0  0  0  0  0
   24.6794  -21.4741  -20.2862 O   0  0  0  0  0  0  0  0  0  0  0  0
   30.1665  -22.9473  -10.8586 N   0  0  0  0  0  0  0  0  0  0  0  0
   29.8192  -22.0842   -9.7926 C   0  0  0  0  0  0  0  0  0  0  0  0
   30.6768  -21.7134   -8.9125 N   0  0  0  0  0  0  0  0  0  0  0  0
   28.4839  -21.5838   -9.6492 N   0  0  0  0  0  0  0  0  0  0  0  0
   27.4195  -21.9768  -10.5603 C   0  0  0  0  0  0  0  0  0  0  0  0
   27.2533  -20.8704  -11.5677 C   0  0  0  0  0  0  0  0  0  0  0  0
   26.1928  -21.1262  -12.5755 C   0  0  0  0  0  0  0  0  0  0  0  0
   25.9879  -19.9994  -13.5757 C   0  0  2  0  0  0  0  0  0  0  0  0
   25.0261  -20.5535  -14.5502 N   0  0  0  0  0  0  0  0  0  0  0  0
   27.2528  -19.7651  -14.2878 C   0  0  0  0  0  0  0  0  0  0  0  0
   27.5396  -20.4836  -15.2865 O   0  0  0  0  0  0  0  0  0  0  0  0
   28.1788  -18.8016  -13.9479 O   0  0  0  0  0  0  0  0  0  0  0  0
  2  1  1  6
  2  3  1  0
  4  3  1  0
  4  5  1  0
  5  6  2  0
  7  2  1  0
  8  7  2  0
  9  5  1  0
 10  7  1  0
 11 10  1  0
 12 13  1  0
 11 12  1  6
 13 14  1  0
 14 18  1  0
 14 15  2  0
 16 11  1  0
 16 17  2  0
 20 19  1  0
 21 20  2  0
 22 20  1  0
 23 22  1  0
 24 23  1  0
 25 24  1  0
 26 25  1  1
 26 27  1  0
 27 16  1  0
 28 26  1  0
 29 28  2  0
 30 28  1  0
M  END
$$$$
