EER.pdb
     RDKit          3D

 30 29  0  0  1  0  0  0  0  0999 V2000
   19.4240   -9.0537  -15.9936 N   0  0  0  0  0  0  0  0  0  0  0  0
   19.5964   -9.2018  -14.5668 C   0  0  1  0  0  0  0  0  0  0  0  0
   20.6817   -8.1982  -14.1002 C   0  0  0  0  0  0  0  0  0  0  0  0
   21.9901   -8.5459  -14.7831 C   0  0  0  0  0  0  0  0  0  0  0  0
   22.3185   -7.4843  -15.7597 C   0  0  0  0  0  0  0  0  0  0  0  0
   23.4406   -7.5222  -16.3645 O   0  0  0  0  0  0  0  0  0  0  0  0
   18.3778   -9.0390  -13.7725 C   0  0  0  0  0  0  0  0  0  0  0  0
   17.5157   -8.1949  -14.1462 O   0  0  0  0  0  0  0  0  0  0  0  0
   21.4924   -6.4213  -16.0865 O   0  0  0  0  0  0  0  0  0  0  0  0
   18.0202   -9.7309  -12.5960 N   0  0  0  0  0  0  0  0  0  0  0  0
   16.7766   -9.6693  -11.9119 C   0  0  1  0  0  0  0  0  0  0  0  0
   16.2599  -10.8982  -11.2794 C   0  0  0  0  0  0  0  0  0  0  0  0
   14.9036  -10.5998  -10.6425 C   0  0  0  0  0  0  0  0  0  0  0  0
   14.3118  -11.7852  -10.0056 C   0  0  0  0  0  0  0  0  0  0  0  0
   14.8994  -12.8849  -10.0453 O   0  0  0  0  0  0  0  0  0  0  0  0
   16.8205   -8.5780  -10.9172 C   0  0  0  0  0  0  0  0  0  0  0  0
   17.7398   -8.6089  -10.0231 O   0  0  0  0  0  0  0  0  0  0  0  0
   13.0952  -11.7118   -9.3495 O   0  0  0  0  0  0  0  0  0  0  0  0
   13.2777   -0.2811  -10.6656 N   0  0  0  0  0  0  0  0  0  0  0  0
   13.7817   -0.5947   -9.3813 C   0  0  0  0  0  0  0  0  0  0  0  0
   13.6703    0.2154   -8.3920 N   0  0  0  0  0  0  0  0  0  0  0  0
   14.4438   -1.8405   -9.1289 N   0  0  0  0  0  0  0  0  0  0  0  0
   14.5184   -2.8839  -10.1405 C   0  0  0  0  0  0  0  0  0  0  0  0
   15.2184   -4.0651   -9.5228 C   0  0  0  0  0  0  0  0  0  0  0  0
   15.3558   -5.2295  -10.4343 C   0  0  0  0  0  0  0  0  0  0  0  0
   16.0005   -6.4530   -9.8023 C   0  0  2  0  0  0  0  0  0  0  0  0
   15.9282   -7.4838  -10.8578 N   0  0  0  0  0  0  0  0  0  0  0  0
   15.1589   -6.9053   -8.6847 C   0  0  0  0  0  0  0  0  0  0  0  0
   14.1921   -7.6843   -8.9178 O   0  0  0  0  0  0  0  0  0  0  0  0
   15.3397   -6.5403   -7.3674 O   0  0  0  0  0  0  0  0  0  0  0  0
  2  1  1  6
  2  3  1  0
  4  3  1  0
  4  5  1  0
  5  6  2  0
  7  2  1  0
  8  7  2  0
  9  5  1  0
 10  7  1  0
 11 10  1  0
 12 13  1  0
 11 12  1  1
 13 14  1  0
 14 18  1  0
 14 15  2  0
 16 11  1  0
 16 17  2  0
 20 19  1  0
 21 20  2  0
 22 20  1  0
 23 22  1  0
 24 23  1  0
 25 24  1  0
 26 25  1  6
 26 27  1  0
 27 16  1  0
 28 26  1  0
 29 28  2  0
 30 28  1  0
M  END
$$$$
