EER.pdb
     RDKit          3D

 30 29  0  0  1  0  0  0  0  0999 V2000
   26.9243  -17.8583  -16.1146 N   0  0  0  0  0  0  0  0  0  0  0  0
   25.8123  -18.4770  -16.7987 C   0  0  1  0  0  0  0  0  0  0  0  0
   26.1741  -19.9585  -17.0763 C   0  0  0  0  0  0  0  0  0  0  0  0
   27.1756  -20.4169  -16.0342 C   0  0  0  0  0  0  0  0  0  0  0  0
   27.6359  -21.7802  -16.3782 C   0  0  0  0  0  0  0  0  0  0  0  0
   28.7616  -21.9277  -16.9589 O   0  0  0  0  0  0  0  0  0  0  0  0
   24.5270  -18.3888  -16.1038 C   0  0  0  0  0  0  0  0  0  0  0  0
   24.5072  -18.4917  -14.8451 O   0  0  0  0  0  0  0  0  0  0  0  0
   26.9336  -22.9458  -16.1183 O   0  0  0  0  0  0  0  0  0  0  0  0
   23.2524  -18.1926  -16.6763 N   0  0  0  0  0  0  0  0  0  0  0  0
   22.0307  -17.9676  -15.9871 C   0  0  1  0  0  0  0  0  0  0  0  0
   21.0057  -17.1228  -16.6297 C   0  0  0  0  0  0  0  0  0  0  0  0
   21.1300  -15.6956  -16.0989 C   0  0  0  0  0  0  0  0  0  0  0  0
   19.8306  -15.1276  -15.7116 C   0  0  0  0  0  0  0  0  0  0  0  0
   18.7900  -15.4592  -16.3143 O   0  0  0  0  0  0  0  0  0  0  0  0
   21.4386  -19.2665  -15.6069 C   0  0  0  0  0  0  0  0  0  0  0  0
   21.6362  -20.2721  -16.3783 O   0  0  0  0  0  0  0  0  0  0  0  0
   19.7293  -14.2161  -14.6748 O   0  0  0  0  0  0  0  0  0  0  0  0
   14.9572  -20.5690  -11.2714 N   0  0  0  0  0  0  0  0  0  0  0  0
   14.8203  -21.6008  -12.2298 C   0  0  0  0  0  0  0  0  0  0  0  0
   13.6774  -21.9351  -12.7087 N   0  0  0  0  0  0  0  0  0  0  0  0
   15.9617  -22.3225  -12.7099 N   0  0  0  0  0  0  0  0  0  0  0  0
   17.3070  -22.0203  -12.2447 C   0  0  0  0  0  0  0  0  0  0  0  0
   17.8397  -20.8981  -13.0954 C   0  0  0  0  0  0  0  0  0  0  0  0
   19.2803  -20.6090  -12.8799 C   0  0  0  0  0  0  0  0  0  0  0  0
   20.1614  -20.8520  -14.0951 C   0  0  2  0  0  0  0  0  0  0  0  0
   20.6609  -19.5085  -14.4521 N   0  0  0  0  0  0  0  0  0  0  0  0
   19.3166  -21.3185  -15.2044 C   0  0  0  0  0  0  0  0  0  0  0  0
   18.6844  -20.4708  -15.8957 O   0  0  0  0  0  0  0  0  0  0  0  0
   19.1503  -22.6393  -15.5636 O   0  0  0  0  0  0  0  0  0  0  0  0
  2  1  1  1
  2  3  1  0
  4  3  1  0
  4  5  1  0
  5  6  2  0
  7  2  1  0
  8  7  2  0
  9  5  1  0
 10  7  1  0
 11 10  1  0
 12 13  1  0
 11 12  1  6
 13 14  1  0
 14 18  1  0
 14 15  2  0
 16 11  1  0
 16 17  2  0
 20 19  1  0
 21 20  2  0
 22 20  1  0
 23 22  1  0
 24 23  1  0
 25 24  1  0
 26 25  1  1
 26 27  1  0
 27 16  1  0
 28 26  1  0
 29 28  2  0
 30 28  1  0
M  END
$$$$
