EER.pdb
     RDKit          3D

 30 29  0  0  1  0  0  0  0  0999 V2000
   18.6546  -17.4105  -19.5154 N   0  0  0  0  0  0  0  0  0  0  0  0
   19.3704  -16.9971  -18.3305 C   0  0  1  0  0  0  0  0  0  0  0  0
   18.3541  -16.3751  -17.3392 C   0  0  0  0  0  0  0  0  0  0  0  0
   17.2758  -17.3993  -17.0431 C   0  0  0  0  0  0  0  0  0  0  0  0
   16.2527  -16.7806  -16.1719 C   0  0  0  0  0  0  0  0  0  0  0  0
   15.2740  -17.4888  -15.7635 O   0  0  0  0  0  0  0  0  0  0  0  0
   20.1442  -18.0506  -17.6717 C   0  0  0  0  0  0  0  0  0  0  0  0
   19.7181  -19.2387  -17.7184 O   0  0  0  0  0  0  0  0  0  0  0  0
   16.2624  -15.4621  -15.7466 O   0  0  0  0  0  0  0  0  0  0  0  0
   21.3564  -17.9110  -16.9633 N   0  0  0  0  0  0  0  0  0  0  0  0
   22.1894  -18.9552  -16.4794 C   0  0  1  0  0  0  0  0  0  0  0  0
   23.6066  -18.6529  -16.2009 C   0  0  0  0  0  0  0  0  0  0  0  0
   24.3317  -19.9479  -15.8386 C   0  0  0  0  0  0  0  0  0  0  0  0
   25.7665  -19.7371  -15.5980 C   0  0  0  0  0  0  0  0  0  0  0  0
   26.5022  -20.6929  -15.2802 O   0  0  0  0  0  0  0  0  0  0  0  0
   21.5661  -19.5631  -15.2859 C   0  0  0  0  0  0  0  0  0  0  0  0
   20.9794  -18.7895  -14.4476 O   0  0  0  0  0  0  0  0  0  0  0  0
   26.3342  -18.4802  -15.7174 O   0  0  0  0  0  0  0  0  0  0  0  0
   21.0561  -28.1263  -12.2721 N   0  0  0  0  0  0  0  0  0  0  0  0
   20.1647  -27.3035  -11.5438 C   0  0  0  0  0  0  0  0  0  0  0  0
   19.3053  -27.7919  -10.7252 N   0  0  0  0  0  0  0  0  0  0  0  0
   20.1841  -25.8780  -11.6911 N   0  0  0  0  0  0  0  0  0  0  0  0
   20.9211  -25.2316  -12.7665 C   0  0  0  0  0  0  0  0  0  0  0  0
   20.6128  -23.7592  -12.7064 C   0  0  0  0  0  0  0  0  0  0  0  0
   21.2072  -22.9724  -13.8169 C   0  0  0  0  0  0  0  0  0  0  0  0
   20.9313  -21.4786  -13.7502 C   0  0  2  0  0  0  0  0  0  0  0  0
   21.5561  -20.9418  -14.9763 N   0  0  0  0  0  0  0  0  0  0  0  0
   21.6568  -20.9158  -12.6018 C   0  0  0  0  0  0  0  0  0  0  0  0
   21.0156  -20.6143  -11.5559 O   0  0  0  0  0  0  0  0  0  0  0  0
   23.0152  -20.6818  -12.5689 O   0  0  0  0  0  0  0  0  0  0  0  0
  2  1  1  6
  2  3  1  0
  4  3  1  0
  4  5  1  0
  5  6  2  0
  7  2  1  0
  8  7  2  0
  9  5  1  0
 10  7  1  0
 11 10  1  0
 12 13  1  0
 11 12  1  1
 13 14  1  0
 14 18  1  0
 14 15  2  0
 16 11  1  0
 16 17  2  0
 20 19  1  0
 21 20  2  0
 22 20  1  0
 23 22  1  0
 24 23  1  0
 25 24  1  0
 26 25  1  6
 26 27  1  0
 27 16  1  0
 28 26  1  0
 29 28  2  0
 30 28  1  0
M  END
$$$$
