HAC.pdb
     RDKit          3D

 22 22  0  0  1  0  0  0  0  0999 V2000
    7.1465  -17.5183   20.0553 N   0  0  0  0  0  0  0  0  0  0  0  0
    7.5996  -16.3666   20.7936 C   0  0  1  0  0  0  0  0  0  0  0  0
    6.9759  -15.1013   20.2395 C   0  0  0  0  0  0  0  0  0  0  0  0
    8.0260  -14.1824   19.7217 C   0  0  0  0  0  0  0  0  0  0  0  0
    9.3662  -14.4317   19.7104 C   0  0  0  0  0  0  0  0  0  0  0  0
    9.9468  -13.3450   19.1599 N   0  0  0  0  0  0  0  0  0  0  0  0
    9.0044  -12.4675   18.8472 C   0  0  0  0  0  0  0  0  0  0  0  0
    7.8164  -12.9662   19.1859 N   0  0  0  0  0  0  0  0  0  0  0  0
    7.2192  -16.4460   22.2250 C   0  0  0  0  0  0  0  0  0  0  0  0
    6.0045  -16.5723   22.4979 O   0  0  0  0  0  0  0  0  0  0  0  0
    8.1624  -17.7392   25.3482 C   0  0  0  0  0  0  0  0  0  0  0  0
    7.7228  -16.4677   24.6512 C   0  0  2  0  0  0  0  0  0  0  0  0
    8.1359  -16.3886   23.2950 N   0  0  0  0  0  0  0  0  0  0  0  0
    8.3179  -15.3485   25.4232 C   0  0  0  0  0  0  0  0  0  0  0  0
    9.4975  -15.0037   25.1703 O   0  0  0  0  0  0  0  0  0  0  0  0
    7.6252  -14.6492   26.4300 N   0  0  0  0  0  0  0  0  0  0  0  0
    8.1745  -13.5365   27.1788 C   0  0  1  0  0  0  0  0  0  0  0  0
    6.9887  -12.7980   27.7874 C   0  0  0  0  0  0  0  0  0  0  0  0
    5.6646  -12.5578   26.5961 S   0  0  0  0  0  0  0  0  0  0  0  0
    9.0414  -14.1070   28.2433 C   0  0  0  0  0  0  0  0  0  0  0  0
    9.0639  -15.3370   28.5120 O   0  0  0  0  0  0  0  0  0  0  0  0
    9.8740  -13.2862   28.9942 O   0  0  0  0  0  0  0  0  0  0  0  0
  2  1  1  6
  2  3  1  0
  3  4  1  0
  4  5  2  0
  5  6  1  0
  7  6  1  0
  8  4  1  0
  8  7  2  0
  9 13  1  0
  9  2  1  0
 10  9  2  0
 12 11  1  1
 12 13  1  0
 12 14  1  0
 14 16  1  0
 15 14  2  0
 16 17  1  0
 17 20  1  0
 17 18  1  1
 18 19  1  0
 20 22  1  0
 21 20  2  0
M  END
$$$$
