HAC.pdb
     RDKit          3D

 22 22  0  0  1  0  0  0  0  0999 V2000
    8.3599  -16.5062   19.6937 N   0  0  0  0  0  0  0  0  0  0  0  0
    8.3322  -15.1168   20.0755 C   0  0  1  0  0  0  0  0  0  0  0  0
    7.3086  -14.3602   19.2529 C   0  0  0  0  0  0  0  0  0  0  0  0
    7.6918  -14.3550   17.8148 C   0  0  0  0  0  0  0  0  0  0  0  0
    8.2993  -13.3271   17.1569 C   0  0  0  0  0  0  0  0  0  0  0  0
    8.4630  -13.7398   15.8827 N   0  0  0  0  0  0  0  0  0  0  0  0
    7.9773  -14.9669   15.7637 C   0  0  0  0  0  0  0  0  0  0  0  0
    7.4988  -15.3612   16.9429 N   0  0  0  0  0  0  0  0  0  0  0  0
    7.9559  -14.9450   21.4999 C   0  0  0  0  0  0  0  0  0  0  0  0
    8.0789  -13.8048   22.0005 O   0  0  0  0  0  0  0  0  0  0  0  0
    9.4858  -17.0893   23.1889 C   0  0  0  0  0  0  0  0  0  0  0  0
    8.1626  -16.4131   23.4854 C   0  0  2  0  0  0  0  0  0  0  0  0
    7.4698  -15.9811   22.3236 N   0  0  0  0  0  0  0  0  0  0  0  0
    8.4809  -15.2448   24.3435 C   0  0  0  0  0  0  0  0  0  0  0  0
    9.5636  -14.6387   24.1571 O   0  0  0  0  0  0  0  0  0  0  0  0
    7.6275  -14.7777   25.3614 N   0  0  0  0  0  0  0  0  0  0  0  0
    7.8760  -13.5919   26.1568 C   0  0  1  0  0  0  0  0  0  0  0  0
    6.5574  -12.8310   26.2214 C   0  0  0  0  0  0  0  0  0  0  0  0
    6.6290  -11.4615   27.3831 S   0  0  0  0  0  0  0  0  0  0  0  0
    8.2872  -14.0477   27.5107 C   0  0  0  0  0  0  0  0  0  0  0  0
    8.0370  -15.2043   27.9412 O   0  0  0  0  0  0  0  0  0  0  0  0
    8.9758  -13.1962   28.3659 O   0  0  0  0  0  0  0  0  0  0  0  0
  2  1  1  6
  2  3  1  0
  3  4  1  0
  4  5  2  0
  5  6  1  0
  7  6  1  0
  8  4  1  0
  8  7  2  0
  9 13  1  0
  9  2  1  0
 10  9  2  0
 12 11  1  6
 12 13  1  0
 12 14  1  0
 14 16  1  0
 15 14  2  0
 16 17  1  0
 17 20  1  0
 17 18  1  1
 18 19  1  0
 20 22  1  0
 21 20  2  0
M  END
$$$$
