HAC.pdb
     RDKit          3D

 22 22  0  0  1  0  0  0  0  0999 V2000
    9.5298  -15.6865   14.8754 N   0  0  0  0  0  0  0  0  0  0  0  0
    8.5732  -15.8106   15.9461 C   0  0  1  0  0  0  0  0  0  0  0  0
    8.5610  -17.2266   16.4861 C   0  0  0  0  0  0  0  0  0  0  0  0
    8.1150  -18.1839   15.4374 C   0  0  0  0  0  0  0  0  0  0  0  0
    6.9898  -18.0638   14.6772 C   0  0  0  0  0  0  0  0  0  0  0  0
    6.9694  -19.1390   13.8621 N   0  0  0  0  0  0  0  0  0  0  0  0
    8.0352  -19.8861   14.1111 C   0  0  0  0  0  0  0  0  0  0  0  0
    8.7513  -19.3134   15.0776 N   0  0  0  0  0  0  0  0  0  0  0  0
    8.9009  -14.9162   17.0831 C   0  0  0  0  0  0  0  0  0  0  0  0
   10.1053  -14.7976   17.4015 O   0  0  0  0  0  0  0  0  0  0  0  0
    7.1980  -12.4791   19.4212 C   0  0  0  0  0  0  0  0  0  0  0  0
    8.2988  -13.4112   18.9573 C   0  0  2  0  0  0  0  0  0  0  0  0
    7.9452  -14.1931   17.8261 N   0  0  0  0  0  0  0  0  0  0  0  0
    8.5976  -14.2997   20.1080 C   0  0  0  0  0  0  0  0  0  0  0  0
    9.0882  -13.7946   21.1465 O   0  0  0  0  0  0  0  0  0  0  0  0
    8.3585  -15.6872   20.0960 N   0  0  0  0  0  0  0  0  0  0  0  0
    8.5630  -16.5622   21.2332 C   0  0  1  0  0  0  0  0  0  0  0  0
    7.5988  -17.7291   21.0593 C   0  0  0  0  0  0  0  0  0  0  0  0
    7.8566  -18.5862   19.5008 S   0  0  0  0  0  0  0  0  0  0  0  0
    9.9725  -17.0320   21.1798 C   0  0  0  0  0  0  0  0  0  0  0  0
   10.7319  -16.7868   20.2057 O   0  0  0  0  0  0  0  0  0  0  0  0
   10.5120  -17.7732   22.2239 O   0  0  0  0  0  0  0  0  0  0  0  0
  2  1  1  6
  2  3  1  0
  3  4  1  0
  4  5  2  0
  5  6  1  0
  7  6  1  0
  8  4  1  0
  8  7  2  0
  9 13  1  0
  9  2  1  0
 10  9  2  0
 12 11  1  1
 12 13  1  0
 12 14  1  0
 14 16  1  0
 15 14  2  0
 16 17  1  0
 17 20  1  0
 17 18  1  6
 18 19  1  0
 20 22  1  0
 21 20  2  0
M  END
$$$$
