HAC.pdb
     RDKit          3D

 22 22  0  0  1  0  0  0  0  0999 V2000
   10.5423  -12.9653   20.0005 N   0  0  0  0  0  0  0  0  0  0  0  0
    9.5438  -13.9103   20.4327 C   0  0  1  0  0  0  0  0  0  0  0  0
    9.7914  -15.2683   19.8069 C   0  0  0  0  0  0  0  0  0  0  0  0
    9.4163  -15.2580   18.3667 C   0  0  0  0  0  0  0  0  0  0  0  0
    9.0131  -14.1660   17.6572 C   0  0  0  0  0  0  0  0  0  0  0  0
    8.7749  -14.5993   16.4017 N   0  0  0  0  0  0  0  0  0  0  0  0
    9.0210  -15.9001   16.3432 C   0  0  0  0  0  0  0  0  0  0  0  0
    9.4167  -16.3221   17.5433 N   0  0  0  0  0  0  0  0  0  0  0  0
    9.5665  -14.1007   21.9035 C   0  0  0  0  0  0  0  0  0  0  0  0
   10.5967  -13.7476   22.5199 O   0  0  0  0  0  0  0  0  0  0  0  0
    7.2941  -15.3525   24.6708 C   0  0  0  0  0  0  0  0  0  0  0  0
    8.5600  -14.7838   24.0624 C   0  0  2  0  0  0  0  0  0  0  0  0
    8.5048  -14.6524   22.6496 N   0  0  0  0  0  0  0  0  0  0  0  0
    9.6517  -15.7166   24.4374 C   0  0  0  0  0  0  0  0  0  0  0  0
   10.6506  -15.8075   23.6836 O   0  0  0  0  0  0  0  0  0  0  0  0
    9.6260  -16.5094   25.6007 N   0  0  0  0  0  0  0  0  0  0  0  0
   10.2209  -16.1255   26.8654 C   0  0  1  0  0  0  0  0  0  0  0  0
    9.4234  -14.9303   27.3727 C   0  0  0  0  0  0  0  0  0  0  0  0
   10.2878  -14.0538   28.6821 S   0  0  0  0  0  0  0  0  0  0  0  0
   10.0790  -17.2824   27.7882 C   0  0  0  0  0  0  0  0  0  0  0  0
    9.0489  -18.0060   27.8142 O   0  0  0  0  0  0  0  0  0  0  0  0
   11.0990  -17.6123   28.6723 O   0  0  0  0  0  0  0  0  0  0  0  0
  2  1  1  1
  2  3  1  0
  3  4  1  0
  4  5  2  0
  5  6  1  0
  7  6  1  0
  8  4  1  0
  8  7  2  0
  9 13  1  0
  9  2  1  0
 10  9  2  0
 12 11  1  6
 12 13  1  0
 12 14  1  0
 14 16  1  0
 15 14  2  0
 16 17  1  0
 17 20  1  0
 17 18  1  1
 18 19  1  0
 20 22  1  0
 21 20  2  0
M  END
$$$$
