HAC.pdb
     RDKit          3D

 22 22  0  0  1  0  0  0  0  0999 V2000
    8.4718  -13.4504   17.8531 N   0  0  0  0  0  0  0  0  0  0  0  0
    8.5803  -14.7446   18.4777 C   0  0  1  0  0  0  0  0  0  0  0  0
    9.3564  -15.6986   17.5920 C   0  0  0  0  0  0  0  0  0  0  0  0
    8.5762  -16.0305   16.3687 C   0  0  0  0  0  0  0  0  0  0  0  0
    7.6600  -17.0338   16.2573 C   0  0  0  0  0  0  0  0  0  0  0  0
    7.1963  -16.9815   14.9912 N   0  0  0  0  0  0  0  0  0  0  0  0
    7.8013  -15.9899   14.3536 C   0  0  0  0  0  0  0  0  0  0  0  0
    8.6537  -15.3939   15.1861 N   0  0  0  0  0  0  0  0  0  0  0  0
    9.3009  -14.6722   19.7721 C   0  0  0  0  0  0  0  0  0  0  0  0
   10.3595  -14.0061   19.8120 O   0  0  0  0  0  0  0  0  0  0  0  0
    8.8203  -15.7023   23.3819 C   0  0  0  0  0  0  0  0  0  0  0  0
    9.5852  -15.1889   22.1789 C   0  0  2  0  0  0  0  0  0  0  0  0
    8.8708  -15.3039   20.9572 N   0  0  0  0  0  0  0  0  0  0  0  0
   10.8307  -15.9930   22.1095 C   0  0  0  0  0  0  0  0  0  0  0  0
   10.8499  -17.0102   21.3753 O   0  0  0  0  0  0  0  0  0  0  0  0
   11.9987  -15.6731   22.8279 N   0  0  0  0  0  0  0  0  0  0  0  0
   13.2393  -16.4179   22.7456 C   0  0  1  0  0  0  0  0  0  0  0  0
   14.2873  -15.4529   22.2051 C   0  0  0  0  0  0  0  0  0  0  0  0
   15.9060  -16.2232   22.0766 S   0  0  0  0  0  0  0  0  0  0  0  0
   13.5852  -16.8515   24.1249 C   0  0  0  0  0  0  0  0  0  0  0  0
   13.1377  -16.2722   25.1495 O   0  0  0  0  0  0  0  0  0  0  0  0
   14.4315  -17.9331   24.3359 O   0  0  0  0  0  0  0  0  0  0  0  0
  2  1  1  6
  2  3  1  0
  3  4  1  0
  4  5  2  0
  5  6  1  0
  7  6  1  0
  8  4  1  0
  8  7  2  0
  9 13  1  0
  9  2  1  0
 10  9  2  0
 12 11  1  1
 12 13  1  0
 12 14  1  0
 14 16  1  0
 15 14  2  0
 16 17  1  0
 17 20  1  0
 17 18  1  1
 18 19  1  0
 20 22  1  0
 21 20  2  0
M  END
$$$$
