HAC.pdb
     RDKit          3D

 22 22  0  0  1  0  0  0  0  0999 V2000
    8.0388  -17.2565   19.5528 N   0  0  0  0  0  0  0  0  0  0  0  0
    9.0467  -16.9576   20.5385 C   0  0  1  0  0  0  0  0  0  0  0  0
    9.7810  -15.6819   20.1775 C   0  0  0  0  0  0  0  0  0  0  0  0
    8.8359  -14.6688   19.6341 C   0  0  0  0  0  0  0  0  0  0  0  0
    7.5084  -14.8665   19.3951 C   0  0  0  0  0  0  0  0  0  0  0  0
    7.0351  -13.6998   18.9097 N   0  0  0  0  0  0  0  0  0  0  0  0
    8.0284  -12.8245   18.8533 C   0  0  0  0  0  0  0  0  0  0  0  0
    9.1438  -13.4037   19.2952 N   0  0  0  0  0  0  0  0  0  0  0  0
    8.4568  -16.7518   21.8837 C   0  0  0  0  0  0  0  0  0  0  0  0
    7.2416  -16.4602   21.9475 O   0  0  0  0  0  0  0  0  0  0  0  0
    9.2434  -17.6773   25.4100 C   0  0  0  0  0  0  0  0  0  0  0  0
    8.5342  -16.8481   24.3587 C   0  0  2  0  0  0  0  0  0  0  0  0
    9.1754  -16.8635   23.0918 N   0  0  0  0  0  0  0  0  0  0  0  0
    8.4966  -15.4610   24.8852 C   0  0  0  0  0  0  0  0  0  0  0  0
    9.4929  -14.7207   24.7018 O   0  0  0  0  0  0  0  0  0  0  0  0
    7.3959  -14.9286   25.5836 N   0  0  0  0  0  0  0  0  0  0  0  0
    7.3587  -13.5997   26.1608 C   0  0  1  0  0  0  0  0  0  0  0  0
    5.8935  -13.2933   26.4455 C   0  0  0  0  0  0  0  0  0  0  0  0
    5.6937  -11.7557   27.3543 S   0  0  0  0  0  0  0  0  0  0  0  0
    8.1415  -13.6459   27.4238 C   0  0  0  0  0  0  0  0  0  0  0  0
    8.6858  -12.6252   27.9213 O   0  0  0  0  0  0  0  0  0  0  0  0
    8.3031  -14.8413   28.1136 O   0  0  0  0  0  0  0  0  0  0  0  0
  2  1  1  6
  2  3  1  0
  3  4  1  0
  4  5  2  0
  5  6  1  0
  7  6  1  0
  8  4  1  0
  8  7  2  0
  9 13  1  0
  9  2  1  0
 10  9  2  0
 12 11  1  1
 12 13  1  0
 12 14  1  0
 14 16  1  0
 15 14  2  0
 16 17  1  0
 17 20  1  0
 17 18  1  1
 18 19  1  0
 20 22  1  0
 21 20  2  0
M  END
$$$$
