HAC.pdb
     RDKit          3D

 22 22  0  0  1  0  0  0  0  0999 V2000
    8.5371  -17.7532   19.2434 N   0  0  0  0  0  0  0  0  0  0  0  0
    9.3858  -16.7450   19.8266 C   0  0  1  0  0  0  0  0  0  0  0  0
    8.5522  -15.6248   20.4159 C   0  0  0  0  0  0  0  0  0  0  0  0
    8.0505  -14.7241   19.3425 C   0  0  0  0  0  0  0  0  0  0  0  0
    8.2963  -14.8619   18.0087 C   0  0  0  0  0  0  0  0  0  0  0  0
    7.6585  -13.8401   17.4006 N   0  0  0  0  0  0  0  0  0  0  0  0
    7.0482  -13.1073   18.3205 C   0  0  0  0  0  0  0  0  0  0  0  0
    7.2787  -13.6367   19.5212 N   0  0  0  0  0  0  0  0  0  0  0  0
   10.2148  -17.2932   20.9276 C   0  0  0  0  0  0  0  0  0  0  0  0
    9.8411  -18.3620   21.4603 O   0  0  0  0  0  0  0  0  0  0  0  0
   13.6246  -16.7583   22.4400 C   0  0  0  0  0  0  0  0  0  0  0  0
   12.2123  -17.3053   22.3940 C   0  0  2  0  0  0  0  0  0  0  0  0
   11.3936  -16.6890   21.4110 N   0  0  0  0  0  0  0  0  0  0  0  0
   11.6374  -17.0741   23.7425 C   0  0  0  0  0  0  0  0  0  0  0  0
   12.2133  -17.5787   24.7365 O   0  0  0  0  0  0  0  0  0  0  0  0
   10.4735  -16.3143   23.9671 N   0  0  0  0  0  0  0  0  0  0  0  0
    9.9079  -16.0518   25.2755 C   0  0  1  0  0  0  0  0  0  0  0  0
    9.0892  -14.7734   25.1436 C   0  0  0  0  0  0  0  0  0  0  0  0
    7.6442  -15.0063   24.1007 S   0  0  0  0  0  0  0  0  0  0  0  0
    9.0325  -17.2041   25.6163 C   0  0  0  0  0  0  0  0  0  0  0  0
    8.4663  -17.3171   26.7353 O   0  0  0  0  0  0  0  0  0  0  0  0
    8.8040  -18.2173   24.6932 O   0  0  0  0  0  0  0  0  0  0  0  0
  2  1  1  1
  2  3  1  0
  3  4  1  0
  4  5  2  0
  5  6  1  0
  7  6  1  0
  8  4  1  0
  8  7  2  0
  9 13  1  0
  9  2  1  0
 10  9  2  0
 12 11  1  1
 12 13  1  0
 12 14  1  0
 14 16  1  0
 15 14  2  0
 16 17  1  0
 17 20  1  0
 17 18  1  6
 18 19  1  0
 20 22  1  0
 21 20  2  0
M  END
$$$$
