HAC.pdb
     RDKit          3D

 22 22  0  0  1  0  0  0  0  0999 V2000
    7.2124  -16.7755   20.0061 N   0  0  0  0  0  0  0  0  0  0  0  0
    7.6751  -15.6872   20.8297 C   0  0  1  0  0  0  0  0  0  0  0  0
    7.0549  -14.3795   20.3799 C   0  0  0  0  0  0  0  0  0  0  0  0
    7.6393  -13.9407   19.0834 C   0  0  0  0  0  0  0  0  0  0  0  0
    8.4777  -12.8803   18.9069 C   0  0  0  0  0  0  0  0  0  0  0  0
    8.7632  -12.8412   17.5887 N   0  0  0  0  0  0  0  0  0  0  0  0
    8.1281  -13.8338   16.9827 C   0  0  0  0  0  0  0  0  0  0  0  0
    7.4317  -14.5206   17.8873 N   0  0  0  0  0  0  0  0  0  0  0  0
    7.3017  -15.8768   22.2526 C   0  0  0  0  0  0  0  0  0  0  0  0
    6.0830  -15.9208   22.5333 O   0  0  0  0  0  0  0  0  0  0  0  0
    8.0775  -17.6459   25.1345 C   0  0  0  0  0  0  0  0  0  0  0  0
    7.8235  -16.2333   24.6487 C   0  0  2  0  0  0  0  0  0  0  0  0
    8.2292  -16.0101   23.3063 N   0  0  0  0  0  0  0  0  0  0  0  0
    8.5860  -15.3422   25.5581 C   0  0  0  0  0  0  0  0  0  0  0  0
    9.8232  -15.2234   25.3860 O   0  0  0  0  0  0  0  0  0  0  0  0
    7.9915  -14.6188   26.6097 N   0  0  0  0  0  0  0  0  0  0  0  0
    8.7051  -13.7059   27.4802 C   0  0  1  0  0  0  0  0  0  0  0  0
    7.6491  -12.8427   28.1598 C   0  0  0  0  0  0  0  0  0  0  0  0
    6.5504  -12.0647   26.9692 S   0  0  0  0  0  0  0  0  0  0  0  0
    9.4341  -14.5297   28.4801 C   0  0  0  0  0  0  0  0  0  0  0  0
    9.2098  -15.7586   28.6386 O   0  0  0  0  0  0  0  0  0  0  0  0
   10.4084  -13.9609   29.2913 O   0  0  0  0  0  0  0  0  0  0  0  0
  2  1  1  6
  2  3  1  0
  3  4  1  0
  4  5  2  0
  5  6  1  0
  7  6  1  0
  8  4  1  0
  8  7  2  0
  9 13  1  0
  9  2  1  0
 10  9  2  0
 12 11  1  1
 12 13  1  0
 12 14  1  0
 14 16  1  0
 15 14  2  0
 16 17  1  0
 17 20  1  0
 17 18  1  1
 18 19  1  0
 20 22  1  0
 21 20  2  0
M  END
$$$$
