HAC.pdb
     RDKit          3D

 22 22  0  0  1  0  0  0  0  0999 V2000
    7.8092  -16.8943   19.5349 N   0  0  0  0  0  0  0  0  0  0  0  0
    8.1132  -15.6944   20.2730 C   0  0  1  0  0  0  0  0  0  0  0  0
    7.2441  -14.5459   19.8013 C   0  0  0  0  0  0  0  0  0  0  0  0
    7.5990  -14.1574   18.4091 C   0  0  0  0  0  0  0  0  0  0  0  0
    8.4433  -13.1471   18.0557 C   0  0  0  0  0  0  0  0  0  0  0  0
    8.4803  -13.1415   16.7069 N   0  0  0  0  0  0  0  0  0  0  0  0
    7.6933  -14.1059   16.2524 C   0  0  0  0  0  0  0  0  0  0  0  0
    7.1429  -14.7411   17.2860 N   0  0  0  0  0  0  0  0  0  0  0  0
    7.8589  -15.8621   21.7246 C   0  0  0  0  0  0  0  0  0  0  0  0
    6.6789  -15.7485   22.1253 O   0  0  0  0  0  0  0  0  0  0  0  0
    9.3186  -17.4610   24.7007 C   0  0  0  0  0  0  0  0  0  0  0  0
    8.5623  -16.3167   24.0568 C   0  0  2  0  0  0  0  0  0  0  0  0
    8.8586  -16.1406   22.6793 N   0  0  0  0  0  0  0  0  0  0  0  0
    8.9416  -15.0965   24.8117 C   0  0  0  0  0  0  0  0  0  0  0  0
   10.0239  -14.5274   24.5305 O   0  0  0  0  0  0  0  0  0  0  0  0
    8.1470  -14.5404   25.8324 N   0  0  0  0  0  0  0  0  0  0  0  0
    8.5057  -13.3637   26.5987 C   0  0  1  0  0  0  0  0  0  0  0  0
    7.3092  -12.4226   26.5305 C   0  0  0  0  0  0  0  0  0  0  0  0
    5.7775  -13.2510   26.9749 S   0  0  0  0  0  0  0  0  0  0  0  0
    8.7481  -13.8057   27.9973 C   0  0  0  0  0  0  0  0  0  0  0  0
    9.1570  -13.0222   28.8942 O   0  0  0  0  0  0  0  0  0  0  0  0
    8.5275  -15.1257   28.3712 O   0  0  0  0  0  0  0  0  0  0  0  0
  2  1  1  6
  2  3  1  0
  3  4  1  0
  4  5  2  0
  5  6  1  0
  7  6  1  0
  8  4  1  0
  8  7  2  0
  9 13  1  0
  9  2  1  0
 10  9  2  0
 12 11  1  1
 12 13  1  0
 12 14  1  0
 14 16  1  0
 15 14  2  0
 16 17  1  0
 17 20  1  0
 17 18  1  1
 18 19  1  0
 20 22  1  0
 21 20  2  0
M  END
$$$$
