HAC.pdb
     RDKit          3D

 22 22  0  0  1  0  0  0  0  0999 V2000
    8.1037  -17.0372   20.0072 N   0  0  0  0  0  0  0  0  0  0  0  0
    8.5807  -15.9927   20.8782 C   0  0  1  0  0  0  0  0  0  0  0  0
    7.6426  -14.8029   20.8442 C   0  0  0  0  0  0  0  0  0  0  0  0
    7.6576  -14.1616   19.5012 C   0  0  0  0  0  0  0  0  0  0  0  0
    8.5178  -13.1851   19.0953 C   0  0  0  0  0  0  0  0  0  0  0  0
    8.1839  -12.8948   17.8206 N   0  0  0  0  0  0  0  0  0  0  0  0
    7.1636  -13.6596   17.4599 C   0  0  0  0  0  0  0  0  0  0  0  0
    6.8267  -14.4452   18.4817 N   0  0  0  0  0  0  0  0  0  0  0  0
    8.6563  -16.4445   22.2889 C   0  0  0  0  0  0  0  0  0  0  0  0
    7.6587  -17.0299   22.7664 O   0  0  0  0  0  0  0  0  0  0  0  0
   11.0877  -17.3940   24.8649 C   0  0  0  0  0  0  0  0  0  0  0  0
    9.7988  -16.7006   24.4728 C   0  0  2  0  0  0  0  0  0  0  0  0
    9.7769  -16.2573   23.1241 N   0  0  0  0  0  0  0  0  0  0  0  0
    9.6629  -15.5381   25.3854 C   0  0  0  0  0  0  0  0  0  0  0  0
   10.6090  -15.2720   26.1654 O   0  0  0  0  0  0  0  0  0  0  0  0
    8.5223  -14.7134   25.4226 N   0  0  0  0  0  0  0  0  0  0  0  0
    8.3259  -13.6314   26.3667 C   0  0  1  0  0  0  0  0  0  0  0  0
    6.9381  -13.0653   26.0922 C   0  0  0  0  0  0  0  0  0  0  0  0
    6.4482  -11.8590   27.3311 S   0  0  0  0  0  0  0  0  0  0  0  0
    8.3939  -14.2189   27.7306 C   0  0  0  0  0  0  0  0  0  0  0  0
    7.9677  -15.3744   27.9927 O   0  0  0  0  0  0  0  0  0  0  0  0
    8.9414  -13.4988   28.7854 O   0  0  0  0  0  0  0  0  0  0  0  0
  2  1  1  6
  2  3  1  0
  3  4  1  0
  4  5  2  0
  5  6  1  0
  7  6  1  0
  8  4  1  0
  8  7  2  0
  9 13  1  0
  9  2  1  0
 10  9  2  0
 12 11  1  1
 12 13  1  0
 12 14  1  0
 14 16  1  0
 15 14  2  0
 16 17  1  0
 17 20  1  0
 17 18  1  6
 18 19  1  0
 20 22  1  0
 21 20  2  0
M  END
$$$$
