HAC.pdb
     RDKit          3D

 22 22  0  0  1  0  0  0  0  0999 V2000
    7.5518  -17.3502   19.9887 N   0  0  0  0  0  0  0  0  0  0  0  0
    7.7933  -16.2146   20.8425 C   0  0  1  0  0  0  0  0  0  0  0  0
    6.9540  -15.0316   20.4034 C   0  0  0  0  0  0  0  0  0  0  0  0
    7.4840  -14.4533   19.1386 C   0  0  0  0  0  0  0  0  0  0  0  0
    8.5938  -14.8806   18.4721 C   0  0  0  0  0  0  0  0  0  0  0  0
    8.7107  -14.0868   17.3872 N   0  0  0  0  0  0  0  0  0  0  0  0
    7.7164  -13.2108   17.3878 C   0  0  0  0  0  0  0  0  0  0  0  0
    6.9518  -13.4219   18.4582 N   0  0  0  0  0  0  0  0  0  0  0  0
    7.4344  -16.5005   22.2530 C   0  0  0  0  0  0  0  0  0  0  0  0
    6.2410  -16.7807   22.5042 O   0  0  0  0  0  0  0  0  0  0  0  0
    9.0573  -17.7271   25.3200 C   0  0  0  0  0  0  0  0  0  0  0  0
    7.9920  -16.8954   24.6350 C   0  0  2  0  0  0  0  0  0  0  0  0
    8.3491  -16.4770   23.3259 N   0  0  0  0  0  0  0  0  0  0  0  0
    7.7770  -15.7088   25.5000 C   0  0  0  0  0  0  0  0  0  0  0  0
    7.4287  -15.8885   26.6919 O   0  0  0  0  0  0  0  0  0  0  0  0
    7.9440  -14.3846   25.0516 N   0  0  0  0  0  0  0  0  0  0  0  0
    7.8094  -13.2128   25.8940 C   0  0  1  0  0  0  0  0  0  0  0  0
    6.3279  -12.8567   25.9050 C   0  0  0  0  0  0  0  0  0  0  0  0
    5.9492  -11.5984   27.1311 S   0  0  0  0  0  0  0  0  0  0  0  0
    8.2690  -13.5938   27.2555 C   0  0  0  0  0  0  0  0  0  0  0  0
    8.1783  -14.7696   27.6969 O   0  0  0  0  0  0  0  0  0  0  0  0
    8.8260  -12.6464   28.1058 O   0  0  0  0  0  0  0  0  0  0  0  0
  2  1  1  6
  2  3  1  0
  3  4  1  0
  4  5  2  0
  5  6  1  0
  7  6  1  0
  8  4  1  0
  8  7  2  0
  9 13  1  0
  9  2  1  0
 10  9  2  0
 12 11  1  1
 12 13  1  0
 12 14  1  0
 14 16  1  0
 15 14  2  0
 16 17  1  0
 17 20  1  0
 17 18  1  1
 18 19  1  0
 20 22  1  0
 21 20  2  0
M  END
$$$$
