DAN.pdb
     RDKit          3D

 22 21  0  0  1  0  0  0  0  0999 V2000
    8.3951  -17.9988   19.0446 N   0  0  0  0  0  0  0  0  0  0  0  0
    9.5449  -17.1472   19.0199 C   0  0  1  0  0  0  0  0  0  0  0  0
    9.7901  -16.7602   17.5566 C   0  0  0  0  0  0  0  0  0  0  0  0
    9.9319  -18.0018   16.7405 C   0  0  0  0  0  0  0  0  0  0  0  0
    9.2678  -18.1160   15.6607 O   0  0  0  0  0  0  0  0  0  0  0  0
    9.3760  -15.8768   19.7681 C   0  0  0  0  0  0  0  0  0  0  0  0
   10.4127  -15.2143   20.0302 O   0  0  0  0  0  0  0  0  0  0  0  0
   10.7615  -19.0259   17.1219 O   0  0  0  0  0  0  0  0  0  0  0  0
    6.5542  -13.6934   20.7844 C   0  0  0  0  0  0  0  0  0  0  0  0
    7.9651  -14.1863   21.0384 C   0  0  2  0  0  0  0  0  0  0  0  0
    8.1440  -15.3595   20.2066 N   0  0  0  0  0  0  0  0  0  0  0  0
    8.1401  -14.5216   22.4823 C   0  0  0  0  0  0  0  0  0  0  0  0
    7.9604  -13.6137   23.3050 O   0  0  0  0  0  0  0  0  0  0  0  0
    6.0162  -15.8799   25.3883 N   0  0  0  0  0  0  0  0  0  0  0  0
    6.5605  -17.1384   25.0728 C   0  0  0  0  0  0  0  0  0  0  0  0
    5.7785  -18.1379   25.1754 O   0  0  0  0  0  0  0  0  0  0  0  0
    7.9321  -17.4196   24.6352 C   0  0  0  0  0  0  0  0  0  0  0  0
    8.7398  -16.2366   24.2529 C   0  0  2  0  0  0  0  0  0  0  0  0
    8.4924  -15.8116   22.8843 N   0  0  0  0  0  0  0  0  0  0  0  0
   10.1923  -16.3822   24.5069 C   0  0  0  0  0  0  0  0  0  0  0  0
   11.2026  -16.3200   23.5874 O   0  0  0  0  0  0  0  0  0  0  0  0
   10.5459  -16.5901   25.7253 O   0  0  0  0  0  0  0  0  0  0  0  0
  2  1  1  6
  3  2  1  0
  3  4  1  0
  4  5  2  0
  6  2  1  0
  6 11  1  0
  7  6  2  0
  8  4  1  0
 10 11  1  0
 10  9  1  1
 12 10  1  0
 12 19  1  0
 13 12  2  0
 15 14  1  0
 16 15  2  0
 17 15  1  0
 18 19  1  0
 18 17  1  6
 20 18  1  0
 21 20  1  0
 22 20  2  0
M  END
$$$$
