DAN.pdb
     RDKit          3D

 22 21  0  0  1  0  0  0  0  0999 V2000
    9.9099  -18.0089   19.6310 N   0  0  0  0  0  0  0  0  0  0  0  0
   10.7942  -17.1925   20.4050 C   0  0  1  0  0  0  0  0  0  0  0  0
   11.7519  -16.5062   19.4235 C   0  0  0  0  0  0  0  0  0  0  0  0
   12.5924  -17.5432   18.7558 C   0  0  0  0  0  0  0  0  0  0  0  0
   13.4527  -18.1832   19.4415 O   0  0  0  0  0  0  0  0  0  0  0  0
   10.1169  -16.1085   21.1587 C   0  0  0  0  0  0  0  0  0  0  0  0
   10.8403  -15.2130   21.6656 O   0  0  0  0  0  0  0  0  0  0  0  0
   12.4625  -17.8277   17.4198 O   0  0  0  0  0  0  0  0  0  0  0  0
    6.5644  -15.2089   21.9152 C   0  0  0  0  0  0  0  0  0  0  0  0
    8.0494  -14.9938   22.1309 C   0  0  2  0  0  0  0  0  0  0  0  0
    8.7271  -16.0088   21.3495 N   0  0  0  0  0  0  0  0  0  0  0  0
    8.3819  -15.1226   23.5803 C   0  0  0  0  0  0  0  0  0  0  0  0
    8.8890  -16.1875   23.9573 O   0  0  0  0  0  0  0  0  0  0  0  0
    5.6364  -12.0499   26.8237 N   0  0  0  0  0  0  0  0  0  0  0  0
    6.8579  -12.1231   26.1293 C   0  0  0  0  0  0  0  0  0  0  0  0
    6.9113  -11.5222   25.0081 O   0  0  0  0  0  0  0  0  0  0  0  0
    8.0765  -12.8155   26.5623 C   0  0  0  0  0  0  0  0  0  0  0  0
    8.3397  -14.1210   25.9108 C   0  0  2  0  0  0  0  0  0  0  0  0
    8.1290  -14.0786   24.4725 N   0  0  0  0  0  0  0  0  0  0  0  0
    7.6154  -15.2622   26.5178 C   0  0  0  0  0  0  0  0  0  0  0  0
    7.8045  -15.7927   27.7640 O   0  0  0  0  0  0  0  0  0  0  0  0
    6.7081  -15.8180   25.7962 O   0  0  0  0  0  0  0  0  0  0  0  0
  2  1  1  6
  3  2  1  0
  3  4  1  0
  4  5  2  0
  6  2  1  0
  6 11  1  0
  7  6  2  0
  8  4  1  0
 10 11  1  0
 10  9  1  1
 12 10  1  0
 12 19  1  0
 13 12  2  0
 15 14  1  0
 16 15  2  0
 17 15  1  0
 18 19  1  0
 18 17  1  1
 20 18  1  0
 21 20  1  0
 22 20  2  0
M  END
$$$$
