DAN.pdb
     RDKit          3D

 22 21  0  0  1  0  0  0  0  0999 V2000
    8.8230  -17.8668   18.2277 N   0  0  0  0  0  0  0  0  0  0  0  0
    7.9041  -17.2261   19.1180 C   0  0  1  0  0  0  0  0  0  0  0  0
    7.6136  -18.2125   20.2554 C   0  0  0  0  0  0  0  0  0  0  0  0
    7.4940  -19.5885   19.6897 C   0  0  0  0  0  0  0  0  0  0  0  0
    6.9181  -19.7517   18.5665 O   0  0  0  0  0  0  0  0  0  0  0  0
    8.4336  -15.9945   19.7545 C   0  0  0  0  0  0  0  0  0  0  0  0
    9.6349  -16.0030   20.1270 O   0  0  0  0  0  0  0  0  0  0  0  0
    7.9900  -20.6855   20.3479 O   0  0  0  0  0  0  0  0  0  0  0  0
    7.1102  -12.5600   20.4110 C   0  0  0  0  0  0  0  0  0  0  0  0
    8.1837  -13.6124   20.6060 C   0  0  2  0  0  0  0  0  0  0  0  0
    7.6919  -14.8199   19.9733 N   0  0  0  0  0  0  0  0  0  0  0  0
    8.4293  -13.8321   22.0618 C   0  0  0  0  0  0  0  0  0  0  0  0
    8.9467  -12.9056   22.6997 O   0  0  0  0  0  0  0  0  0  0  0  0
    6.7245  -18.4435   24.1098 N   0  0  0  0  0  0  0  0  0  0  0  0
    6.4625  -17.0706   23.9472 C   0  0  0  0  0  0  0  0  0  0  0  0
    5.6055  -16.7566   23.0595 O   0  0  0  0  0  0  0  0  0  0  0  0
    7.0699  -15.9641   24.6946 C   0  0  0  0  0  0  0  0  0  0  0  0
    8.2770  -15.3604   24.0809 C   0  0  2  0  0  0  0  0  0  0  0  0
    8.0861  -15.0385   22.6757 N   0  0  0  0  0  0  0  0  0  0  0  0
    9.5187  -16.1440   24.2799 C   0  0  0  0  0  0  0  0  0  0  0  0
   10.3706  -16.6026   23.3134 O   0  0  0  0  0  0  0  0  0  0  0  0
    9.8336  -16.4259   25.4940 O   0  0  0  0  0  0  0  0  0  0  0  0
  2  1  1  6
  3  2  1  0
  3  4  1  0
  4  5  2  0
  6  2  1  0
  6 11  1  0
  7  6  2  0
  8  4  1  0
 10 11  1  0
 10  9  1  1
 12 10  1  0
 12 19  1  0
 13 12  2  0
 15 14  1  0
 16 15  2  0
 17 15  1  0
 18 19  1  0
 18 17  1  6
 20 18  1  0
 21 20  1  0
 22 20  2  0
M  END
$$$$
