DAN.pdb
     RDKit          3D

 22 21  0  0  1  0  0  0  0  0999 V2000
    8.0245  -16.2125   16.1167 N   0  0  0  0  0  0  0  0  0  0  0  0
    8.9840  -15.1889   15.8353 C   0  0  1  0  0  0  0  0  0  0  0  0
    8.6114  -14.5800   14.4782 C   0  0  0  0  0  0  0  0  0  0  0  0
    8.6062  -15.6571   13.4449 C   0  0  0  0  0  0  0  0  0  0  0  0
    9.7012  -16.2263   13.1336 O   0  0  0  0  0  0  0  0  0  0  0  0
    8.9840  -14.0713   16.8116 C   0  0  0  0  0  0  0  0  0  0  0  0
    9.8553  -13.1753   16.6696 O   0  0  0  0  0  0  0  0  0  0  0  0
    7.4504  -16.0529   12.8202 O   0  0  0  0  0  0  0  0  0  0  0  0
    6.7385  -12.8114   19.4817 C   0  0  0  0  0  0  0  0  0  0  0  0
    8.1419  -12.9299   18.9211 C   0  0  2  0  0  0  0  0  0  0  0  0
    8.0837  -13.9404   17.8840 N   0  0  0  0  0  0  0  0  0  0  0  0
    9.0946  -13.3242   20.0005 C   0  0  0  0  0  0  0  0  0  0  0  0
    9.1797  -12.5803   20.9866 O   0  0  0  0  0  0  0  0  0  0  0  0
   12.5264  -16.2425   22.9402 N   0  0  0  0  0  0  0  0  0  0  0  0
   11.3388  -16.8282   22.4643 C   0  0  0  0  0  0  0  0  0  0  0  0
   11.0567  -17.9860   22.9124 O   0  0  0  0  0  0  0  0  0  0  0  0
   10.3906  -16.2442   21.5095 C   0  0  0  0  0  0  0  0  0  0  0  0
   10.8130  -14.9686   20.8829 C   0  0  2  0  0  0  0  0  0  0  0  0
    9.8578  -14.4890   19.8969 N   0  0  0  0  0  0  0  0  0  0  0  0
   12.1849  -14.9891   20.3236 C   0  0  0  0  0  0  0  0  0  0  0  0
   13.3582  -14.8194   21.0054 O   0  0  0  0  0  0  0  0  0  0  0  0
   12.2880  -15.1882   19.0577 O   0  0  0  0  0  0  0  0  0  0  0  0
  2  1  1  1
  3  2  1  0
  3  4  1  0
  4  5  2  0
  6  2  1  0
  6 11  1  0
  7  6  2  0
  8  4  1  0
 10 11  1  0
 10  9  1  1
 12 10  1  0
 12 19  1  0
 13 12  2  0
 15 14  1  0
 16 15  2  0
 17 15  1  0
 18 19  1  0
 18 17  1  6
 20 18  1  0
 21 20  1  0
 22 20  2  0
M  END
$$$$
