DAN.pdb
     RDKit          3D

 22 21  0  0  1  0  0  0  0  0999 V2000
    8.2420  -14.6227   13.8457 N   0  0  0  0  0  0  0  0  0  0  0  0
    7.9931  -15.1870   15.1369 C   0  0  1  0  0  0  0  0  0  0  0  0
    8.4996  -16.6339   15.1037 C   0  0  0  0  0  0  0  0  0  0  0  0
    7.6914  -17.4116   14.1189 C   0  0  0  0  0  0  0  0  0  0  0  0
    6.4237  -17.2988   14.1270 O   0  0  0  0  0  0  0  0  0  0  0  0
    8.7167  -14.5137   16.2438 C   0  0  0  0  0  0  0  0  0  0  0  0
    9.9470  -14.3022   16.0903 O   0  0  0  0  0  0  0  0  0  0  0  0
    8.2785  -18.2462   13.2016 O   0  0  0  0  0  0  0  0  0  0  0  0
    7.7602  -13.0302   19.5407 C   0  0  0  0  0  0  0  0  0  0  0  0
    8.8279  -13.4957   18.5705 C   0  0  2  0  0  0  0  0  0  0  0  0
    8.1295  -14.0960   17.4515 N   0  0  0  0  0  0  0  0  0  0  0  0
    9.7282  -14.4848   19.2332 C   0  0  0  0  0  0  0  0  0  0  0  0
    9.4265  -15.6822   19.1419 O   0  0  0  0  0  0  0  0  0  0  0  0
   13.8946  -16.4383   22.0856 N   0  0  0  0  0  0  0  0  0  0  0  0
   14.0884  -15.1394   21.5807 C   0  0  0  0  0  0  0  0  0  0  0  0
   15.2509  -14.6408   21.7253 O   0  0  0  0  0  0  0  0  0  0  0  0
   13.0937  -14.3010   20.9027 C   0  0  0  0  0  0  0  0  0  0  0  0
   11.7754  -14.9353   20.6622 C   0  0  2  0  0  0  0  0  0  0  0  0
   10.8662  -14.0698   19.9279 N   0  0  0  0  0  0  0  0  0  0  0  0
   11.1257  -15.4722   21.8808 C   0  0  0  0  0  0  0  0  0  0  0  0
    9.9083  -15.1179   22.3930 O   0  0  0  0  0  0  0  0  0  0  0  0
   11.7753  -16.3708   22.5315 O   0  0  0  0  0  0  0  0  0  0  0  0
  2  1  1  6
  3  2  1  0
  3  4  1  0
  4  5  2  0
  6  2  1  0
  6 11  1  0
  7  6  2  0
  8  4  1  0
 10 11  1  0
 10  9  1  1
 12 10  1  0
 12 19  1  0
 13 12  2  0
 15 14  1  0
 16 15  2  0
 17 15  1  0
 18 19  1  0
 18 17  1  1
 20 18  1  0
 21 20  1  0
 22 20  2  0
M  END
$$$$
