DAN.pdb
     RDKit          3D

 22 21  0  0  1  0  0  0  0  0999 V2000
    7.9222  -13.0829   17.0908 N   0  0  0  0  0  0  0  0  0  0  0  0
    7.8750  -14.3204   17.8078 C   0  0  1  0  0  0  0  0  0  0  0  0
    8.7337  -15.3261   17.0317 C   0  0  0  0  0  0  0  0  0  0  0  0
    8.0188  -15.7155   15.7807 C   0  0  0  0  0  0  0  0  0  0  0  0
    6.9776  -15.0715   15.4327 O   0  0  0  0  0  0  0  0  0  0  0  0
    8.4429  -14.2512   19.1770 C   0  0  0  0  0  0  0  0  0  0  0  0
    9.6880  -14.1083   19.2834 O   0  0  0  0  0  0  0  0  0  0  0  0
    8.4545  -16.7505   14.9923 O   0  0  0  0  0  0  0  0  0  0  0  0
    7.0639  -13.8067   22.5914 C   0  0  0  0  0  0  0  0  0  0  0  0
    8.2212  -14.2318   21.7093 C   0  0  2  0  0  0  0  0  0  0  0  0
    7.6930  -14.3349   20.3638 N   0  0  0  0  0  0  0  0  0  0  0  0
    8.7661  -15.5419   22.1729 C   0  0  0  0  0  0  0  0  0  0  0  0
    8.1488  -16.5645   21.8468 O   0  0  0  0  0  0  0  0  0  0  0  0
   12.5658  -17.5225   20.9349 N   0  0  0  0  0  0  0  0  0  0  0  0
   12.5608  -16.5908   21.9893 C   0  0  0  0  0  0  0  0  0  0  0  0
   13.0724  -15.4511   21.7432 O   0  0  0  0  0  0  0  0  0  0  0  0
   12.0257  -16.7930   23.3401 C   0  0  0  0  0  0  0  0  0  0  0  0
   10.5473  -16.8214   23.4480 C   0  0  2  0  0  0  0  0  0  0  0  0
    9.9284  -15.6057   22.9441 N   0  0  0  0  0  0  0  0  0  0  0  0
   10.0410  -17.1509   24.8009 C   0  0  0  0  0  0  0  0  0  0  0  0
   10.0998  -18.3620   25.4333 O   0  0  0  0  0  0  0  0  0  0  0  0
    9.4843  -16.1951   25.4561 O   0  0  0  0  0  0  0  0  0  0  0  0
  2  1  1  6
  3  2  1  0
  3  4  1  0
  4  5  2  0
  6  2  1  0
  6 11  1  0
  7  6  2  0
  8  4  1  0
 10 11  1  0
 10  9  1  1
 12 10  1  0
 12 19  1  0
 13 12  2  0
 15 14  1  0
 16 15  2  0
 17 15  1  0
 18 19  1  0
 18 17  1  1
 20 18  1  0
 21 20  1  0
 22 20  2  0
M  END
$$$$
