KCH.pdb
     RDKit          3D

 26 26  0  0  1  0  0  0  0  0999 V2000
   11.5152  -23.7341   17.9988 N   0  0  0  0  0  0  0  0  0  0  0  0
   10.6164  -23.7020   19.1391 C   0  0  1  0  0  0  0  0  0  0  0  0
   10.1997  -25.0642   19.5178 C   0  0  0  0  0  0  0  0  0  0  0  0
   11.2017  -26.0906   19.8421 C   0  0  0  0  0  0  0  0  0  0  0  0
   10.8668  -27.4453   20.2528 C   0  0  0  0  0  0  0  0  0  0  0  0
   11.9436  -28.4205   20.5333 C   0  0  0  0  0  0  0  0  0  0  0  0
   11.3617  -29.7097   20.9721 N   0  0  0  0  0  0  0  0  0  0  0  0
   11.3670  -23.0570   20.3079 C   0  0  0  0  0  0  0  0  0  0  0  0
   12.5920  -23.2430   20.4783 O   0  0  0  0  0  0  0  0  0  0  0  0
   10.6910  -22.2389   21.2170 N   0  0  0  0  0  0  0  0  0  0  0  0
   11.3361  -21.5793   22.3129 C   0  0  1  0  0  0  0  0  0  0  0  0
   10.9053  -20.1612   22.5199 C   0  0  0  0  0  0  0  0  0  0  0  0
   11.7926  -19.3852   23.8996 S   0  0  0  0  0  0  0  0  0  0  0  0
   11.0731  -22.3309   23.5553 C   0  0  0  0  0  0  0  0  0  0  0  0
    9.9044  -22.6331   23.9383 O   0  0  0  0  0  0  0  0  0  0  0  0
   12.1416  -22.7519   24.3848 N   0  0  0  0  0  0  0  0  0  0  0  0
   11.9090  -23.4111   25.6607 C   0  0  1  0  0  0  0  0  0  0  0  0
   12.9696  -24.4712   25.8051 C   0  0  0  0  0  0  0  0  0  0  0  0
   12.7163  -25.6197   24.9174 C   0  0  0  0  0  0  0  0  0  0  0  0
   11.5362  -25.8735   24.2177 C   0  0  0  0  0  0  0  0  0  0  0  0
   11.7058  -27.0133   23.5252 N   0  0  0  0  0  0  0  0  0  0  0  0
   12.9479  -27.4590   23.7810 C   0  0  0  0  0  0  0  0  0  0  0  0
   13.5540  -26.6175   24.6198 N   0  0  0  0  0  0  0  0  0  0  0  0
   11.9539  -22.4473   26.7742 C   0  0  0  0  0  0  0  0  0  0  0  0
   12.1328  -21.0807   26.5846 O   0  0  0  0  0  0  0  0  0  0  0  0
   11.8284  -22.8521   27.9445 O   0  0  0  0  0  0  0  0  0  0  0  0
  2  3  1  0
  2  1  1  6
  4  3  1  0
  5  4  1  0
  6  7  1  0
  6  5  1  0
  8  2  1  0
  8  9  2  0
 10  8  1  0
 11 10  1  0
 11 12  1  1
 12 13  1  0
 14 11  1  0
 15 14  2  0
 16 14  1  0
 17 24  1  0
 17 16  1  0
 17 18  1  1
 19 23  1  0
 19 18  1  0
 20 19  2  0
 21 20  1  0
 21 22  1  0
 22 23  2  0
 24 25  1  0
 26 24  2  0
M  END
$$$$
