KCH.pdb
     RDKit          3D

 26 26  0  0  1  0  0  0  0  0999 V2000
    7.8274  -14.2388   20.2663 N   0  0  0  0  0  0  0  0  0  0  0  0
    7.0335  -14.5841   21.4324 C   0  0  1  0  0  0  0  0  0  0  0  0
    6.6175  -15.9974   21.3846 C   0  0  0  0  0  0  0  0  0  0  0  0
    7.6201  -17.0707   21.3115 C   0  0  0  0  0  0  0  0  0  0  0  0
    7.2867  -18.4858   21.2640 C   0  0  0  0  0  0  0  0  0  0  0  0
    8.3601  -19.4941   21.1202 C   0  0  0  0  0  0  0  0  0  0  0  0
    7.7938  -20.8588   21.2209 N   0  0  0  0  0  0  0  0  0  0  0  0
    7.8999  -14.3511   22.6735 C   0  0  0  0  0  0  0  0  0  0  0  0
    9.1488  -14.3564   22.6072 O   0  0  0  0  0  0  0  0  0  0  0  0
    7.3061  -14.1254   23.9181 N   0  0  0  0  0  0  0  0  0  0  0  0
    8.0551  -13.8953   25.1174 C   0  0  1  0  0  0  0  0  0  0  0  0
    7.3353  -13.0840   26.1486 C   0  0  0  0  0  0  0  0  0  0  0  0
    8.3579  -12.8138   27.6231 S   0  0  0  0  0  0  0  0  0  0  0  0
    8.4205  -15.1923   25.7186 C   0  0  0  0  0  0  0  0  0  0  0  0
    7.5645  -16.0828   25.9983 O   0  0  0  0  0  0  0  0  0  0  0  0
    9.7726  -15.4972   26.0120 N   0  0  0  0  0  0  0  0  0  0  0  0
   10.1519  -16.7247   26.6945 C   0  0  1  0  0  0  0  0  0  0  0  0
   11.5606  -17.0454   26.2674 C   0  0  0  0  0  0  0  0  0  0  0  0
   11.6337  -17.3722   24.8326 C   0  0  0  0  0  0  0  0  0  0  0  0
   10.5623  -17.3969   23.9392 C   0  0  0  0  0  0  0  0  0  0  0  0
   11.0422  -17.7391   22.7309 N   0  0  0  0  0  0  0  0  0  0  0  0
   12.3675  -17.9227   22.8611 C   0  0  0  0  0  0  0  0  0  0  0  0
   12.7207  -17.7010   24.1280 N   0  0  0  0  0  0  0  0  0  0  0  0
   10.0522  -16.5737   28.1568 C   0  0  0  0  0  0  0  0  0  0  0  0
   10.1622  -17.6457   29.0369 O   0  0  0  0  0  0  0  0  0  0  0  0
    9.8613  -15.4460   28.6478 O   0  0  0  0  0  0  0  0  0  0  0  0
  2  3  1  0
  2  1  1  6
  4  3  1  0
  5  4  1  0
  6  7  1  0
  6  5  1  0
  8  2  1  0
  8  9  2  0
 10  8  1  0
 11 10  1  0
 11 12  1  1
 12 13  1  0
 14 11  1  0
 15 14  2  0
 16 14  1  0
 17 24  1  0
 17 16  1  0
 17 18  1  1
 19 23  1  0
 19 18  1  0
 20 19  2  0
 21 20  1  0
 21 22  1  0
 22 23  2  0
 24 25  1  0
 26 24  2  0
M  END
$$$$
