KCH.pdb
     RDKit          3D

 26 26  0  0  1  0  0  0  0  0999 V2000
    9.5718  -16.8636   18.5658 N   0  0  0  0  0  0  0  0  0  0  0  0
    8.8660  -17.4322   19.7005 C   0  0  1  0  0  0  0  0  0  0  0  0
    8.8093  -18.9018   19.6009 C   0  0  0  0  0  0  0  0  0  0  0  0
    8.0475  -19.5502   18.5230 C   0  0  0  0  0  0  0  0  0  0  0  0
    7.6017  -18.8618   17.3217 C   0  0  0  0  0  0  0  0  0  0  0  0
    6.9300  -19.6183   16.2419 C   0  0  0  0  0  0  0  0  0  0  0  0
    6.6171  -18.7185   15.1081 N   0  0  0  0  0  0  0  0  0  0  0  0
    9.6269  -17.0380   20.9697 C   0  0  0  0  0  0  0  0  0  0  0  0
   10.8227  -17.3625   21.1404 O   0  0  0  0  0  0  0  0  0  0  0  0
    8.9938  -16.2999   21.9732 N   0  0  0  0  0  0  0  0  0  0  0  0
    9.6609  -15.8481   23.1578 C   0  0  1  0  0  0  0  0  0  0  0  0
    9.1751  -14.5307   23.6754 C   0  0  0  0  0  0  0  0  0  0  0  0
    7.3652  -14.4846   23.7986 S   0  0  0  0  0  0  0  0  0  0  0  0
    9.4950  -16.8556   24.2231 C   0  0  0  0  0  0  0  0  0  0  0  0
    8.3712  -17.3572   24.5222 O   0  0  0  0  0  0  0  0  0  0  0  0
   10.6113  -17.3097   24.9680 N   0  0  0  0  0  0  0  0  0  0  0  0
   10.4837  -18.3303   25.9969 C   0  0  1  0  0  0  0  0  0  0  0  0
   11.5668  -19.3459   25.7423 C   0  0  0  0  0  0  0  0  0  0  0  0
   11.2969  -20.1378   24.5294 C   0  0  0  0  0  0  0  0  0  0  0  0
   10.1738  -20.0282   23.7089 C   0  0  0  0  0  0  0  0  0  0  0  0
   10.3042  -20.9207   22.7119 N   0  0  0  0  0  0  0  0  0  0  0  0
   11.4676  -21.5674   22.8999 C   0  0  0  0  0  0  0  0  0  0  0  0
   12.0632  -21.0936   23.9953 N   0  0  0  0  0  0  0  0  0  0  0  0
   10.5979  -17.7454   27.3444 C   0  0  0  0  0  0  0  0  0  0  0  0
   10.3478  -18.4686   28.5063 O   0  0  0  0  0  0  0  0  0  0  0  0
   10.9317  -16.5530   27.4719 O   0  0  0  0  0  0  0  0  0  0  0  0
  2  3  1  0
  2  1  1  6
  4  3  1  0
  5  4  1  0
  6  7  1  0
  6  5  1  0
  8  2  1  0
  8  9  2  0
 10  8  1  0
 11 10  1  0
 11 12  1  1
 12 13  1  0
 14 11  1  0
 15 14  2  0
 16 14  1  0
 17 24  1  0
 17 16  1  0
 17 18  1  6
 19 23  1  0
 19 18  1  0
 20 19  2  0
 21 20  1  0
 21 22  1  0
 22 23  2  0
 24 25  1  0
 26 24  2  0
M  END
$$$$
