KCH.pdb
     RDKit          3D

 26 26  0  0  1  0  0  0  0  0999 V2000
    7.4972  -12.7592   17.4253 N   0  0  0  0  0  0  0  0  0  0  0  0
    7.8380  -14.0395   18.0200 C   0  0  1  0  0  0  0  0  0  0  0  0
    8.7238  -14.8124   17.1308 C   0  0  0  0  0  0  0  0  0  0  0  0
    8.2520  -15.2655   15.8137 C   0  0  0  0  0  0  0  0  0  0  0  0
    9.0526  -16.0655   14.9000 C   0  0  0  0  0  0  0  0  0  0  0  0
    8.4319  -16.6504   13.6908 C   0  0  0  0  0  0  0  0  0  0  0  0
    9.3945  -17.5427   13.0050 N   0  0  0  0  0  0  0  0  0  0  0  0
    8.5604  -13.7635   19.3419 C   0  0  0  0  0  0  0  0  0  0  0  0
    9.3630  -12.8116   19.4600 O   0  0  0  0  0  0  0  0  0  0  0  0
    8.3349  -14.5784   20.4544 N   0  0  0  0  0  0  0  0  0  0  0  0
    8.9376  -14.3485   21.7336 C   0  0  1  0  0  0  0  0  0  0  0  0
    7.9655  -14.0299   22.8257 C   0  0  0  0  0  0  0  0  0  0  0  0
    6.4552  -15.0269   22.6913 S   0  0  0  0  0  0  0  0  0  0  0  0
    9.7067  -15.5438   22.1302 C   0  0  0  0  0  0  0  0  0  0  0  0
    9.3070  -16.7231   21.8988 O   0  0  0  0  0  0  0  0  0  0  0  0
   10.9486  -15.4143   22.7996 N   0  0  0  0  0  0  0  0  0  0  0  0
   11.6484  -16.5657   23.3483 C   0  0  1  0  0  0  0  0  0  0  0  0
   13.1040  -16.1891   23.4420 C   0  0  0  0  0  0  0  0  0  0  0  0
   13.7224  -16.0688   22.1099 C   0  0  0  0  0  0  0  0  0  0  0  0
   13.0618  -16.1667   20.8849 C   0  0  0  0  0  0  0  0  0  0  0  0
   13.9741  -16.0007   19.9114 N   0  0  0  0  0  0  0  0  0  0  0  0
   15.1647  -15.8056   20.5042 C   0  0  0  0  0  0  0  0  0  0  0  0
   15.0098  -15.8472   21.8283 N   0  0  0  0  0  0  0  0  0  0  0  0
   11.1027  -16.9435   24.6638 C   0  0  0  0  0  0  0  0  0  0  0  0
   11.5123  -18.0797   25.3543 O   0  0  0  0  0  0  0  0  0  0  0  0
   10.2360  -16.2284   25.1993 O   0  0  0  0  0  0  0  0  0  0  0  0
  2  3  1  0
  2  1  1  6
  4  3  1  0
  5  4  1  0
  6  7  1  0
  6  5  1  0
  8  2  1  0
  8  9  2  0
 10  8  1  0
 11 10  1  0
 11 12  1  1
 12 13  1  0
 14 11  1  0
 15 14  2  0
 16 14  1  0
 17 24  1  0
 17 16  1  0
 17 18  1  1
 19 23  1  0
 19 18  1  0
 20 19  2  0
 21 20  1  0
 21 22  1  0
 22 23  2  0
 24 25  1  0
 26 24  2  0
M  END
$$$$
