KCH.pdb
     RDKit          3D

 26 26  0  0  1  0  0  0  0  0999 V2000
    8.3756  -15.2014   20.3338 N   0  0  0  0  0  0  0  0  0  0  0  0
    7.3558  -15.0093   21.3498 C   0  0  1  0  0  0  0  0  0  0  0  0
    6.5135  -16.2117   21.4822 C   0  0  0  0  0  0  0  0  0  0  0  0
    7.1205  -17.5266   21.7375 C   0  0  0  0  0  0  0  0  0  0  0  0
    6.3541  -18.7514   21.9058 C   0  0  0  0  0  0  0  0  0  0  0  0
    7.0499  -20.0265   22.1874 C   0  0  0  0  0  0  0  0  0  0  0  0
    6.0633  -21.1156   22.3703 N   0  0  0  0  0  0  0  0  0  0  0  0
    8.0658  -14.7374   22.6793 C   0  0  0  0  0  0  0  0  0  0  0  0
    9.2663  -15.0424   22.8516 O   0  0  0  0  0  0  0  0  0  0  0  0
    7.3790  -14.1368   23.7376 N   0  0  0  0  0  0  0  0  0  0  0  0
    7.9943  -13.8065   24.9885 C   0  0  1  0  0  0  0  0  0  0  0  0
    7.1579  -12.9416   25.8784 C   0  0  0  0  0  0  0  0  0  0  0  0
    8.0266  -12.5225   27.4155 S   0  0  0  0  0  0  0  0  0  0  0  0
    8.3140  -15.0497   25.7161 C   0  0  0  0  0  0  0  0  0  0  0  0
    7.4940  -16.0086   25.8268 O   0  0  0  0  0  0  0  0  0  0  0  0
    9.5784  -15.2215   26.3319 N   0  0  0  0  0  0  0  0  0  0  0  0
    9.9037  -16.4156   27.0967 C   0  0  1  0  0  0  0  0  0  0  0  0
   11.1683  -16.9824   26.5060 C   0  0  0  0  0  0  0  0  0  0  0  0
   10.8823  -18.0228   25.5026 C   0  0  0  0  0  0  0  0  0  0  0  0
    9.6189  -18.4934   25.1433 C   0  0  0  0  0  0  0  0  0  0  0  0
    9.7845  -19.4359   24.1990 N   0  0  0  0  0  0  0  0  0  0  0  0
   11.1045  -19.5527   23.9735 C   0  0  0  0  0  0  0  0  0  0  0  0
   11.7630  -18.7003   24.7601 N   0  0  0  0  0  0  0  0  0  0  0  0
   10.0686  -16.1033   28.5272 C   0  0  0  0  0  0  0  0  0  0  0  0
   10.3469  -17.0727   29.4855 O   0  0  0  0  0  0  0  0  0  0  0  0
    9.9582  -14.9265   28.9173 O   0  0  0  0  0  0  0  0  0  0  0  0
  2  3  1  0
  2  1  1  6
  4  3  1  0
  5  4  1  0
  6  7  1  0
  6  5  1  0
  8  2  1  0
  8  9  2  0
 10  8  1  0
 11 10  1  0
 11 12  1  1
 12 13  1  0
 14 11  1  0
 15 14  2  0
 16 14  1  0
 17 24  1  0
 17 16  1  0
 17 18  1  6
 19 23  1  0
 19 18  1  0
 20 19  2  0
 21 20  1  0
 21 22  1  0
 22 23  2  0
 24 25  1  0
 26 24  2  0
M  END
$$$$
