KCH.pdb
     RDKit          3D

 26 26  0  0  1  0  0  0  0  0999 V2000
    8.2329  -14.2661   20.0199 N   0  0  0  0  0  0  0  0  0  0  0  0
    7.3356  -14.4864   21.1405 C   0  0  1  0  0  0  0  0  0  0  0  0
    6.6812  -15.8032   21.0381 C   0  0  0  0  0  0  0  0  0  0  0  0
    7.2078  -16.8322   20.1290 C   0  0  0  0  0  0  0  0  0  0  0  0
    6.4520  -17.3943   19.0205 C   0  0  0  0  0  0  0  0  0  0  0  0
    7.0752  -18.4048   18.1375 C   0  0  0  0  0  0  0  0  0  0  0  0
    6.6085  -19.7610   18.5066 N   0  0  0  0  0  0  0  0  0  0  0  0
    8.1688  -14.4315   22.4243 C   0  0  0  0  0  0  0  0  0  0  0  0
    9.3635  -14.8009   22.4426 O   0  0  0  0  0  0  0  0  0  0  0  0
    7.6048  -13.9625   23.6136 N   0  0  0  0  0  0  0  0  0  0  0  0
    8.2175  -14.1352   24.8970 C   0  0  1  0  0  0  0  0  0  0  0  0
    7.5451  -13.3905   26.0073 C   0  0  0  0  0  0  0  0  0  0  0  0
    5.7378  -13.4456   25.8536 S   0  0  0  0  0  0  0  0  0  0  0  0
    8.2296  -15.5702   25.2406 C   0  0  0  0  0  0  0  0  0  0  0  0
    7.7202  -16.4574   24.4940 O   0  0  0  0  0  0  0  0  0  0  0  0
    8.8247  -16.0195   26.4452 N   0  0  0  0  0  0  0  0  0  0  0  0
    9.9158  -16.9818   26.4500 C   0  0  1  0  0  0  0  0  0  0  0  0
   11.0113  -16.4053   25.5916 C   0  0  0  0  0  0  0  0  0  0  0  0
   11.1169  -17.1060   24.2997 C   0  0  0  0  0  0  0  0  0  0  0  0
   10.3069  -18.1555   23.8650 C   0  0  0  0  0  0  0  0  0  0  0  0
   10.7238  -18.5159   22.6387 N   0  0  0  0  0  0  0  0  0  0  0  0
   11.7584  -17.7211   22.3152 C   0  0  0  0  0  0  0  0  0  0  0  0
   11.9928  -16.8730   23.3176 N   0  0  0  0  0  0  0  0  0  0  0  0
   10.3867  -17.2463   27.8209 C   0  0  0  0  0  0  0  0  0  0  0  0
   10.5388  -18.5307   28.3335 O   0  0  0  0  0  0  0  0  0  0  0  0
   10.6666  -16.2929   28.5706 O   0  0  0  0  0  0  0  0  0  0  0  0
  2  3  1  0
  2  1  1  6
  4  3  1  0
  5  4  1  0
  6  7  1  0
  6  5  1  0
  8  2  1  0
  8  9  2  0
 10  8  1  0
 11 10  1  0
 11 12  1  1
 12 13  1  0
 14 11  1  0
 15 14  2  0
 16 14  1  0
 17 24  1  0
 17 16  1  0
 17 18  1  6
 19 23  1  0
 19 18  1  0
 20 19  2  0
 21 20  1  0
 21 22  1  0
 22 23  2  0
 24 25  1  0
 26 24  2  0
M  END
$$$$
