KCH.pdb
     RDKit          3D

 26 26  0  0  1  0  0  0  0  0999 V2000
    6.6775  -15.1127   21.3264 N   0  0  0  0  0  0  0  0  0  0  0  0
    8.1241  -14.9861   21.3035 C   0  0  1  0  0  0  0  0  0  0  0  0
    8.5412  -13.8913   20.4090 C   0  0  0  0  0  0  0  0  0  0  0  0
    8.4993  -14.0604   18.9488 C   0  0  0  0  0  0  0  0  0  0  0  0
    7.6468  -13.2763   18.0688 C   0  0  0  0  0  0  0  0  0  0  0  0
    7.9110  -13.2509   16.6131 C   0  0  0  0  0  0  0  0  0  0  0  0
    7.9088  -14.6290   16.0709 N   0  0  0  0  0  0  0  0  0  0  0  0
    8.5893  -14.6816   22.7305 C   0  0  0  0  0  0  0  0  0  0  0  0
    9.8041  -14.6140   23.0198 O   0  0  0  0  0  0  0  0  0  0  0  0
    7.6558  -14.4709   23.7486 N   0  0  0  0  0  0  0  0  0  0  0  0
    8.0137  -14.3378   25.1294 C   0  0  1  0  0  0  0  0  0  0  0  0
    7.1784  -13.3578   25.8919 C   0  0  0  0  0  0  0  0  0  0  0  0
    5.4069  -13.6061   25.5867 S   0  0  0  0  0  0  0  0  0  0  0  0
    7.9044  -15.6534   25.7888 C   0  0  0  0  0  0  0  0  0  0  0  0
    6.8707  -16.3799   25.7003 O   0  0  0  0  0  0  0  0  0  0  0  0
    8.9752  -16.1647   26.5628 N   0  0  0  0  0  0  0  0  0  0  0  0
    9.1933  -17.5943   26.7216 C   0  0  1  0  0  0  0  0  0  0  0  0
    9.4480  -18.1534   25.3461 C   0  0  0  0  0  0  0  0  0  0  0  0
    8.1917  -18.4910   24.6541 C   0  0  0  0  0  0  0  0  0  0  0  0
    6.9056  -18.3781   25.1831 C   0  0  0  0  0  0  0  0  0  0  0  0
    6.0364  -18.7834   24.2409 N   0  0  0  0  0  0  0  0  0  0  0  0
    6.7513  -19.1380   23.1592 C   0  0  0  0  0  0  0  0  0  0  0  0
    8.0491  -18.9608   23.4111 N   0  0  0  0  0  0  0  0  0  0  0  0
   10.3210  -17.8632   27.6311 C   0  0  0  0  0  0  0  0  0  0  0  0
   11.2775  -16.9056   27.9532 O   0  0  0  0  0  0  0  0  0  0  0  0
   10.4423  -18.9903   28.1451 O   0  0  0  0  0  0  0  0  0  0  0  0
  2  3  1  0
  2  1  1  1
  4  3  1  0
  5  4  1  0
  6  7  1  0
  6  5  1  0
  8  2  1  0
  8  9  2  0
 10  8  1  0
 11 10  1  0
 11 12  1  1
 12 13  1  0
 14 11  1  0
 15 14  2  0
 16 14  1  0
 17 24  1  0
 17 16  1  0
 17 18  1  6
 19 23  1  0
 19 18  1  0
 20 19  2  0
 21 20  1  0
 21 22  1  0
 22 23  2  0
 24 25  1  0
 26 24  2  0
M  END
$$$$
