KCH.pdb
     RDKit          3D

 26 26  0  0  1  0  0  0  0  0999 V2000
   13.0951  -13.8545   18.4645 N   0  0  0  0  0  0  0  0  0  0  0  0
   11.8096  -14.4194   18.8355 C   0  0  1  0  0  0  0  0  0  0  0  0
   11.4719  -15.5667   17.9740 C   0  0  0  0  0  0  0  0  0  0  0  0
   12.4498  -16.6395   17.7386 C   0  0  0  0  0  0  0  0  0  0  0  0
   12.2331  -17.7417   16.8144 C   0  0  0  0  0  0  0  0  0  0  0  0
   13.2233  -18.8376   16.7252 C   0  0  0  0  0  0  0  0  0  0  0  0
   12.7641  -19.8617   15.7591 N   0  0  0  0  0  0  0  0  0  0  0  0
   11.9073  -14.8878   20.2903 C   0  0  0  0  0  0  0  0  0  0  0  0
   13.0136  -15.0886   20.8379 O   0  0  0  0  0  0  0  0  0  0  0  0
   10.7498  -15.1024   21.0432 N   0  0  0  0  0  0  0  0  0  0  0  0
   10.7668  -15.4130   22.4416 C   0  0  1  0  0  0  0  0  0  0  0  0
    9.5497  -14.9650   23.1882 C   0  0  0  0  0  0  0  0  0  0  0  0
    9.6606  -15.3667   24.9544 S   0  0  0  0  0  0  0  0  0  0  0  0
   10.9067  -16.8719   22.6137 C   0  0  0  0  0  0  0  0  0  0  0  0
   10.6593  -17.6977   21.6859 O   0  0  0  0  0  0  0  0  0  0  0  0
   11.3325  -17.4157   23.8507 N   0  0  0  0  0  0  0  0  0  0  0  0
   12.0135  -18.6988   23.9312 C   0  0  1  0  0  0  0  0  0  0  0  0
   13.2944  -18.5640   23.1498 C   0  0  0  0  0  0  0  0  0  0  0  0
   13.1835  -19.1731   21.8127 C   0  0  0  0  0  0  0  0  0  0  0  0
   12.0230  -19.6952   21.2407 C   0  0  0  0  0  0  0  0  0  0  0  0
   12.3383  -20.1547   20.0172 N   0  0  0  0  0  0  0  0  0  0  0  0
   13.6499  -19.9291   19.8280 C   0  0  0  0  0  0  0  0  0  0  0  0
   14.1561  -19.3378   20.9111 N   0  0  0  0  0  0  0  0  0  0  0  0
   12.2726  -19.0774   25.3314 C   0  0  0  0  0  0  0  0  0  0  0  0
   12.7869  -20.3174   25.6967 O   0  0  0  0  0  0  0  0  0  0  0  0
   12.0275  -18.2670   26.2439 O   0  0  0  0  0  0  0  0  0  0  0  0
  2  3  1  0
  2  1  1  6
  4  3  1  0
  5  4  1  0
  6  7  1  0
  6  5  1  0
  8  2  1  0
  8  9  2  0
 10  8  1  0
 11 10  1  0
 11 12  1  6
 12 13  1  0
 14 11  1  0
 15 14  2  0
 16 14  1  0
 17 24  1  0
 17 16  1  0
 17 18  1  6
 19 23  1  0
 19 18  1  0
 20 19  2  0
 21 20  1  0
 21 22  1  0
 22 23  2  0
 24 25  1  0
 26 24  2  0
M  END
$$$$
