QIL.pdb
     RDKit          3D

 26 25  0  0  1  0  0  0  0  0999 V2000
   11.9882  -19.1547   17.2968 N   0  0  0  0  0  0  0  0  0  0  0  0
   11.2658  -20.1421   18.0602 C   0  0  0  0  0  0  0  0  0  0  0  0
   10.8230  -21.1078   17.4205 O   0  0  0  0  0  0  0  0  0  0  0  0
   11.1383  -19.8928   19.4977 C   0  0  0  0  0  0  0  0  0  0  0  0
   10.8745  -18.4603   19.8340 C   0  0  0  0  0  0  0  0  0  0  0  0
   10.1548  -18.2876   21.1280 C   0  0  2  0  0  0  0  0  0  0  0  0
    8.7573  -18.6499   21.0589 N   0  0  0  0  0  0  0  0  0  0  0  0
   10.2255  -16.8247   21.4797 C   0  0  0  0  0  0  0  0  0  0  0  0
   11.3303  -16.2216   21.5341 O   0  0  0  0  0  0  0  0  0  0  0  0
    6.8264  -13.1425   19.3494 C   0  0  0  0  0  0  0  0  0  0  0  0
    8.0489  -13.7726   19.9463 C   0  0  0  0  0  0  0  0  0  0  0  0
    7.9254  -13.9127   21.4488 C   0  0  2  0  0  0  0  0  0  0  0  0
    7.6386  -12.5861   22.1050 C   0  0  0  0  0  0  0  0  0  0  0  0
    9.0747  -14.6484   22.0549 C   0  0  2  0  0  0  0  0  0  0  0  0
    9.0644  -16.0617   21.7640 N   0  0  0  0  0  0  0  0  0  0  0  0
    8.9908  -14.4711   23.5361 C   0  0  0  0  0  0  0  0  0  0  0  0
    9.1208  -13.3272   24.0610 O   0  0  0  0  0  0  0  0  0  0  0  0
    5.8536  -12.6708   26.0312 C   0  0  0  0  0  0  0  0  0  0  0  0
    7.2506  -13.2502   25.8333 C   0  0  1  0  0  0  0  0  0  0  0  0
    8.1033  -12.6165   26.9438 C   0  0  0  0  0  0  0  0  0  0  0  0
    7.2433  -14.7145   26.0911 C   0  0  0  0  0  0  0  0  0  0  0  0
    8.5561  -15.3971   25.8045 C   0  0  2  0  0  0  0  0  0  0  0  0
    8.7630  -15.5858   24.3855 N   0  0  0  0  0  0  0  0  0  0  0  0
    8.7251  -16.6624   26.5135 C   0  0  0  0  0  0  0  0  0  0  0  0
    8.5591  -16.6944   27.7582 O   0  0  0  0  0  0  0  0  0  0  0  0
    9.0630  -17.8563   25.8954 O   0  0  0  0  0  0  0  0  0  0  0  0
  2  1  1  0
  3  2  2  0
  4  2  1  0
  5  4  1  0
  6  7  1  6
  6  5  1  0
  8  6  1  0
  9  8  2  0
 10 11  1  0
 12 14  1  0
 12 11  1  0
 12 13  1  1
 14 15  1  1
 15  8  1  0
 16 17  2  0
 16 14  1  0
 19 20  1  1
 19 18  1  0
 21 19  1  0
 22 21  1  6
 22 23  1  0
 23 16  1  0
 24 22  1  0
 25 24  2  0
 26 24  1  0
M  END
$$$$
