QIL.pdb
     RDKit          3D

 26 25  0  0  1  0  0  0  0  0999 V2000
   11.3825  -20.0217   22.4796 N   0  0  0  0  0  0  0  0  0  0  0  0
   11.0435  -20.3360   21.1137 C   0  0  0  0  0  0  0  0  0  0  0  0
   10.8993  -21.5396   20.8517 O   0  0  0  0  0  0  0  0  0  0  0  0
   10.9086  -19.2029   20.1957 C   0  0  0  0  0  0  0  0  0  0  0  0
   11.1809  -17.8800   20.8366 C   0  0  0  0  0  0  0  0  0  0  0  0
   10.0055  -16.9635   20.8054 C   0  0  2  0  0  0  0  0  0  0  0  0
    9.9952  -16.0841   19.6585 N   0  0  0  0  0  0  0  0  0  0  0  0
   10.0877  -16.0996   22.0365 C   0  0  0  0  0  0  0  0  0  0  0  0
   11.1261  -15.4353   22.2967 O   0  0  0  0  0  0  0  0  0  0  0  0
    6.5359  -13.0865   26.0825 C   0  0  0  0  0  0  0  0  0  0  0  0
    7.8516  -13.7362   25.7745 C   0  0  0  0  0  0  0  0  0  0  0  0
    7.7470  -14.6687   24.5862 C   0  0  2  0  0  0  0  0  0  0  0  0
    6.6745  -15.7078   24.7930 C   0  0  0  0  0  0  0  0  0  0  0  0
    9.0672  -15.2378   24.1831 C   0  0  2  0  0  0  0  0  0  0  0  0
    9.0118  -15.9921   22.9541 N   0  0  0  0  0  0  0  0  0  0  0  0
    9.5157  -16.1512   25.2772 C   0  0  0  0  0  0  0  0  0  0  0  0
    9.5972  -17.3996   25.0876 O   0  0  0  0  0  0  0  0  0  0  0  0
   10.2554  -13.8180   30.2964 C   0  0  0  0  0  0  0  0  0  0  0  0
   10.1043  -14.4068   28.8975 C   0  0  1  0  0  0  0  0  0  0  0  0
   10.9092  -13.4691   27.9840 C   0  0  0  0  0  0  0  0  0  0  0  0
   10.7645  -15.7369   28.8233 C   0  0  0  0  0  0  0  0  0  0  0  0
   10.5319  -16.4686   27.5263 C   0  0  2  0  0  0  0  0  0  0  0  0
    9.8602  -15.6347   26.5540 N   0  0  0  0  0  0  0  0  0  0  0  0
    9.8197  -17.7332   27.6872 C   0  0  0  0  0  0  0  0  0  0  0  0
    8.6575  -17.8452   27.2242 O   0  0  0  0  0  0  0  0  0  0  0  0
   10.3484  -18.8424   28.3288 O   0  0  0  0  0  0  0  0  0  0  0  0
  2  1  1  0
  3  2  2  0
  4  2  1  0
  5  4  1  0
  6  7  1  6
  6  5  1  0
  8  6  1  0
  9  8  2  0
 10 11  1  0
 12 14  1  0
 12 11  1  0
 12 13  1  1
 14 15  1  6
 15  8  1  0
 16 17  2  0
 16 14  1  0
 19 20  1  6
 19 18  1  0
 21 19  1  0
 22 21  1  1
 22 23  1  0
 23 16  1  0
 24 22  1  0
 25 24  2  0
 26 24  1  0
M  END
$$$$
