QIL.pdb
     RDKit          3D

 26 25  0  0  1  0  0  0  0  0999 V2000
   10.3060  -21.5915   22.4707 N   0  0  0  0  0  0  0  0  0  0  0  0
   11.5196  -20.8128   22.4855 C   0  0  0  0  0  0  0  0  0  0  0  0
   12.3986  -21.1895   23.2751 O   0  0  0  0  0  0  0  0  0  0  0  0
   11.5755  -19.6709   21.5702 C   0  0  0  0  0  0  0  0  0  0  0  0
   10.3373  -19.5026   20.7496 C   0  0  0  0  0  0  0  0  0  0  0  0
   10.3919  -18.3175   19.8469 C   0  0  2  0  0  0  0  0  0  0  0  0
   11.5734  -18.2852   19.0149 N   0  0  0  0  0  0  0  0  0  0  0  0
   10.4250  -17.0950   20.7262 C   0  0  0  0  0  0  0  0  0  0  0  0
   11.5181  -16.5848   21.0897 O   0  0  0  0  0  0  0  0  0  0  0  0
    6.7691  -13.0355   20.1217 C   0  0  0  0  0  0  0  0  0  0  0  0
    8.0285  -13.8056   20.3831 C   0  0  0  0  0  0  0  0  0  0  0  0
    8.0320  -14.4122   21.7704 C   0  0  2  0  0  0  0  0  0  0  0  0
    7.8202  -13.3630   22.8320 C   0  0  0  0  0  0  0  0  0  0  0  0
    9.2190  -15.2846   22.0144 C   0  0  2  0  0  0  0  0  0  0  0  0
    9.2401  -16.4643   21.1838 N   0  0  0  0  0  0  0  0  0  0  0  0
    9.1736  -15.7154   23.4444 C   0  0  0  0  0  0  0  0  0  0  0  0
    8.4524  -16.6902   23.8057 O   0  0  0  0  0  0  0  0  0  0  0  0
   10.9450  -15.0421   28.8095 C   0  0  0  0  0  0  0  0  0  0  0  0
    9.6688  -14.5135   28.1629 C   0  0  1  0  0  0  0  0  0  0  0  0
    9.4006  -13.1689   28.8568 C   0  0  0  0  0  0  0  0  0  0  0  0
    9.9061  -14.2073   26.7274 C   0  0  0  0  0  0  0  0  0  0  0  0
    9.8417  -15.4105   25.8219 C   0  0  2  0  0  0  0  0  0  0  0  0
    9.9410  -15.0375   24.4280 N   0  0  0  0  0  0  0  0  0  0  0  0
    8.6636  -16.2450   26.0402 C   0  0  0  0  0  0  0  0  0  0  0  0
    7.5365  -15.8191   25.6852 O   0  0  0  0  0  0  0  0  0  0  0  0
    8.7033  -17.5016   26.6243 O   0  0  0  0  0  0  0  0  0  0  0  0
  2  1  1  0
  3  2  2  0
  4  2  1  0
  5  4  1  0
  6  7  1  1
  6  5  1  0
  8  6  1  0
  9  8  2  0
 10 11  1  0
 12 14  1  0
 12 11  1  0
 12 13  1  1
 14 15  1  6
 15  8  1  0
 16 17  2  0
 16 14  1  0
 19 20  1  1
 19 18  1  0
 21 19  1  0
 22 21  1  1
 22 23  1  0
 23 16  1  0
 24 22  1  0
 25 24  2  0
 26 24  1  0
M  END
$$$$
