QIL.pdb
     RDKit          3D

 26 25  0  0  1  0  0  0  0  0999 V2000
    7.7041  -20.7831   20.7963 N   0  0  0  0  0  0  0  0  0  0  0  0
    6.2847  -20.7720   21.0508 C   0  0  0  0  0  0  0  0  0  0  0  0
    5.6946  -21.8509   20.8913 O   0  0  0  0  0  0  0  0  0  0  0  0
    5.7047  -19.4931   21.4668 C   0  0  0  0  0  0  0  0  0  0  0  0
    6.7184  -18.4102   21.6525 C   0  0  0  0  0  0  0  0  0  0  0  0
    7.0780  -18.1863   23.0818 C   0  0  2  0  0  0  0  0  0  0  0  0
    5.9285  -18.0273   23.9434 N   0  0  0  0  0  0  0  0  0  0  0  0
    7.8684  -16.9056   23.1419 C   0  0  0  0  0  0  0  0  0  0  0  0
    8.7594  -16.6505   22.2884 O   0  0  0  0  0  0  0  0  0  0  0  0
    5.6215  -12.5451   25.5880 C   0  0  0  0  0  0  0  0  0  0  0  0
    6.3951  -13.3767   24.6094 C   0  0  0  0  0  0  0  0  0  0  0  0
    7.7875  -13.6839   25.1188 C   0  0  2  0  0  0  0  0  0  0  0  0
    8.6090  -12.4289   25.2706 C   0  0  0  0  0  0  0  0  0  0  0  0
    8.4655  -14.7557   24.3307 C   0  0  2  0  0  0  0  0  0  0  0  0
    7.6512  -15.9334   24.1513 N   0  0  0  0  0  0  0  0  0  0  0  0
    9.7018  -15.1459   25.0736 C   0  0  0  0  0  0  0  0  0  0  0  0
   10.8240  -14.6436   24.7748 O   0  0  0  0  0  0  0  0  0  0  0  0
    9.9486  -14.2492   30.0021 C   0  0  0  0  0  0  0  0  0  0  0  0
   10.1599  -14.5633   28.5245 C   0  0  1  0  0  0  0  0  0  0  0  0
   11.3127  -13.6467   28.0856 C   0  0  0  0  0  0  0  0  0  0  0  0
   10.6442  -15.9591   28.3578 C   0  0  0  0  0  0  0  0  0  0  0  0
   10.8164  -16.3841   26.9220 C   0  0  2  0  0  0  0  0  0  0  0  0
    9.6410  -16.0904   26.1320 N   0  0  0  0  0  0  0  0  0  0  0  0
   11.1928  -17.7864   26.7677 C   0  0  0  0  0  0  0  0  0  0  0  0
   12.1980  -18.2224   27.3820 O   0  0  0  0  0  0  0  0  0  0  0  0
   10.5032  -18.6896   25.9737 O   0  0  0  0  0  0  0  0  0  0  0  0
  2  1  1  0
  3  2  2  0
  4  2  1  0
  5  4  1  0
  6  7  1  1
  6  5  1  0
  8  6  1  0
  9  8  2  0
 10 11  1  0
 12 14  1  0
 12 11  1  0
 12 13  1  6
 14 15  1  1
 15  8  1  0
 16 17  2  0
 16 14  1  0
 19 20  1  1
 19 18  1  0
 21 19  1  0
 22 21  1  1
 22 23  1  0
 23 16  1  0
 24 22  1  0
 25 24  2  0
 26 24  1  0
M  END
$$$$
