QIL.pdb
     RDKit          3D

 26 25  0  0  1  0  0  0  0  0999 V2000
   12.1363  -19.3950   17.7053 N   0  0  0  0  0  0  0  0  0  0  0  0
   11.3951  -20.5089   18.2432 C   0  0  0  0  0  0  0  0  0  0  0  0
   11.7186  -21.6307   17.8252 O   0  0  0  0  0  0  0  0  0  0  0  0
   10.3494  -20.1896   19.2177 C   0  0  0  0  0  0  0  0  0  0  0  0
   10.1860  -18.7233   19.4587 C   0  0  0  0  0  0  0  0  0  0  0  0
    9.8778  -18.3964   20.8802 C   0  0  2  0  0  0  0  0  0  0  0  0
    8.5090  -18.6782   21.2489 N   0  0  0  0  0  0  0  0  0  0  0  0
   10.0955  -16.9156   21.0489 C   0  0  0  0  0  0  0  0  0  0  0  0
   11.2000  -16.3834   20.7589 O   0  0  0  0  0  0  0  0  0  0  0  0
    6.5480  -13.3839   19.1970 C   0  0  0  0  0  0  0  0  0  0  0  0
    7.8387  -13.9986   19.6487 C   0  0  0  0  0  0  0  0  0  0  0  0
    8.0169  -13.8798   21.1476 C   0  0  2  0  0  0  0  0  0  0  0  0
    7.9643  -12.4419   21.5974 C   0  0  0  0  0  0  0  0  0  0  0  0
    9.2121  -14.6232   21.6460 C   0  0  2  0  0  0  0  0  0  0  0  0
    9.0788  -16.0559   21.5374 N   0  0  0  0  0  0  0  0  0  0  0  0
    9.3894  -14.2741   23.0880 C   0  0  0  0  0  0  0  0  0  0  0  0
    9.7223  -13.1040   23.4360 O   0  0  0  0  0  0  0  0  0  0  0  0
    8.8199  -12.4100   27.4866 C   0  0  0  0  0  0  0  0  0  0  0  0
    7.7077  -13.3373   27.0077 C   0  0  1  0  0  0  0  0  0  0  0  0
    6.4475  -12.4585   26.9709 C   0  0  0  0  0  0  0  0  0  0  0  0
    7.9621  -13.7683   25.6077 C   0  0  0  0  0  0  0  0  0  0  0  0
    8.9994  -14.8539   25.4762 C   0  0  2  0  0  0  0  0  0  0  0  0
    9.1872  -15.2510   24.0981 N   0  0  0  0  0  0  0  0  0  0  0  0
    8.7313  -16.0236   26.3081 C   0  0  0  0  0  0  0  0  0  0  0  0
    7.9577  -16.9158   25.8802 O   0  0  0  0  0  0  0  0  0  0  0  0
    9.2831  -16.2222   27.5642 O   0  0  0  0  0  0  0  0  0  0  0  0
  2  1  1  0
  3  2  2  0
  4  2  1  0
  5  4  1  0
  6  7  1  6
  6  5  1  0
  8  6  1  0
  9  8  2  0
 10 11  1  0
 12 14  1  0
 12 11  1  0
 12 13  1  6
 14 15  1  1
 15  8  1  0
 16 17  2  0
 16 14  1  0
 19 20  1  6
 19 18  1  0
 21 19  1  0
 22 21  1  6
 22 23  1  0
 23 16  1  0
 24 22  1  0
 25 24  2  0
 26 24  1  0
M  END
$$$$
