QIL.pdb
     RDKit          3D

 26 25  0  0  1  0  0  0  0  0999 V2000
    9.9234  -22.5198   21.3455 N   0  0  0  0  0  0  0  0  0  0  0  0
    9.3085  -21.9666   20.1642 C   0  0  0  0  0  0  0  0  0  0  0  0
    9.7509  -22.3726   19.0792 O   0  0  0  0  0  0  0  0  0  0  0  0
    8.2360  -20.9929   20.3800 C   0  0  0  0  0  0  0  0  0  0  0  0
    8.6348  -19.8507   21.2581 C   0  0  0  0  0  0  0  0  0  0  0  0
    7.7104  -18.6855   21.1558 C   0  0  2  0  0  0  0  0  0  0  0  0
    7.0416  -18.5956   19.8776 N   0  0  0  0  0  0  0  0  0  0  0  0
    8.5474  -17.4436   21.3162 C   0  0  0  0  0  0  0  0  0  0  0  0
    9.7774  -17.4485   21.0430 O   0  0  0  0  0  0  0  0  0  0  0  0
    6.9604  -12.7816   19.2812 C   0  0  0  0  0  0  0  0  0  0  0  0
    7.7732  -13.9269   19.8059 C   0  0  0  0  0  0  0  0  0  0  0  0
    7.9934  -13.8146   21.2997 C   0  0  2  0  0  0  0  0  0  0  0  0
    8.5886  -12.4802   21.6709 C   0  0  0  0  0  0  0  0  0  0  0  0
    8.7353  -14.9821   21.8617 C   0  0  2  0  0  0  0  0  0  0  0  0
    7.9986  -16.2201   21.7776 N   0  0  0  0  0  0  0  0  0  0  0  0
    9.0060  -14.6914   23.3021 C   0  0  0  0  0  0  0  0  0  0  0  0
    9.9349  -13.9020   23.6412 O   0  0  0  0  0  0  0  0  0  0  0  0
    5.4009  -12.5773   26.0970 C   0  0  0  0  0  0  0  0  0  0  0  0
    6.7866  -13.0119   25.6306 C   0  0  1  0  0  0  0  0  0  0  0  0
    7.7420  -11.9367   26.1717 C   0  0  0  0  0  0  0  0  0  0  0  0
    7.1745  -14.2890   26.2856 C   0  0  0  0  0  0  0  0  0  0  0  0
    8.4110  -14.9275   25.7067 C   0  0  2  0  0  0  0  0  0  0  0  0
    8.2242  -15.2969   24.3208 N   0  0  0  0  0  0  0  0  0  0  0  0
    8.8935  -16.0716   26.4751 C   0  0  0  0  0  0  0  0  0  0  0  0
    9.0131  -17.1853   25.9065 O   0  0  0  0  0  0  0  0  0  0  0  0
    9.2363  -16.0130   27.8170 O   0  0  0  0  0  0  0  0  0  0  0  0
  2  1  1  0
  3  2  2  0
  4  2  1  0
  5  4  1  0
  6  7  1  6
  6  5  1  0
  8  6  1  0
  9  8  2  0
 10 11  1  0
 12 14  1  0
 12 11  1  0
 12 13  1  6
 14 15  1  1
 15  8  1  0
 16 17  2  0
 16 14  1  0
 19 20  1  1
 19 18  1  0
 21 19  1  0
 22 21  1  1
 22 23  1  0
 23 16  1  0
 24 22  1  0
 25 24  2  0
 26 24  1  0
M  END
$$$$
