QIL.pdb
     RDKit          3D

 26 25  0  0  1  0  0  0  0  0999 V2000
   11.9766  -18.7665   19.2281 N   0  0  0  0  0  0  0  0  0  0  0  0
   10.6697  -18.9487   18.6464 C   0  0  0  0  0  0  0  0  0  0  0  0
   10.6420  -19.4759   17.5243 O   0  0  0  0  0  0  0  0  0  0  0  0
    9.5293  -18.4923   19.4438 C   0  0  0  0  0  0  0  0  0  0  0  0
    9.9175  -17.9304   20.7736 C   0  0  0  0  0  0  0  0  0  0  0  0
    8.7453  -17.6200   21.6408 C   0  0  2  0  0  0  0  0  0  0  0  0
    7.5228  -17.4119   20.8983 N   0  0  0  0  0  0  0  0  0  0  0  0
    9.0592  -16.3363   22.3633 C   0  0  0  0  0  0  0  0  0  0  0  0
   10.0650  -15.6442   22.0524 O   0  0  0  0  0  0  0  0  0  0  0  0
    6.2540  -12.1889   26.0793 C   0  0  0  0  0  0  0  0  0  0  0  0
    7.4830  -12.6914   25.3830 C   0  0  0  0  0  0  0  0  0  0  0  0
    7.2527  -14.0524   24.7608 C   0  0  2  0  0  0  0  0  0  0  0  0
    6.6039  -15.0021   25.7354 C   0  0  0  0  0  0  0  0  0  0  0  0
    8.4784  -14.6025   24.1093 C   0  0  2  0  0  0  0  0  0  0  0  0
    8.2470  -15.8480   23.4183 N   0  0  0  0  0  0  0  0  0  0  0  0
    9.4900  -14.8399   25.1831 C   0  0  0  0  0  0  0  0  0  0  0  0
   10.1719  -13.8842   25.6548 O   0  0  0  0  0  0  0  0  0  0  0  0
   10.4368  -13.1974   28.1553 C   0  0  0  0  0  0  0  0  0  0  0  0
   10.7574  -14.5893   28.6903 C   0  0  1  0  0  0  0  0  0  0  0  0
   10.3944  -14.5336   30.1825 C   0  0  0  0  0  0  0  0  0  0  0  0
    9.8564  -15.5991   28.0746 C   0  0  0  0  0  0  0  0  0  0  0  0
   10.4650  -16.3406   26.9121 C   0  0  2  0  0  0  0  0  0  0  0  0
    9.7061  -16.1459   25.6963 N   0  0  0  0  0  0  0  0  0  0  0  0
   10.6606  -17.7654   27.1643 C   0  0  0  0  0  0  0  0  0  0  0  0
    9.7124  -18.5613   26.9515 O   0  0  0  0  0  0  0  0  0  0  0  0
   11.8453  -18.3127   27.6321 O   0  0  0  0  0  0  0  0  0  0  0  0
  2  1  1  0
  3  2  2  0
  4  2  1  0
  5  4  1  0
  6  7  1  6
  6  5  1  0
  8  6  1  0
  9  8  2  0
 10 11  1  0
 12 14  1  0
 12 11  1  0
 12 13  1  1
 14 15  1  1
 15  8  1  0
 16 17  2  0
 16 14  1  0
 19 20  1  1
 19 18  1  0
 21 19  1  0
 22 21  1  1
 22 23  1  0
 23 16  1  0
 24 22  1  0
 25 24  2  0
 26 24  1  0
M  END
$$$$
