QIL.pdb
     RDKit          3D

 26 25  0  0  1  0  0  0  0  0999 V2000
   12.2529  -18.0070   19.3390 N   0  0  0  0  0  0  0  0  0  0  0  0
   11.2842  -19.0497   19.1066 C   0  0  0  0  0  0  0  0  0  0  0  0
   11.6955  -20.0489   18.4980 O   0  0  0  0  0  0  0  0  0  0  0  0
    9.9312  -18.8106   19.6137 C   0  0  0  0  0  0  0  0  0  0  0  0
    9.7551  -17.4604   20.2308 C   0  0  0  0  0  0  0  0  0  0  0  0
    8.8324  -17.4699   21.4017 C   0  0  2  0  0  0  0  0  0  0  0  0
    7.4396  -17.5830   21.0324 N   0  0  0  0  0  0  0  0  0  0  0  0
    9.0063  -16.1523   22.1104 C   0  0  0  0  0  0  0  0  0  0  0  0
    9.8864  -15.3282   21.7446 O   0  0  0  0  0  0  0  0  0  0  0  0
    5.8818  -12.4058   25.9886 C   0  0  0  0  0  0  0  0  0  0  0  0
    7.1350  -12.7470   25.2396 C   0  0  0  0  0  0  0  0  0  0  0  0
    7.0205  -14.0875   24.5450 C   0  0  2  0  0  0  0  0  0  0  0  0
    6.4219  -15.1307   25.4541 C   0  0  0  0  0  0  0  0  0  0  0  0
    8.2981  -14.5126   23.8998 C   0  0  2  0  0  0  0  0  0  0  0  0
    8.1968  -15.7777   23.2129 N   0  0  0  0  0  0  0  0  0  0  0  0
    9.3246  -14.6421   24.9778 C   0  0  0  0  0  0  0  0  0  0  0  0
    9.9128  -13.6215   25.4395 O   0  0  0  0  0  0  0  0  0  0  0  0
   11.7375  -14.2700   28.8804 C   0  0  0  0  0  0  0  0  0  0  0  0
   10.4906  -15.1194   29.1047 C   0  0  1  0  0  0  0  0  0  0  0  0
    9.6356  -14.3141   30.0956 C   0  0  0  0  0  0  0  0  0  0  0  0
    9.7005  -15.2179   27.8491 C   0  0  0  0  0  0  0  0  0  0  0  0
   10.3652  -16.0265   26.7646 C   0  0  2  0  0  0  0  0  0  0  0  0
    9.6606  -15.9163   25.5063 N   0  0  0  0  0  0  0  0  0  0  0  0
   10.5577  -17.4306   27.1160 C   0  0  0  0  0  0  0  0  0  0  0  0
    9.5671  -18.2030   27.1191 O   0  0  0  0  0  0  0  0  0  0  0  0
   11.7838  -17.9824   27.4533 O   0  0  0  0  0  0  0  0  0  0  0  0
  2  1  1  0
  3  2  2  0
  4  2  1  0
  5  4  1  0
  6  7  1  6
  6  5  1  0
  8  6  1  0
  9  8  2  0
 10 11  1  0
 12 14  1  0
 12 11  1  0
 12 13  1  1
 14 15  1  1
 15  8  1  0
 16 17  2  0
 16 14  1  0
 19 20  1  1
 19 18  1  0
 21 19  1  0
 22 21  1  1
 22 23  1  0
 23 16  1  0
 24 22  1  0
 25 24  2  0
 26 24  1  0
M  END
$$$$
