QIL.pdb
     RDKit          3D

 26 25  0  0  1  0  0  0  0  0999 V2000
    9.2119  -22.3042   24.2184 N   0  0  0  0  0  0  0  0  0  0  0  0
    9.6572  -22.3040   22.8468 C   0  0  0  0  0  0  0  0  0  0  0  0
   10.6109  -23.0519   22.5840 O   0  0  0  0  0  0  0  0  0  0  0  0
    8.9353  -21.4245   21.9247 C   0  0  0  0  0  0  0  0  0  0  0  0
    9.0491  -19.9747   22.2706 C   0  0  0  0  0  0  0  0  0  0  0  0
    8.2305  -19.0976   21.3857 C   0  0  2  0  0  0  0  0  0  0  0  0
    8.1765  -19.5564   20.0161 N   0  0  0  0  0  0  0  0  0  0  0  0
    8.8852  -17.7411   21.3822 C   0  0  0  0  0  0  0  0  0  0  0  0
   10.0861  -17.5994   21.0285 O   0  0  0  0  0  0  0  0  0  0  0  0
    7.5181  -11.8434   20.4832 C   0  0  0  0  0  0  0  0  0  0  0  0
    8.4856  -12.8641   21.0026 C   0  0  0  0  0  0  0  0  0  0  0  0
    7.8330  -14.2216   21.1565 C   0  0  2  0  0  0  0  0  0  0  0  0
    6.5102  -14.1200   21.8724 C   0  0  0  0  0  0  0  0  0  0  0  0
    8.7556  -15.2414   21.7380 C   0  0  2  0  0  0  0  0  0  0  0  0
    8.1899  -16.5685   21.7728 N   0  0  0  0  0  0  0  0  0  0  0  0
    9.0624  -14.8227   23.1392 C   0  0  0  0  0  0  0  0  0  0  0  0
    9.8525  -13.8619   23.3709 O   0  0  0  0  0  0  0  0  0  0  0  0
    5.6991  -12.9438   26.4525 C   0  0  0  0  0  0  0  0  0  0  0  0
    7.0179  -13.2992   25.7735 C   0  0  1  0  0  0  0  0  0  0  0  0
    8.0001  -12.2042   26.2182 C   0  0  0  0  0  0  0  0  0  0  0  0
    7.5453  -14.5818   26.3098 C   0  0  0  0  0  0  0  0  0  0  0  0
    8.7714  -15.0903   25.5959 C   0  0  2  0  0  0  0  0  0  0  0  0
    8.4719  -15.4966   24.2405 N   0  0  0  0  0  0  0  0  0  0  0  0
    9.4590  -16.1648   26.3064 C   0  0  0  0  0  0  0  0  0  0  0  0
    9.8071  -15.9857   27.4999 O   0  0  0  0  0  0  0  0  0  0  0  0
    9.7606  -17.3952   25.7435 O   0  0  0  0  0  0  0  0  0  0  0  0
  2  1  1  0
  3  2  2  0
  4  2  1  0
  5  4  1  0
  6  7  1  6
  6  5  1  0
  8  6  1  0
  9  8  2  0
 10 11  1  0
 12 14  1  0
 12 11  1  0
 12 13  1  1
 14 15  1  1
 15  8  1  0
 16 17  2  0
 16 14  1  0
 19 20  1  1
 19 18  1  0
 21 19  1  0
 22 21  1  1
 22 23  1  0
 23 16  1  0
 24 22  1  0
 25 24  2  0
 26 24  1  0
M  END
$$$$
