QIL.pdb
     RDKit          3D

 26 25  0  0  1  0  0  0  0  0999 V2000
   14.0170  -20.1978   20.9466 N   0  0  0  0  0  0  0  0  0  0  0  0
   13.7054  -19.8326   19.5868 C   0  0  0  0  0  0  0  0  0  0  0  0
   14.5381  -20.1642   18.7296 O   0  0  0  0  0  0  0  0  0  0  0  0
   12.4466  -19.1150   19.3741 C   0  0  0  0  0  0  0  0  0  0  0  0
   11.6317  -18.9580   20.6175 C   0  0  0  0  0  0  0  0  0  0  0  0
   10.3179  -18.2967   20.3746 C   0  0  2  0  0  0  0  0  0  0  0  0
   10.0758  -17.9984   18.9812 N   0  0  0  0  0  0  0  0  0  0  0  0
   10.3388  -16.9880   21.1199 C   0  0  0  0  0  0  0  0  0  0  0  0
   11.3298  -16.2134   21.0461 O   0  0  0  0  0  0  0  0  0  0  0  0
    7.0392  -13.2527   20.2487 C   0  0  0  0  0  0  0  0  0  0  0  0
    8.2214  -14.0501   20.7118 C   0  0  0  0  0  0  0  0  0  0  0  0
    8.1076  -14.4138   22.1772 C   0  0  2  0  0  0  0  0  0  0  0  0
    7.9195  -13.1895   23.0366 C   0  0  0  0  0  0  0  0  0  0  0  0
    9.2120  -15.3077   22.6360 C   0  0  2  0  0  0  0  0  0  0  0  0
    9.2558  -16.5671   21.9329 N   0  0  0  0  0  0  0  0  0  0  0  0
    8.9918  -15.5854   24.0875 C   0  0  0  0  0  0  0  0  0  0  0  0
    7.8963  -16.0685   24.4967 O   0  0  0  0  0  0  0  0  0  0  0  0
    8.2647  -12.4700   27.7672 C   0  0  0  0  0  0  0  0  0  0  0  0
    9.3529  -13.3552   27.1684 C   0  0  1  0  0  0  0  0  0  0  0  0
   10.5243  -13.2683   28.1593 C   0  0  0  0  0  0  0  0  0  0  0  0
    8.9145  -14.7759   27.1573 C   0  0  0  0  0  0  0  0  0  0  0  0
    9.8476  -15.7028   26.4212 C   0  0  2  0  0  0  0  0  0  0  0  0
   10.0101  -15.3117   25.0382 N   0  0  0  0  0  0  0  0  0  0  0  0
    9.4645  -17.1092   26.5080 C   0  0  0  0  0  0  0  0  0  0  0  0
    9.0746  -17.7033   25.4722 O   0  0  0  0  0  0  0  0  0  0  0  0
    9.5022  -17.8503   27.6789 O   0  0  0  0  0  0  0  0  0  0  0  0
  2  1  1  0
  3  2  2  0
  4  2  1  0
  5  4  1  0
  6  7  1  6
  6  5  1  0
  8  6  1  0
  9  8  2  0
 10 11  1  0
 12 14  1  0
 12 11  1  0
 12 13  1  1
 14 15  1  6
 15  8  1  0
 16 17  2  0
 16 14  1  0
 19 20  1  1
 19 18  1  0
 21 19  1  0
 22 21  1  6
 22 23  1  0
 23 16  1  0
 24 22  1  0
 25 24  2  0
 26 24  1  0
M  END
$$$$
