QIL.pdb
     RDKit          3D

 26 25  0  0  1  0  0  0  0  0999 V2000
   10.9260  -15.4851   17.7893 N   0  0  0  0  0  0  0  0  0  0  0  0
    9.9686  -16.5042   18.1421 C   0  0  0  0  0  0  0  0  0  0  0  0
   10.1575  -17.6243   17.6443 O   0  0  0  0  0  0  0  0  0  0  0  0
    8.8873  -16.1019   19.0441 C   0  0  0  0  0  0  0  0  0  0  0  0
    9.3568  -15.7505   20.4192 C   0  0  0  0  0  0  0  0  0  0  0  0
    8.4404  -16.2353   21.4905 C   0  0  2  0  0  0  0  0  0  0  0  0
    7.0716  -15.8076   21.3101 N   0  0  0  0  0  0  0  0  0  0  0  0
    8.9300  -15.6482   22.7882 C   0  0  0  0  0  0  0  0  0  0  0  0
   10.1575  -15.4477   22.9892 O   0  0  0  0  0  0  0  0  0  0  0  0
    6.4046  -11.7008   25.3707 C   0  0  0  0  0  0  0  0  0  0  0  0
    7.3908  -12.6822   24.8121 C   0  0  0  0  0  0  0  0  0  0  0  0
    7.6276  -13.8359   25.7637 C   0  0  2  0  0  0  0  0  0  0  0  0
    8.1245  -13.3536   27.1028 C   0  0  0  0  0  0  0  0  0  0  0  0
    8.4668  -14.9148   25.1630 C   0  0  2  0  0  0  0  0  0  0  0  0
    8.0431  -15.2955   23.8371 N   0  0  0  0  0  0  0  0  0  0  0  0
    8.3649  -16.1111   26.0523 C   0  0  0  0  0  0  0  0  0  0  0  0
    7.5229  -17.0255   25.8158 O   0  0  0  0  0  0  0  0  0  0  0  0
   10.7608  -20.1685   26.2057 C   0  0  0  0  0  0  0  0  0  0  0  0
   11.6869  -18.9584   26.2709 C   0  0  1  0  0  0  0  0  0  0  0  0
   12.5356  -19.0396   24.9924 C   0  0  0  0  0  0  0  0  0  0  0  0
   10.8999  -17.7005   26.1754 C   0  0  0  0  0  0  0  0  0  0  0  0
   10.0114  -17.4378   27.3642 C   0  0  2  0  0  0  0  0  0  0  0  0
    9.2131  -16.2454   27.1829 N   0  0  0  0  0  0  0  0  0  0  0  0
   10.7330  -17.3763   28.6321 C   0  0  0  0  0  0  0  0  0  0  0  0
   10.6728  -18.3530   29.4196 O   0  0  0  0  0  0  0  0  0  0  0  0
   11.4964  -16.2918   29.0357 O   0  0  0  0  0  0  0  0  0  0  0  0
  2  1  1  0
  3  2  2  0
  4  2  1  0
  5  4  1  0
  6  7  1  6
  6  5  1  0
  8  6  1  0
  9  8  2  0
 10 11  1  0
 12 14  1  0
 12 11  1  0
 12 13  1  1
 14 15  1  6
 15  8  1  0
 16 17  2  0
 16 14  1  0
 19 20  1  6
 19 18  1  0
 21 19  1  0
 22 21  1  6
 22 23  1  0
 23 16  1  0
 24 22  1  0
 25 24  2  0
 26 24  1  0
M  END
$$$$
