PQT.pdb
     RDKit          3D

 24 24  0  0  1  0  0  0  0  0999 V2000
   24.0624  -11.8011  -15.7255 N   0  0  0  0  0  0  0  0  0  0  0  0
   24.4546  -13.1905  -15.8070 C   0  0  0  0  0  0  0  0  0  0  0  0
   23.4369  -13.8291  -16.7364 C   0  0  0  0  0  0  0  0  0  0  0  0
   22.7526  -12.7085  -17.4529 C   0  0  0  0  0  0  0  0  0  0  0  0
   23.4006  -11.4615  -16.9465 C   0  0  1  0  0  0  0  0  0  0  0  0
   22.3854  -10.3916  -16.7384 C   0  0  0  0  0  0  0  0  0  0  0  0
   21.6788   -9.9402  -17.6744 O   0  0  0  0  0  0  0  0  0  0  0  0
   18.1177   -9.9119  -12.5406 N   0  0  0  0  0  0  0  0  0  0  0  0
   18.0010  -10.2668  -13.9089 C   0  0  0  0  0  0  0  0  0  0  0  0
   17.0325  -10.9223  -14.3541 O   0  0  0  0  0  0  0  0  0  0  0  0
   19.0520   -9.8565  -14.8602 C   0  0  0  0  0  0  0  0  0  0  0  0
   20.1897   -9.1335  -14.1683 C   0  0  0  0  0  0  0  0  0  0  0  0
   21.2551   -8.7632  -15.1701 C   0  0  2  0  0  0  0  0  0  0  0  0
   22.1683   -9.8249  -15.4481 N   0  0  0  0  0  0  0  0  0  0  0  0
   21.9665   -7.5290  -14.7116 C   0  0  0  0  0  0  0  0  0  0  0  0
   22.9090   -7.5786  -13.8893 O   0  0  0  0  0  0  0  0  0  0  0  0
   23.5980   -4.9694  -17.0105 C   0  0  0  0  0  0  0  0  0  0  0  0
   22.6496   -4.2358  -16.0894 C   0  0  1  0  0  0  0  0  0  0  0  0
   21.4641   -3.9111  -16.7437 O   0  0  0  0  0  0  0  0  0  0  0  0
   22.3640   -5.0443  -14.8363 C   0  0  2  0  0  0  0  0  0  0  0  0
   21.6080   -6.2311  -15.1875 N   0  0  0  0  0  0  0  0  0  0  0  0
   21.5836   -4.2585  -13.8391 C   0  0  0  0  0  0  0  0  0  0  0  0
   22.1634   -3.2264  -13.1136 O   0  0  0  0  0  0  0  0  0  0  0  0
   20.3690   -4.5009  -13.6169 O   0  0  0  0  0  0  0  0  0  0  0  0
  1  2  1  0
  1  5  1  0
  2  3  1  0
  3  4  1  0
  5  6  1  1
  5  4  1  0
  6  7  2  0
  8  9  1  0
  9 11  1  0
 10  9  2  0
 11 12  1  0
 13 12  1  1
 14 13  1  0
 14  6  1  0
 15 21  1  0
 15 13  1  0
 16 15  2  0
 18 17  1  6
 18 19  1  0
 20 18  1  0
 20 21  1  6
 22 20  1  0
 22 23  1  0
 24 22  2  0
M  END
$$$$
