PQT.pdb
     RDKit          3D

 24 24  0  0  1  0  0  0  0  0999 V2000
   33.7019  -27.8649  -22.5390 N   0  0  0  0  0  0  0  0  0  0  0  0
   34.7073  -26.9385  -23.0099 C   0  0  0  0  0  0  0  0  0  0  0  0
   34.2502  -25.5791  -22.5096 C   0  0  0  0  0  0  0  0  0  0  0  0
   33.2281  -25.8377  -21.4485 C   0  0  0  0  0  0  0  0  0  0  0  0
   33.1367  -27.3249  -21.3419 C   0  0  1  0  0  0  0  0  0  0  0  0
   31.7203  -27.7508  -21.1660 C   0  0  0  0  0  0  0  0  0  0  0  0
   31.1775  -28.6111  -21.9038 O   0  0  0  0  0  0  0  0  0  0  0  0
   28.6408  -27.6940  -15.6416 N   0  0  0  0  0  0  0  0  0  0  0  0
   27.7352  -28.3140  -16.5400 C   0  0  0  0  0  0  0  0  0  0  0  0
   26.6999  -28.9012  -16.1540 O   0  0  0  0  0  0  0  0  0  0  0  0
   28.0067  -28.2759  -17.9902 C   0  0  0  0  0  0  0  0  0  0  0  0
   29.3304  -27.6068  -18.3000 C   0  0  0  0  0  0  0  0  0  0  0  0
   29.6070  -27.6643  -19.7819 C   0  0  2  0  0  0  0  0  0  0  0  0
   30.9069  -27.1921  -20.1367 N   0  0  0  0  0  0  0  0  0  0  0  0
   28.5324  -26.9308  -20.5210 C   0  0  0  0  0  0  0  0  0  0  0  0
   28.5596  -25.6871  -20.6607 O   0  0  0  0  0  0  0  0  0  0  0  0
   25.6802  -29.1323  -22.8268 C   0  0  0  0  0  0  0  0  0  0  0  0
   26.1732  -27.7475  -23.1803 C   0  0  1  0  0  0  0  0  0  0  0  0
   25.2711  -27.0901  -24.0127 O   0  0  0  0  0  0  0  0  0  0  0  0
   26.4459  -26.9254  -21.9331 C   0  0  2  0  0  0  0  0  0  0  0  0
   27.4203  -27.6100  -21.1052 N   0  0  0  0  0  0  0  0  0  0  0  0
   25.2071  -26.7095  -21.1334 C   0  0  0  0  0  0  0  0  0  0  0  0
   24.2838  -25.7303  -21.4748 O   0  0  0  0  0  0  0  0  0  0  0  0
   24.9508  -27.4070  -20.1178 O   0  0  0  0  0  0  0  0  0  0  0  0
  1  2  1  0
  1  5  1  0
  2  3  1  0
  3  4  1  0
  5  6  1  6
  5  4  1  0
  6  7  2  0
  8  9  1  0
  9 11  1  0
 10  9  2  0
 11 12  1  0
 13 12  1  1
 14 13  1  0
 14  6  1  0
 15 21  1  0
 15 13  1  0
 16 15  2  0
 18 17  1  1
 18 19  1  0
 20 18  1  0
 20 21  1  1
 22 20  1  0
 22 23  1  0
 24 22  2  0
M  END
$$$$
