PQT.pdb
     RDKit          3D

 24 24  0  0  1  0  0  0  0  0999 V2000
   27.8948  -20.1086  -17.2435 N   0  0  0  0  0  0  0  0  0  0  0  0
   28.7224  -19.2234  -18.0323 C   0  0  0  0  0  0  0  0  0  0  0  0
   28.3056  -17.8238  -17.6143 C   0  0  0  0  0  0  0  0  0  0  0  0
   27.5493  -17.9701  -16.3320 C   0  0  0  0  0  0  0  0  0  0  0  0
   27.5676  -19.4323  -16.0270 C   0  0  1  0  0  0  0  0  0  0  0  0
   26.2478  -19.8725  -15.4952 C   0  0  0  0  0  0  0  0  0  0  0  0
   25.3004  -20.2205  -16.2438 O   0  0  0  0  0  0  0  0  0  0  0  0
   24.6768  -20.9409   -9.3130 N   0  0  0  0  0  0  0  0  0  0  0  0
   23.4841  -21.1751  -10.0440 C   0  0  0  0  0  0  0  0  0  0  0  0
   22.4394  -21.6066   -9.5071 O   0  0  0  0  0  0  0  0  0  0  0  0
   23.4537  -20.9056  -11.4947 C   0  0  0  0  0  0  0  0  0  0  0  0
   24.8052  -20.4605  -12.0153 C   0  0  0  0  0  0  0  0  0  0  0  0
   24.7316  -20.2066  -13.5005 C   0  0  2  0  0  0  0  0  0  0  0  0
   25.9988  -19.9187  -14.0919 N   0  0  0  0  0  0  0  0  0  0  0  0
   23.7356  -19.1240  -13.7749 C   0  0  0  0  0  0  0  0  0  0  0  0
   23.8849  -17.9630  -13.3312 O   0  0  0  0  0  0  0  0  0  0  0  0
   22.8611  -17.5892  -16.9327 C   0  0  0  0  0  0  0  0  0  0  0  0
   21.5569  -18.1217  -16.3837 C   0  0  1  0  0  0  0  0  0  0  0  0
   21.2023  -19.3178  -17.0022 O   0  0  0  0  0  0  0  0  0  0  0  0
   21.6256  -18.2992  -14.8772 C   0  0  2  0  0  0  0  0  0  0  0  0
   22.5635  -19.3579  -14.5566 N   0  0  0  0  0  0  0  0  0  0  0  0
   20.2960  -18.6485  -14.3020 C   0  0  0  0  0  0  0  0  0  0  0  0
   20.0424  -19.9060  -13.7707 O   0  0  0  0  0  0  0  0  0  0  0  0
   19.3523  -17.8165  -14.2761 O   0  0  0  0  0  0  0  0  0  0  0  0
  1  2  1  0
  1  5  1  0
  2  3  1  0
  3  4  1  0
  5  6  1  6
  5  4  1  0
  6  7  2  0
  8  9  1  0
  9 11  1  0
 10  9  2  0
 11 12  1  0
 13 12  1  1
 14 13  1  0
 14  6  1  0
 15 21  1  0
 15 13  1  0
 16 15  2  0
 18 17  1  6
 18 19  1  0
 20 18  1  0
 20 21  1  6
 22 20  1  0
 22 23  1  0
 24 22  2  0
M  END
$$$$
