PQT.pdb
     RDKit          3D

 24 24  0  0  1  0  0  0  0  0999 V2000
   26.9654  -19.2505  -18.0270 N   0  0  0  0  0  0  0  0  0  0  0  0
   27.7927  -18.7062  -19.0806 C   0  0  0  0  0  0  0  0  0  0  0  0
   28.5199  -17.5361  -18.4405 C   0  0  0  0  0  0  0  0  0  0  0  0
   28.3803  -17.7062  -16.9610 C   0  0  0  0  0  0  0  0  0  0  0  0
   27.6061  -18.9708  -16.7798 C   0  0  1  0  0  0  0  0  0  0  0  0
   26.6152  -18.8244  -15.6774 C   0  0  0  0  0  0  0  0  0  0  0  0
   26.9453  -18.4821  -14.5142 O   0  0  0  0  0  0  0  0  0  0  0  0
   21.1789  -18.0728  -17.5881 N   0  0  0  0  0  0  0  0  0  0  0  0
   21.8109  -16.9577  -16.9808 C   0  0  0  0  0  0  0  0  0  0  0  0
   21.6017  -15.7810  -17.3514 O   0  0  0  0  0  0  0  0  0  0  0  0
   22.7553  -17.1727  -15.8672 C   0  0  0  0  0  0  0  0  0  0  0  0
   22.8479  -18.6344  -15.4789 C   0  0  0  0  0  0  0  0  0  0  0  0
   24.2108  -18.9339  -14.9056 C   0  0  2  0  0  0  0  0  0  0  0  0
   25.2281  -19.0701  -15.8981 N   0  0  0  0  0  0  0  0  0  0  0  0
   24.1303  -20.1434  -14.0280 C   0  0  0  0  0  0  0  0  0  0  0  0
   23.8680  -21.2768  -14.4902 O   0  0  0  0  0  0  0  0  0  0  0  0
   25.4741  -19.9279  -10.0067 C   0  0  0  0  0  0  0  0  0  0  0  0
   25.4191  -21.2275  -10.7775 C   0  0  1  0  0  0  0  0  0  0  0  0
   25.3374  -22.3191   -9.9169 O   0  0  0  0  0  0  0  0  0  0  0  0
   24.2624  -21.2351  -11.7613 C   0  0  2  0  0  0  0  0  0  0  0  0
   24.3482  -20.0684  -12.6186 N   0  0  0  0  0  0  0  0  0  0  0  0
   22.9455  -21.2197  -11.0640 C   0  0  0  0  0  0  0  0  0  0  0  0
   22.4418  -22.3524  -10.4385 O   0  0  0  0  0  0  0  0  0  0  0  0
   22.2398  -20.1790  -11.0158 O   0  0  0  0  0  0  0  0  0  0  0  0
  1  2  1  0
  1  5  1  0
  2  3  1  0
  3  4  1  0
  5  6  1  1
  5  4  1  0
  6  7  2  0
  8  9  1  0
  9 11  1  0
 10  9  2  0
 11 12  1  0
 13 12  1  6
 14 13  1  0
 14  6  1  0
 15 21  1  0
 15 13  1  0
 16 15  2  0
 18 17  1  1
 18 19  1  0
 20 18  1  0
 20 21  1  6
 22 20  1  0
 22 23  1  0
 24 22  2  0
M  END
$$$$
