PQT.pdb
     RDKit          3D

 24 24  0  0  1  0  0  0  0  0999 V2000
   19.5284  -12.1390  -15.8892 N   0  0  0  0  0  0  0  0  0  0  0  0
   19.2190  -13.5223  -16.1751 C   0  0  0  0  0  0  0  0  0  0  0  0
   17.7541  -13.5194  -16.5769 C   0  0  0  0  0  0  0  0  0  0  0  0
   17.4001  -12.0991  -16.8852 C   0  0  0  0  0  0  0  0  0  0  0  0
   18.6611  -11.3245  -16.6819 C   0  0  1  0  0  0  0  0  0  0  0  0
   18.3743  -10.0232  -16.0163 C   0  0  0  0  0  0  0  0  0  0  0  0
   17.6444   -9.1439  -16.5392 O   0  0  0  0  0  0  0  0  0  0  0  0
   17.2637   -8.7910  -10.0456 N   0  0  0  0  0  0  0  0  0  0  0  0
   17.3757   -7.4968  -10.6150 C   0  0  0  0  0  0  0  0  0  0  0  0
   17.0741   -6.4569   -9.9876 O   0  0  0  0  0  0  0  0  0  0  0  0
   17.8651   -7.3497  -11.9995 C   0  0  0  0  0  0  0  0  0  0  0  0
   18.1623   -8.6907  -12.6394 C   0  0  0  0  0  0  0  0  0  0  0  0
   18.7058   -8.4922  -14.0326 C   0  0  2  0  0  0  0  0  0  0  0  0
   18.9242   -9.7145  -14.7374 N   0  0  0  0  0  0  0  0  0  0  0  0
   19.9482   -7.6604  -13.9718 C   0  0  0  0  0  0  0  0  0  0  0  0
   21.0535   -8.1493  -13.6457 O   0  0  0  0  0  0  0  0  0  0  0  0
   22.1213   -3.2554  -14.9001 C   0  0  0  0  0  0  0  0  0  0  0  0
   20.8987   -4.1433  -14.9532 C   0  0  1  0  0  0  0  0  0  0  0  0
   20.5034   -4.3762  -16.2679 O   0  0  0  0  0  0  0  0  0  0  0  0
   21.1393   -5.4551  -14.2273 C   0  0  2  0  0  0  0  0  0  0  0  0
   19.9385   -6.2665  -14.2824 N   0  0  0  0  0  0  0  0  0  0  0  0
   21.5028   -5.2361  -12.7988 C   0  0  0  0  0  0  0  0  0  0  0  0
   22.8223   -5.0606  -12.4040 O   0  0  0  0  0  0  0  0  0  0  0  0
   20.6271   -5.2020  -11.8959 O   0  0  0  0  0  0  0  0  0  0  0  0
  1  2  1  0
  1  5  1  0
  2  3  1  0
  3  4  1  0
  5  6  1  1
  5  4  1  0
  6  7  2  0
  8  9  1  0
  9 11  1  0
 10  9  2  0
 11 12  1  0
 13 12  1  1
 14 13  1  0
 14  6  1  0
 15 21  1  0
 15 13  1  0
 16 15  2  0
 18 17  1  6
 18 19  1  0
 20 18  1  0
 20 21  1  1
 22 20  1  0
 22 23  1  0
 24 22  2  0
M  END
$$$$
