CGH.pdb
     RDKit          3D

 21 21  0  0  1  0  0  0  0  0999 V2000
   36.0110  -24.7749  -19.4061 N   0  0  0  0  0  0  0  0  0  0  0  0
   35.2539  -24.2222  -18.3236 C   0  0  1  0  0  0  0  0  0  0  0  0
   34.2573  -23.2176  -18.8796 C   0  0  0  0  0  0  0  0  0  0  0  0
   35.0755  -21.8877  -19.7846 S   0  0  0  0  0  0  0  0  0  0  0  0
   34.5610  -25.2805  -17.5484 C   0  0  0  0  0  0  0  0  0  0  0  0
   34.0609  -26.2448  -18.1622 O   0  0  0  0  0  0  0  0  0  0  0  0
   34.4783  -25.1808  -16.1332 N   0  0  0  0  0  0  0  0  0  0  0  0
   33.8959  -26.2407  -15.3456 C   0  0  0  0  0  0  0  0  0  0  0  0
   32.4145  -26.1124  -15.2646 C   0  0  0  0  0  0  0  0  0  0  0  0
   31.8757  -25.2966  -14.4807 O   0  0  0  0  0  0  0  0  0  0  0  0
   31.5637  -26.9113  -16.0740 N   0  0  0  0  0  0  0  0  0  0  0  0
   30.1315  -26.8555  -16.0978 C   0  0  1  0  0  0  0  0  0  0  0  0
   29.6552  -25.4619  -16.3760 C   0  0  0  0  0  0  0  0  0  0  0  0
   28.2027  -25.2915  -16.4301 C   0  0  0  0  0  0  0  0  0  0  0  0
   27.1967  -26.1924  -16.2588 C   0  0  0  0  0  0  0  0  0  0  0  0
   25.9892  -25.5704  -16.4218 N   0  0  0  0  0  0  0  0  0  0  0  0
   26.2744  -24.2924  -16.6921 C   0  0  0  0  0  0  0  0  0  0  0  0
   27.5990  -24.0988  -16.7029 N   0  0  0  0  0  0  0  0  0  0  0  0
   29.5907  -27.7435  -17.1942 C   0  0  0  0  0  0  0  0  0  0  0  0
   30.4068  -28.1355  -18.2077 O   0  0  0  0  0  0  0  0  0  0  0  0
   28.4029  -28.0898  -17.1315 O   0  0  0  0  0  0  0  0  0  0  0  0
  2  1  1  6
  3  2  1  0
  4  3  1  0
  5  2  1  0
  6  5  2  0
  7  5  1  0
  8  7  1  0
  9  8  1  0
  9 11  1  0
 10  9  2  0
 12 11  1  0
 13 14  1  0
 12 13  1  6
 14 18  1  0
 15 14  2  0
 15 16  1  0
 16 17  1  0
 18 17  2  0
 19 12  1  0
 20 19  1  0
 21 19  2  0
M  END
$$$$
