CGH.pdb
     RDKit          3D

 21 21  0  0  1  0  0  0  0  0999 V2000
   19.4887  -12.2899  -16.9954 N   0  0  0  0  0  0  0  0  0  0  0  0
   18.2375  -12.1517  -16.3130 C   0  0  1  0  0  0  0  0  0  0  0  0
   18.1854  -13.1515  -15.1686 C   0  0  0  0  0  0  0  0  0  0  0  0
   18.5821  -14.8244  -15.7175 S   0  0  0  0  0  0  0  0  0  0  0  0
   18.0392  -10.7682  -15.8155 C   0  0  0  0  0  0  0  0  0  0  0  0
   17.0095  -10.5067  -15.1613 O   0  0  0  0  0  0  0  0  0  0  0  0
   19.0152   -9.7720  -16.0888 N   0  0  0  0  0  0  0  0  0  0  0  0
   18.9135   -8.4529  -15.5121 C   0  0  0  0  0  0  0  0  0  0  0  0
   20.2496   -7.8091  -15.3783 C   0  0  0  0  0  0  0  0  0  0  0  0
   21.2955   -8.4068  -15.7236 O   0  0  0  0  0  0  0  0  0  0  0  0
   20.3818   -6.4956  -14.8544 N   0  0  0  0  0  0  0  0  0  0  0  0
   21.5809   -5.7102  -14.8484 C   0  0  1  0  0  0  0  0  0  0  0  0
   21.3173   -4.3277  -15.3638 C   0  0  0  0  0  0  0  0  0  0  0  0
   20.8545   -4.2496  -16.7500 C   0  0  0  0  0  0  0  0  0  0  0  0
   21.5532   -4.1617  -17.9150 C   0  0  0  0  0  0  0  0  0  0  0  0
   20.6838   -4.0936  -18.9690 N   0  0  0  0  0  0  0  0  0  0  0  0
   19.4602   -4.1406  -18.4320 C   0  0  0  0  0  0  0  0  0  0  0  0
   19.5356   -4.2344  -17.0987 N   0  0  0  0  0  0  0  0  0  0  0  0
   22.1099   -5.5722  -13.4398 C   0  0  0  0  0  0  0  0  0  0  0  0
   21.3780   -6.0433  -12.3961 O   0  0  0  0  0  0  0  0  0  0  0  0
   23.2103   -5.0258  -13.2811 O   0  0  0  0  0  0  0  0  0  0  0  0
  2  1  1  1
  3  2  1  0
  4  3  1  0
  5  2  1  0
  6  5  2  0
  7  5  1  0
  8  7  1  0
  9  8  1  0
  9 11  1  0
 10  9  2  0
 12 11  1  0
 13 14  1  0
 12 13  1  1
 14 18  1  0
 15 14  2  0
 15 16  1  0
 16 17  1  0
 18 17  2  0
 19 12  1  0
 20 19  1  0
 21 19  2  0
M  END
$$$$
