CGH.pdb
     RDKit          3D

 21 21  0  0  1  0  0  0  0  0999 V2000
   27.6587  -20.5713   -9.6717 N   0  0  0  0  0  0  0  0  0  0  0  0
   28.0118  -20.6387  -11.0577 C   0  0  1  0  0  0  0  0  0  0  0  0
   29.1233  -21.6609  -11.2354 C   0  0  0  0  0  0  0  0  0  0  0  0
   30.6398  -21.1594  -10.3953 S   0  0  0  0  0  0  0  0  0  0  0  0
   26.8402  -20.9798  -11.9015 C   0  0  0  0  0  0  0  0  0  0  0  0
   26.8851  -20.7267  -13.1224 O   0  0  0  0  0  0  0  0  0  0  0  0
   25.6965  -21.5835  -11.3124 N   0  0  0  0  0  0  0  0  0  0  0  0
   24.5223  -21.8773  -12.0985 C   0  0  0  0  0  0  0  0  0  0  0  0
   23.6327  -20.6892  -12.2192 C   0  0  0  0  0  0  0  0  0  0  0  0
   24.0039  -19.5580  -11.8280 O   0  0  0  0  0  0  0  0  0  0  0  0
   22.3334  -20.7999  -12.7822 N   0  0  0  0  0  0  0  0  0  0  0  0
   21.7665  -19.9244  -13.7656 C   0  0  1  0  0  0  0  0  0  0  0  0
   22.4638  -20.0777  -15.0835 C   0  0  0  0  0  0  0  0  0  0  0  0
   21.9661  -19.2237  -16.1627 C   0  0  0  0  0  0  0  0  0  0  0  0
   21.0616  -18.2066  -16.1439 C   0  0  0  0  0  0  0  0  0  0  0  0
   20.8996  -17.7113  -17.4088 N   0  0  0  0  0  0  0  0  0  0  0  0
   21.7103  -18.4355  -18.1872 C   0  0  0  0  0  0  0  0  0  0  0  0
   22.3630  -19.3520  -17.4617 N   0  0  0  0  0  0  0  0  0  0  0  0
   20.3092  -20.2574  -13.9858 C   0  0  0  0  0  0  0  0  0  0  0  0
   19.3951  -19.2556  -14.0731 O   0  0  0  0  0  0  0  0  0  0  0  0
   19.9917  -21.4510  -14.0810 O   0  0  0  0  0  0  0  0  0  0  0  0
  2  1  1  1
  3  2  1  0
  4  3  1  0
  5  2  1  0
  6  5  2  0
  7  5  1  0
  8  7  1  0
  9  8  1  0
  9 11  1  0
 10  9  2  0
 12 11  1  0
 13 14  1  0
 12 13  1  6
 14 18  1  0
 15 14  2  0
 15 16  1  0
 16 17  1  0
 18 17  2  0
 19 12  1  0
 20 19  1  0
 21 19  2  0
M  END
$$$$
