CGH.pdb
     RDKit          3D

 21 21  0  0  1  0  0  0  0  0999 V2000
   28.4402  -21.3017   -9.9898 N   0  0  0  0  0  0  0  0  0  0  0  0
   28.9072  -20.8209  -11.2551 C   0  0  1  0  0  0  0  0  0  0  0  0
   30.2455  -21.4714  -11.5677 C   0  0  0  0  0  0  0  0  0  0  0  0
   31.2673  -21.6527  -10.0911 S   0  0  0  0  0  0  0  0  0  0  0  0
   27.9250  -21.0877  -12.3345 C   0  0  0  0  0  0  0  0  0  0  0  0
   28.2549  -20.8616  -13.5163 O   0  0  0  0  0  0  0  0  0  0  0  0
   26.6366  -21.5915  -12.0092 N   0  0  0  0  0  0  0  0  0  0  0  0
   25.4844  -20.7230  -11.9778 C   0  0  0  0  0  0  0  0  0  0  0  0
   24.5325  -21.0358  -13.0795 C   0  0  0  0  0  0  0  0  0  0  0  0
   24.9371  -21.2441  -14.2471 O   0  0  0  0  0  0  0  0  0  0  0  0
   23.1341  -21.1081  -12.8422 N   0  0  0  0  0  0  0  0  0  0  0  0
   22.1361  -21.4705  -13.8053 C   0  0  1  0  0  0  0  0  0  0  0  0
   20.7826  -21.5549  -13.1671 C   0  0  0  0  0  0  0  0  0  0  0  0
   19.6888  -21.9434  -14.0583 C   0  0  0  0  0  0  0  0  0  0  0  0
   19.6788  -22.7614  -15.1463 C   0  0  0  0  0  0  0  0  0  0  0  0
   18.4180  -22.8086  -15.6751 N   0  0  0  0  0  0  0  0  0  0  0  0
   17.6711  -22.0152  -14.9003 C   0  0  0  0  0  0  0  0  0  0  0  0
   18.4120  -21.4827  -13.9206 N   0  0  0  0  0  0  0  0  0  0  0  0
   22.0558  -20.4267  -14.8948 C   0  0  0  0  0  0  0  0  0  0  0  0
   21.8572  -20.8115  -16.1830 O   0  0  0  0  0  0  0  0  0  0  0  0
   22.1756  -19.2367  -14.5723 O   0  0  0  0  0  0  0  0  0  0  0  0
  2  1  1  1
  3  2  1  0
  4  3  1  0
  5  2  1  0
  6  5  2  0
  7  5  1  0
  8  7  1  0
  9  8  1  0
  9 11  1  0
 10  9  2  0
 12 11  1  0
 13 14  1  0
 12 13  1  1
 14 18  1  0
 15 14  2  0
 15 16  1  0
 16 17  1  0
 18 17  2  0
 19 12  1  0
 20 19  1  0
 21 19  2  0
M  END
$$$$
