CGH.pdb
     RDKit          3D

 21 21  0  0  1  0  0  0  0  0999 V2000
   26.9450  -22.5324  -16.8033 N   0  0  0  0  0  0  0  0  0  0  0  0
   27.5176  -21.6316  -15.8488 C   0  0  1  0  0  0  0  0  0  0  0  0
   29.0330  -21.7266  -15.9266 C   0  0  0  0  0  0  0  0  0  0  0  0
   29.6428  -23.2997  -15.2856 S   0  0  0  0  0  0  0  0  0  0  0  0
   27.0631  -20.2377  -16.0758 C   0  0  0  0  0  0  0  0  0  0  0  0
   26.6851  -19.9075  -17.2181 O   0  0  0  0  0  0  0  0  0  0  0  0
   27.0652  -19.3093  -14.9998 N   0  0  0  0  0  0  0  0  0  0  0  0
   26.6227  -17.9489  -15.1902 C   0  0  0  0  0  0  0  0  0  0  0  0
   25.1379  -17.8444  -15.1444 C   0  0  0  0  0  0  0  0  0  0  0  0
   24.5652  -16.7298  -15.1531 O   0  0  0  0  0  0  0  0  0  0  0  0
   24.3221  -19.0058  -15.0892 N   0  0  0  0  0  0  0  0  0  0  0  0
   22.8913  -19.0242  -15.0039 C   0  0  1  0  0  0  0  0  0  0  0  0
   22.2897  -19.6247  -16.2384 C   0  0  0  0  0  0  0  0  0  0  0  0
   22.3088  -18.7719  -17.4276 C   0  0  0  0  0  0  0  0  0  0  0  0
   23.3334  -18.4236  -18.2533 C   0  0  0  0  0  0  0  0  0  0  0  0
   22.8724  -17.5840  -19.2300 N   0  0  0  0  0  0  0  0  0  0  0  0
   21.5667  -17.4293  -18.9871 C   0  0  0  0  0  0  0  0  0  0  0  0
   21.2030  -18.1335  -17.9082 N   0  0  0  0  0  0  0  0  0  0  0  0
   22.4471  -19.8667  -13.8310 C   0  0  0  0  0  0  0  0  0  0  0  0
   21.1406  -19.8651  -13.4569 O   0  0  0  0  0  0  0  0  0  0  0  0
   23.3020  -20.5412  -13.2405 O   0  0  0  0  0  0  0  0  0  0  0  0
  2  1  1  6
  3  2  1  0
  4  3  1  0
  5  2  1  0
  6  5  2  0
  7  5  1  0
  8  7  1  0
  9  8  1  0
  9 11  1  0
 10  9  2  0
 12 11  1  0
 13 14  1  0
 12 13  1  6
 14 18  1  0
 15 14  2  0
 15 16  1  0
 16 17  1  0
 18 17  2  0
 19 12  1  0
 20 19  1  0
 21 19  2  0
M  END
$$$$
