CGH.pdb
     RDKit          3D

 21 21  0  0  1  0  0  0  0  0999 V2000
   18.2575   -7.8754  -19.8474 N   0  0  0  0  0  0  0  0  0  0  0  0
   17.0386   -7.1353  -19.9773 C   0  0  1  0  0  0  0  0  0  0  0  0
   16.2448   -7.6919  -21.1485 C   0  0  0  0  0  0  0  0  0  0  0  0
   17.2440   -7.8023  -22.6474 S   0  0  0  0  0  0  0  0  0  0  0  0
   16.2394   -7.1801  -18.7282 C   0  0  0  0  0  0  0  0  0  0  0  0
   15.0574   -6.7815  -18.7566 O   0  0  0  0  0  0  0  0  0  0  0  0
   16.8262   -7.6713  -17.5307 N   0  0  0  0  0  0  0  0  0  0  0  0
   16.0638   -7.7534  -16.3080 C   0  0  0  0  0  0  0  0  0  0  0  0
   16.8552   -8.3740  -15.2097 C   0  0  0  0  0  0  0  0  0  0  0  0
   16.8776   -9.6164  -15.0479 O   0  0  0  0  0  0  0  0  0  0  0  0
   17.6108   -7.5768  -14.3092 N   0  0  0  0  0  0  0  0  0  0  0  0
   18.4213   -8.0648  -13.2323 C   0  0  1  0  0  0  0  0  0  0  0  0
   19.8644   -7.7251  -13.4527 C   0  0  0  0  0  0  0  0  0  0  0  0
   20.4974   -8.3779  -14.5994 C   0  0  0  0  0  0  0  0  0  0  0  0
   19.9980   -9.2667  -15.5014 C   0  0  0  0  0  0  0  0  0  0  0  0
   20.9754   -9.6166  -16.3923 N   0  0  0  0  0  0  0  0  0  0  0  0
   22.0638   -8.9344  -16.0213 C   0  0  0  0  0  0  0  0  0  0  0  0
   21.8025   -8.1819  -14.9453 N   0  0  0  0  0  0  0  0  0  0  0  0
   18.0021   -7.4248  -11.9293 C   0  0  0  0  0  0  0  0  0  0  0  0
   18.4500   -7.9366  -10.7527 O   0  0  0  0  0  0  0  0  0  0  0  0
   17.2525   -6.4398  -11.9780 O   0  0  0  0  0  0  0  0  0  0  0  0
  2  1  1  1
  3  2  1  0
  4  3  1  0
  5  2  1  0
  6  5  2  0
  7  5  1  0
  8  7  1  0
  9  8  1  0
  9 11  1  0
 10  9  2  0
 12 11  1  0
 13 14  1  0
 12 13  1  6
 14 18  1  0
 15 14  2  0
 15 16  1  0
 16 17  1  0
 18 17  2  0
 19 12  1  0
 20 19  1  0
 21 19  2  0
M  END
$$$$
