CGH.pdb
     RDKit          3D

 21 21  0  0  1  0  0  0  0  0999 V2000
   26.4379  -20.8053  -12.9985 N   0  0  0  0  0  0  0  0  0  0  0  0
   26.8554  -20.0162  -14.1180 C   0  0  1  0  0  0  0  0  0  0  0  0
   28.3692  -20.0914  -14.2387 C   0  0  0  0  0  0  0  0  0  0  0  0
   29.1958  -19.3450  -12.8185 S   0  0  0  0  0  0  0  0  0  0  0  0
   26.2024  -20.4636  -15.3727 C   0  0  0  0  0  0  0  0  0  0  0  0
   25.9253  -21.6727  -15.5076 O   0  0  0  0  0  0  0  0  0  0  0  0
   25.9054  -19.5181  -16.3912 N   0  0  0  0  0  0  0  0  0  0  0  0
   25.3305  -19.9343  -17.6479 C   0  0  0  0  0  0  0  0  0  0  0  0
   23.8429  -19.9676  -17.5853 C   0  0  0  0  0  0  0  0  0  0  0  0
   23.1639  -20.4328  -18.5302 O   0  0  0  0  0  0  0  0  0  0  0  0
   23.1452  -19.4725  -16.4516 N   0  0  0  0  0  0  0  0  0  0  0  0
   21.7260  -19.5143  -16.2543 C   0  0  1  0  0  0  0  0  0  0  0  0
   21.3875  -19.4705  -14.7948 C   0  0  0  0  0  0  0  0  0  0  0  0
   21.7336  -20.6701  -14.0314 C   0  0  0  0  0  0  0  0  0  0  0  0
   22.0259  -21.9328  -14.4474 C   0  0  0  0  0  0  0  0  0  0  0  0
   22.2700  -22.7299  -13.3627 N   0  0  0  0  0  0  0  0  0  0  0  0
   22.1226  -21.9405  -12.2936 C   0  0  0  0  0  0  0  0  0  0  0  0
   21.7999  -20.6966  -12.6690 N   0  0  0  0  0  0  0  0  0  0  0  0
   21.0710  -18.3179  -16.9045 C   0  0  0  0  0  0  0  0  0  0  0  0
   21.8399  -17.2960  -17.3641 O   0  0  0  0  0  0  0  0  0  0  0  0
   19.8358  -18.3086  -16.9982 O   0  0  0  0  0  0  0  0  0  0  0  0
  2  1  1  1
  3  2  1  0
  4  3  1  0
  5  2  1  0
  6  5  2  0
  7  5  1  0
  8  7  1  0
  9  8  1  0
  9 11  1  0
 10  9  2  0
 12 11  1  0
 13 14  1  0
 12 13  1  1
 14 18  1  0
 15 14  2  0
 15 16  1  0
 16 17  1  0
 18 17  2  0
 19 12  1  0
 20 19  1  0
 21 19  2  0
M  END
$$$$
