YMP.pdb
     RDKit          3D

 28 29  0  0  1  0  0  0  0  0999 V2000
    6.7796  -13.2486   16.2765 O   0  0  0  0  0  0  0  0  0  0  0  0
    7.5890  -13.8414   17.2362 C   0  0  0  0  0  0  0  0  0  0  0  0
    8.1639  -15.0825   17.0383 C   0  0  0  0  0  0  0  0  0  0  0  0
    8.9651  -15.6706   17.9869 C   0  0  0  0  0  0  0  0  0  0  0  0
    9.2317  -15.0424   19.1863 C   0  0  0  0  0  0  0  0  0  0  0  0
   10.1067  -15.6907   20.2149 C   0  0  0  0  0  0  0  0  0  0  0  0
    9.2000  -16.3506   21.2070 C   0  0  2  0  0  0  0  0  0  0  0  0
    8.0787  -16.9266   20.5127 N   0  0  0  0  0  0  0  0  0  0  0  0
    8.7829  -15.4856   22.3254 C   0  0  0  0  0  0  0  0  0  0  0  0
    8.5883  -14.2725   22.1765 O   0  0  0  0  0  0  0  0  0  0  0  0
    8.6546  -13.8026   19.3786 C   0  0  0  0  0  0  0  0  0  0  0  0
    7.8489  -13.2055   18.4306 C   0  0  0  0  0  0  0  0  0  0  0  0
    6.2027  -11.2515   26.9369 C   0  0  0  0  0  0  0  0  0  0  0  0
    5.9670  -13.0464   26.8897 S   0  0  0  0  0  0  0  0  0  0  0  0
    7.5941  -13.8881   26.6311 C   0  0  0  0  0  0  0  0  0  0  0  0
    7.5857  -14.6089   25.3674 C   0  0  0  0  0  0  0  0  0  0  0  0
    8.7729  -15.3347   24.8560 C   0  0  2  0  0  0  0  0  0  0  0  0
    8.5956  -16.0585   23.6321 N   0  0  0  0  0  0  0  0  0  0  0  0
    9.6333  -15.9908   25.8000 C   0  0  0  0  0  0  0  0  0  0  0  0
   10.3463  -17.0075   25.3906 O   0  0  0  0  0  0  0  0  0  0  0  0
    9.8177  -15.6909   27.1339 N   0  0  0  0  0  0  0  0  0  0  0  0
    9.1474  -14.7998   28.0310 C   0  0  0  0  0  0  0  0  0  0  0  0
   10.3696  -13.9911   28.5223 C   0  0  0  0  0  0  0  0  0  0  0  0
   11.4462  -15.0725   28.6634 C   0  0  0  0  0  0  0  0  0  0  0  0
   10.8672  -16.2761   27.9875 C   0  0  1  0  0  0  0  0  0  0  0  0
   10.3057  -17.2042   28.9887 C   0  0  0  0  0  0  0  0  0  0  0  0
    9.0445  -17.3964   29.0791 O   0  0  0  0  0  0  0  0  0  0  0  0
   11.0647  -17.9277   29.8943 O   0  0  0  0  0  0  0  0  0  0  0  0
  2  1  1  0
  3  2  2  0
  4  3  1  0
  5 11  1  0
  5  4  2  0
  6  5  1  0
  7  6  1  0
  7  8  1  6
  9 18  1  0
  9  7  1  0
 10  9  2  0
 11 12  2  0
 12  2  1  0
 13 14  1  0
 14 15  1  0
 17 16  1  1
 16 15  1  0
 17 18  1  0
 19 17  1  0
 20 19  2  0
 21 22  1  0
 21 19  1  0
 23 22  1  0
 24 23  1  0
 24 25  1  0
 25 26  1  1
 25 21  1  0
 26 28  1  0
 27 26  2  0
M  END
$$$$
