YMP.pdb
     RDKit          3D

 28 29  0  0  1  0  0  0  0  0999 V2000
   10.0728  -20.6620   29.5375 O   0  0  0  0  0  0  0  0  0  0  0  0
    9.4876  -20.5193   28.2866 C   0  0  0  0  0  0  0  0  0  0  0  0
    9.1164  -21.6126   27.5272 C   0  0  0  0  0  0  0  0  0  0  0  0
    8.5372  -21.4732   26.2892 C   0  0  0  0  0  0  0  0  0  0  0  0
    8.2997  -20.2264   25.7475 C   0  0  0  0  0  0  0  0  0  0  0  0
    7.6674  -20.0835   24.3971 C   0  0  0  0  0  0  0  0  0  0  0  0
    6.3111  -19.4862   24.6105 C   0  0  2  0  0  0  0  0  0  0  0  0
    5.3078  -20.4319   24.1981 N   0  0  0  0  0  0  0  0  0  0  0  0
    6.1212  -18.1616   23.9922 C   0  0  0  0  0  0  0  0  0  0  0  0
    5.8688  -18.0323   22.7875 O   0  0  0  0  0  0  0  0  0  0  0  0
    8.6727  -19.1376   26.5107 C   0  0  0  0  0  0  0  0  0  0  0  0
    9.2549  -19.2697   27.7550 C   0  0  0  0  0  0  0  0  0  0  0  0
    6.9494  -10.3531   25.8225 C   0  0  0  0  0  0  0  0  0  0  0  0
    6.5341  -12.0513   26.2949 S   0  0  0  0  0  0  0  0  0  0  0  0
    6.8739  -13.1981   24.8833 C   0  0  0  0  0  0  0  0  0  0  0  0
    6.4967  -14.5560   25.2441 C   0  0  0  0  0  0  0  0  0  0  0  0
    6.5988  -15.6903   24.2951 C   0  0  2  0  0  0  0  0  0  0  0  0
    6.2320  -16.9786   24.8041 N   0  0  0  0  0  0  0  0  0  0  0  0
    7.7053  -15.7202   23.3804 C   0  0  0  0  0  0  0  0  0  0  0  0
    8.5030  -16.7559   23.4018 O   0  0  0  0  0  0  0  0  0  0  0  0
    8.0632  -14.7691   22.4474 N   0  0  0  0  0  0  0  0  0  0  0  0
    7.6611  -13.4113   22.2408 C   0  0  0  0  0  0  0  0  0  0  0  0
    7.2210  -13.5145   20.7627 C   0  0  0  0  0  0  0  0  0  0  0  0
    8.2878  -14.4375   20.1642 C   0  0  0  0  0  0  0  0  0  0  0  0
    9.0185  -14.9917   21.3472 C   0  0  1  0  0  0  0  0  0  0  0  0
   10.2806  -14.2561   21.5593 C   0  0  0  0  0  0  0  0  0  0  0  0
   10.3959  -13.3968   22.4995 O   0  0  0  0  0  0  0  0  0  0  0  0
   11.4186  -14.4196   20.7861 O   0  0  0  0  0  0  0  0  0  0  0  0
  2  1  1  0
  3  2  2  0
  4  3  1  0
  5 11  1  0
  5  4  2  0
  6  5  1  0
  7  6  1  0
  7  8  1  6
  9 18  1  0
  9  7  1  0
 10  9  2  0
 11 12  2  0
 12  2  1  0
 13 14  1  0
 14 15  1  0
 17 16  1  1
 16 15  1  0
 17 18  1  0
 19 17  1  0
 20 19  2  0
 21 22  1  0
 21 19  1  0
 23 22  1  0
 24 23  1  0
 24 25  1  0
 25 26  1  1
 25 21  1  0
 26 28  1  0
 27 26  2  0
M  END
$$$$
