YMP.pdb
     RDKit          3D

 28 29  0  0  1  0  0  0  0  0999 V2000
    1.3945  -18.9176   18.9923 O   0  0  0  0  0  0  0  0  0  0  0  0
    2.4289  -19.2230   19.8665 C   0  0  0  0  0  0  0  0  0  0  0  0
    3.6337  -18.5467   19.8338 C   0  0  0  0  0  0  0  0  0  0  0  0
    4.6584  -18.8476   20.6981 C   0  0  0  0  0  0  0  0  0  0  0  0
    4.5272  -19.8452   21.6425 C   0  0  0  0  0  0  0  0  0  0  0  0
    5.6494  -20.1666   22.5813 C   0  0  0  0  0  0  0  0  0  0  0  0
    5.2864  -19.5844   23.9121 C   0  0  2  0  0  0  0  0  0  0  0  0
    3.9817  -20.0563   24.2946 N   0  0  0  0  0  0  0  0  0  0  0  0
    5.3966  -18.1164   23.9890 C   0  0  0  0  0  0  0  0  0  0  0  0
    4.4193  -17.3773   23.8149 O   0  0  0  0  0  0  0  0  0  0  0  0
    3.3212  -20.5177   21.6706 C   0  0  0  0  0  0  0  0  0  0  0  0
    2.2875  -20.2211   20.8058 C   0  0  0  0  0  0  0  0  0  0  0  0
    6.8838  -11.3636   26.5965 C   0  0  0  0  0  0  0  0  0  0  0  0
    7.5437  -13.0473   26.6925 S   0  0  0  0  0  0  0  0  0  0  0  0
    7.4838  -13.8428   25.0233 C   0  0  0  0  0  0  0  0  0  0  0  0
    7.1693  -15.2569   25.1575 C   0  0  0  0  0  0  0  0  0  0  0  0
    6.9959  -16.1494   23.9865 C   0  0  2  0  0  0  0  0  0  0  0  0
    6.6733  -17.5159   24.2724 N   0  0  0  0  0  0  0  0  0  0  0  0
    7.8736  -15.9822   22.8624 C   0  0  0  0  0  0  0  0  0  0  0  0
    8.4103  -17.0478   22.3278 O   0  0  0  0  0  0  0  0  0  0  0  0
    8.2498  -14.8074   22.2447 N   0  0  0  0  0  0  0  0  0  0  0  0
    7.9948  -13.4303   22.5387 C   0  0  0  0  0  0  0  0  0  0  0  0
    7.4031  -13.0006   21.1769 C   0  0  0  0  0  0  0  0  0  0  0  0
    8.2882  -13.7556   20.1793 C   0  0  0  0  0  0  0  0  0  0  0  0
    9.0594  -14.7285   21.0155 C   0  0  1  0  0  0  0  0  0  0  0  0
   10.4151  -14.2099   21.2839 C   0  0  0  0  0  0  0  0  0  0  0  0
   10.7406  -13.7764   22.4423 O   0  0  0  0  0  0  0  0  0  0  0  0
   11.4267  -14.1440   20.3394 O   0  0  0  0  0  0  0  0  0  0  0  0
  2  1  1  0
  3  2  2  0
  4  3  1  0
  5 11  1  0
  5  4  2  0
  6  5  1  0
  7  6  1  0
  7  8  1  6
  9 18  1  0
  9  7  1  0
 10  9  2  0
 11 12  2  0
 12  2  1  0
 13 14  1  0
 14 15  1  0
 17 16  1  1
 16 15  1  0
 17 18  1  0
 19 17  1  0
 20 19  2  0
 21 22  1  0
 21 19  1  0
 23 22  1  0
 24 23  1  0
 24 25  1  0
 25 26  1  1
 25 21  1  0
 26 28  1  0
 27 26  2  0
M  END
$$$$
