YMP.pdb
     RDKit          3D

 28 29  0  0  1  0  0  0  0  0999 V2000
   10.6481  -19.0623   30.1228 O   0  0  0  0  0  0  0  0  0  0  0  0
   10.0157  -19.1554   28.8904 C   0  0  0  0  0  0  0  0  0  0  0  0
   10.3872  -18.3647   27.8195 C   0  0  0  0  0  0  0  0  0  0  0  0
    9.7625  -18.4555   26.5993 C   0  0  0  0  0  0  0  0  0  0  0  0
    8.7300  -19.3467   26.3895 C   0  0  0  0  0  0  0  0  0  0  0  0
    8.0546  -19.4396   25.0557 C   0  0  0  0  0  0  0  0  0  0  0  0
    6.6457  -18.9696   25.2454 C   0  0  2  0  0  0  0  0  0  0  0  0
    5.7433  -20.0543   24.9626 N   0  0  0  0  0  0  0  0  0  0  0  0
    6.3027  -17.7455   24.4991 C   0  0  0  0  0  0  0  0  0  0  0  0
    5.7023  -17.7857   23.4176 O   0  0  0  0  0  0  0  0  0  0  0  0
    8.3630  -20.1343   27.4630 C   0  0  0  0  0  0  0  0  0  0  0  0
    8.9857  -20.0487   28.6916 C   0  0  0  0  0  0  0  0  0  0  0  0
    8.3978  -12.1055   27.2645 C   0  0  0  0  0  0  0  0  0  0  0  0
    6.6645  -12.0034   26.7498 S   0  0  0  0  0  0  0  0  0  0  0  0
    6.1275  -13.6183   26.0241 C   0  0  0  0  0  0  0  0  0  0  0  0
    7.0399  -14.0142   24.9624 C   0  0  0  0  0  0  0  0  0  0  0  0
    6.9046  -15.2974   24.2325 C   0  0  2  0  0  0  0  0  0  0  0  0
    6.6737  -16.4623   25.0343 N   0  0  0  0  0  0  0  0  0  0  0  0
    7.7519  -15.5318   23.0970 C   0  0  0  0  0  0  0  0  0  0  0  0
    8.2929  -16.7138   22.9575 O   0  0  0  0  0  0  0  0  0  0  0  0
    8.0936  -14.6482   22.0943 N   0  0  0  0  0  0  0  0  0  0  0  0
    7.9040  -13.2386   21.9351 C   0  0  0  0  0  0  0  0  0  0  0  0
    7.1897  -13.2467   20.5645 C   0  0  0  0  0  0  0  0  0  0  0  0
    7.9509  -14.3362   19.8017 C   0  0  0  0  0  0  0  0  0  0  0  0
    8.7775  -15.0231   20.8436 C   0  0  1  0  0  0  0  0  0  0  0  0
   10.1659  -14.5231   20.8064 C   0  0  0  0  0  0  0  0  0  0  0  0
   10.6011  -13.7115   21.6939 O   0  0  0  0  0  0  0  0  0  0  0  0
   11.0953  -14.8716   19.8398 O   0  0  0  0  0  0  0  0  0  0  0  0
  2  1  1  0
  3  2  2  0
  4  3  1  0
  5 11  1  0
  5  4  2  0
  6  5  1  0
  7  6  1  0
  7  8  1  6
  9 18  1  0
  9  7  1  0
 10  9  2  0
 11 12  2  0
 12  2  1  0
 13 14  1  0
 14 15  1  0
 17 16  1  1
 16 15  1  0
 17 18  1  0
 19 17  1  0
 20 19  2  0
 21 22  1  0
 21 19  1  0
 23 22  1  0
 24 23  1  0
 24 25  1  0
 25 26  1  1
 25 21  1  0
 26 28  1  0
 27 26  2  0
M  END
$$$$
