YMP.pdb
     RDKit          3D

 28 29  0  0  1  0  0  0  0  0999 V2000
    7.7683  -14.3455   14.9543 O   0  0  0  0  0  0  0  0  0  0  0  0
    7.7456  -14.2538   16.3394 C   0  0  0  0  0  0  0  0  0  0  0  0
    7.1744  -15.2367   17.1252 C   0  0  0  0  0  0  0  0  0  0  0  0
    7.1511  -15.1476   18.4960 C   0  0  0  0  0  0  0  0  0  0  0  0
    7.7011  -14.0648   19.1512 C   0  0  0  0  0  0  0  0  0  0  0  0
    7.6717  -13.9758   20.6463 C   0  0  0  0  0  0  0  0  0  0  0  0
    8.8934  -14.6796   21.1502 C   0  0  2  0  0  0  0  0  0  0  0  0
    8.8028  -16.0779   20.8220 N   0  0  0  0  0  0  0  0  0  0  0  0
    9.1836  -14.4563   22.5781 C   0  0  0  0  0  0  0  0  0  0  0  0
   10.1046  -13.7182   22.9506 O   0  0  0  0  0  0  0  0  0  0  0  0
    8.2705  -13.0856   18.3611 C   0  0  0  0  0  0  0  0  0  0  0  0
    8.2978  -13.1682   16.9838 C   0  0  0  0  0  0  0  0  0  0  0  0
    5.9070  -11.6497   25.8892 C   0  0  0  0  0  0  0  0  0  0  0  0
    6.4515  -12.4816   27.4028 S   0  0  0  0  0  0  0  0  0  0  0  0
    6.9599  -14.2183   27.0182 C   0  0  0  0  0  0  0  0  0  0  0  0
    7.1268  -14.3811   25.5822 C   0  0  0  0  0  0  0  0  0  0  0  0
    8.4142  -14.7888   24.9707 C   0  0  2  0  0  0  0  0  0  0  0  0
    8.3797  -15.1123   23.5752 N   0  0  0  0  0  0  0  0  0  0  0  0
    9.3051  -15.6142   25.7369 C   0  0  0  0  0  0  0  0  0  0  0  0
    9.8064  -16.6812   25.1714 O   0  0  0  0  0  0  0  0  0  0  0  0
    9.7198  -15.4358   27.0405 N   0  0  0  0  0  0  0  0  0  0  0  0
    9.3276  -14.5202   28.0681 C   0  0  0  0  0  0  0  0  0  0  0  0
   10.7163  -13.9326   28.4075 C   0  0  0  0  0  0  0  0  0  0  0  0
   11.6234  -15.1656   28.3356 C   0  0  0  0  0  0  0  0  0  0  0  0
   10.7771  -16.2237   27.6992 C   0  0  1  0  0  0  0  0  0  0  0  0
   10.2272  -17.1268   28.7292 C   0  0  0  0  0  0  0  0  0  0  0  0
    8.9864  -17.1005   29.0383 O   0  0  0  0  0  0  0  0  0  0  0  0
   10.9767  -18.0539   29.4350 O   0  0  0  0  0  0  0  0  0  0  0  0
  2  1  1  0
  3  2  2  0
  4  3  1  0
  5 11  1  0
  5  4  2  0
  6  5  1  0
  7  6  1  0
  7  8  1  1
  9 18  1  0
  9  7  1  0
 10  9  2  0
 11 12  2  0
 12  2  1  0
 13 14  1  0
 14 15  1  0
 17 16  1  1
 16 15  1  0
 17 18  1  0
 19 17  1  0
 20 19  2  0
 21 22  1  0
 21 19  1  0
 23 22  1  0
 24 23  1  0
 24 25  1  0
 25 26  1  1
 25 21  1  0
 26 28  1  0
 27 26  2  0
M  END
$$$$
