YMP.pdb
     RDKit          3D

 28 29  0  0  1  0  0  0  0  0999 V2000
   10.2708  -19.9830   30.3845 O   0  0  0  0  0  0  0  0  0  0  0  0
    9.8283  -19.7120   29.0968 C   0  0  0  0  0  0  0  0  0  0  0  0
    9.9887  -20.6181   28.0657 C   0  0  0  0  0  0  0  0  0  0  0  0
    9.5515  -20.3515   26.7908 C   0  0  0  0  0  0  0  0  0  0  0  0
    8.9290  -19.1589   26.4835 C   0  0  0  0  0  0  0  0  0  0  0  0
    8.4550  -18.8765   25.0908 C   0  0  0  0  0  0  0  0  0  0  0  0
    6.9586  -18.8511   25.1351 C   0  0  2  0  0  0  0  0  0  0  0  0
    6.4527  -20.1481   24.7705 N   0  0  0  0  0  0  0  0  0  0  0  0
    6.3410  -17.7672   24.3499 C   0  0  0  0  0  0  0  0  0  0  0  0
    5.6869  -17.9938   23.3239 O   0  0  0  0  0  0  0  0  0  0  0  0
    8.7715  -18.2572   27.5176 C   0  0  0  0  0  0  0  0  0  0  0  0
    9.2080  -18.5179   28.8006 C   0  0  0  0  0  0  0  0  0  0  0  0
    8.3687  -11.9310   27.8149 C   0  0  0  0  0  0  0  0  0  0  0  0
    7.8217  -12.1207   26.0989 S   0  0  0  0  0  0  0  0  0  0  0  0
    6.9075  -13.7171   25.9028 C   0  0  0  0  0  0  0  0  0  0  0  0
    6.5995  -13.9444   24.4993 C   0  0  0  0  0  0  0  0  0  0  0  0
    6.6347  -15.2926   23.8838 C   0  0  2  0  0  0  0  0  0  0  0  0
    6.4988  -16.4029   24.7794 N   0  0  0  0  0  0  0  0  0  0  0  0
    7.5486  -15.5274   22.8014 C   0  0  0  0  0  0  0  0  0  0  0  0
    8.0322  -16.7321   22.6451 O   0  0  0  0  0  0  0  0  0  0  0  0
    8.0113  -14.6232   21.8679 N   0  0  0  0  0  0  0  0  0  0  0  0
    7.9057  -13.2002   21.7581 C   0  0  0  0  0  0  0  0  0  0  0  0
    7.3006  -13.1141   20.3384 C   0  0  0  0  0  0  0  0  0  0  0  0
    8.0632  -14.2108   19.5873 C   0  0  0  0  0  0  0  0  0  0  0  0
    8.7706  -14.9829   20.6569 C   0  0  1  0  0  0  0  0  0  0  0  0
   10.1811  -14.5569   20.7471 C   0  0  0  0  0  0  0  0  0  0  0  0
   10.5944  -13.8379   21.7209 O   0  0  0  0  0  0  0  0  0  0  0  0
   11.1556  -14.8822   19.8176 O   0  0  0  0  0  0  0  0  0  0  0  0
  2  1  1  0
  3  2  2  0
  4  3  1  0
  5 11  1  0
  5  4  2  0
  6  5  1  0
  7  6  1  0
  7  8  1  6
  9 18  1  0
  9  7  1  0
 10  9  2  0
 11 12  2  0
 12  2  1  0
 13 14  1  0
 14 15  1  0
 17 16  1  1
 16 15  1  0
 17 18  1  0
 19 17  1  0
 20 19  2  0
 21 22  1  0
 21 19  1  0
 23 22  1  0
 24 23  1  0
 24 25  1  0
 25 26  1  1
 25 21  1  0
 26 28  1  0
 27 26  2  0
M  END
$$$$
