YMP.pdb
     RDKit          3D

 28 29  0  0  1  0  0  0  0  0999 V2000
    7.2446  -24.8415   27.9588 O   0  0  0  0  0  0  0  0  0  0  0  0
    6.9112  -23.6033   27.4266 C   0  0  0  0  0  0  0  0  0  0  0  0
    7.1873  -23.2773   26.1122 C   0  0  0  0  0  0  0  0  0  0  0  0
    6.8582  -22.0525   25.5839 C   0  0  0  0  0  0  0  0  0  0  0  0
    6.2333  -21.0888   26.3488 C   0  0  0  0  0  0  0  0  0  0  0  0
    5.8776  -19.7560   25.7647 C   0  0  0  0  0  0  0  0  0  0  0  0
    7.1469  -19.1517   25.2493 C   0  0  2  0  0  0  0  0  0  0  0  0
    8.0565  -18.9547   26.3470 N   0  0  0  0  0  0  0  0  0  0  0  0
    6.9616  -17.9285   24.4479 C   0  0  0  0  0  0  0  0  0  0  0  0
    6.1740  -17.8846   23.4942 O   0  0  0  0  0  0  0  0  0  0  0  0
    5.9599  -21.4200   27.6614 C   0  0  0  0  0  0  0  0  0  0  0  0
    6.2874  -22.6480   28.1991 C   0  0  0  0  0  0  0  0  0  0  0  0
    6.0470  -11.3476   26.9405 C   0  0  0  0  0  0  0  0  0  0  0  0
    7.4090  -12.5409   26.9148 S   0  0  0  0  0  0  0  0  0  0  0  0
    6.8795  -14.0814   26.0376 C   0  0  0  0  0  0  0  0  0  0  0  0
    7.6812  -14.2713   24.8386 C   0  0  0  0  0  0  0  0  0  0  0  0
    7.6368  -15.5193   24.0396 C   0  0  2  0  0  0  0  0  0  0  0  0
    7.7147  -16.7467   24.7749 N   0  0  0  0  0  0  0  0  0  0  0  0
    8.3265  -15.5510   22.7806 C   0  0  0  0  0  0  0  0  0  0  0  0
    8.8543  -16.6810   22.3882 O   0  0  0  0  0  0  0  0  0  0  0  0
    8.5233  -14.5139   21.8925 N   0  0  0  0  0  0  0  0  0  0  0  0
    8.3021  -13.1028   21.9822 C   0  0  0  0  0  0  0  0  0  0  0  0
    7.4108  -12.9206   20.7326 C   0  0  0  0  0  0  0  0  0  0  0  0
    8.0724  -13.8568   19.7156 C   0  0  0  0  0  0  0  0  0  0  0  0
    9.0368  -14.6714   20.5199 C   0  0  1  0  0  0  0  0  0  0  0  0
   10.4034  -14.1312   20.3801 C   0  0  0  0  0  0  0  0  0  0  0  0
   10.9500  -13.4613   21.3225 O   0  0  0  0  0  0  0  0  0  0  0  0
   11.1944  -14.2912   19.2539 O   0  0  0  0  0  0  0  0  0  0  0  0
  2  1  1  0
  3  2  2  0
  4  3  1  0
  5 11  1  0
  5  4  2  0
  6  5  1  0
  7  6  1  0
  7  8  1  1
  9 18  1  0
  9  7  1  0
 10  9  2  0
 11 12  2  0
 12  2  1  0
 13 14  1  0
 14 15  1  0
 17 16  1  1
 16 15  1  0
 17 18  1  0
 19 17  1  0
 20 19  2  0
 21 22  1  0
 21 19  1  0
 23 22  1  0
 24 23  1  0
 24 25  1  0
 25 26  1  1
 25 21  1  0
 26 28  1  0
 27 26  2  0
M  END
$$$$
