YMP.pdb
     RDKit          3D

 28 29  0  0  1  0  0  0  0  0999 V2000
   12.6627  -16.9111   31.4799 O   0  0  0  0  0  0  0  0  0  0  0  0
   12.1532  -16.7892   30.1942 C   0  0  0  0  0  0  0  0  0  0  0  0
   11.4293  -15.6799   29.7998 C   0  0  0  0  0  0  0  0  0  0  0  0
   10.9243  -15.5576   28.5280 C   0  0  0  0  0  0  0  0  0  0  0  0
   11.1199  -16.5445   27.5834 C   0  0  0  0  0  0  0  0  0  0  0  0
   10.5661  -16.4028   26.1988 C   0  0  0  0  0  0  0  0  0  0  0  0
    9.1471  -16.8785   26.2447 C   0  0  2  0  0  0  0  0  0  0  0  0
    9.1310  -18.2934   26.5072 N   0  0  0  0  0  0  0  0  0  0  0  0
    8.3418  -16.5179   25.0639 C   0  0  0  0  0  0  0  0  0  0  0  0
    8.0654  -17.3433   24.1841 O   0  0  0  0  0  0  0  0  0  0  0  0
   11.8439  -17.6506   27.9830 C   0  0  0  0  0  0  0  0  0  0  0  0
   12.3542  -17.7805   29.2587 C   0  0  0  0  0  0  0  0  0  0  0  0
    5.6535  -11.0390   27.2348 C   0  0  0  0  0  0  0  0  0  0  0  0
    6.7401  -11.5277   25.8709 S   0  0  0  0  0  0  0  0  0  0  0  0
    5.8858  -12.7714   24.8004 C   0  0  0  0  0  0  0  0  0  0  0  0
    6.7959  -13.2508   23.7717 C   0  0  0  0  0  0  0  0  0  0  0  0
    7.2719  -14.6538   23.7195 C   0  0  2  0  0  0  0  0  0  0  0  0
    7.8601  -15.1695   24.9201 N   0  0  0  0  0  0  0  0  0  0  0  0
    7.9039  -15.1180   22.5166 C   0  0  0  0  0  0  0  0  0  0  0  0
    8.3103  -16.3597   22.4661 O   0  0  0  0  0  0  0  0  0  0  0  0
    8.1579  -14.4084   21.3611 N   0  0  0  0  0  0  0  0  0  0  0  0
    8.0544  -13.0196   21.0314 C   0  0  0  0  0  0  0  0  0  0  0  0
    7.1443  -13.1363   19.7875 C   0  0  0  0  0  0  0  0  0  0  0  0
    7.6975  -14.3833   19.0893 C   0  0  0  0  0  0  0  0  0  0  0  0
    8.6161  -15.0057   20.0940 C   0  0  1  0  0  0  0  0  0  0  0  0
   10.0173  -14.6502   19.7950 C   0  0  0  0  0  0  0  0  0  0  0  0
   10.6130  -13.7146   20.4317 O   0  0  0  0  0  0  0  0  0  0  0  0
   10.7914  -15.2729   18.8293 O   0  0  0  0  0  0  0  0  0  0  0  0
  2  1  1  0
  3  2  2  0
  4  3  1  0
  5 11  1  0
  5  4  2  0
  6  5  1  0
  7  6  1  0
  7  8  1  6
  9 18  1  0
  9  7  1  0
 10  9  2  0
 11 12  2  0
 12  2  1  0
 13 14  1  0
 14 15  1  0
 17 16  1  1
 16 15  1  0
 17 18  1  0
 19 17  1  0
 20 19  2  0
 21 22  1  0
 21 19  1  0
 23 22  1  0
 24 23  1  0
 24 25  1  0
 25 26  1  6
 25 21  1  0
 26 28  1  0
 27 26  2  0
M  END
$$$$
