HVQ.pdb
     RDKit          3D

 27 27  0  0  1  0  0  0  0  0999 V2000
    9.0596  -16.6730   17.7588 N   0  0  0  0  0  0  0  0  0  0  0  0
   10.0173  -15.6890   18.1665 C   0  0  1  0  0  0  0  0  0  0  0  0
   10.2393  -14.6401   17.1156 C   0  0  0  0  0  0  0  0  0  0  0  0
   10.1652  -15.1444   15.7343 C   0  0  0  0  0  0  0  0  0  0  0  0
    9.0142  -15.1899   14.9454 C   0  0  0  0  0  0  0  0  0  0  0  0
    9.3187  -15.7057   13.7555 N   0  0  0  0  0  0  0  0  0  0  0  0
   10.6286  -15.9785   13.7931 C   0  0  0  0  0  0  0  0  0  0  0  0
   11.1351  -15.6406   14.9824 N   0  0  0  0  0  0  0  0  0  0  0  0
    9.8192  -15.1517   19.5257 C   0  0  0  0  0  0  0  0  0  0  0  0
   10.6813  -14.3419   19.9687 O   0  0  0  0  0  0  0  0  0  0  0  0
    6.8915  -14.1240   23.3346 C   0  0  0  0  0  0  0  0  0  0  0  0
    7.1244  -14.6602   21.9679 C   0  0  1  0  0  0  0  0  0  0  0  0
    6.7432  -13.5278   20.9987 C   0  0  0  0  0  0  0  0  0  0  0  0
    8.5761  -14.9472   21.7010 C   0  0  2  0  0  0  0  0  0  0  0  0
    8.7135  -15.5105   20.3383 N   0  0  0  0  0  0  0  0  0  0  0  0
    9.1868  -15.9296   22.6188 C   0  0  0  0  0  0  0  0  0  0  0  0
    9.2113  -17.1745   22.3095 O   0  0  0  0  0  0  0  0  0  0  0  0
   12.4590  -13.9089   27.4863 N   0  0  0  0  0  0  0  0  0  0  0  0
   11.0580  -13.9996   27.3292 C   0  0  0  0  0  0  0  0  0  0  0  0
   10.3335  -13.5319   28.2533 O   0  0  0  0  0  0  0  0  0  0  0  0
   10.4360  -14.6187   26.1283 C   0  0  0  0  0  0  0  0  0  0  0  0
   10.8979  -16.0495   25.9565 C   0  0  0  0  0  0  0  0  0  0  0  0
   10.2886  -16.7041   24.7478 C   0  0  2  0  0  0  0  0  0  0  0  0
    9.7834  -15.6370   23.8692 N   0  0  0  0  0  0  0  0  0  0  0  0
    9.2170  -17.6554   25.0905 C   0  0  0  0  0  0  0  0  0  0  0  0
    7.9826  -17.3717   24.9166 O   0  0  0  0  0  0  0  0  0  0  0  0
    9.4792  -18.9083   25.6197 O   0  0  0  0  0  0  0  0  0  0  0  0
  2  1  1  6
  3  2  1  0
  4  3  1  0
  5  4  2  0
  6  5  1  0
  7  6  1  0
  7  8  2  0
  8  4  1  0
  9 15  1  0
  9  2  1  0
 10  9  2  0
 12 11  1  1
 13 12  1  0
 14 15  1  6
 14 12  1  0
 16 14  1  0
 17 16  2  0
 19 18  1  0
 20 19  2  0
 21 19  1  0
 23 22  1  1
 22 21  1  0
 23 24  1  0
 24 16  1  0
 25 27  1  0
 25 23  1  0
 26 25  2  0
M  END
$$$$
