HVQ.pdb
     RDKit          3D

 27 27  0  0  1  0  0  0  0  0999 V2000
    8.3648  -12.8345   20.6627 N   0  0  0  0  0  0  0  0  0  0  0  0
    7.8925  -13.9729   21.3928 C   0  0  1  0  0  0  0  0  0  0  0  0
    8.1642  -15.2631   20.6749 C   0  0  0  0  0  0  0  0  0  0  0  0
    7.8118  -15.2443   19.2455 C   0  0  0  0  0  0  0  0  0  0  0  0
    6.5457  -15.5016   18.7163 C   0  0  0  0  0  0  0  0  0  0  0  0
    6.5960  -15.3971   17.3891 N   0  0  0  0  0  0  0  0  0  0  0  0
    7.8619  -15.0817   17.0891 C   0  0  0  0  0  0  0  0  0  0  0  0
    8.5904  -14.9904   18.2054 N   0  0  0  0  0  0  0  0  0  0  0  0
    8.2512  -13.9888   22.8233 C   0  0  0  0  0  0  0  0  0  0  0  0
    9.4717  -14.1186   23.1215 O   0  0  0  0  0  0  0  0  0  0  0  0
    6.9843  -12.8463   27.4734 C   0  0  0  0  0  0  0  0  0  0  0  0
    6.6068  -13.0942   26.0572 C   0  0  1  0  0  0  0  0  0  0  0  0
    6.3881  -11.7071   25.4287 C   0  0  0  0  0  0  0  0  0  0  0  0
    7.7196  -13.7241   25.2659 C   0  0  2  0  0  0  0  0  0  0  0  0
    7.2874  -13.8681   23.8568 N   0  0  0  0  0  0  0  0  0  0  0  0
    8.1082  -15.0743   25.7200 C   0  0  0  0  0  0  0  0  0  0  0  0
    7.2686  -16.0426   25.6605 O   0  0  0  0  0  0  0  0  0  0  0  0
   12.9819  -18.8075   24.3806 N   0  0  0  0  0  0  0  0  0  0  0  0
   12.6196  -17.4433   24.4380 C   0  0  0  0  0  0  0  0  0  0  0  0
   13.5042  -16.5895   24.1447 O   0  0  0  0  0  0  0  0  0  0  0  0
   11.2526  -17.0046   24.8269 C   0  0  0  0  0  0  0  0  0  0  0  0
   11.0309  -17.1786   26.3136 C   0  0  0  0  0  0  0  0  0  0  0  0
    9.6351  -16.8052   26.7295 C   0  0  2  0  0  0  0  0  0  0  0  0
    9.3728  -15.4423   26.2399 N   0  0  0  0  0  0  0  0  0  0  0  0
    9.4291  -16.8903   28.1859 C   0  0  0  0  0  0  0  0  0  0  0  0
    9.3240  -15.8447   28.9141 O   0  0  0  0  0  0  0  0  0  0  0  0
    9.3378  -18.1011   28.8523 O   0  0  0  0  0  0  0  0  0  0  0  0
  2  1  1  6
  3  2  1  0
  4  3  1  0
  5  4  2  0
  6  5  1  0
  7  6  1  0
  7  8  2  0
  8  4  1  0
  9 15  1  0
  9  2  1  0
 10  9  2  0
 12 11  1  1
 13 12  1  0
 14 15  1  6
 14 12  1  0
 16 14  1  0
 17 16  2  0
 19 18  1  0
 20 19  2  0
 21 19  1  0
 23 22  1  1
 22 21  1  0
 23 24  1  0
 24 16  1  0
 25 27  1  0
 25 23  1  0
 26 25  2  0
M  END
$$$$
