HVQ.pdb
     RDKit          3D

 27 27  0  0  1  0  0  0  0  0999 V2000
    8.6202  -15.3097   20.5760 N   0  0  0  0  0  0  0  0  0  0  0  0
    7.8563  -15.6481   21.7396 C   0  0  1  0  0  0  0  0  0  0  0  0
    7.5608  -17.1178   21.8197 C   0  0  0  0  0  0  0  0  0  0  0  0
    6.9095  -17.6689   20.6198 C   0  0  0  0  0  0  0  0  0  0  0  0
    5.6414  -18.2514   20.5773 C   0  0  0  0  0  0  0  0  0  0  0  0
    5.3784  -18.6379   19.3298 N   0  0  0  0  0  0  0  0  0  0  0  0
    6.4534  -18.3072   18.6040 C   0  0  0  0  0  0  0  0  0  0  0  0
    7.3718  -17.7254   19.3806 N   0  0  0  0  0  0  0  0  0  0  0  0
    8.3463  -15.0595   23.0001 C   0  0  0  0  0  0  0  0  0  0  0  0
    9.5313  -15.3219   23.3493 O   0  0  0  0  0  0  0  0  0  0  0  0
    5.8628  -13.2518   26.0907 C   0  0  0  0  0  0  0  0  0  0  0  0
    7.1303  -12.6393   25.6134 C   0  0  1  0  0  0  0  0  0  0  0  0
    7.8111  -12.0498   26.8608 C   0  0  0  0  0  0  0  0  0  0  0  0
    8.0946  -13.6581   25.0717 C   0  0  2  0  0  0  0  0  0  0  0  0
    7.5436  -14.2255   23.8197 N   0  0  0  0  0  0  0  0  0  0  0  0
    8.3470  -14.8030   25.9694 C   0  0  0  0  0  0  0  0  0  0  0  0
    7.4699  -15.7308   26.0955 O   0  0  0  0  0  0  0  0  0  0  0  0
   12.2233  -19.2789   27.1682 N   0  0  0  0  0  0  0  0  0  0  0  0
   12.6333  -18.0601   26.5833 C   0  0  0  0  0  0  0  0  0  0  0  0
   13.8245  -17.9813   26.1681 O   0  0  0  0  0  0  0  0  0  0  0  0
   11.7138  -16.8986   26.4506 C   0  0  0  0  0  0  0  0  0  0  0  0
   10.3111  -17.2667   26.8831 C   0  0  0  0  0  0  0  0  0  0  0  0
    9.6423  -16.1602   27.6507 C   0  0  2  0  0  0  0  0  0  0  0  0
    9.5125  -15.0055   26.7476 N   0  0  0  0  0  0  0  0  0  0  0  0
   10.3719  -15.7909   28.8762 C   0  0  0  0  0  0  0  0  0  0  0  0
   10.8596  -14.6210   29.0438 O   0  0  0  0  0  0  0  0  0  0  0  0
   10.5739  -16.6832   29.9162 O   0  0  0  0  0  0  0  0  0  0  0  0
  2  1  1  6
  3  2  1  0
  4  3  1  0
  5  4  2  0
  6  5  1  0
  7  6  1  0
  7  8  2  0
  8  4  1  0
  9 15  1  0
  9  2  1  0
 10  9  2  0
 12 11  1  1
 13 12  1  0
 14 15  1  6
 14 12  1  0
 16 14  1  0
 17 16  2  0
 19 18  1  0
 20 19  2  0
 21 19  1  0
 23 22  1  6
 22 21  1  0
 23 24  1  0
 24 16  1  0
 25 27  1  0
 25 23  1  0
 26 25  2  0
M  END
$$$$
