HVQ.pdb
     RDKit          3D

 27 27  0  0  1  0  0  0  0  0999 V2000
    8.9997  -14.8497   20.8058 N   0  0  0  0  0  0  0  0  0  0  0  0
    8.2813  -15.4407   21.8951 C   0  0  1  0  0  0  0  0  0  0  0  0
    8.2310  -16.9380   21.7990 C   0  0  0  0  0  0  0  0  0  0  0  0
    7.7408  -17.4438   20.5061 C   0  0  0  0  0  0  0  0  0  0  0  0
    6.4954  -17.1619   19.9416 C   0  0  0  0  0  0  0  0  0  0  0  0
    6.3935  -17.7879   18.7701 N   0  0  0  0  0  0  0  0  0  0  0  0
    7.5457  -18.4478   18.6001 C   0  0  0  0  0  0  0  0  0  0  0  0
    8.3534  -18.2397   19.6438 N   0  0  0  0  0  0  0  0  0  0  0  0
    8.6446  -14.9316   23.2308 C   0  0  0  0  0  0  0  0  0  0  0  0
    9.8704  -14.7551   23.4788 O   0  0  0  0  0  0  0  0  0  0  0  0
    7.2449  -12.9119   27.5497 C   0  0  0  0  0  0  0  0  0  0  0  0
    6.9412  -13.3860   26.1739 C   0  0  1  0  0  0  0  0  0  0  0  0
    6.7231  -12.1193   25.3286 C   0  0  0  0  0  0  0  0  0  0  0  0
    8.1040  -14.0981   25.5399 C   0  0  2  0  0  0  0  0  0  0  0  0
    7.6799  -14.6415   24.2292 N   0  0  0  0  0  0  0  0  0  0  0  0
    8.6198  -15.2435   26.3159 C   0  0  0  0  0  0  0  0  0  0  0  0
    7.8283  -16.1841   26.6832 O   0  0  0  0  0  0  0  0  0  0  0  0
   13.8126  -18.3939   25.8334 N   0  0  0  0  0  0  0  0  0  0  0  0
   12.7121  -18.0874   25.0023 C   0  0  0  0  0  0  0  0  0  0  0  0
   12.7919  -18.4090   23.7825 O   0  0  0  0  0  0  0  0  0  0  0  0
   11.4936  -17.4112   25.5221 C   0  0  0  0  0  0  0  0  0  0  0  0
   11.6067  -17.1610   27.0102 C   0  0  0  0  0  0  0  0  0  0  0  0
   10.3539  -16.5593   27.5840 C   0  0  2  0  0  0  0  0  0  0  0  0
    9.9634  -15.4333   26.7206 N   0  0  0  0  0  0  0  0  0  0  0  0
   10.5172  -16.1200   28.9808 C   0  0  0  0  0  0  0  0  0  0  0  0
   10.5780  -14.8823   29.2955 O   0  0  0  0  0  0  0  0  0  0  0  0
   10.6149  -17.0154   30.0331 O   0  0  0  0  0  0  0  0  0  0  0  0
  2  1  1  6
  3  2  1  0
  4  3  1  0
  5  4  2  0
  6  5  1  0
  7  6  1  0
  7  8  2  0
  8  4  1  0
  9 15  1  0
  9  2  1  0
 10  9  2  0
 12 11  1  1
 13 12  1  0
 14 15  1  6
 14 12  1  0
 16 14  1  0
 17 16  2  0
 19 18  1  0
 20 19  2  0
 21 19  1  0
 23 22  1  6
 22 21  1  0
 23 24  1  0
 24 16  1  0
 25 27  1  0
 25 23  1  0
 26 25  2  0
M  END
$$$$
