HVQ.pdb
     RDKit          3D

 27 27  0  0  1  0  0  0  0  0999 V2000
    8.7358  -15.5429   20.8268 N   0  0  0  0  0  0  0  0  0  0  0  0
    7.8445  -15.6977   21.9375 C   0  0  1  0  0  0  0  0  0  0  0  0
    7.3897  -17.1181   22.1095 C   0  0  0  0  0  0  0  0  0  0  0  0
    6.7816  -17.7072   20.9049 C   0  0  0  0  0  0  0  0  0  0  0  0
    6.7411  -17.1151   19.6413 C   0  0  0  0  0  0  0  0  0  0  0  0
    6.1145  -17.9310   18.7949 N   0  0  0  0  0  0  0  0  0  0  0  0
    5.7687  -19.0105   19.5069 C   0  0  0  0  0  0  0  0  0  0  0  0
    6.1703  -18.8741   20.7739 N   0  0  0  0  0  0  0  0  0  0  0  0
    8.2852  -15.0478   23.1859 C   0  0  0  0  0  0  0  0  0  0  0  0
    9.5249  -15.0153   23.4253 O   0  0  0  0  0  0  0  0  0  0  0  0
    7.1958  -12.4911   27.3156 C   0  0  0  0  0  0  0  0  0  0  0  0
    6.7966  -13.0581   26.0007 C   0  0  1  0  0  0  0  0  0  0  0  0
    6.6359  -11.8566   25.0533 C   0  0  0  0  0  0  0  0  0  0  0  0
    7.8736  -13.9115   25.3901 C   0  0  2  0  0  0  0  0  0  0  0  0
    7.3785  -14.4707   24.1113 N   0  0  0  0  0  0  0  0  0  0  0  0
    8.2848  -15.0650   26.2150 C   0  0  0  0  0  0  0  0  0  0  0  0
    7.5025  -16.0726   26.3524 O   0  0  0  0  0  0  0  0  0  0  0  0
   12.4388  -18.7632   25.0321 N   0  0  0  0  0  0  0  0  0  0  0  0
   12.1460  -19.2522   26.3247 C   0  0  0  0  0  0  0  0  0  0  0  0
   12.6699  -20.3499   26.6682 O   0  0  0  0  0  0  0  0  0  0  0  0
   11.2562  -18.5186   27.2642 C   0  0  0  0  0  0  0  0  0  0  0  0
   10.7726  -17.2226   26.6508 C   0  0  0  0  0  0  0  0  0  0  0  0
    9.8862  -16.4459   27.5845 C   0  0  2  0  0  0  0  0  0  0  0  0
    9.5132  -15.1935   26.9075 N   0  0  0  0  0  0  0  0  0  0  0  0
   10.5233  -16.1723   28.8844 C   0  0  0  0  0  0  0  0  0  0  0  0
   10.9724  -15.0134   29.1845 O   0  0  0  0  0  0  0  0  0  0  0  0
   10.6749  -17.1480   29.8558 O   0  0  0  0  0  0  0  0  0  0  0  0
  2  1  1  6
  3  2  1  0
  4  3  1  0
  5  4  2  0
  6  5  1  0
  7  6  1  0
  7  8  2  0
  8  4  1  0
  9 15  1  0
  9  2  1  0
 10  9  2  0
 12 11  1  1
 13 12  1  0
 14 15  1  6
 14 12  1  0
 16 14  1  0
 17 16  2  0
 19 18  1  0
 20 19  2  0
 21 19  1  0
 23 22  1  6
 22 21  1  0
 23 24  1  0
 24 16  1  0
 25 27  1  0
 25 23  1  0
 26 25  2  0
M  END
$$$$
