HVQ.pdb
     RDKit          3D

 27 27  0  0  1  0  0  0  0  0999 V2000
    9.1828  -15.4747   20.9451 N   0  0  0  0  0  0  0  0  0  0  0  0
    8.2884  -15.7812   22.0213 C   0  0  1  0  0  0  0  0  0  0  0  0
    8.0656  -17.2580   22.1741 C   0  0  0  0  0  0  0  0  0  0  0  0
    7.5143  -17.9124   20.9759 C   0  0  0  0  0  0  0  0  0  0  0  0
    7.9394  -17.6981   19.6635 C   0  0  0  0  0  0  0  0  0  0  0  0
    7.2180  -18.4568   18.8398 N   0  0  0  0  0  0  0  0  0  0  0  0
    6.3597  -19.1327   19.6133 C   0  0  0  0  0  0  0  0  0  0  0  0
    6.5393  -18.8043   20.8959 N   0  0  0  0  0  0  0  0  0  0  0  0
    8.5707  -15.0775   23.2863 C   0  0  0  0  0  0  0  0  0  0  0  0
    9.7533  -15.1153   23.7283 O   0  0  0  0  0  0  0  0  0  0  0  0
    7.0873  -12.0740   26.9574 C   0  0  0  0  0  0  0  0  0  0  0  0
    6.7916  -12.8185   25.7053 C   0  0  1  0  0  0  0  0  0  0  0  0
    6.7381  -11.7624   24.5879 C   0  0  0  0  0  0  0  0  0  0  0  0
    7.8996  -13.7585   25.3183 C   0  0  2  0  0  0  0  0  0  0  0  0
    7.5749  -14.3745   24.0113 N   0  0  0  0  0  0  0  0  0  0  0  0
    8.1148  -14.8751   26.2603 C   0  0  0  0  0  0  0  0  0  0  0  0
    7.5951  -16.0250   26.0289 O   0  0  0  0  0  0  0  0  0  0  0  0
   12.4386  -17.2252   24.9400 N   0  0  0  0  0  0  0  0  0  0  0  0
   12.4917  -17.8335   26.2139 C   0  0  0  0  0  0  0  0  0  0  0  0
   13.3829  -18.7084   26.4086 O   0  0  0  0  0  0  0  0  0  0  0  0
   11.5434  -17.4732   27.3017 C   0  0  0  0  0  0  0  0  0  0  0  0
   10.5991  -16.3781   26.8557 C   0  0  0  0  0  0  0  0  0  0  0  0
    9.6336  -15.9819   27.9380 C   0  0  2  0  0  0  0  0  0  0  0  0
    8.8737  -14.8181   27.4544 N   0  0  0  0  0  0  0  0  0  0  0  0
   10.2993  -15.6814   29.2176 C   0  0  0  0  0  0  0  0  0  0  0  0
   10.4254  -14.4838   29.6470 O   0  0  0  0  0  0  0  0  0  0  0  0
   10.8271  -16.6719   30.0294 O   0  0  0  0  0  0  0  0  0  0  0  0
  2  1  1  6
  3  2  1  0
  4  3  1  0
  5  4  2  0
  6  5  1  0
  7  6  1  0
  7  8  2  0
  8  4  1  0
  9 15  1  0
  9  2  1  0
 10  9  2  0
 12 11  1  1
 13 12  1  0
 14 15  1  6
 14 12  1  0
 16 14  1  0
 17 16  2  0
 19 18  1  0
 20 19  2  0
 21 19  1  0
 23 22  1  6
 22 21  1  0
 23 24  1  0
 24 16  1  0
 25 27  1  0
 25 23  1  0
 26 25  2  0
M  END
$$$$
