HVQ.pdb
     RDKit          3D

 27 27  0  0  1  0  0  0  0  0999 V2000
    8.8634  -15.5593   20.1906 N   0  0  0  0  0  0  0  0  0  0  0  0
    7.9420  -15.4973   21.2857 C   0  0  1  0  0  0  0  0  0  0  0  0
    7.0615  -16.7109   21.3590 C   0  0  0  0  0  0  0  0  0  0  0  0
    6.5547  -17.1687   20.0546 C   0  0  0  0  0  0  0  0  0  0  0  0
    6.8432  -16.5853   18.8195 C   0  0  0  0  0  0  0  0  0  0  0  0
    6.2139  -17.2601   17.8585 N   0  0  0  0  0  0  0  0  0  0  0  0
    5.5455  -18.2442   18.4723 C   0  0  0  0  0  0  0  0  0  0  0  0
    5.7516  -18.1875   19.7912 N   0  0  0  0  0  0  0  0  0  0  0  0
    8.5340  -15.0999   22.5768 C   0  0  0  0  0  0  0  0  0  0  0  0
    9.7540  -15.3635   22.7696 O   0  0  0  0  0  0  0  0  0  0  0  0
    7.5991  -11.9213   24.8945 C   0  0  0  0  0  0  0  0  0  0  0  0
    7.6229  -13.1914   25.6665 C   0  0  1  0  0  0  0  0  0  0  0  0
    6.1611  -13.6639   25.7485 C   0  0  0  0  0  0  0  0  0  0  0  0
    8.3610  -14.2880   24.9495 C   0  0  2  0  0  0  0  0  0  0  0  0
    7.7905  -14.4455   23.5920 N   0  0  0  0  0  0  0  0  0  0  0  0
    8.2690  -15.6134   25.5938 C   0  0  0  0  0  0  0  0  0  0  0  0
    7.4847  -16.5101   25.1177 O   0  0  0  0  0  0  0  0  0  0  0  0
   12.3979  -17.7863   23.5528 N   0  0  0  0  0  0  0  0  0  0  0  0
   12.3423  -18.7981   24.5371 C   0  0  0  0  0  0  0  0  0  0  0  0
   13.1354  -19.7750   24.4183 O   0  0  0  0  0  0  0  0  0  0  0  0
   11.3929  -18.7368   25.6804 C   0  0  0  0  0  0  0  0  0  0  0  0
   10.6178  -17.4373   25.6711 C   0  0  0  0  0  0  0  0  0  0  0  0
    9.6316  -17.3535   26.8029 C   0  0  2  0  0  0  0  0  0  0  0  0
    8.9898  -16.0306   26.7390 N   0  0  0  0  0  0  0  0  0  0  0  0
   10.2519  -17.5746   28.1208 C   0  0  0  0  0  0  0  0  0  0  0  0
   10.3622  -18.7438   28.6264 O   0  0  0  0  0  0  0  0  0  0  0  0
   10.7505  -16.5357   28.8893 O   0  0  0  0  0  0  0  0  0  0  0  0
  2  1  1  6
  3  2  1  0
  4  3  1  0
  5  4  2  0
  6  5  1  0
  7  6  1  0
  7  8  2  0
  8  4  1  0
  9 15  1  0
  9  2  1  0
 10  9  2  0
 12 11  1  6
 13 12  1  0
 14 15  1  6
 14 12  1  0
 16 14  1  0
 17 16  2  0
 19 18  1  0
 20 19  2  0
 21 19  1  0
 23 22  1  6
 22 21  1  0
 23 24  1  0
 24 16  1  0
 25 27  1  0
 25 23  1  0
 26 25  2  0
M  END
$$$$
