HVQ.pdb
     RDKit          3D

 27 27  0  0  1  0  0  0  0  0999 V2000
    8.7292  -15.0081   20.7727 N   0  0  0  0  0  0  0  0  0  0  0  0
    8.0108  -15.5542   21.8852 C   0  0  1  0  0  0  0  0  0  0  0  0
    7.9651  -17.0544   21.8529 C   0  0  0  0  0  0  0  0  0  0  0  0
    7.4411  -17.6155   20.5966 C   0  0  0  0  0  0  0  0  0  0  0  0
    6.1264  -18.0308   20.3769 C   0  0  0  0  0  0  0  0  0  0  0  0
    6.0125  -18.4834   19.1292 N   0  0  0  0  0  0  0  0  0  0  0  0
    7.2248  -18.3565   18.5759 C   0  0  0  0  0  0  0  0  0  0  0  0
    8.0813  -17.8350   19.4589 N   0  0  0  0  0  0  0  0  0  0  0  0
    8.3705  -14.9876   23.1985 C   0  0  0  0  0  0  0  0  0  0  0  0
    9.5842  -15.0325   23.5452 O   0  0  0  0  0  0  0  0  0  0  0  0
    7.0361  -12.4702   27.2841 C   0  0  0  0  0  0  0  0  0  0  0  0
    6.7097  -13.0351   25.9484 C   0  0  1  0  0  0  0  0  0  0  0  0
    6.5465  -11.8290   25.0075 C   0  0  0  0  0  0  0  0  0  0  0  0
    7.8390  -13.8447   25.3735 C   0  0  2  0  0  0  0  0  0  0  0  0
    7.4147  -14.4066   24.0706 N   0  0  0  0  0  0  0  0  0  0  0  0
    8.2565  -14.9925   26.2033 C   0  0  0  0  0  0  0  0  0  0  0  0
    7.6389  -16.1134   26.1133 O   0  0  0  0  0  0  0  0  0  0  0  0
   13.7368  -18.0926   26.0580 N   0  0  0  0  0  0  0  0  0  0  0  0
   12.4330  -18.6231   26.1779 C   0  0  0  0  0  0  0  0  0  0  0  0
   12.1112  -19.5673   25.4017 O   0  0  0  0  0  0  0  0  0  0  0  0
   11.4577  -18.1050   27.1743 C   0  0  0  0  0  0  0  0  0  0  0  0
   10.8482  -16.8011   26.7074 C   0  0  0  0  0  0  0  0  0  0  0  0
    9.8515  -16.2532   27.6909 C   0  0  2  0  0  0  0  0  0  0  0  0
    9.3214  -14.9972   27.1366 N   0  0  0  0  0  0  0  0  0  0  0  0
   10.4275  -16.0363   29.0296 C   0  0  0  0  0  0  0  0  0  0  0  0
   10.6736  -14.8638   29.4757 O   0  0  0  0  0  0  0  0  0  0  0  0
   10.7367  -17.0833   29.8822 O   0  0  0  0  0  0  0  0  0  0  0  0
  2  1  1  6
  3  2  1  0
  4  3  1  0
  5  4  2  0
  6  5  1  0
  7  6  1  0
  7  8  2  0
  8  4  1  0
  9 15  1  0
  9  2  1  0
 10  9  2  0
 12 11  1  1
 13 12  1  0
 14 15  1  6
 14 12  1  0
 16 14  1  0
 17 16  2  0
 19 18  1  0
 20 19  2  0
 21 19  1  0
 23 22  1  6
 22 21  1  0
 23 24  1  0
 24 16  1  0
 25 27  1  0
 25 23  1  0
 26 25  2  0
M  END
$$$$
