HVQ.pdb
     RDKit          3D

 27 27  0  0  1  0  0  0  0  0999 V2000
    7.1434  -16.1467   20.8066 N   0  0  0  0  0  0  0  0  0  0  0  0
    6.4834  -16.1965   22.0770 C   0  0  1  0  0  0  0  0  0  0  0  0
    5.9469  -17.5639   22.3873 C   0  0  0  0  0  0  0  0  0  0  0  0
    5.0770  -18.1231   21.3393 C   0  0  0  0  0  0  0  0  0  0  0  0
    3.7584  -17.7402   21.0866 C   0  0  0  0  0  0  0  0  0  0  0  0
    3.2817  -18.4559   20.0691 N   0  0  0  0  0  0  0  0  0  0  0  0
    4.2747  -19.2694   19.6898 C   0  0  0  0  0  0  0  0  0  0  0  0
    5.3520  -19.0679   20.4539 N   0  0  0  0  0  0  0  0  0  0  0  0
    7.2227  -15.5697   23.1887 C   0  0  0  0  0  0  0  0  0  0  0  0
    8.4192  -15.9286   23.3748 O   0  0  0  0  0  0  0  0  0  0  0  0
    7.3865  -12.3317   26.9647 C   0  0  0  0  0  0  0  0  0  0  0  0
    6.7010  -12.8870   25.7683 C   0  0  1  0  0  0  0  0  0  0  0  0
    6.8501  -11.8255   24.6647 C   0  0  0  0  0  0  0  0  0  0  0  0
    7.3787  -14.1194   25.2360 C   0  0  2  0  0  0  0  0  0  0  0  0
    6.6434  -14.5962   24.0422 N   0  0  0  0  0  0  0  0  0  0  0  0
    7.4177  -15.2547   26.1792 C   0  0  0  0  0  0  0  0  0  0  0  0
    6.3336  -15.8524   26.5162 O   0  0  0  0  0  0  0  0  0  0  0  0
    7.0008  -20.3087   25.3668 N   0  0  0  0  0  0  0  0  0  0  0  0
    8.3979  -20.1048   25.4141 C   0  0  0  0  0  0  0  0  0  0  0  0
    9.1305  -20.9202   24.7849 O   0  0  0  0  0  0  0  0  0  0  0  0
    9.0067  -18.9781   26.1706 C   0  0  0  0  0  0  0  0  0  0  0  0
    7.9392  -18.1045   26.7926 C   0  0  0  0  0  0  0  0  0  0  0  0
    8.5226  -16.9968   27.6253 C   0  0  2  0  0  0  0  0  0  0  0  0
    8.5802  -15.7897   26.7854 N   0  0  0  0  0  0  0  0  0  0  0  0
    9.8530  -17.3263   28.1658 C   0  0  0  0  0  0  0  0  0  0  0  0
   10.9182  -16.7840   27.7121 O   0  0  0  0  0  0  0  0  0  0  0  0
   10.0310  -18.2389   29.1924 O   0  0  0  0  0  0  0  0  0  0  0  0
  2  1  1  6
  3  2  1  0
  4  3  1  0
  5  4  2  0
  6  5  1  0
  7  6  1  0
  7  8  2  0
  8  4  1  0
  9 15  1  0
  9  2  1  0
 10  9  2  0
 12 11  1  1
 13 12  1  0
 14 15  1  6
 14 12  1  0
 16 14  1  0
 17 16  2  0
 19 18  1  0
 20 19  2  0
 21 19  1  0
 23 22  1  6
 22 21  1  0
 23 24  1  0
 24 16  1  0
 25 27  1  0
 25 23  1  0
 26 25  2  0
M  END
$$$$
