FTH.pdb
     RDKit          3D

 29 30  0  0  1  0  0  0  0  0999 V2000
   22.5708  -10.9245  -17.1942 N   0  0  0  0  0  0  0  0  0  0  0  0
   22.5931  -10.5201  -15.7945 C   0  0  1  0  0  0  0  0  0  0  0  0
   23.9793   -9.9588  -15.5341 C   0  0  0  0  0  0  0  0  0  0  0  0
   25.0152  -11.0247  -15.6481 C   0  0  0  0  0  0  0  0  0  0  0  0
   24.9630  -12.1413  -14.8594 C   0  0  0  0  0  0  0  0  0  0  0  0
   25.9262  -13.1044  -14.9842 C   0  0  0  0  0  0  0  0  0  0  0  0
   26.9688  -12.9698  -15.9067 C   0  0  0  0  0  0  0  0  0  0  0  0
   27.0380  -11.8517  -16.7099 C   0  0  0  0  0  0  0  0  0  0  0  0
   26.0493  -10.9073  -16.5523 C   0  0  0  0  0  0  0  0  0  0  0  0
   21.5540   -9.4728  -15.6254 C   0  0  0  0  0  0  0  0  0  0  0  0
   21.4035   -8.5219  -16.4660 O   0  0  0  0  0  0  0  0  0  0  0  0
   18.1085   -9.6489  -16.0203 C   0  0  0  0  0  0  0  0  0  0  0  0
   18.2563   -9.1917  -14.5845 C   0  0  1  0  0  0  0  0  0  0  0  0
   18.2523  -10.3261  -13.7878 O   0  0  0  0  0  0  0  0  0  0  0  0
   19.6032   -8.4862  -14.4019 C   0  0  2  0  0  0  0  0  0  0  0  0
   20.6580   -9.4542  -14.5218 N   0  0  0  0  0  0  0  0  0  0  0  0
   19.6429   -7.7771  -13.0952 C   0  0  0  0  0  0  0  0  0  0  0  0
   20.2948   -8.3049  -12.1665 O   0  0  0  0  0  0  0  0  0  0  0  0
   18.9884   -6.5527  -12.8558 N   0  0  0  0  0  0  0  0  0  0  0  0
   18.9928   -5.8840  -11.5535 C   0  0  1  0  0  0  0  0  0  0  0  0
   18.1869   -4.6170  -11.7404 C   0  0  0  0  0  0  0  0  0  0  0  0
   18.1211   -3.7829  -10.5174 C   0  0  0  0  0  0  0  0  0  0  0  0
   18.7870   -3.9622   -9.3249 C   0  0  0  0  0  0  0  0  0  0  0  0
   18.4007   -2.9406   -8.5044 N   0  0  0  0  0  0  0  0  0  0  0  0
   17.5282   -2.1525   -9.1549 C   0  0  0  0  0  0  0  0  0  0  0  0
   17.3713   -2.6769  -10.3699 N   0  0  0  0  0  0  0  0  0  0  0  0
   18.3891   -6.7658  -10.5339 C   0  0  0  0  0  0  0  0  0  0  0  0
   18.9113   -6.7965   -9.2601 O   0  0  0  0  0  0  0  0  0  0  0  0
   17.4066   -7.4897  -10.8065 O   0  0  0  0  0  0  0  0  0  0  0  0
  2  1  1  6
  2  3  1  0
  4  3  1  0
  4  9  1  0
  5  4  2  0
  6  5  1  0
  6  7  2  0
  7  8  1  0
  8  9  2  0
 10  2  1  0
 11 10  2  0
 13 12  1  6
 14 13  1  0
 15 13  1  0
 15 16  1  1
 16 10  1  0
 17 15  1  0
 18 17  2  0
 19 17  1  0
 20 21  1  6
 20 19  1  0
 21 22  1  0
 22 26  1  0
 23 22  2  0
 23 24  1  0
 24 25  1  0
 26 25  2  0
 27 20  1  0
 27 28  1  0
 29 27  2  0
M  END
$$$$
