FTH.pdb
     RDKit          3D

 29 30  0  0  1  0  0  0  0  0999 V2000
   27.3854  -22.8173  -17.1949 N   0  0  0  0  0  0  0  0  0  0  0  0
   27.6640  -24.2279  -16.9588 C   0  0  1  0  0  0  0  0  0  0  0  0
   26.4458  -24.9912  -17.4468 C   0  0  0  0  0  0  0  0  0  0  0  0
   25.2827  -24.7732  -16.5403 C   0  0  0  0  0  0  0  0  0  0  0  0
   24.3685  -23.7882  -16.7961 C   0  0  0  0  0  0  0  0  0  0  0  0
   23.3102  -23.6093  -15.9482 C   0  0  0  0  0  0  0  0  0  0  0  0
   23.1432  -24.4175  -14.8191 C   0  0  0  0  0  0  0  0  0  0  0  0
   24.0541  -25.4151  -14.5449 C   0  0  0  0  0  0  0  0  0  0  0  0
   25.1036  -25.5611  -15.4232 C   0  0  0  0  0  0  0  0  0  0  0  0
   28.8660  -24.5760  -17.7581 C   0  0  0  0  0  0  0  0  0  0  0  0
   29.0152  -24.1878  -18.9666 O   0  0  0  0  0  0  0  0  0  0  0  0
   33.4957  -25.3348  -18.3939 C   0  0  0  0  0  0  0  0  0  0  0  0
   32.2783  -24.9159  -17.5971 C   0  0  1  0  0  0  0  0  0  0  0  0
   32.0241  -23.5872  -17.9001 O   0  0  0  0  0  0  0  0  0  0  0  0
   31.0655  -25.7438  -18.0313 C   0  0  2  0  0  0  0  0  0  0  0  0
   29.9304  -25.3619  -17.2377 N   0  0  0  0  0  0  0  0  0  0  0  0
   31.3628  -27.1965  -17.9164 C   0  0  0  0  0  0  0  0  0  0  0  0
   30.8493  -27.8217  -16.9616 O   0  0  0  0  0  0  0  0  0  0  0  0
   32.1862  -27.8948  -18.8216 N   0  0  0  0  0  0  0  0  0  0  0  0
   32.4671  -29.3269  -18.7071 C   0  0  1  0  0  0  0  0  0  0  0  0
   31.1203  -30.0146  -18.7611 C   0  0  0  0  0  0  0  0  0  0  0  0
   31.0896  -31.2948  -18.0156 C   0  0  0  0  0  0  0  0  0  0  0  0
   31.2441  -31.4983  -16.6619 C   0  0  0  0  0  0  0  0  0  0  0  0
   31.1393  -32.8445  -16.4550 N   0  0  0  0  0  0  0  0  0  0  0  0
   30.9279  -33.4608  -17.6301 C   0  0  0  0  0  0  0  0  0  0  0  0
   30.9008  -32.5084  -18.5619 N   0  0  0  0  0  0  0  0  0  0  0  0
   33.3413  -29.7578  -19.8169 C   0  0  0  0  0  0  0  0  0  0  0  0
   34.1964  -30.8227  -19.6406 O   0  0  0  0  0  0  0  0  0  0  0  0
   33.3200  -29.1707  -20.9208 O   0  0  0  0  0  0  0  0  0  0  0  0
  2  1  1  6
  2  3  1  0
  4  3  1  0
  4  9  1  0
  5  4  2  0
  6  5  1  0
  6  7  2  0
  7  8  1  0
  8  9  2  0
 10  2  1  0
 11 10  2  0
 13 12  1  6
 14 13  1  0
 15 13  1  0
 15 16  1  1
 16 10  1  0
 17 15  1  0
 18 17  2  0
 19 17  1  0
 20 21  1  6
 20 19  1  0
 21 22  1  0
 22 26  1  0
 23 22  2  0
 23 24  1  0
 24 25  1  0
 26 25  2  0
 27 20  1  0
 27 28  1  0
 29 27  2  0
M  END
$$$$
