FTH.pdb
     RDKit          3D

 29 30  0  0  1  0  0  0  0  0999 V2000
   28.0421  -19.3276  -15.8793 N   0  0  0  0  0  0  0  0  0  0  0  0
   27.3010  -18.8409  -14.7230 C   0  0  1  0  0  0  0  0  0  0  0  0
   26.3656  -17.7620  -15.2384 C   0  0  0  0  0  0  0  0  0  0  0  0
   27.1328  -16.5794  -15.7233 C   0  0  0  0  0  0  0  0  0  0  0  0
   27.4078  -16.4186  -17.0537 C   0  0  0  0  0  0  0  0  0  0  0  0
   28.1137  -15.3242  -17.4721 C   0  0  0  0  0  0  0  0  0  0  0  0
   28.5622  -14.3614  -16.5623 C   0  0  0  0  0  0  0  0  0  0  0  0
   28.2947  -14.5063  -15.2178 C   0  0  0  0  0  0  0  0  0  0  0  0
   27.5820  -15.6214  -14.8395 C   0  0  0  0  0  0  0  0  0  0  0  0
   26.5374  -19.9914  -14.1770 C   0  0  0  0  0  0  0  0  0  0  0  0
   26.9074  -21.2012  -14.3589 O   0  0  0  0  0  0  0  0  0  0  0  0
   27.1561  -21.4003  -12.2092 C   0  0  0  0  0  0  0  0  0  0  0  0
   25.7624  -21.3876  -11.6174 C   0  0  1  0  0  0  0  0  0  0  0  0
   25.7660  -20.4760  -10.5730 O   0  0  0  0  0  0  0  0  0  0  0  0
   24.7584  -20.9043  -12.6678 C   0  0  2  0  0  0  0  0  0  0  0  0
   25.3469  -19.8290  -13.4172 N   0  0  0  0  0  0  0  0  0  0  0  0
   23.4840  -20.4986  -12.0173 C   0  0  0  0  0  0  0  0  0  0  0  0
   23.5149  -19.5212  -11.2364 O   0  0  0  0  0  0  0  0  0  0  0  0
   22.2568  -21.1553  -12.2360 N   0  0  0  0  0  0  0  0  0  0  0  0
   20.9910  -20.4445  -12.4242 C   0  0  1  0  0  0  0  0  0  0  0  0
   21.1973  -19.5513  -13.6281 C   0  0  0  0  0  0  0  0  0  0  0  0
   19.9745  -18.8127  -14.0217 C   0  0  0  0  0  0  0  0  0  0  0  0
   18.7261  -18.8573  -13.4410 C   0  0  0  0  0  0  0  0  0  0  0  0
   17.9320  -18.0065  -14.1563 N   0  0  0  0  0  0  0  0  0  0  0  0
   18.6521  -17.4507  -15.1453 C   0  0  0  0  0  0  0  0  0  0  0  0
   19.8840  -17.9497  -15.0484 N   0  0  0  0  0  0  0  0  0  0  0  0
   19.8990  -21.4135  -12.6480 C   0  0  0  0  0  0  0  0  0  0  0  0
   18.6512  -21.1728  -12.1177 O   0  0  0  0  0  0  0  0  0  0  0  0
   20.0866  -22.4551  -13.3141 O   0  0  0  0  0  0  0  0  0  0  0  0
  2  1  1  6
  2  3  1  0
  4  3  1  0
  4  9  1  0
  5  4  2  0
  6  5  1  0
  6  7  2  0
  7  8  1  0
  8  9  2  0
 10  2  1  0
 11 10  2  0
 13 12  1  6
 14 13  1  0
 15 13  1  0
 15 16  1  1
 16 10  1  0
 17 15  1  0
 18 17  2  0
 19 17  1  0
 20 21  1  6
 20 19  1  0
 21 22  1  0
 22 26  1  0
 23 22  2  0
 23 24  1  0
 24 25  1  0
 26 25  2  0
 27 20  1  0
 27 28  1  0
 29 27  2  0
M  END
$$$$
