FTH.pdb
     RDKit          3D

 29 30  0  0  1  0  0  0  0  0999 V2000
   28.5089  -21.0812   -9.2275 N   0  0  0  0  0  0  0  0  0  0  0  0
   27.0919  -20.7569   -9.1265 C   0  0  1  0  0  0  0  0  0  0  0  0
   26.9979  -19.5220   -8.2486 C   0  0  0  0  0  0  0  0  0  0  0  0
   27.5043  -19.8052   -6.8755 C   0  0  0  0  0  0  0  0  0  0  0  0
   26.8447  -20.6735   -6.0494 C   0  0  0  0  0  0  0  0  0  0  0  0
   27.3308  -20.9157   -4.7940 C   0  0  0  0  0  0  0  0  0  0  0  0
   28.4946  -20.2902   -4.3357 C   0  0  0  0  0  0  0  0  0  0  0  0
   29.1729  -19.4122   -5.1537 C   0  0  0  0  0  0  0  0  0  0  0  0
   28.6500  -19.1969   -6.4085 C   0  0  0  0  0  0  0  0  0  0  0  0
   26.6096  -20.4710  -10.5015 C   0  0  0  0  0  0  0  0  0  0  0  0
   27.3871  -20.0380  -11.4188 O   0  0  0  0  0  0  0  0  0  0  0  0
   27.0427  -21.3151  -12.9647 C   0  0  0  0  0  0  0  0  0  0  0  0
   25.5475  -21.4627  -13.1524 C   0  0  1  0  0  0  0  0  0  0  0  0
   25.2065  -22.7461  -12.7544 O   0  0  0  0  0  0  0  0  0  0  0  0
   24.8117  -20.4717  -12.2460 C   0  0  2  0  0  0  0  0  0  0  0  0
   25.2555  -20.6578  -10.8924 N   0  0  0  0  0  0  0  0  0  0  0  0
   23.3403  -20.6431  -12.3790 C   0  0  0  0  0  0  0  0  0  0  0  0
   22.6847  -20.8707  -11.3376 O   0  0  0  0  0  0  0  0  0  0  0  0
   22.6569  -20.5623  -13.6083 N   0  0  0  0  0  0  0  0  0  0  0  0
   21.2054  -20.3998  -13.7081 C   0  0  1  0  0  0  0  0  0  0  0  0
   20.6368  -21.0092  -12.4452 C   0  0  0  0  0  0  0  0  0  0  0  0
   19.4541  -21.8667  -12.6936 C   0  0  0  0  0  0  0  0  0  0  0  0
   18.7954  -22.0888  -13.8829 C   0  0  0  0  0  0  0  0  0  0  0  0
   17.7705  -22.9489  -13.6069 N   0  0  0  0  0  0  0  0  0  0  0  0
   17.7851  -23.2540  -12.2985 C   0  0  0  0  0  0  0  0  0  0  0  0
   18.8094  -22.5909  -11.7625 N   0  0  0  0  0  0  0  0  0  0  0  0
   20.8668  -18.9664  -13.8191 C   0  0  0  0  0  0  0  0  0  0  0  0
   20.9562  -18.3348  -15.0394 O   0  0  0  0  0  0  0  0  0  0  0  0
   20.4980  -18.3109  -12.8201 O   0  0  0  0  0  0  0  0  0  0  0  0
  2  1  1  6
  2  3  1  0
  4  3  1  0
  4  9  1  0
  5  4  2  0
  6  5  1  0
  6  7  2  0
  7  8  1  0
  8  9  2  0
 10  2  1  0
 11 10  2  0
 13 12  1  1
 14 13  1  0
 15 13  1  0
 15 16  1  1
 16 10  1  0
 17 15  1  0
 18 17  2  0
 19 17  1  0
 20 21  1  1
 20 19  1  0
 21 22  1  0
 22 26  1  0
 23 22  2  0
 23 24  1  0
 24 25  1  0
 26 25  2  0
 27 20  1  0
 27 28  1  0
 29 27  2  0
M  END
$$$$
