FTH.pdb
     RDKit          3D

 29 30  0  0  1  0  0  0  0  0999 V2000
   23.9995   -9.8029  -17.8154 N   0  0  0  0  0  0  0  0  0  0  0  0
   23.4785   -9.0791  -16.6630 C   0  0  1  0  0  0  0  0  0  0  0  0
   24.6372   -8.2716  -16.1064 C   0  0  0  0  0  0  0  0  0  0  0  0
   25.8490   -9.1237  -15.9406 C   0  0  0  0  0  0  0  0  0  0  0  0
   25.8974  -10.0955  -14.9789 C   0  0  0  0  0  0  0  0  0  0  0  0
   27.0215  -10.8637  -14.8480 C   0  0  0  0  0  0  0  0  0  0  0  0
   28.1282  -10.6746  -15.6819 C   0  0  0  0  0  0  0  0  0  0  0  0
   28.0980   -9.7004  -16.6567 C   0  0  0  0  0  0  0  0  0  0  0  0
   26.9482   -8.9502  -16.7544 C   0  0  0  0  0  0  0  0  0  0  0  0
   22.3979   -8.1889  -17.1577 C   0  0  0  0  0  0  0  0  0  0  0  0
   22.5425   -7.4544  -18.1936 O   0  0  0  0  0  0  0  0  0  0  0  0
   19.0527   -9.2425  -18.2479 C   0  0  0  0  0  0  0  0  0  0  0  0
   18.8136   -8.1851  -17.1909 C   0  0  1  0  0  0  0  0  0  0  0  0
   18.6141   -8.8429  -15.9870 O   0  0  0  0  0  0  0  0  0  0  0  0
   20.0572   -7.3026  -17.0510 C   0  0  2  0  0  0  0  0  0  0  0  0
   21.1326   -8.0914  -16.5169 N   0  0  0  0  0  0  0  0  0  0  0  0
   19.7587   -6.1188  -16.2015 C   0  0  0  0  0  0  0  0  0  0  0  0
   20.2657   -6.0807  -15.0580 O   0  0  0  0  0  0  0  0  0  0  0  0
   18.9411   -5.0499  -16.6185 N   0  0  0  0  0  0  0  0  0  0  0  0
   18.6010   -3.9180  -15.7547 C   0  0  1  0  0  0  0  0  0  0  0  0
   19.0015   -2.6790  -16.5255 C   0  0  0  0  0  0  0  0  0  0  0  0
   18.7177   -1.4215  -15.7949 C   0  0  0  0  0  0  0  0  0  0  0  0
   18.6365   -1.2245  -14.4339 C   0  0  0  0  0  0  0  0  0  0  0  0
   18.3532    0.0987  -14.2470 N   0  0  0  0  0  0  0  0  0  0  0  0
   18.2602    0.7074  -15.4413 C   0  0  0  0  0  0  0  0  0  0  0  0
   18.4835   -0.2269  -16.3651 N   0  0  0  0  0  0  0  0  0  0  0  0
   17.1541   -3.9289  -15.4585 C   0  0  0  0  0  0  0  0  0  0  0  0
   16.6969   -3.4258  -14.2610 O   0  0  0  0  0  0  0  0  0  0  0  0
   16.3305   -4.3891  -16.2793 O   0  0  0  0  0  0  0  0  0  0  0  0
  2  1  1  6
  2  3  1  0
  4  3  1  0
  4  9  1  0
  5  4  2  0
  6  5  1  0
  6  7  2  0
  7  8  1  0
  8  9  2  0
 10  2  1  0
 11 10  2  0
 13 12  1  6
 14 13  1  0
 15 13  1  0
 15 16  1  1
 16 10  1  0
 17 15  1  0
 18 17  2  0
 19 17  1  0
 20 21  1  6
 20 19  1  0
 21 22  1  0
 22 26  1  0
 23 22  2  0
 23 24  1  0
 24 25  1  0
 26 25  2  0
 27 20  1  0
 27 28  1  0
 29 27  2  0
M  END
$$$$
