FTH.pdb
     RDKit          3D

 29 30  0  0  1  0  0  0  0  0999 V2000
   16.0043    2.9904  -13.6000 N   0  0  0  0  0  0  0  0  0  0  0  0
   16.6863    1.7036  -13.5550 C   0  0  1  0  0  0  0  0  0  0  0  0
   17.7075    1.8004  -12.4359 C   0  0  0  0  0  0  0  0  0  0  0  0
   18.8036    2.7444  -12.7956 C   0  0  0  0  0  0  0  0  0  0  0  0
   18.8963    3.9722  -12.1994 C   0  0  0  0  0  0  0  0  0  0  0  0
   19.9121    4.8195  -12.5478 C   0  0  0  0  0  0  0  0  0  0  0  0
   20.8627    4.4539  -13.5062 C   0  0  0  0  0  0  0  0  0  0  0  0
   20.7856    3.2209  -14.1177 C   0  0  0  0  0  0  0  0  0  0  0  0
   19.7486    2.3994  -13.7383 C   0  0  0  0  0  0  0  0  0  0  0  0
   15.6595    0.6747  -13.2515 C   0  0  0  0  0  0  0  0  0  0  0  0
   14.6126    0.9394  -12.5679 O   0  0  0  0  0  0  0  0  0  0  0  0
   13.5306   -0.8480  -15.5165 C   0  0  0  0  0  0  0  0  0  0  0  0
   14.1448   -2.0529  -14.8358 C   0  0  1  0  0  0  0  0  0  0  0  0
   15.1850   -2.4946  -15.6388 O   0  0  0  0  0  0  0  0  0  0  0  0
   14.7303   -1.6403  -13.4823 C   0  0  2  0  0  0  0  0  0  0  0  0
   15.7683   -0.6707  -13.6979 N   0  0  0  0  0  0  0  0  0  0  0  0
   15.2265   -2.8344  -12.7476 C   0  0  0  0  0  0  0  0  0  0  0  0
   16.4517   -3.0833  -12.8021 O   0  0  0  0  0  0  0  0  0  0  0  0
   14.3918   -3.6894  -12.0011 N   0  0  0  0  0  0  0  0  0  0  0  0
   14.8819   -4.8827  -11.3092 C   0  0  1  0  0  0  0  0  0  0  0  0
   13.8107   -5.2421  -10.3027 C   0  0  0  0  0  0  0  0  0  0  0  0
   14.1600   -6.4215   -9.4764 C   0  0  0  0  0  0  0  0  0  0  0  0
   15.3649   -7.0849   -9.4018 C   0  0  0  0  0  0  0  0  0  0  0  0
   15.1950   -8.1039   -8.5079 N   0  0  0  0  0  0  0  0  0  0  0  0
   13.9354   -8.0813   -8.0408 C   0  0  0  0  0  0  0  0  0  0  0  0
   13.3247   -7.0579   -8.6372 N   0  0  0  0  0  0  0  0  0  0  0  0
   15.1009   -5.9729  -12.2813 C   0  0  0  0  0  0  0  0  0  0  0  0
   16.0797   -6.9126  -12.0466 O   0  0  0  0  0  0  0  0  0  0  0  0
   14.4104   -6.0598  -13.3202 O   0  0  0  0  0  0  0  0  0  0  0  0
  2  1  1  1
  2  3  1  0
  4  3  1  0
  4  9  1  0
  5  4  2  0
  6  5  1  0
  6  7  2  0
  7  8  1  0
  8  9  2  0
 10  2  1  0
 11 10  2  0
 13 12  1  6
 14 13  1  0
 15 13  1  0
 15 16  1  6
 16 10  1  0
 17 15  1  0
 18 17  2  0
 19 17  1  0
 20 21  1  1
 20 19  1  0
 21 22  1  0
 22 26  1  0
 23 22  2  0
 23 24  1  0
 24 25  1  0
 26 25  2  0
 27 20  1  0
 27 28  1  0
 29 27  2  0
M  END
$$$$
