FTH.pdb
     RDKit          3D

 29 30  0  0  1  0  0  0  0  0999 V2000
   28.4477  -10.1475  -17.7912 N   0  0  0  0  0  0  0  0  0  0  0  0
   27.0766  -10.2840  -17.3174 C   0  0  1  0  0  0  0  0  0  0  0  0
   27.1579  -10.9733  -15.9673 C   0  0  0  0  0  0  0  0  0  0  0  0
   27.6668  -12.3670  -16.1109 C   0  0  0  0  0  0  0  0  0  0  0  0
   28.8179  -12.7617  -15.4859 C   0  0  0  0  0  0  0  0  0  0  0  0
   29.2629  -14.0466  -15.6342 C   0  0  0  0  0  0  0  0  0  0  0  0
   28.5611  -14.9697  -16.4159 C   0  0  0  0  0  0  0  0  0  0  0  0
   27.3992  -14.5904  -17.0534 C   0  0  0  0  0  0  0  0  0  0  0  0
   26.9868  -13.2890  -16.8778 C   0  0  0  0  0  0  0  0  0  0  0  0
   26.5217   -8.9132  -17.1831 C   0  0  0  0  0  0  0  0  0  0  0  0
   27.2589   -7.8714  -17.2503 O   0  0  0  0  0  0  0  0  0  0  0  0
   26.4745   -6.5305  -18.4088 C   0  0  0  0  0  0  0  0  0  0  0  0
   24.9693   -6.6767  -18.3354 C   0  0  1  0  0  0  0  0  0  0  0  0
   24.5853   -7.5152  -19.3704 O   0  0  0  0  0  0  0  0  0  0  0  0
   24.5777   -7.3423  -17.0130 C   0  0  2  0  0  0  0  0  0  0  0  0
   25.1381   -8.6645  -16.9712 N   0  0  0  0  0  0  0  0  0  0  0  0
   23.0984   -7.3585  -16.8600 C   0  0  0  0  0  0  0  0  0  0  0  0
   22.4456   -8.1295  -17.5985 O   0  0  0  0  0  0  0  0  0  0  0  0
   22.4046   -6.5556  -15.9332 N   0  0  0  0  0  0  0  0  0  0  0  0
   20.9483   -6.5796  -15.7859 C   0  0  1  0  0  0  0  0  0  0  0  0
   20.6761   -7.3826  -14.5326 C   0  0  0  0  0  0  0  0  0  0  0  0
   20.6130   -8.8425  -14.7783 C   0  0  0  0  0  0  0  0  0  0  0  0
   20.7705   -9.5151  -15.9701 C   0  0  0  0  0  0  0  0  0  0  0  0
   20.6242  -10.8443  -15.6907 N   0  0  0  0  0  0  0  0  0  0  0  0
   20.3847  -10.9997  -14.3777 C   0  0  0  0  0  0  0  0  0  0  0  0
   20.3815   -9.7793  -13.8424 N   0  0  0  0  0  0  0  0  0  0  0  0
   20.4323   -5.2006  -15.6697 C   0  0  0  0  0  0  0  0  0  0  0  0
   19.0743   -4.9811  -15.6079 O   0  0  0  0  0  0  0  0  0  0  0  0
   21.2095   -4.2220  -15.6262 O   0  0  0  0  0  0  0  0  0  0  0  0
  2  1  1  1
  2  3  1  0
  4  3  1  0
  4  9  1  0
  5  4  2  0
  6  5  1  0
  6  7  2  0
  7  8  1  0
  8  9  2  0
 10  2  1  0
 11 10  2  0
 13 12  1  1
 14 13  1  0
 15 13  1  0
 15 16  1  6
 16 10  1  0
 17 15  1  0
 18 17  2  0
 19 17  1  0
 20 21  1  1
 20 19  1  0
 21 22  1  0
 22 26  1  0
 23 22  2  0
 23 24  1  0
 24 25  1  0
 26 25  2  0
 27 20  1  0
 27 28  1  0
 29 27  2  0
M  END
$$$$
