FTH.pdb
     RDKit          3D

 29 30  0  0  1  0  0  0  0  0999 V2000
   23.9411  -14.7788  -20.5172 N   0  0  0  0  0  0  0  0  0  0  0  0
   22.9122  -13.7712  -20.7394 C   0  0  1  0  0  0  0  0  0  0  0  0
   21.5979  -14.4027  -20.3171 C   0  0  0  0  0  0  0  0  0  0  0  0
   21.2178  -15.5092  -21.2408 C   0  0  0  0  0  0  0  0  0  0  0  0
   21.2455  -16.8120  -20.8242 C   0  0  0  0  0  0  0  0  0  0  0  0
   20.8919  -17.8084  -21.6920 C   0  0  0  0  0  0  0  0  0  0  0  0
   20.5006  -17.5205  -23.0034 C   0  0  0  0  0  0  0  0  0  0  0  0
   20.4665  -16.2139  -23.4413 C   0  0  0  0  0  0  0  0  0  0  0  0
   20.8298  -15.2424  -22.5365 C   0  0  0  0  0  0  0  0  0  0  0  0
   23.2455  -12.6084  -19.8781 C   0  0  0  0  0  0  0  0  0  0  0  0
   23.9701  -12.7227  -18.8315 O   0  0  0  0  0  0  0  0  0  0  0  0
   24.6159   -9.4668  -21.2696 C   0  0  0  0  0  0  0  0  0  0  0  0
   23.5521   -9.0054  -20.2960 C   0  0  1  0  0  0  0  0  0  0  0  0
   22.4333   -8.6626  -21.0393 O   0  0  0  0  0  0  0  0  0  0  0  0
   23.1692  -10.1580  -19.3632 C   0  0  2  0  0  0  0  0  0  0  0  0
   22.7841  -11.2927  -20.1557 N   0  0  0  0  0  0  0  0  0  0  0  0
   22.0881   -9.7341  -18.4339 C   0  0  0  0  0  0  0  0  0  0  0  0
   20.9093  -10.0149  -18.7463 O   0  0  0  0  0  0  0  0  0  0  0  0
   22.3255   -9.0389  -17.2317 N   0  0  0  0  0  0  0  0  0  0  0  0
   21.2574   -8.6393  -16.3138 C   0  0  1  0  0  0  0  0  0  0  0  0
   21.4473   -9.4823  -15.0717 C   0  0  0  0  0  0  0  0  0  0  0  0
   20.4895   -9.1510  -13.9907 C   0  0  0  0  0  0  0  0  0  0  0  0
   19.1341   -9.3929  -13.9474 C   0  0  0  0  0  0  0  0  0  0  0  0
   18.6884   -8.9053  -12.7517 N   0  0  0  0  0  0  0  0  0  0  0  0
   19.7212   -8.3789  -12.0724 C   0  0  0  0  0  0  0  0  0  0  0  0
   20.8016   -8.5363  -12.8367 N   0  0  0  0  0  0  0  0  0  0  0  0
   21.3666   -7.1974  -16.0131 C   0  0  0  0  0  0  0  0  0  0  0  0
   20.2740   -6.5153  -15.5263 O   0  0  0  0  0  0  0  0  0  0  0  0
   22.4390   -6.5799  -16.1929 O   0  0  0  0  0  0  0  0  0  0  0  0
  2  1  1  1
  2  3  1  0
  4  3  1  0
  4  9  1  0
  5  4  2  0
  6  5  1  0
  6  7  2  0
  7  8  1  0
  8  9  2  0
 10  2  1  0
 11 10  2  0
 13 12  1  6
 14 13  1  0
 15 13  1  0
 15 16  1  6
 16 10  1  0
 17 15  1  0
 18 17  2  0
 19 17  1  0
 20 21  1  1
 20 19  1  0
 21 22  1  0
 22 26  1  0
 23 22  2  0
 23 24  1  0
 24 25  1  0
 26 25  2  0
 27 20  1  0
 27 28  1  0
 29 27  2  0
M  END
$$$$
