FTH.pdb
     RDKit          3D

 29 30  0  0  1  0  0  0  0  0999 V2000
   21.9017  -19.7114  -17.5645 N   0  0  0  0  0  0  0  0  0  0  0  0
   22.4841  -18.9423  -16.4725 C   0  0  1  0  0  0  0  0  0  0  0  0
   21.3508  -18.6460  -15.5069 C   0  0  0  0  0  0  0  0  0  0  0  0
   20.3348  -17.7548  -16.1358 C   0  0  0  0  0  0  0  0  0  0  0  0
   20.5887  -16.4236  -16.3228 C   0  0  0  0  0  0  0  0  0  0  0  0
   19.6391  -15.6278  -16.9025 C   0  0  0  0  0  0  0  0  0  0  0  0
   18.4076  -16.1504  -17.3099 C   0  0  0  0  0  0  0  0  0  0  0  0
   18.1337  -17.4894  -17.1297 C   0  0  0  0  0  0  0  0  0  0  0  0
   19.1160  -18.2542  -16.5430 C   0  0  0  0  0  0  0  0  0  0  0  0
   23.5160  -19.7994  -15.8357 C   0  0  0  0  0  0  0  0  0  0  0  0
   23.3322  -21.0477  -15.6319 O   0  0  0  0  0  0  0  0  0  0  0  0
   26.7146  -20.4937  -17.1177 C   0  0  0  0  0  0  0  0  0  0  0  0
   27.0460  -20.0667  -15.7034 C   0  0  1  0  0  0  0  0  0  0  0  0
   27.4611  -18.7451  -15.7580 O   0  0  0  0  0  0  0  0  0  0  0  0
   25.7874  -20.1349  -14.8337 C   0  0  2  0  0  0  0  0  0  0  0  0
   24.7748  -19.2943  -15.4099 N   0  0  0  0  0  0  0  0  0  0  0  0
   26.1044  -19.7463  -13.4335 C   0  0  0  0  0  0  0  0  0  0  0  0
   25.4185  -18.8385  -12.9123 O   0  0  0  0  0  0  0  0  0  0  0  0
   27.1290  -20.3451  -12.6743 N   0  0  0  0  0  0  0  0  0  0  0  0
   27.3202  -20.0897  -11.2455 C   0  0  1  0  0  0  0  0  0  0  0  0
   26.1177  -20.6965  -10.5560 C   0  0  0  0  0  0  0  0  0  0  0  0
   26.1811  -20.5961   -9.0790 C   0  0  0  0  0  0  0  0  0  0  0  0
   27.1051  -19.9261   -8.3078 C   0  0  0  0  0  0  0  0  0  0  0  0
   26.7461  -20.1274   -7.0052 N   0  0  0  0  0  0  0  0  0  0  0  0
   25.6423  -20.8923   -6.9604 C   0  0  0  0  0  0  0  0  0  0  0  0
   25.3152  -21.1659   -8.2231 N   0  0  0  0  0  0  0  0  0  0  0  0
   28.5793  -20.7117  -10.7880 C   0  0  0  0  0  0  0  0  0  0  0  0
   29.3212  -20.1066   -9.7982 O   0  0  0  0  0  0  0  0  0  0  0  0
   28.9876  -21.7840  -11.2852 O   0  0  0  0  0  0  0  0  0  0  0  0
  2  1  1  6
  2  3  1  0
  4  3  1  0
  4  9  1  0
  5  4  2  0
  6  5  1  0
  6  7  2  0
  7  8  1  0
  8  9  2  0
 10  2  1  0
 11 10  2  0
 13 12  1  6
 14 13  1  0
 15 13  1  0
 15 16  1  6
 16 10  1  0
 17 15  1  0
 18 17  2  0
 19 17  1  0
 20 21  1  1
 20 19  1  0
 21 22  1  0
 22 26  1  0
 23 22  2  0
 23 24  1  0
 24 25  1  0
 26 25  2  0
 27 20  1  0
 27 28  1  0
 29 27  2  0
M  END
$$$$
