NYV.pdb
     RDKit          3D

 28 28  0  0  1  0  0  0  0  0999 V2000
   12.7297  -19.0967   19.3601 N   0  0  0  0  0  0  0  0  0  0  0  0
   12.9111  -17.7055   19.1609 C   0  0  0  0  0  0  0  0  0  0  0  0
   13.6588  -17.2918   18.2296 O   0  0  0  0  0  0  0  0  0  0  0  0
   12.2545  -16.7028   20.0083 C   0  0  0  0  0  0  0  0  0  0  0  0
   11.3904  -17.3489   21.0822 C   0  0  2  0  0  0  0  0  0  0  0  0
   10.1834  -17.8811   20.4759 N   0  0  0  0  0  0  0  0  0  0  0  0
   10.9935  -16.3612   22.1107 C   0  0  0  0  0  0  0  0  0  0  0  0
   11.8584  -15.6455   22.6473 O   0  0  0  0  0  0  0  0  0  0  0  0
    5.6089  -11.2711   26.9904 O   0  0  0  0  0  0  0  0  0  0  0  0
    6.1046  -12.2193   26.1251 C   0  0  0  0  0  0  0  0  0  0  0  0
    5.8862  -13.5785   26.2906 C   0  0  0  0  0  0  0  0  0  0  0  0
    6.3932  -14.5074   25.4106 C   0  0  0  0  0  0  0  0  0  0  0  0
    7.1460  -14.1211   24.3193 C   0  0  0  0  0  0  0  0  0  0  0  0
    7.7365  -15.0676   23.3608 C   0  0  0  0  0  0  0  0  0  0  0  0
    9.1704  -15.4125   23.5912 C   0  0  2  0  0  0  0  0  0  0  0  0
    9.6234  -16.2585   22.4584 N   0  0  0  0  0  0  0  0  0  0  0  0
    9.4320  -16.1403   24.8687 C   0  0  0  0  0  0  0  0  0  0  0  0
    9.4467  -17.3912   24.8193 O   0  0  0  0  0  0  0  0  0  0  0  0
    7.3514  -12.7419   24.1777 C   0  0  0  0  0  0  0  0  0  0  0  0
    6.8483  -11.8292   25.0484 C   0  0  0  0  0  0  0  0  0  0  0  0
    9.6574  -14.1859   29.0647 C   0  0  0  0  0  0  0  0  0  0  0  0
   10.6619  -14.9716   28.3311 C   0  0  2  0  0  0  0  0  0  0  0  0
   11.7276  -14.1101   27.7151 C   0  0  0  0  0  0  0  0  0  0  0  0
   10.1939  -15.9695   27.3180 C   0  0  2  0  0  0  0  0  0  0  0  0
    9.6594  -15.5033   26.0893 N   0  0  0  0  0  0  0  0  0  0  0  0
    9.4427  -17.0897   27.9082 C   0  0  0  0  0  0  0  0  0  0  0  0
    8.2981  -17.4455   27.4612 O   0  0  0  0  0  0  0  0  0  0  0  0
    9.9324  -17.8163   28.9783 O   0  0  0  0  0  0  0  0  0  0  0  0
  2  1  1  0
  3  2  2  0
  4  5  1  0
  4  2  1  0
  5  7  1  0
  5  6  1  6
  7  8  2  0
  9 10  1  0
 10 11  2  0
 11 12  1  0
 13 12  2  0
 13 14  1  0
 15 14  1  6
 15 17  1  0
 16  7  1  0
 16 15  1  0
 17 25  1  0
 18 17  2  0
 19 13  1  0
 20 10  1  0
 20 19  2  0
 22 21  1  6
 22 23  1  0
 24 26  1  0
 24 22  1  0
 24 25  1  6
 26 28  1  0
 27 26  2  0
M  END
$$$$
