NYV.pdb
     RDKit          3D

 28 28  0  0  1  0  0  0  0  0999 V2000
   11.2183  -20.5029   19.0603 N   0  0  0  0  0  0  0  0  0  0  0  0
   10.2160  -20.1496   19.9977 C   0  0  0  0  0  0  0  0  0  0  0  0
    9.1311  -20.7966   20.0380 O   0  0  0  0  0  0  0  0  0  0  0  0
   10.3871  -19.0402   20.9436 C   0  0  0  0  0  0  0  0  0  0  0  0
    9.3712  -17.9320   20.7045 C   0  0  2  0  0  0  0  0  0  0  0  0
    9.5961  -17.3440   19.3964 N   0  0  0  0  0  0  0  0  0  0  0  0
    9.5018  -16.8629   21.7199 C   0  0  0  0  0  0  0  0  0  0  0  0
   10.4998  -16.1198   21.7107 O   0  0  0  0  0  0  0  0  0  0  0  0
    6.3661  -11.1274   27.8218 O   0  0  0  0  0  0  0  0  0  0  0  0
    6.5959  -12.0327   26.8113 C   0  0  0  0  0  0  0  0  0  0  0  0
    7.3189  -11.7211   25.6700 C   0  0  0  0  0  0  0  0  0  0  0  0
    7.5349  -12.6450   24.6729 C   0  0  0  0  0  0  0  0  0  0  0  0
    7.0362  -13.9291   24.7687 C   0  0  0  0  0  0  0  0  0  0  0  0
    7.2107  -14.9506   23.7251 C   0  0  0  0  0  0  0  0  0  0  0  0
    8.5274  -15.6536   23.7208 C   0  0  2  0  0  0  0  0  0  0  0  0
    8.4740  -16.7153   22.6844 N   0  0  0  0  0  0  0  0  0  0  0  0
    8.8986  -16.2756   25.0267 C   0  0  0  0  0  0  0  0  0  0  0  0
    8.2540  -17.2895   25.3788 O   0  0  0  0  0  0  0  0  0  0  0  0
    6.3089  -14.2155   25.9321 C   0  0  0  0  0  0  0  0  0  0  0  0
    6.0992  -13.3006   26.9135 C   0  0  0  0  0  0  0  0  0  0  0  0
   12.9669  -15.6457   27.1582 C   0  0  0  0  0  0  0  0  0  0  0  0
   11.9503  -16.6989   27.0096 C   0  0  2  0  0  0  0  0  0  0  0  0
   12.2027  -17.5767   25.8167 C   0  0  0  0  0  0  0  0  0  0  0  0
   10.5048  -16.3107   27.0337 C   0  0  2  0  0  0  0  0  0  0  0  0
    9.9123  -15.7907   25.8542 N   0  0  0  0  0  0  0  0  0  0  0  0
   10.1137  -15.5982   28.2613 C   0  0  0  0  0  0  0  0  0  0  0  0
    9.5647  -14.4433   28.2262 O   0  0  0  0  0  0  0  0  0  0  0  0
   10.3204  -16.1375   29.5180 O   0  0  0  0  0  0  0  0  0  0  0  0
  2  1  1  0
  3  2  2  0
  4  5  1  0
  4  2  1  0
  5  7  1  0
  5  6  1  6
  7  8  2  0
  9 10  1  0
 10 11  2  0
 11 12  1  0
 13 12  2  0
 13 14  1  0
 15 14  1  1
 15 17  1  0
 16  7  1  0
 16 15  1  0
 17 25  1  0
 18 17  2  0
 19 13  1  0
 20 10  1  0
 20 19  2  0
 22 21  1  6
 22 23  1  0
 24 26  1  0
 24 22  1  0
 24 25  1  6
 26 28  1  0
 27 26  2  0
M  END
$$$$
