NYV.pdb
     RDKit          3D

 28 28  0  0  1  0  0  0  0  0999 V2000
    9.8898  -17.4482   16.8996 N   0  0  0  0  0  0  0  0  0  0  0  0
   11.0762  -17.5582   17.6667 C   0  0  0  0  0  0  0  0  0  0  0  0
   12.0550  -18.2254   17.2260 O   0  0  0  0  0  0  0  0  0  0  0  0
   11.2198  -16.9178   18.9796 C   0  0  0  0  0  0  0  0  0  0  0  0
   10.2981  -17.5431   20.0173 C   0  0  2  0  0  0  0  0  0  0  0  0
    8.9396  -17.5661   19.5059 N   0  0  0  0  0  0  0  0  0  0  0  0
   10.3050  -16.7616   21.2744 C   0  0  0  0  0  0  0  0  0  0  0  0
   11.3848  -16.3725   21.7548 O   0  0  0  0  0  0  0  0  0  0  0  0
    6.5512  -12.1686   28.0013 O   0  0  0  0  0  0  0  0  0  0  0  0
    6.8651  -12.8201   26.8306 C   0  0  0  0  0  0  0  0  0  0  0  0
    7.6786  -12.2659   25.8542 C   0  0  0  0  0  0  0  0  0  0  0  0
    7.9777  -12.9383   24.6911 C   0  0  0  0  0  0  0  0  0  0  0  0
    7.4756  -14.2013   24.4470 C   0  0  0  0  0  0  0  0  0  0  0  0
    7.7373  -14.9573   23.2128 C   0  0  0  0  0  0  0  0  0  0  0  0
    8.9996  -15.7539   23.1968 C   0  0  2  0  0  0  0  0  0  0  0  0
    9.0665  -16.4759   21.9014 N   0  0  0  0  0  0  0  0  0  0  0  0
    9.1166  -16.7464   24.3064 C   0  0  0  0  0  0  0  0  0  0  0  0
    8.2676  -17.6659   24.3404 O   0  0  0  0  0  0  0  0  0  0  0  0
    6.6559  -14.7360   25.4503 C   0  0  0  0  0  0  0  0  0  0  0  0
    6.3644  -14.0688   26.5965 C   0  0  0  0  0  0  0  0  0  0  0  0
   12.9604  -17.5099   26.5506 C   0  0  0  0  0  0  0  0  0  0  0  0
   11.7225  -18.2860   26.3782 C   0  0  2  0  0  0  0  0  0  0  0  0
   11.7803  -19.2031   25.1895 C   0  0  0  0  0  0  0  0  0  0  0  0
   10.4138  -17.5593   26.3717 C   0  0  2  0  0  0  0  0  0  0  0  0
   10.1100  -16.6990   25.2852 N   0  0  0  0  0  0  0  0  0  0  0  0
   10.0461  -17.0106   27.6875 C   0  0  0  0  0  0  0  0  0  0  0  0
    9.7773  -15.7707   27.8512 O   0  0  0  0  0  0  0  0  0  0  0  0
    9.9734  -17.8050   28.8173 O   0  0  0  0  0  0  0  0  0  0  0  0
  2  1  1  0
  3  2  2  0
  4  5  1  0
  4  2  1  0
  5  7  1  0
  5  6  1  6
  7  8  2  0
  9 10  1  0
 10 11  2  0
 11 12  1  0
 13 12  2  0
 13 14  1  0
 15 14  1  1
 15 17  1  0
 16  7  1  0
 16 15  1  0
 17 25  1  0
 18 17  2  0
 19 13  1  0
 20 10  1  0
 20 19  2  0
 22 21  1  6
 22 23  1  0
 24 26  1  0
 24 22  1  0
 24 25  1  6
 26 28  1  0
 27 26  2  0
M  END
$$$$
