NYV.pdb
     RDKit          3D

 28 28  0  0  1  0  0  0  0  0999 V2000
    3.3160  -21.8115   20.6498 N   0  0  0  0  0  0  0  0  0  0  0  0
    2.3778  -20.8630   21.1276 C   0  0  0  0  0  0  0  0  0  0  0  0
    1.1390  -21.0820   21.0063 O   0  0  0  0  0  0  0  0  0  0  0  0
    2.7919  -19.6100   21.7703 C   0  0  0  0  0  0  0  0  0  0  0  0
    4.3071  -19.4690   21.8099 C   0  0  2  0  0  0  0  0  0  0  0  0
    4.8551  -20.4087   22.7714 N   0  0  0  0  0  0  0  0  0  0  0  0
    4.7035  -18.1035   22.2216 C   0  0  0  0  0  0  0  0  0  0  0  0
    4.2725  -17.1189   21.5946 O   0  0  0  0  0  0  0  0  0  0  0  0
    8.1382  -11.7891   27.4531 O   0  0  0  0  0  0  0  0  0  0  0  0
    7.7855  -12.9954   26.8927 C   0  0  0  0  0  0  0  0  0  0  0  0
    8.7088  -13.8653   26.3333 C   0  0  0  0  0  0  0  0  0  0  0  0
    8.3304  -15.0668   25.7785 C   0  0  0  0  0  0  0  0  0  0  0  0
    7.0061  -15.4575   25.7558 C   0  0  0  0  0  0  0  0  0  0  0  0
    6.5381  -16.7151   25.1537 C   0  0  0  0  0  0  0  0  0  0  0  0
    6.1104  -16.6296   23.7261 C   0  0  2  0  0  0  0  0  0  0  0  0
    5.5727  -17.9559   23.3312 N   0  0  0  0  0  0  0  0  0  0  0  0
    7.1999  -16.2513   22.7776 C   0  0  0  0  0  0  0  0  0  0  0  0
    8.0789  -17.1125   22.5465 O   0  0  0  0  0  0  0  0  0  0  0  0
    6.0952  -14.5583   26.3271 C   0  0  0  0  0  0  0  0  0  0  0  0
    6.4738  -13.3744   26.8739 C   0  0  0  0  0  0  0  0  0  0  0  0
    8.4691  -12.8466   19.2092 C   0  0  0  0  0  0  0  0  0  0  0  0
    7.7521  -13.2318   20.4348 C   0  0  2  0  0  0  0  0  0  0  0  0
    7.7557  -12.1421   21.4691 C   0  0  0  0  0  0  0  0  0  0  0  0
    8.0996  -14.5310   21.0922 C   0  0  2  0  0  0  0  0  0  0  0  0
    7.2802  -15.0089   22.1472 N   0  0  0  0  0  0  0  0  0  0  0  0
    9.5422  -14.6915   21.3383 C   0  0  0  0  0  0  0  0  0  0  0  0
   10.0095  -14.8868   22.5130 O   0  0  0  0  0  0  0  0  0  0  0  0
   10.4698  -14.6377   20.3138 O   0  0  0  0  0  0  0  0  0  0  0  0
  2  1  1  0
  3  2  2  0
  4  5  1  0
  4  2  1  0
  5  7  1  0
  5  6  1  1
  7  8  2  0
  9 10  1  0
 10 11  2  0
 11 12  1  0
 13 12  2  0
 13 14  1  0
 15 14  1  1
 15 17  1  0
 16  7  1  0
 16 15  1  0
 17 25  1  0
 18 17  2  0
 19 13  1  0
 20 10  1  0
 20 19  2  0
 22 21  1  6
 22 23  1  0
 24 26  1  0
 24 22  1  0
 24 25  1  1
 26 28  1  0
 27 26  2  0
M  END
$$$$
