NYV.pdb
     RDKit          3D

 28 28  0  0  1  0  0  0  0  0999 V2000
    8.1494  -11.7230   17.6936 N   0  0  0  0  0  0  0  0  0  0  0  0
    8.0896  -13.1244   17.4920 C   0  0  0  0  0  0  0  0  0  0  0  0
    8.2080  -13.6018   16.3278 O   0  0  0  0  0  0  0  0  0  0  0  0
    7.8908  -14.0654   18.6009 C   0  0  0  0  0  0  0  0  0  0  0  0
    8.9336  -15.1745   18.5947 C   0  0  2  0  0  0  0  0  0  0  0  0
    8.6356  -16.1122   17.5272 N   0  0  0  0  0  0  0  0  0  0  0  0
    8.9283  -15.9164   19.8756 C   0  0  0  0  0  0  0  0  0  0  0  0
    8.3506  -17.0158   19.9512 O   0  0  0  0  0  0  0  0  0  0  0  0
   15.0725  -14.5539   18.8519 O   0  0  0  0  0  0  0  0  0  0  0  0
   14.1102  -15.0917   19.6754 C   0  0  0  0  0  0  0  0  0  0  0  0
   14.0353  -14.8105   21.0310 C   0  0  0  0  0  0  0  0  0  0  0  0
   13.0625  -15.3616   21.8339 C   0  0  0  0  0  0  0  0  0  0  0  0
   12.1149  -16.2237   21.3185 C   0  0  0  0  0  0  0  0  0  0  0  0
   11.0693  -16.8643   22.1305 C   0  0  0  0  0  0  0  0  0  0  0  0
    9.7882  -16.1076   22.2504 C   0  0  2  0  0  0  0  0  0  0  0  0
    9.5893  -15.3457   20.9918 N   0  0  0  0  0  0  0  0  0  0  0  0
    9.7392  -15.1564   23.4005 C   0  0  0  0  0  0  0  0  0  0  0  0
   10.5085  -14.1696   23.3572 O   0  0  0  0  0  0  0  0  0  0  0  0
   12.2155  -16.4906   19.9462 C   0  0  0  0  0  0  0  0  0  0  0  0
   13.1768  -15.9436   19.1582 C   0  0  0  0  0  0  0  0  0  0  0  0
    6.3184  -14.4094   26.2227 C   0  0  0  0  0  0  0  0  0  0  0  0
    7.6291  -13.7700   26.0288 C   0  0  2  0  0  0  0  0  0  0  0  0
    7.5815  -12.6556   25.0223 C   0  0  0  0  0  0  0  0  0  0  0  0
    8.8159  -14.6365   25.7428 C   0  0  2  0  0  0  0  0  0  0  0  0
    8.8905  -15.3118   24.4973 N   0  0  0  0  0  0  0  0  0  0  0  0
    9.2267  -15.4591   26.8926 C   0  0  0  0  0  0  0  0  0  0  0  0
    9.4306  -16.7174   26.7844 O   0  0  0  0  0  0  0  0  0  0  0  0
    9.4122  -14.9171   28.1514 O   0  0  0  0  0  0  0  0  0  0  0  0
  2  1  1  0
  3  2  2  0
  4  5  1  0
  4  2  1  0
  5  7  1  0
  5  6  1  6
  7  8  2  0
  9 10  1  0
 10 11  2  0
 11 12  1  0
 13 12  2  0
 13 14  1  0
 15 14  1  6
 15 17  1  0
 16  7  1  0
 16 15  1  0
 17 25  1  0
 18 17  2  0
 19 13  1  0
 20 10  1  0
 20 19  2  0
 22 21  1  6
 22 23  1  0
 24 26  1  0
 24 22  1  0
 24 25  1  6
 26 28  1  0
 27 26  2  0
M  END
$$$$
