NYV.pdb
     RDKit          3D

 28 28  0  0  1  0  0  0  0  0999 V2000
    7.6488  -17.8005   16.8602 N   0  0  0  0  0  0  0  0  0  0  0  0
    7.8258  -16.6271   17.6348 C   0  0  0  0  0  0  0  0  0  0  0  0
    8.4866  -15.6555   17.1695 O   0  0  0  0  0  0  0  0  0  0  0  0
    7.2633  -16.4892   18.9836 C   0  0  0  0  0  0  0  0  0  0  0  0
    8.3164  -16.0548   19.9934 C   0  0  2  0  0  0  0  0  0  0  0  0
    9.5045  -16.8741   19.8356 N   0  0  0  0  0  0  0  0  0  0  0  0
    7.8234  -16.2185   21.3794 C   0  0  0  0  0  0  0  0  0  0  0  0
    6.6711  -15.8524   21.6733 O   0  0  0  0  0  0  0  0  0  0  0  0
    8.4330  -19.2092   29.8388 O   0  0  0  0  0  0  0  0  0  0  0  0
    8.5211  -18.9646   28.4875 C   0  0  0  0  0  0  0  0  0  0  0  0
    7.4600  -19.1563   27.6160 C   0  0  0  0  0  0  0  0  0  0  0  0
    7.5736  -18.9043   26.2677 C   0  0  0  0  0  0  0  0  0  0  0  0
    8.7578  -18.4474   25.7237 C   0  0  0  0  0  0  0  0  0  0  0  0
    8.9479  -18.1867   24.2888 C   0  0  0  0  0  0  0  0  0  0  0  0
    8.2725  -16.9663   23.7574 C   0  0  2  0  0  0  0  0  0  0  0  0
    8.6889  -16.7943   22.3428 N   0  0  0  0  0  0  0  0  0  0  0  0
    8.5858  -15.7128   24.5060 C   0  0  0  0  0  0  0  0  0  0  0  0
    9.7377  -15.2411   24.3710 O   0  0  0  0  0  0  0  0  0  0  0  0
    9.8132  -18.2638   26.6276 C   0  0  0  0  0  0  0  0  0  0  0  0
    9.6957  -18.5131   27.9573 C   0  0  0  0  0  0  0  0  0  0  0  0
    6.1338  -12.3648   25.0251 C   0  0  0  0  0  0  0  0  0  0  0  0
    6.6622  -12.9527   26.2660 C   0  0  2  0  0  0  0  0  0  0  0  0
    6.9854  -11.9136   27.3019 C   0  0  0  0  0  0  0  0  0  0  0  0
    7.7994  -13.9219   26.1744 C   0  0  2  0  0  0  0  0  0  0  0  0
    7.6717  -15.0546   25.3298 N   0  0  0  0  0  0  0  0  0  0  0  0
    8.4198  -14.2162   27.4767 C   0  0  0  0  0  0  0  0  0  0  0  0
    7.9562  -15.1173   28.2575 O   0  0  0  0  0  0  0  0  0  0  0  0
    9.5352  -13.5336   27.9271 O   0  0  0  0  0  0  0  0  0  0  0  0
  2  1  1  0
  3  2  2  0
  4  5  1  0
  4  2  1  0
  5  7  1  0
  5  6  1  1
  7  8  2  0
  9 10  1  0
 10 11  2  0
 11 12  1  0
 13 12  2  0
 13 14  1  0
 15 14  1  1
 15 17  1  0
 16  7  1  0
 16 15  1  0
 17 25  1  0
 18 17  2  0
 19 13  1  0
 20 10  1  0
 20 19  2  0
 22 21  1  6
 22 23  1  0
 24 26  1  0
 24 22  1  0
 24 25  1  1
 26 28  1  0
 27 26  2  0
M  END
$$$$
