NYV.pdb
     RDKit          3D

 28 28  0  0  1  0  0  0  0  0999 V2000
   -1.7146  -26.4209   22.6771 N   0  0  0  0  0  0  0  0  0  0  0  0
   -1.0451  -26.6317   23.9081 C   0  0  0  0  0  0  0  0  0  0  0  0
   -0.1238  -27.4932   23.9878 O   0  0  0  0  0  0  0  0  0  0  0  0
   -1.3834  -25.8769   25.1207 C   0  0  0  0  0  0  0  0  0  0  0  0
   -2.5080  -24.8815   24.8714 C   0  0  2  0  0  0  0  0  0  0  0  0
   -2.0279  -23.8154   24.0109 N   0  0  0  0  0  0  0  0  0  0  0  0
   -2.9735  -24.2768   26.1397 C   0  0  0  0  0  0  0  0  0  0  0  0
   -2.2320  -23.4938   26.7605 O   0  0  0  0  0  0  0  0  0  0  0  0
   -4.4836  -18.9144   23.8093 O   0  0  0  0  0  0  0  0  0  0  0  0
   -4.8426  -19.9442   24.6485 C   0  0  0  0  0  0  0  0  0  0  0  0
   -5.4096  -21.1247   24.1934 C   0  0  0  0  0  0  0  0  0  0  0  0
   -5.7602  -22.1404   25.0536 C   0  0  0  0  0  0  0  0  0  0  0  0
   -5.5608  -22.0240   26.4151 C   0  0  0  0  0  0  0  0  0  0  0  0
   -5.9394  -23.0623   27.3854 C   0  0  0  0  0  0  0  0  0  0  0  0
   -4.8388  -23.9695   27.8255 C   0  0  2  0  0  0  0  0  0  0  0  0
   -4.2659  -24.6114   26.6156 N   0  0  0  0  0  0  0  0  0  0  0  0
   -5.2637  -25.0367   28.7797 C   0  0  0  0  0  0  0  0  0  0  0  0
   -6.1275  -25.8493   28.3783 O   0  0  0  0  0  0  0  0  0  0  0  0
   -4.9873  -20.8201   26.8466 C   0  0  0  0  0  0  0  0  0  0  0  0
   -4.6423  -19.8213   25.9936 C   0  0  0  0  0  0  0  0  0  0  0  0
   -2.9217  -25.9889   32.6141 C   0  0  0  0  0  0  0  0  0  0  0  0
   -3.7632  -26.7932   31.7143 C   0  0  2  0  0  0  0  0  0  0  0  0
   -2.9626  -27.4984   30.6564 C   0  0  0  0  0  0  0  0  0  0  0  0
   -4.9544  -26.1483   31.0771 C   0  0  2  0  0  0  0  0  0  0  0  0
   -4.7506  -25.1694   30.0706 N   0  0  0  0  0  0  0  0  0  0  0  0
   -6.0135  -25.8024   32.0394 C   0  0  0  0  0  0  0  0  0  0  0  0
   -6.5055  -26.6681   32.8425 O   0  0  0  0  0  0  0  0  0  0  0  0
   -6.5350  -24.5243   32.1259 O   0  0  0  0  0  0  0  0  0  0  0  0
  2  1  1  0
  3  2  2  0
  4  5  1  0
  4  2  1  0
  5  7  1  0
  5  6  1  6
  7  8  2  0
  9 10  1  0
 10 11  2  0
 11 12  1  0
 13 12  2  0
 13 14  1  0
 15 14  1  6
 15 17  1  0
 16  7  1  0
 16 15  1  0
 17 25  1  0
 18 17  2  0
 19 13  1  0
 20 10  1  0
 20 19  2  0
 22 21  1  6
 22 23  1  0
 24 26  1  0
 24 22  1  0
 24 25  1  1
 26 28  1  0
 27 26  2  0
M  END
$$$$
