NYV.pdb
     RDKit          3D

 28 28  0  0  1  0  0  0  0  0999 V2000
    9.1758  -15.1245   17.3204 N   0  0  0  0  0  0  0  0  0  0  0  0
    7.8214  -15.4714   17.5514 C   0  0  0  0  0  0  0  0  0  0  0  0
    7.0471  -15.6832   16.5752 O   0  0  0  0  0  0  0  0  0  0  0  0
    7.2670  -15.5970   18.9048 C   0  0  0  0  0  0  0  0  0  0  0  0
    8.3102  -15.2992   19.9727 C   0  0  2  0  0  0  0  0  0  0  0  0
    9.4860  -16.1190   19.7418 N   0  0  0  0  0  0  0  0  0  0  0  0
    7.7907  -15.6074   21.3240 C   0  0  0  0  0  0  0  0  0  0  0  0
    6.6983  -15.1364   21.6890 O   0  0  0  0  0  0  0  0  0  0  0  0
    8.0342  -19.2542   29.4816 O   0  0  0  0  0  0  0  0  0  0  0  0
    8.2692  -18.9272   28.1658 C   0  0  0  0  0  0  0  0  0  0  0  0
    9.4258  -18.2906   27.7422 C   0  0  0  0  0  0  0  0  0  0  0  0
    9.6371  -17.9740   26.4195 C   0  0  0  0  0  0  0  0  0  0  0  0
    8.6989  -18.2790   25.4533 C   0  0  0  0  0  0  0  0  0  0  0  0
    8.8559  -17.9420   24.0303 C   0  0  0  0  0  0  0  0  0  0  0  0
    8.1623  -16.6998   23.5788 C   0  0  2  0  0  0  0  0  0  0  0  0
    8.5620  -16.4399   22.1728 N   0  0  0  0  0  0  0  0  0  0  0  0
    8.4704  -15.4893   24.3972 C   0  0  0  0  0  0  0  0  0  0  0  0
    9.5939  -14.9615   24.2335 O   0  0  0  0  0  0  0  0  0  0  0  0
    7.5397  -18.9211   25.9102 C   0  0  0  0  0  0  0  0  0  0  0  0
    7.3364  -19.2320   27.2163 C   0  0  0  0  0  0  0  0  0  0  0  0
    6.0291  -12.2004   24.9324 C   0  0  0  0  0  0  0  0  0  0  0  0
    6.4828  -12.8399   26.1772 C   0  0  2  0  0  0  0  0  0  0  0  0
    6.6883  -11.8509   27.2894 C   0  0  0  0  0  0  0  0  0  0  0  0
    7.6584  -13.7652   26.1226 C   0  0  2  0  0  0  0  0  0  0  0  0
    7.5809  -14.9289   25.3148 N   0  0  0  0  0  0  0  0  0  0  0  0
    8.2823  -13.9920   27.4367 C   0  0  0  0  0  0  0  0  0  0  0  0
    8.2697  -15.1399   28.0013 O   0  0  0  0  0  0  0  0  0  0  0  0
    8.9134  -12.9769   28.1323 O   0  0  0  0  0  0  0  0  0  0  0  0
  2  1  1  0
  3  2  2  0
  4  5  1  0
  4  2  1  0
  5  7  1  0
  5  6  1  6
  7  8  2  0
  9 10  1  0
 10 11  2  0
 11 12  1  0
 13 12  2  0
 13 14  1  0
 15 14  1  1
 15 17  1  0
 16  7  1  0
 16 15  1  0
 17 25  1  0
 18 17  2  0
 19 13  1  0
 20 10  1  0
 20 19  2  0
 22 21  1  6
 22 23  1  0
 24 26  1  0
 24 22  1  0
 24 25  1  1
 26 28  1  0
 27 26  2  0
M  END
$$$$
