NYV.pdb
     RDKit          3D

 28 28  0  0  1  0  0  0  0  0999 V2000
    7.4989  -13.0534   16.6920 N   0  0  0  0  0  0  0  0  0  0  0  0
    8.3867  -13.4657   17.7166 C   0  0  0  0  0  0  0  0  0  0  0  0
    9.6354  -13.4256   17.5257 O   0  0  0  0  0  0  0  0  0  0  0  0
    7.9081  -13.9486   19.0175 C   0  0  0  0  0  0  0  0  0  0  0  0
    8.5909  -15.2469   19.4244 C   0  0  2  0  0  0  0  0  0  0  0  0
    8.1895  -16.3086   18.5192 N   0  0  0  0  0  0  0  0  0  0  0  0
    8.2067  -15.6418   20.7983 C   0  0  0  0  0  0  0  0  0  0  0  0
    7.0147  -15.5785   21.1495 O   0  0  0  0  0  0  0  0  0  0  0  0
    9.1649  -20.0436   28.5144 O   0  0  0  0  0  0  0  0  0  0  0  0
    9.2464  -19.4852   27.2594 C   0  0  0  0  0  0  0  0  0  0  0  0
    8.1295  -19.1569   26.5063 C   0  0  0  0  0  0  0  0  0  0  0  0
    8.2378  -18.5990   25.2527 C   0  0  0  0  0  0  0  0  0  0  0  0
    9.4721  -18.3421   24.6894 C   0  0  0  0  0  0  0  0  0  0  0  0
    9.6514  -17.7735   23.3449 C   0  0  0  0  0  0  0  0  0  0  0  0
    8.9082  -16.5079   23.0728 C   0  0  2  0  0  0  0  0  0  0  0  0
    9.2201  -16.0858   21.6840 N   0  0  0  0  0  0  0  0  0  0  0  0
    9.2393  -15.3864   24.0014 C   0  0  0  0  0  0  0  0  0  0  0  0
   10.4071  -14.9369   23.9587 O   0  0  0  0  0  0  0  0  0  0  0  0
   10.5829  -18.6849   25.4724 C   0  0  0  0  0  0  0  0  0  0  0  0
   10.4707  -19.2344   26.7092 C   0  0  0  0  0  0  0  0  0  0  0  0
    6.1291  -12.8443   26.2074 C   0  0  0  0  0  0  0  0  0  0  0  0
    7.5475  -12.6453   25.8712 C   0  0  2  0  0  0  0  0  0  0  0  0
    7.7328  -11.9058   24.5766 C   0  0  0  0  0  0  0  0  0  0  0  0
    8.4641  -13.8285   25.8938 C   0  0  2  0  0  0  0  0  0  0  0  0
    8.3251  -14.8257   24.8942 N   0  0  0  0  0  0  0  0  0  0  0  0
    8.6867  -14.3668   27.2459 C   0  0  0  0  0  0  0  0  0  0  0  0
    8.4809  -15.5981   27.5252 O   0  0  0  0  0  0  0  0  0  0  0  0
    9.1281  -13.5706   28.2872 O   0  0  0  0  0  0  0  0  0  0  0  0
  2  1  1  0
  3  2  2  0
  4  5  1  0
  4  2  1  0
  5  7  1  0
  5  6  1  6
  7  8  2  0
  9 10  1  0
 10 11  2  0
 11 12  1  0
 13 12  2  0
 13 14  1  0
 15 14  1  1
 15 17  1  0
 16  7  1  0
 16 15  1  0
 17 25  1  0
 18 17  2  0
 19 13  1  0
 20 10  1  0
 20 19  2  0
 22 21  1  6
 22 23  1  0
 24 26  1  0
 24 22  1  0
 24 25  1  6
 26 28  1  0
 27 26  2  0
M  END
$$$$
