NWM.pdb
     RDKit          3D

 31 32  0  0  1  0  0  0  0  0999 V2000
   12.0202  -20.2111   17.6549 N   0  0  0  0  0  0  0  0  0  0  0  0
   11.9820  -18.8372   17.2706 C   0  0  0  0  0  0  0  0  0  0  0  0
   12.4119  -18.5633   16.1372 O   0  0  0  0  0  0  0  0  0  0  0  0
   11.4498  -17.8503   18.2133 C   0  0  0  0  0  0  0  0  0  0  0  0
   11.0791  -18.4265   19.5660 C   0  0  2  0  0  0  0  0  0  0  0  0
    9.7740  -19.1109   19.3944 N   0  0  0  0  0  0  0  0  0  0  0  0
   10.8899  -17.4102   20.6202 C   0  0  0  0  0  0  0  0  0  0  0  0
   11.8409  -16.6257   20.9006 O   0  0  0  0  0  0  0  0  0  0  0  0
    9.6752  -17.2718   21.3341 N   0  0  0  0  0  0  0  0  0  0  0  0
    9.4693  -16.2833   22.3719 C   0  0  1  0  0  0  0  0  0  0  0  0
    8.0612  -15.7733   22.3836 C   0  0  0  0  0  0  0  0  0  0  0  0
    7.8520  -14.5062   23.1002 C   0  0  0  0  0  0  0  0  0  0  0  0
    8.2478  -13.2511   22.5816 C   0  0  0  0  0  0  0  0  0  0  0  0
    7.9041  -12.2760   23.4334 N   0  0  0  0  0  0  0  0  0  0  0  0
    7.3035  -12.8147   24.4888 C   0  0  0  0  0  0  0  0  0  0  0  0
    6.7847  -12.2155   25.6273 C   0  0  0  0  0  0  0  0  0  0  0  0
    6.2240  -13.0535   26.5710 C   0  0  0  0  0  0  0  0  0  0  0  0
    6.1770  -14.4132   26.4019 C   0  0  0  0  0  0  0  0  0  0  0  0
    6.7045  -14.9684   25.2548 C   0  0  0  0  0  0  0  0  0  0  0  0
    7.2667  -14.1922   24.2932 C   0  0  0  0  0  0  0  0  0  0  0  0
    9.8824  -16.7726   23.6725 C   0  0  0  0  0  0  0  0  0  0  0  0
    9.8589  -17.9742   24.0012 O   0  0  0  0  0  0  0  0  0  0  0  0
    9.0791  -12.9864   28.9391 C   0  0  0  0  0  0  0  0  0  0  0  0
   10.4562  -14.0316   29.4625 S   0  0  0  0  0  0  0  0  0  0  0  0
   10.6909  -15.4455   28.3809 C   0  0  0  0  0  0  0  0  0  0  0  0
   10.5289  -15.0622   26.9280 C   0  0  0  0  0  0  0  0  0  0  0  0
   10.6472  -16.3067   26.0301 C   0  0  2  0  0  0  0  0  0  0  0  0
   10.3658  -15.8647   24.6809 N   0  0  0  0  0  0  0  0  0  0  0  0
    9.7110  -17.3312   26.5239 C   0  0  0  0  0  0  0  0  0  0  0  0
    8.5067  -17.2786   26.1791 O   0  0  0  0  0  0  0  0  0  0  0  0
   10.1583  -18.3426   27.3580 O   0  0  0  0  0  0  0  0  0  0  0  0
  2  3  2  0
  2  1  1  0
  4  2  1  0
  5  4  1  0
  5  6  1  6
  7  5  1  0
  7  8  2  0
  9  7  1  0
 10  9  1  0
 10 11  1  1
 11 12  1  0
 12 13  2  0
 12 20  1  0
 13 14  1  0
 14 15  1  0
 15 16  2  0
 16 17  1  0
 18 17  2  0
 19 18  1  0
 20 19  2  0
 20 15  1  0
 21 10  1  0
 22 21  2  0
 23 24  1  0
 25 24  1  0
 25 26  1  0
 27 26  1  1
 27 28  1  0
 28 21  1  0
 29 27  1  0
 30 29  2  0
 31 29  1  0
M  END
$$$$
