NWM.pdb
     RDKit          3D

 31 32  0  0  1  0  0  0  0  0999 V2000
   13.8948  -18.6068   18.8586 N   0  0  0  0  0  0  0  0  0  0  0  0
   13.3089  -17.3091   18.7623 C   0  0  0  0  0  0  0  0  0  0  0  0
   13.2677  -16.7987   17.6299 O   0  0  0  0  0  0  0  0  0  0  0  0
   12.8005  -16.6672   19.9769 C   0  0  0  0  0  0  0  0  0  0  0  0
   11.3696  -17.0359   20.3170 C   0  0  2  0  0  0  0  0  0  0  0  0
   10.5176  -16.4763   19.2390 N   0  0  0  0  0  0  0  0  0  0  0  0
   10.8851  -16.4554   21.5852 C   0  0  0  0  0  0  0  0  0  0  0  0
   11.1470  -15.2477   21.8524 O   0  0  0  0  0  0  0  0  0  0  0  0
   10.1278  -17.1992   22.5220 N   0  0  0  0  0  0  0  0  0  0  0  0
    9.6716  -16.6595   23.7857 C   0  0  1  0  0  0  0  0  0  0  0  0
    8.1767  -16.6352   23.8737 C   0  0  0  0  0  0  0  0  0  0  0  0
    7.5571  -15.3058   23.7657 C   0  0  0  0  0  0  0  0  0  0  0  0
    6.9848  -14.8154   22.5686 C   0  0  0  0  0  0  0  0  0  0  0  0
    6.4709  -13.5954   22.7744 N   0  0  0  0  0  0  0  0  0  0  0  0
    6.6717  -13.2490   24.0410 C   0  0  0  0  0  0  0  0  0  0  0  0
    6.3308  -12.0865   24.7169 C   0  0  0  0  0  0  0  0  0  0  0  0
    6.6903  -12.0125   26.0482 C   0  0  0  0  0  0  0  0  0  0  0  0
    7.3525  -13.0321   26.6819 C   0  0  0  0  0  0  0  0  0  0  0  0
    7.6726  -14.1712   25.9729 C   0  0  0  0  0  0  0  0  0  0  0  0
    7.3425  -14.2985   24.6621 C   0  0  0  0  0  0  0  0  0  0  0  0
   10.2728  -17.3444   24.9132 C   0  0  0  0  0  0  0  0  0  0  0  0
   10.6602  -18.5281   24.8796 O   0  0  0  0  0  0  0  0  0  0  0  0
   10.3512  -14.1247   30.6107 C   0  0  0  0  0  0  0  0  0  0  0  0
   10.4779  -13.6582   28.8702 S   0  0  0  0  0  0  0  0  0  0  0  0
   11.3749  -14.8742   27.9001 C   0  0  0  0  0  0  0  0  0  0  0  0
   11.1522  -16.2734   28.4262 C   0  0  0  0  0  0  0  0  0  0  0  0
   11.1700  -17.2887   27.2696 C   0  0  2  0  0  0  0  0  0  0  0  0
   10.4675  -16.6651   26.1684 N   0  0  0  0  0  0  0  0  0  0  0  0
   10.5475  -18.5400   27.7350 C   0  0  0  0  0  0  0  0  0  0  0  0
    9.3888  -18.8279   27.3523 O   0  0  0  0  0  0  0  0  0  0  0  0
   11.2370  -19.3897   28.5844 O   0  0  0  0  0  0  0  0  0  0  0  0
  2  3  2  0
  2  1  1  0
  4  2  1  0
  5  4  1  0
  5  6  1  6
  7  5  1  0
  7  8  2  0
  9  7  1  0
 10  9  1  0
 10 11  1  1
 11 12  1  0
 12 13  2  0
 12 20  1  0
 13 14  1  0
 14 15  1  0
 15 16  2  0
 16 17  1  0
 18 17  2  0
 19 18  1  0
 20 19  2  0
 20 15  1  0
 21 10  1  0
 22 21  2  0
 23 24  1  0
 25 24  1  0
 25 26  1  0
 27 26  1  1
 27 28  1  0
 28 21  1  0
 29 27  1  0
 30 29  2  0
 31 29  1  0
M  END
$$$$
