NWM.pdb
     RDKit          3D

 31 32  0  0  1  0  0  0  0  0999 V2000
   13.2189  -18.7098   17.5323 N   0  0  0  0  0  0  0  0  0  0  0  0
   12.4244  -17.5573   17.8099 C   0  0  0  0  0  0  0  0  0  0  0  0
   11.6749  -17.1646   16.8997 O   0  0  0  0  0  0  0  0  0  0  0  0
   12.5353  -16.9174   19.1229 C   0  0  0  0  0  0  0  0  0  0  0  0
   11.6786  -17.5596   20.1966 C   0  0  2  0  0  0  0  0  0  0  0  0
   10.2905  -17.5883   19.6737 N   0  0  0  0  0  0  0  0  0  0  0  0
   11.6388  -16.8042   21.4647 C   0  0  0  0  0  0  0  0  0  0  0  0
   12.7236  -16.5093   22.0431 O   0  0  0  0  0  0  0  0  0  0  0  0
   10.4258  -16.3876   22.0641 N   0  0  0  0  0  0  0  0  0  0  0  0
   10.3084  -16.0361   23.4638 C   0  0  1  0  0  0  0  0  0  0  0  0
    9.1199  -15.1617   23.7205 C   0  0  0  0  0  0  0  0  0  0  0  0
    8.1045  -15.1442   22.6567 C   0  0  0  0  0  0  0  0  0  0  0  0
    6.9861  -16.0102   22.6421 C   0  0  0  0  0  0  0  0  0  0  0  0
    6.2195  -15.7483   21.5752 N   0  0  0  0  0  0  0  0  0  0  0  0
    6.7679  -14.7576   20.8807 C   0  0  0  0  0  0  0  0  0  0  0  0
    6.3511  -14.1490   19.7058 C   0  0  0  0  0  0  0  0  0  0  0  0
    7.1513  -13.1382   19.2107 C   0  0  0  0  0  0  0  0  0  0  0  0
    8.3042  -12.7468   19.8410 C   0  0  0  0  0  0  0  0  0  0  0  0
    8.6825  -13.3783   21.0074 C   0  0  0  0  0  0  0  0  0  0  0  0
    7.9332  -14.3774   21.5400 C   0  0  0  0  0  0  0  0  0  0  0  0
   10.3168  -17.2083   24.3168 C   0  0  0  0  0  0  0  0  0  0  0  0
   10.7182  -18.3296   23.9510 O   0  0  0  0  0  0  0  0  0  0  0  0
    9.8361  -13.3825   30.1764 C   0  0  0  0  0  0  0  0  0  0  0  0
   11.2683  -13.5814   29.0938 S   0  0  0  0  0  0  0  0  0  0  0  0
   11.4474  -15.2664   28.4998 C   0  0  0  0  0  0  0  0  0  0  0  0
   10.6157  -15.5064   27.2608 C   0  0  0  0  0  0  0  0  0  0  0  0
   10.7728  -16.9617   26.7850 C   0  0  2  0  0  0  0  0  0  0  0  0
    9.8547  -17.1307   25.6788 N   0  0  0  0  0  0  0  0  0  0  0  0
   10.5003  -17.8582   27.9216 C   0  0  0  0  0  0  0  0  0  0  0  0
   11.4004  -18.0643   28.7696 O   0  0  0  0  0  0  0  0  0  0  0  0
    9.2615  -18.4643   28.0521 O   0  0  0  0  0  0  0  0  0  0  0  0
  2  3  2  0
  2  1  1  0
  4  2  1  0
  5  4  1  0
  5  6  1  6
  7  5  1  0
  7  8  2  0
  9  7  1  0
 10  9  1  0
 10 11  1  6
 11 12  1  0
 12 13  2  0
 12 20  1  0
 13 14  1  0
 14 15  1  0
 15 16  2  0
 16 17  1  0
 18 17  2  0
 19 18  1  0
 20 19  2  0
 20 15  1  0
 21 10  1  0
 22 21  2  0
 23 24  1  0
 25 24  1  0
 25 26  1  0
 27 26  1  1
 27 28  1  0
 28 21  1  0
 29 27  1  0
 30 29  2  0
 31 29  1  0
M  END
$$$$
