NWM.pdb
     RDKit          3D

 31 32  0  0  1  0  0  0  0  0999 V2000
   13.8823  -17.0021   18.6418 N   0  0  0  0  0  0  0  0  0  0  0  0
   13.6617  -15.5922   18.6602 C   0  0  0  0  0  0  0  0  0  0  0  0
   14.2807  -14.9202   17.8178 O   0  0  0  0  0  0  0  0  0  0  0  0
   12.7384  -15.0304   19.6490 C   0  0  0  0  0  0  0  0  0  0  0  0
   11.6770  -16.0032   20.1246 C   0  0  2  0  0  0  0  0  0  0  0  0
   10.5680  -15.9381   19.1412 N   0  0  0  0  0  0  0  0  0  0  0  0
   11.0981  -15.6644   21.4400 C   0  0  0  0  0  0  0  0  0  0  0  0
   11.5251  -14.6490   22.0605 O   0  0  0  0  0  0  0  0  0  0  0  0
   10.0714  -16.4327   22.0399 N   0  0  0  0  0  0  0  0  0  0  0  0
    9.5412  -16.1617   23.3597 C   0  0  1  0  0  0  0  0  0  0  0  0
    8.1362  -16.6587   23.5082 C   0  0  0  0  0  0  0  0  0  0  0  0
    7.2814  -15.8801   24.4171 C   0  0  0  0  0  0  0  0  0  0  0  0
    6.1171  -16.4073   25.0235 C   0  0  0  0  0  0  0  0  0  0  0  0
    5.5603  -15.4860   25.8208 N   0  0  0  0  0  0  0  0  0  0  0  0
    6.2897  -14.3767   25.7760 C   0  0  0  0  0  0  0  0  0  0  0  0
    6.1104  -13.1598   26.4173 C   0  0  0  0  0  0  0  0  0  0  0  0
    7.0442  -12.1760   26.1577 C   0  0  0  0  0  0  0  0  0  0  0  0
    8.1012  -12.3804   25.3090 C   0  0  0  0  0  0  0  0  0  0  0  0
    8.2427  -13.6057   24.6916 C   0  0  0  0  0  0  0  0  0  0  0  0
    7.3551  -14.6094   24.9111 C   0  0  0  0  0  0  0  0  0  0  0  0
   10.4108  -16.6659   24.4043 C   0  0  0  0  0  0  0  0  0  0  0  0
   11.2246  -17.5951   24.2411 O   0  0  0  0  0  0  0  0  0  0  0  0
    8.6558  -13.4919   29.3633 C   0  0  0  0  0  0  0  0  0  0  0  0
   10.4505  -13.3922   29.1847 S   0  0  0  0  0  0  0  0  0  0  0  0
   11.0645  -14.4355   27.8585 C   0  0  0  0  0  0  0  0  0  0  0  0
   10.7061  -15.8860   28.0861 C   0  0  0  0  0  0  0  0  0  0  0  0
   11.0528  -16.7240   26.8425 C   0  0  2  0  0  0  0  0  0  0  0  0
   10.3833  -16.0924   25.7253 N   0  0  0  0  0  0  0  0  0  0  0  0
   10.6244  -18.1133   27.0796 C   0  0  0  0  0  0  0  0  0  0  0  0
    9.6008  -18.5469   26.4998 O   0  0  0  0  0  0  0  0  0  0  0  0
   11.3472  -18.9316   27.9322 O   0  0  0  0  0  0  0  0  0  0  0  0
  2  3  2  0
  2  1  1  0
  4  2  1  0
  5  4  1  0
  5  6  1  6
  7  5  1  0
  7  8  2  0
  9  7  1  0
 10  9  1  0
 10 11  1  6
 11 12  1  0
 12 13  2  0
 12 20  1  0
 13 14  1  0
 14 15  1  0
 15 16  2  0
 16 17  1  0
 18 17  2  0
 19 18  1  0
 20 19  2  0
 20 15  1  0
 21 10  1  0
 22 21  2  0
 23 24  1  0
 25 24  1  0
 25 26  1  0
 27 26  1  1
 27 28  1  0
 28 21  1  0
 29 27  1  0
 30 29  2  0
 31 29  1  0
M  END
$$$$
