NWM.pdb
     RDKit          3D

 31 32  0  0  1  0  0  0  0  0999 V2000
   11.4858  -18.9213   17.1160 N   0  0  0  0  0  0  0  0  0  0  0  0
   12.5523  -18.5064   17.9687 C   0  0  0  0  0  0  0  0  0  0  0  0
   13.7051  -18.7763   17.5910 O   0  0  0  0  0  0  0  0  0  0  0  0
   12.2342  -17.8014   19.2127 C   0  0  0  0  0  0  0  0  0  0  0  0
   10.7489  -17.6933   19.4982 C   0  0  2  0  0  0  0  0  0  0  0  0
   10.1278  -17.0813   18.2978 N   0  0  0  0  0  0  0  0  0  0  0  0
   10.4191  -16.8171   20.6399 C   0  0  0  0  0  0  0  0  0  0  0  0
   11.2500  -15.9364   21.0038 O   0  0  0  0  0  0  0  0  0  0  0  0
    9.1978  -16.9187   21.3488 N   0  0  0  0  0  0  0  0  0  0  0  0
    8.8162  -16.0133   22.4122 C   0  0  1  0  0  0  0  0  0  0  0  0
    7.4631  -16.3413   22.9641 C   0  0  0  0  0  0  0  0  0  0  0  0
    7.0446  -15.5479   24.1295 C   0  0  0  0  0  0  0  0  0  0  0  0
    6.3302  -16.0958   25.2207 C   0  0  0  0  0  0  0  0  0  0  0  0
    6.1136  -15.1509   26.1454 N   0  0  0  0  0  0  0  0  0  0  0  0
    6.6436  -14.0067   25.7277 C   0  0  0  0  0  0  0  0  0  0  0  0
    6.6659  -12.7570   26.3296 C   0  0  0  0  0  0  0  0  0  0  0  0
    7.2916  -11.7419   25.6330 C   0  0  0  0  0  0  0  0  0  0  0  0
    7.8661  -11.9473   24.4052 C   0  0  0  0  0  0  0  0  0  0  0  0
    7.8217  -13.2056   23.8422 C   0  0  0  0  0  0  0  0  0  0  0  0
    7.2207  -14.2408   24.4830 C   0  0  0  0  0  0  0  0  0  0  0  0
    9.8259  -15.9443   23.4501 C   0  0  0  0  0  0  0  0  0  0  0  0
   10.6504  -15.0162   23.5553 O   0  0  0  0  0  0  0  0  0  0  0  0
   11.2043  -12.6250   28.9221 C   0  0  0  0  0  0  0  0  0  0  0  0
    9.9873  -13.9092   28.5579 S   0  0  0  0  0  0  0  0  0  0  0  0
   10.7111  -15.3160   27.7089 C   0  0  0  0  0  0  0  0  0  0  0  0
    9.9866  -15.6134   26.4163 C   0  0  0  0  0  0  0  0  0  0  0  0
   10.6693  -16.7775   25.6762 C   0  0  2  0  0  0  0  0  0  0  0  0
    9.9240  -16.9753   24.4512 N   0  0  0  0  0  0  0  0  0  0  0  0
   10.6758  -17.9554   26.5608 C   0  0  0  0  0  0  0  0  0  0  0  0
   11.3491  -17.9246   27.6180 O   0  0  0  0  0  0  0  0  0  0  0  0
    9.9435  -19.0832   26.2281 O   0  0  0  0  0  0  0  0  0  0  0  0
  2  3  2  0
  2  1  1  0
  4  2  1  0
  5  4  1  0
  5  6  1  6
  7  5  1  0
  7  8  2  0
  9  7  1  0
 10  9  1  0
 10 11  1  1
 11 12  1  0
 12 13  2  0
 12 20  1  0
 13 14  1  0
 14 15  1  0
 15 16  2  0
 16 17  1  0
 18 17  2  0
 19 18  1  0
 20 19  2  0
 20 15  1  0
 21 10  1  0
 22 21  2  0
 23 24  1  0
 25 24  1  0
 25 26  1  0
 27 26  1  1
 27 28  1  0
 28 21  1  0
 29 27  1  0
 30 29  2  0
 31 29  1  0
M  END
$$$$
