NWM.pdb
     RDKit          3D

 31 32  0  0  1  0  0  0  0  0999 V2000
   12.0963  -18.2727   17.1379 N   0  0  0  0  0  0  0  0  0  0  0  0
   11.2661  -17.1304   16.9313 C   0  0  0  0  0  0  0  0  0  0  0  0
   11.1375  -16.7397   15.7586 O   0  0  0  0  0  0  0  0  0  0  0  0
   10.6271  -16.4980   18.0878 C   0  0  0  0  0  0  0  0  0  0  0  0
   11.0358  -17.0937   19.4209 C   0  0  2  0  0  0  0  0  0  0  0  0
   10.3772  -18.4199   19.5147 N   0  0  0  0  0  0  0  0  0  0  0  0
   10.5861  -16.3130   20.5906 C   0  0  0  0  0  0  0  0  0  0  0  0
   11.1772  -15.2328   20.8775 O   0  0  0  0  0  0  0  0  0  0  0  0
    9.5072  -16.7237   21.4101 N   0  0  0  0  0  0  0  0  0  0  0  0
    9.1018  -16.0168   22.6069 C   0  0  1  0  0  0  0  0  0  0  0  0
    7.6491  -16.2210   22.9091 C   0  0  0  0  0  0  0  0  0  0  0  0
    7.1357  -15.4885   24.0764 C   0  0  0  0  0  0  0  0  0  0  0  0
    6.5723  -16.1302   25.2043 C   0  0  0  0  0  0  0  0  0  0  0  0
    6.2210  -15.2182   26.1205 N   0  0  0  0  0  0  0  0  0  0  0  0
    6.5190  -14.0073   25.6626 C   0  0  0  0  0  0  0  0  0  0  0  0
    6.3355  -12.7601   26.2417 C   0  0  0  0  0  0  0  0  0  0  0  0
    6.7411  -11.6656   25.5036 C   0  0  0  0  0  0  0  0  0  0  0  0
    7.2989  -11.7931   24.2577 C   0  0  0  0  0  0  0  0  0  0  0  0
    7.4635  -13.0519   23.7185 C   0  0  0  0  0  0  0  0  0  0  0  0
    7.0840  -14.1631   24.4002 C   0  0  0  0  0  0  0  0  0  0  0  0
    9.9452  -16.3454   23.7393 C   0  0  0  0  0  0  0  0  0  0  0  0
   10.4654  -17.4637   23.9155 O   0  0  0  0  0  0  0  0  0  0  0  0
   10.6101  -14.8240   31.4005 C   0  0  0  0  0  0  0  0  0  0  0  0
    9.8858  -14.4737   29.7832 S   0  0  0  0  0  0  0  0  0  0  0  0
   10.7432  -15.3207   28.4522 C   0  0  0  0  0  0  0  0  0  0  0  0
   10.1451  -14.9815   27.1063 C   0  0  0  0  0  0  0  0  0  0  0  0
   10.9042  -15.7123   25.9843 C   0  0  2  0  0  0  0  0  0  0  0  0
   10.2419  -15.3594   24.7466 N   0  0  0  0  0  0  0  0  0  0  0  0
   10.8884  -17.1569   26.2721 C   0  0  0  0  0  0  0  0  0  0  0  0
   11.9717  -17.7524   26.4814 O   0  0  0  0  0  0  0  0  0  0  0  0
    9.6887  -17.8482   26.3131 O   0  0  0  0  0  0  0  0  0  0  0  0
  2  3  2  0
  2  1  1  0
  4  2  1  0
  5  4  1  0
  5  6  1  1
  7  5  1  0
  7  8  2  0
  9  7  1  0
 10  9  1  0
 10 11  1  1
 11 12  1  0
 12 13  2  0
 12 20  1  0
 13 14  1  0
 14 15  1  0
 15 16  2  0
 16 17  1  0
 18 17  2  0
 19 18  1  0
 20 19  2  0
 20 15  1  0
 21 10  1  0
 22 21  2  0
 23 24  1  0
 25 24  1  0
 25 26  1  0
 27 26  1  1
 27 28  1  0
 28 21  1  0
 29 27  1  0
 30 29  2  0
 31 29  1  0
M  END
$$$$
