NWM.pdb
     RDKit          3D

 31 32  0  0  1  0  0  0  0  0999 V2000
   12.1341  -17.6858   17.5367 N   0  0  0  0  0  0  0  0  0  0  0  0
   11.2916  -16.5363   17.6112 C   0  0  0  0  0  0  0  0  0  0  0  0
   11.2111  -15.8370   16.5871 O   0  0  0  0  0  0  0  0  0  0  0  0
   10.5854  -16.2530   18.8630 C   0  0  0  0  0  0  0  0  0  0  0  0
   10.8534  -17.2602   19.9642 C   0  0  2  0  0  0  0  0  0  0  0  0
    9.8943  -18.3745   19.7650 N   0  0  0  0  0  0  0  0  0  0  0  0
   10.6203  -16.7379   21.3254 C   0  0  0  0  0  0  0  0  0  0  0  0
   11.3232  -15.7754   21.7473 O   0  0  0  0  0  0  0  0  0  0  0  0
    9.6300  -17.2709   22.1854 N   0  0  0  0  0  0  0  0  0  0  0  0
    9.4174  -16.8062   23.5401 C   0  0  1  0  0  0  0  0  0  0  0  0
    7.9633  -16.6081   23.8391 C   0  0  0  0  0  0  0  0  0  0  0  0
    7.4976  -15.2132   23.8242 C   0  0  0  0  0  0  0  0  0  0  0  0
    7.2280  -14.5016   22.6318 C   0  0  0  0  0  0  0  0  0  0  0  0
    6.7916  -13.2692   22.9241 N   0  0  0  0  0  0  0  0  0  0  0  0
    6.7579  -13.1235   24.2440 C   0  0  0  0  0  0  0  0  0  0  0  0
    6.3887  -12.0315   25.0159 C   0  0  0  0  0  0  0  0  0  0  0  0
    6.4726  -12.1812   26.3862 C   0  0  0  0  0  0  0  0  0  0  0  0
    6.8991  -13.3476   26.9670 C   0  0  0  0  0  0  0  0  0  0  0  0
    7.2569  -14.4095   26.1627 C   0  0  0  0  0  0  0  0  0  0  0  0
    7.1927  -14.3185   24.8096 C   0  0  0  0  0  0  0  0  0  0  0  0
   10.0614  -17.6668   24.5128 C   0  0  0  0  0  0  0  0  0  0  0  0
    9.5920  -18.7564   24.8936 O   0  0  0  0  0  0  0  0  0  0  0  0
   11.1359  -12.9035   28.2235 C   0  0  0  0  0  0  0  0  0  0  0  0
   10.5261  -14.3074   29.1826 S   0  0  0  0  0  0  0  0  0  0  0  0
   11.1287  -15.8779   28.5544 C   0  0  0  0  0  0  0  0  0  0  0  0
   10.8964  -16.0030   27.0662 C   0  0  0  0  0  0  0  0  0  0  0  0
   11.5250  -17.3033   26.5343 C   0  0  2  0  0  0  0  0  0  0  0  0
   11.3233  -17.2976   25.1010 N   0  0  0  0  0  0  0  0  0  0  0  0
   10.8893  -18.4439   27.2161 C   0  0  0  0  0  0  0  0  0  0  0  0
   11.2784  -18.7671   28.3633 O   0  0  0  0  0  0  0  0  0  0  0  0
    9.8709  -19.1493   26.5962 O   0  0  0  0  0  0  0  0  0  0  0  0
  2  3  2  0
  2  1  1  0
  4  2  1  0
  5  4  1  0
  5  6  1  6
  7  5  1  0
  7  8  2  0
  9  7  1  0
 10  9  1  0
 10 11  1  1
 11 12  1  0
 12 13  2  0
 12 20  1  0
 13 14  1  0
 14 15  1  0
 15 16  2  0
 16 17  1  0
 18 17  2  0
 19 18  1  0
 20 19  2  0
 20 15  1  0
 21 10  1  0
 22 21  2  0
 23 24  1  0
 25 24  1  0
 25 26  1  0
 27 26  1  1
 27 28  1  0
 28 21  1  0
 29 27  1  0
 30 29  2  0
 31 29  1  0
M  END
$$$$
