LEI.pdb
     RDKit          3D

 26 25  0  0  1  0  0  0  0  0999 V2000
    7.3619  -11.9462   19.5142 C   0  0  0  0  0  0  0  0  0  0  0  0
    7.1913  -13.3827   19.1357 C   0  0  1  0  0  0  0  0  0  0  0  0
    8.2278  -13.7434   18.0924 C   0  0  0  0  0  0  0  0  0  0  0  0
    7.3352  -14.3297   20.2824 C   0  0  0  0  0  0  0  0  0  0  0  0
    8.7581  -14.7263   20.5590 C   0  0  2  0  0  0  0  0  0  0  0  0
    9.2809  -15.6562   19.6010 N   0  0  0  0  0  0  0  0  0  0  0  0
    8.7801  -15.3803   21.8965 C   0  0  0  0  0  0  0  0  0  0  0  0
    7.9303  -14.9889   22.7407 O   0  0  0  0  0  0  0  0  0  0  0  0
    9.7173  -16.4022   22.2112 N   0  0  0  0  0  0  0  0  0  0  0  0
    9.6947  -16.9971   23.5068 C   0  0  1  0  0  0  0  0  0  0  0  0
   10.5449  -18.2394   23.5017 C   0  0  0  0  0  0  0  0  0  0  0  0
   10.5521  -18.8564   24.8606 C   0  0  0  0  0  0  0  0  0  0  0  0
   11.3840  -20.0919   24.9173 C   0  0  0  0  0  0  0  0  0  0  0  0
   12.6405  -20.0752   24.9319 O   0  0  0  0  0  0  0  0  0  0  0  0
   10.0945  -16.0533   24.5831 C   0  0  0  0  0  0  0  0  0  0  0  0
   11.1738  -15.4151   24.4882 O   0  0  0  0  0  0  0  0  0  0  0  0
   10.7570  -21.3279   24.9563 O   0  0  0  0  0  0  0  0  0  0  0  0
    6.8284  -12.4310   26.5370 C   0  0  0  0  0  0  0  0  0  0  0  0
    8.0292  -13.2377   26.1686 C   0  0  0  0  0  0  0  0  0  0  0  0
    8.5581  -14.0990   27.2862 C   0  0  2  0  0  0  0  0  0  0  0  0
    9.0709  -13.1741   28.3650 C   0  0  0  0  0  0  0  0  0  0  0  0
    9.6882  -15.0111   26.8305 C   0  0  2  0  0  0  0  0  0  0  0  0
    9.2629  -15.8584   25.7354 N   0  0  0  0  0  0  0  0  0  0  0  0
   10.0353  -15.8587   27.9953 C   0  0  0  0  0  0  0  0  0  0  0  0
   10.9356  -15.4768   28.9696 O   0  0  0  0  0  0  0  0  0  0  0  0
    9.4844  -16.9797   28.1032 O   0  0  0  0  0  0  0  0  0  0  0  0
  2  1  1  1
  2  4  1  0
  2  3  1  0
  5  6  1  6
  5  4  1  0
  7  5  1  0
  8  7  2  0
  9  7  1  0
 10  9  1  0
 11 12  1  0
 10 11  1  6
 12 13  1  0
 13 17  1  0
 13 14  2  0
 15 10  1  0
 15 16  2  0
 18 19  1  0
 19 20  1  0
 20 22  1  0
 20 21  1  1
 22 23  1  6
 23 15  1  0
 24 22  1  0
 25 24  1  0
 26 24  2  0
M  END
$$$$
