LEI.pdb
     RDKit          3D

 26 25  0  0  1  0  0  0  0  0999 V2000
    7.5595  -11.8445   19.0665 C   0  0  0  0  0  0  0  0  0  0  0  0
    7.6460  -13.3285   18.9055 C   0  0  1  0  0  0  0  0  0  0  0  0
    8.9372  -13.6722   18.1932 C   0  0  0  0  0  0  0  0  0  0  0  0
    7.6130  -14.0783   20.1976 C   0  0  0  0  0  0  0  0  0  0  0  0
    7.7428  -15.5663   20.0321 C   0  0  2  0  0  0  0  0  0  0  0  0
    6.5143  -16.2009   19.6529 N   0  0  0  0  0  0  0  0  0  0  0  0
    8.1607  -16.1202   21.3497 C   0  0  0  0  0  0  0  0  0  0  0  0
    7.2646  -16.2567   22.2251 O   0  0  0  0  0  0  0  0  0  0  0  0
    9.5108  -16.4806   21.6122 N   0  0  0  0  0  0  0  0  0  0  0  0
    9.8586  -17.0053   22.8916 C   0  0  1  0  0  0  0  0  0  0  0  0
   11.1296  -17.8035   22.7762 C   0  0  0  0  0  0  0  0  0  0  0  0
   11.5153  -18.3418   24.1137 C   0  0  0  0  0  0  0  0  0  0  0  0
   12.8242  -19.0545   24.0814 C   0  0  0  0  0  0  0  0  0  0  0  0
   13.8805  -18.5752   24.5648 O   0  0  0  0  0  0  0  0  0  0  0  0
    9.9531  -15.9564   23.9402 C   0  0  0  0  0  0  0  0  0  0  0  0
   10.8508  -15.0787   23.8696 O   0  0  0  0  0  0  0  0  0  0  0  0
   12.8972  -20.3079   23.4933 O   0  0  0  0  0  0  0  0  0  0  0  0
    6.9952  -11.7537   26.7827 C   0  0  0  0  0  0  0  0  0  0  0  0
    7.9911  -12.8471   26.9861 C   0  0  0  0  0  0  0  0  0  0  0  0
    7.9530  -13.9185   25.9273 C   0  0  2  0  0  0  0  0  0  0  0  0
    6.6475  -14.6623   26.0843 C   0  0  0  0  0  0  0  0  0  0  0  0
    9.1076  -14.9021   26.0557 C   0  0  2  0  0  0  0  0  0  0  0  0
    9.0305  -15.9299   25.0380 N   0  0  0  0  0  0  0  0  0  0  0  0
    8.9746  -15.5290   27.3917 C   0  0  0  0  0  0  0  0  0  0  0  0
    9.3750  -14.9143   28.5611 O   0  0  0  0  0  0  0  0  0  0  0  0
    8.4733  -16.6758   27.4658 O   0  0  0  0  0  0  0  0  0  0  0  0
  2  1  1  1
  2  4  1  0
  2  3  1  0
  5  6  1  1
  5  4  1  0
  7  5  1  0
  8  7  2  0
  9  7  1  0
 10  9  1  0
 11 12  1  0
 10 11  1  6
 12 13  1  0
 13 17  1  0
 13 14  2  0
 15 10  1  0
 15 16  2  0
 18 19  1  0
 19 20  1  0
 20 22  1  0
 20 21  1  1
 22 23  1  6
 23 15  1  0
 24 22  1  0
 25 24  1  0
 26 24  2  0
M  END
$$$$
