LEI.pdb
     RDKit          3D

 26 25  0  0  1  0  0  0  0  0999 V2000
    7.6746  -11.8799   19.5796 C   0  0  0  0  0  0  0  0  0  0  0  0
    7.7523  -13.3711   19.5009 C   0  0  1  0  0  0  0  0  0  0  0  0
    9.0486  -13.7615   18.8226 C   0  0  0  0  0  0  0  0  0  0  0  0
    7.7002  -14.0488   20.8315 C   0  0  0  0  0  0  0  0  0  0  0  0
    7.8395  -15.5429   20.7506 C   0  0  2  0  0  0  0  0  0  0  0  0
    6.6126  -16.2065   20.4185 N   0  0  0  0  0  0  0  0  0  0  0  0
    8.2718  -16.0176   22.0941 C   0  0  0  0  0  0  0  0  0  0  0  0
    7.4095  -16.0023   23.0129 O   0  0  0  0  0  0  0  0  0  0  0  0
    9.5985  -16.4690   22.3337 N   0  0  0  0  0  0  0  0  0  0  0  0
    9.9342  -17.0077   23.6105 C   0  0  1  0  0  0  0  0  0  0  0  0
   11.1207  -17.9235   23.4709 C   0  0  0  0  0  0  0  0  0  0  0  0
   11.4732  -18.5054   24.7992 C   0  0  0  0  0  0  0  0  0  0  0  0
   12.6712  -19.3898   24.7302 C   0  0  0  0  0  0  0  0  0  0  0  0
   12.6418  -20.6119   25.0215 O   0  0  0  0  0  0  0  0  0  0  0  0
   10.1585  -15.9589   24.6395 C   0  0  0  0  0  0  0  0  0  0  0  0
   11.0383  -15.0793   24.4565 O   0  0  0  0  0  0  0  0  0  0  0  0
   13.8847  -18.8539   24.3271 O   0  0  0  0  0  0  0  0  0  0  0  0
    6.6335  -12.6546   26.3368 C   0  0  0  0  0  0  0  0  0  0  0  0
    7.9027  -13.3918   26.0652 C   0  0  0  0  0  0  0  0  0  0  0  0
    8.4289  -14.1664   27.2457 C   0  0  2  0  0  0  0  0  0  0  0  0
    8.7797  -13.1660   28.3220 C   0  0  0  0  0  0  0  0  0  0  0  0
    9.6660  -14.9827   26.8991 C   0  0  2  0  0  0  0  0  0  0  0  0
    9.3821  -15.9348   25.8452 N   0  0  0  0  0  0  0  0  0  0  0  0
   10.0395  -15.7170   28.1308 C   0  0  0  0  0  0  0  0  0  0  0  0
   10.8686  -15.1948   29.1031 O   0  0  0  0  0  0  0  0  0  0  0  0
    9.5800  -16.8712   28.3002 O   0  0  0  0  0  0  0  0  0  0  0  0
  2  1  1  1
  2  4  1  0
  2  3  1  0
  5  6  1  1
  5  4  1  0
  7  5  1  0
  8  7  2  0
  9  7  1  0
 10  9  1  0
 11 12  1  0
 10 11  1  6
 12 13  1  0
 13 17  1  0
 13 14  2  0
 15 10  1  0
 15 16  2  0
 18 19  1  0
 19 20  1  0
 20 22  1  0
 20 21  1  1
 22 23  1  6
 23 15  1  0
 24 22  1  0
 25 24  1  0
 26 24  2  0
M  END
$$$$
