LEI.pdb
     RDKit          3D

 26 25  0  0  1  0  0  0  0  0999 V2000
    9.2694  -13.0914   19.8032 C   0  0  0  0  0  0  0  0  0  0  0  0
    8.0937  -13.4514   20.6540 C   0  0  1  0  0  0  0  0  0  0  0  0
    7.1768  -12.2510   20.7603 C   0  0  0  0  0  0  0  0  0  0  0  0
    7.2973  -14.6006   20.1271 C   0  0  0  0  0  0  0  0  0  0  0  0
    8.0413  -15.9062   20.1466 C   0  0  2  0  0  0  0  0  0  0  0  0
    7.3100  -16.9812   19.5422 N   0  0  0  0  0  0  0  0  0  0  0  0
    8.2792  -16.2553   21.5745 C   0  0  0  0  0  0  0  0  0  0  0  0
    7.2663  -16.5131   22.2785 O   0  0  0  0  0  0  0  0  0  0  0  0
    9.5902  -16.2970   22.1231 N   0  0  0  0  0  0  0  0  0  0  0  0
    9.7840  -16.8279   23.4322 C   0  0  1  0  0  0  0  0  0  0  0  0
   10.8263  -17.9128   23.3828 C   0  0  0  0  0  0  0  0  0  0  0  0
   10.9587  -18.5526   24.7247 C   0  0  0  0  0  0  0  0  0  0  0  0
   11.9918  -19.6270   24.7405 C   0  0  0  0  0  0  0  0  0  0  0  0
   12.2755  -20.3235   23.7337 O   0  0  0  0  0  0  0  0  0  0  0  0
   10.1148  -15.7833   24.4363 C   0  0  0  0  0  0  0  0  0  0  0  0
   11.1155  -15.0419   24.2630 O   0  0  0  0  0  0  0  0  0  0  0  0
   12.6827  -19.8832   25.9149 O   0  0  0  0  0  0  0  0  0  0  0  0
    6.6660  -12.2503   26.0528 C   0  0  0  0  0  0  0  0  0  0  0  0
    7.9120  -13.0240   25.7752 C   0  0  0  0  0  0  0  0  0  0  0  0
    8.4600  -13.7577   26.9719 C   0  0  2  0  0  0  0  0  0  0  0  0
    8.8859  -12.7186   27.9823 C   0  0  0  0  0  0  0  0  0  0  0  0
    9.6552  -14.6318   26.6191 C   0  0  2  0  0  0  0  0  0  0  0  0
    9.3051  -15.6071   25.6071 N   0  0  0  0  0  0  0  0  0  0  0  0
   10.0370  -15.3382   27.8645 C   0  0  0  0  0  0  0  0  0  0  0  0
   10.9501  -14.8377   28.7707 O   0  0  0  0  0  0  0  0  0  0  0  0
    9.5048  -16.4467   28.1091 O   0  0  0  0  0  0  0  0  0  0  0  0
  2  1  1  6
  2  4  1  0
  2  3  1  0
  5  6  1  1
  5  4  1  0
  7  5  1  0
  8  7  2  0
  9  7  1  0
 10  9  1  0
 11 12  1  0
 10 11  1  6
 12 13  1  0
 13 17  1  0
 13 14  2  0
 15 10  1  0
 15 16  2  0
 18 19  1  0
 19 20  1  0
 20 22  1  0
 20 21  1  1
 22 23  1  6
 23 15  1  0
 24 22  1  0
 25 24  1  0
 26 24  2  0
M  END
$$$$
