LEI.pdb
     RDKit          3D

 26 25  0  0  1  0  0  0  0  0999 V2000
    6.4195  -12.6439   18.7372 C   0  0  0  0  0  0  0  0  0  0  0  0
    7.7117  -13.3492   18.9993 C   0  0  1  0  0  0  0  0  0  0  0  0
    8.8495  -12.3594   18.8629 C   0  0  0  0  0  0  0  0  0  0  0  0
    7.7951  -13.9709   20.3555 C   0  0  0  0  0  0  0  0  0  0  0  0
    9.1552  -14.5207   20.6816 C   0  0  2  0  0  0  0  0  0  0  0  0
    9.6360  -15.4528   19.7040 N   0  0  0  0  0  0  0  0  0  0  0  0
    9.0399  -15.2353   21.9830 C   0  0  0  0  0  0  0  0  0  0  0  0
    8.1553  -14.8300   22.7837 O   0  0  0  0  0  0  0  0  0  0  0  0
    9.8890  -16.3274   22.3112 N   0  0  0  0  0  0  0  0  0  0  0  0
    9.8027  -16.9155   23.6073 C   0  0  1  0  0  0  0  0  0  0  0  0
   10.6217  -18.1781   23.6393 C   0  0  0  0  0  0  0  0  0  0  0  0
   10.1618  -19.1100   22.5681 C   0  0  0  0  0  0  0  0  0  0  0  0
   10.9678  -20.3631   22.5230 C   0  0  0  0  0  0  0  0  0  0  0  0
   11.4691  -20.8209   21.4655 O   0  0  0  0  0  0  0  0  0  0  0  0
   10.1843  -15.9767   24.6945 C   0  0  0  0  0  0  0  0  0  0  0  0
   11.2815  -15.3650   24.6379 O   0  0  0  0  0  0  0  0  0  0  0  0
   11.1846  -21.0700   23.6958 O   0  0  0  0  0  0  0  0  0  0  0  0
    6.3790  -12.8432   26.6712 C   0  0  0  0  0  0  0  0  0  0  0  0
    7.7316  -13.3422   26.2841 C   0  0  0  0  0  0  0  0  0  0  0  0
    8.4503  -14.0849   27.3807 C   0  0  2  0  0  0  0  0  0  0  0  0
    8.8843  -13.0651   28.4073 C   0  0  0  0  0  0  0  0  0  0  0  0
    9.6738  -14.8323   26.8697 C   0  0  2  0  0  0  0  0  0  0  0  0
    9.3149  -15.7566   25.8138 N   0  0  0  0  0  0  0  0  0  0  0  0
   10.2086  -15.5942   28.0226 C   0  0  0  0  0  0  0  0  0  0  0  0
   10.0512  -16.9577   28.1692 O   0  0  0  0  0  0  0  0  0  0  0  0
   10.8360  -14.9704   28.9110 O   0  0  0  0  0  0  0  0  0  0  0  0
  2  1  1  1
  2  4  1  0
  2  3  1  0
  5  6  1  6
  5  4  1  0
  7  5  1  0
  8  7  2  0
  9  7  1  0
 10  9  1  0
 11 12  1  0
 10 11  1  6
 12 13  1  0
 13 17  1  0
 13 14  2  0
 15 10  1  0
 15 16  2  0
 18 19  1  0
 19 20  1  0
 20 22  1  0
 20 21  1  1
 22 23  1  6
 23 15  1  0
 24 22  1  0
 25 24  1  0
 26 24  2  0
M  END
$$$$
