LEI.pdb
     RDKit          3D

 26 25  0  0  1  0  0  0  0  0999 V2000
   11.0697  -14.8074   31.5369 C   0  0  0  0  0  0  0  0  0  0  0  0
   11.5658  -15.8990   30.6435 C   0  0  1  0  0  0  0  0  0  0  0  0
   10.7761  -17.1606   30.9224 C   0  0  0  0  0  0  0  0  0  0  0  0
   11.4468  -15.5873   29.1871 C   0  0  0  0  0  0  0  0  0  0  0  0
   10.6447  -16.6002   28.4195 C   0  0  2  0  0  0  0  0  0  0  0  0
   11.2155  -17.9150   28.4540 N   0  0  0  0  0  0  0  0  0  0  0  0
   10.6096  -16.1494   27.0008 C   0  0  0  0  0  0  0  0  0  0  0  0
   10.1149  -15.0132   26.7718 O   0  0  0  0  0  0  0  0  0  0  0  0
   11.1112  -16.9625   25.9478 N   0  0  0  0  0  0  0  0  0  0  0  0
   11.0470  -16.4864   24.6053 C   0  0  1  0  0  0  0  0  0  0  0  0
   11.8774  -17.3758   23.7190 C   0  0  0  0  0  0  0  0  0  0  0  0
   11.9341  -16.8090   22.3395 C   0  0  0  0  0  0  0  0  0  0  0  0
   12.8237  -17.5969   21.4395 C   0  0  0  0  0  0  0  0  0  0  0  0
   12.5399  -18.7504   21.0295 O   0  0  0  0  0  0  0  0  0  0  0  0
    9.6536  -16.3486   24.1069 C   0  0  0  0  0  0  0  0  0  0  0  0
    8.8071  -17.2441   24.3570 O   0  0  0  0  0  0  0  0  0  0  0  0
   14.0262  -17.0450   21.0253 O   0  0  0  0  0  0  0  0  0  0  0  0
    6.9809  -12.0210   25.2238 C   0  0  0  0  0  0  0  0  0  0  0  0
    7.2786  -13.4237   24.8084 C   0  0  0  0  0  0  0  0  0  0  0  0
    7.3957  -13.6120   23.3180 C   0  0  2  0  0  0  0  0  0  0  0  0
    6.0247  -13.3859   22.7252 C   0  0  0  0  0  0  0  0  0  0  0  0
    7.8778  -15.0070   22.9458 C   0  0  2  0  0  0  0  0  0  0  0  0
    9.2575  -15.2027   23.3405 N   0  0  0  0  0  0  0  0  0  0  0  0
    7.7750  -15.1038   21.4707 C   0  0  0  0  0  0  0  0  0  0  0  0
    6.6652  -15.6027   20.8189 O   0  0  0  0  0  0  0  0  0  0  0  0
    8.7443  -14.7132   20.7779 O   0  0  0  0  0  0  0  0  0  0  0  0
  2  1  1  1
  2  4  1  0
  2  3  1  0
  5  6  1  6
  5  4  1  0
  7  5  1  0
  8  7  2  0
  9  7  1  0
 10  9  1  0
 11 12  1  0
 10 11  1  6
 12 13  1  0
 13 17  1  0
 13 14  2  0
 15 10  1  0
 15 16  2  0
 18 19  1  0
 19 20  1  0
 20 22  1  0
 20 21  1  6
 22 23  1  6
 23 15  1  0
 24 22  1  0
 25 24  1  0
 26 24  2  0
M  END
$$$$
