LEI.pdb
     RDKit          3D

 26 25  0  0  1  0  0  0  0  0999 V2000
    6.9062  -12.1982   19.1769 C   0  0  0  0  0  0  0  0  0  0  0  0
    7.7810  -13.4097   19.2283 C   0  0  1  0  0  0  0  0  0  0  0  0
    9.2299  -12.9703   19.2489 C   0  0  0  0  0  0  0  0  0  0  0  0
    7.5403  -14.2773   20.4208 C   0  0  0  0  0  0  0  0  0  0  0  0
    8.5948  -15.3291   20.6211 C   0  0  2  0  0  0  0  0  0  0  0  0
    8.3938  -16.4916   19.8063 N   0  0  0  0  0  0  0  0  0  0  0  0
    8.5310  -15.7493   22.0483 C   0  0  0  0  0  0  0  0  0  0  0  0
    7.8365  -15.0402   22.8247 O   0  0  0  0  0  0  0  0  0  0  0  0
    9.2221  -16.8995   22.5181 N   0  0  0  0  0  0  0  0  0  0  0  0
    9.1618  -17.2347   23.9027 C   0  0  1  0  0  0  0  0  0  0  0  0
    9.8424  -18.5585   24.1270 C   0  0  0  0  0  0  0  0  0  0  0  0
    9.7301  -18.9514   25.5625 C   0  0  0  0  0  0  0  0  0  0  0  0
   10.3912  -20.2571   25.8457 C   0  0  0  0  0  0  0  0  0  0  0  0
   10.4996  -21.1728   24.9920 O   0  0  0  0  0  0  0  0  0  0  0  0
    9.7137  -16.1693   24.7798 C   0  0  0  0  0  0  0  0  0  0  0  0
   10.8244  -15.6464   24.5078 O   0  0  0  0  0  0  0  0  0  0  0  0
   10.9175  -20.4887   27.1073 O   0  0  0  0  0  0  0  0  0  0  0  0
    6.8132  -12.0235   26.3386 C   0  0  0  0  0  0  0  0  0  0  0  0
    7.9371  -12.9515   26.0157 C   0  0  0  0  0  0  0  0  0  0  0  0
    8.4827  -13.6948   27.2075 C   0  0  2  0  0  0  0  0  0  0  0  0
    9.0942  -12.6722   28.1362 C   0  0  0  0  0  0  0  0  0  0  0  0
    9.5433  -14.7151   26.8189 C   0  0  2  0  0  0  0  0  0  0  0  0
    8.9943  -15.7260   25.9388 N   0  0  0  0  0  0  0  0  0  0  0  0
    9.9869  -15.3558   28.0793 C   0  0  0  0  0  0  0  0  0  0  0  0
   10.9884  -14.8431   28.8790 O   0  0  0  0  0  0  0  0  0  0  0  0
    9.4253  -16.4175   28.4391 O   0  0  0  0  0  0  0  0  0  0  0  0
  2  1  1  1
  2  4  1  0
  2  3  1  0
  5  6  1  6
  5  4  1  0
  7  5  1  0
  8  7  2  0
  9  7  1  0
 10  9  1  0
 11 12  1  0
 10 11  1  6
 12 13  1  0
 13 17  1  0
 13 14  2  0
 15 10  1  0
 15 16  2  0
 18 19  1  0
 19 20  1  0
 20 22  1  0
 20 21  1  1
 22 23  1  6
 23 15  1  0
 24 22  1  0
 25 24  1  0
 26 24  2  0
M  END
$$$$
