LEI.pdb
     RDKit          3D

 26 25  0  0  1  0  0  0  0  0999 V2000
    7.2293  -11.9764   19.1634 C   0  0  0  0  0  0  0  0  0  0  0  0
    7.8531  -13.3179   18.9466 C   0  0  1  0  0  0  0  0  0  0  0  0
    9.3426  -13.2149   19.1991 C   0  0  0  0  0  0  0  0  0  0  0  0
    7.3035  -14.3887   19.8320 C   0  0  0  0  0  0  0  0  0  0  0  0
    7.9949  -15.7135   19.6726 C   0  0  2  0  0  0  0  0  0  0  0  0
    7.1669  -16.7120   19.0619 N   0  0  0  0  0  0  0  0  0  0  0  0
    8.3582  -16.1866   21.0370 C   0  0  0  0  0  0  0  0  0  0  0  0
    7.4152  -16.5608   21.7845 O   0  0  0  0  0  0  0  0  0  0  0  0
    9.7087  -16.2163   21.4805 N   0  0  0  0  0  0  0  0  0  0  0  0
   10.0095  -16.7417   22.7715 C   0  0  1  0  0  0  0  0  0  0  0  0
   11.3302  -17.4625   22.7229 C   0  0  0  0  0  0  0  0  0  0  0  0
   11.1885  -18.8244   23.3167 C   0  0  0  0  0  0  0  0  0  0  0  0
   12.4731  -19.3361   23.8734 C   0  0  0  0  0  0  0  0  0  0  0  0
   12.8971  -19.0319   25.0166 O   0  0  0  0  0  0  0  0  0  0  0  0
    9.9789  -15.7071   23.8380 C   0  0  0  0  0  0  0  0  0  0  0  0
   10.6746  -14.6661   23.7216 O   0  0  0  0  0  0  0  0  0  0  0  0
   13.2501  -20.1900   23.1057 O   0  0  0  0  0  0  0  0  0  0  0  0
    6.9325  -11.8330   26.8171 C   0  0  0  0  0  0  0  0  0  0  0  0
    7.9838  -12.8770   26.9991 C   0  0  0  0  0  0  0  0  0  0  0  0
    7.9936  -13.9339   25.9251 C   0  0  2  0  0  0  0  0  0  0  0  0
    6.6992  -14.7045   26.0382 C   0  0  0  0  0  0  0  0  0  0  0  0
    9.1634  -14.8970   26.0697 C   0  0  2  0  0  0  0  0  0  0  0  0
    9.1629  -15.8790   25.0050 N   0  0  0  0  0  0  0  0  0  0  0  0
    8.9775  -15.5866   27.3681 C   0  0  0  0  0  0  0  0  0  0  0  0
    9.3822  -15.0528   28.5751 O   0  0  0  0  0  0  0  0  0  0  0  0
    8.4249  -16.7120   27.3725 O   0  0  0  0  0  0  0  0  0  0  0  0
  2  1  1  1
  2  4  1  0
  2  3  1  0
  5  6  1  1
  5  4  1  0
  7  5  1  0
  8  7  2  0
  9  7  1  0
 10  9  1  0
 11 12  1  0
 10 11  1  6
 12 13  1  0
 13 17  1  0
 13 14  2  0
 15 10  1  0
 15 16  2  0
 18 19  1  0
 19 20  1  0
 20 22  1  0
 20 21  1  1
 22 23  1  6
 23 15  1  0
 24 22  1  0
 25 24  1  0
 26 24  2  0
M  END
$$$$
