LEI.pdb
     RDKit          3D

 26 25  0  0  1  0  0  0  0  0999 V2000
    7.2445  -11.9073   19.0933 C   0  0  0  0  0  0  0  0  0  0  0  0
    7.8608  -13.2580   18.9155 C   0  0  1  0  0  0  0  0  0  0  0  0
    9.3658  -13.1307   19.0240 C   0  0  0  0  0  0  0  0  0  0  0  0
    7.4048  -14.2659   19.9199 C   0  0  0  0  0  0  0  0  0  0  0  0
    8.0786  -15.6017   19.7789 C   0  0  2  0  0  0  0  0  0  0  0  0
    7.3003  -16.5505   19.0373 N   0  0  0  0  0  0  0  0  0  0  0  0
    8.2773  -16.1410   21.1526 C   0  0  0  0  0  0  0  0  0  0  0  0
    7.2427  -16.3641   21.8366 O   0  0  0  0  0  0  0  0  0  0  0  0
    9.5758  -16.3945   21.6731 N   0  0  0  0  0  0  0  0  0  0  0  0
    9.7128  -16.8682   23.0110 C   0  0  1  0  0  0  0  0  0  0  0  0
   10.8981  -17.7923   23.0956 C   0  0  0  0  0  0  0  0  0  0  0  0
   11.0253  -18.3310   24.4816 C   0  0  0  0  0  0  0  0  0  0  0  0
   12.2003  -19.2358   24.6320 C   0  0  0  0  0  0  0  0  0  0  0  0
   12.1470  -20.3387   25.2319 O   0  0  0  0  0  0  0  0  0  0  0  0
    9.7916  -15.7690   24.0082 C   0  0  0  0  0  0  0  0  0  0  0  0
   10.6472  -14.8579   23.8703 O   0  0  0  0  0  0  0  0  0  0  0  0
   13.4189  -18.8571   24.0897 O   0  0  0  0  0  0  0  0  0  0  0  0
    7.0318  -11.4864   26.8689 C   0  0  0  0  0  0  0  0  0  0  0  0
    8.0304  -12.5810   27.0501 C   0  0  0  0  0  0  0  0  0  0  0  0
    7.8640  -13.7306   26.0902 C   0  0  2  0  0  0  0  0  0  0  0  0
    6.5884  -14.4489   26.4628 C   0  0  0  0  0  0  0  0  0  0  0  0
    9.0267  -14.7110   26.1523 C   0  0  2  0  0  0  0  0  0  0  0  0
    8.9012  -15.7314   25.1320 N   0  0  0  0  0  0  0  0  0  0  0  0
    8.9635  -15.3484   27.4885 C   0  0  0  0  0  0  0  0  0  0  0  0
    9.4074  -14.7354   28.6429 O   0  0  0  0  0  0  0  0  0  0  0  0
    8.4829  -16.5030   27.5770 O   0  0  0  0  0  0  0  0  0  0  0  0
  2  1  1  1
  2  4  1  0
  2  3  1  0
  5  6  1  6
  5  4  1  0
  7  5  1  0
  8  7  2  0
  9  7  1  0
 10  9  1  0
 11 12  1  0
 10 11  1  6
 12 13  1  0
 13 17  1  0
 13 14  2  0
 15 10  1  0
 15 16  2  0
 18 19  1  0
 19 20  1  0
 20 22  1  0
 20 21  1  1
 22 23  1  6
 23 15  1  0
 24 22  1  0
 25 24  1  0
 26 24  2  0
M  END
$$$$
