TAC.pdb
     RDKit          3D

 19 18  0  0  1  0  0  0  0  0999 V2000
   17.1669  -11.3967  -14.2449 C   0  0  0  0  0  0  0  0  0  0  0  0
   18.1352  -12.4968  -14.6303 C   0  0  1  0  0  0  0  0  0  0  0  0
   17.5123  -13.7063  -14.2881 O   0  0  0  0  0  0  0  0  0  0  0  0
   18.3562  -12.3953  -16.1202 C   0  0  2  0  0  0  0  0  0  0  0  0
   19.0594  -13.5612  -16.5850 N   0  0  0  0  0  0  0  0  0  0  0  0
   19.0942  -11.1829  -16.5104 C   0  0  0  0  0  0  0  0  0  0  0  0
   20.3355  -11.0919  -16.2956 O   0  0  0  0  0  0  0  0  0  0  0  0
   18.2325   -7.9518  -18.2390 C   0  0  0  0  0  0  0  0  0  0  0  0
   19.1534   -8.8060  -17.3686 C   0  0  2  0  0  0  0  0  0  0  0  0
   18.4865  -10.0574  -17.1387 N   0  0  0  0  0  0  0  0  0  0  0  0
   19.4051   -8.0710  -16.0801 C   0  0  0  0  0  0  0  0  0  0  0  0
   18.5965   -8.1813  -15.1246 O   0  0  0  0  0  0  0  0  0  0  0  0
   20.5326   -7.2467  -15.8951 N   0  0  0  0  0  0  0  0  0  0  0  0
   20.8233   -6.4809  -14.7255 C   0  0  1  0  0  0  0  0  0  0  0  0
   22.3007   -6.2749  -14.4947 C   0  0  0  0  0  0  0  0  0  0  0  0
   22.4863   -5.4074  -12.9002 S   0  0  0  0  0  0  0  0  0  0  0  0
   20.0730   -5.2047  -14.6655 C   0  0  0  0  0  0  0  0  0  0  0  0
   20.0856   -4.4102  -15.6334 O   0  0  0  0  0  0  0  0  0  0  0  0
   19.3444   -4.8649  -13.5412 O   0  0  0  0  0  0  0  0  0  0  0  0
  2  1  1  6
  2  3  1  0
  4  6  1  0
  4  2  1  0
  4  5  1  1
  6 10  1  0
  7  6  2  0
  9  8  1  6
 10  9  1  0
 11  9  1  0
 12 11  2  0
 13 11  1  0
 14 13  1  0
 14 17  1  0
 14 15  1  6
 16 15  1  0
 17 19  1  0
 18 17  2  0
M  END
$$$$
