TAC.pdb
     RDKit          3D

 19 18  0  0  1  0  0  0  0  0999 V2000
   26.6529  -17.6818  -15.7207 C   0  0  0  0  0  0  0  0  0  0  0  0
   26.2089  -16.2500  -15.9433 C   0  0  1  0  0  0  0  0  0  0  0  0
   26.5912  -15.9191  -17.2518 O   0  0  0  0  0  0  0  0  0  0  0  0
   24.7080  -16.2182  -15.7850 C   0  0  2  0  0  0  0  0  0  0  0  0
   24.0965  -17.0173  -16.8134 N   0  0  0  0  0  0  0  0  0  0  0  0
   24.1550  -14.8545  -15.8223 C   0  0  0  0  0  0  0  0  0  0  0  0
   23.9005  -14.2967  -16.9266 O   0  0  0  0  0  0  0  0  0  0  0  0
   23.0508  -12.3184  -13.2742 C   0  0  0  0  0  0  0  0  0  0  0  0
   23.5377  -12.6886  -14.6747 C   0  0  2  0  0  0  0  0  0  0  0  0
   23.8739  -14.0851  -14.6563 N   0  0  0  0  0  0  0  0  0  0  0  0
   24.7349  -11.8379  -15.0013 C   0  0  0  0  0  0  0  0  0  0  0  0
   25.8934  -12.3096  -14.8815 O   0  0  0  0  0  0  0  0  0  0  0  0
   24.6100  -10.5066  -15.4453 N   0  0  0  0  0  0  0  0  0  0  0  0
   25.6826   -9.6640  -15.8677 C   0  0  1  0  0  0  0  0  0  0  0  0
   26.5457  -10.2833  -16.9401 C   0  0  0  0  0  0  0  0  0  0  0  0
   27.8266   -9.0606  -17.3807 S   0  0  0  0  0  0  0  0  0  0  0  0
   25.2386   -8.2997  -16.2373 C   0  0  0  0  0  0  0  0  0  0  0  0
   26.0731   -7.3840  -16.4202 O   0  0  0  0  0  0  0  0  0  0  0  0
   23.8956   -8.0095  -16.3879 O   0  0  0  0  0  0  0  0  0  0  0  0
  2  1  1  6
  2  3  1  0
  4  6  1  0
  4  2  1  0
  4  5  1  6
  6 10  1  0
  7  6  2  0
  9  8  1  1
 10  9  1  0
 11  9  1  0
 12 11  2  0
 13 11  1  0
 14 13  1  0
 14 17  1  0
 14 15  1  6
 16 15  1  0
 17 19  1  0
 18 17  2  0
M  END
$$$$
