TAC.pdb
     RDKit          3D

 19 18  0  0  1  0  0  0  0  0999 V2000
   11.4655   -8.6478  -11.3217 C   0  0  0  0  0  0  0  0  0  0  0  0
   11.3847   -9.7013  -10.2354 C   0  0  1  0  0  0  0  0  0  0  0  0
   10.0563  -10.1521  -10.2233 O   0  0  0  0  0  0  0  0  0  0  0  0
   12.3370  -10.8091  -10.6160 C   0  0  2  0  0  0  0  0  0  0  0  0
   12.1686  -11.9209   -9.7185 N   0  0  0  0  0  0  0  0  0  0  0  0
   13.7455  -10.3812  -10.6164 C   0  0  0  0  0  0  0  0  0  0  0  0
   14.2722   -9.9110   -9.5691 O   0  0  0  0  0  0  0  0  0  0  0  0
   16.4945  -10.2532  -13.1915 C   0  0  0  0  0  0  0  0  0  0  0  0
   15.9251   -9.9238  -11.8121 C   0  0  2  0  0  0  0  0  0  0  0  0
   14.5941  -10.4616  -11.7584 N   0  0  0  0  0  0  0  0  0  0  0  0
   15.9224   -8.4287  -11.6444 C   0  0  0  0  0  0  0  0  0  0  0  0
   15.0388   -7.7341  -12.2063 O   0  0  0  0  0  0  0  0  0  0  0  0
   16.8890   -7.7597  -10.8677 N   0  0  0  0  0  0  0  0  0  0  0  0
   16.9734   -6.3472  -10.6760 C   0  0  1  0  0  0  0  0  0  0  0  0
   17.3908   -5.9549   -9.2794 C   0  0  0  0  0  0  0  0  0  0  0  0
   16.2253   -6.7475   -8.1206 S   0  0  0  0  0  0  0  0  0  0  0  0
   17.7931   -5.6690  -11.7071 C   0  0  0  0  0  0  0  0  0  0  0  0
   18.4939   -6.3332  -12.5047 O   0  0  0  0  0  0  0  0  0  0  0  0
   17.8014   -4.2907  -11.8102 O   0  0  0  0  0  0  0  0  0  0  0  0
  2  1  1  6
  2  3  1  0
  4  6  1  0
  4  2  1  0
  4  5  1  1
  6 10  1  0
  7  6  2  0
  9  8  1  6
 10  9  1  0
 11  9  1  0
 12 11  2  0
 13 11  1  0
 14 13  1  0
 14 17  1  0
 14 15  1  1
 16 15  1  0
 17 19  1  0
 18 17  2  0
M  END
$$$$
