CHA.pdb
     RDKit          3D

 22 22  0  0  1  0  0  0  0  0999 V2000
   19.7782   -5.3120  -14.5916 N   0  0  0  0  0  0  0  0  0  0  0  0
   20.5761   -6.2158  -13.7981 C   0  0  1  0  0  0  0  0  0  0  0  0
   21.1486   -5.4535  -12.6321 C   0  0  0  0  0  0  0  0  0  0  0  0
   22.2812   -4.1988  -13.3271 S   0  0  0  0  0  0  0  0  0  0  0  0
   19.7832   -7.3984  -13.3707 C   0  0  0  0  0  0  0  0  0  0  0  0
   20.3627   -8.2958  -12.7251 O   0  0  0  0  0  0  0  0  0  0  0  0
   18.4020   -7.5424  -13.6680 N   0  0  0  0  0  0  0  0  0  0  0  0
   17.6764   -8.7244  -13.2757 C   0  0  1  0  0  0  0  0  0  0  0  0
   16.3134   -8.3740  -12.6996 C   0  0  0  0  0  0  0  0  0  0  0  0
   16.3736   -7.8449  -11.3448 C   0  0  0  0  0  0  0  0  0  0  0  0
   17.1216   -8.3315  -10.2960 C   0  0  0  0  0  0  0  0  0  0  0  0
   16.9003   -7.5558   -9.1939 N   0  0  0  0  0  0  0  0  0  0  0  0
   16.0327   -6.6070   -9.5508 C   0  0  0  0  0  0  0  0  0  0  0  0
   15.7110   -6.7850  -10.8676 N   0  0  0  0  0  0  0  0  0  0  0  0
   17.3967   -9.5965  -14.4738 C   0  0  0  0  0  0  0  0  0  0  0  0
   16.8673   -9.0938  -15.4979 O   0  0  0  0  0  0  0  0  0  0  0  0
   18.6124  -12.7210  -15.8383 C   0  0  0  0  0  0  0  0  0  0  0  0
   17.4461  -11.7552  -15.6551 C   0  0  2  0  0  0  0  0  0  0  0  0
   17.7158  -10.9814  -14.4810 N   0  0  0  0  0  0  0  0  0  0  0  0
   16.1804  -12.5140  -15.5644 C   0  0  0  0  0  0  0  0  0  0  0  0
   15.7338  -13.1741  -16.5350 O   0  0  0  0  0  0  0  0  0  0  0  0
   15.4491  -12.5130  -14.3892 O   0  0  0  0  0  0  0  0  0  0  0  0
  2  1  1  1
  2  5  1  0
  2  3  1  0
  3  4  1  0
  5  7  1  0
  6  5  2  0
  7  8  1  0
  8 15  1  0
  9 10  1  0
  8  9  1  6
 10 11  2  0
 12 11  1  0
 13 12  1  0
 14 13  2  0
 14 10  1  0
 15 16  2  0
 15 19  1  0
 18 17  1  1
 18 20  1  0
 19 18  1  0
 20 22  1  0
 21 20  2  0
M  END
$$$$
