CHA.pdb
     RDKit          3D

 22 22  0  0  1  0  0  0  0  0999 V2000
   18.6781  -23.7629  -13.9994 N   0  0  0  0  0  0  0  0  0  0  0  0
   18.7260  -23.2658  -12.6453 C   0  0  1  0  0  0  0  0  0  0  0  0
   17.8441  -22.0487  -12.5491 C   0  0  0  0  0  0  0  0  0  0  0  0
   17.9335  -21.4678  -10.8186 S   0  0  0  0  0  0  0  0  0  0  0  0
   18.3457  -24.3224  -11.6713 C   0  0  0  0  0  0  0  0  0  0  0  0
   17.1939  -24.7988  -11.7366 O   0  0  0  0  0  0  0  0  0  0  0  0
   19.2383  -24.8051  -10.6777 N   0  0  0  0  0  0  0  0  0  0  0  0
   18.8479  -25.8609   -9.7774 C   0  0  1  0  0  0  0  0  0  0  0  0
   19.9313  -26.9218   -9.6623 C   0  0  0  0  0  0  0  0  0  0  0  0
   20.0451  -27.7667  -10.8422 C   0  0  0  0  0  0  0  0  0  0  0  0
   19.2655  -27.7182  -11.9763 C   0  0  0  0  0  0  0  0  0  0  0  0
   19.6923  -28.6763  -12.8511 N   0  0  0  0  0  0  0  0  0  0  0  0
   20.7158  -29.3069  -12.2723 C   0  0  0  0  0  0  0  0  0  0  0  0
   20.9309  -28.7493  -11.0427 N   0  0  0  0  0  0  0  0  0  0  0  0
   18.6586  -25.3236   -8.3811 C   0  0  0  0  0  0  0  0  0  0  0  0
   19.4944  -24.5105   -7.9097 O   0  0  0  0  0  0  0  0  0  0  0  0
   15.9161  -24.8763   -6.0611 C   0  0  0  0  0  0  0  0  0  0  0  0
   17.4042  -25.1363   -6.2717 C   0  0  2  0  0  0  0  0  0  0  0  0
   17.5548  -25.7114   -7.5742 N   0  0  0  0  0  0  0  0  0  0  0  0
   17.9142  -26.0120   -5.1951 C   0  0  0  0  0  0  0  0  0  0  0  0
   17.9605  -25.6315   -3.9990 O   0  0  0  0  0  0  0  0  0  0  0  0
   18.3585  -27.2900   -5.4870 O   0  0  0  0  0  0  0  0  0  0  0  0
  2  1  1  6
  2  5  1  0
  2  3  1  0
  3  4  1  0
  5  7  1  0
  6  5  2  0
  7  8  1  0
  8 15  1  0
  9 10  1  0
  8  9  1  1
 10 11  2  0
 12 11  1  0
 13 12  1  0
 14 13  2  0
 14 10  1  0
 15 16  2  0
 15 19  1  0
 18 17  1  1
 18 20  1  0
 19 18  1  0
 20 22  1  0
 21 20  2  0
M  END
$$$$
