CHA.pdb
     RDKit          3D

 22 22  0  0  1  0  0  0  0  0999 V2000
   26.2022  -12.2440  -17.9410 N   0  0  0  0  0  0  0  0  0  0  0  0
   25.9315  -11.4790  -16.7475 C   0  0  1  0  0  0  0  0  0  0  0  0
   27.1316  -10.6208  -16.4448 C   0  0  0  0  0  0  0  0  0  0  0  0
   28.4447  -11.7422  -15.8464 S   0  0  0  0  0  0  0  0  0  0  0  0
   24.6843  -10.6830  -16.8909 C   0  0  0  0  0  0  0  0  0  0  0  0
   24.2311  -10.4971  -18.0390 O   0  0  0  0  0  0  0  0  0  0  0  0
   23.9958  -10.1312  -15.7780 N   0  0  0  0  0  0  0  0  0  0  0  0
   22.8017   -9.3443  -15.9583 C   0  0  1  0  0  0  0  0  0  0  0  0
   21.6240   -9.9408  -15.2036 C   0  0  0  0  0  0  0  0  0  0  0  0
   20.3792   -9.2120  -15.3989 C   0  0  0  0  0  0  0  0  0  0  0  0
   19.6927   -8.4748  -14.4599 C   0  0  0  0  0  0  0  0  0  0  0  0
   18.5733   -7.9485  -15.0389 N   0  0  0  0  0  0  0  0  0  0  0  0
   18.5646   -8.3504  -16.3111 C   0  0  0  0  0  0  0  0  0  0  0  0
   19.6705   -9.1238  -16.5304 N   0  0  0  0  0  0  0  0  0  0  0  0
   22.9879   -7.9606  -15.3882 C   0  0  0  0  0  0  0  0  0  0  0  0
   23.5777   -7.8167  -14.2867 O   0  0  0  0  0  0  0  0  0  0  0  0
   22.5398   -4.4870  -16.6150 C   0  0  0  0  0  0  0  0  0  0  0  0
   22.7834   -5.5109  -15.5110 C   0  0  2  0  0  0  0  0  0  0  0  0
   22.5130   -6.8037  -16.0635 N   0  0  0  0  0  0  0  0  0  0  0  0
   21.9327   -5.1963  -14.3433 C   0  0  0  0  0  0  0  0  0  0  0  0
   20.8134   -5.7404  -14.1745 O   0  0  0  0  0  0  0  0  0  0  0  0
   22.3585   -4.2810  -13.3963 O   0  0  0  0  0  0  0  0  0  0  0  0
  2  1  1  6
  2  5  1  0
  2  3  1  0
  3  4  1  0
  5  7  1  0
  6  5  2  0
  7  8  1  0
  8 15  1  0
  9 10  1  0
  8  9  1  1
 10 11  2  0
 12 11  1  0
 13 12  1  0
 14 13  2  0
 14 10  1  0
 15 16  2  0
 15 19  1  0
 18 17  1  6
 18 20  1  0
 19 18  1  0
 20 22  1  0
 21 20  2  0
M  END
$$$$
