CHA.pdb
     RDKit          3D

 22 22  0  0  1  0  0  0  0  0999 V2000
   26.0553  -11.2448  -17.6810 N   0  0  0  0  0  0  0  0  0  0  0  0
   25.5632  -10.4110  -16.6106 C   0  0  1  0  0  0  0  0  0  0  0  0
   26.7300   -9.6905  -15.9880 C   0  0  0  0  0  0  0  0  0  0  0  0
   27.6180  -10.9135  -14.9606 S   0  0  0  0  0  0  0  0  0  0  0  0
   24.5119   -9.4788  -17.0957 C   0  0  0  0  0  0  0  0  0  0  0  0
   24.5734   -9.0829  -18.2778 O   0  0  0  0  0  0  0  0  0  0  0  0
   23.4490   -9.0265  -16.2694 N   0  0  0  0  0  0  0  0  0  0  0  0
   22.3946   -8.1997  -16.8007 C   0  0  1  0  0  0  0  0  0  0  0  0
   21.0373   -8.8705  -16.6582 C   0  0  0  0  0  0  0  0  0  0  0  0
   20.8203   -9.9509  -17.6093 C   0  0  0  0  0  0  0  0  0  0  0  0
   21.6827  -10.3742  -18.5958 C   0  0  0  0  0  0  0  0  0  0  0  0
   21.1091  -11.4123  -19.2730 N   0  0  0  0  0  0  0  0  0  0  0  0
   19.9150  -11.6293  -18.7186 C   0  0  0  0  0  0  0  0  0  0  0  0
   19.7393  -10.7342  -17.7003 N   0  0  0  0  0  0  0  0  0  0  0  0
   22.2913   -6.9099  -16.0260 C   0  0  0  0  0  0  0  0  0  0  0  0
   22.4369   -6.9223  -14.7768 O   0  0  0  0  0  0  0  0  0  0  0  0
   22.0821   -3.2999  -16.9004 C   0  0  0  0  0  0  0  0  0  0  0  0
   22.0994   -4.4589  -15.9090 C   0  0  2  0  0  0  0  0  0  0  0  0
   22.0320   -5.6698  -16.6700 N   0  0  0  0  0  0  0  0  0  0  0  0
   20.9777   -4.3164  -14.9563 C   0  0  0  0  0  0  0  0  0  0  0  0
   19.9271   -4.9960  -15.0651 O   0  0  0  0  0  0  0  0  0  0  0  0
   21.0629   -3.4168  -13.9079 O   0  0  0  0  0  0  0  0  0  0  0  0
  2  1  1  6
  2  5  1  0
  2  3  1  0
  3  4  1  0
  5  7  1  0
  6  5  2  0
  7  8  1  0
  8 15  1  0
  9 10  1  0
  8  9  1  1
 10 11  2  0
 12 11  1  0
 13 12  1  0
 14 13  2  0
 14 10  1  0
 15 16  2  0
 15 19  1  0
 18 17  1  6
 18 20  1  0
 19 18  1  0
 20 22  1  0
 21 20  2  0
M  END
$$$$
