CHA.pdb
     RDKit          3D

 22 22  0  0  1  0  0  0  0  0999 V2000
   25.7931  -11.8498  -16.5060 N   0  0  0  0  0  0  0  0  0  0  0  0
   25.5409  -10.5043  -16.0486 C   0  0  1  0  0  0  0  0  0  0  0  0
   26.6457   -9.6117  -16.5497 C   0  0  0  0  0  0  0  0  0  0  0  0
   28.1333  -10.0107  -15.5659 S   0  0  0  0  0  0  0  0  0  0  0  0
   24.1950  -10.0364  -16.4721 C   0  0  0  0  0  0  0  0  0  0  0  0
   23.7541  -10.4251  -17.5732 O   0  0  0  0  0  0  0  0  0  0  0  0
   23.3997   -9.1703  -15.6756 N   0  0  0  0  0  0  0  0  0  0  0  0
   22.0663   -8.8029  -16.0811 C   0  0  1  0  0  0  0  0  0  0  0  0
   21.0308   -9.2606  -15.0658 C   0  0  0  0  0  0  0  0  0  0  0  0
   20.6434  -10.6554  -15.2192 C   0  0  0  0  0  0  0  0  0  0  0  0
   21.0684  -11.5329  -16.1916 C   0  0  0  0  0  0  0  0  0  0  0  0
   20.4739  -12.7454  -15.9874 N   0  0  0  0  0  0  0  0  0  0  0  0
   19.6957  -12.6235  -14.9106 C   0  0  0  0  0  0  0  0  0  0  0  0
   19.8002  -11.3437  -14.4411 N   0  0  0  0  0  0  0  0  0  0  0  0
   21.9281   -7.3027  -16.1509 C   0  0  0  0  0  0  0  0  0  0  0  0
   22.3968   -6.5920  -15.2252 O   0  0  0  0  0  0  0  0  0  0  0  0
   20.7841   -4.8475  -18.7020 C   0  0  0  0  0  0  0  0  0  0  0  0
   21.2766   -5.2318  -17.3104 C   0  0  2  0  0  0  0  0  0  0  0  0
   21.2786   -6.6618  -17.2405 N   0  0  0  0  0  0  0  0  0  0  0  0
   20.4117   -4.6082  -16.2861 C   0  0  0  0  0  0  0  0  0  0  0  0
   19.4819   -5.2433  -15.7297 O   0  0  0  0  0  0  0  0  0  0  0  0
   20.6115   -3.2905  -15.9126 O   0  0  0  0  0  0  0  0  0  0  0  0
  2  1  1  6
  2  5  1  0
  2  3  1  0
  3  4  1  0
  5  7  1  0
  6  5  2  0
  7  8  1  0
  8 15  1  0
  9 10  1  0
  8  9  1  1
 10 11  2  0
 12 11  1  0
 13 12  1  0
 14 13  2  0
 14 10  1  0
 15 16  2  0
 15 19  1  0
 18 17  1  6
 18 20  1  0
 19 18  1  0
 20 22  1  0
 21 20  2  0
M  END
$$$$
