CHA.pdb
     RDKit          3D

 22 22  0  0  1  0  0  0  0  0999 V2000
   24.1828  -10.8691  -16.4873 N   0  0  0  0  0  0  0  0  0  0  0  0
   24.2055   -9.4860  -16.0754 C   0  0  1  0  0  0  0  0  0  0  0  0
   25.6259   -8.9891  -16.1395 C   0  0  0  0  0  0  0  0  0  0  0  0
   26.4396   -9.5160  -14.5903 S   0  0  0  0  0  0  0  0  0  0  0  0
   23.2779   -8.6653  -16.8973 C   0  0  0  0  0  0  0  0  0  0  0  0
   22.9714   -9.0805  -18.0338 O   0  0  0  0  0  0  0  0  0  0  0  0
   22.7325   -7.4364  -16.4397 N   0  0  0  0  0  0  0  0  0  0  0  0
   21.7052   -6.7551  -17.1867 C   0  0  1  0  0  0  0  0  0  0  0  0
   20.3214   -7.2748  -16.8296 C   0  0  0  0  0  0  0  0  0  0  0  0
   20.0179   -8.5713  -17.4177 C   0  0  0  0  0  0  0  0  0  0  0  0
   19.9022   -8.8687  -18.7573 C   0  0  0  0  0  0  0  0  0  0  0  0
   19.6093  -10.1956  -18.8948 N   0  0  0  0  0  0  0  0  0  0  0  0
   19.5444  -10.7117  -17.6662 C   0  0  0  0  0  0  0  0  0  0  0  0
   19.7946   -9.7165  -16.7627 N   0  0  0  0  0  0  0  0  0  0  0  0
   21.6863   -5.2866  -16.8438 C   0  0  0  0  0  0  0  0  0  0  0  0
   21.8166   -4.9268  -15.6457 O   0  0  0  0  0  0  0  0  0  0  0  0
   21.5485   -2.0917  -18.7629 C   0  0  0  0  0  0  0  0  0  0  0  0
   21.6543   -2.9090  -17.4793 C   0  0  2  0  0  0  0  0  0  0  0  0
   21.5243   -4.2880  -17.8420 N   0  0  0  0  0  0  0  0  0  0  0  0
   20.6187   -2.4675  -16.5208 C   0  0  0  0  0  0  0  0  0  0  0  0
   19.4856   -3.0075  -16.4758 O   0  0  0  0  0  0  0  0  0  0  0  0
   20.8800   -1.4333  -15.6388 O   0  0  0  0  0  0  0  0  0  0  0  0
  2  1  1  6
  2  5  1  0
  2  3  1  0
  3  4  1  0
  5  7  1  0
  6  5  2  0
  7  8  1  0
  8 15  1  0
  9 10  1  0
  8  9  1  1
 10 11  2  0
 12 11  1  0
 13 12  1  0
 14 13  2  0
 14 10  1  0
 15 16  2  0
 15 19  1  0
 18 17  1  6
 18 20  1  0
 19 18  1  0
 20 22  1  0
 21 20  2  0
M  END
$$$$
