PKN.pdb
     RDKit          3D

 25 25  0  0  1  0  0  0  0  0999 V2000
    8.4964  -14.8002   18.7206 N   0  0  0  0  0  0  0  0  0  0  0  0
    7.4403  -14.1218   17.9941 C   0  0  0  0  0  0  0  0  0  0  0  0
    6.7736  -13.1922   19.0182 C   0  0  0  0  0  0  0  0  0  0  0  0
    7.9885  -12.7771   19.8220 C   0  0  0  0  0  0  0  0  0  0  0  0
    8.7332  -14.0884   19.9339 C   0  0  1  0  0  0  0  0  0  0  0  0
    8.2201  -14.8325   21.1412 C   0  0  0  0  0  0  0  0  0  0  0  0
    8.3309  -14.3044   22.2808 O   0  0  0  0  0  0  0  0  0  0  0  0
    7.6163  -16.1099   21.0290 N   0  0  0  0  0  0  0  0  0  0  0  0
    7.1740  -16.8118   22.2584 C   0  0  1  0  0  0  0  0  0  0  0  0
    6.3724  -18.0231   21.8339 C   0  0  0  0  0  0  0  0  0  0  0  0
    5.9683  -18.9034   22.9637 C   0  0  0  0  0  0  0  0  0  0  0  0
    5.1829  -20.0717   22.3572 C   0  0  0  0  0  0  0  0  0  0  0  0
    4.6705  -20.9603   23.4676 C   0  0  0  0  0  0  0  0  0  0  0  0
    4.0750  -22.1624   22.8681 N   0  0  0  0  0  0  0  0  0  0  0  0
    8.3687  -17.1125   23.0514 C   0  0  0  0  0  0  0  0  0  0  0  0
    9.3552  -17.6445   22.4661 O   0  0  0  0  0  0  0  0  0  0  0  0
   11.8814  -15.6786   23.2385 N   0  0  0  0  0  0  0  0  0  0  0  0
   11.6809  -16.4716   24.4088 C   0  0  0  0  0  0  0  0  0  0  0  0
   12.4257  -17.4557   24.6179 O   0  0  0  0  0  0  0  0  0  0  0  0
   10.6141  -16.1565   25.3778 C   0  0  0  0  0  0  0  0  0  0  0  0
    9.5165  -17.1455   25.3085 C   0  0  2  0  0  0  0  0  0  0  0  0
    8.4368  -16.8200   24.4293 N   0  0  0  0  0  0  0  0  0  0  0  0
    9.1350  -17.7669   26.5820 C   0  0  0  0  0  0  0  0  0  0  0  0
    7.7961  -17.9177   26.9368 O   0  0  0  0  0  0  0  0  0  0  0  0
    9.9608  -18.1994   27.4175 O   0  0  0  0  0  0  0  0  0  0  0  0
  1  2  1  0
  2  3  1  0
  4  3  1  0
  5  1  1  0
  5  4  1  0
  5  6  1  1
  7  6  2  0
  8  6  1  0
  9  8  1  0
  9 10  1  6
 10 11  1  0
 11 12  1  0
 12 13  1  0
 13 14  1  0
 15 22  1  0
 15  9  1  0
 16 15  2  0
 18 19  2  0
 18 17  1  0
 21 20  1  1
 20 18  1  0
 21 23  1  0
 21 22  1  0
 23 24  1  0
 25 23  2  0
M  END
$$$$
