PKN.pdb
     RDKit          3D

 25 25  0  0  1  0  0  0  0  0999 V2000
    9.0843  -14.7149   19.4499 N   0  0  0  0  0  0  0  0  0  0  0  0
    8.0422  -14.4890   18.4668 C   0  0  0  0  0  0  0  0  0  0  0  0
    7.0110  -13.5911   19.1653 C   0  0  0  0  0  0  0  0  0  0  0  0
    7.9383  -12.7262   19.9938 C   0  0  0  0  0  0  0  0  0  0  0  0
    8.9357  -13.7492   20.4892 C   0  0  1  0  0  0  0  0  0  0  0  0
    8.4076  -14.3593   21.7633 C   0  0  0  0  0  0  0  0  0  0  0  0
    8.0740  -13.6018   22.7145 O   0  0  0  0  0  0  0  0  0  0  0  0
    8.2760  -15.7618   21.9202 N   0  0  0  0  0  0  0  0  0  0  0  0
    7.7206  -16.2995   23.1858 C   0  0  1  0  0  0  0  0  0  0  0  0
    7.2898  -17.7274   22.9296 C   0  0  0  0  0  0  0  0  0  0  0  0
    6.8384  -18.4481   24.1509 C   0  0  0  0  0  0  0  0  0  0  0  0
    6.5163  -19.8849   23.7250 C   0  0  0  0  0  0  0  0  0  0  0  0
    5.8958  -20.6246   24.8881 C   0  0  0  0  0  0  0  0  0  0  0  0
    5.6928  -22.0262   24.4968 N   0  0  0  0  0  0  0  0  0  0  0  0
    8.7453  -16.1432   24.2214 C   0  0  0  0  0  0  0  0  0  0  0  0
    9.9547  -16.3147   23.8951 O   0  0  0  0  0  0  0  0  0  0  0  0
   10.8186  -13.2422   28.6833 N   0  0  0  0  0  0  0  0  0  0  0  0
    9.9311  -14.3603   28.6551 C   0  0  0  0  0  0  0  0  0  0  0  0
   10.0078  -15.2270   29.5550 O   0  0  0  0  0  0  0  0  0  0  0  0
    8.9250  -14.5169   27.5877 C   0  0  0  0  0  0  0  0  0  0  0  0
    9.3333  -15.5510   26.6123 C   0  0  2  0  0  0  0  0  0  0  0  0
    8.4114  -15.8065   25.5496 N   0  0  0  0  0  0  0  0  0  0  0  0
    9.9998  -16.7316   27.1741 C   0  0  0  0  0  0  0  0  0  0  0  0
   11.3556  -16.7087   27.4944 O   0  0  0  0  0  0  0  0  0  0  0  0
    9.4149  -17.8141   27.4047 O   0  0  0  0  0  0  0  0  0  0  0  0
  1  2  1  0
  2  3  1  0
  4  3  1  0
  5  1  1  0
  5  4  1  0
  5  6  1  1
  7  6  2  0
  8  6  1  0
  9  8  1  0
  9 10  1  6
 10 11  1  0
 11 12  1  0
 12 13  1  0
 13 14  1  0
 15 22  1  0
 15  9  1  0
 16 15  2  0
 18 19  2  0
 18 17  1  0
 21 20  1  1
 20 18  1  0
 21 23  1  0
 21 22  1  0
 23 24  1  0
 25 23  2  0
M  END
$$$$
