PKN.pdb
     RDKit          3D

 25 25  0  0  1  0  0  0  0  0999 V2000
    7.2895  -14.9751   19.4374 N   0  0  0  0  0  0  0  0  0  0  0  0
    6.5507  -13.8141   18.9794 C   0  0  0  0  0  0  0  0  0  0  0  0
    7.4434  -12.6084   19.3060 C   0  0  0  0  0  0  0  0  0  0  0  0
    8.8058  -13.2132   19.0370 C   0  0  0  0  0  0  0  0  0  0  0  0
    8.6465  -14.5880   19.6463 C   0  0  1  0  0  0  0  0  0  0  0  0
    8.9983  -14.5099   21.1107 C   0  0  0  0  0  0  0  0  0  0  0  0
   10.1937  -14.2865   21.4438 O   0  0  0  0  0  0  0  0  0  0  0  0
    8.0209  -14.6806   22.1229 N   0  0  0  0  0  0  0  0  0  0  0  0
    8.4179  -14.5343   23.5443 C   0  0  1  0  0  0  0  0  0  0  0  0
    7.2592  -13.9002   24.2830 C   0  0  0  0  0  0  0  0  0  0  0  0
    7.6345  -13.3069   25.5952 C   0  0  0  0  0  0  0  0  0  0  0  0
    6.3589  -12.6982   26.1883 C   0  0  0  0  0  0  0  0  0  0  0  0
    6.6799  -12.0655   27.5231 C   0  0  0  0  0  0  0  0  0  0  0  0
    5.4412  -11.5151   28.0902 N   0  0  0  0  0  0  0  0  0  0  0  0
    8.8081  -15.8588   24.0343 C   0  0  0  0  0  0  0  0  0  0  0  0
    8.0214  -16.8269   23.8285 O   0  0  0  0  0  0  0  0  0  0  0  0
   13.4110  -19.4009   25.3248 N   0  0  0  0  0  0  0  0  0  0  0  0
   12.0790  -19.2005   24.8511 C   0  0  0  0  0  0  0  0  0  0  0  0
   11.2679  -20.1534   24.8800 O   0  0  0  0  0  0  0  0  0  0  0  0
   11.6374  -17.8939   24.3276 C   0  0  0  0  0  0  0  0  0  0  0  0
   10.5439  -17.3287   25.1476 C   0  0  2  0  0  0  0  0  0  0  0  0
   10.0256  -16.0683   24.7147 N   0  0  0  0  0  0  0  0  0  0  0  0
   10.6819  -17.4953   26.5991 C   0  0  0  0  0  0  0  0  0  0  0  0
   10.8867  -18.7527   27.1632 O   0  0  0  0  0  0  0  0  0  0  0  0
   10.6318  -16.5462   27.4139 O   0  0  0  0  0  0  0  0  0  0  0  0
  1  2  1  0
  2  3  1  0
  4  3  1  0
  5  1  1  0
  5  4  1  0
  5  6  1  1
  7  6  2  0
  8  6  1  0
  9  8  1  0
  9 10  1  1
 10 11  1  0
 11 12  1  0
 12 13  1  0
 13 14  1  0
 15 22  1  0
 15  9  1  0
 16 15  2  0
 18 19  2  0
 18 17  1  0
 21 20  1  6
 20 18  1  0
 21 23  1  0
 21 22  1  0
 23 24  1  0
 25 23  2  0
M  END
$$$$
