PKN.pdb
     RDKit          3D

 25 25  0  0  1  0  0  0  0  0999 V2000
    8.4022  -14.4636   18.3853 N   0  0  0  0  0  0  0  0  0  0  0  0
    7.0758  -13.9622   18.0808 C   0  0  0  0  0  0  0  0  0  0  0  0
    6.6680  -13.1226   19.2998 C   0  0  0  0  0  0  0  0  0  0  0  0
    8.0093  -12.5178   19.6595 C   0  0  0  0  0  0  0  0  0  0  0  0
    8.9300  -13.7023   19.4701 C   0  0  1  0  0  0  0  0  0  0  0  0
    8.9701  -14.4917   20.7545 C   0  0  0  0  0  0  0  0  0  0  0  0
    9.1703  -13.8854   21.8418 O   0  0  0  0  0  0  0  0  0  0  0  0
    8.7883  -15.8973   20.7722 N   0  0  0  0  0  0  0  0  0  0  0  0
    8.9472  -16.6315   22.0510 C   0  0  1  0  0  0  0  0  0  0  0  0
    8.0964  -17.8806   21.9735 C   0  0  0  0  0  0  0  0  0  0  0  0
    6.6475  -17.6099   21.7681 C   0  0  0  0  0  0  0  0  0  0  0  0
    5.9478  -18.9717   21.6937 C   0  0  0  0  0  0  0  0  0  0  0  0
    4.4732  -18.7632   21.4343 C   0  0  0  0  0  0  0  0  0  0  0  0
    3.8250  -20.0780   21.3341 N   0  0  0  0  0  0  0  0  0  0  0  0
   10.3787  -16.8742   22.2480 C   0  0  0  0  0  0  0  0  0  0  0  0
   11.0646  -17.2412   21.2512 O   0  0  0  0  0  0  0  0  0  0  0  0
   15.5658  -16.4331   23.0151 N   0  0  0  0  0  0  0  0  0  0  0  0
   14.6502  -16.1002   24.0589 C   0  0  0  0  0  0  0  0  0  0  0  0
   15.0441  -16.1116   25.2470 O   0  0  0  0  0  0  0  0  0  0  0  0
   13.2488  -15.7430   23.7676 C   0  0  0  0  0  0  0  0  0  0  0  0
   12.3715  -16.9331   23.8094 C   0  0  2  0  0  0  0  0  0  0  0  0
   10.9931  -16.7041   23.5060 N   0  0  0  0  0  0  0  0  0  0  0  0
   12.6345  -17.8830   24.8967 C   0  0  0  0  0  0  0  0  0  0  0  0
   13.6880  -18.7915   24.8198 O   0  0  0  0  0  0  0  0  0  0  0  0
   11.9538  -17.9422   25.9456 O   0  0  0  0  0  0  0  0  0  0  0  0
  1  2  1  0
  2  3  1  0
  4  3  1  0
  5  1  1  0
  5  4  1  0
  5  6  1  1
  7  6  2  0
  8  6  1  0
  9  8  1  0
  9 10  1  6
 10 11  1  0
 11 12  1  0
 12 13  1  0
 13 14  1  0
 15 22  1  0
 15  9  1  0
 16 15  2  0
 18 19  2  0
 18 17  1  0
 21 20  1  1
 20 18  1  0
 21 23  1  0
 21 22  1  0
 23 24  1  0
 25 23  2  0
M  END
$$$$
