PKN.pdb
     RDKit          3D

 25 25  0  0  1  0  0  0  0  0999 V2000
    8.6083  -15.0273   19.4101 N   0  0  0  0  0  0  0  0  0  0  0  0
    7.6558  -14.5276   18.4373 C   0  0  0  0  0  0  0  0  0  0  0  0
    6.7213  -13.5969   19.2233 C   0  0  0  0  0  0  0  0  0  0  0  0
    7.7141  -12.9897   20.1928 C   0  0  0  0  0  0  0  0  0  0  0  0
    8.5395  -14.1994   20.5698 C   0  0  1  0  0  0  0  0  0  0  0  0
    7.8720  -14.8959   21.7290 C   0  0  0  0  0  0  0  0  0  0  0  0
    7.5955  -14.2343   22.7661 O   0  0  0  0  0  0  0  0  0  0  0  0
    7.5468  -16.2748   21.6837 N   0  0  0  0  0  0  0  0  0  0  0  0
    6.9403  -16.9148   22.8762 C   0  0  1  0  0  0  0  0  0  0  0  0
    5.9223  -17.9234   22.3897 C   0  0  0  0  0  0  0  0  0  0  0  0
    4.8201  -17.3268   21.5873 C   0  0  0  0  0  0  0  0  0  0  0  0
    3.9612  -18.4902   21.0790 C   0  0  0  0  0  0  0  0  0  0  0  0
    2.8405  -17.9477   20.2217 C   0  0  0  0  0  0  0  0  0  0  0  0
    2.0416  -19.0768   19.7260 N   0  0  0  0  0  0  0  0  0  0  0  0
    8.0288  -17.4784   23.6788 C   0  0  0  0  0  0  0  0  0  0  0  0
    7.7262  -18.1691   24.6937 O   0  0  0  0  0  0  0  0  0  0  0  0
   11.9837  -17.5484   20.8319 N   0  0  0  0  0  0  0  0  0  0  0  0
   11.6546  -18.3049   21.9972 C   0  0  0  0  0  0  0  0  0  0  0  0
   11.2298  -19.4754   21.8688 O   0  0  0  0  0  0  0  0  0  0  0  0
   11.8038  -17.7369   23.3504 C   0  0  0  0  0  0  0  0  0  0  0  0
   10.5161  -17.7370   24.0780 C   0  0  2  0  0  0  0  0  0  0  0  0
    9.3824  -17.2708   23.3418 N   0  0  0  0  0  0  0  0  0  0  0  0
   10.5765  -17.3214   25.4841 C   0  0  0  0  0  0  0  0  0  0  0  0
   11.5553  -17.8205   26.3409 O   0  0  0  0  0  0  0  0  0  0  0  0
    9.7786  -16.5072   26.0015 O   0  0  0  0  0  0  0  0  0  0  0  0
  1  2  1  0
  2  3  1  0
  4  3  1  0
  5  1  1  0
  5  4  1  0
  5  6  1  1
  7  6  2  0
  8  6  1  0
  9  8  1  0
  9 10  1  6
 10 11  1  0
 11 12  1  0
 12 13  1  0
 13 14  1  0
 15 22  1  0
 15  9  1  0
 16 15  2  0
 18 19  2  0
 18 17  1  0
 21 20  1  6
 20 18  1  0
 21 23  1  0
 21 22  1  0
 23 24  1  0
 25 23  2  0
M  END
$$$$
