PKN.pdb
     RDKit          3D

 25 25  0  0  1  0  0  0  0  0999 V2000
    9.0921  -14.7010   19.3973 N   0  0  0  0  0  0  0  0  0  0  0  0
    8.0686  -14.5354   18.3831 C   0  0  0  0  0  0  0  0  0  0  0  0
    6.9785  -13.6774   19.0409 C   0  0  0  0  0  0  0  0  0  0  0  0
    7.8418  -12.7605   19.8825 C   0  0  0  0  0  0  0  0  0  0  0  0
    8.8706  -13.7304   20.4189 C   0  0  1  0  0  0  0  0  0  0  0  0
    8.3356  -14.3484   21.6863 C   0  0  0  0  0  0  0  0  0  0  0  0
    7.9011  -13.5962   22.6003 O   0  0  0  0  0  0  0  0  0  0  0  0
    8.3078  -15.7525   21.8776 N   0  0  0  0  0  0  0  0  0  0  0  0
    7.7189  -16.3018   23.1230 C   0  0  1  0  0  0  0  0  0  0  0  0
    7.2984  -17.7283   22.8433 C   0  0  0  0  0  0  0  0  0  0  0  0
    6.8481  -18.4709   24.0519 C   0  0  0  0  0  0  0  0  0  0  0  0
    6.4805  -19.8861   23.5920 C   0  0  0  0  0  0  0  0  0  0  0  0
    5.9990  -20.6888   24.7789 C   0  0  0  0  0  0  0  0  0  0  0  0
    5.8788  -22.0963   24.3746 N   0  0  0  0  0  0  0  0  0  0  0  0
    8.7142  -16.1519   24.1877 C   0  0  0  0  0  0  0  0  0  0  0  0
    9.9353  -16.2797   23.8855 O   0  0  0  0  0  0  0  0  0  0  0  0
   10.4676  -13.1195   28.8923 N   0  0  0  0  0  0  0  0  0  0  0  0
    9.7969  -14.3497   28.6177 C   0  0  0  0  0  0  0  0  0  0  0  0
   10.0096  -15.3413   29.3515 O   0  0  0  0  0  0  0  0  0  0  0  0
    8.8581  -14.4780   27.4871 C   0  0  0  0  0  0  0  0  0  0  0  0
    9.2291  -15.6070   26.6065 C   0  0  2  0  0  0  0  0  0  0  0  0
    8.3401  -15.8685   25.5176 N   0  0  0  0  0  0  0  0  0  0  0  0
    9.7748  -16.7907   27.2808 C   0  0  0  0  0  0  0  0  0  0  0  0
   11.1372  -16.9011   27.5512 O   0  0  0  0  0  0  0  0  0  0  0  0
    9.0757  -17.7589   27.6562 O   0  0  0  0  0  0  0  0  0  0  0  0
  1  2  1  0
  2  3  1  0
  4  3  1  0
  5  1  1  0
  5  4  1  0
  5  6  1  1
  7  6  2  0
  8  6  1  0
  9  8  1  0
  9 10  1  6
 10 11  1  0
 11 12  1  0
 12 13  1  0
 13 14  1  0
 15 22  1  0
 15  9  1  0
 16 15  2  0
 18 19  2  0
 18 17  1  0
 21 20  1  1
 20 18  1  0
 21 23  1  0
 21 22  1  0
 23 24  1  0
 25 23  2  0
M  END
$$$$
