PKN.pdb
     RDKit          3D

 25 25  0  0  1  0  0  0  0  0999 V2000
    7.8185  -15.4763   18.3010 N   0  0  0  0  0  0  0  0  0  0  0  0
    8.4363  -16.6729   17.7624 C   0  0  0  0  0  0  0  0  0  0  0  0
    8.4271  -17.6892   18.9131 C   0  0  0  0  0  0  0  0  0  0  0  0
    7.1025  -17.3388   19.5590 C   0  0  0  0  0  0  0  0  0  0  0  0
    7.1346  -15.8280   19.5024 C   0  0  1  0  0  0  0  0  0  0  0  0
    7.8411  -15.3147   20.7320 C   0  0  0  0  0  0  0  0  0  0  0  0
    9.0946  -15.1808   20.7089 O   0  0  0  0  0  0  0  0  0  0  0  0
    7.1334  -14.9783   21.9131 N   0  0  0  0  0  0  0  0  0  0  0  0
    7.8679  -14.3686   23.0481 C   0  0  1  0  0  0  0  0  0  0  0  0
    6.8524  -13.6939   23.9445 C   0  0  0  0  0  0  0  0  0  0  0  0
    7.4321  -13.1338   25.1955 C   0  0  0  0  0  0  0  0  0  0  0  0
    6.2751  -12.4994   25.9756 C   0  0  0  0  0  0  0  0  0  0  0  0
    6.7938  -11.9584   27.2884 C   0  0  0  0  0  0  0  0  0  0  0  0
    5.6556  -11.4567   28.0704 N   0  0  0  0  0  0  0  0  0  0  0  0
    8.6480  -15.4285   23.6920 C   0  0  0  0  0  0  0  0  0  0  0  0
    8.0784  -16.5340   23.9202 O   0  0  0  0  0  0  0  0  0  0  0  0
   13.4320  -18.2610   23.5823 N   0  0  0  0  0  0  0  0  0  0  0  0
   13.1850  -17.1693   24.4689 C   0  0  0  0  0  0  0  0  0  0  0  0
   13.7006  -17.1768   25.6095 O   0  0  0  0  0  0  0  0  0  0  0  0
   12.3346  -16.0319   24.0700 C   0  0  0  0  0  0  0  0  0  0  0  0
   10.9201  -16.2654   24.4337 C   0  0  2  0  0  0  0  0  0  0  0  0
    9.9990  -15.2410   24.0505 N   0  0  0  0  0  0  0  0  0  0  0  0
   10.6903  -16.8670   25.7523 C   0  0  0  0  0  0  0  0  0  0  0  0
    9.8873  -16.2372   26.7009 O   0  0  0  0  0  0  0  0  0  0  0  0
   11.1811  -17.9616   26.1103 O   0  0  0  0  0  0  0  0  0  0  0  0
  1  2  1  0
  2  3  1  0
  4  3  1  0
  5  1  1  0
  5  4  1  0
  5  6  1  1
  7  6  2  0
  8  6  1  0
  9  8  1  0
  9 10  1  1
 10 11  1  0
 11 12  1  0
 12 13  1  0
 13 14  1  0
 15 22  1  0
 15  9  1  0
 16 15  2  0
 18 19  2  0
 18 17  1  0
 21 20  1  1
 20 18  1  0
 21 23  1  0
 21 22  1  0
 23 24  1  0
 25 23  2  0
M  END
$$$$
