PKN.pdb
     RDKit          3D

 25 25  0  0  1  0  0  0  0  0999 V2000
    8.2344  -14.7984   18.5167 N   0  0  0  0  0  0  0  0  0  0  0  0
    6.9801  -14.1342   18.2181 C   0  0  0  0  0  0  0  0  0  0  0  0
    6.7731  -13.1244   19.3559 C   0  0  0  0  0  0  0  0  0  0  0  0
    8.2076  -12.6976   19.5891 C   0  0  0  0  0  0  0  0  0  0  0  0
    8.9317  -14.0214   19.4887 C   0  0  1  0  0  0  0  0  0  0  0  0
    8.9318  -14.6748   20.8479 C   0  0  0  0  0  0  0  0  0  0  0  0
    9.4790  -14.0794   21.8154 O   0  0  0  0  0  0  0  0  0  0  0  0
    8.3329  -15.9407   21.0671 N   0  0  0  0  0  0  0  0  0  0  0  0
    8.3863  -16.5417   22.4219 C   0  0  1  0  0  0  0  0  0  0  0  0
    7.4236  -17.7091   22.4459 C   0  0  0  0  0  0  0  0  0  0  0  0
    7.4899  -18.5180   23.6933 C   0  0  0  0  0  0  0  0  0  0  0  0
    6.4650  -19.6480   23.5445 C   0  0  0  0  0  0  0  0  0  0  0  0
    6.5411  -20.5550   24.7514 C   0  0  0  0  0  0  0  0  0  0  0  0
    5.5156  -21.5988   24.6181 N   0  0  0  0  0  0  0  0  0  0  0  0
    9.7824  -16.8906   22.6975 C   0  0  0  0  0  0  0  0  0  0  0  0
   10.3909  -17.6208   21.8637 O   0  0  0  0  0  0  0  0  0  0  0  0
   14.1263  -17.7120   23.1634 N   0  0  0  0  0  0  0  0  0  0  0  0
   14.0467  -16.3346   23.5311 C   0  0  0  0  0  0  0  0  0  0  0  0
   15.0493  -15.6005   23.3799 O   0  0  0  0  0  0  0  0  0  0  0  0
   12.8079  -15.7571   24.0862 C   0  0  0  0  0  0  0  0  0  0  0  0
   11.7671  -16.7922   24.2673 C   0  0  2  0  0  0  0  0  0  0  0  0
   10.4472  -16.4304   23.8530 N   0  0  0  0  0  0  0  0  0  0  0  0
   11.8531  -17.5752   25.5055 C   0  0  0  0  0  0  0  0  0  0  0  0
   12.9486  -18.3965   25.7632 O   0  0  0  0  0  0  0  0  0  0  0  0
   10.9756  -17.5597   26.3982 O   0  0  0  0  0  0  0  0  0  0  0  0
  1  2  1  0
  2  3  1  0
  4  3  1  0
  5  1  1  0
  5  4  1  0
  5  6  1  1
  7  6  2  0
  8  6  1  0
  9  8  1  0
  9 10  1  6
 10 11  1  0
 11 12  1  0
 12 13  1  0
 13 14  1  0
 15 22  1  0
 15  9  1  0
 16 15  2  0
 18 19  2  0
 18 17  1  0
 21 20  1  1
 20 18  1  0
 21 23  1  0
 21 22  1  0
 23 24  1  0
 25 23  2  0
M  END
$$$$
