PKN.pdb
     RDKit          3D

 25 25  0  0  1  0  0  0  0  0999 V2000
    7.5722  -15.3404   19.6464 N   0  0  0  0  0  0  0  0  0  0  0  0
    6.8277  -14.3063   18.9536 C   0  0  0  0  0  0  0  0  0  0  0  0
    7.6398  -13.0183   19.1508 C   0  0  0  0  0  0  0  0  0  0  0  0
    9.0436  -13.5836   19.0870 C   0  0  0  0  0  0  0  0  0  0  0  0
    8.8898  -14.8532   19.8940 C   0  0  1  0  0  0  0  0  0  0  0  0
    9.1138  -14.5290   21.3497 C   0  0  0  0  0  0  0  0  0  0  0  0
   10.2524  -14.1367   21.7233 O   0  0  0  0  0  0  0  0  0  0  0  0
    8.0782  -14.6531   22.3095 N   0  0  0  0  0  0  0  0  0  0  0  0
    8.3682  -14.3451   23.7310 C   0  0  1  0  0  0  0  0  0  0  0  0
    7.1752  -13.6035   24.2940 C   0  0  0  0  0  0  0  0  0  0  0  0
    7.3551  -13.1548   25.7015 C   0  0  0  0  0  0  0  0  0  0  0  0
    6.0807  -12.3980   26.0924 C   0  0  0  0  0  0  0  0  0  0  0  0
    6.2218  -11.8759   27.5040 C   0  0  0  0  0  0  0  0  0  0  0  0
    4.9907  -11.1586   27.8631 N   0  0  0  0  0  0  0  0  0  0  0  0
    8.6799  -15.6087   24.4038 C   0  0  0  0  0  0  0  0  0  0  0  0
    8.1400  -16.6658   23.9683 O   0  0  0  0  0  0  0  0  0  0  0  0
   11.5324  -17.8013   22.6456 N   0  0  0  0  0  0  0  0  0  0  0  0
   11.0043  -18.0235   23.9534 C   0  0  0  0  0  0  0  0  0  0  0  0
   10.1551  -18.9267   24.1267 O   0  0  0  0  0  0  0  0  0  0  0  0
   11.4376  -17.2110   25.1060 C   0  0  0  0  0  0  0  0  0  0  0  0
   10.2869  -16.8139   25.9460 C   0  0  2  0  0  0  0  0  0  0  0  0
    9.5587  -15.6648   25.5054 N   0  0  0  0  0  0  0  0  0  0  0  0
   10.4859  -16.9237   27.3958 C   0  0  0  0  0  0  0  0  0  0  0  0
   10.2498  -15.8400   28.2390 O   0  0  0  0  0  0  0  0  0  0  0  0
   10.8672  -17.9709   27.9660 O   0  0  0  0  0  0  0  0  0  0  0  0
  1  2  1  0
  2  3  1  0
  4  3  1  0
  5  1  1  0
  5  4  1  0
  5  6  1  1
  7  6  2  0
  8  6  1  0
  9  8  1  0
  9 10  1  1
 10 11  1  0
 11 12  1  0
 12 13  1  0
 13 14  1  0
 15 22  1  0
 15  9  1  0
 16 15  2  0
 18 19  2  0
 18 17  1  0
 21 20  1  6
 20 18  1  0
 21 23  1  0
 21 22  1  0
 23 24  1  0
 25 23  2  0
M  END
$$$$
