LCQ.pdb
     RDKit          3D

 24 23  0  0  1  0  0  0  0  0999 V2000
    5.2324  -11.9574   25.3800 C   0  0  0  0  0  0  0  0  0  0  0  0
    6.0547  -12.7543   26.3358 C   0  0  2  0  0  0  0  0  0  0  0  0
    6.5107  -11.9594   27.5402 C   0  0  0  0  0  0  0  0  0  0  0  0
    7.2011  -13.4545   25.6446 C   0  0  0  0  0  0  0  0  0  0  0  0
    6.6084  -14.6184   24.8692 C   0  0  2  0  0  0  0  0  0  0  0  0
    5.6539  -15.2631   25.7467 N   0  0  0  0  0  0  0  0  0  0  0  0
    7.6120  -15.5855   24.4388 C   0  0  0  0  0  0  0  0  0  0  0  0
    7.9990  -16.4831   25.2310 O   0  0  0  0  0  0  0  0  0  0  0  0
    8.2189  -15.6071   23.1503 N   0  0  0  0  0  0  0  0  0  0  0  0
    9.3989  -16.3794   22.8204 C   0  0  1  0  0  0  0  0  0  0  0  0
    9.7112  -16.0828   21.3546 C   0  0  0  0  0  0  0  0  0  0  0  0
   11.0530  -17.1230   20.7362 S   0  0  0  0  0  0  0  0  0  0  0  0
   10.5807  -15.9643   23.6003 C   0  0  0  0  0  0  0  0  0  0  0  0
   11.0312  -14.7981   23.6524 O   0  0  0  0  0  0  0  0  0  0  0  0
   11.5382  -17.3188   29.2267 N   0  0  0  0  0  0  0  0  0  0  0  0
   11.2993  -16.0438   28.6778 C   0  0  0  0  0  0  0  0  0  0  0  0
   10.8412  -15.1366   29.3884 O   0  0  0  0  0  0  0  0  0  0  0  0
   11.5958  -15.7990   27.2601 C   0  0  0  0  0  0  0  0  0  0  0  0
   12.2080  -16.9491   26.5289 C   0  0  0  0  0  0  0  0  0  0  0  0
   12.4953  -16.6973   25.0772 C   0  0  2  0  0  0  0  0  0  0  0  0
   11.2576  -16.9672   24.3489 N   0  0  0  0  0  0  0  0  0  0  0  0
   13.5268  -17.6353   24.5831 C   0  0  0  0  0  0  0  0  0  0  0  0
   13.1788  -18.7037   24.0375 O   0  0  0  0  0  0  0  0  0  0  0  0
   14.8838  -17.3846   24.6965 O   0  0  0  0  0  0  0  0  0  0  0  0
  2  3  1  1
  2  1  1  0
  4  2  1  0
  5  7  1  0
  5  4  1  0
  5  6  1  1
  7  8  2  0
  9 10  1  0
  9  7  1  0
 10 11  1  6
 11 12  1  0
 13 10  1  0
 14 13  2  0
 16 15  1  0
 16 17  2  0
 18 16  1  0
 19 18  1  0
 20 19  1  1
 20 21  1  0
 21 13  1  0
 22 20  1  0
 22 24  1  0
 23 22  2  0
M  END
$$$$
