LCQ.pdb
     RDKit          3D

 24 23  0  0  1  0  0  0  0  0999 V2000
    8.4112  -12.2514   18.9542 C   0  0  0  0  0  0  0  0  0  0  0  0
    7.9891  -13.4350   19.7579 C   0  0  2  0  0  0  0  0  0  0  0  0
    6.4870  -13.5640   19.8897 C   0  0  0  0  0  0  0  0  0  0  0  0
    8.6877  -13.4851   21.0964 C   0  0  0  0  0  0  0  0  0  0  0  0
    8.2669  -14.7802   21.7693 C   0  0  2  0  0  0  0  0  0  0  0  0
    6.8475  -14.9349   21.5286 N   0  0  0  0  0  0  0  0  0  0  0  0
    8.5259  -14.7860   23.2047 C   0  0  0  0  0  0  0  0  0  0  0  0
    9.7103  -14.8094   23.6287 O   0  0  0  0  0  0  0  0  0  0  0  0
    7.5187  -14.7669   24.2118 N   0  0  0  0  0  0  0  0  0  0  0  0
    7.7899  -14.8141   25.6338 C   0  0  1  0  0  0  0  0  0  0  0  0
    6.5721  -14.2024   26.3244 C   0  0  0  0  0  0  0  0  0  0  0  0
    6.4795  -12.4184   26.0534 S   0  0  0  0  0  0  0  0  0  0  0  0
    7.9169  -16.1949   26.1380 C   0  0  0  0  0  0  0  0  0  0  0  0
    7.0571  -17.0925   25.9933 O   0  0  0  0  0  0  0  0  0  0  0  0
   10.8543  -19.9036   23.6907 N   0  0  0  0  0  0  0  0  0  0  0  0
   11.6572  -18.8857   24.2415 C   0  0  0  0  0  0  0  0  0  0  0  0
   12.7342  -18.5845   23.7056 O   0  0  0  0  0  0  0  0  0  0  0  0
   11.2094  -18.1866   25.4533 C   0  0  0  0  0  0  0  0  0  0  0  0
    9.8742  -18.6071   25.9755 C   0  0  0  0  0  0  0  0  0  0  0  0
    9.4306  -17.9020   27.2241 C   0  0  2  0  0  0  0  0  0  0  0  0
    9.1077  -16.5290   26.8415 N   0  0  0  0  0  0  0  0  0  0  0  0
   10.5323  -17.8515   28.2098 C   0  0  0  0  0  0  0  0  0  0  0  0
   10.9172  -18.9050   28.7596 O   0  0  0  0  0  0  0  0  0  0  0  0
   11.1707  -16.6741   28.5607 O   0  0  0  0  0  0  0  0  0  0  0  0
  2  3  1  1
  2  1  1  0
  4  2  1  0
  5  7  1  0
  5  4  1  0
  5  6  1  1
  7  8  2  0
  9 10  1  0
  9  7  1  0
 10 11  1  1
 11 12  1  0
 13 10  1  0
 14 13  2  0
 16 15  1  0
 16 17  2  0
 18 16  1  0
 19 18  1  0
 20 19  1  6
 20 21  1  0
 21 13  1  0
 22 20  1  0
 22 24  1  0
 23 22  2  0
M  END
$$$$
