LCQ.pdb
     RDKit          3D

 24 23  0  0  1  0  0  0  0  0999 V2000
    5.3396  -12.2592   27.3841 C   0  0  0  0  0  0  0  0  0  0  0  0
    6.4116  -12.5336   26.3838 C   0  0  2  0  0  0  0  0  0  0  0  0
    7.1803  -11.2955   25.9757 C   0  0  0  0  0  0  0  0  0  0  0  0
    5.8872  -13.3006   25.1925 C   0  0  0  0  0  0  0  0  0  0  0  0
    6.3238  -14.7450   25.3666 C   0  0  2  0  0  0  0  0  0  0  0  0
    7.2550  -14.7700   26.4752 N   0  0  0  0  0  0  0  0  0  0  0  0
    6.9622  -15.2940   24.1756 C   0  0  0  0  0  0  0  0  0  0  0  0
    6.2941  -15.9944   23.3717 O   0  0  0  0  0  0  0  0  0  0  0  0
    8.3293  -15.1017   23.8251 N   0  0  0  0  0  0  0  0  0  0  0  0
    8.9945  -15.7898   22.7379 C   0  0  1  0  0  0  0  0  0  0  0  0
    9.3295  -14.7244   21.6955 C   0  0  0  0  0  0  0  0  0  0  0  0
   10.1543  -15.4385   20.2552 S   0  0  0  0  0  0  0  0  0  0  0  0
   10.2736  -16.3965   23.1535 C   0  0  0  0  0  0  0  0  0  0  0  0
   11.1114  -16.9055   22.3757 O   0  0  0  0  0  0  0  0  0  0  0  0
   11.0950  -14.1379   28.3249 N   0  0  0  0  0  0  0  0  0  0  0  0
   10.9146  -15.5184   28.5385 C   0  0  0  0  0  0  0  0  0  0  0  0
   10.4180  -15.9240   29.6000 O   0  0  0  0  0  0  0  0  0  0  0  0
   11.3192  -16.4710   27.4962 C   0  0  0  0  0  0  0  0  0  0  0  0
   12.0477  -15.8752   26.3358 C   0  0  0  0  0  0  0  0  0  0  0  0
   11.9258  -16.6397   25.0498 C   0  0  2  0  0  0  0  0  0  0  0  0
   10.5755  -16.4023   24.5439 N   0  0  0  0  0  0  0  0  0  0  0  0
   12.0703  -18.0913   25.2945 C   0  0  0  0  0  0  0  0  0  0  0  0
   11.0649  -18.8301   25.2361 O   0  0  0  0  0  0  0  0  0  0  0  0
   13.2861  -18.6840   25.5904 O   0  0  0  0  0  0  0  0  0  0  0  0
  2  3  1  6
  2  1  1  0
  4  2  1  0
  5  7  1  0
  5  4  1  0
  5  6  1  1
  7  8  2  0
  9 10  1  0
  9  7  1  0
 10 11  1  6
 11 12  1  0
 13 10  1  0
 14 13  2  0
 16 15  1  0
 16 17  2  0
 18 16  1  0
 19 18  1  0
 20 19  1  1
 20 21  1  0
 21 13  1  0
 22 20  1  0
 22 24  1  0
 23 22  2  0
M  END
$$$$
