LCQ.pdb
     RDKit          3D

 24 23  0  0  1  0  0  0  0  0999 V2000
    6.7897  -13.0493   19.0427 C   0  0  0  0  0  0  0  0  0  0  0  0
    7.3204  -14.4314   19.2243 C   0  0  2  0  0  0  0  0  0  0  0  0
    6.4797  -15.4896   18.5435 C   0  0  0  0  0  0  0  0  0  0  0  0
    7.5747  -14.7505   20.6789 C   0  0  0  0  0  0  0  0  0  0  0  0
    8.3275  -13.5700   21.2680 C   0  0  2  0  0  0  0  0  0  0  0  0
    9.5632  -13.4479   20.5232 N   0  0  0  0  0  0  0  0  0  0  0  0
    8.6226  -13.7341   22.6870 C   0  0  0  0  0  0  0  0  0  0  0  0
    9.6970  -14.2821   23.0453 O   0  0  0  0  0  0  0  0  0  0  0  0
    7.7703  -13.3130   23.7477 N   0  0  0  0  0  0  0  0  0  0  0  0
    8.0540  -13.5261   25.1520 C   0  0  1  0  0  0  0  0  0  0  0  0
    6.9402  -12.8244   25.9272 C   0  0  0  0  0  0  0  0  0  0  0  0
    7.1330  -13.0396   27.7108 S   0  0  0  0  0  0  0  0  0  0  0  0
    8.0018  -14.9520   25.5277 C   0  0  0  0  0  0  0  0  0  0  0  0
    6.9694  -15.6589   25.5152 O   0  0  0  0  0  0  0  0  0  0  0  0
   12.2390  -18.8708   24.0680 N   0  0  0  0  0  0  0  0  0  0  0  0
   11.3424  -17.9916   23.4298 C   0  0  0  0  0  0  0  0  0  0  0  0
   11.4638  -17.7497   22.2196 O   0  0  0  0  0  0  0  0  0  0  0  0
   10.2658  -17.3650   24.2082 C   0  0  0  0  0  0  0  0  0  0  0  0
   10.2627  -17.6876   25.6670 C   0  0  0  0  0  0  0  0  0  0  0  0
    9.2637  -16.9211   26.4841 C   0  0  2  0  0  0  0  0  0  0  0  0
    9.2182  -15.5678   25.9347 N   0  0  0  0  0  0  0  0  0  0  0  0
    9.7099  -16.8251   27.8912 C   0  0  0  0  0  0  0  0  0  0  0  0
    9.8091  -17.8629   28.5792 O   0  0  0  0  0  0  0  0  0  0  0  0
   10.0292  -15.6211   28.4957 O   0  0  0  0  0  0  0  0  0  0  0  0
  2  3  1  1
  2  1  1  0
  4  2  1  0
  5  7  1  0
  5  4  1  0
  5  6  1  6
  7  8  2  0
  9 10  1  0
  9  7  1  0
 10 11  1  1
 11 12  1  0
 13 10  1  0
 14 13  2  0
 16 15  1  0
 16 17  2  0
 18 16  1  0
 19 18  1  0
 20 19  1  6
 20 21  1  0
 21 13  1  0
 22 20  1  0
 22 24  1  0
 23 22  2  0
M  END
$$$$
