LCQ.pdb
     RDKit          3D

 24 23  0  0  1  0  0  0  0  0999 V2000
    8.9264  -13.7047   18.7924 C   0  0  0  0  0  0  0  0  0  0  0  0
    7.5768  -13.2390   19.2246 C   0  0  2  0  0  0  0  0  0  0  0  0
    7.2331  -11.8530   18.7236 C   0  0  0  0  0  0  0  0  0  0  0  0
    7.3867  -13.3717   20.7175 C   0  0  0  0  0  0  0  0  0  0  0  0
    7.7057  -14.8119   21.0800 C   0  0  2  0  0  0  0  0  0  0  0  0
    6.6652  -15.6311   20.4944 N   0  0  0  0  0  0  0  0  0  0  0  0
    7.7578  -15.0381   22.5200 C   0  0  0  0  0  0  0  0  0  0  0  0
    7.0794  -14.3145   23.2940 O   0  0  0  0  0  0  0  0  0  0  0  0
    8.5391  -16.0451   23.1561 N   0  0  0  0  0  0  0  0  0  0  0  0
    8.7674  -16.1156   24.5846 C   0  0  1  0  0  0  0  0  0  0  0  0
    7.4020  -16.3537   25.2272 C   0  0  0  0  0  0  0  0  0  0  0  0
    7.4553  -17.7092   26.4207 S   0  0  0  0  0  0  0  0  0  0  0  0
    9.6216  -17.2575   24.9634 C   0  0  0  0  0  0  0  0  0  0  0  0
    9.3706  -18.4562   24.7067 O   0  0  0  0  0  0  0  0  0  0  0  0
   13.8830  -15.2388   22.6368 N   0  0  0  0  0  0  0  0  0  0  0  0
   14.1205  -15.9150   23.8495 C   0  0  0  0  0  0  0  0  0  0  0  0
   14.9622  -15.4802   24.6497 O   0  0  0  0  0  0  0  0  0  0  0  0
   13.3651  -17.1367   24.1568 C   0  0  0  0  0  0  0  0  0  0  0  0
   13.1576  -17.4092   25.6111 C   0  0  0  0  0  0  0  0  0  0  0  0
   11.8217  -17.9968   25.9622 C   0  0  2  0  0  0  0  0  0  0  0  0
   10.8207  -16.9719   25.6740 N   0  0  0  0  0  0  0  0  0  0  0  0
   11.7545  -18.3036   27.4077 C   0  0  0  0  0  0  0  0  0  0  0  0
   10.9910  -17.6436   28.1437 O   0  0  0  0  0  0  0  0  0  0  0  0
   12.5088  -19.3036   27.9974 O   0  0  0  0  0  0  0  0  0  0  0  0
  2  3  1  1
  2  1  1  0
  4  2  1  0
  5  7  1  0
  5  4  1  0
  5  6  1  1
  7  8  2  0
  9 10  1  0
  9  7  1  0
 10 11  1  1
 11 12  1  0
 13 10  1  0
 14 13  2  0
 16 15  1  0
 16 17  2  0
 18 16  1  0
 19 18  1  0
 20 19  1  1
 20 21  1  0
 21 13  1  0
 22 20  1  0
 22 24  1  0
 23 22  2  0
M  END
$$$$
