LCQ.pdb
     RDKit          3D

 24 23  0  0  1  0  0  0  0  0999 V2000
    6.8127  -16.5370   19.0411 C   0  0  0  0  0  0  0  0  0  0  0  0
    7.5197  -17.2675   20.1326 C   0  0  2  0  0  0  0  0  0  0  0  0
    7.1956  -18.7452   20.1715 C   0  0  0  0  0  0  0  0  0  0  0  0
    7.3227  -16.6026   21.4748 C   0  0  0  0  0  0  0  0  0  0  0  0
    7.7938  -15.1656   21.3325 C   0  0  2  0  0  0  0  0  0  0  0  0
    8.8250  -15.1620   20.3159 N   0  0  0  0  0  0  0  0  0  0  0  0
    8.3255  -14.6154   22.5743 C   0  0  0  0  0  0  0  0  0  0  0  0
    9.5035  -14.8830   22.9257 O   0  0  0  0  0  0  0  0  0  0  0  0
    7.6026  -13.7678   23.4620 N   0  0  0  0  0  0  0  0  0  0  0  0
    7.9556  -13.5547   24.8505 C   0  0  1  0  0  0  0  0  0  0  0  0
    6.8357  -12.7089   25.4541 C   0  0  0  0  0  0  0  0  0  0  0  0
    7.0890  -12.4329   27.2217 S   0  0  0  0  0  0  0  0  0  0  0  0
    8.0015  -14.8128   25.6200 C   0  0  0  0  0  0  0  0  0  0  0  0
    7.1389  -15.7176   25.5660 O   0  0  0  0  0  0  0  0  0  0  0  0
   13.0929  -18.6334   25.2651 N   0  0  0  0  0  0  0  0  0  0  0  0
   11.7301  -18.9717   25.3769 C   0  0  0  0  0  0  0  0  0  0  0  0
   11.2369  -19.8237   24.6228 O   0  0  0  0  0  0  0  0  0  0  0  0
   10.9004  -18.3080   26.3911 C   0  0  0  0  0  0  0  0  0  0  0  0
   10.3179  -16.9953   25.9790 C   0  0  0  0  0  0  0  0  0  0  0  0
    9.4658  -16.3254   27.0174 C   0  0  2  0  0  0  0  0  0  0  0  0
    9.1113  -15.0102   26.4883 N   0  0  0  0  0  0  0  0  0  0  0  0
   10.2341  -16.1211   28.2648 C   0  0  0  0  0  0  0  0  0  0  0  0
   10.6528  -17.1112   28.9008 O   0  0  0  0  0  0  0  0  0  0  0  0
   10.5180  -14.8648   28.7728 O   0  0  0  0  0  0  0  0  0  0  0  0
  2  3  1  1
  2  1  1  0
  4  2  1  0
  5  7  1  0
  5  4  1  0
  5  6  1  6
  7  8  2  0
  9 10  1  0
  9  7  1  0
 10 11  1  1
 11 12  1  0
 13 10  1  0
 14 13  2  0
 16 15  1  0
 16 17  2  0
 18 16  1  0
 19 18  1  0
 20 19  1  6
 20 21  1  0
 21 13  1  0
 22 20  1  0
 22 24  1  0
 23 22  2  0
M  END
$$$$
