HRC.pdb
     RDKit          3D

 28 28  0  0  1  0  0  0  0  0999 V2000
   19.0249  -20.8466  -11.9472 N   0  0  0  0  0  0  0  0  0  0  0  0
   20.2217  -21.5620  -12.4146 C   0  0  1  0  0  0  0  0  0  0  0  0
   19.6705  -22.6209  -13.3632 C   0  0  0  0  0  0  0  0  0  0  0  0
   19.2058  -23.7541  -12.5239 C   0  0  0  0  0  0  0  0  0  0  0  0
   19.2428  -23.8734  -11.1505 C   0  0  0  0  0  0  0  0  0  0  0  0
   18.7226  -25.0621  -10.7983 N   0  0  0  0  0  0  0  0  0  0  0  0
   18.3640  -25.6780  -11.9483 C   0  0  0  0  0  0  0  0  0  0  0  0
   18.6554  -24.8908  -12.9801 N   0  0  0  0  0  0  0  0  0  0  0  0
   21.0669  -20.5832  -13.1307 C   0  0  0  0  0  0  0  0  0  0  0  0
   20.5338  -19.5727  -13.6397 O   0  0  0  0  0  0  0  0  0  0  0  0
   28.3207  -19.0984  -15.8465 N   0  0  0  0  0  0  0  0  0  0  0  0
   27.8457  -17.7601  -15.9811 C   0  0  0  0  0  0  0  0  0  0  0  0
   28.0706  -17.0995  -17.0555 N   0  0  0  0  0  0  0  0  0  0  0  0
   27.1266  -17.1755  -14.9183 N   0  0  0  0  0  0  0  0  0  0  0  0
   26.3691  -18.0085  -13.9892 C   0  0  0  0  0  0  0  0  0  0  0  0
   25.6138  -19.0626  -14.7548 C   0  0  0  0  0  0  0  0  0  0  0  0
   24.7371  -19.8407  -13.8706 C   0  0  0  0  0  0  0  0  0  0  0  0
   23.2745  -19.6971  -13.9605 C   0  0  2  0  0  0  0  0  0  0  0  0
   22.4774  -20.6924  -13.2967 N   0  0  0  0  0  0  0  0  0  0  0  0
   22.9519  -19.8653  -15.4363 C   0  0  0  0  0  0  0  0  0  0  0  0
   22.7568  -20.9887  -15.9575 O   0  0  0  0  0  0  0  0  0  0  0  0
   27.6849  -16.1570  -17.2591 N   0  0  0  0  0  0  0  0  0  0  0  0
   22.8595  -18.7345  -16.2836 C   0  0  2  0  0  0  0  0  0  0  0  0
   22.5634  -18.8417  -17.7028 C   0  0  0  0  0  0  0  0  0  0  0  0
   21.0607  -18.8940  -17.9336 S   0  0  0  0  0  0  0  0  0  0  0  0
   20.2208  -17.5030  -17.1758 C   0  0  0  0  0  0  0  0  0  0  0  0
   23.1783  -17.7175  -18.4465 O   0  0  0  0  0  0  0  0  0  0  0  0
   23.7128  -16.7873  -17.7963 O   0  0  0  0  0  0  0  0  0  0  0  0
  2  1  1  6
  2  9  1  0
  3  2  1  0
  4  5  2  0
  4  3  1  0
  6  5  1  0
  7  8  2  0
  7  6  1  0
  8  4  1  0
  9 10  2  0
 11 12  1  0
 12 14  1  0
 13 12  2  0
 14 15  1  0
 16 17  1  0
 16 15  1  0
 18 17  1  6
 18 20  1  0
 19  9  1  0
 19 18  1  0
 20 21  2  0
 22 23  1  0
 22 20  1  0
 23 26  1  0
 23 24  1  1
 25 24  1  0
 26 27  2  0
 26 28  1  0
M  END
$$$$
