HRC.pdb
     RDKit          3D

 28 28  0  0  1  0  0  0  0  0999 V2000
   18.3115  -20.5720  -12.4876 N   0  0  0  0  0  0  0  0  0  0  0  0
   18.3435  -21.9939  -12.1132 C   0  0  1  0  0  0  0  0  0  0  0  0
   19.8255  -22.3506  -12.1493 C   0  0  0  0  0  0  0  0  0  0  0  0
   20.2718  -22.2039  -13.5578 C   0  0  0  0  0  0  0  0  0  0  0  0
   19.5008  -22.0018  -14.6832 C   0  0  0  0  0  0  0  0  0  0  0  0
   20.3042  -21.9270  -15.7587 N   0  0  0  0  0  0  0  0  0  0  0  0
   21.5685  -22.0817  -15.3027 C   0  0  0  0  0  0  0  0  0  0  0  0
   21.5448  -22.2476  -13.9832 N   0  0  0  0  0  0  0  0  0  0  0  0
   17.7959  -22.1001  -10.7443 C   0  0  0  0  0  0  0  0  0  0  0  0
   18.5212  -21.7982   -9.7711 O   0  0  0  0  0  0  0  0  0  0  0  0
   12.1832  -19.6537   -5.6334 N   0  0  0  0  0  0  0  0  0  0  0  0
   12.4776  -20.8440   -4.9044 C   0  0  0  0  0  0  0  0  0  0  0  0
   11.8478  -21.1108   -3.8212 N   0  0  0  0  0  0  0  0  0  0  0  0
   13.4686  -21.7211   -5.3913 N   0  0  0  0  0  0  0  0  0  0  0  0
   14.0724  -21.5028   -6.7022 C   0  0  0  0  0  0  0  0  0  0  0  0
   13.9894  -22.7679   -7.5148 C   0  0  0  0  0  0  0  0  0  0  0  0
   14.5520  -22.5789   -8.8578 C   0  0  0  0  0  0  0  0  0  0  0  0
   16.0026  -22.6999   -9.0795 C   0  0  2  0  0  0  0  0  0  0  0  0
   16.4751  -22.5283  -10.4263 N   0  0  0  0  0  0  0  0  0  0  0  0
   16.3351  -24.1424   -8.7345 C   0  0  0  0  0  0  0  0  0  0  0  0
   16.2894  -25.0638   -9.5834 O   0  0  0  0  0  0  0  0  0  0  0  0
   11.9803  -21.9748   -3.2604 N   0  0  0  0  0  0  0  0  0  0  0  0
   16.7150  -24.4954   -7.4168 C   0  0  2  0  0  0  0  0  0  0  0  0
   17.0007  -25.8658   -7.0250 C   0  0  0  0  0  0  0  0  0  0  0  0
   18.4011  -25.9746   -6.4410 S   0  0  0  0  0  0  0  0  0  0  0  0
   18.8260  -24.5387   -5.4551 C   0  0  0  0  0  0  0  0  0  0  0  0
   15.9832  -26.3528   -6.0647 O   0  0  0  0  0  0  0  0  0  0  0  0
   15.1859  -25.5249   -5.5620 O   0  0  0  0  0  0  0  0  0  0  0  0
  2  1  1  1
  2  9  1  0
  3  2  1  0
  4  5  2  0
  4  3  1  0
  6  5  1  0
  7  8  2  0
  7  6  1  0
  8  4  1  0
  9 10  2  0
 11 12  1  0
 12 14  1  0
 13 12  2  0
 14 15  1  0
 16 17  1  0
 16 15  1  0
 18 17  1  6
 18 20  1  0
 19  9  1  0
 19 18  1  0
 20 21  2  0
 22 23  1  0
 22 20  1  0
 23 26  1  0
 23 24  1  6
 25 24  1  0
 26 27  2  0
 26 28  1  0
M  END
$$$$
