HRC.pdb
     RDKit          3D

 28 28  0  0  1  0  0  0  0  0999 V2000
   29.9961  -20.6417  -14.8870 N   0  0  0  0  0  0  0  0  0  0  0  0
   29.5515  -21.2066  -13.6040 C   0  0  1  0  0  0  0  0  0  0  0  0
   30.6861  -20.8725  -12.6418 C   0  0  0  0  0  0  0  0  0  0  0  0
   31.7273  -21.9157  -12.8214 C   0  0  0  0  0  0  0  0  0  0  0  0
   31.7375  -22.9706  -13.7096 C   0  0  0  0  0  0  0  0  0  0  0  0
   32.8685  -23.6775  -13.5395 N   0  0  0  0  0  0  0  0  0  0  0  0
   33.5574  -23.0637  -12.5499 C   0  0  0  0  0  0  0  0  0  0  0  0
   32.8700  -22.0085  -12.1222 N   0  0  0  0  0  0  0  0  0  0  0  0
   28.3021  -20.5119  -13.2275 C   0  0  0  0  0  0  0  0  0  0  0  0
   28.2777  -19.2615  -13.2177 O   0  0  0  0  0  0  0  0  0  0  0  0
   22.8193  -18.7954  -17.4601 N   0  0  0  0  0  0  0  0  0  0  0  0
   21.9316  -18.8017  -16.3435 C   0  0  0  0  0  0  0  0  0  0  0  0
   20.6907  -18.5262  -16.5029 N   0  0  0  0  0  0  0  0  0  0  0  0
   22.4372  -19.1149  -15.0649 N   0  0  0  0  0  0  0  0  0  0  0  0
   23.7765  -18.6873  -14.6723 C   0  0  0  0  0  0  0  0  0  0  0  0
   24.7239  -19.8553  -14.7498 C   0  0  0  0  0  0  0  0  0  0  0  0
   24.7493  -20.6080  -13.4894 C   0  0  0  0  0  0  0  0  0  0  0  0
   25.8754  -20.4523  -12.5536 C   0  0  2  0  0  0  0  0  0  0  0  0
   27.0871  -21.1606  -12.8645 N   0  0  0  0  0  0  0  0  0  0  0  0
   25.3924  -21.0669  -11.2500 C   0  0  0  0  0  0  0  0  0  0  0  0
   25.3252  -22.3067  -11.0763 O   0  0  0  0  0  0  0  0  0  0  0  0
   19.9886  -18.5066  -15.7378 N   0  0  0  0  0  0  0  0  0  0  0  0
   24.9966  -20.2402  -10.1706 C   0  0  2  0  0  0  0  0  0  0  0  0
   24.6112  -20.7753   -8.8751 C   0  0  0  0  0  0  0  0  0  0  0  0
   25.0681  -19.8507   -7.7568 S   0  0  0  0  0  0  0  0  0  0  0  0
   26.7979  -19.4090   -7.9214 C   0  0  0  0  0  0  0  0  0  0  0  0
   23.1472  -20.9954   -8.8204 O   0  0  0  0  0  0  0  0  0  0  0  0
   22.4420  -20.5890   -9.7750 O   0  0  0  0  0  0  0  0  0  0  0  0
  2  1  1  6
  2  9  1  0
  3  2  1  0
  4  5  2  0
  4  3  1  0
  6  5  1  0
  7  8  2  0
  7  6  1  0
  8  4  1  0
  9 10  2  0
 11 12  1  0
 12 14  1  0
 13 12  2  0
 14 15  1  0
 16 17  1  0
 16 15  1  0
 18 17  1  6
 18 20  1  0
 19  9  1  0
 19 18  1  0
 20 21  2  0
 22 23  1  0
 22 20  1  0
 23 26  1  0
 23 24  1  6
 25 24  1  0
 26 27  2  0
 26 28  1  0
M  END
$$$$
