HRC.pdb
     RDKit          3D

 28 28  0  0  1  0  0  0  0  0999 V2000
   28.3341  -20.7470  -18.5493 N   0  0  0  0  0  0  0  0  0  0  0  0
   28.1713  -21.6933  -17.4354 C   0  0  1  0  0  0  0  0  0  0  0  0
   29.5329  -21.6917  -16.7491 C   0  0  0  0  0  0  0  0  0  0  0  0
   30.4261  -22.5596  -17.5575 C   0  0  0  0  0  0  0  0  0  0  0  0
   31.4624  -22.1849  -18.3866 C   0  0  0  0  0  0  0  0  0  0  0  0
   32.0103  -23.2857  -18.9304 N   0  0  0  0  0  0  0  0  0  0  0  0
   31.3171  -24.3393  -18.4406 C   0  0  0  0  0  0  0  0  0  0  0  0
   30.3685  -23.8998  -17.6183 N   0  0  0  0  0  0  0  0  0  0  0  0
   27.1194  -21.1518  -16.5492 C   0  0  0  0  0  0  0  0  0  0  0  0
   27.1293  -19.9344  -16.2624 O   0  0  0  0  0  0  0  0  0  0  0  0
   20.7377  -17.6623  -15.9373 N   0  0  0  0  0  0  0  0  0  0  0  0
   20.3087  -18.3428  -14.7593 C   0  0  0  0  0  0  0  0  0  0  0  0
   19.3534  -17.8676  -14.0503 N   0  0  0  0  0  0  0  0  0  0  0  0
   20.9486  -19.5429  -14.3868 N   0  0  0  0  0  0  0  0  0  0  0  0
   22.0582  -20.0674  -15.1771 C   0  0  0  0  0  0  0  0  0  0  0  0
   22.5318  -21.3680  -14.5839 C   0  0  0  0  0  0  0  0  0  0  0  0
   23.6648  -21.9188  -15.3381 C   0  0  0  0  0  0  0  0  0  0  0  0
   25.0108  -21.3423  -15.1837 C   0  0  2  0  0  0  0  0  0  0  0  0
   26.0635  -21.9171  -15.9762 N   0  0  0  0  0  0  0  0  0  0  0  0
   25.4041  -21.6390  -13.7458 C   0  0  0  0  0  0  0  0  0  0  0  0
   25.6661  -22.7981  -13.3465 O   0  0  0  0  0  0  0  0  0  0  0  0
   18.9498  -18.3360  -13.2158 N   0  0  0  0  0  0  0  0  0  0  0  0
   25.4885  -20.5930  -12.7950 C   0  0  2  0  0  0  0  0  0  0  0  0
   25.7265  -20.8369  -11.3818 C   0  0  0  0  0  0  0  0  0  0  0  0
   26.5706  -19.7230  -10.7811 S   0  0  0  0  0  0  0  0  0  0  0  0
   26.5895  -19.7925   -8.9896 C   0  0  0  0  0  0  0  0  0  0  0  0
   24.4421  -20.9822  -10.6578 O   0  0  0  0  0  0  0  0  0  0  0  0
   23.4343  -20.3754  -11.0935 O   0  0  0  0  0  0  0  0  0  0  0  0
  2  1  1  6
  2  9  1  0
  3  2  1  0
  4  5  2  0
  4  3  1  0
  6  5  1  0
  7  8  2  0
  7  6  1  0
  8  4  1  0
  9 10  2  0
 11 12  1  0
 12 14  1  0
 13 12  2  0
 14 15  1  0
 16 17  1  0
 16 15  1  0
 18 17  1  6
 18 20  1  0
 19  9  1  0
 19 18  1  0
 20 21  2  0
 22 23  1  0
 22 20  1  0
 23 26  1  0
 23 24  1  6
 25 24  1  0
 26 27  2  0
 26 28  1  0
M  END
$$$$
