HRC.pdb
     RDKit          3D

 28 28  0  0  1  0  0  0  0  0999 V2000
   21.2093  -25.6571  -16.2579 N   0  0  0  0  0  0  0  0  0  0  0  0
   21.0557  -26.8269  -17.1358 C   0  0  1  0  0  0  0  0  0  0  0  0
   20.4954  -26.2453  -18.4292 C   0  0  0  0  0  0  0  0  0  0  0  0
   19.0768  -25.8943  -18.1672 C   0  0  0  0  0  0  0  0  0  0  0  0
   18.5373  -24.6534  -17.9011 C   0  0  0  0  0  0  0  0  0  0  0  0
   17.2107  -24.7800  -17.7221 N   0  0  0  0  0  0  0  0  0  0  0  0
   16.9281  -26.0941  -17.8766 C   0  0  0  0  0  0  0  0  0  0  0  0
   18.0491  -26.7584  -18.1431 N   0  0  0  0  0  0  0  0  0  0  0  0
   22.4019  -27.4019  -17.3410 C   0  0  0  0  0  0  0  0  0  0  0  0
   23.3961  -26.6431  -17.3449 O   0  0  0  0  0  0  0  0  0  0  0  0
   28.1919  -32.1033  -15.3573 N   0  0  0  0  0  0  0  0  0  0  0  0
   27.0249  -32.1105  -14.5371 C   0  0  0  0  0  0  0  0  0  0  0  0
   27.1135  -31.8548  -13.2849 N   0  0  0  0  0  0  0  0  0  0  0  0
   25.7752  -32.4018  -15.1219 N   0  0  0  0  0  0  0  0  0  0  0  0
   25.6575  -32.5879  -16.5649 C   0  0  0  0  0  0  0  0  0  0  0  0
   25.6023  -31.2458  -17.2457 C   0  0  0  0  0  0  0  0  0  0  0  0
   24.2903  -30.6106  -17.0702 C   0  0  0  0  0  0  0  0  0  0  0  0
   24.0018  -29.3138  -17.7049 C   0  0  2  0  0  0  0  0  0  0  0  0
   22.6749  -28.7856  -17.5403 N   0  0  0  0  0  0  0  0  0  0  0  0
   24.1340  -29.5674  -19.1977 C   0  0  0  0  0  0  0  0  0  0  0  0
   23.2546  -30.1705  -19.8571 O   0  0  0  0  0  0  0  0  0  0  0  0
   26.3053  -31.8106  -12.6341 N   0  0  0  0  0  0  0  0  0  0  0  0
   25.2777  -29.1201  -19.9027 C   0  0  2  0  0  0  0  0  0  0  0  0
   25.4484  -29.3293  -21.3311 C   0  0  0  0  0  0  0  0  0  0  0  0
   26.0580  -28.0976  -21.9833 S   0  0  0  0  0  0  0  0  0  0  0  0
   24.9037  -26.7265  -22.0285 C   0  0  0  0  0  0  0  0  0  0  0  0
   26.2769  -30.5314  -21.5830 O   0  0  0  0  0  0  0  0  0  0  0  0
   26.4936  -30.8743  -22.7701 O   0  0  0  0  0  0  0  0  0  0  0  0
  2  1  1  1
  2  9  1  0
  3  2  1  0
  4  5  2  0
  4  3  1  0
  6  5  1  0
  7  8  2  0
  7  6  1  0
  8  4  1  0
  9 10  2  0
 11 12  1  0
 12 14  1  0
 13 12  2  0
 14 15  1  0
 16 17  1  0
 16 15  1  0
 18 17  1  1
 18 20  1  0
 19  9  1  0
 19 18  1  0
 20 21  2  0
 22 23  1  0
 22 20  1  0
 23 26  1  0
 23 24  1  1
 25 24  1  0
 26 27  2  0
 26 28  1  0
M  END
$$$$
