HRC.pdb
     RDKit          3D

 28 28  0  0  1  0  0  0  0  0999 V2000
   21.8052  -21.2546  -13.3019 N   0  0  0  0  0  0  0  0  0  0  0  0
   22.0100  -20.4618  -14.5235 C   0  0  1  0  0  0  0  0  0  0  0  0
   21.3977  -19.1059  -14.1892 C   0  0  0  0  0  0  0  0  0  0  0  0
   19.9235  -19.2830  -14.1971 C   0  0  0  0  0  0  0  0  0  0  0  0
   19.1425  -19.9139  -15.1425 C   0  0  0  0  0  0  0  0  0  0  0  0
   17.8540  -19.8462  -14.7643 N   0  0  0  0  0  0  0  0  0  0  0  0
   17.8355  -19.1764  -13.5889 C   0  0  0  0  0  0  0  0  0  0  0  0
   19.0778  -18.8405  -13.2526 N   0  0  0  0  0  0  0  0  0  0  0  0
   23.4686  -20.3569  -14.7396 C   0  0  0  0  0  0  0  0  0  0  0  0
   24.1902  -19.9002  -13.8258 O   0  0  0  0  0  0  0  0  0  0  0  0
   29.0022  -25.5997  -16.4052 N   0  0  0  0  0  0  0  0  0  0  0  0
   27.6259  -25.8228  -16.7070 C   0  0  0  0  0  0  0  0  0  0  0  0
   27.0306  -26.8704  -16.2720 N   0  0  0  0  0  0  0  0  0  0  0  0
   26.9311  -24.8766  -17.4883 N   0  0  0  0  0  0  0  0  0  0  0  0
   27.4739  -23.5359  -17.6852 C   0  0  0  0  0  0  0  0  0  0  0  0
   27.0255  -22.6383  -16.5622 C   0  0  0  0  0  0  0  0  0  0  0  0
   26.2134  -21.5218  -17.0617 C   0  0  0  0  0  0  0  0  0  0  0  0
   25.5629  -20.5962  -16.1194 C   0  0  2  0  0  0  0  0  0  0  0  0
   24.1450  -20.7420  -15.9325 N   0  0  0  0  0  0  0  0  0  0  0  0
   25.7309  -19.2190  -16.7402 C   0  0  0  0  0  0  0  0  0  0  0  0
   24.9563  -18.7813  -17.6234 O   0  0  0  0  0  0  0  0  0  0  0  0
   26.0443  -27.1180  -16.4833 N   0  0  0  0  0  0  0  0  0  0  0  0
   26.7889  -18.3717  -16.3303 C   0  0  2  0  0  0  0  0  0  0  0  0
   27.0499  -17.0861  -16.9568 C   0  0  0  0  0  0  0  0  0  0  0  0
   27.7039  -16.1321  -15.9686 S   0  0  0  0  0  0  0  0  0  0  0  0
   26.6614  -15.8326  -14.5411 C   0  0  0  0  0  0  0  0  0  0  0  0
   27.8891  -17.2599  -18.1653 O   0  0  0  0  0  0  0  0  0  0  0  0
   28.4234  -18.3761  -18.3709 O   0  0  0  0  0  0  0  0  0  0  0  0
  2  1  1  1
  2  9  1  0
  3  2  1  0
  4  5  2  0
  4  3  1  0
  6  5  1  0
  7  8  2  0
  7  6  1  0
  8  4  1  0
  9 10  2  0
 11 12  1  0
 12 14  1  0
 13 12  2  0
 14 15  1  0
 16 17  1  0
 16 15  1  0
 18 17  1  6
 18 20  1  0
 19  9  1  0
 19 18  1  0
 20 21  2  0
 22 23  1  0
 22 20  1  0
 23 26  1  0
 23 24  1  6
 25 24  1  0
 26 27  2  0
 26 28  1  0
M  END
$$$$
