HRC.pdb
     RDKit          3D

 28 28  0  0  1  0  0  0  0  0999 V2000
   26.2534  -18.4383  -16.0907 N   0  0  0  0  0  0  0  0  0  0  0  0
   26.9339  -19.3071  -15.1186 C   0  0  1  0  0  0  0  0  0  0  0  0
   28.3430  -18.7310  -15.0333 C   0  0  0  0  0  0  0  0  0  0  0  0
   29.0120  -19.0305  -16.3246 C   0  0  0  0  0  0  0  0  0  0  0  0
   29.5152  -20.2353  -16.7684 C   0  0  0  0  0  0  0  0  0  0  0  0
   30.0408  -20.0672  -17.9944 N   0  0  0  0  0  0  0  0  0  0  0  0
   29.8642  -18.7636  -18.3104 C   0  0  0  0  0  0  0  0  0  0  0  0
   29.2474  -18.1458  -17.3069 N   0  0  0  0  0  0  0  0  0  0  0  0
   26.2171  -19.1733  -13.8327 C   0  0  0  0  0  0  0  0  0  0  0  0
   25.8072  -18.0467  -13.4763 O   0  0  0  0  0  0  0  0  0  0  0  0
   19.1735  -20.2236  -12.1070 N   0  0  0  0  0  0  0  0  0  0  0  0
   19.2613  -21.1500  -11.0259 C   0  0  0  0  0  0  0  0  0  0  0  0
   18.3649  -21.1619  -10.1107 N   0  0  0  0  0  0  0  0  0  0  0  0
   20.3453  -22.0507  -10.9784 N   0  0  0  0  0  0  0  0  0  0  0  0
   21.4258  -21.9622  -11.9558 C   0  0  0  0  0  0  0  0  0  0  0  0
   22.5116  -21.0610  -11.4299 C   0  0  0  0  0  0  0  0  0  0  0  0
   23.6612  -21.0199  -12.3423 C   0  0  0  0  0  0  0  0  0  0  0  0
   24.8568  -20.2333  -11.9962 C   0  0  2  0  0  0  0  0  0  0  0  0
   25.9436  -20.2465  -12.9371 N   0  0  0  0  0  0  0  0  0  0  0  0
   25.4177  -20.8968  -10.7490 C   0  0  0  0  0  0  0  0  0  0  0  0
   25.8736  -22.0646  -10.7566 O   0  0  0  0  0  0  0  0  0  0  0  0
   18.3762  -21.7894   -9.2832 N   0  0  0  0  0  0  0  0  0  0  0  0
   25.4431  -20.2007   -9.5161 C   0  0  2  0  0  0  0  0  0  0  0  0
   25.8105  -20.8402   -8.2634 C   0  0  0  0  0  0  0  0  0  0  0  0
   26.5323  -19.8584   -7.3527 S   0  0  0  0  0  0  0  0  0  0  0  0
   27.6177  -18.7685   -8.2739 C   0  0  0  0  0  0  0  0  0  0  0  0
   24.6122  -21.4026   -7.5981 O   0  0  0  0  0  0  0  0  0  0  0  0
   23.4869  -21.1984   -8.1134 O   0  0  0  0  0  0  0  0  0  0  0  0
  2  1  1  6
  2  9  1  0
  3  2  1  0
  4  5  2  0
  4  3  1  0
  6  5  1  0
  7  8  2  0
  7  6  1  0
  8  4  1  0
  9 10  2  0
 11 12  1  0
 12 14  1  0
 13 12  2  0
 14 15  1  0
 16 17  1  0
 16 15  1  0
 18 17  1  6
 18 20  1  0
 19  9  1  0
 19 18  1  0
 20 21  2  0
 22 23  1  0
 22 20  1  0
 23 26  1  0
 23 24  1  6
 25 24  1  0
 26 27  2  0
 26 28  1  0
M  END
$$$$
