RGK.pdb
     RDKit          3D

 25 24  0  0  1  0  0  0  0  0999 V2000
    8.0246  -12.3630   17.1545 N   0  0  0  0  0  0  0  0  0  0  0  0
    7.5312  -13.2984   18.0887 C   0  0  0  0  0  0  0  0  0  0  0  0
    6.4175  -13.1540   18.7198 N   0  0  0  0  0  0  0  0  0  0  0  0
    8.2616  -14.4822   18.3893 N   0  0  0  0  0  0  0  0  0  0  0  0
    7.7325  -15.4993   19.2181 C   0  0  0  0  0  0  0  0  0  0  0  0
    6.8541  -15.0270   20.3274 C   0  0  0  0  0  0  0  0  0  0  0  0
    6.3297  -16.1232   21.1692 C   0  0  0  0  0  0  0  0  0  0  0  0
    7.3056  -16.9640   21.9010 C   0  0  2  0  0  0  0  0  0  0  0  0
    7.1125  -18.3812   21.7953 N   0  0  0  0  0  0  0  0  0  0  0  0
    7.5015  -16.5747   23.3118 C   0  0  0  0  0  0  0  0  0  0  0  0
    6.7411  -17.0543   24.1968 O   0  0  0  0  0  0  0  0  0  0  0  0
    6.1188  -13.9105   19.3739 N   0  0  0  0  0  0  0  0  0  0  0  0
    8.5058  -15.6806   23.7501 C   0  0  0  0  0  0  0  0  0  0  0  0
    8.6652  -15.3319   25.1552 C   0  0  0  0  0  0  0  0  0  0  0  0
    9.7073  -16.2433   25.7071 O   0  0  0  0  0  0  0  0  0  0  0  0
   10.9105  -15.9559   25.8059 N   0  0  0  0  0  0  0  0  0  0  0  0
    9.2677  -17.5390   26.1494 C   0  0  1  0  0  0  0  0  0  0  0  0
   10.1979  -18.4380   26.7416 C   0  0  0  0  0  0  0  0  0  0  0  0
    9.6828  -19.1657   27.9286 C   0  0  0  0  0  0  0  0  0  0  0  0
   10.6206  -19.6095   28.9562 C   0  0  0  0  0  0  0  0  0  0  0  0
   10.6682  -18.9308   30.2776 C   0  0  0  0  0  0  0  0  0  0  0  0
   11.7831  -19.6714   31.0706 N   0  0  0  0  0  0  0  0  0  0  0  0
   11.9222  -19.1023   32.3753 C   0  0  0  0  0  0  0  0  0  0  0  0
   10.7676  -19.3472   25.7110 O   0  0  0  0  0  0  0  0  0  0  0  0
   11.9845  -19.9774   25.8890 O   0  0  0  0  0  0  0  0  0  0  0  0
  1  2  1  0
  2  3  2  0
  4  5  1  0
  4  2  1  0
  6  7  1  0
  6  5  1  0
  7  8  1  0
  8 10  1  0
  8  9  1  1
 10 12  1  0
 11 10  2  0
 12 13  1  0
 14 15  2  0
 14 13  1  0
 16 14  1  0
 17 23  1  0
 17 16  1  0
 17 18  1  6
 19 18  1  0
 20 19  1  0
 21 20  1  0
 21 22  1  0
 23 24  1  0
 25 23  2  0
M  END
$$$$
