RGK.pdb
     RDKit          3D

 25 24  0  0  1  0  0  0  0  0999 V2000
    9.3932  -15.7153   15.4846 N   0  0  0  0  0  0  0  0  0  0  0  0
    8.5219  -14.9015   14.7298 C   0  0  0  0  0  0  0  0  0  0  0  0
    8.2437  -15.1152   13.4903 N   0  0  0  0  0  0  0  0  0  0  0  0
    7.8892  -13.7705   15.3179 N   0  0  0  0  0  0  0  0  0  0  0  0
    8.1537  -13.3715   16.6491 C   0  0  0  0  0  0  0  0  0  0  0  0
    7.1883  -13.8725   17.6700 C   0  0  0  0  0  0  0  0  0  0  0  0
    7.4826  -13.3993   19.0393 C   0  0  0  0  0  0  0  0  0  0  0  0
    8.8066  -13.7276   19.6173 C   0  0  2  0  0  0  0  0  0  0  0  0
    9.8857  -13.8457   18.6800 N   0  0  0  0  0  0  0  0  0  0  0  0
    8.7954  -14.8819   20.5380 C   0  0  0  0  0  0  0  0  0  0  0  0
    8.0164  -14.8739   21.5303 O   0  0  0  0  0  0  0  0  0  0  0  0
    7.5830  -14.4634   13.0129 N   0  0  0  0  0  0  0  0  0  0  0  0
    9.6165  -16.0227   20.3811 C   0  0  0  0  0  0  0  0  0  0  0  0
    9.6182  -17.1085   21.3517 C   0  0  0  0  0  0  0  0  0  0  0  0
   10.4333  -16.6459   22.5104 O   0  0  0  0  0  0  0  0  0  0  0  0
   11.6694  -16.5363   22.5001 N   0  0  0  0  0  0  0  0  0  0  0  0
    9.7196  -16.3088   23.7125 C   0  0  1  0  0  0  0  0  0  0  0  0
   10.4362  -16.0749   24.9191 C   0  0  0  0  0  0  0  0  0  0  0  0
    9.6000  -15.6054   26.0522 C   0  0  0  0  0  0  0  0  0  0  0  0
   10.2271  -15.3578   27.3476 C   0  0  0  0  0  0  0  0  0  0  0  0
    9.4121  -14.9090   28.5066 C   0  0  0  0  0  0  0  0  0  0  0  0
   10.4253  -14.7614   29.6779 N   0  0  0  0  0  0  0  0  0  0  0  0
    9.7775  -14.2008   30.8233 C   0  0  0  0  0  0  0  0  0  0  0  0
   11.2652  -17.2601   25.2673 O   0  0  0  0  0  0  0  0  0  0  0  0
   10.7870  -18.5492   25.1276 O   0  0  0  0  0  0  0  0  0  0  0  0
  1  2  1  0
  2  3  2  0
  4  5  1  0
  4  2  1  0
  6  7  1  0
  6  5  1  0
  7  8  1  0
  8 10  1  0
  8  9  1  6
 10 12  1  0
 11 10  2  0
 12 13  1  0
 14 15  2  0
 14 13  1  0
 16 14  1  0
 17 23  1  0
 17 16  1  0
 17 18  1  1
 19 18  1  0
 20 19  1  0
 21 20  1  0
 21 22  1  0
 23 24  1  0
 25 23  2  0
M  END
$$$$
