RGK.pdb
     RDKit          3D

 25 24  0  0  1  0  0  0  0  0999 V2000
    7.4399  -13.5344   18.1751 N   0  0  0  0  0  0  0  0  0  0  0  0
    7.3354  -14.1153   16.8933 C   0  0  0  0  0  0  0  0  0  0  0  0
    7.2241  -13.4299   15.8083 N   0  0  0  0  0  0  0  0  0  0  0  0
    7.3474  -15.5292   16.7313 N   0  0  0  0  0  0  0  0  0  0  0  0
    8.2723  -16.3540   17.4136 C   0  0  0  0  0  0  0  0  0  0  0  0
    8.1115  -16.4039   18.8958 C   0  0  0  0  0  0  0  0  0  0  0  0
    9.0772  -17.3037   19.5616 C   0  0  0  0  0  0  0  0  0  0  0  0
   10.4904  -16.8667   19.6433 C   0  0  2  0  0  0  0  0  0  0  0  0
   11.4670  -17.8272   19.2182 N   0  0  0  0  0  0  0  0  0  0  0  0
   10.8705  -16.2885   20.9478 C   0  0  0  0  0  0  0  0  0  0  0  0
   11.8462  -16.7778   21.5802 O   0  0  0  0  0  0  0  0  0  0  0  0
    7.2040  -13.9431   14.8998 N   0  0  0  0  0  0  0  0  0  0  0  0
   10.2010  -15.1989   21.5515 C   0  0  0  0  0  0  0  0  0  0  0  0
   10.5473  -14.7267   22.8851 C   0  0  0  0  0  0  0  0  0  0  0  0
   10.3780  -15.8853   23.8070 O   0  0  0  0  0  0  0  0  0  0  0  0
   10.8657  -17.0106   23.6175 N   0  0  0  0  0  0  0  0  0  0  0  0
    9.5925  -15.6630   24.9909 C   0  0  1  0  0  0  0  0  0  0  0  0
   10.0830  -16.0902   26.2563 C   0  0  0  0  0  0  0  0  0  0  0  0
    9.8009  -15.1558   27.3748 C   0  0  0  0  0  0  0  0  0  0  0  0
   10.3239  -15.4560   28.7048 C   0  0  0  0  0  0  0  0  0  0  0  0
   10.0168  -14.5656   29.8545 C   0  0  0  0  0  0  0  0  0  0  0  0
   10.6025  -15.2962   31.0970 N   0  0  0  0  0  0  0  0  0  0  0  0
   10.3611  -14.5293   32.2799 C   0  0  0  0  0  0  0  0  0  0  0  0
    9.6383  -17.4810   26.5415 O   0  0  0  0  0  0  0  0  0  0  0  0
   10.4342  -18.3714   27.2368 O   0  0  0  0  0  0  0  0  0  0  0  0
  1  2  1  0
  2  3  2  0
  4  5  1  0
  4  2  1  0
  6  7  1  0
  6  5  1  0
  7  8  1  0
  8 10  1  0
  8  9  1  1
 10 12  1  0
 11 10  2  0
 12 13  1  0
 14 15  2  0
 14 13  1  0
 16 14  1  0
 17 23  1  0
 17 16  1  0
 17 18  1  1
 19 18  1  0
 20 19  1  0
 21 20  1  0
 21 22  1  0
 23 24  1  0
 25 23  2  0
M  END
$$$$
