RGK.pdb
     RDKit          3D

 25 24  0  0  1  0  0  0  0  0999 V2000
    8.0552  -11.8272   19.9763 N   0  0  0  0  0  0  0  0  0  0  0  0
    8.1490  -12.9862   19.1770 C   0  0  0  0  0  0  0  0  0  0  0  0
    8.0895  -12.9700   17.8903 N   0  0  0  0  0  0  0  0  0  0  0  0
    8.3181  -14.2686   19.7706 N   0  0  0  0  0  0  0  0  0  0  0  0
    8.3528  -15.4534   18.9984 C   0  0  0  0  0  0  0  0  0  0  0  0
    7.0652  -16.2024   18.9195 C   0  0  0  0  0  0  0  0  0  0  0  0
    7.0033  -17.3625   19.8336 C   0  0  0  0  0  0  0  0  0  0  0  0
    6.1781  -17.2383   21.0577 C   0  0  2  0  0  0  0  0  0  0  0  0
    5.9434  -15.9011   21.5200 N   0  0  0  0  0  0  0  0  0  0  0  0
    6.6179  -18.0994   22.1737 C   0  0  0  0  0  0  0  0  0  0  0  0
    7.8269  -18.0762   22.5332 O   0  0  0  0  0  0  0  0  0  0  0  0
    8.0765  -13.8830   17.3849 N   0  0  0  0  0  0  0  0  0  0  0  0
    5.7579  -18.9685   22.8843 C   0  0  0  0  0  0  0  0  0  0  0  0
    6.2114  -19.7171   24.0484 C   0  0  0  0  0  0  0  0  0  0  0  0
    6.8275  -18.7296   24.9792 O   0  0  0  0  0  0  0  0  0  0  0  0
    6.7194  -17.4984   24.8686 N   0  0  0  0  0  0  0  0  0  0  0  0
    7.5953  -19.2605   26.0731 C   0  0  1  0  0  0  0  0  0  0  0  0
    8.2422  -18.3749   26.9793 C   0  0  0  0  0  0  0  0  0  0  0  0
    8.3609  -18.8898   28.3666 C   0  0  0  0  0  0  0  0  0  0  0  0
    9.5207  -19.6989   28.7309 C   0  0  0  0  0  0  0  0  0  0  0  0
    9.6487  -20.2595   30.1014 C   0  0  0  0  0  0  0  0  0  0  0  0
   11.0588  -20.9160   30.1376 N   0  0  0  0  0  0  0  0  0  0  0  0
   11.3172  -21.4593   31.4351 C   0  0  0  0  0  0  0  0  0  0  0  0
    9.5441  -17.9214   26.4199 O   0  0  0  0  0  0  0  0  0  0  0  0
   10.1886  -16.7958   26.8967 O   0  0  0  0  0  0  0  0  0  0  0  0
  1  2  1  0
  2  3  2  0
  4  5  1  0
  4  2  1  0
  6  7  1  0
  6  5  1  0
  7  8  1  0
  8 10  1  0
  8  9  1  1
 10 12  1  0
 11 10  2  0
 12 13  1  0
 14 15  2  0
 14 13  1  0
 16 14  1  0
 17 23  1  0
 17 16  1  0
 17 18  1  6
 19 18  1  0
 20 19  1  0
 21 20  1  0
 21 22  1  0
 23 24  1  0
 25 23  2  0
M  END
$$$$
