RGK.pdb
     RDKit          3D

 25 24  0  0  1  0  0  0  0  0999 V2000
    8.1924  -15.6765   16.6804 N   0  0  0  0  0  0  0  0  0  0  0  0
    8.3819  -14.4844   15.9496 C   0  0  0  0  0  0  0  0  0  0  0  0
    8.1495  -14.3792   14.6869 N   0  0  0  0  0  0  0  0  0  0  0  0
    8.8539  -13.3045   16.5903 N   0  0  0  0  0  0  0  0  0  0  0  0
    8.1885  -12.7385   17.7031 C   0  0  0  0  0  0  0  0  0  0  0  0
    7.4002  -13.6967   18.5312 C   0  0  0  0  0  0  0  0  0  0  0  0
    7.7773  -13.6862   19.9606 C   0  0  0  0  0  0  0  0  0  0  0  0
    8.8020  -14.6547   20.4151 C   0  0  2  0  0  0  0  0  0  0  0  0
    9.2481  -15.5996   19.4327 N   0  0  0  0  0  0  0  0  0  0  0  0
    8.4657  -15.3438   21.6771 C   0  0  0  0  0  0  0  0  0  0  0  0
    7.9799  -14.6800   22.6336 O   0  0  0  0  0  0  0  0  0  0  0  0
    8.3053  -13.4532   14.2315 N   0  0  0  0  0  0  0  0  0  0  0  0
    8.6547  -16.7286   21.8930 C   0  0  0  0  0  0  0  0  0  0  0  0
    8.2065  -17.3849   23.1135 C   0  0  0  0  0  0  0  0  0  0  0  0
    9.1856  -17.0248   24.1778 O   0  0  0  0  0  0  0  0  0  0  0  0
   10.4149  -16.9783   24.0143 N   0  0  0  0  0  0  0  0  0  0  0  0
    8.6487  -16.7135   25.4750 C   0  0  1  0  0  0  0  0  0  0  0  0
    9.5293  -16.4527   26.5616 C   0  0  0  0  0  0  0  0  0  0  0  0
    8.8995  -15.7602   27.7137 C   0  0  0  0  0  0  0  0  0  0  0  0
    9.6710  -15.5657   28.9382 C   0  0  0  0  0  0  0  0  0  0  0  0
   10.0628  -14.1997   29.3738 C   0  0  0  0  0  0  0  0  0  0  0  0
   10.8811  -14.4129   30.6797 N   0  0  0  0  0  0  0  0  0  0  0  0
   11.2814  -13.1519   31.2229 C   0  0  0  0  0  0  0  0  0  0  0  0
   10.2453  -17.6952   26.9576 O   0  0  0  0  0  0  0  0  0  0  0  0
   11.5610  -17.6739   27.3797 O   0  0  0  0  0  0  0  0  0  0  0  0
  1  2  1  0
  2  3  2  0
  4  5  1  0
  4  2  1  0
  6  7  1  0
  6  5  1  0
  7  8  1  0
  8 10  1  0
  8  9  1  6
 10 12  1  0
 11 10  2  0
 12 13  1  0
 14 15  2  0
 14 13  1  0
 16 14  1  0
 17 23  1  0
 17 16  1  0
 17 18  1  1
 19 18  1  0
 20 19  1  0
 21 20  1  0
 21 22  1  0
 23 24  1  0
 25 23  2  0
M  END
$$$$
