GMT.pdb
     RDKit          3D

 20 19  0  0  1  0  0  0  0  0999 V2000
   21.7197  -12.4590  -18.9948 N   0  0  0  0  0  0  0  0  0  0  0  0
   21.4211  -11.0578  -18.9542 C   0  0  0  0  0  0  0  0  0  0  0  0
   21.8709  -10.4984  -17.6570 C   0  0  0  0  0  0  0  0  0  0  0  0
   21.0932  -10.5233  -16.6689 O   0  0  0  0  0  0  0  0  0  0  0  0
   27.6481  -11.4716  -14.4994 C   0  0  0  0  0  0  0  0  0  0  0  0
   27.0834  -11.6806  -16.2155 S   0  0  0  0  0  0  0  0  0  0  0  0
   25.3576  -11.1994  -16.3388 C   0  0  0  0  0  0  0  0  0  0  0  0
   25.1625   -9.6993  -16.1867 C   0  0  0  0  0  0  0  0  0  0  0  0
   23.6926   -9.3828  -16.3264 C   0  0  2  0  0  0  0  0  0  0  0  0
   23.1791   -9.9398  -17.5486 N   0  0  0  0  0  0  0  0  0  0  0  0
   23.4739   -7.8893  -16.3341 C   0  0  0  0  0  0  0  0  0  0  0  0
   24.0434   -7.1673  -17.1865 O   0  0  0  0  0  0  0  0  0  0  0  0
   20.7938   -5.9314  -17.3014 C   0  0  0  0  0  0  0  0  0  0  0  0
   20.8954   -5.5705  -15.8432 C   0  0  1  0  0  0  0  0  0  0  0  0
   19.8522   -6.0752  -15.0921 O   0  0  0  0  0  0  0  0  0  0  0  0
   22.2424   -5.9112  -15.2966 C   0  0  2  0  0  0  0  0  0  0  0  0
   22.6234   -7.2774  -15.3809 N   0  0  0  0  0  0  0  0  0  0  0  0
   22.4948   -5.2487  -13.9886 C   0  0  0  0  0  0  0  0  0  0  0  0
   22.5145   -3.9982  -13.9233 O   0  0  0  0  0  0  0  0  0  0  0  0
   22.7095   -5.9855  -12.8577 O   0  0  0  0  0  0  0  0  0  0  0  0
  2  3  1  0
  2  1  1  0
  3 10  1  0
  4  3  2  0
  5  6  1  0
  7  6  1  0
  8  7  1  0
  9  8  1  6
  9 11  1  0
 10  9  1  0
 11 17  1  0
 11 12  2  0
 14 16  1  0
 14 13  1  6
 15 14  1  0
 16 18  1  0
 16 17  1  1
 18 20  1  0
 19 18  2  0
M  END
$$$$
