GMT.pdb
     RDKit          3D

 20 19  0  0  1  0  0  0  0  0999 V2000
   19.5200  -13.4726  -16.1031 N   0  0  0  0  0  0  0  0  0  0  0  0
   20.2382  -12.5369  -16.9173 C   0  0  0  0  0  0  0  0  0  0  0  0
   20.6513  -11.3806  -16.0865 C   0  0  0  0  0  0  0  0  0  0  0  0
   20.0333  -11.1322  -15.0197 O   0  0  0  0  0  0  0  0  0  0  0  0
   26.8821  -11.3297  -14.4197 C   0  0  0  0  0  0  0  0  0  0  0  0
   26.0810  -10.0273  -15.4044 S   0  0  0  0  0  0  0  0  0  0  0  0
   24.2990  -10.1491  -15.2183 C   0  0  0  0  0  0  0  0  0  0  0  0
   23.5613   -9.0613  -15.9824 C   0  0  0  0  0  0  0  0  0  0  0  0
   22.0765   -9.3165  -15.8811 C   0  0  2  0  0  0  0  0  0  0  0  0
   21.7438  -10.5664  -16.5094 N   0  0  0  0  0  0  0  0  0  0  0  0
   21.3043   -8.2059  -16.5511 C   0  0  0  0  0  0  0  0  0  0  0  0
   21.3852   -8.0325  -17.7903 O   0  0  0  0  0  0  0  0  0  0  0  0
   17.5277   -7.6751  -16.4719 C   0  0  0  0  0  0  0  0  0  0  0  0
   18.1671   -6.4593  -15.8552 C   0  0  1  0  0  0  0  0  0  0  0  0
   17.9825   -6.3916  -14.4884 O   0  0  0  0  0  0  0  0  0  0  0  0
   19.5957   -6.3331  -16.2705 C   0  0  2  0  0  0  0  0  0  0  0  0
   20.4761   -7.3413  -15.7942 N   0  0  0  0  0  0  0  0  0  0  0  0
   20.0878   -4.9343  -16.1490 C   0  0  0  0  0  0  0  0  0  0  0  0
   19.5108   -4.0195  -16.7803 O   0  0  0  0  0  0  0  0  0  0  0  0
   21.1634   -4.6339  -15.3611 O   0  0  0  0  0  0  0  0  0  0  0  0
  2  3  1  0
  2  1  1  0
  3 10  1  0
  4  3  2  0
  5  6  1  0
  7  6  1  0
  8  7  1  0
  9  8  1  6
  9 11  1  0
 10  9  1  0
 11 17  1  0
 11 12  2  0
 14 16  1  0
 14 13  1  1
 15 14  1  0
 16 18  1  0
 16 17  1  1
 18 20  1  0
 19 18  2  0
M  END
$$$$
