GMT.pdb
     RDKit          3D

 20 19  0  0  1  0  0  0  0  0999 V2000
   20.4342  -21.3420  -11.5929 N   0  0  0  0  0  0  0  0  0  0  0  0
   21.0901  -21.5942  -12.8420 C   0  0  0  0  0  0  0  0  0  0  0  0
   22.2237  -20.6517  -12.9993 C   0  0  0  0  0  0  0  0  0  0  0  0
   21.9918  -19.4289  -13.1800 O   0  0  0  0  0  0  0  0  0  0  0  0
   26.2287  -20.5241   -7.8814 C   0  0  0  0  0  0  0  0  0  0  0  0
   26.7526  -20.9322   -9.5746 S   0  0  0  0  0  0  0  0  0  0  0  0
   25.4378  -20.5130  -10.7237 C   0  0  0  0  0  0  0  0  0  0  0  0
   25.8229  -20.7860  -12.1688 C   0  0  0  0  0  0  0  0  0  0  0  0
   24.7142  -20.2960  -13.0692 C   0  0  2  0  0  0  0  0  0  0  0  0
   23.5609  -21.1457  -12.9437 N   0  0  0  0  0  0  0  0  0  0  0  0
   25.1686  -20.2896  -14.5086 C   0  0  0  0  0  0  0  0  0  0  0  0
   25.1926  -21.3529  -15.1729 O   0  0  0  0  0  0  0  0  0  0  0  0
   23.6658  -18.1845  -17.2957 C   0  0  0  0  0  0  0  0  0  0  0  0
   25.1235  -17.8176  -17.2080 C   0  0  1  0  0  0  0  0  0  0  0  0
   25.3276  -16.5499  -16.6998 O   0  0  0  0  0  0  0  0  0  0  0  0
   25.9035  -18.8759  -16.5004 C   0  0  2  0  0  0  0  0  0  0  0  0
   25.5752  -19.0855  -15.1340 N   0  0  0  0  0  0  0  0  0  0  0  0
   27.3562  -18.7970  -16.8119 C   0  0  0  0  0  0  0  0  0  0  0  0
   28.1773  -18.6086  -15.8852 O   0  0  0  0  0  0  0  0  0  0  0  0
   27.8072  -18.9231  -18.0958 O   0  0  0  0  0  0  0  0  0  0  0  0
  2  3  1  0
  2  1  1  0
  3 10  1  0
  4  3  2  0
  5  6  1  0
  7  6  1  0
  8  7  1  0
  9  8  1  1
  9 11  1  0
 10  9  1  0
 11 17  1  0
 11 12  2  0
 14 16  1  0
 14 13  1  1
 15 14  1  0
 16 18  1  0
 16 17  1  1
 18 20  1  0
 19 18  2  0
M  END
$$$$
