GMT.pdb
     RDKit          3D

 20 19  0  0  1  0  0  0  0  0999 V2000
   28.2006  -22.4568  -16.3937 N   0  0  0  0  0  0  0  0  0  0  0  0
   28.0093  -21.3259  -15.5342 C   0  0  0  0  0  0  0  0  0  0  0  0
   26.9593  -21.6411  -14.5361 C   0  0  0  0  0  0  0  0  0  0  0  0
   26.0919  -22.5116  -14.8038 O   0  0  0  0  0  0  0  0  0  0  0  0
   24.4905  -20.8775   -7.0906 C   0  0  0  0  0  0  0  0  0  0  0  0
   25.7975  -20.4252   -8.2717 S   0  0  0  0  0  0  0  0  0  0  0  0
   25.3113  -20.9340   -9.9239 C   0  0  0  0  0  0  0  0  0  0  0  0
   26.3667  -20.6012  -10.9663 C   0  0  0  0  0  0  0  0  0  0  0  0
   25.9117  -21.1291  -12.3058 C   0  0  2  0  0  0  0  0  0  0  0  0
   26.9480  -20.9523  -13.2869 N   0  0  0  0  0  0  0  0  0  0  0  0
   24.6695  -20.4038  -12.7634 C   0  0  0  0  0  0  0  0  0  0  0  0
   24.7086  -19.1783  -13.0258 O   0  0  0  0  0  0  0  0  0  0  0  0
   23.0757  -20.3029  -15.7237 C   0  0  0  0  0  0  0  0  0  0  0  0
   21.9628  -20.8555  -14.8732 C   0  0  1  0  0  0  0  0  0  0  0  0
   21.6769  -22.1765  -15.1564 O   0  0  0  0  0  0  0  0  0  0  0  0
   22.2135  -20.5976  -13.4241 C   0  0  2  0  0  0  0  0  0  0  0  0
   23.4398  -21.0925  -12.9046 N   0  0  0  0  0  0  0  0  0  0  0  0
   21.0063  -20.8622  -12.5959 C   0  0  0  0  0  0  0  0  0  0  0  0
   21.0731  -21.6811  -11.6507 O   0  0  0  0  0  0  0  0  0  0  0  0
   19.8239  -20.2274  -12.8545 O   0  0  0  0  0  0  0  0  0  0  0  0
  2  3  1  0
  2  1  1  0
  3 10  1  0
  4  3  2  0
  5  6  1  0
  7  6  1  0
  8  7  1  0
  9  8  1  1
  9 11  1  0
 10  9  1  0
 11 17  1  0
 11 12  2  0
 14 16  1  0
 14 13  1  6
 15 14  1  0
 16 18  1  0
 16 17  1  1
 18 20  1  0
 19 18  2  0
M  END
$$$$
