GMT.pdb
     RDKit          3D

 20 19  0  0  1  0  0  0  0  0999 V2000
   28.8966  -19.9353  -18.0622 N   0  0  0  0  0  0  0  0  0  0  0  0
   28.9516  -19.2595  -16.7995 C   0  0  0  0  0  0  0  0  0  0  0  0
   28.3094  -20.1036  -15.7636 C   0  0  0  0  0  0  0  0  0  0  0  0
   27.6292  -21.1021  -16.1127 O   0  0  0  0  0  0  0  0  0  0  0  0
   30.9339  -21.7832  -10.0701 C   0  0  0  0  0  0  0  0  0  0  0  0
   29.2136  -21.4872   -9.5594 S   0  0  0  0  0  0  0  0  0  0  0  0
   28.1700  -21.3714  -11.0163 C   0  0  0  0  0  0  0  0  0  0  0  0
   28.7938  -20.5182  -12.1091 C   0  0  0  0  0  0  0  0  0  0  0  0
   27.8933  -20.5441  -13.3209 C   0  0  2  0  0  0  0  0  0  0  0  0
   28.4722  -19.7706  -14.3859 N   0  0  0  0  0  0  0  0  0  0  0  0
   26.5360  -19.9781  -12.9807 C   0  0  0  0  0  0  0  0  0  0  0  0
   26.4195  -18.7882  -12.6028 O   0  0  0  0  0  0  0  0  0  0  0  0
   23.8280  -19.3360  -15.1471 C   0  0  0  0  0  0  0  0  0  0  0  0
   23.2021  -20.2850  -14.1597 C   0  0  1  0  0  0  0  0  0  0  0  0
   22.8976  -21.5122  -14.7148 O   0  0  0  0  0  0  0  0  0  0  0  0
   24.0183  -20.3809  -12.9132 C   0  0  2  0  0  0  0  0  0  0  0  0
   25.3718  -20.7785  -13.0819 N   0  0  0  0  0  0  0  0  0  0  0  0
   23.2772  -21.0576  -11.8149 C   0  0  0  0  0  0  0  0  0  0  0  0
   23.7873  -22.0493  -11.2451 O   0  0  0  0  0  0  0  0  0  0  0  0
   22.0456  -20.6148  -11.4214 O   0  0  0  0  0  0  0  0  0  0  0  0
  2  3  1  0
  2  1  1  0
  3 10  1  0
  4  3  2  0
  5  6  1  0
  7  6  1  0
  8  7  1  0
  9  8  1  1
  9 11  1  0
 10  9  1  0
 11 17  1  0
 11 12  2  0
 14 16  1  0
 14 13  1  6
 15 14  1  0
 16 18  1  0
 16 17  1  6
 18 20  1  0
 19 18  2  0
M  END
$$$$
