YFI.pdb
     RDKit          3D

 32 33  0  0  1  0  0  0  0  0999 V2000
   28.5926  -17.0953  -18.7365 O   0  0  0  0  0  0  0  0  0  0  0  0
   28.1449  -17.6651  -17.5564 C   0  0  0  0  0  0  0  0  0  0  0  0
   26.8998  -18.2644  -17.4989 C   0  0  0  0  0  0  0  0  0  0  0  0
   26.4608  -18.8338  -16.3064 C   0  0  0  0  0  0  0  0  0  0  0  0
   27.2309  -18.8230  -15.1644 C   0  0  0  0  0  0  0  0  0  0  0  0
   26.7601  -19.4315  -13.8921 C   0  0  0  0  0  0  0  0  0  0  0  0
   27.8070  -20.4343  -13.4602 C   0  0  2  0  0  0  0  0  0  0  0  0
   27.6890  -21.5821  -14.3217 N   0  0  0  0  0  0  0  0  0  0  0  0
   27.5798  -20.8581  -12.0569 C   0  0  0  0  0  0  0  0  0  0  0  0
   26.8359  -21.8138  -11.8074 O   0  0  0  0  0  0  0  0  0  0  0  0
   28.4757  -18.2129  -15.2576 C   0  0  0  0  0  0  0  0  0  0  0  0
   28.9205  -17.6450  -16.4363 C   0  0  0  0  0  0  0  0  0  0  0  0
   28.2049  -20.1830  -10.9816 N   0  0  0  0  0  0  0  0  0  0  0  0
   27.8713  -20.5453   -9.6391 C   0  0  1  0  0  0  0  0  0  0  0  0
   28.8191  -19.9731   -8.6127 C   0  0  0  0  0  0  0  0  0  0  0  0
   28.2791  -20.0852   -7.2224 C   0  0  0  0  0  0  0  0  0  0  0  0
   27.5315  -19.1323   -6.6157 C   0  0  0  0  0  0  0  0  0  0  0  0
   27.0769  -19.3215   -5.3323 C   0  0  0  0  0  0  0  0  0  0  0  0
   27.3634  -20.4716   -4.6314 C   0  0  0  0  0  0  0  0  0  0  0  0
   28.1223  -21.4538   -5.2298 C   0  0  0  0  0  0  0  0  0  0  0  0
   28.5624  -21.2347   -6.5149 C   0  0  0  0  0  0  0  0  0  0  0  0
   26.5243  -20.0198   -9.3243 C   0  0  0  0  0  0  0  0  0  0  0  0
   26.2114  -18.8054   -9.4000 O   0  0  0  0  0  0  0  0  0  0  0  0
   22.9521  -21.0158  -12.3495 C   0  0  0  0  0  0  0  0  0  0  0  0
   23.7297  -20.5029  -11.1870 C   0  0  0  0  0  0  0  0  0  0  0  0
   23.3038  -20.9221   -9.8394 C   0  0  2  0  0  0  0  0  0  0  0  0
   21.7987  -20.8201   -9.6664 C   0  0  0  0  0  0  0  0  0  0  0  0
   24.1180  -20.4795   -8.6855 C   0  0  2  0  0  0  0  0  0  0  0  0
   25.5179  -20.9247   -8.9125 N   0  0  0  0  0  0  0  0  0  0  0  0
   23.6715  -20.9597   -7.3963 C   0  0  0  0  0  0  0  0  0  0  0  0
   24.1578  -22.0263   -6.8844 O   0  0  0  0  0  0  0  0  0  0  0  0
   22.7167  -20.3158   -6.6395 O   0  0  0  0  0  0  0  0  0  0  0  0
  2  3  2  0
  2  1  1  0
  4  3  1  0
  5  4  2  0
  6  7  1  0
  6  5  1  0
  7  9  1  0
  7  8  1  6
  9 10  2  0
 11  5  1  0
 11 12  2  0
 12  2  1  0
 13  9  1  0
 14 13  1  0
 14 15  1  1
 16 15  1  0
 17 16  2  0
 18 17  1  0
 19 18  2  0
 19 20  1  0
 20 21  2  0
 21 16  1  0
 22 29  1  0
 22 14  1  0
 23 22  2  0
 24 25  1  0
 25 26  1  0
 26 27  1  1
 28 29  1  6
 28 26  1  0
 30 28  1  0
 31 30  2  0
 32 30  1  0
M  END
$$$$
