YFI.pdb
     RDKit          3D

 32 33  0  0  1  0  0  0  0  0999 V2000
   22.4931  -18.3591  -17.1005 O   0  0  0  0  0  0  0  0  0  0  0  0
   22.8253  -18.8681  -15.8562 C   0  0  0  0  0  0  0  0  0  0  0  0
   23.6616  -18.1597  -15.0127 C   0  0  0  0  0  0  0  0  0  0  0  0
   23.9883  -18.6822  -13.7640 C   0  0  0  0  0  0  0  0  0  0  0  0
   23.5030  -19.8961  -13.3300 C   0  0  0  0  0  0  0  0  0  0  0  0
   23.8533  -20.4521  -11.9963 C   0  0  0  0  0  0  0  0  0  0  0  0
   25.3283  -20.7869  -12.0233 C   0  0  2  0  0  0  0  0  0  0  0  0
   25.4967  -21.9340  -12.8774 N   0  0  0  0  0  0  0  0  0  0  0  0
   25.8150  -21.1221  -10.6627 C   0  0  0  0  0  0  0  0  0  0  0  0
   25.3482  -22.0930  -10.0556 O   0  0  0  0  0  0  0  0  0  0  0  0
   22.6659  -20.5808  -14.2023 C   0  0  0  0  0  0  0  0  0  0  0  0
   22.3357  -20.0709  -15.4435 C   0  0  0  0  0  0  0  0  0  0  0  0
   26.8164  -20.3438  -10.0349 N   0  0  0  0  0  0  0  0  0  0  0  0
   27.1563  -20.6084   -8.6713 C   0  0  1  0  0  0  0  0  0  0  0  0
   28.3988  -19.8833   -8.2136 C   0  0  0  0  0  0  0  0  0  0  0  0
   28.6084  -20.0006   -6.7373 C   0  0  0  0  0  0  0  0  0  0  0  0
   28.9477  -21.1492   -6.1043 C   0  0  0  0  0  0  0  0  0  0  0  0
   29.1200  -21.1636   -4.7406 C   0  0  0  0  0  0  0  0  0  0  0  0
   28.9551  -20.0248   -3.9841 C   0  0  0  0  0  0  0  0  0  0  0  0
   28.6100  -18.8457   -4.6079 C   0  0  0  0  0  0  0  0  0  0  0  0
   28.4448  -18.8638   -5.9738 C   0  0  0  0  0  0  0  0  0  0  0  0
   26.0459  -20.1522   -7.8062 C   0  0  0  0  0  0  0  0  0  0  0  0
   25.4621  -19.0478   -7.9405 O   0  0  0  0  0  0  0  0  0  0  0  0
   21.8145  -23.3215   -6.3374 C   0  0  0  0  0  0  0  0  0  0  0  0
   23.0934  -22.6712   -5.9368 C   0  0  0  0  0  0  0  0  0  0  0  0
   23.2682  -21.2444   -6.2634 C   0  0  2  0  0  0  0  0  0  0  0  0
   22.8024  -20.9275   -7.6735 C   0  0  0  0  0  0  0  0  0  0  0  0
   24.5196  -20.5822   -5.8325 C   0  0  2  0  0  0  0  0  0  0  0  0
   25.6032  -20.9972   -6.7616 N   0  0  0  0  0  0  0  0  0  0  0  0
   24.9281  -20.8621   -4.4735 C   0  0  0  0  0  0  0  0  0  0  0  0
   25.9375  -21.6083   -4.2278 O   0  0  0  0  0  0  0  0  0  0  0  0
   24.2795  -20.3524   -3.3695 O   0  0  0  0  0  0  0  0  0  0  0  0
  2  3  2  0
  2  1  1  0
  4  3  1  0
  5  4  2  0
  6  7  1  0
  6  5  1  0
  7  9  1  0
  7  8  1  6
  9 10  2  0
 11  5  1  0
 11 12  2  0
 12  2  1  0
 13  9  1  0
 14 13  1  0
 14 15  1  1
 16 15  1  0
 17 16  2  0
 18 17  1  0
 19 18  2  0
 19 20  1  0
 20 21  2  0
 21 16  1  0
 22 29  1  0
 22 14  1  0
 23 22  2  0
 24 25  1  0
 25 26  1  0
 26 27  1  6
 28 29  1  6
 28 26  1  0
 30 28  1  0
 31 30  2  0
 32 30  1  0
M  END
$$$$
