YFI.pdb
     RDKit          3D

 32 33  0  0  1  0  0  0  0  0999 V2000
   23.4237  -18.2655  -17.4885 O   0  0  0  0  0  0  0  0  0  0  0  0
   23.6018  -18.8195  -16.2319 C   0  0  0  0  0  0  0  0  0  0  0  0
   23.0826  -20.0675  -15.9392 C   0  0  0  0  0  0  0  0  0  0  0  0
   23.2683  -20.6139  -14.6719 C   0  0  0  0  0  0  0  0  0  0  0  0
   23.9599  -19.9489  -13.6835 C   0  0  0  0  0  0  0  0  0  0  0  0
   24.1568  -20.5342  -12.3310 C   0  0  0  0  0  0  0  0  0  0  0  0
   25.6324  -20.8316  -12.1815 C   0  0  2  0  0  0  0  0  0  0  0  0
   25.9151  -22.0180  -12.9471 N   0  0  0  0  0  0  0  0  0  0  0  0
   25.9759  -21.0806  -10.7602 C   0  0  0  0  0  0  0  0  0  0  0  0
   25.6115  -22.1234  -10.2046 O   0  0  0  0  0  0  0  0  0  0  0  0
   24.4677  -18.6980  -14.0117 C   0  0  0  0  0  0  0  0  0  0  0  0
   24.2888  -18.1470  -15.2663 C   0  0  0  0  0  0  0  0  0  0  0  0
   26.7224  -20.1372  -10.0149 N   0  0  0  0  0  0  0  0  0  0  0  0
   27.0368  -20.4157   -8.6479 C   0  0  1  0  0  0  0  0  0  0  0  0
   28.2424  -19.6585   -8.1458 C   0  0  0  0  0  0  0  0  0  0  0  0
   28.4055  -19.7773   -6.6637 C   0  0  0  0  0  0  0  0  0  0  0  0
   28.0015  -18.8386   -5.7745 C   0  0  0  0  0  0  0  0  0  0  0  0
   28.1928  -19.0331   -4.4272 C   0  0  0  0  0  0  0  0  0  0  0  0
   28.7938  -20.1742   -3.9447 C   0  0  0  0  0  0  0  0  0  0  0  0
   29.2124  -21.1419   -4.8320 C   0  0  0  0  0  0  0  0  0  0  0  0
   29.0068  -20.9178   -6.1739 C   0  0  0  0  0  0  0  0  0  0  0  0
   25.8904  -20.0129   -7.8036 C   0  0  0  0  0  0  0  0  0  0  0  0
   25.3368  -18.8867   -7.8656 O   0  0  0  0  0  0  0  0  0  0  0  0
   21.8121  -23.5826   -6.6815 C   0  0  0  0  0  0  0  0  0  0  0  0
   23.0047  -22.8208   -6.2163 C   0  0  0  0  0  0  0  0  0  0  0  0
   23.0440  -21.3735   -6.4932 C   0  0  2  0  0  0  0  0  0  0  0  0
   22.5870  -21.0571   -7.9063 C   0  0  0  0  0  0  0  0  0  0  0  0
   24.2105  -20.6050   -6.0044 C   0  0  2  0  0  0  0  0  0  0  0  0
   25.3749  -20.9383   -6.8660 N   0  0  0  0  0  0  0  0  0  0  0  0
   24.5638  -20.8353   -4.6209 C   0  0  0  0  0  0  0  0  0  0  0  0
   25.6788  -21.3771   -4.3055 O   0  0  0  0  0  0  0  0  0  0  0  0
   23.7478  -20.4904   -3.5652 O   0  0  0  0  0  0  0  0  0  0  0  0
  2  3  2  0
  2  1  1  0
  4  3  1  0
  5  4  2  0
  6  7  1  0
  6  5  1  0
  7  9  1  0
  7  8  1  6
  9 10  2  0
 11  5  1  0
 11 12  2  0
 12  2  1  0
 13  9  1  0
 14 13  1  0
 14 15  1  1
 16 15  1  0
 17 16  2  0
 18 17  1  0
 19 18  2  0
 19 20  1  0
 20 21  2  0
 21 16  1  0
 22 29  1  0
 22 14  1  0
 23 22  2  0
 24 25  1  0
 25 26  1  0
 26 27  1  6
 28 29  1  6
 28 26  1  0
 30 28  1  0
 31 30  2  0
 32 30  1  0
M  END
$$$$
