YFI.pdb
     RDKit          3D

 32 33  0  0  1  0  0  0  0  0999 V2000
   17.0078  -25.1408   -6.8254 O   0  0  0  0  0  0  0  0  0  0  0  0
   17.7439  -24.2316   -7.5665 C   0  0  0  0  0  0  0  0  0  0  0  0
   18.5174  -23.2771   -6.9315 C   0  0  0  0  0  0  0  0  0  0  0  0
   19.2532  -22.3683   -7.6877 C   0  0  0  0  0  0  0  0  0  0  0  0
   19.2399  -22.3839   -9.0650 C   0  0  0  0  0  0  0  0  0  0  0  0
   20.0262  -21.4124   -9.8705 C   0  0  0  0  0  0  0  0  0  0  0  0
   20.9776  -22.2115  -10.7333 C   0  0  2  0  0  0  0  0  0  0  0  0
   21.6316  -23.1719   -9.8826 N   0  0  0  0  0  0  0  0  0  0  0  0
   22.0023  -21.3279  -11.3412 C   0  0  0  0  0  0  0  0  0  0  0  0
   21.7112  -20.1729  -11.6733 O   0  0  0  0  0  0  0  0  0  0  0  0
   18.4524  -23.3557   -9.6700 C   0  0  0  0  0  0  0  0  0  0  0  0
   17.7186  -24.2620   -8.9284 C   0  0  0  0  0  0  0  0  0  0  0  0
   23.3251  -21.7842  -11.5526 N   0  0  0  0  0  0  0  0  0  0  0  0
   24.2367  -20.9691  -12.2940 C   0  0  1  0  0  0  0  0  0  0  0  0
   25.6766  -21.1550  -11.8804 C   0  0  0  0  0  0  0  0  0  0  0  0
   26.6193  -20.4070  -12.7688 C   0  0  0  0  0  0  0  0  0  0  0  0
   27.4427  -20.9921  -13.6714 C   0  0  0  0  0  0  0  0  0  0  0  0
   28.2775  -20.2237  -14.4473 C   0  0  0  0  0  0  0  0  0  0  0  0
   28.3030  -18.8517  -14.3331 C   0  0  0  0  0  0  0  0  0  0  0  0
   27.4735  -18.2361  -13.4211 C   0  0  0  0  0  0  0  0  0  0  0  0
   26.6497  -19.0325  -12.6593 C   0  0  0  0  0  0  0  0  0  0  0  0
   24.1471  -21.3344  -13.7251 C   0  0  0  0  0  0  0  0  0  0  0  0
   24.1887  -22.5161  -14.1499 O   0  0  0  0  0  0  0  0  0  0  0  0
   21.0451  -20.0823  -18.6220 C   0  0  0  0  0  0  0  0  0  0  0  0
   22.4117  -20.3840  -18.1116 C   0  0  0  0  0  0  0  0  0  0  0  0
   22.6490  -20.2420  -16.6637 C   0  0  2  0  0  0  0  0  0  0  0  0
   22.0423  -18.9625  -16.1155 C   0  0  0  0  0  0  0  0  0  0  0  0
   23.9875  -20.5973  -16.1419 C   0  0  2  0  0  0  0  0  0  0  0  0
   24.0059  -20.3046  -14.6847 N   0  0  0  0  0  0  0  0  0  0  0  0
   25.0959  -19.9175  -16.7755 C   0  0  0  0  0  0  0  0  0  0  0  0
   25.5767  -20.3316  -17.8861 O   0  0  0  0  0  0  0  0  0  0  0  0
   25.6973  -18.7964  -16.2455 O   0  0  0  0  0  0  0  0  0  0  0  0
  2  3  2  0
  2  1  1  0
  4  3  1  0
  5  4  2  0
  6  7  1  0
  6  5  1  0
  7  9  1  0
  7  8  1  1
  9 10  2  0
 11  5  1  0
 11 12  2  0
 12  2  1  0
 13  9  1  0
 14 13  1  0
 14 15  1  1
 16 15  1  0
 17 16  2  0
 18 17  1  0
 19 18  2  0
 19 20  1  0
 20 21  2  0
 21 16  1  0
 22 29  1  0
 22 14  1  0
 23 22  2  0
 24 25  1  0
 25 26  1  0
 26 27  1  6
 28 29  1  1
 28 26  1  0
 30 28  1  0
 31 30  2  0
 32 30  1  0
M  END
$$$$
