YFI.pdb
     RDKit          3D

 32 33  0  0  1  0  0  0  0  0999 V2000
   23.1407  -29.2862  -15.3523 O   0  0  0  0  0  0  0  0  0  0  0  0
   22.3999  -28.5526  -14.4407 C   0  0  0  0  0  0  0  0  0  0  0  0
   22.2467  -27.1877  -14.6031 C   0  0  0  0  0  0  0  0  0  0  0  0
   21.4995  -26.4611  -13.6796 C   0  0  0  0  0  0  0  0  0  0  0  0
   20.8979  -27.0587  -12.5941 C   0  0  0  0  0  0  0  0  0  0  0  0
   20.1006  -26.2808  -11.6093 C   0  0  0  0  0  0  0  0  0  0  0  0
   18.6605  -26.3151  -12.0709 C   0  0  2  0  0  0  0  0  0  0  0  0
   18.5172  -25.3358  -13.1168 N   0  0  0  0  0  0  0  0  0  0  0  0
   17.7442  -25.9696  -10.9568 C   0  0  0  0  0  0  0  0  0  0  0  0
   17.7089  -24.8155  -10.5142 O   0  0  0  0  0  0  0  0  0  0  0  0
   21.0722  -28.4307  -12.4617 C   0  0  0  0  0  0  0  0  0  0  0  0
   21.8119  -29.1608  -13.3726 C   0  0  0  0  0  0  0  0  0  0  0  0
   16.8971  -26.9459  -10.3806 N   0  0  0  0  0  0  0  0  0  0  0  0
   16.0099  -26.5676   -9.3248 C   0  0  1  0  0  0  0  0  0  0  0  0
   14.5539  -26.7798   -9.6628 C   0  0  0  0  0  0  0  0  0  0  0  0
   14.0659  -25.8071  -10.6890 C   0  0  0  0  0  0  0  0  0  0  0  0
   14.1130  -26.0214  -12.0257 C   0  0  0  0  0  0  0  0  0  0  0  0
   13.6403  -25.0689  -12.8968 C   0  0  0  0  0  0  0  0  0  0  0  0
   13.1103  -23.8814  -12.4438 C   0  0  0  0  0  0  0  0  0  0  0  0
   13.0529  -23.6431  -11.0878 C   0  0  0  0  0  0  0  0  0  0  0  0
   13.5340  -24.6158  -10.2418 C   0  0  0  0  0  0  0  0  0  0  0  0
   16.3033  -27.3976   -8.1354 C   0  0  0  0  0  0  0  0  0  0  0  0
   16.5214  -28.6341   -8.1811 O   0  0  0  0  0  0  0  0  0  0  0  0
   19.0828  -27.7901   -3.1053 C   0  0  0  0  0  0  0  0  0  0  0  0
   17.7347  -27.2191   -3.3803 C   0  0  0  0  0  0  0  0  0  0  0  0
   17.4653  -26.7242   -4.7425 C   0  0  2  0  0  0  0  0  0  0  0  0
   17.1693  -25.2349   -4.7532 C   0  0  0  0  0  0  0  0  0  0  0  0
   16.6218  -27.5567   -5.6289 C   0  0  2  0  0  0  0  0  0  0  0  0
   16.3444  -26.7781   -6.8643 N   0  0  0  0  0  0  0  0  0  0  0  0
   15.3690  -27.9946   -5.0537 C   0  0  0  0  0  0  0  0  0  0  0  0
   15.3069  -29.0478   -4.3305 O   0  0  0  0  0  0  0  0  0  0  0  0
   14.1794  -27.3222   -5.2328 O   0  0  0  0  0  0  0  0  0  0  0  0
  2  3  2  0
  2  1  1  0
  4  3  1  0
  5  4  2  0
  6  7  1  0
  6  5  1  0
  7  9  1  0
  7  8  1  6
  9 10  2  0
 11  5  1  0
 11 12  2  0
 12  2  1  0
 13  9  1  0
 14 13  1  0
 14 15  1  6
 16 15  1  0
 17 16  2  0
 18 17  1  0
 19 18  2  0
 19 20  1  0
 20 21  2  0
 21 16  1  0
 22 29  1  0
 22 14  1  0
 23 22  2  0
 24 25  1  0
 25 26  1  0
 26 27  1  1
 28 29  1  6
 28 26  1  0
 30 28  1  0
 31 30  2  0
 32 30  1  0
M  END
$$$$
