YFI.pdb
     RDKit          3D

 32 33  0  0  1  0  0  0  0  0999 V2000
   22.9575  -14.9387  -20.2605 O   0  0  0  0  0  0  0  0  0  0  0  0
   23.3509  -15.8676  -19.3118 C   0  0  0  0  0  0  0  0  0  0  0  0
   22.9350  -17.1831  -19.4084 C   0  0  0  0  0  0  0  0  0  0  0  0
   23.3373  -18.1078  -18.4481 C   0  0  0  0  0  0  0  0  0  0  0  0
   24.1459  -17.7573  -17.3896 C   0  0  0  0  0  0  0  0  0  0  0  0
   24.5741  -18.7463  -16.3653 C   0  0  0  0  0  0  0  0  0  0  0  0
   25.9170  -19.2899  -16.8005 C   0  0  2  0  0  0  0  0  0  0  0  0
   25.6815  -20.2128  -17.8805 N   0  0  0  0  0  0  0  0  0  0  0  0
   26.5778  -20.0103  -15.6849 C   0  0  0  0  0  0  0  0  0  0  0  0
   26.2515  -21.1717  -15.4131 O   0  0  0  0  0  0  0  0  0  0  0  0
   24.5450  -16.4280  -17.3233 C   0  0  0  0  0  0  0  0  0  0  0  0
   24.1512  -15.5027  -18.2712 C   0  0  0  0  0  0  0  0  0  0  0  0
   27.5882  -19.3888  -14.9132 N   0  0  0  0  0  0  0  0  0  0  0  0
   27.9072  -19.9158  -13.6227 C   0  0  1  0  0  0  0  0  0  0  0  0
   29.0977  -19.2450  -12.9809 C   0  0  0  0  0  0  0  0  0  0  0  0
   29.4016  -19.8090  -11.6293 C   0  0  0  0  0  0  0  0  0  0  0  0
   28.9261  -19.3012  -10.4669 C   0  0  0  0  0  0  0  0  0  0  0  0
   29.2587  -19.8863   -9.2682 C   0  0  0  0  0  0  0  0  0  0  0  0
   30.0756  -20.9934   -9.2119 C   0  0  0  0  0  0  0  0  0  0  0  0
   30.5702  -21.5260  -10.3825 C   0  0  0  0  0  0  0  0  0  0  0  0
   30.2192  -20.9178  -11.5658 C   0  0  0  0  0  0  0  0  0  0  0  0
   26.7528  -19.7022  -12.7220 C   0  0  0  0  0  0  0  0  0  0  0  0
   26.1340  -18.6132  -12.6232 O   0  0  0  0  0  0  0  0  0  0  0  0
   21.4034  -21.2862  -11.7889 C   0  0  0  0  0  0  0  0  0  0  0  0
   22.6290  -20.8779  -11.0470 C   0  0  0  0  0  0  0  0  0  0  0  0
   23.9226  -20.9953  -11.7440 C   0  0  2  0  0  0  0  0  0  0  0  0
   24.0038  -22.2655  -12.5721 C   0  0  0  0  0  0  0  0  0  0  0  0
   25.1480  -20.6311  -10.9983 C   0  0  2  0  0  0  0  0  0  0  0  0
   26.3066  -20.7771  -11.9178 N   0  0  0  0  0  0  0  0  0  0  0  0
   25.3931  -21.4048   -9.8010 C   0  0  0  0  0  0  0  0  0  0  0  0
   24.7716  -21.1512   -8.7122 O   0  0  0  0  0  0  0  0  0  0  0  0
   26.2882  -22.4513   -9.7477 O   0  0  0  0  0  0  0  0  0  0  0  0
  2  3  2  0
  2  1  1  0
  4  3  1  0
  5  4  2  0
  6  7  1  0
  6  5  1  0
  7  9  1  0
  7  8  1  6
  9 10  2  0
 11  5  1  0
 11 12  2  0
 12  2  1  0
 13  9  1  0
 14 13  1  0
 14 15  1  1
 16 15  1  0
 17 16  2  0
 18 17  1  0
 19 18  2  0
 19 20  1  0
 20 21  2  0
 21 16  1  0
 22 29  1  0
 22 14  1  0
 23 22  2  0
 24 25  1  0
 25 26  1  0
 26 27  1  1
 28 29  1  6
 28 26  1  0
 30 28  1  0
 31 30  2  0
 32 30  1  0
M  END
$$$$
