YFI.pdb
     RDKit          3D

 32 33  0  0  1  0  0  0  0  0999 V2000
   21.0996  -18.8023  -16.8952 O   0  0  0  0  0  0  0  0  0  0  0  0
   21.6685  -19.3465  -15.7560 C   0  0  0  0  0  0  0  0  0  0  0  0
   22.0520  -20.6751  -15.7337 C   0  0  0  0  0  0  0  0  0  0  0  0
   22.6230  -21.2108  -14.5821 C   0  0  0  0  0  0  0  0  0  0  0  0
   22.8235  -20.4566  -13.4470 C   0  0  0  0  0  0  0  0  0  0  0  0
   23.4332  -21.0308  -12.2184 C   0  0  0  0  0  0  0  0  0  0  0  0
   24.9194  -20.7567  -12.2852 C   0  0  2  0  0  0  0  0  0  0  0  0
   25.4845  -21.6643  -13.2499 N   0  0  0  0  0  0  0  0  0  0  0  0
   25.5563  -20.9950  -10.9669 C   0  0  0  0  0  0  0  0  0  0  0  0
   25.6387  -22.1423  -10.5130 O   0  0  0  0  0  0  0  0  0  0  0  0
   22.4268  -19.1263  -13.5042 C   0  0  0  0  0  0  0  0  0  0  0  0
   21.8592  -18.5853  -14.6422 C   0  0  0  0  0  0  0  0  0  0  0  0
   26.0794  -19.9226  -10.2059 N   0  0  0  0  0  0  0  0  0  0  0  0
   26.6268  -20.1847   -8.9111 C   0  0  1  0  0  0  0  0  0  0  0  0
   27.6981  -19.2016   -8.5051 C   0  0  0  0  0  0  0  0  0  0  0  0
   28.1646  -19.4241   -7.1015 C   0  0  0  0  0  0  0  0  0  0  0  0
   27.8798  -18.6011   -6.0639 C   0  0  0  0  0  0  0  0  0  0  0  0
   28.3523  -18.8852   -4.8047 C   0  0  0  0  0  0  0  0  0  0  0  0
   29.1206  -20.0017   -4.5611 C   0  0  0  0  0  0  0  0  0  0  0  0
   29.4222  -20.8522   -5.6024 C   0  0  0  0  0  0  0  0  0  0  0  0
   28.9346  -20.5405   -6.8508 C   0  0  0  0  0  0  0  0  0  0  0  0
   25.5446  -20.0844   -7.9069 C   0  0  0  0  0  0  0  0  0  0  0  0
   24.6508  -19.2015   -7.9267 O   0  0  0  0  0  0  0  0  0  0  0  0
   20.8267  -22.4101   -6.0921 C   0  0  0  0  0  0  0  0  0  0  0  0
   22.0237  -21.7198   -5.5356 C   0  0  0  0  0  0  0  0  0  0  0  0
   23.2297  -21.6516   -6.3805 C   0  0  2  0  0  0  0  0  0  0  0  0
   23.4725  -22.9538   -7.1229 C   0  0  0  0  0  0  0  0  0  0  0  0
   24.4315  -20.9927   -5.8223 C   0  0  2  0  0  0  0  0  0  0  0  0
   25.4989  -21.0303   -6.8561 N   0  0  0  0  0  0  0  0  0  0  0  0
   24.9381  -21.5712   -4.5973 C   0  0  0  0  0  0  0  0  0  0  0  0
   24.4002  -21.3024   -3.4683 O   0  0  0  0  0  0  0  0  0  0  0  0
   26.0080  -22.4390   -4.5574 O   0  0  0  0  0  0  0  0  0  0  0  0
  2  3  2  0
  2  1  1  0
  4  3  1  0
  5  4  2  0
  6  7  1  0
  6  5  1  0
  7  9  1  0
  7  8  1  6
  9 10  2  0
 11  5  1  0
 11 12  2  0
 12  2  1  0
 13  9  1  0
 14 13  1  0
 14 15  1  1
 16 15  1  0
 17 16  2  0
 18 17  1  0
 19 18  2  0
 19 20  1  0
 20 21  2  0
 21 16  1  0
 22 29  1  0
 22 14  1  0
 23 22  2  0
 24 25  1  0
 25 26  1  0
 26 27  1  1
 28 29  1  6
 28 26  1  0
 30 28  1  0
 31 30  2  0
 32 30  1  0
M  END
$$$$
