YFI.pdb
     RDKit          3D

 32 33  0  0  1  0  0  0  0  0999 V2000
   23.2443  -18.1340  -17.3563 O   0  0  0  0  0  0  0  0  0  0  0  0
   23.4824  -18.6999  -16.1151 C   0  0  0  0  0  0  0  0  0  0  0  0
   23.9531  -17.9229  -15.0722 C   0  0  0  0  0  0  0  0  0  0  0  0
   24.1887  -18.5037  -13.8287 C   0  0  0  0  0  0  0  0  0  0  0  0
   23.9675  -19.8428  -13.5938 C   0  0  0  0  0  0  0  0  0  0  0  0
   24.2199  -20.4608  -12.2653 C   0  0  0  0  0  0  0  0  0  0  0  0
   25.7185  -20.5993  -12.1125 C   0  0  2  0  0  0  0  0  0  0  0  0
   26.1303  -21.7374  -12.8928 N   0  0  0  0  0  0  0  0  0  0  0  0
   26.0818  -20.8299  -10.6930 C   0  0  0  0  0  0  0  0  0  0  0  0
   25.9158  -21.9428  -10.1802 O   0  0  0  0  0  0  0  0  0  0  0  0
   23.4947  -20.5935  -14.6631 C   0  0  0  0  0  0  0  0  0  0  0  0
   23.2578  -20.0267  -15.9010 C   0  0  0  0  0  0  0  0  0  0  0  0
   26.6222  -19.7891   -9.9009 N   0  0  0  0  0  0  0  0  0  0  0  0
   26.9921  -20.0602   -8.5464 C   0  0  1  0  0  0  0  0  0  0  0  0
   27.9103  -19.0165   -7.9574 C   0  0  0  0  0  0  0  0  0  0  0  0
   28.3504  -19.3701   -6.5722 C   0  0  0  0  0  0  0  0  0  0  0  0
   27.9047  -18.7553   -5.4504 C   0  0  0  0  0  0  0  0  0  0  0  0
   28.3655  -19.1474   -4.2161 C   0  0  0  0  0  0  0  0  0  0  0  0
   29.2835  -20.1651   -4.0826 C   0  0  0  0  0  0  0  0  0  0  0  0
   29.7500  -20.8039   -5.2109 C   0  0  0  0  0  0  0  0  0  0  0  0
   29.2697  -20.3885   -6.4315 C   0  0  0  0  0  0  0  0  0  0  0  0
   25.7694  -20.0805   -7.7133 C   0  0  0  0  0  0  0  0  0  0  0  0
   24.8695  -19.2055   -7.7694 O   0  0  0  0  0  0  0  0  0  0  0  0
   21.9485  -22.6911   -8.4712 C   0  0  0  0  0  0  0  0  0  0  0  0
   22.9223  -21.7553   -7.8427 C   0  0  0  0  0  0  0  0  0  0  0  0
   23.3970  -22.0718   -6.4835 C   0  0  2  0  0  0  0  0  0  0  0  0
   22.2573  -22.4884   -5.5707 C   0  0  0  0  0  0  0  0  0  0  0  0
   24.4160  -21.1840   -5.8803 C   0  0  2  0  0  0  0  0  0  0  0  0
   25.5873  -21.1404   -6.7943 N   0  0  0  0  0  0  0  0  0  0  0  0
   24.8609  -21.5663   -4.5582 C   0  0  0  0  0  0  0  0  0  0  0  0
   24.1935  -21.2401   -3.5169 O   0  0  0  0  0  0  0  0  0  0  0  0
   26.0058  -22.2982   -4.3285 O   0  0  0  0  0  0  0  0  0  0  0  0
  2  3  2  0
  2  1  1  0
  4  3  1  0
  5  4  2  0
  6  7  1  0
  6  5  1  0
  7  9  1  0
  7  8  1  6
  9 10  2  0
 11  5  1  0
 11 12  2  0
 12  2  1  0
 13  9  1  0
 14 13  1  0
 14 15  1  1
 16 15  1  0
 17 16  2  0
 18 17  1  0
 19 18  2  0
 19 20  1  0
 20 21  2  0
 21 16  1  0
 22 29  1  0
 22 14  1  0
 23 22  2  0
 24 25  1  0
 25 26  1  0
 26 27  1  1
 28 29  1  6
 28 26  1  0
 30 28  1  0
 31 30  2  0
 32 30  1  0
M  END
$$$$
