QYW.pdb
     RDKit          3D

 36 38  0  0  1  0  0  0  0  0999 V2000
   18.7961  -17.6361  -14.8772 N   0  0  0  0  0  0  0  0  0  0  0  0
   19.7207  -18.0599  -15.8928 C   0  0  0  0  0  0  0  0  0  0  0  0
   20.4288  -17.2086  -16.4799 O   0  0  0  0  0  0  0  0  0  0  0  0
   19.8065  -19.4738  -16.2040 C   0  0  0  0  0  0  0  0  0  0  0  0
   20.6456  -20.2440  -15.2634 C   0  0  0  0  0  0  0  0  0  0  0  0
   21.9127  -19.6247  -14.7934 C   0  0  2  0  0  0  0  0  0  0  0  0
   22.8823  -19.3498  -15.8129 N   0  0  0  0  0  0  0  0  0  0  0  0
   22.5505  -20.4569  -13.7386 C   0  0  0  0  0  0  0  0  0  0  0  0
   21.8024  -20.9466  -12.8440 O   0  0  0  0  0  0  0  0  0  0  0  0
   22.2108  -26.6065  -16.2666 O   0  0  0  0  0  0  0  0  0  0  0  0
   22.9595  -25.6403  -15.5700 C   0  0  0  0  0  0  0  0  0  0  0  0
   23.3546  -24.4755  -16.1897 C   0  0  0  0  0  0  0  0  0  0  0  0
   24.0888  -23.5247  -15.5126 C   0  0  0  0  0  0  0  0  0  0  0  0
   24.4585  -23.7025  -14.1819 C   0  0  0  0  0  0  0  0  0  0  0  0
   25.2804  -22.7182  -13.4866 C   0  0  0  0  0  0  0  0  0  0  0  0
   24.4920  -21.7200  -12.7249 C   0  0  2  0  0  0  0  0  0  0  0  0
   23.9121  -20.7312  -13.6731 N   0  0  0  0  0  0  0  0  0  0  0  0
   25.2959  -20.9370  -11.7970 C   0  0  0  0  0  0  0  0  0  0  0  0
   25.9210  -19.9135  -12.2437 O   0  0  0  0  0  0  0  0  0  0  0  0
   24.0607  -24.8663  -13.5709 C   0  0  0  0  0  0  0  0  0  0  0  0
   23.3158  -25.8328  -14.2555 C   0  0  0  0  0  0  0  0  0  0  0  0
   25.4772  -21.1648  -10.4083 N   0  0  0  0  0  0  0  0  0  0  0  0
   26.3674  -20.3574   -9.5975 C   0  0  1  0  0  0  0  0  0  0  0  0
   26.1514  -20.7351   -8.1370 C   0  0  0  0  0  0  0  0  0  0  0  0
   26.9930  -19.9231   -7.2486 C   0  0  0  0  0  0  0  0  0  0  0  0
   27.4693  -18.6508   -7.4703 C   0  0  0  0  0  0  0  0  0  0  0  0
   28.2072  -18.2672   -6.3983 N   0  0  0  0  0  0  0  0  0  0  0  0
   28.2299  -19.2504   -5.4783 C   0  0  0  0  0  0  0  0  0  0  0  0
   28.8410  -19.3299   -4.2365 C   0  0  0  0  0  0  0  0  0  0  0  0
   28.6792  -20.4900   -3.5124 C   0  0  0  0  0  0  0  0  0  0  0  0
   27.9328  -21.5286   -4.0162 C   0  0  0  0  0  0  0  0  0  0  0  0
   27.3316  -21.4235   -5.2617 C   0  0  0  0  0  0  0  0  0  0  0  0
   27.4773  -20.2834   -5.9992 C   0  0  0  0  0  0  0  0  0  0  0  0
   27.7704  -20.4092   -9.9835 C   0  0  0  0  0  0  0  0  0  0  0  0
   28.5657  -19.4416   -9.9560 O   0  0  0  0  0  0  0  0  0  0  0  0
   28.3486  -21.6151  -10.4352 O   0  0  0  0  0  0  0  0  0  0  0  0
  2  1  1  0
  3  2  2  0
  4  2  1  0
  5  6  1  0
  5  4  1  0
  6  7  1  6
  8  9  2  0
  8  6  1  0
 10 11  1  0
 11 12  2  0
 12 13  1  0
 14 13  2  0
 14 15  1  0
 16 15  1  6
 16 17  1  0
 17  8  1  0
 18 19  2  0
 18 16  1  0
 20 14  1  0
 21 11  1  0
 21 20  2  0
 22 18  1  0
 23 24  1  1
 23 22  1  0
 25 24  1  0
 25 33  1  0
 26 27  1  0
 26 25  2  0
 27 28  1  0
 28 29  2  0
 28 33  1  0
 29 30  1  0
 30 31  2  0
 32 31  1  0
 33 32  2  0
 34 23  1  0
 35 34  2  0
 36 34  1  0
M  END
$$$$
