QYW.pdb
     RDKit          3D

 36 38  0  0  1  0  0  0  0  0999 V2000
   25.1560  -22.5677  -14.3721 N   0  0  0  0  0  0  0  0  0  0  0  0
   25.5596  -23.3648  -15.4981 C   0  0  0  0  0  0  0  0  0  0  0  0
   26.7667  -23.6719  -15.6385 O   0  0  0  0  0  0  0  0  0  0  0  0
   24.5450  -23.7946  -16.4409 C   0  0  0  0  0  0  0  0  0  0  0  0
   23.1770  -23.3659  -16.0850 C   0  0  0  0  0  0  0  0  0  0  0  0
   22.3799  -24.2499  -15.1945 C   0  0  2  0  0  0  0  0  0  0  0  0
   22.0717  -25.5459  -15.7242 N   0  0  0  0  0  0  0  0  0  0  0  0
   21.1131  -23.5871  -14.7849 C   0  0  0  0  0  0  0  0  0  0  0  0
   20.0679  -23.8596  -15.4428 O   0  0  0  0  0  0  0  0  0  0  0  0
   17.4870  -26.9582   -9.8609 O   0  0  0  0  0  0  0  0  0  0  0  0
   18.0218  -25.7480  -10.3394 C   0  0  0  0  0  0  0  0  0  0  0  0
   17.2241  -24.6343  -10.4821 C   0  0  0  0  0  0  0  0  0  0  0  0
   17.7420  -23.4453  -10.9508 C   0  0  0  0  0  0  0  0  0  0  0  0
   19.0853  -23.3230  -11.2970 C   0  0  0  0  0  0  0  0  0  0  0  0
   19.6160  -22.0786  -11.8425 C   0  0  0  0  0  0  0  0  0  0  0  0
   19.7123  -22.0738  -13.3220 C   0  0  2  0  0  0  0  0  0  0  0  0
   21.0040  -22.6902  -13.7279 N   0  0  0  0  0  0  0  0  0  0  0  0
   19.7287  -20.7349  -13.8942 C   0  0  0  0  0  0  0  0  0  0  0  0
   20.8104  -20.0543  -13.8250 O   0  0  0  0  0  0  0  0  0  0  0  0
   19.8741  -24.4377  -11.1517 C   0  0  0  0  0  0  0  0  0  0  0  0
   19.3513  -25.6453  -10.6765 C   0  0  0  0  0  0  0  0  0  0  0  0
   18.6643  -20.0641  -14.5500 N   0  0  0  0  0  0  0  0  0  0  0  0
   18.8515  -18.8108  -15.2545 C   0  0  1  0  0  0  0  0  0  0  0  0
   20.0332  -18.9723  -16.2031 C   0  0  0  0  0  0  0  0  0  0  0  0
   20.2672  -17.7443  -16.9736 C   0  0  0  0  0  0  0  0  0  0  0  0
   20.5270  -16.4824  -16.4889 C   0  0  0  0  0  0  0  0  0  0  0  0
   20.6809  -15.6344  -17.5368 N   0  0  0  0  0  0  0  0  0  0  0  0
   20.5297  -16.3023  -18.6965 C   0  0  0  0  0  0  0  0  0  0  0  0
   20.5948  -15.8770  -20.0143 C   0  0  0  0  0  0  0  0  0  0  0  0
   20.3925  -16.8133  -21.0038 C   0  0  0  0  0  0  0  0  0  0  0  0
   20.1351  -18.1245  -20.6814 C   0  0  0  0  0  0  0  0  0  0  0  0
   20.0753  -18.5242  -19.3545 C   0  0  0  0  0  0  0  0  0  0  0  0
   20.2723  -17.6145  -18.3552 C   0  0  0  0  0  0  0  0  0  0  0  0
   17.6657  -18.2976  -15.9258 C   0  0  0  0  0  0  0  0  0  0  0  0
   16.8556  -18.9836  -16.5910 O   0  0  0  0  0  0  0  0  0  0  0  0
   17.3410  -16.9253  -15.8641 O   0  0  0  0  0  0  0  0  0  0  0  0
  2  1  1  0
  3  2  2  0
  4  2  1  0
  5  6  1  0
  5  4  1  0
  6  7  1  6
  8  9  2  0
  8  6  1  0
 10 11  1  0
 11 12  2  0
 12 13  1  0
 14 13  2  0
 14 15  1  0
 16 15  1  1
 16 17  1  0
 17  8  1  0
 18 19  2  0
 18 16  1  0
 20 14  1  0
 21 11  1  0
 21 20  2  0
 22 18  1  0
 23 24  1  6
 23 22  1  0
 25 24  1  0
 25 33  1  0
 26 27  1  0
 26 25  2  0
 27 28  1  0
 28 29  2  0
 28 33  1  0
 29 30  1  0
 30 31  2  0
 32 31  1  0
 33 32  2  0
 34 23  1  0
 35 34  2  0
 36 34  1  0
M  END
$$$$
