QYW.pdb
     RDKit          3D

 36 38  0  0  1  0  0  0  0  0999 V2000
   32.5427  -22.7747  -19.2284 N   0  0  0  0  0  0  0  0  0  0  0  0
   31.1672  -23.1919  -19.2162 C   0  0  0  0  0  0  0  0  0  0  0  0
   30.5501  -23.3227  -20.2993 O   0  0  0  0  0  0  0  0  0  0  0  0
   30.5350  -23.4542  -17.9377 C   0  0  0  0  0  0  0  0  0  0  0  0
   30.0216  -22.2439  -17.2642 C   0  0  0  0  0  0  0  0  0  0  0  0
   29.0039  -21.4287  -17.9781 C   0  0  2  0  0  0  0  0  0  0  0  0
   29.5219  -20.4674  -18.9069 N   0  0  0  0  0  0  0  0  0  0  0  0
   28.1125  -20.7301  -17.0140 C   0  0  0  0  0  0  0  0  0  0  0  0
   28.6262  -19.8389  -16.2782 O   0  0  0  0  0  0  0  0  0  0  0  0
   20.6582  -17.8059  -13.1787 O   0  0  0  0  0  0  0  0  0  0  0  0
   21.6576  -18.2682  -14.0545 C   0  0  0  0  0  0  0  0  0  0  0  0
   21.6267  -19.5569  -14.5395 C   0  0  0  0  0  0  0  0  0  0  0  0
   22.6032  -20.0161  -15.3979 C   0  0  0  0  0  0  0  0  0  0  0  0
   23.6548  -19.2001  -15.8071 C   0  0  0  0  0  0  0  0  0  0  0  0
   24.7139  -19.7071  -16.6725 C   0  0  0  0  0  0  0  0  0  0  0  0
   25.8817  -20.2393  -15.9301 C   0  0  2  0  0  0  0  0  0  0  0  0
   26.7545  -20.9924  -16.8704 N   0  0  0  0  0  0  0  0  0  0  0  0
   25.5187  -21.1953  -14.8933 C   0  0  0  0  0  0  0  0  0  0  0  0
   25.1081  -22.3543  -15.2479 O   0  0  0  0  0  0  0  0  0  0  0  0
   23.6786  -17.9166  -15.3194 C   0  0  0  0  0  0  0  0  0  0  0  0
   22.6891  -17.4480  -14.4482 C   0  0  0  0  0  0  0  0  0  0  0  0
   25.5703  -21.0048  -13.4883 N   0  0  0  0  0  0  0  0  0  0  0  0
   25.0462  -21.9794  -12.5516 C   0  0  1  0  0  0  0  0  0  0  0  0
   26.1180  -22.2536  -11.5036 C   0  0  0  0  0  0  0  0  0  0  0  0
   26.1307  -21.2092  -10.4713 C   0  0  0  0  0  0  0  0  0  0  0  0
   25.0602  -20.4951   -9.9823 C   0  0  0  0  0  0  0  0  0  0  0  0
   25.5068  -19.6289   -9.0383 N   0  0  0  0  0  0  0  0  0  0  0  0
   26.8399  -19.7527   -8.8925 C   0  0  0  0  0  0  0  0  0  0  0  0
   27.7363  -19.0954   -8.0643 C   0  0  0  0  0  0  0  0  0  0  0  0
   29.0651  -19.4480   -8.1450 C   0  0  0  0  0  0  0  0  0  0  0  0
   29.4762  -20.4224   -9.0231 C   0  0  0  0  0  0  0  0  0  0  0  0
   28.5587  -21.0650   -9.8410 C   0  0  0  0  0  0  0  0  0  0  0  0
   27.2355  -20.7331   -9.7797 C   0  0  0  0  0  0  0  0  0  0  0  0
   23.7624  -21.6350  -11.9570 C   0  0  0  0  0  0  0  0  0  0  0  0
   23.3451  -20.4708  -11.7580 O   0  0  0  0  0  0  0  0  0  0  0  0
   22.8646  -22.6447  -11.5482 O   0  0  0  0  0  0  0  0  0  0  0  0
  2  1  1  0
  3  2  2  0
  4  2  1  0
  5  6  1  0
  5  4  1  0
  6  7  1  1
  8  9  2  0
  8  6  1  0
 10 11  1  0
 11 12  2  0
 12 13  1  0
 14 13  2  0
 14 15  1  0
 16 15  1  6
 16 17  1  0
 17  8  1  0
 18 19  2  0
 18 16  1  0
 20 14  1  0
 21 11  1  0
 21 20  2  0
 22 18  1  0
 23 24  1  1
 23 22  1  0
 25 24  1  0
 25 33  1  0
 26 27  1  0
 26 25  2  0
 27 28  1  0
 28 29  2  0
 28 33  1  0
 29 30  1  0
 30 31  2  0
 32 31  1  0
 33 32  2  0
 34 23  1  0
 35 34  2  0
 36 34  1  0
M  END
$$$$
