QYW.pdb
     RDKit          3D

 36 38  0  0  1  0  0  0  0  0999 V2000
   29.2111  -30.5975  -17.1804 N   0  0  0  0  0  0  0  0  0  0  0  0
   29.6088  -31.7032  -16.3526 C   0  0  0  0  0  0  0  0  0  0  0  0
   30.6651  -31.6264  -15.6822 O   0  0  0  0  0  0  0  0  0  0  0  0
   28.7631  -32.8808  -16.3176 C   0  0  0  0  0  0  0  0  0  0  0  0
   27.5132  -32.7434  -17.0929 C   0  0  0  0  0  0  0  0  0  0  0  0
   26.3311  -32.1558  -16.4094 C   0  0  2  0  0  0  0  0  0  0  0  0
   25.7889  -32.9329  -15.3335 N   0  0  0  0  0  0  0  0  0  0  0  0
   25.2456  -31.8647  -17.3835 C   0  0  0  0  0  0  0  0  0  0  0  0
   25.4657  -32.1205  -18.6024 O   0  0  0  0  0  0  0  0  0  0  0  0
   18.0648  -32.0798  -22.0822 O   0  0  0  0  0  0  0  0  0  0  0  0
   19.1609  -32.1906  -21.2070 C   0  0  0  0  0  0  0  0  0  0  0  0
   18.9666  -32.3909  -19.8583 C   0  0  0  0  0  0  0  0  0  0  0  0
   20.0365  -32.5002  -18.9953 C   0  0  0  0  0  0  0  0  0  0  0  0
   21.3499  -32.4128  -19.4498 C   0  0  0  0  0  0  0  0  0  0  0  0
   22.4765  -32.4756  -18.5254 C   0  0  0  0  0  0  0  0  0  0  0  0
   22.9078  -31.1479  -18.0261 C   0  0  2  0  0  0  0  0  0  0  0  0
   24.0077  -31.3317  -17.0415 N   0  0  0  0  0  0  0  0  0  0  0  0
   21.8619  -30.4355  -17.3055 C   0  0  0  0  0  0  0  0  0  0  0  0
   21.4956  -30.8805  -16.1629 O   0  0  0  0  0  0  0  0  0  0  0  0
   21.5354  -32.2133  -20.7958 C   0  0  0  0  0  0  0  0  0  0  0  0
   20.4517  -32.1020  -21.6737 C   0  0  0  0  0  0  0  0  0  0  0  0
   21.1757  -29.2638  -17.7170 N   0  0  0  0  0  0  0  0  0  0  0  0
   20.1704  -28.6215  -16.8931 C   0  0  1  0  0  0  0  0  0  0  0  0
   20.4656  -27.1268  -16.8642 C   0  0  0  0  0  0  0  0  0  0  0  0
   20.1743  -26.5028  -18.1613 C   0  0  0  0  0  0  0  0  0  0  0  0
   18.9686  -26.0106  -18.6074 C   0  0  0  0  0  0  0  0  0  0  0  0
   19.1338  -25.5196  -19.8614 N   0  0  0  0  0  0  0  0  0  0  0  0
   20.4130  -25.6748  -20.2527 C   0  0  0  0  0  0  0  0  0  0  0  0
   21.0583  -25.3362  -21.4320 C   0  0  0  0  0  0  0  0  0  0  0  0
   22.3999  -25.6280  -21.5385 C   0  0  0  0  0  0  0  0  0  0  0  0
   23.0662  -26.2358  -20.5011 C   0  0  0  0  0  0  0  0  0  0  0  0
   22.3971  -26.5643  -19.3314 C   0  0  0  0  0  0  0  0  0  0  0  0
   21.0665  -26.2852  -19.2015 C   0  0  0  0  0  0  0  0  0  0  0  0
   18.7924  -28.9090  -17.2652 C   0  0  0  0  0  0  0  0  0  0  0  0
   17.7849  -28.6560  -16.5649 O   0  0  0  0  0  0  0  0  0  0  0  0
   18.4934  -29.5214  -18.5013 O   0  0  0  0  0  0  0  0  0  0  0  0
  2  1  1  0
  3  2  2  0
  4  2  1  0
  5  6  1  0
  5  4  1  0
  6  7  1  1
  8  9  2  0
  8  6  1  0
 10 11  1  0
 11 12  2  0
 12 13  1  0
 14 13  2  0
 14 15  1  0
 16 15  1  1
 16 17  1  0
 17  8  1  0
 18 19  2  0
 18 16  1  0
 20 14  1  0
 21 11  1  0
 21 20  2  0
 22 18  1  0
 23 24  1  6
 23 22  1  0
 25 24  1  0
 25 33  1  0
 26 27  1  0
 26 25  2  0
 27 28  1  0
 28 29  2  0
 28 33  1  0
 29 30  1  0
 30 31  2  0
 32 31  1  0
 33 32  2  0
 34 23  1  0
 35 34  2  0
 36 34  1  0
M  END
$$$$
