QYW.pdb
     RDKit          3D

 36 38  0  0  1  0  0  0  0  0999 V2000
   28.3594  -27.7403  -22.0104 N   0  0  0  0  0  0  0  0  0  0  0  0
   29.4627  -28.2128  -22.8012 C   0  0  0  0  0  0  0  0  0  0  0  0
   29.7374  -27.6437  -23.8836 O   0  0  0  0  0  0  0  0  0  0  0  0
   30.2312  -29.3413  -22.3123 C   0  0  0  0  0  0  0  0  0  0  0  0
   29.7787  -29.8512  -21.0019 C   0  0  0  0  0  0  0  0  0  0  0  0
   30.3690  -29.2474  -19.7784 C   0  0  2  0  0  0  0  0  0  0  0  0
   31.7807  -29.4356  -19.6150 N   0  0  0  0  0  0  0  0  0  0  0  0
   29.6764  -29.7388  -18.5574 C   0  0  0  0  0  0  0  0  0  0  0  0
   30.2735  -30.6002  -17.8496 O   0  0  0  0  0  0  0  0  0  0  0  0
   27.3437  -23.2747  -17.0411 O   0  0  0  0  0  0  0  0  0  0  0  0
   27.5730  -24.6315  -16.7474 C   0  0  0  0  0  0  0  0  0  0  0  0
   26.5418  -25.4455  -16.3337 C   0  0  0  0  0  0  0  0  0  0  0  0
   26.7599  -26.7759  -16.0441 C   0  0  0  0  0  0  0  0  0  0  0  0
   28.0247  -27.3475  -16.1574 C   0  0  0  0  0  0  0  0  0  0  0  0
   28.2602  -28.7416  -15.7986 C   0  0  0  0  0  0  0  0  0  0  0  0
   27.8224  -29.7031  -16.8387 C   0  0  2  0  0  0  0  0  0  0  0  0
   28.4187  -29.3129  -18.1446 N   0  0  0  0  0  0  0  0  0  0  0  0
   26.3827  -29.6999  -17.0574 C   0  0  0  0  0  0  0  0  0  0  0  0
   25.7211  -28.6475  -16.7530 O   0  0  0  0  0  0  0  0  0  0  0  0
   29.0474  -26.5295  -16.5706 C   0  0  0  0  0  0  0  0  0  0  0  0
   28.8291  -25.1793  -16.8651 C   0  0  0  0  0  0  0  0  0  0  0  0
   25.5891  -30.7479  -17.5912 N   0  0  0  0  0  0  0  0  0  0  0  0
   24.1861  -30.5744  -17.9129 C   0  0  1  0  0  0  0  0  0  0  0  0
   24.0073  -29.1886  -18.5212 C   0  0  0  0  0  0  0  0  0  0  0  0
   22.6059  -28.9464  -18.8874 C   0  0  0  0  0  0  0  0  0  0  0  0
   22.0532  -28.9431  -20.1482 C   0  0  0  0  0  0  0  0  0  0  0  0
   20.7270  -28.6766  -20.0435 N   0  0  0  0  0  0  0  0  0  0  0  0
   20.3917  -28.5045  -18.7506 C   0  0  0  0  0  0  0  0  0  0  0  0
   19.1759  -28.2183  -18.1492 C   0  0  0  0  0  0  0  0  0  0  0  0
   19.1483  -28.0995  -16.7775 C   0  0  0  0  0  0  0  0  0  0  0  0
   20.2967  -28.2619  -16.0399 C   0  0  0  0  0  0  0  0  0  0  0  0
   21.5007  -28.5479  -16.6663 C   0  0  0  0  0  0  0  0  0  0  0  0
   21.5541  -28.6706  -18.0254 C   0  0  0  0  0  0  0  0  0  0  0  0
   23.6089  -31.6238  -18.7410 C   0  0  0  0  0  0  0  0  0  0  0  0
   24.2263  -32.2848  -19.6077 O   0  0  0  0  0  0  0  0  0  0  0  0
   22.2487  -31.9777  -18.6100 O   0  0  0  0  0  0  0  0  0  0  0  0
  2  1  1  0
  3  2  2  0
  4  2  1  0
  5  6  1  0
  5  4  1  0
  6  7  1  1
  8  9  2  0
  8  6  1  0
 10 11  1  0
 11 12  2  0
 12 13  1  0
 14 13  2  0
 14 15  1  0
 16 15  1  1
 16 17  1  0
 17  8  1  0
 18 19  2  0
 18 16  1  0
 20 14  1  0
 21 11  1  0
 21 20  2  0
 22 18  1  0
 23 24  1  6
 23 22  1  0
 25 24  1  0
 25 33  1  0
 26 27  1  0
 26 25  2  0
 27 28  1  0
 28 29  2  0
 28 33  1  0
 29 30  1  0
 30 31  2  0
 32 31  1  0
 33 32  2  0
 34 23  1  0
 35 34  2  0
 36 34  1  0
M  END
$$$$
