GVE.pdb
     RDKit          3D

 21 20  0  0  1  0  0  0  0  0999 V2000
    5.1082  -18.9489   19.6577 N   0  0  0  0  0  0  0  0  0  0  0  0
    4.7371  -17.6913   20.2744 C   0  0  0  0  0  0  0  0  0  0  0  0
    5.9723  -16.9652   20.6680 C   0  0  0  0  0  0  0  0  0  0  0  0
    7.0687  -17.5995   20.8584 O   0  0  0  0  0  0  0  0  0  0  0  0
    8.5045  -12.7740   21.5608 C   0  0  0  0  0  0  0  0  0  0  0  0
    7.2173  -13.4073   21.0423 C   0  0  1  0  0  0  0  0  0  0  0  0
    7.1226  -13.1356   19.5730 C   0  0  0  0  0  0  0  0  0  0  0  0
    7.0892  -14.8342   21.4065 C   0  0  2  0  0  0  0  0  0  0  0  0
    5.9661  -15.5456   20.8453 N   0  0  0  0  0  0  0  0  0  0  0  0
    7.3492  -15.1367   22.8379 C   0  0  0  0  0  0  0  0  0  0  0  0
    6.4114  -14.9057   23.6439 O   0  0  0  0  0  0  0  0  0  0  0  0
    8.5439  -15.6487   23.3395 N   0  0  0  0  0  0  0  0  0  0  0  0
    8.6841  -16.0193   24.7809 C   0  0  1  0  0  0  0  0  0  0  0  0
    8.1755  -17.4139   24.9181 C   0  0  0  0  0  0  0  0  0  0  0  0
    8.2398  -17.8754   26.3421 C   0  0  0  0  0  0  0  0  0  0  0  0
    7.8336  -19.3031   26.4394 C   0  0  0  0  0  0  0  0  0  0  0  0
    7.5817  -19.9221   25.3950 O   0  0  0  0  0  0  0  0  0  0  0  0
   10.1360  -15.9990   25.0804 C   0  0  0  0  0  0  0  0  0  0  0  0
   10.6956  -15.9705   26.3397 O   0  0  0  0  0  0  0  0  0  0  0  0
    7.7537  -19.9068   27.6868 O   0  0  0  0  0  0  0  0  0  0  0  0
   10.9406  -16.0042   24.1174 O   0  0  0  0  0  0  0  0  0  0  0  0
  2  1  1  0
  3  2  1  0
  4  3  2  0
  6  5  1  6
  6  8  1  0
  7  6  1  0
  8  9  1  1
  9  3  1  0
 10  8  1  0
 10 11  2  0
 12 10  1  0
 13 12  1  0
 13 14  1  6
 14 15  1  0
 15 16  1  0
 16 20  1  0
 17 16  2  0
 18 13  1  0
 19 18  1  0
 21 18  2  0
M  END
$$$$
