GVE.pdb
     RDKit          3D

 21 20  0  0  1  0  0  0  0  0999 V2000
    9.9190  -18.1418   17.3329 N   0  0  0  0  0  0  0  0  0  0  0  0
    8.6578  -17.8552   17.9863 C   0  0  0  0  0  0  0  0  0  0  0  0
    8.9307  -17.2275   19.3052 C   0  0  0  0  0  0  0  0  0  0  0  0
   10.1116  -17.2397   19.8011 O   0  0  0  0  0  0  0  0  0  0  0  0
    8.2452  -13.6823   20.4467 C   0  0  0  0  0  0  0  0  0  0  0  0
    7.6891  -14.6070   21.5248 C   0  0  1  0  0  0  0  0  0  0  0  0
    6.2063  -14.4099   21.5889 C   0  0  0  0  0  0  0  0  0  0  0  0
    8.1087  -16.0137   21.3509 C   0  0  2  0  0  0  0  0  0  0  0  0
    7.8842  -16.5985   20.0510 N   0  0  0  0  0  0  0  0  0  0  0  0
    7.7724  -16.9084   22.4887 C   0  0  0  0  0  0  0  0  0  0  0  0
    6.8010  -17.6907   22.3245 O   0  0  0  0  0  0  0  0  0  0  0  0
    8.4487  -16.9369   23.7064 N   0  0  0  0  0  0  0  0  0  0  0  0
    8.1147  -17.9484   24.7552 C   0  0  1  0  0  0  0  0  0  0  0  0
    9.3082  -18.0593   25.6416 C   0  0  0  0  0  0  0  0  0  0  0  0
    9.0871  -19.0735   26.7221 C   0  0  0  0  0  0  0  0  0  0  0  0
   10.2774  -19.1464   27.6112 C   0  0  0  0  0  0  0  0  0  0  0  0
   11.2992  -18.5223   27.2891 O   0  0  0  0  0  0  0  0  0  0  0  0
    6.9820  -17.3897   25.5317 C   0  0  0  0  0  0  0  0  0  0  0  0
    6.0385  -18.1247   26.2170 O   0  0  0  0  0  0  0  0  0  0  0  0
   10.2150  -19.8997   28.7754 O   0  0  0  0  0  0  0  0  0  0  0  0
    6.8520  -16.1424   25.5779 O   0  0  0  0  0  0  0  0  0  0  0  0
  2  1  1  0
  3  2  1  0
  4  3  2  0
  6  5  1  6
  6  8  1  0
  7  6  1  0
  8  9  1  6
  9  3  1  0
 10  8  1  0
 10 11  2  0
 12 10  1  0
 13 12  1  0
 13 14  1  1
 14 15  1  0
 15 16  1  0
 16 20  1  0
 17 16  2  0
 18 13  1  0
 19 18  1  0
 21 18  2  0
M  END
$$$$
