GVE.pdb
     RDKit          3D

 21 20  0  0  1  0  0  0  0  0999 V2000
    7.2873  -16.0565   21.1315 N   0  0  0  0  0  0  0  0  0  0  0  0
    6.5408  -15.7638   22.3385 C   0  0  0  0  0  0  0  0  0  0  0  0
    7.4416  -15.0921   23.3106 C   0  0  0  0  0  0  0  0  0  0  0  0
    8.6975  -14.9970   23.0777 O   0  0  0  0  0  0  0  0  0  0  0  0
    7.0259  -11.5684   24.9723 C   0  0  0  0  0  0  0  0  0  0  0  0
    7.3029  -12.6114   26.0503 C   0  0  1  0  0  0  0  0  0  0  0  0
    6.0845  -12.7256   26.9129 C   0  0  0  0  0  0  0  0  0  0  0  0
    7.7809  -13.8972   25.4995 C   0  0  2  0  0  0  0  0  0  0  0  0
    6.9299  -14.5393   24.5270 N   0  0  0  0  0  0  0  0  0  0  0  0
    8.3683  -14.8234   26.5021 C   0  0  0  0  0  0  0  0  0  0  0  0
    7.5770  -15.6238   27.0641 O   0  0  0  0  0  0  0  0  0  0  0  0
    9.7149  -14.8626   26.8573 N   0  0  0  0  0  0  0  0  0  0  0  0
   10.2272  -15.8597   27.8463 C   0  0  1  0  0  0  0  0  0  0  0  0
   11.5722  -16.2887   27.3676 C   0  0  0  0  0  0  0  0  0  0  0  0
   11.4622  -17.1530   26.1487 C   0  0  0  0  0  0  0  0  0  0  0  0
   12.8140  -17.5742   25.6925 C   0  0  0  0  0  0  0  0  0  0  0  0
   13.0464  -18.7849   25.5602 O   0  0  0  0  0  0  0  0  0  0  0  0
   10.3758  -15.1373   29.1323 C   0  0  0  0  0  0  0  0  0  0  0  0
   10.1516  -13.7913   29.3276 O   0  0  0  0  0  0  0  0  0  0  0  0
   13.7743  -16.6093   25.4208 O   0  0  0  0  0  0  0  0  0  0  0  0
   10.7398  -15.7894   30.1408 O   0  0  0  0  0  0  0  0  0  0  0  0
  2  1  1  0
  3  2  1  0
  4  3  2  0
  6  5  1  6
  6  8  1  0
  7  6  1  0
  8  9  1  1
  9  3  1  0
 10  8  1  0
 10 11  2  0
 12 10  1  0
 13 12  1  0
 13 14  1  6
 14 15  1  0
 15 16  1  0
 16 20  1  0
 17 16  2  0
 18 13  1  0
 19 18  1  0
 21 18  2  0
M  END
$$$$
