GVE.pdb
     RDKit          3D

 21 20  0  0  1  0  0  0  0  0999 V2000
    4.0299  -18.8506   21.0724 N   0  0  0  0  0  0  0  0  0  0  0  0
    4.0831  -17.4307   21.3565 C   0  0  0  0  0  0  0  0  0  0  0  0
    5.5051  -17.0028   21.4067 C   0  0  0  0  0  0  0  0  0  0  0  0
    6.4402  -17.8645   21.5606 O   0  0  0  0  0  0  0  0  0  0  0  0
    6.8193  -12.6975   21.3135 C   0  0  0  0  0  0  0  0  0  0  0  0
    7.5608  -13.8958   20.7296 C   0  0  1  0  0  0  0  0  0  0  0  0
    9.0231  -13.5749   20.7093 C   0  0  0  0  0  0  0  0  0  0  0  0
    7.2264  -15.1667   21.4065 C   0  0  2  0  0  0  0  0  0  0  0  0
    5.8626  -15.6226   21.2869 N   0  0  0  0  0  0  0  0  0  0  0  0
    7.8025  -15.3167   22.7680 C   0  0  0  0  0  0  0  0  0  0  0  0
    7.2350  -14.6831   23.6949 O   0  0  0  0  0  0  0  0  0  0  0  0
    8.9128  -16.0978   23.0814 N   0  0  0  0  0  0  0  0  0  0  0  0
    9.5400  -16.0452   24.4374 C   0  0  1  0  0  0  0  0  0  0  0  0
    9.4081  -17.4086   25.0257 C   0  0  0  0  0  0  0  0  0  0  0  0
    7.9779  -17.7259   25.3402 C   0  0  0  0  0  0  0  0  0  0  0  0
    7.8711  -19.0847   25.9360 C   0  0  0  0  0  0  0  0  0  0  0  0
    8.0550  -19.2155   27.1551 O   0  0  0  0  0  0  0  0  0  0  0  0
   10.9759  -15.7438   24.2243 C   0  0  0  0  0  0  0  0  0  0  0  0
   11.6201  -15.7252   23.0059 O   0  0  0  0  0  0  0  0  0  0  0  0
    7.5635  -20.1654   25.1209 O   0  0  0  0  0  0  0  0  0  0  0  0
   11.6831  -15.4844   25.2280 O   0  0  0  0  0  0  0  0  0  0  0  0
  2  1  1  0
  3  2  1  0
  4  3  2  0
  6  5  1  1
  6  8  1  0
  7  6  1  0
  8  9  1  1
  9  3  1  0
 10  8  1  0
 10 11  2  0
 12 10  1  0
 13 12  1  0
 13 14  1  6
 14 15  1  0
 15 16  1  0
 16 20  1  0
 17 16  2  0
 18 13  1  0
 19 18  1  0
 21 18  2  0
M  END
$$$$
