GVE.pdb
     RDKit          3D

 21 20  0  0  1  0  0  0  0  0999 V2000
    7.6090  -15.6673   21.3242 N   0  0  0  0  0  0  0  0  0  0  0  0
    6.7391  -15.2294   22.3971 C   0  0  0  0  0  0  0  0  0  0  0  0
    7.5696  -14.6468   23.4828 C   0  0  0  0  0  0  0  0  0  0  0  0
    8.8482  -14.6886   23.4193 O   0  0  0  0  0  0  0  0  0  0  0  0
    6.9893  -11.0226   25.4653 C   0  0  0  0  0  0  0  0  0  0  0  0
    7.1169  -12.2549   26.3552 C   0  0  1  0  0  0  0  0  0  0  0  0
    5.7715  -12.5466   26.9436 C   0  0  0  0  0  0  0  0  0  0  0  0
    7.7405  -13.4033   25.6641 C   0  0  2  0  0  0  0  0  0  0  0  0
    6.9632  -14.0295   24.6221 N   0  0  0  0  0  0  0  0  0  0  0  0
    8.4451  -14.3590   26.5576 C   0  0  0  0  0  0  0  0  0  0  0  0
    9.2519  -13.8667   27.3879 O   0  0  0  0  0  0  0  0  0  0  0  0
    8.2765  -15.7417   26.5361 N   0  0  0  0  0  0  0  0  0  0  0  0
    9.0750  -16.6342   27.4309 C   0  0  1  0  0  0  0  0  0  0  0  0
    9.0988  -17.9788   26.7875 C   0  0  0  0  0  0  0  0  0  0  0  0
    9.9664  -18.9299   27.5541 C   0  0  0  0  0  0  0  0  0  0  0  0
    9.1269  -19.9074   28.2974 C   0  0  0  0  0  0  0  0  0  0  0  0
    7.9024  -19.7203   28.3504 O   0  0  0  0  0  0  0  0  0  0  0  0
   10.4507  -16.0819   27.4555 C   0  0  0  0  0  0  0  0  0  0  0  0
   11.1966  -15.7356   26.3493 O   0  0  0  0  0  0  0  0  0  0  0  0
    9.7282  -21.0018   28.9036 O   0  0  0  0  0  0  0  0  0  0  0  0
   11.0018  -15.9112   28.5699 O   0  0  0  0  0  0  0  0  0  0  0  0
  2  1  1  0
  3  2  1  0
  4  3  2  0
  6  5  1  6
  6  8  1  0
  7  6  1  0
  8  9  1  1
  9  3  1  0
 10  8  1  0
 10 11  2  0
 12 10  1  0
 13 12  1  0
 13 14  1  6
 14 15  1  0
 15 16  1  0
 16 20  1  0
 17 16  2  0
 18 13  1  0
 19 18  1  0
 21 18  2  0
M  END
$$$$
