GVE.pdb
     RDKit          3D

 21 20  0  0  1  0  0  0  0  0999 V2000
    8.0619  -17.8146   16.8127 N   0  0  0  0  0  0  0  0  0  0  0  0
    7.3309  -17.3000   17.9531 C   0  0  0  0  0  0  0  0  0  0  0  0
    8.2304  -16.4214   18.7449 C   0  0  0  0  0  0  0  0  0  0  0  0
    9.4990  -16.4627   18.5729 O   0  0  0  0  0  0  0  0  0  0  0  0
    7.7086  -12.5848   19.9032 C   0  0  0  0  0  0  0  0  0  0  0  0
    8.1025  -13.4733   21.0788 C   0  0  1  0  0  0  0  0  0  0  0  0
    6.9733  -13.4741   22.0619 C   0  0  0  0  0  0  0  0  0  0  0  0
    8.5458  -14.8201   20.6607 C   0  0  2  0  0  0  0  0  0  0  0  0
    7.7030  -15.5131   19.7164 N   0  0  0  0  0  0  0  0  0  0  0  0
    9.0599  -15.6755   21.7617 C   0  0  0  0  0  0  0  0  0  0  0  0
    8.2821  -16.5625   22.1986 O   0  0  0  0  0  0  0  0  0  0  0  0
   10.3245  -15.5612   22.3349 N   0  0  0  0  0  0  0  0  0  0  0  0
   10.8131  -16.5545   23.3396 C   0  0  1  0  0  0  0  0  0  0  0  0
   12.2986  -16.4344   23.3763 C   0  0  0  0  0  0  0  0  0  0  0  0
   12.9491  -17.7830   23.4323 C   0  0  0  0  0  0  0  0  0  0  0  0
   14.4283  -17.6445   23.3582 C   0  0  0  0  0  0  0  0  0  0  0  0
   14.9296  -16.5230   23.5266 O   0  0  0  0  0  0  0  0  0  0  0  0
   10.2583  -16.1351   24.6488 C   0  0  0  0  0  0  0  0  0  0  0  0
   10.1867  -16.9206   25.7792 O   0  0  0  0  0  0  0  0  0  0  0  0
   15.2076  -18.7663   23.1114 O   0  0  0  0  0  0  0  0  0  0  0  0
    9.8066  -14.9691   24.7559 O   0  0  0  0  0  0  0  0  0  0  0  0
  2  1  1  0
  3  2  1  0
  4  3  2  0
  6  5  1  6
  6  8  1  0
  7  6  1  0
  8  9  1  1
  9  3  1  0
 10  8  1  0
 10 11  2  0
 12 10  1  0
 13 12  1  0
 13 14  1  1
 14 15  1  0
 15 16  1  0
 16 20  1  0
 17 16  2  0
 18 13  1  0
 19 18  1  0
 21 18  2  0
M  END
$$$$
