GVE.pdb
     RDKit          3D

 21 20  0  0  1  0  0  0  0  0999 V2000
    7.2875  -14.0387   19.9242 N   0  0  0  0  0  0  0  0  0  0  0  0
    6.4904  -14.1641   21.1277 C   0  0  0  0  0  0  0  0  0  0  0  0
    7.3890  -14.0992   22.3092 C   0  0  0  0  0  0  0  0  0  0  0  0
    8.6611  -14.0841   22.1607 O   0  0  0  0  0  0  0  0  0  0  0  0
    6.9887  -11.6840   25.4496 C   0  0  0  0  0  0  0  0  0  0  0  0
    7.2527  -13.1161   25.9036 C   0  0  1  0  0  0  0  0  0  0  0  0
    6.0378  -13.6072   26.6279 C   0  0  0  0  0  0  0  0  0  0  0  0
    7.7025  -13.9961   24.8042 C   0  0  2  0  0  0  0  0  0  0  0  0
    6.8568  -14.0543   23.6365 N   0  0  0  0  0  0  0  0  0  0  0  0
    8.2327  -15.3142   25.2397 C   0  0  0  0  0  0  0  0  0  0  0  0
    7.4016  -16.2536   25.3369 O   0  0  0  0  0  0  0  0  0  0  0  0
    9.5669  -15.5745   25.5450 N   0  0  0  0  0  0  0  0  0  0  0  0
   10.0163  -16.9402   25.9543 C   0  0  1  0  0  0  0  0  0  0  0  0
   11.4011  -17.1127   25.4299 C   0  0  0  0  0  0  0  0  0  0  0  0
   11.4110  -17.1545   23.9322 C   0  0  0  0  0  0  0  0  0  0  0  0
   12.7993  -17.3408   23.4316 C   0  0  0  0  0  0  0  0  0  0  0  0
   13.2266  -16.5671   22.5621 O   0  0  0  0  0  0  0  0  0  0  0  0
   10.0532  -16.9433   27.4365 C   0  0  0  0  0  0  0  0  0  0  0  0
   10.1583  -18.0622   28.2345 O   0  0  0  0  0  0  0  0  0  0  0  0
   13.5806  -18.3641   23.9504 O   0  0  0  0  0  0  0  0  0  0  0  0
    9.9799  -15.8424   28.0342 O   0  0  0  0  0  0  0  0  0  0  0  0
  2  1  1  0
  3  2  1  0
  4  3  2  0
  6  5  1  6
  6  8  1  0
  7  6  1  0
  8  9  1  6
  9  3  1  0
 10  8  1  0
 10 11  2  0
 12 10  1  0
 13 12  1  0
 13 14  1  6
 14 15  1  0
 15 16  1  0
 16 20  1  0
 17 16  2  0
 18 13  1  0
 19 18  1  0
 21 18  2  0
M  END
$$$$
