KVW.pdb
     RDKit          3D

 31 32  0  0  1  0  0  0  0  0999 V2000
   23.9854  -19.2568  -16.0390 N   0  0  0  0  0  0  0  0  0  0  0  0
   24.1149  -18.7242  -14.7305 C   0  0  1  0  0  0  0  0  0  0  0  0
   22.9480  -18.2358  -14.0235 C   0  0  0  0  0  0  0  0  0  0  0  0
   22.0429  -17.2630  -14.5781 C   0  0  0  0  0  0  0  0  0  0  0  0
   21.2494  -17.1898  -15.7631 C   0  0  0  0  0  0  0  0  0  0  0  0
   21.4380  -16.3031  -16.9187 C   0  0  0  0  0  0  0  0  0  0  0  0
   20.4161  -15.4161  -17.3066 N   0  0  0  0  0  0  0  0  0  0  0  0
   24.9128  -19.7167  -13.8815 C   0  0  0  0  0  0  0  0  0  0  0  0
   24.4082  -20.7934  -13.5495 O   0  0  0  0  0  0  0  0  0  0  0  0
   29.2848  -21.2762  -12.1048 C   0  0  0  0  0  0  0  0  0  0  0  0
   28.4904  -20.3193  -12.9720 C   0  0  1  0  0  0  0  0  0  0  0  0
   28.7916  -20.4812  -14.4421 C   0  0  0  0  0  0  0  0  0  0  0  0
   27.0256  -20.3267  -12.6467 C   0  0  2  0  0  0  0  0  0  0  0  0
   26.2251  -19.4556  -13.4517 N   0  0  0  0  0  0  0  0  0  0  0  0
   26.8887  -20.0643  -11.1963 C   0  0  0  0  0  0  0  0  0  0  0  0
   27.6251  -19.2712  -10.5601 O   0  0  0  0  0  0  0  0  0  0  0  0
   25.8678  -20.7448  -10.4801 N   0  0  0  0  0  0  0  0  0  0  0  0
   25.8371  -20.8555   -9.0603 C   0  0  1  0  0  0  0  0  0  0  0  0
   25.6007  -19.5080   -8.4382 C   0  0  0  0  0  0  0  0  0  0  0  0
   26.6778  -18.9940   -7.5918 C   0  0  0  0  0  0  0  0  0  0  0  0
   27.2660  -17.7249   -7.7157 C   0  0  0  0  0  0  0  0  0  0  0  0
   28.2109  -17.6777   -6.7727 N   0  0  0  0  0  0  0  0  0  0  0  0
   28.2553  -18.8254   -6.0683 C   0  0  0  0  0  0  0  0  0  0  0  0
   29.0549  -19.2201   -5.0070 C   0  0  0  0  0  0  0  0  0  0  0  0
   28.8677  -20.4706   -4.4661 C   0  0  0  0  0  0  0  0  0  0  0  0
   27.9159  -21.3474   -4.9379 C   0  0  0  0  0  0  0  0  0  0  0  0
   27.1372  -20.9301   -5.9914 C   0  0  0  0  0  0  0  0  0  0  0  0
   27.2830  -19.6907   -6.5696 C   0  0  0  0  0  0  0  0  0  0  0  0
   24.8993  -21.8665   -8.5520 C   0  0  0  0  0  0  0  0  0  0  0  0
   24.9502  -22.4472   -7.3164 O   0  0  0  0  0  0  0  0  0  0  0  0
   23.9676  -22.2281   -9.3247 O   0  0  0  0  0  0  0  0  0  0  0  0
  2  1  1  6
  2  3  1  0
  4  5  1  0
  4  3  1  0
  6  5  1  0
  7  6  1  0
  8  2  1  0
  8  9  2  0
 11 10  1  1
 11 12  1  0
 13 14  1  6
 13 11  1  0
 14  8  1  0
 15 13  1  0
 16 15  2  0
 17 15  1  0
 18 17  1  0
 19 20  1  0
 18 19  1  1
 20 28  1  0
 21 22  1  0
 21 20  2  0
 22 23  1  0
 23 28  2  0
 23 24  1  0
 24 25  2  0
 25 26  1  0
 27 26  2  0
 28 27  1  0
 29 18  1  0
 29 30  1  0
 31 29  2  0
M  END
$$$$
