KVW.pdb
     RDKit          3D

 31 32  0  0  1  0  0  0  0  0999 V2000
   27.1145  -24.0625  -17.3731 N   0  0  0  0  0  0  0  0  0  0  0  0
   26.1688  -23.5084  -16.4725 C   0  0  1  0  0  0  0  0  0  0  0  0
   25.1649  -24.3540  -15.8583 C   0  0  0  0  0  0  0  0  0  0  0  0
   24.1163  -24.9988  -16.6051 C   0  0  0  0  0  0  0  0  0  0  0  0
   23.1027  -24.5508  -17.5057 C   0  0  0  0  0  0  0  0  0  0  0  0
   21.6504  -24.5307  -17.2878 C   0  0  0  0  0  0  0  0  0  0  0  0
   21.1157  -23.9480  -16.1232 N   0  0  0  0  0  0  0  0  0  0  0  0
   26.9226  -22.6808  -15.4289 C   0  0  0  0  0  0  0  0  0  0  0  0
   27.7847  -23.2116  -14.7223 O   0  0  0  0  0  0  0  0  0  0  0  0
   27.3881  -18.3020  -13.0209 C   0  0  0  0  0  0  0  0  0  0  0  0
   27.1768  -19.0745  -14.3084 C   0  0  1  0  0  0  0  0  0  0  0  0
   28.1663  -18.6945  -15.3828 C   0  0  0  0  0  0  0  0  0  0  0  0
   27.0632  -20.5534  -14.0816 C   0  0  2  0  0  0  0  0  0  0  0  0
   26.6755  -21.3114  -15.2317 N   0  0  0  0  0  0  0  0  0  0  0  0
   26.1665  -20.7600  -12.9221 C   0  0  0  0  0  0  0  0  0  0  0  0
   24.9136  -20.7321  -12.9976 O   0  0  0  0  0  0  0  0  0  0  0  0
   26.7514  -21.0048  -11.6508 N   0  0  0  0  0  0  0  0  0  0  0  0
   25.9989  -21.2913  -10.4758 C   0  0  1  0  0  0  0  0  0  0  0  0
   26.9197  -21.6368   -9.3394 C   0  0  0  0  0  0  0  0  0  0  0  0
   26.8587  -20.7555   -8.1732 C   0  0  0  0  0  0  0  0  0  0  0  0
   25.8790  -19.7736   -7.9539 C   0  0  0  0  0  0  0  0  0  0  0  0
   26.2104  -19.1932   -6.7973 N   0  0  0  0  0  0  0  0  0  0  0  0
   27.3261  -19.7418   -6.2780 C   0  0  0  0  0  0  0  0  0  0  0  0
   28.0229  -19.4723   -5.1103 C   0  0  0  0  0  0  0  0  0  0  0  0
   29.1453  -20.2134   -4.8230 C   0  0  0  0  0  0  0  0  0  0  0  0
   29.6049  -21.2139   -5.6507 C   0  0  0  0  0  0  0  0  0  0  0  0
   28.8948  -21.4595   -6.8021 C   0  0  0  0  0  0  0  0  0  0  0  0
   27.7665  -20.7480   -7.1376 C   0  0  0  0  0  0  0  0  0  0  0  0
   25.0363  -20.2451  -10.1032 C   0  0  0  0  0  0  0  0  0  0  0  0
   23.7937  -20.4598   -9.5774 O   0  0  0  0  0  0  0  0  0  0  0  0
   25.3896  -19.0460  -10.2854 O   0  0  0  0  0  0  0  0  0  0  0  0
  2  1  1  1
  2  3  1  0
  4  5  1  0
  4  3  1  0
  6  5  1  0
  7  6  1  0
  8  2  1  0
  8  9  2  0
 11 10  1  1
 11 12  1  0
 13 14  1  6
 13 11  1  0
 14  8  1  0
 15 13  1  0
 16 15  2  0
 17 15  1  0
 18 17  1  0
 19 20  1  0
 18 19  1  1
 20 28  1  0
 21 22  1  0
 21 20  2  0
 22 23  1  0
 23 28  2  0
 23 24  1  0
 24 25  2  0
 25 26  1  0
 27 26  2  0
 28 27  1  0
 29 18  1  0
 29 30  1  0
 31 29  2  0
M  END
$$$$
