KVW.pdb
     RDKit          3D

 31 32  0  0  1  0  0  0  0  0999 V2000
   24.3199  -18.5719  -15.5608 N   0  0  0  0  0  0  0  0  0  0  0  0
   23.6959  -18.6570  -14.2897 C   0  0  1  0  0  0  0  0  0  0  0  0
   22.2606  -18.8323  -14.1925 C   0  0  0  0  0  0  0  0  0  0  0  0
   21.3167  -17.9687  -14.8530 C   0  0  0  0  0  0  0  0  0  0  0  0
   21.0573  -16.5646  -14.8365 C   0  0  0  0  0  0  0  0  0  0  0  0
   20.9792  -15.6506  -15.9834 C   0  0  0  0  0  0  0  0  0  0  0  0
   20.7031  -16.1492  -17.2706 N   0  0  0  0  0  0  0  0  0  0  0  0
   24.4475  -19.6931  -13.4507 C   0  0  0  0  0  0  0  0  0  0  0  0
   23.8383  -20.6400  -12.9444 O   0  0  0  0  0  0  0  0  0  0  0  0
   28.7796  -21.6896  -11.9950 C   0  0  0  0  0  0  0  0  0  0  0  0
   28.0314  -20.6788  -12.8421 C   0  0  1  0  0  0  0  0  0  0  0  0
   28.2224  -20.9062  -14.3218 C   0  0  0  0  0  0  0  0  0  0  0  0
   26.5963  -20.5304  -12.4297 C   0  0  2  0  0  0  0  0  0  0  0  0
   25.8324  -19.6175  -13.2240 N   0  0  0  0  0  0  0  0  0  0  0  0
   26.5780  -20.1989  -10.9871 C   0  0  0  0  0  0  0  0  0  0  0  0
   27.1657  -19.2053  -10.4938 O   0  0  0  0  0  0  0  0  0  0  0  0
   25.8555  -21.0492  -10.1077 N   0  0  0  0  0  0  0  0  0  0  0  0
   26.0009  -21.0289   -8.6909 C   0  0  1  0  0  0  0  0  0  0  0  0
   25.8151  -19.6319   -8.1686 C   0  0  0  0  0  0  0  0  0  0  0  0
   26.8951  -19.1113   -7.3301 C   0  0  0  0  0  0  0  0  0  0  0  0
   27.5475  -17.8831   -7.5245 C   0  0  0  0  0  0  0  0  0  0  0  0
   28.4704  -17.8147   -6.5612 N   0  0  0  0  0  0  0  0  0  0  0  0
   28.4414  -18.9112   -5.7787 C   0  0  0  0  0  0  0  0  0  0  0  0
   29.1948  -19.2680   -4.6711 C   0  0  0  0  0  0  0  0  0  0  0  0
   28.9335  -20.4674   -4.0510 C   0  0  0  0  0  0  0  0  0  0  0  0
   27.9517  -21.3292   -4.4877 C   0  0  0  0  0  0  0  0  0  0  0  0
   27.2202  -20.9504   -5.5885 C   0  0  0  0  0  0  0  0  0  0  0  0
   27.4405  -19.7627   -6.2462 C   0  0  0  0  0  0  0  0  0  0  0  0
   25.1529  -21.9970   -7.9813 C   0  0  0  0  0  0  0  0  0  0  0  0
   25.4090  -22.5220   -6.7462 O   0  0  0  0  0  0  0  0  0  0  0  0
   24.0979  -22.3748   -8.5645 O   0  0  0  0  0  0  0  0  0  0  0  0
  2  1  1  6
  2  3  1  0
  4  5  1  0
  4  3  1  0
  6  5  1  0
  7  6  1  0
  8  2  1  0
  8  9  2  0
 11 10  1  1
 11 12  1  0
 13 14  1  6
 13 11  1  0
 14  8  1  0
 15 13  1  0
 16 15  2  0
 17 15  1  0
 18 17  1  0
 19 20  1  0
 18 19  1  1
 20 28  1  0
 21 22  1  0
 21 20  2  0
 22 23  1  0
 23 28  2  0
 23 24  1  0
 24 25  2  0
 25 26  1  0
 27 26  2  0
 28 27  1  0
 29 18  1  0
 29 30  1  0
 31 29  2  0
M  END
$$$$
