KVW.pdb
     RDKit          3D

 31 32  0  0  1  0  0  0  0  0999 V2000
   22.7696  -17.9385  -19.5825 N   0  0  0  0  0  0  0  0  0  0  0  0
   23.5012  -17.5235  -18.4402 C   0  0  1  0  0  0  0  0  0  0  0  0
   23.1219  -16.3187  -17.7297 C   0  0  0  0  0  0  0  0  0  0  0  0
   22.9875  -15.0370  -18.3716 C   0  0  0  0  0  0  0  0  0  0  0  0
   22.1355  -14.5064  -19.3874 C   0  0  0  0  0  0  0  0  0  0  0  0
   21.1832  -13.3942  -19.2725 C   0  0  0  0  0  0  0  0  0  0  0  0
   20.7241  -12.9811  -18.0075 N   0  0  0  0  0  0  0  0  0  0  0  0
   23.6351  -18.7174  -17.4920 C   0  0  0  0  0  0  0  0  0  0  0  0
   22.6613  -19.1005  -16.8371 O   0  0  0  0  0  0  0  0  0  0  0  0
   27.1526  -21.2390  -17.5506 C   0  0  0  0  0  0  0  0  0  0  0  0
   25.8422  -21.6364  -16.8997 C   0  0  1  0  0  0  0  0  0  0  0  0
   26.0060  -22.7549  -15.8998 C   0  0  0  0  0  0  0  0  0  0  0  0
   25.0786  -20.4568  -16.3733 C   0  0  2  0  0  0  0  0  0  0  0  0
   24.8430  -19.4168  -17.3275 N   0  0  0  0  0  0  0  0  0  0  0  0
   25.7751  -19.9804  -15.1570 C   0  0  0  0  0  0  0  0  0  0  0  0
   26.7599  -19.2021  -15.1788 O   0  0  0  0  0  0  0  0  0  0  0  0
   25.3061  -20.4253  -13.8920 N   0  0  0  0  0  0  0  0  0  0  0  0
   26.0235  -20.2454  -12.6746 C   0  0  1  0  0  0  0  0  0  0  0  0
   25.2036  -19.4466  -11.7006 C   0  0  0  0  0  0  0  0  0  0  0  0
   25.8510  -19.1255  -10.4285 C   0  0  0  0  0  0  0  0  0  0  0  0
   26.7430  -18.0606  -10.2229 C   0  0  0  0  0  0  0  0  0  0  0  0
   27.1094  -18.1464   -8.9413 N   0  0  0  0  0  0  0  0  0  0  0  0
   26.5104  -19.1878   -8.3310 C   0  0  0  0  0  0  0  0  0  0  0  0
   26.5811  -19.6509   -7.0265 C   0  0  0  0  0  0  0  0  0  0  0  0
   25.8364  -20.7519   -6.6734 C   0  0  0  0  0  0  0  0  0  0  0  0
   25.0220  -21.4132   -7.5660 C   0  0  0  0  0  0  0  0  0  0  0  0
   24.9713  -20.9326   -8.8531 C   0  0  0  0  0  0  0  0  0  0  0  0
   25.6958  -19.8362   -9.2591 C   0  0  0  0  0  0  0  0  0  0  0  0
   26.5247  -21.4911  -12.0774 C   0  0  0  0  0  0  0  0  0  0  0  0
   27.7297  -21.6435  -11.4517 O   0  0  0  0  0  0  0  0  0  0  0  0
   25.7765  -22.5065  -12.1497 O   0  0  0  0  0  0  0  0  0  0  0  0
  2  1  1  6
  2  3  1  0
  4  5  1  0
  4  3  1  0
  6  5  1  0
  7  6  1  0
  8  2  1  0
  8  9  2  0
 11 10  1  1
 11 12  1  0
 13 14  1  6
 13 11  1  0
 14  8  1  0
 15 13  1  0
 16 15  2  0
 17 15  1  0
 18 17  1  0
 19 20  1  0
 18 19  1  1
 20 28  1  0
 21 22  1  0
 21 20  2  0
 22 23  1  0
 23 28  2  0
 23 24  1  0
 24 25  2  0
 25 26  1  0
 27 26  2  0
 28 27  1  0
 29 18  1  0
 29 30  1  0
 31 29  2  0
M  END
$$$$
