KVW.pdb
     RDKit          3D

 31 32  0  0  1  0  0  0  0  0999 V2000
   21.4557  -19.1952  -14.8769 N   0  0  0  0  0  0  0  0  0  0  0  0
   21.2257  -19.2360  -13.4776 C   0  0  1  0  0  0  0  0  0  0  0  0
   19.8969  -19.5029  -12.9647 C   0  0  0  0  0  0  0  0  0  0  0  0
   18.7649  -18.6554  -13.2355 C   0  0  0  0  0  0  0  0  0  0  0  0
   18.1323  -18.1722  -14.4211 C   0  0  0  0  0  0  0  0  0  0  0  0
   16.9129  -17.3600  -14.5231 C   0  0  0  0  0  0  0  0  0  0  0  0
   16.7046  -16.2795  -13.6452 N   0  0  0  0  0  0  0  0  0  0  0  0
   22.2696  -20.1579  -12.8430 C   0  0  0  0  0  0  0  0  0  0  0  0
   22.0403  -20.6980  -11.7569 O   0  0  0  0  0  0  0  0  0  0  0  0
   26.4338  -22.8561  -13.3623 C   0  0  0  0  0  0  0  0  0  0  0  0
   25.2895  -22.0615  -13.9607 C   0  0  1  0  0  0  0  0  0  0  0  0
   24.4206  -22.8919  -14.8735 C   0  0  0  0  0  0  0  0  0  0  0  0
   24.5227  -21.2880  -12.9286 C   0  0  2  0  0  0  0  0  0  0  0  0
   23.5071  -20.4267  -13.4525 N   0  0  0  0  0  0  0  0  0  0  0  0
   25.5062  -20.5760  -12.0819 C   0  0  0  0  0  0  0  0  0  0  0  0
   26.1939  -19.6044  -12.4811 O   0  0  0  0  0  0  0  0  0  0  0  0
   25.6849  -21.0121  -10.7418 N   0  0  0  0  0  0  0  0  0  0  0  0
   26.6423  -20.4512   -9.8485 C   0  0  1  0  0  0  0  0  0  0  0  0
   26.0967  -20.4282   -8.4483 C   0  0  0  0  0  0  0  0  0  0  0  0
   26.8980  -19.7074   -7.4590 C   0  0  0  0  0  0  0  0  0  0  0  0
   27.0869  -18.3161   -7.4320 C   0  0  0  0  0  0  0  0  0  0  0  0
   27.8947  -18.0874   -6.3930 N   0  0  0  0  0  0  0  0  0  0  0  0
   28.2238  -19.2351   -5.7686 C   0  0  0  0  0  0  0  0  0  0  0  0
   29.0163  -19.4807   -4.6582 C   0  0  0  0  0  0  0  0  0  0  0  0
   29.1693  -20.7779   -4.2277 C   0  0  0  0  0  0  0  0  0  0  0  0
   28.5654  -21.8440   -4.8571 C   0  0  0  0  0  0  0  0  0  0  0  0
   27.7853  -21.5715   -5.9561 C   0  0  0  0  0  0  0  0  0  0  0  0
   27.5994  -20.2933   -6.4288 C   0  0  0  0  0  0  0  0  0  0  0  0
   27.9690  -21.0803   -9.9099 C   0  0  0  0  0  0  0  0  0  0  0  0
   29.1643  -20.4219   -9.8426 O   0  0  0  0  0  0  0  0  0  0  0  0
   28.0055  -22.3368  -10.0357 O   0  0  0  0  0  0  0  0  0  0  0  0
  2  1  1  6
  2  3  1  0
  4  5  1  0
  4  3  1  0
  6  5  1  0
  7  6  1  0
  8  2  1  0
  8  9  2  0
 11 10  1  1
 11 12  1  0
 13 14  1  6
 13 11  1  0
 14  8  1  0
 15 13  1  0
 16 15  2  0
 17 15  1  0
 18 17  1  0
 19 20  1  0
 18 19  1  1
 20 28  1  0
 21 22  1  0
 21 20  2  0
 22 23  1  0
 23 28  2  0
 23 24  1  0
 24 25  2  0
 25 26  1  0
 27 26  2  0
 28 27  1  0
 29 18  1  0
 29 30  1  0
 31 29  2  0
M  END
$$$$
