KVW.pdb
     RDKit          3D

 31 32  0  0  1  0  0  0  0  0999 V2000
   27.0963  -23.1110  -17.8584 N   0  0  0  0  0  0  0  0  0  0  0  0
   27.2159  -23.5804  -16.5250 C   0  0  1  0  0  0  0  0  0  0  0  0
   28.2633  -24.5182  -16.1736 C   0  0  0  0  0  0  0  0  0  0  0  0
   28.3314  -25.8553  -16.7033 C   0  0  0  0  0  0  0  0  0  0  0  0
   27.3723  -26.8763  -16.9805 C   0  0  0  0  0  0  0  0  0  0  0  0
   27.2151  -28.1705  -16.3043 C   0  0  0  0  0  0  0  0  0  0  0  0
   28.1614  -29.1938  -16.5019 N   0  0  0  0  0  0  0  0  0  0  0  0
   27.2027  -22.3730  -15.5846 C   0  0  0  0  0  0  0  0  0  0  0  0
   28.1836  -21.6259  -15.5221 O   0  0  0  0  0  0  0  0  0  0  0  0
   25.5361  -19.2439  -15.7935 C   0  0  0  0  0  0  0  0  0  0  0  0
   25.0390  -19.8501  -14.4957 C   0  0  1  0  0  0  0  0  0  0  0  0
   23.5988  -20.2940  -14.5761 C   0  0  0  0  0  0  0  0  0  0  0  0
   25.9687  -20.8963  -13.9545 C   0  0  2  0  0  0  0  0  0  0  0  0
   26.1002  -22.0653  -14.7692 N   0  0  0  0  0  0  0  0  0  0  0  0
   25.5421  -21.1999  -12.5699 C   0  0  0  0  0  0  0  0  0  0  0  0
   24.5686  -21.9409  -12.2883 O   0  0  0  0  0  0  0  0  0  0  0  0
   26.2725  -20.6236  -11.4963 N   0  0  0  0  0  0  0  0  0  0  0  0
   25.9406  -20.8103  -10.1237 C   0  0  1  0  0  0  0  0  0  0  0  0
   27.0899  -20.3943   -9.2491 C   0  0  0  0  0  0  0  0  0  0  0  0
   26.8559  -20.4622   -7.8065 C   0  0  0  0  0  0  0  0  0  0  0  0
   25.7210  -21.0224   -7.1982 C   0  0  0  0  0  0  0  0  0  0  0  0
   25.9019  -20.8544   -5.8855 N   0  0  0  0  0  0  0  0  0  0  0  0
   27.0682  -20.2301   -5.6295 C   0  0  0  0  0  0  0  0  0  0  0  0
   27.6678  -19.8599   -4.4359 C   0  0  0  0  0  0  0  0  0  0  0  0
   28.8914  -19.2332   -4.4759 C   0  0  0  0  0  0  0  0  0  0  0  0
   29.5454  -18.9587   -5.6567 C   0  0  0  0  0  0  0  0  0  0  0  0
   28.9276  -19.3365   -6.8255 C   0  0  0  0  0  0  0  0  0  0  0  0
   27.7043  -19.9652   -6.8422 C   0  0  0  0  0  0  0  0  0  0  0  0
   24.6809  -20.1742   -9.7135 C   0  0  0  0  0  0  0  0  0  0  0  0
   23.7550  -20.7174   -8.8682 O   0  0  0  0  0  0  0  0  0  0  0  0
   24.4348  -19.0276  -10.1833 O   0  0  0  0  0  0  0  0  0  0  0  0
  2  1  1  6
  2  3  1  0
  4  5  1  0
  4  3  1  0
  6  5  1  0
  7  6  1  0
  8  2  1  0
  8  9  2  0
 11 10  1  6
 11 12  1  0
 13 14  1  6
 13 11  1  0
 14  8  1  0
 15 13  1  0
 16 15  2  0
 17 15  1  0
 18 17  1  0
 19 20  1  0
 18 19  1  1
 20 28  1  0
 21 22  1  0
 21 20  2  0
 22 23  1  0
 23 28  2  0
 23 24  1  0
 24 25  2  0
 25 26  1  0
 27 26  2  0
 28 27  1  0
 29 18  1  0
 29 30  1  0
 31 29  2  0
M  END
$$$$
