MTA.pdb
     RDKit          3D

 21 20  0  0  1  0  0  0  0  0999 V2000
   28.1828  -20.2784   -7.0257 C   0  0  0  0  0  0  0  0  0  0  0  0
   26.4205  -19.9699   -6.7293 S   0  0  0  0  0  0  0  0  0  0  0  0
   25.5298  -20.5272   -8.2298 C   0  0  0  0  0  0  0  0  0  0  0  0
   26.3731  -20.2103   -9.4195 C   0  0  0  0  0  0  0  0  0  0  0  0
   25.7973  -20.6884  -10.7139 C   0  0  2  0  0  0  0  0  0  0  0  0
   25.6902  -22.1419  -10.7101 N   0  0  0  0  0  0  0  0  0  0  0  0
   26.5756  -20.2060  -11.8595 C   0  0  0  0  0  0  0  0  0  0  0  0
   27.7551  -20.5733  -12.0707 O   0  0  0  0  0  0  0  0  0  0  0  0
   27.4929  -21.3591  -14.2196 C   0  0  0  0  0  0  0  0  0  0  0  0
   26.7652  -20.2250  -14.8511 C   0  0  1  0  0  0  0  0  0  0  0  0
   25.4178  -20.6392  -14.9844 O   0  0  0  0  0  0  0  0  0  0  0  0
   26.7687  -18.9402  -14.0530 C   0  0  2  0  0  0  0  0  0  0  0  0
   26.0442  -19.2816  -12.8178 N   0  0  0  0  0  0  0  0  0  0  0  0
   26.1161  -17.8160  -14.7225 C   0  0  0  0  0  0  0  0  0  0  0  0
   24.8395  -17.7423  -14.7033 O   0  0  0  0  0  0  0  0  0  0  0  0
   26.9405  -14.5777  -16.5114 C   0  0  0  0  0  0  0  0  0  0  0  0
   26.0261  -15.6707  -16.0365 C   0  0  2  0  0  0  0  0  0  0  0  0
   26.7666  -16.7633  -15.4134 N   0  0  0  0  0  0  0  0  0  0  0  0
   25.1449  -16.1676  -17.1171 C   0  0  0  0  0  0  0  0  0  0  0  0
   23.9887  -15.4813  -17.4587 O   0  0  0  0  0  0  0  0  0  0  0  0
   25.4455  -17.2061  -17.7198 O   0  0  0  0  0  0  0  0  0  0  0  0
  2  1  1  0
  3  4  1  0
  3  2  1  0
  4  5  1  0
  5  7  1  0
  5  6  1  1
  7 13  1  0
  8  7  2  0
 10  9  1  1
 10 11  1  0
 10 12  1  0
 12 14  1  0
 12 13  1  1
 14 15  2  0
 14 18  1  0
 17 19  1  0
 17 16  1  6
 18 17  1  0
 19 20  1  0
 21 19  2  0
M  END
$$$$
