MTA.pdb
     RDKit          3D

 21 20  0  0  1  0  0  0  0  0999 V2000
   26.1536  -15.9459  -14.9235 C   0  0  0  0  0  0  0  0  0  0  0  0
   25.2084  -14.4030  -15.0470 S   0  0  0  0  0  0  0  0  0  0  0  0
   25.1452  -13.9664  -16.8248 C   0  0  0  0  0  0  0  0  0  0  0  0
   24.4562  -12.6496  -16.9592 C   0  0  0  0  0  0  0  0  0  0  0  0
   22.9797  -12.7134  -16.7322 C   0  0  2  0  0  0  0  0  0  0  0  0
   22.3816  -13.7243  -17.5949 N   0  0  0  0  0  0  0  0  0  0  0  0
   22.3500  -11.4019  -16.9177 C   0  0  0  0  0  0  0  0  0  0  0  0
   22.2277  -10.8710  -18.0464 O   0  0  0  0  0  0  0  0  0  0  0  0
   18.9357  -10.5290  -16.3285 C   0  0  0  0  0  0  0  0  0  0  0  0
   19.7478   -9.5784  -15.5214 C   0  0  1  0  0  0  0  0  0  0  0  0
   19.8539  -10.1424  -14.2269 O   0  0  0  0  0  0  0  0  0  0  0  0
   21.1523   -9.3449  -16.0317 C   0  0  2  0  0  0  0  0  0  0  0  0
   21.8302  -10.6350  -15.8237 N   0  0  0  0  0  0  0  0  0  0  0  0
   21.8747   -8.2811  -15.3355 C   0  0  0  0  0  0  0  0  0  0  0  0
   22.3518   -8.5170  -14.1727 O   0  0  0  0  0  0  0  0  0  0  0  0
   23.1777   -4.7649  -15.8735 C   0  0  0  0  0  0  0  0  0  0  0  0
   22.8343   -5.9718  -15.0476 C   0  0  2  0  0  0  0  0  0  0  0  0
   22.1120   -6.9729  -15.8263 N   0  0  0  0  0  0  0  0  0  0  0  0
   22.0933   -5.6118  -13.8178 C   0  0  0  0  0  0  0  0  0  0  0  0
   20.7159   -5.7630  -13.7521 O   0  0  0  0  0  0  0  0  0  0  0  0
   22.7119   -5.1717  -12.8402 O   0  0  0  0  0  0  0  0  0  0  0  0
  2  1  1  0
  3  4  1  0
  3  2  1  0
  4  5  1  0
  5  7  1  0
  5  6  1  6
  7 13  1  0
  8  7  2  0
 10  9  1  6
 10 11  1  0
 10 12  1  0
 12 14  1  0
 12 13  1  1
 14 15  2  0
 14 18  1  0
 17 19  1  0
 17 16  1  6
 18 17  1  0
 19 20  1  0
 21 19  2  0
M  END
$$$$
