MTA.pdb
     RDKit          3D

 21 20  0  0  1  0  0  0  0  0999 V2000
   23.5159  -21.2247   -8.0551 C   0  0  0  0  0  0  0  0  0  0  0  0
   22.2081  -20.5546   -9.1179 S   0  0  0  0  0  0  0  0  0  0  0  0
   22.8450  -20.6120  -10.8345 C   0  0  0  0  0  0  0  0  0  0  0  0
   24.1701  -19.9265  -10.8652 C   0  0  0  0  0  0  0  0  0  0  0  0
   25.3021  -20.8158  -11.2696 C   0  0  2  0  0  0  0  0  0  0  0  0
   26.0747  -21.2101  -10.0985 N   0  0  0  0  0  0  0  0  0  0  0  0
   26.1468  -20.1819  -12.2872 C   0  0  0  0  0  0  0  0  0  0  0  0
   27.0901  -19.4120  -11.9903 O   0  0  0  0  0  0  0  0  0  0  0  0
   28.0809  -22.1131  -14.6605 C   0  0  0  0  0  0  0  0  0  0  0  0
   27.3373  -21.1033  -15.4616 C   0  0  1  0  0  0  0  0  0  0  0  0
   26.1695  -21.7495  -15.9346 O   0  0  0  0  0  0  0  0  0  0  0  0
   26.8983  -19.8762  -14.6940 C   0  0  2  0  0  0  0  0  0  0  0  0
   25.9545  -20.3971  -13.6915 N   0  0  0  0  0  0  0  0  0  0  0  0
   26.2460  -18.8566  -15.5144 C   0  0  0  0  0  0  0  0  0  0  0  0
   24.9690  -18.8415  -15.5811 O   0  0  0  0  0  0  0  0  0  0  0  0
   27.0330  -15.7588  -17.5438 C   0  0  0  0  0  0  0  0  0  0  0  0
   26.1572  -16.8880  -17.0807 C   0  0  2  0  0  0  0  0  0  0  0  0
   26.8972  -17.8490  -16.2688 N   0  0  0  0  0  0  0  0  0  0  0  0
   25.4684  -17.5560  -18.2078 C   0  0  0  0  0  0  0  0  0  0  0  0
   24.2364  -17.1002  -18.6539 O   0  0  0  0  0  0  0  0  0  0  0  0
   25.9996  -18.5306  -18.7556 O   0  0  0  0  0  0  0  0  0  0  0  0
  2  1  1  0
  3  4  1  0
  3  2  1  0
  4  5  1  0
  5  7  1  0
  5  6  1  1
  7 13  1  0
  8  7  2  0
 10  9  1  1
 10 11  1  0
 10 12  1  0
 12 14  1  0
 12 13  1  1
 14 15  2  0
 14 18  1  0
 17 19  1  0
 17 16  1  6
 18 17  1  0
 19 20  1  0
 21 19  2  0
M  END
$$$$
