MTA.pdb
     RDKit          3D

 21 20  0  0  1  0  0  0  0  0999 V2000
   29.1384  -19.1053   -6.4969 C   0  0  0  0  0  0  0  0  0  0  0  0
   27.7171  -19.5227   -5.4507 S   0  0  0  0  0  0  0  0  0  0  0  0
   26.2834  -19.7326   -6.5713 C   0  0  0  0  0  0  0  0  0  0  0  0
   26.7948  -20.1257   -7.9170 C   0  0  0  0  0  0  0  0  0  0  0  0
   25.7328  -20.2132   -8.9659 C   0  0  2  0  0  0  0  0  0  0  0  0
   24.6776  -21.1230   -8.5384 N   0  0  0  0  0  0  0  0  0  0  0  0
   26.2908  -20.6035  -10.2648 C   0  0  0  0  0  0  0  0  0  0  0  0
   27.1008  -21.5518  -10.3884 O   0  0  0  0  0  0  0  0  0  0  0  0
   25.2130  -22.6194  -12.4645 C   0  0  0  0  0  0  0  0  0  0  0  0
   25.3171  -21.3572  -13.2459 C   0  0  1  0  0  0  0  0  0  0  0  0
   24.0822  -20.6837  -13.0837 O   0  0  0  0  0  0  0  0  0  0  0  0
   26.4111  -20.4152  -12.7948 C   0  0  2  0  0  0  0  0  0  0  0  0
   25.9503  -19.9298  -11.4837 N   0  0  0  0  0  0  0  0  0  0  0  0
   26.6397  -19.2860  -13.6953 C   0  0  0  0  0  0  0  0  0  0  0  0
   25.8940  -18.2524  -13.5914 O   0  0  0  0  0  0  0  0  0  0  0  0
   29.0990  -18.0439  -16.2859 C   0  0  0  0  0  0  0  0  0  0  0  0
   27.7901  -18.0301  -15.5489 C   0  0  2  0  0  0  0  0  0  0  0  0
   27.6319  -19.2099  -14.7044 N   0  0  0  0  0  0  0  0  0  0  0  0
   26.6381  -17.8671  -16.4641 C   0  0  0  0  0  0  0  0  0  0  0  0
   26.2980  -16.6158  -16.9571 O   0  0  0  0  0  0  0  0  0  0  0  0
   25.9738  -18.8591  -16.7906 O   0  0  0  0  0  0  0  0  0  0  0  0
  2  1  1  0
  3  4  1  0
  3  2  1  0
  4  5  1  0
  5  7  1  0
  5  6  1  1
  7 13  1  0
  8  7  2  0
 10  9  1  1
 10 11  1  0
 10 12  1  0
 12 14  1  0
 12 13  1  1
 14 15  2  0
 14 18  1  0
 17 19  1  0
 17 16  1  6
 18 17  1  0
 19 20  1  0
 21 19  2  0
M  END
$$$$
