MTA.pdb
     RDKit          3D

 21 20  0  0  1  0  0  0  0  0999 V2000
   16.2981  -11.7683  -13.8619 C   0  0  0  0  0  0  0  0  0  0  0  0
   16.6887  -13.4034  -14.5422 S   0  0  0  0  0  0  0  0  0  0  0  0
   17.5857  -13.1181  -16.1137 C   0  0  0  0  0  0  0  0  0  0  0  0
   18.4534  -11.9158  -15.9457 C   0  0  0  0  0  0  0  0  0  0  0  0
   19.2012  -11.5318  -17.1823 C   0  0  2  0  0  0  0  0  0  0  0  0
   19.9198  -12.6832  -17.7132 N   0  0  0  0  0  0  0  0  0  0  0  0
   20.0996  -10.3987  -16.9374 C   0  0  0  0  0  0  0  0  0  0  0  0
   21.2911  -10.5533  -16.5808 O   0  0  0  0  0  0  0  0  0  0  0  0
   20.6267   -7.8297  -19.5778 C   0  0  0  0  0  0  0  0  0  0  0  0
   20.3330   -7.1259  -18.2999 C   0  0  1  0  0  0  0  0  0  0  0  0
   18.9432   -6.8549  -18.3032 O   0  0  0  0  0  0  0  0  0  0  0  0
   20.6383   -7.9192  -17.0489 C   0  0  2  0  0  0  0  0  0  0  0  0
   19.6802   -9.0361  -17.0881 N   0  0  0  0  0  0  0  0  0  0  0  0
   20.4787   -7.1652  -15.8063 C   0  0  0  0  0  0  0  0  0  0  0  0
   19.3051   -7.0159  -15.3208 O   0  0  0  0  0  0  0  0  0  0  0  0
   22.4919   -5.5719  -13.0345 C   0  0  0  0  0  0  0  0  0  0  0  0
   21.2523   -5.7689  -13.8599 C   0  0  2  0  0  0  0  0  0  0  0  0
   21.5187   -6.5621  -15.0558 N   0  0  0  0  0  0  0  0  0  0  0  0
   20.6019   -4.4841  -14.2022 C   0  0  0  0  0  0  0  0  0  0  0  0
   19.8193   -3.8172  -13.2709 O   0  0  0  0  0  0  0  0  0  0  0  0
   20.7598   -4.0027  -15.3316 O   0  0  0  0  0  0  0  0  0  0  0  0
  2  1  1  0
  3  4  1  0
  3  2  1  0
  4  5  1  0
  5  7  1  0
  5  6  1  1
  7 13  1  0
  8  7  2  0
 10  9  1  6
 10 11  1  0
 10 12  1  0
 12 14  1  0
 12 13  1  1
 14 15  2  0
 14 18  1  0
 17 19  1  0
 17 16  1  6
 18 17  1  0
 19 20  1  0
 21 19  2  0
M  END
$$$$
