MTA.pdb
     RDKit          3D

 21 20  0  0  1  0  0  0  0  0999 V2000
   17.5374  -11.4284  -20.9405 C   0  0  0  0  0  0  0  0  0  0  0  0
   17.1742  -12.9291  -19.9891 S   0  0  0  0  0  0  0  0  0  0  0  0
   18.5315  -13.1226  -18.7744 C   0  0  0  0  0  0  0  0  0  0  0  0
   18.5369  -11.9252  -17.8839 C   0  0  0  0  0  0  0  0  0  0  0  0
   19.6560  -11.9137  -16.8923 C   0  0  2  0  0  0  0  0  0  0  0  0
   19.6384  -13.1369  -16.1001 N   0  0  0  0  0  0  0  0  0  0  0  0
   19.6103  -10.7185  -16.0437 C   0  0  0  0  0  0  0  0  0  0  0  0
   18.8046  -10.6038  -15.0906 O   0  0  0  0  0  0  0  0  0  0  0  0
   22.3721   -9.5370  -13.9899 C   0  0  0  0  0  0  0  0  0  0  0  0
   21.9408   -8.3945  -14.8404 C   0  0  1  0  0  0  0  0  0  0  0  0
   22.7689   -8.4161  -15.9888 O   0  0  0  0  0  0  0  0  0  0  0  0
   20.5057   -8.4565  -15.3138 C   0  0  2  0  0  0  0  0  0  0  0  0
   20.4821   -9.5980  -16.2431 N   0  0  0  0  0  0  0  0  0  0  0  0
   20.0453   -7.2468  -15.9940 C   0  0  0  0  0  0  0  0  0  0  0  0
   20.2410   -7.1334  -17.2527 O   0  0  0  0  0  0  0  0  0  0  0  0
   18.1144   -5.4130  -17.3547 C   0  0  0  0  0  0  0  0  0  0  0  0
   18.9272   -4.9977  -16.1617 C   0  0  2  0  0  0  0  0  0  0  0  0
   19.3827   -6.1494  -15.3895 N   0  0  0  0  0  0  0  0  0  0  0  0
   18.2047   -4.0299  -15.3059 C   0  0  0  0  0  0  0  0  0  0  0  0
   17.9175   -2.7537  -15.7680 O   0  0  0  0  0  0  0  0  0  0  0  0
   17.8546   -4.3657  -14.1672 O   0  0  0  0  0  0  0  0  0  0  0  0
  2  1  1  0
  3  4  1  0
  3  2  1  0
  4  5  1  0
  5  7  1  0
  5  6  1  1
  7 13  1  0
  8  7  2  0
 10  9  1  1
 10 11  1  0
 10 12  1  0
 12 14  1  0
 12 13  1  6
 14 15  2  0
 14 18  1  0
 17 19  1  0
 17 16  1  6
 18 17  1  0
 19 20  1  0
 21 19  2  0
M  END
$$$$
