MTA.pdb
     RDKit          3D

 21 20  0  0  1  0  0  0  0  0999 V2000
   40.6027  -12.8174  -10.8024 C   0  0  0  0  0  0  0  0  0  0  0  0
   41.8773  -13.9005  -10.1015 S   0  0  0  0  0  0  0  0  0  0  0  0
   43.0741  -12.8141   -9.2395 C   0  0  0  0  0  0  0  0  0  0  0  0
   42.3107  -11.7420   -8.5361 C   0  0  0  0  0  0  0  0  0  0  0  0
   43.1757  -10.7411   -7.8393 C   0  0  2  0  0  0  0  0  0  0  0  0
   44.0699  -11.4132   -6.9051 N   0  0  0  0  0  0  0  0  0  0  0  0
   42.3745   -9.7084   -7.1741 C   0  0  0  0  0  0  0  0  0  0  0  0
   41.9484   -9.8418   -6.0030 O   0  0  0  0  0  0  0  0  0  0  0  0
   43.4397   -6.2026   -6.5831 C   0  0  0  0  0  0  0  0  0  0  0  0
   42.1339   -6.1808   -7.2966 C   0  0  1  0  0  0  0  0  0  0  0  0
   42.4340   -6.0778   -8.6765 O   0  0  0  0  0  0  0  0  0  0  0  0
   41.2822   -7.4164   -7.1079 C   0  0  2  0  0  0  0  0  0  0  0  0
   42.0220   -8.4750   -7.8143 N   0  0  0  0  0  0  0  0  0  0  0  0
   39.9297   -7.3018   -7.6516 C   0  0  0  0  0  0  0  0  0  0  0  0
   39.7604   -7.4106   -8.9145 O   0  0  0  0  0  0  0  0  0  0  0  0
   36.3471   -6.7178   -6.5448 C   0  0  0  0  0  0  0  0  0  0  0  0
   37.4577   -6.8377   -7.5491 C   0  0  2  0  0  0  0  0  0  0  0  0
   38.7459   -7.0762   -6.9058 N   0  0  0  0  0  0  0  0  0  0  0  0
   37.5183   -5.6676   -8.4538 C   0  0  0  0  0  0  0  0  0  0  0  0
   36.7651   -5.6341   -9.6183 O   0  0  0  0  0  0  0  0  0  0  0  0
   38.2494   -4.7113   -8.1655 O   0  0  0  0  0  0  0  0  0  0  0  0
  2  1  1  0
  3  4  1  0
  3  2  1  0
  4  5  1  0
  5  7  1  0
  5  6  1  1
  7 13  1  0
  8  7  2  0
 10  9  1  1
 10 11  1  0
 10 12  1  0
 12 14  1  0
 12 13  1  6
 14 15  2  0
 14 18  1  0
 17 19  1  0
 17 16  1  1
 18 17  1  0
 19 20  1  0
 21 19  2  0
M  END
$$$$
