LFY.pdb
     RDKit          3D

 32 33  0  0  1  0  0  0  0  0999 V2000
   25.3565  -19.2177  -14.8057 C   0  0  0  0  0  0  0  0  0  0  0  0
   24.6123  -20.4971  -14.4944 C   0  0  2  0  0  0  0  0  0  0  0  0
   23.1943  -20.4609  -15.0145 C   0  0  0  0  0  0  0  0  0  0  0  0
   24.6643  -20.8477  -13.0375 C   0  0  0  0  0  0  0  0  0  0  0  0
   26.0759  -20.8264  -12.4926 C   0  0  2  0  0  0  0  0  0  0  0  0
   26.9362  -21.7610  -13.1491 N   0  0  0  0  0  0  0  0  0  0  0  0
   26.0705  -21.0789  -11.0368 C   0  0  0  0  0  0  0  0  0  0  0  0
   25.8315  -22.2349  -10.5700 O   0  0  0  0  0  0  0  0  0  0  0  0
   26.3318  -20.0378  -10.1232 N   0  0  0  0  0  0  0  0  0  0  0  0
   26.4304  -20.3359   -8.6642 C   0  0  1  0  0  0  0  0  0  0  0  0
   27.2855  -19.3163   -8.0169 C   0  0  0  0  0  0  0  0  0  0  0  0
   27.5958  -19.5003   -6.5848 C   0  0  0  0  0  0  0  0  0  0  0  0
   27.9411  -20.7242   -6.0667 C   0  0  0  0  0  0  0  0  0  0  0  0
   28.2679  -20.9164   -4.7602 C   0  0  0  0  0  0  0  0  0  0  0  0
   28.2486  -19.8093   -3.9123 C   0  0  0  0  0  0  0  0  0  0  0  0
   27.9046  -18.5819   -4.4214 C   0  0  0  0  0  0  0  0  0  0  0  0
   27.5778  -18.4108   -5.7449 C   0  0  0  0  0  0  0  0  0  0  0  0
   25.0366  -20.4538   -8.1951 C   0  0  0  0  0  0  0  0  0  0  0  0
   24.1283  -19.7124   -8.7383 O   0  0  0  0  0  0  0  0  0  0  0  0
   16.9613  -22.6678   -6.4008 O   0  0  0  0  0  0  0  0  0  0  0  0
   18.3019  -22.5887   -6.7492 C   0  0  0  0  0  0  0  0  0  0  0  0
   18.7748  -21.8734   -7.8143 C   0  0  0  0  0  0  0  0  0  0  0  0
   20.1250  -21.8413   -8.0999 C   0  0  0  0  0  0  0  0  0  0  0  0
   21.0605  -22.5287   -7.3249 C   0  0  0  0  0  0  0  0  0  0  0  0
   22.4815  -22.4663   -7.7036 C   0  0  0  0  0  0  0  0  0  0  0  0
   23.1576  -21.3816   -6.8823 C   0  0  2  0  0  0  0  0  0  0  0  0
   24.5746  -21.3313   -7.1809 N   0  0  0  0  0  0  0  0  0  0  0  0
   22.9053  -21.4888   -5.4500 C   0  0  0  0  0  0  0  0  0  0  0  0
   21.8601  -21.0387   -4.8853 O   0  0  0  0  0  0  0  0  0  0  0  0
   20.5474  -23.2387   -6.2598 C   0  0  0  0  0  0  0  0  0  0  0  0
   19.1999  -23.2784   -5.9642 C   0  0  0  0  0  0  0  0  0  0  0  0
   23.8266  -22.1078   -4.6194 O   0  0  0  0  0  0  0  0  0  0  0  0
  2  3  1  1
  2  1  1  0
  4  2  1  0
  5  4  1  0
  5  6  1  6
  7  8  2  0
  7  5  1  0
  9  7  1  0
 10  9  1  0
 11 12  1  0
 10 11  1  1
 12 13  2  0
 12 17  1  0
 13 14  1  0
 14 15  2  0
 16 15  1  0
 17 16  2  0
 18 10  1  0
 18 19  2  0
 20 21  1  0
 21 22  2  0
 22 23  1  0
 24 25  1  0
 24 23  2  0
 26 27  1  0
 26 25  1  6
 27 18  1  0
 28 26  1  0
 29 28  2  0
 30 24  1  0
 31 30  2  0
 31 21  1  0
 32 28  1  0
M  END
$$$$
