LFY.pdb
     RDKit          3D

 32 33  0  0  1  0  0  0  0  0999 V2000
   27.9361  -20.0123  -19.5961 C   0  0  0  0  0  0  0  0  0  0  0  0
   27.4477  -21.4181  -19.8652 C   0  0  2  0  0  0  0  0  0  0  0  0
   26.4156  -21.4510  -20.9681 C   0  0  0  0  0  0  0  0  0  0  0  0
   26.9595  -22.1006  -18.6226 C   0  0  0  0  0  0  0  0  0  0  0  0
   27.9531  -22.0010  -17.4856 C   0  0  2  0  0  0  0  0  0  0  0  0
   29.0775  -22.8677  -17.6564 N   0  0  0  0  0  0  0  0  0  0  0  0
   27.2897  -22.2800  -16.1952 C   0  0  0  0  0  0  0  0  0  0  0  0
   27.1471  -23.4681  -15.7717 O   0  0  0  0  0  0  0  0  0  0  0  0
   26.7953  -21.2293  -15.3963 N   0  0  0  0  0  0  0  0  0  0  0  0
   26.1506  -21.5321  -14.0848 C   0  0  1  0  0  0  0  0  0  0  0  0
   26.6877  -20.6138  -13.0562 C   0  0  0  0  0  0  0  0  0  0  0  0
   26.0539  -20.6428  -11.7226 C   0  0  0  0  0  0  0  0  0  0  0  0
   24.9434  -19.8906  -11.4284 C   0  0  0  0  0  0  0  0  0  0  0  0
   24.3167  -19.9252  -10.2214 C   0  0  0  0  0  0  0  0  0  0  0  0
   24.8352  -20.7697   -9.2402 C   0  0  0  0  0  0  0  0  0  0  0  0
   25.9451  -21.5254   -9.5253 C   0  0  0  0  0  0  0  0  0  0  0  0
   26.5623  -21.4746  -10.7517 C   0  0  0  0  0  0  0  0  0  0  0  0
   24.6990  -21.4900  -14.3448 C   0  0  0  0  0  0  0  0  0  0  0  0
   24.2109  -20.4966  -15.0117 O   0  0  0  0  0  0  0  0  0  0  0  0
   16.1236  -22.4647  -15.3723 O   0  0  0  0  0  0  0  0  0  0  0  0
   17.4681  -22.7202  -15.1444 C   0  0  0  0  0  0  0  0  0  0  0  0
   18.3961  -22.8765  -16.1363 C   0  0  0  0  0  0  0  0  0  0  0  0
   19.7189  -23.1292  -15.8325 C   0  0  0  0  0  0  0  0  0  0  0  0
   20.1667  -23.2360  -14.5148 C   0  0  0  0  0  0  0  0  0  0  0  0
   21.5878  -23.5293  -14.2680 C   0  0  0  0  0  0  0  0  0  0  0  0
   22.3433  -22.2164  -14.1507 C   0  0  2  0  0  0  0  0  0  0  0  0
   23.7540  -22.4634  -13.9306 N   0  0  0  0  0  0  0  0  0  0  0  0
   21.7867  -21.3076  -13.1551 C   0  0  0  0  0  0  0  0  0  0  0  0
   21.9414  -21.4575  -11.9031 O   0  0  0  0  0  0  0  0  0  0  0  0
   19.2033  -23.0727  -13.5416 C   0  0  0  0  0  0  0  0  0  0  0  0
   17.8781  -22.8198  -13.8328 C   0  0  0  0  0  0  0  0  0  0  0  0
   21.0423  -20.2063  -13.5484 O   0  0  0  0  0  0  0  0  0  0  0  0
  2  3  1  6
  2  1  1  0
  4  2  1  0
  5  4  1  0
  5  6  1  6
  7  8  2  0
  7  5  1  0
  9  7  1  0
 10  9  1  0
 11 12  1  0
 10 11  1  1
 12 13  2  0
 12 17  1  0
 13 14  1  0
 14 15  2  0
 16 15  1  0
 17 16  2  0
 18 10  1  0
 18 19  2  0
 20 21  1  0
 21 22  2  0
 22 23  1  0
 24 25  1  0
 24 23  2  0
 26 27  1  0
 26 25  1  1
 27 18  1  0
 28 26  1  0
 29 28  2  0
 30 24  1  0
 31 30  2  0
 31 21  1  0
 32 28  1  0
M  END
$$$$
