LFY.pdb
     RDKit          3D

 32 33  0  0  1  0  0  0  0  0999 V2000
   42.8909   -5.0684  -12.5501 C   0  0  0  0  0  0  0  0  0  0  0  0
   42.6345   -4.0233  -11.4873 C   0  0  2  0  0  0  0  0  0  0  0  0
   43.8372   -3.1339  -11.2747 C   0  0  0  0  0  0  0  0  0  0  0  0
   42.1492   -4.6234  -10.2018 C   0  0  0  0  0  0  0  0  0  0  0  0
   40.9468   -5.5195  -10.4052 C   0  0  2  0  0  0  0  0  0  0  0  0
   39.7850   -4.7992  -10.8248 N   0  0  0  0  0  0  0  0  0  0  0  0
   40.6545   -6.2781   -9.1713 C   0  0  0  0  0  0  0  0  0  0  0  0
   40.5439   -5.6937   -8.0499 O   0  0  0  0  0  0  0  0  0  0  0  0
   40.4898   -7.6775   -9.2070 N   0  0  0  0  0  0  0  0  0  0  0  0
   40.0650   -8.4079   -7.9768 C   0  0  1  0  0  0  0  0  0  0  0  0
   38.6468   -8.8074   -8.1147 C   0  0  0  0  0  0  0  0  0  0  0  0
   37.6221   -7.7823   -7.8315 C   0  0  0  0  0  0  0  0  0  0  0  0
   37.1843   -7.5243   -6.5559 C   0  0  0  0  0  0  0  0  0  0  0  0
   36.2697   -6.5613   -6.2610 C   0  0  0  0  0  0  0  0  0  0  0  0
   35.7566   -5.8036   -7.3134 C   0  0  0  0  0  0  0  0  0  0  0  0
   36.1884   -6.0545   -8.5920 C   0  0  0  0  0  0  0  0  0  0  0  0
   37.1134   -7.0325   -8.8669 C   0  0  0  0  0  0  0  0  0  0  0  0
   41.0610   -9.4814   -7.7971 C   0  0  0  0  0  0  0  0  0  0  0  0
   40.9942  -10.2277   -6.7443 O   0  0  0  0  0  0  0  0  0  0  0  0
   48.1046  -14.4417   -7.0976 O   0  0  0  0  0  0  0  0  0  0  0  0
   46.8863  -13.8262   -7.3461 C   0  0  0  0  0  0  0  0  0  0  0  0
   46.0639  -13.3352   -6.3703 C   0  0  0  0  0  0  0  0  0  0  0  0
   44.8641  -12.7342   -6.6943 C   0  0  0  0  0  0  0  0  0  0  0  0
   44.4383  -12.6005   -8.0168 C   0  0  0  0  0  0  0  0  0  0  0  0
   43.1362  -11.9684   -8.2846 C   0  0  0  0  0  0  0  0  0  0  0  0
   43.2975  -10.4608   -8.1891 C   0  0  2  0  0  0  0  0  0  0  0  0
   42.1146   -9.7934   -8.6941 N   0  0  0  0  0  0  0  0  0  0  0  0
   44.5154   -9.9613   -8.8166 C   0  0  0  0  0  0  0  0  0  0  0  0
   45.6424   -9.9233   -8.2312 O   0  0  0  0  0  0  0  0  0  0  0  0
   45.2929  -13.1069   -8.9734 C   0  0  0  0  0  0  0  0  0  0  0  0
   46.4948  -13.7097   -8.6619 C   0  0  0  0  0  0  0  0  0  0  0  0
   44.4917   -9.4931  -10.1212 O   0  0  0  0  0  0  0  0  0  0  0  0
  2  3  1  1
  2  1  1  0
  4  2  1  0
  5  4  1  0
  5  6  1  1
  7  8  2  0
  7  5  1  0
  9  7  1  0
 10  9  1  0
 11 12  1  0
 10 11  1  6
 12 13  2  0
 12 17  1  0
 13 14  1  0
 14 15  2  0
 16 15  1  0
 17 16  2  0
 18 10  1  0
 18 19  2  0
 20 21  1  0
 21 22  2  0
 22 23  1  0
 24 25  1  0
 24 23  2  0
 26 27  1  0
 26 25  1  6
 27 18  1  0
 28 26  1  0
 29 28  2  0
 30 24  1  0
 31 30  2  0
 31 21  1  0
 32 28  1  0
M  END
$$$$
