LFY.pdb
     RDKit          3D

 32 33  0  0  1  0  0  0  0  0999 V2000
   21.4760  -32.9132  -13.2480 C   0  0  0  0  0  0  0  0  0  0  0  0
   21.5556  -34.4154  -13.0920 C   0  0  2  0  0  0  0  0  0  0  0  0
   20.1957  -35.0257  -12.8452 C   0  0  0  0  0  0  0  0  0  0  0  0
   22.5512  -34.8294  -12.0502 C   0  0  0  0  0  0  0  0  0  0  0  0
   23.9058  -34.1900  -12.2654 C   0  0  2  0  0  0  0  0  0  0  0  0
   24.5658  -34.6743  -13.4378 N   0  0  0  0  0  0  0  0  0  0  0  0
   24.7651  -34.3913  -11.0804 C   0  0  0  0  0  0  0  0  0  0  0  0
   25.5306  -35.3995  -10.9860 O   0  0  0  0  0  0  0  0  0  0  0  0
   24.7577  -33.4648  -10.0182 N   0  0  0  0  0  0  0  0  0  0  0  0
   25.5756  -33.7263   -8.7975 C   0  0  1  0  0  0  0  0  0  0  0  0
   26.0265  -32.4363   -8.2297 C   0  0  0  0  0  0  0  0  0  0  0  0
   26.6512  -32.4648   -6.8918 C   0  0  0  0  0  0  0  0  0  0  0  0
   25.9504  -32.1461   -5.7548 C   0  0  0  0  0  0  0  0  0  0  0  0
   26.4887  -32.1994   -4.5065 C   0  0  0  0  0  0  0  0  0  0  0  0
   27.8194  -32.5988   -4.3856 C   0  0  0  0  0  0  0  0  0  0  0  0
   28.5278  -32.9193   -5.5167 C   0  0  0  0  0  0  0  0  0  0  0  0
   27.9638  -32.8583   -6.7680 C   0  0  0  0  0  0  0  0  0  0  0  0
   24.7377  -34.5906   -7.9445 C   0  0  0  0  0  0  0  0  0  0  0  0
   23.4637  -34.3794   -7.8989 O   0  0  0  0  0  0  0  0  0  0  0  0
   20.4480  -39.9779   -2.8096 O   0  0  0  0  0  0  0  0  0  0  0  0
   21.2894  -39.4253   -3.7644 C   0  0  0  0  0  0  0  0  0  0  0  0
   22.5952  -39.7919   -3.9377 C   0  0  0  0  0  0  0  0  0  0  0  0
   23.3728  -39.1965   -4.9107 C   0  0  0  0  0  0  0  0  0  0  0  0
   22.8695  -38.2042   -5.7536 C   0  0  0  0  0  0  0  0  0  0  0  0
   23.7644  -37.5988   -6.7532 C   0  0  0  0  0  0  0  0  0  0  0  0
   24.2960  -36.2872   -6.2006 C   0  0  2  0  0  0  0  0  0  0  0  0
   25.2010  -35.6696   -7.1488 N   0  0  0  0  0  0  0  0  0  0  0  0
   24.8937  -36.4093   -4.8760 C   0  0  0  0  0  0  0  0  0  0  0  0
   26.0860  -36.8002   -4.6768 O   0  0  0  0  0  0  0  0  0  0  0  0
   21.5497  -37.8604   -5.5498 C   0  0  0  0  0  0  0  0  0  0  0  0
   20.7624  -38.4484   -4.5806 C   0  0  0  0  0  0  0  0  0  0  0  0
   24.1603  -36.0923   -3.7432 O   0  0  0  0  0  0  0  0  0  0  0  0
  2  3  1  1
  2  1  1  0
  4  2  1  0
  5  4  1  0
  5  6  1  6
  7  8  2  0
  7  5  1  0
  9  7  1  0
 10  9  1  0
 11 12  1  0
 10 11  1  1
 12 13  2  0
 12 17  1  0
 13 14  1  0
 14 15  2  0
 16 15  1  0
 17 16  2  0
 18 10  1  0
 18 19  2  0
 20 21  1  0
 21 22  2  0
 22 23  1  0
 24 25  1  0
 24 23  2  0
 26 27  1  0
 26 25  1  6
 27 18  1  0
 28 26  1  0
 29 28  2  0
 30 24  1  0
 31 30  2  0
 31 21  1  0
 32 28  1  0
M  END
$$$$
