LFY.pdb
     RDKit          3D

 32 33  0  0  1  0  0  0  0  0999 V2000
   28.4794  -17.2191  -14.9378 C   0  0  0  0  0  0  0  0  0  0  0  0
   27.6072  -18.0238  -15.8754 C   0  0  2  0  0  0  0  0  0  0  0  0
   26.7994  -17.1340  -16.7910 C   0  0  0  0  0  0  0  0  0  0  0  0
   26.7422  -19.0082  -15.1469 C   0  0  0  0  0  0  0  0  0  0  0  0
   27.5190  -19.8054  -14.1217 C   0  0  2  0  0  0  0  0  0  0  0  0
   28.5094  -20.6504  -14.7130 N   0  0  0  0  0  0  0  0  0  0  0  0
   26.5999  -20.6083  -13.2886 C   0  0  0  0  0  0  0  0  0  0  0  0
   26.1399  -21.7182  -13.6982 O   0  0  0  0  0  0  0  0  0  0  0  0
   26.2078  -20.1610  -12.0108 N   0  0  0  0  0  0  0  0  0  0  0  0
   25.2037  -20.9381  -11.2265 C   0  0  1  0  0  0  0  0  0  0  0  0
   25.4890  -20.7823   -9.7828 C   0  0  0  0  0  0  0  0  0  0  0  0
   26.8899  -20.9495   -9.3458 C   0  0  0  0  0  0  0  0  0  0  0  0
   27.7864  -21.7123  -10.0528 C   0  0  0  0  0  0  0  0  0  0  0  0
   29.0912  -21.8541   -9.6950 C   0  0  0  0  0  0  0  0  0  0  0  0
   29.5311  -21.1878   -8.5515 C   0  0  0  0  0  0  0  0  0  0  0  0
   28.6419  -20.4231   -7.8383 C   0  0  0  0  0  0  0  0  0  0  0  0
   27.3278  -20.2939   -8.2183 C   0  0  0  0  0  0  0  0  0  0  0  0
   23.8887  -20.4805  -11.7144 C   0  0  0  0  0  0  0  0  0  0  0  0
   23.7845  -19.2930  -12.2132 O   0  0  0  0  0  0  0  0  0  0  0  0
   18.4161  -20.2206  -18.1040 O   0  0  0  0  0  0  0  0  0  0  0  0
   19.3758  -20.4370  -17.1258 C   0  0  0  0  0  0  0  0  0  0  0  0
   20.2489  -19.4812  -16.6856 C   0  0  0  0  0  0  0  0  0  0  0  0
   21.1785  -19.7706  -15.7069 C   0  0  0  0  0  0  0  0  0  0  0  0
   21.2706  -21.0370  -15.1271 C   0  0  0  0  0  0  0  0  0  0  0  0
   22.3020  -21.2780  -14.1049 C   0  0  0  0  0  0  0  0  0  0  0  0
   21.7007  -21.0160  -12.7345 C   0  0  2  0  0  0  0  0  0  0  0  0
   22.6892  -21.2375  -11.6986 N   0  0  0  0  0  0  0  0  0  0  0  0
   20.4711  -21.7586  -12.4830 C   0  0  0  0  0  0  0  0  0  0  0  0
   19.3148  -21.2327  -12.5110 O   0  0  0  0  0  0  0  0  0  0  0  0
   20.3748  -21.9749  -15.5956 C   0  0  0  0  0  0  0  0  0  0  0  0
   19.4410  -21.6976  -16.5734 C   0  0  0  0  0  0  0  0  0  0  0  0
   20.5160  -23.1137  -12.1946 O   0  0  0  0  0  0  0  0  0  0  0  0
  2  3  1  1
  2  1  1  0
  4  2  1  0
  5  4  1  0
  5  6  1  6
  7  8  2  0
  7  5  1  0
  9  7  1  0
 10  9  1  0
 11 12  1  0
 10 11  1  1
 12 13  2  0
 12 17  1  0
 13 14  1  0
 14 15  2  0
 16 15  1  0
 17 16  2  0
 18 10  1  0
 18 19  2  0
 20 21  1  0
 21 22  2  0
 22 23  1  0
 24 25  1  0
 24 23  2  0
 26 27  1  0
 26 25  1  6
 27 18  1  0
 28 26  1  0
 29 28  2  0
 30 24  1  0
 31 30  2  0
 31 21  1  0
 32 28  1  0
M  END
$$$$
