LFY.pdb
     RDKit          3D

 32 33  0  0  1  0  0  0  0  0999 V2000
   27.8603  -19.3588  -18.5396 C   0  0  0  0  0  0  0  0  0  0  0  0
   26.9955  -20.5142  -18.9918 C   0  0  2  0  0  0  0  0  0  0  0  0
   25.8852  -20.0573  -19.9090 C   0  0  0  0  0  0  0  0  0  0  0  0
   26.4730  -21.3209  -17.8410 C   0  0  0  0  0  0  0  0  0  0  0  0
   27.5477  -21.6266  -16.8204 C   0  0  2  0  0  0  0  0  0  0  0  0
   28.3463  -22.7569  -17.1800 N   0  0  0  0  0  0  0  0  0  0  0  0
   26.9476  -21.8342  -15.4862 C   0  0  0  0  0  0  0  0  0  0  0  0
   26.2627  -22.8709  -15.2265 O   0  0  0  0  0  0  0  0  0  0  0  0
   27.1206  -20.8821  -14.4614 N   0  0  0  0  0  0  0  0  0  0  0  0
   26.5133  -21.1162  -13.1183 C   0  0  1  0  0  0  0  0  0  0  0  0
   27.3026  -20.3940  -12.0960 C   0  0  0  0  0  0  0  0  0  0  0  0
   26.7744  -20.3781  -10.7168 C   0  0  0  0  0  0  0  0  0  0  0  0
   25.8185  -19.4784  -10.3142 C   0  0  0  0  0  0  0  0  0  0  0  0
   25.2870  -19.4642   -9.0620 C   0  0  0  0  0  0  0  0  0  0  0  0
   25.7419  -20.4147   -8.1485 C   0  0  0  0  0  0  0  0  0  0  0  0
   26.6973  -21.3182   -8.5421 C   0  0  0  0  0  0  0  0  0  0  0  0
   27.2205  -21.3142   -9.8125 C   0  0  0  0  0  0  0  0  0  0  0  0
   25.0912  -20.7516  -13.2644 C   0  0  0  0  0  0  0  0  0  0  0  0
   24.7842  -19.6714  -13.9037 O   0  0  0  0  0  0  0  0  0  0  0  0
   16.6331  -19.4512  -14.0556 O   0  0  0  0  0  0  0  0  0  0  0  0
   17.8802  -20.0519  -13.9610 C   0  0  0  0  0  0  0  0  0  0  0  0
   18.1936  -21.0257  -13.0538 C   0  0  0  0  0  0  0  0  0  0  0  0
   19.4584  -21.5779  -13.0190 C   0  0  0  0  0  0  0  0  0  0  0  0
   20.4652  -21.1737  -13.8973 C   0  0  0  0  0  0  0  0  0  0  0  0
   21.7965  -21.7918  -13.7862 C   0  0  0  0  0  0  0  0  0  0  0  0
   22.6566  -20.9355  -12.8723 C   0  0  2  0  0  0  0  0  0  0  0  0
   23.9898  -21.4930  -12.7653 N   0  0  0  0  0  0  0  0  0  0  0  0
   22.0598  -20.6935  -11.5640 C   0  0  0  0  0  0  0  0  0  0  0  0
   22.1850  -21.4846  -10.5777 O   0  0  0  0  0  0  0  0  0  0  0  0
   20.1130  -20.1903  -14.7976 C   0  0  0  0  0  0  0  0  0  0  0  0
   18.8521  -19.6307  -14.8420 C   0  0  0  0  0  0  0  0  0  0  0  0
   21.3073  -19.5518  -11.3361 O   0  0  0  0  0  0  0  0  0  0  0  0
  2  3  1  1
  2  1  1  0
  4  2  1  0
  5  4  1  0
  5  6  1  6
  7  8  2  0
  7  5  1  0
  9  7  1  0
 10  9  1  0
 11 12  1  0
 10 11  1  1
 12 13  2  0
 12 17  1  0
 13 14  1  0
 14 15  2  0
 16 15  1  0
 17 16  2  0
 18 10  1  0
 18 19  2  0
 20 21  1  0
 21 22  2  0
 22 23  1  0
 24 25  1  0
 24 23  2  0
 26 27  1  0
 26 25  1  6
 27 18  1  0
 28 26  1  0
 29 28  2  0
 30 24  1  0
 31 30  2  0
 31 21  1  0
 32 28  1  0
M  END
$$$$
