LFY.pdb
     RDKit          3D

 32 33  0  0  1  0  0  0  0  0999 V2000
   18.6620  -11.9013  -22.0607 C   0  0  0  0  0  0  0  0  0  0  0  0
   19.3782  -12.6335  -20.9479 C   0  0  2  0  0  0  0  0  0  0  0  0
   18.7599  -13.9855  -20.6784 C   0  0  0  0  0  0  0  0  0  0  0  0
   19.4866  -11.8099  -19.6997 C   0  0  0  0  0  0  0  0  0  0  0  0
   20.0389  -10.4274  -19.9712 C   0  0  2  0  0  0  0  0  0  0  0  0
   21.4033  -10.4511  -20.3984 N   0  0  0  0  0  0  0  0  0  0  0  0
   19.8973   -9.5715  -18.7751 C   0  0  0  0  0  0  0  0  0  0  0  0
   18.8424   -9.5958  -18.0694 O   0  0  0  0  0  0  0  0  0  0  0  0
   20.9347   -8.7011  -18.3840 N   0  0  0  0  0  0  0  0  0  0  0  0
   20.7557   -7.8179  -17.1944 C   0  0  1  0  0  0  0  0  0  0  0  0
   21.9081   -7.9920  -16.2825 C   0  0  0  0  0  0  0  0  0  0  0  0
   22.0304   -7.0462  -15.1548 C   0  0  0  0  0  0  0  0  0  0  0  0
   21.6176   -7.3699  -13.8859 C   0  0  0  0  0  0  0  0  0  0  0  0
   21.7518   -6.5337  -12.8212 C   0  0  0  0  0  0  0  0  0  0  0  0
   22.3390   -5.2878  -13.0391 C   0  0  0  0  0  0  0  0  0  0  0  0
   22.7547   -4.9555  -14.3044 C   0  0  0  0  0  0  0  0  0  0  0  0
   22.6092   -5.8160  -15.3655 C   0  0  0  0  0  0  0  0  0  0  0  0
   20.5181   -6.4689  -17.7425 C   0  0  0  0  0  0  0  0  0  0  0  0
   20.9955   -6.1728  -18.9062 O   0  0  0  0  0  0  0  0  0  0  0  0
   18.2144    1.1762  -20.8563 O   0  0  0  0  0  0  0  0  0  0  0  0
   18.3454   -0.1148  -20.3652 C   0  0  0  0  0  0  0  0  0  0  0  0
   19.2682   -1.0161  -20.8188 C   0  0  0  0  0  0  0  0  0  0  0  0
   19.3394   -2.2854  -20.2807 C   0  0  0  0  0  0  0  0  0  0  0  0
   18.4837   -2.7043  -19.2606 C   0  0  0  0  0  0  0  0  0  0  0  0
   18.6036   -4.0803  -18.7517 C   0  0  0  0  0  0  0  0  0  0  0  0
   19.7275   -4.1259  -17.7304 C   0  0  2  0  0  0  0  0  0  0  0  0
   19.7894   -5.4318  -17.1057 N   0  0  0  0  0  0  0  0  0  0  0  0
   19.6675   -3.0522  -16.7455 C   0  0  0  0  0  0  0  0  0  0  0  0
   18.9807   -3.1155  -15.6785 O   0  0  0  0  0  0  0  0  0  0  0  0
   17.5666   -1.7693  -18.8288 C   0  0  0  0  0  0  0  0  0  0  0  0
   17.4857   -0.4975  -19.3588 C   0  0  0  0  0  0  0  0  0  0  0  0
   20.3822   -1.8804  -16.9400 O   0  0  0  0  0  0  0  0  0  0  0  0
  2  3  1  1
  2  1  1  0
  4  2  1  0
  5  4  1  0
  5  6  1  1
  7  8  2  0
  7  5  1  0
  9  7  1  0
 10  9  1  0
 11 12  1  0
 10 11  1  1
 12 13  2  0
 12 17  1  0
 13 14  1  0
 14 15  2  0
 16 15  1  0
 17 16  2  0
 18 10  1  0
 18 19  2  0
 20 21  1  0
 21 22  2  0
 22 23  1  0
 24 25  1  0
 24 23  2  0
 26 27  1  0
 26 25  1  6
 27 18  1  0
 28 26  1  0
 29 28  2  0
 30 24  1  0
 31 30  2  0
 31 21  1  0
 32 28  1  0
M  END
$$$$
