LFY.pdb
     RDKit          3D

 32 33  0  0  1  0  0  0  0  0999 V2000
   22.1650  -10.0759  -21.7450 C   0  0  0  0  0  0  0  0  0  0  0  0
   20.8784  -10.1506  -20.9535 C   0  0  2  0  0  0  0  0  0  0  0  0
   19.6804   -9.7784  -21.7955 C   0  0  0  0  0  0  0  0  0  0  0  0
   20.9405   -9.3518  -19.6862 C   0  0  0  0  0  0  0  0  0  0  0  0
   22.1334   -9.7230  -18.8322 C   0  0  2  0  0  0  0  0  0  0  0  0
   22.0669  -11.0649  -18.3428 N   0  0  0  0  0  0  0  0  0  0  0  0
   22.2739   -8.7788  -17.7044 C   0  0  0  0  0  0  0  0  0  0  0  0
   21.5998   -8.9215  -16.6383 O   0  0  0  0  0  0  0  0  0  0  0  0
   23.1646   -7.6891  -17.7827 N   0  0  0  0  0  0  0  0  0  0  0  0
   23.2672   -6.7291  -16.6446 C   0  0  1  0  0  0  0  0  0  0  0  0
   24.6639   -6.7023  -16.1563 C   0  0  0  0  0  0  0  0  0  0  0  0
   25.2802   -7.9938  -15.7910 C   0  0  0  0  0  0  0  0  0  0  0  0
   26.3548   -8.5064  -16.4751 C   0  0  0  0  0  0  0  0  0  0  0  0
   26.9659   -9.6743  -16.1383 C   0  0  0  0  0  0  0  0  0  0  0  0
   26.4693  -10.3790  -15.0422 C   0  0  0  0  0  0  0  0  0  0  0  0
   25.3953   -9.8742  -14.3522 C   0  0  0  0  0  0  0  0  0  0  0  0
   24.7933   -8.6922  -14.7102 C   0  0  0  0  0  0  0  0  0  0  0  0
   22.6970   -5.4650  -17.1481 C   0  0  0  0  0  0  0  0  0  0  0  0
   23.0109   -5.0659  -18.3363 O   0  0  0  0  0  0  0  0  0  0  0  0
   21.4240   -2.2254  -23.3377 O   0  0  0  0  0  0  0  0  0  0  0  0
   21.1526   -2.8261  -22.1169 C   0  0  0  0  0  0  0  0  0  0  0  0
   21.4553   -4.1260  -21.8196 C   0  0  0  0  0  0  0  0  0  0  0  0
   21.1544   -4.6557  -20.5808 C   0  0  0  0  0  0  0  0  0  0  0  0
   20.5345   -3.8993  -19.5848 C   0  0  0  0  0  0  0  0  0  0  0  0
   20.2240   -4.5384  -18.2957 C   0  0  0  0  0  0  0  0  0  0  0  0
   20.9089   -3.7574  -17.1871 C   0  0  2  0  0  0  0  0  0  0  0  0
   21.8045   -4.6186  -16.4416 N   0  0  0  0  0  0  0  0  0  0  0  0
   19.9826   -3.0465  -16.3134 C   0  0  0  0  0  0  0  0  0  0  0  0
   19.3870   -1.9744  -16.6449 O   0  0  0  0  0  0  0  0  0  0  0  0
   20.2444   -2.5935  -19.9202 C   0  0  0  0  0  0  0  0  0  0  0  0
   20.5403   -2.0527  -21.1551 C   0  0  0  0  0  0  0  0  0  0  0  0
   19.7049   -3.5288  -15.0437 O   0  0  0  0  0  0  0  0  0  0  0  0
  2  3  1  6
  2  1  1  0
  4  2  1  0
  5  4  1  0
  5  6  1  1
  7  8  2  0
  7  5  1  0
  9  7  1  0
 10  9  1  0
 11 12  1  0
 10 11  1  6
 12 13  2  0
 12 17  1  0
 13 14  1  0
 14 15  2  0
 16 15  1  0
 17 16  2  0
 18 10  1  0
 18 19  2  0
 20 21  1  0
 21 22  2  0
 22 23  1  0
 24 25  1  0
 24 23  2  0
 26 27  1  0
 26 25  1  6
 27 18  1  0
 28 26  1  0
 29 28  2  0
 30 24  1  0
 31 30  2  0
 31 21  1  0
 32 28  1  0
M  END
$$$$
