NRI.pdb
     RDKit          3D

 28 27  0  0  1  0  0  0  0  0999 V2000
    9.9295  -22.5198   24.6199 N   0  0  0  0  0  0  0  0  0  0  0  0
    9.7158  -22.2221   23.2550 C   0  0  0  0  0  0  0  0  0  0  0  0
    9.4657  -23.1434   22.4515 O   0  0  0  0  0  0  0  0  0  0  0  0
    9.7903  -20.8213   22.7886 C   0  0  0  0  0  0  0  0  0  0  0  0
    9.2328  -19.8927   23.8329 C   0  0  2  0  0  0  0  0  0  0  0  0
    7.8620  -20.2316   24.0626 N   0  0  0  0  0  0  0  0  0  0  0  0
    9.3637  -18.4885   23.3473 C   0  0  0  0  0  0  0  0  0  0  0  0
   10.5069  -18.0150   23.1756 O   0  0  0  0  0  0  0  0  0  0  0  0
    8.1949  -13.9384   17.7811 N   0  0  0  0  0  0  0  0  0  0  0  0
    8.2472  -12.9307   18.7808 C   0  0  0  0  0  0  0  0  0  0  0  0
    7.8031  -11.7352   18.5692 N   0  0  0  0  0  0  0  0  0  0  0  0
    8.8028  -13.2546   20.0382 N   0  0  0  0  0  0  0  0  0  0  0  0
    8.5947  -14.5257   20.6940 C   0  0  0  0  0  0  0  0  0  0  0  0
    7.2815  -14.4844   21.4057 C   0  0  0  0  0  0  0  0  0  0  0  0
    7.0475  -15.7170   22.2209 C   0  0  0  0  0  0  0  0  0  0  0  0
    8.3520  -16.3354   22.6047 C   0  0  2  0  0  0  0  0  0  0  0  0
    8.2348  -17.6814   23.0767 N   0  0  0  0  0  0  0  0  0  0  0  0
    8.9061  -15.5103   23.7181 C   0  0  0  0  0  0  0  0  0  0  0  0
    9.6566  -14.5573   23.3848 O   0  0  0  0  0  0  0  0  0  0  0  0
    7.8720  -10.9695   19.2406 C   0  0  0  0  0  0  0  0  0  0  0  0
    6.0449  -12.5277   26.1142 C   0  0  0  0  0  0  0  0  0  0  0  0
    7.2050  -13.3022   25.6088 C   0  0  2  0  0  0  0  0  0  0  0  0
    8.0160  -14.0480   26.5974 C   0  0  0  0  0  0  0  0  0  0  0  0
    8.3383  -13.2060   27.8111 C   0  0  2  0  0  0  0  0  0  0  0  0
    9.1338  -14.8946   26.1008 N   0  0  0  0  0  0  0  0  0  0  0  0
    8.5976  -15.7934   25.0633 C   0  0  0  0  0  0  0  0  0  0  0  0
    9.7778  -15.7728   27.0910 O   0  0  0  0  0  0  0  0  0  0  0  0
   10.7148  -15.2997   28.0110 O   0  0  0  0  0  0  0  0  0  0  0  0
  2  1  1  0
  2  3  2  0
  4  2  1  0
  5  4  1  0
  5  6  1  6
  7  8  2  0
  7  5  1  0
 10  9  1  0
 10 12  1  0
 11 10  2  0
 12 13  1  0
 13 14  1  0
 14 15  1  0
 16 15  1  1
 16 17  1  0
 17  7  1  0
 18 19  2  0
 18 16  1  0
 21 22  1  0
 21 20  1  0
 22 23  1  1
 24 22  1  0
 24 25  1  6
 25 18  1  0
 26 24  1  0
 27 26  1  0
 28 26  2  0
M  END
$$$$
