NRI.pdb
     RDKit          3D

 28 27  0  0  1  0  0  0  0  0999 V2000
   12.0494  -20.0115   20.3163 N   0  0  0  0  0  0  0  0  0  0  0  0
   12.8925  -18.8875   20.4681 C   0  0  0  0  0  0  0  0  0  0  0  0
   14.0830  -18.9515   20.0999 O   0  0  0  0  0  0  0  0  0  0  0  0
   12.3582  -17.6437   21.0621 C   0  0  0  0  0  0  0  0  0  0  0  0
   11.0991  -17.9322   21.8335 C   0  0  2  0  0  0  0  0  0  0  0  0
   10.1585  -18.5599   20.9572 N   0  0  0  0  0  0  0  0  0  0  0  0
   10.5589  -16.6495   22.3697 C   0  0  0  0  0  0  0  0  0  0  0  0
   11.2413  -16.0074   23.1960 O   0  0  0  0  0  0  0  0  0  0  0  0
    9.4688  -14.9844   17.8870 N   0  0  0  0  0  0  0  0  0  0  0  0
    8.5941  -13.9488   17.4626 C   0  0  0  0  0  0  0  0  0  0  0  0
    8.0211  -13.9709   16.3041 N   0  0  0  0  0  0  0  0  0  0  0  0
    8.3510  -12.8683   18.3391 N   0  0  0  0  0  0  0  0  0  0  0  0
    7.6366  -13.0049   19.5880 C   0  0  0  0  0  0  0  0  0  0  0  0
    8.0182  -14.3067   20.2144 C   0  0  0  0  0  0  0  0  0  0  0  0
    7.6468  -14.3614   21.6627 C   0  0  0  0  0  0  0  0  0  0  0  0
    8.7846  -14.9020   22.4655 C   0  0  2  0  0  0  0  0  0  0  0  0
    9.3011  -16.1416   21.9707 N   0  0  0  0  0  0  0  0  0  0  0  0
    8.2604  -15.1453   23.8416 C   0  0  0  0  0  0  0  0  0  0  0  0
    7.7388  -16.2714   24.0476 O   0  0  0  0  0  0  0  0  0  0  0  0
    7.4042  -13.2368   15.9541 C   0  0  0  0  0  0  0  0  0  0  0  0
   10.6482  -13.0266   28.2978 C   0  0  0  0  0  0  0  0  0  0  0  0
    9.9153  -13.8887   27.3381 C   0  0  2  0  0  0  0  0  0  0  0  0
    8.4602  -13.6638   27.1857 C   0  0  0  0  0  0  0  0  0  0  0  0
    7.7633  -13.5609   28.5235 C   0  0  2  0  0  0  0  0  0  0  0  0
    7.7288  -14.4424   26.1505 N   0  0  0  0  0  0  0  0  0  0  0  0
    8.3511  -14.1604   24.8448 C   0  0  0  0  0  0  0  0  0  0  0  0
    6.3005  -14.1277   25.9844 O   0  0  0  0  0  0  0  0  0  0  0  0
    5.8481  -13.1675   25.0779 O   0  0  0  0  0  0  0  0  0  0  0  0
  2  1  1  0
  2  3  2  0
  4  2  1  0
  5  4  1  0
  5  6  1  6
  7  8  2  0
  7  5  1  0
 10  9  1  0
 10 12  1  0
 11 10  2  0
 12 13  1  0
 13 14  1  0
 14 15  1  0
 16 15  1  6
 16 17  1  0
 17  7  1  0
 18 19  2  0
 18 16  1  0
 21 22  1  0
 21 20  1  0
 22 23  1  6
 24 22  1  0
 24 25  1  1
 25 18  1  0
 26 24  1  0
 27 26  1  0
 28 26  2  0
M  END
$$$$
