NRI.pdb
     RDKit          3D

 28 27  0  0  1  0  0  0  0  0999 V2000
    7.7316  -14.6292   16.3482 N   0  0  0  0  0  0  0  0  0  0  0  0
    7.6013  -14.6654   17.7549 C   0  0  0  0  0  0  0  0  0  0  0  0
    7.1329  -15.6810   18.3080 O   0  0  0  0  0  0  0  0  0  0  0  0
    8.0206  -13.4995   18.5614 C   0  0  0  0  0  0  0  0  0  0  0  0
    8.9583  -13.9313   19.6557 C   0  0  2  0  0  0  0  0  0  0  0  0
    9.7112  -15.0577   19.1960 N   0  0  0  0  0  0  0  0  0  0  0  0
    8.1583  -14.2790   20.8655 C   0  0  0  0  0  0  0  0  0  0  0  0
    7.4722  -13.3883   21.4100 O   0  0  0  0  0  0  0  0  0  0  0  0
    6.9726  -21.9501   24.7232 N   0  0  0  0  0  0  0  0  0  0  0  0
    7.7729  -20.9352   25.3125 C   0  0  0  0  0  0  0  0  0  0  0  0
    8.6454  -21.1995   26.2290 N   0  0  0  0  0  0  0  0  0  0  0  0
    7.6019  -19.6023   24.8776 N   0  0  0  0  0  0  0  0  0  0  0  0
    6.3537  -19.0910   24.3583 C   0  0  0  0  0  0  0  0  0  0  0  0
    6.5142  -17.6305   24.0868 C   0  0  0  0  0  0  0  0  0  0  0  0
    7.3705  -17.3748   22.8869 C   0  0  0  0  0  0  0  0  0  0  0  0
    7.4450  -15.9086   22.6111 C   0  0  2  0  0  0  0  0  0  0  0  0
    8.1543  -15.5833   21.4113 N   0  0  0  0  0  0  0  0  0  0  0  0
    8.1816  -15.2945   23.7547 C   0  0  0  0  0  0  0  0  0  0  0  0
    9.4332  -15.4215   23.7434 O   0  0  0  0  0  0  0  0  0  0  0  0
    9.2887  -20.5130   26.6249 C   0  0  0  0  0  0  0  0  0  0  0  0
    6.0860  -11.0648   27.0502 C   0  0  0  0  0  0  0  0  0  0  0  0
    6.4715  -12.4431   26.6590 C   0  0  2  0  0  0  0  0  0  0  0  0
    7.8311  -12.6463   26.1102 C   0  0  0  0  0  0  0  0  0  0  0  0
    8.1396  -11.6725   24.9955 C   0  0  1  0  0  0  0  0  0  0  0  0
    8.3002  -14.0391   25.8803 N   0  0  0  0  0  0  0  0  0  0  0  0
    7.5012  -14.6130   24.7830 C   0  0  0  0  0  0  0  0  0  0  0  0
    8.1520  -14.9729   27.0083 O   0  0  0  0  0  0  0  0  0  0  0  0
    8.9299  -14.8780   28.1633 O   0  0  0  0  0  0  0  0  0  0  0  0
  2  1  1  0
  2  3  2  0
  4  2  1  0
  5  4  1  0
  5  6  1  6
  7  8  2  0
  7  5  1  0
 10  9  1  0
 10 12  1  0
 11 10  2  0
 12 13  1  0
 13 14  1  0
 14 15  1  0
 16 15  1  1
 16 17  1  0
 17  7  1  0
 18 19  2  0
 18 16  1  0
 21 22  1  0
 21 20  1  0
 22 23  1  1
 24 22  1  0
 24 25  1  6
 25 18  1  0
 26 24  1  0
 27 26  1  0
 28 26  2  0
M  END
$$$$
