NRI.pdb
     RDKit          3D

 28 27  0  0  1  0  0  0  0  0999 V2000
    9.2264  -14.3141   17.3182 N   0  0  0  0  0  0  0  0  0  0  0  0
    7.8793  -13.9851   17.5905 C   0  0  0  0  0  0  0  0  0  0  0  0
    7.1959  -13.4035   16.7236 O   0  0  0  0  0  0  0  0  0  0  0  0
    7.2892  -14.3321   18.9008 C   0  0  0  0  0  0  0  0  0  0  0  0
    8.3334  -14.9346   19.8009 C   0  0  2  0  0  0  0  0  0  0  0  0
    8.7604  -16.1789   19.2387 N   0  0  0  0  0  0  0  0  0  0  0  0
    7.7436  -15.1331   21.1564 C   0  0  0  0  0  0  0  0  0  0  0  0
    7.2507  -14.1497   21.7484 O   0  0  0  0  0  0  0  0  0  0  0  0
    8.2504  -21.2199   24.2807 N   0  0  0  0  0  0  0  0  0  0  0  0
    7.6574  -21.4390   23.0087 C   0  0  0  0  0  0  0  0  0  0  0  0
    8.2076  -22.2006   22.1208 N   0  0  0  0  0  0  0  0  0  0  0  0
    6.4318  -20.8012   22.7159 N   0  0  0  0  0  0  0  0  0  0  0  0
    5.6822  -20.0381   23.6879 C   0  0  0  0  0  0  0  0  0  0  0  0
    5.7519  -18.5930   23.3143 C   0  0  0  0  0  0  0  0  0  0  0  0
    7.1232  -18.0287   23.5134 C   0  0  0  0  0  0  0  0  0  0  0  0
    7.1577  -16.5978   23.0858 C   0  0  2  0  0  0  0  0  0  0  0  0
    7.7266  -16.3981   21.7877 N   0  0  0  0  0  0  0  0  0  0  0  0
    8.0138  -15.8763   24.0727 C   0  0  0  0  0  0  0  0  0  0  0  0
    9.2529  -15.8988   23.8563 O   0  0  0  0  0  0  0  0  0  0  0  0
    7.7823  -22.4370   21.2235 C   0  0  0  0  0  0  0  0  0  0  0  0
    6.0757  -11.3662   26.2648 C   0  0  0  0  0  0  0  0  0  0  0  0
    7.0309  -12.3585   25.7133 C   0  0  2  0  0  0  0  0  0  0  0  0
    7.6307  -13.3309   26.6544 C   0  0  0  0  0  0  0  0  0  0  0  0
    8.3108  -12.6435   27.8167 C   0  0  2  0  0  0  0  0  0  0  0  0
    8.3633  -14.4980   26.0941 N   0  0  0  0  0  0  0  0  0  0  0  0
    7.4528  -15.2109   25.1806 C   0  0  0  0  0  0  0  0  0  0  0  0
    8.8226  -15.5071   27.0623 O   0  0  0  0  0  0  0  0  0  0  0  0
    7.9962  -16.5360   27.5170 O   0  0  0  0  0  0  0  0  0  0  0  0
  2  1  1  0
  2  3  2  0
  4  2  1  0
  5  4  1  0
  5  6  1  6
  7  8  2  0
  7  5  1  0
 10  9  1  0
 10 12  1  0
 11 10  2  0
 12 13  1  0
 13 14  1  0
 14 15  1  0
 16 15  1  1
 16 17  1  0
 17  7  1  0
 18 19  2  0
 18 16  1  0
 21 22  1  0
 21 20  1  0
 22 23  1  1
 24 22  1  0
 24 25  1  6
 25 18  1  0
 26 24  1  0
 27 26  1  0
 28 26  2  0
M  END
$$$$
