NRI.pdb
     RDKit          3D

 28 27  0  0  1  0  0  0  0  0999 V2000
   11.7756  -13.7832   17.4961 N   0  0  0  0  0  0  0  0  0  0  0  0
   12.2394  -13.7470   18.8306 C   0  0  0  0  0  0  0  0  0  0  0  0
   13.3788  -13.3032   19.0789 O   0  0  0  0  0  0  0  0  0  0  0  0
   11.3714  -14.2353   19.9231 C   0  0  0  0  0  0  0  0  0  0  0  0
    9.9868  -14.5146   19.4050 C   0  0  2  0  0  0  0  0  0  0  0  0
    9.5530  -13.3936   18.6292 N   0  0  0  0  0  0  0  0  0  0  0  0
    9.0776  -14.7486   20.5639 C   0  0  0  0  0  0  0  0  0  0  0  0
    8.2161  -13.8861   20.8369 O   0  0  0  0  0  0  0  0  0  0  0  0
    9.7040  -21.2016   18.7900 N   0  0  0  0  0  0  0  0  0  0  0  0
    8.3009  -20.9804   18.7941 C   0  0  0  0  0  0  0  0  0  0  0  0
    7.4823  -21.7764   18.1879 N   0  0  0  0  0  0  0  0  0  0  0  0
    7.7963  -19.8553   19.4828 N   0  0  0  0  0  0  0  0  0  0  0  0
    8.2155  -19.4874   20.8162 C   0  0  0  0  0  0  0  0  0  0  0  0
    7.4286  -18.2935   21.2497 C   0  0  0  0  0  0  0  0  0  0  0  0
    7.9582  -17.7046   22.5191 C   0  0  0  0  0  0  0  0  0  0  0  0
    8.1829  -16.2375   22.3511 C   0  0  2  0  0  0  0  0  0  0  0  0
    9.1628  -15.9145   21.3592 N   0  0  0  0  0  0  0  0  0  0  0  0
    8.6794  -15.7272   23.6629 C   0  0  0  0  0  0  0  0  0  0  0  0
    9.9285  -15.6693   23.8010 O   0  0  0  0  0  0  0  0  0  0  0  0
    6.4686  -21.6579   18.1759 C   0  0  0  0  0  0  0  0  0  0  0  0
    5.9459  -11.6746   25.8334 C   0  0  0  0  0  0  0  0  0  0  0  0
    6.9930  -12.6319   25.3996 C   0  0  2  0  0  0  0  0  0  0  0  0
    7.4144  -13.6724   26.3644 C   0  0  0  0  0  0  0  0  0  0  0  0
    7.7280  -13.0869   27.7227 C   0  0  2  0  0  0  0  0  0  0  0  0
    8.3526  -14.7293   25.9001 N   0  0  0  0  0  0  0  0  0  0  0  0
    7.7882  -15.3353   24.6812 C   0  0  0  0  0  0  0  0  0  0  0  0
    8.5862  -15.8486   26.8270 O   0  0  0  0  0  0  0  0  0  0  0  0
    9.6095  -15.8310   27.7761 O   0  0  0  0  0  0  0  0  0  0  0  0
  2  1  1  0
  2  3  2  0
  4  2  1  0
  5  4  1  0
  5  6  1  1
  7  8  2  0
  7  5  1  0
 10  9  1  0
 10 12  1  0
 11 10  2  0
 12 13  1  0
 13 14  1  0
 14 15  1  0
 16 15  1  1
 16 17  1  0
 17  7  1  0
 18 19  2  0
 18 16  1  0
 21 22  1  0
 21 20  1  0
 22 23  1  1
 24 22  1  0
 24 25  1  6
 25 18  1  0
 26 24  1  0
 27 26  1  0
 28 26  2  0
M  END
$$$$
