NRI.pdb
     RDKit          3D

 28 27  0  0  1  0  0  0  0  0999 V2000
    7.7652  -13.6764   16.8967 N   0  0  0  0  0  0  0  0  0  0  0  0
    7.7705  -12.8374   18.0340 C   0  0  0  0  0  0  0  0  0  0  0  0
    7.6228  -11.6061   17.8965 O   0  0  0  0  0  0  0  0  0  0  0  0
    7.9512  -13.4245   19.3787 C   0  0  0  0  0  0  0  0  0  0  0  0
    8.1431  -14.9132   19.2772 C   0  0  2  0  0  0  0  0  0  0  0  0
    6.9633  -15.4897   18.7091 N   0  0  0  0  0  0  0  0  0  0  0  0
    8.4031  -15.4589   20.6407 C   0  0  0  0  0  0  0  0  0  0  0  0
    7.4317  -15.6962   21.3895 O   0  0  0  0  0  0  0  0  0  0  0  0
   13.7077  -15.2347   18.6238 N   0  0  0  0  0  0  0  0  0  0  0  0
   14.1117  -15.7213   19.8957 C   0  0  0  0  0  0  0  0  0  0  0  0
   15.0216  -15.1279   20.5964 N   0  0  0  0  0  0  0  0  0  0  0  0
   13.4956  -16.8882   20.3994 N   0  0  0  0  0  0  0  0  0  0  0  0
   12.1255  -17.2487   20.1135 C   0  0  0  0  0  0  0  0  0  0  0  0
   11.5526  -17.9300   21.3136 C   0  0  0  0  0  0  0  0  0  0  0  0
   11.3304  -16.9772   22.4456 C   0  0  0  0  0  0  0  0  0  0  0  0
    9.9664  -16.3756   22.3516 C   0  0  2  0  0  0  0  0  0  0  0  0
    9.7129  -15.7142   21.1079 N   0  0  0  0  0  0  0  0  0  0  0  0
    9.8728  -15.3547   23.4362 C   0  0  0  0  0  0  0  0  0  0  0  0
   10.6901  -14.4003   23.3745 O   0  0  0  0  0  0  0  0  0  0  0  0
   15.3614  -15.4628   21.4988 C   0  0  0  0  0  0  0  0  0  0  0  0
    6.0799  -12.2582   24.7002 C   0  0  0  0  0  0  0  0  0  0  0  0
    7.3834  -12.9602   24.6033 C   0  0  2  0  0  0  0  0  0  0  0  0
    7.8086  -13.7813   25.7592 C   0  0  0  0  0  0  0  0  0  0  0  0
    7.6468  -13.0395   27.0667 C   0  0  2  0  0  0  0  0  0  0  0  0
    9.0565  -14.5818   25.6372 N   0  0  0  0  0  0  0  0  0  0  0  0
    8.9176  -15.4653   24.4659 C   0  0  0  0  0  0  0  0  0  0  0  0
    9.3761  -15.4697   26.7669 O   0  0  0  0  0  0  0  0  0  0  0  0
   10.1160  -15.0385   27.8691 O   0  0  0  0  0  0  0  0  0  0  0  0
  2  1  1  0
  2  3  2  0
  4  2  1  0
  5  4  1  0
  5  6  1  1
  7  8  2  0
  7  5  1  0
 10  9  1  0
 10 12  1  0
 11 10  2  0
 12 13  1  0
 13 14  1  0
 14 15  1  0
 16 15  1  6
 16 17  1  0
 17  7  1  0
 18 19  2  0
 18 16  1  0
 21 22  1  0
 21 20  1  0
 22 23  1  1
 24 22  1  0
 24 25  1  6
 25 18  1  0
 26 24  1  0
 27 26  1  0
 28 26  2  0
M  END
$$$$
