NRI.pdb
     RDKit          3D

 28 27  0  0  1  0  0  0  0  0999 V2000
   11.7197  -15.5882   16.9165 N   0  0  0  0  0  0  0  0  0  0  0  0
   11.0741  -16.6626   17.5693 C   0  0  0  0  0  0  0  0  0  0  0  0
   11.4164  -17.8359   17.3184 O   0  0  0  0  0  0  0  0  0  0  0  0
    9.9976  -16.3888   18.5448 C   0  0  0  0  0  0  0  0  0  0  0  0
   10.4618  -16.7113   19.9391 C   0  0  2  0  0  0  0  0  0  0  0  0
   10.6369  -18.1270   20.0479 N   0  0  0  0  0  0  0  0  0  0  0  0
    9.4421  -16.2211   20.9110 C   0  0  0  0  0  0  0  0  0  0  0  0
    9.2219  -14.9936   20.9849 O   0  0  0  0  0  0  0  0  0  0  0  0
    7.7738  -21.3939   21.2048 N   0  0  0  0  0  0  0  0  0  0  0  0
    6.4167  -21.4881   20.7958 C   0  0  0  0  0  0  0  0  0  0  0  0
    6.0561  -22.2117   19.7871 N   0  0  0  0  0  0  0  0  0  0  0  0
    5.4417  -20.7658   21.5185 N   0  0  0  0  0  0  0  0  0  0  0  0
    5.7590  -19.8973   22.6294 C   0  0  0  0  0  0  0  0  0  0  0  0
    6.5836  -18.7589   22.1228 C   0  0  0  0  0  0  0  0  0  0  0  0
    6.8410  -17.7376   23.1854 C   0  0  0  0  0  0  0  0  0  0  0  0
    7.7079  -16.6453   22.6499 C   0  0  2  0  0  0  0  0  0  0  0  0
    8.7203  -17.1031   21.7478 N   0  0  0  0  0  0  0  0  0  0  0  0
    8.3915  -16.0266   23.8237 C   0  0  0  0  0  0  0  0  0  0  0  0
    9.6170  -16.2803   23.9515 O   0  0  0  0  0  0  0  0  0  0  0  0
    5.0967  -22.2852   19.4465 C   0  0  0  0  0  0  0  0  0  0  0  0
    6.3048  -11.3665   25.7523 C   0  0  0  0  0  0  0  0  0  0  0  0
    7.2982  -12.3845   25.3302 C   0  0  2  0  0  0  0  0  0  0  0  0
    7.6893  -13.4137   26.3195 C   0  0  0  0  0  0  0  0  0  0  0  0
    8.2032  -12.7968   27.6006 C   0  0  2  0  0  0  0  0  0  0  0  0
    8.4466  -14.6019   25.8423 N   0  0  0  0  0  0  0  0  0  0  0  0
    7.6917  -15.2060   24.7302 C   0  0  0  0  0  0  0  0  0  0  0  0
    8.6467  -15.6846   26.8192 O   0  0  0  0  0  0  0  0  0  0  0  0
    9.7982  -15.7804   27.6021 O   0  0  0  0  0  0  0  0  0  0  0  0
  2  1  1  0
  2  3  2  0
  4  2  1  0
  5  4  1  0
  5  6  1  6
  7  8  2  0
  7  5  1  0
 10  9  1  0
 10 12  1  0
 11 10  2  0
 12 13  1  0
 13 14  1  0
 14 15  1  0
 16 15  1  1
 16 17  1  0
 17  7  1  0
 18 19  2  0
 18 16  1  0
 21 22  1  0
 21 20  1  0
 22 23  1  1
 24 22  1  0
 24 25  1  6
 25 18  1  0
 26 24  1  0
 27 26  1  0
 28 26  2  0
M  END
$$$$
