NRI.pdb
     RDKit          3D

 28 27  0  0  1  0  0  0  0  0999 V2000
    8.8909  -12.9083   17.2843 N   0  0  0  0  0  0  0  0  0  0  0  0
    7.6568  -13.5583   17.5119 C   0  0  0  0  0  0  0  0  0  0  0  0
    6.7693  -13.5278   16.6354 O   0  0  0  0  0  0  0  0  0  0  0  0
    7.4258  -14.2695   18.7871 C   0  0  0  0  0  0  0  0  0  0  0  0
    8.5373  -13.9761   19.7577 C   0  0  2  0  0  0  0  0  0  0  0  0
    9.7791  -14.3664   19.1639 N   0  0  0  0  0  0  0  0  0  0  0  0
    8.2859  -14.7305   21.0195 C   0  0  0  0  0  0  0  0  0  0  0  0
    7.2065  -14.5524   21.6225 O   0  0  0  0  0  0  0  0  0  0  0  0
   11.9524  -20.5168   24.2164 N   0  0  0  0  0  0  0  0  0  0  0  0
   10.7215  -21.1387   23.8759 C   0  0  0  0  0  0  0  0  0  0  0  0
   10.2130  -22.0854   24.5943 N   0  0  0  0  0  0  0  0  0  0  0  0
   10.0424  -20.7028   22.7168 N   0  0  0  0  0  0  0  0  0  0  0  0
   10.5744  -19.7095   21.8117 C   0  0  0  0  0  0  0  0  0  0  0  0
    9.6292  -18.5532   21.7655 C   0  0  0  0  0  0  0  0  0  0  0  0
    9.8666  -17.5908   22.8862 C   0  0  0  0  0  0  0  0  0  0  0  0
    8.9796  -16.3982   22.7367 C   0  0  2  0  0  0  0  0  0  0  0  0
    9.2311  -15.6382   21.5503 N   0  0  0  0  0  0  0  0  0  0  0  0
    9.2499  -15.5139   23.9083 C   0  0  0  0  0  0  0  0  0  0  0  0
   10.3214  -14.8556   23.8734 O   0  0  0  0  0  0  0  0  0  0  0  0
    9.3885  -22.6267   24.3313 C   0  0  0  0  0  0  0  0  0  0  0  0
    5.4565  -12.3846   25.7651 C   0  0  0  0  0  0  0  0  0  0  0  0
    6.7266  -13.0588   25.3993 C   0  0  2  0  0  0  0  0  0  0  0  0
    7.4584  -13.7723   26.4700 C   0  0  0  0  0  0  0  0  0  0  0  0
    7.5694  -12.9399   27.7272 C   0  0  2  0  0  0  0  0  0  0  0  0
    8.6846  -14.5308   26.1042 N   0  0  0  0  0  0  0  0  0  0  0  0
    8.3470  -15.4300   24.9865 C   0  0  0  0  0  0  0  0  0  0  0  0
    9.2538  -15.3961   27.1501 O   0  0  0  0  0  0  0  0  0  0  0  0
   10.2236  -14.9444   28.0466 O   0  0  0  0  0  0  0  0  0  0  0  0
  2  1  1  0
  2  3  2  0
  4  2  1  0
  5  4  1  0
  5  6  1  6
  7  8  2  0
  7  5  1  0
 10  9  1  0
 10 12  1  0
 11 10  2  0
 12 13  1  0
 13 14  1  0
 14 15  1  0
 16 15  1  1
 16 17  1  0
 17  7  1  0
 18 19  2  0
 18 16  1  0
 21 22  1  0
 21 20  1  0
 22 23  1  1
 24 22  1  0
 24 25  1  6
 25 18  1  0
 26 24  1  0
 27 26  1  0
 28 26  2  0
M  END
$$$$
