NRI.pdb
     RDKit          3D

 28 27  0  0  1  0  0  0  0  0999 V2000
    7.9447  -12.1172   16.6762 N   0  0  0  0  0  0  0  0  0  0  0  0
    7.9913  -13.5125   16.8958 C   0  0  0  0  0  0  0  0  0  0  0  0
    8.4573  -14.2634   16.0149 O   0  0  0  0  0  0  0  0  0  0  0  0
    7.4874  -14.0728   18.1677 C   0  0  0  0  0  0  0  0  0  0  0  0
    8.5685  -14.0487   19.2137 C   0  0  2  0  0  0  0  0  0  0  0  0
    9.7071  -14.7552   18.7124 N   0  0  0  0  0  0  0  0  0  0  0  0
    8.0480  -14.6851   20.4582 C   0  0  0  0  0  0  0  0  0  0  0  0
    6.9062  -14.3763   20.8601 O   0  0  0  0  0  0  0  0  0  0  0  0
    6.1785  -20.3977   20.5463 N   0  0  0  0  0  0  0  0  0  0  0  0
    7.2360  -20.8016   19.6883 C   0  0  0  0  0  0  0  0  0  0  0  0
    7.0132  -21.4050   18.5670 N   0  0  0  0  0  0  0  0  0  0  0  0
    8.5654  -20.5317   20.0815 N   0  0  0  0  0  0  0  0  0  0  0  0
    8.9078  -19.8697   21.3199 C   0  0  0  0  0  0  0  0  0  0  0  0
    8.3668  -18.4775   21.2804 C   0  0  0  0  0  0  0  0  0  0  0  0
    8.7431  -17.6958   22.4994 C   0  0  0  0  0  0  0  0  0  0  0  0
    8.2959  -16.2774   22.3593 C   0  0  2  0  0  0  0  0  0  0  0  0
    8.8074  -15.6245   21.1929 N   0  0  0  0  0  0  0  0  0  0  0  0
    8.8127  -15.5455   23.5529 C   0  0  0  0  0  0  0  0  0  0  0  0
   10.0143  -15.1762   23.5023 O   0  0  0  0  0  0  0  0  0  0  0  0
    7.7434  -21.6941   17.9150 C   0  0  0  0  0  0  0  0  0  0  0  0
    5.9062  -11.7086   25.6798 C   0  0  0  0  0  0  0  0  0  0  0  0
    7.0057  -12.6052   25.2458 C   0  0  2  0  0  0  0  0  0  0  0  0
    7.5661  -13.5393   26.2481 C   0  0  0  0  0  0  0  0  0  0  0  0
    7.8956  -12.8396   27.5473 C   0  0  2  0  0  0  0  0  0  0  0  0
    8.5693  -14.5412   25.7980 N   0  0  0  0  0  0  0  0  0  0  0  0
    7.9903  -15.2887   24.6676 C   0  0  0  0  0  0  0  0  0  0  0  0
    8.9639  -15.5593   26.7850 O   0  0  0  0  0  0  0  0  0  0  0  0
   10.0522  -15.3863   27.6418 O   0  0  0  0  0  0  0  0  0  0  0  0
  2  1  1  0
  2  3  2  0
  4  2  1  0
  5  4  1  0
  5  6  1  6
  7  8  2  0
  7  5  1  0
 10  9  1  0
 10 12  1  0
 11 10  2  0
 12 13  1  0
 13 14  1  0
 14 15  1  0
 16 15  1  1
 16 17  1  0
 17  7  1  0
 18 19  2  0
 18 16  1  0
 21 22  1  0
 21 20  1  0
 22 23  1  1
 24 22  1  0
 24 25  1  6
 25 18  1  0
 26 24  1  0
 27 26  1  0
 28 26  2  0
M  END
$$$$
