PYN.pdb
     RDKit          3D

 28 29  0  0  1  0  0  0  0  0999 V2000
   26.7972  -20.0022  -16.0356 N   0  0  0  0  0  0  0  0  0  0  0  0
   28.1845  -19.6894  -16.2225 C   0  0  0  0  0  0  0  0  0  0  0  0
   28.8612  -20.1507  -14.9395 C   0  0  0  0  0  0  0  0  0  0  0  0
   28.0343  -21.3673  -14.5771 C   0  0  0  0  0  0  0  0  0  0  0  0
   26.8442  -21.3503  -15.5233 C   0  0  1  0  0  0  0  0  0  0  0  0
   25.6346  -21.6387  -14.6724 C   0  0  0  0  0  0  0  0  0  0  0  0
   25.5370  -22.7129  -14.0258 O   0  0  0  0  0  0  0  0  0  0  0  0
   25.9610  -20.5910   -7.7528 O   0  0  0  0  0  0  0  0  0  0  0  0
   25.3353  -20.3835   -8.9862 C   0  0  0  0  0  0  0  0  0  0  0  0
   26.0215  -19.8033  -10.0106 C   0  0  0  0  0  0  0  0  0  0  0  0
   25.3470  -19.6210  -11.2183 C   0  0  0  0  0  0  0  0  0  0  0  0
   24.0373  -20.0040  -11.3946 C   0  0  0  0  0  0  0  0  0  0  0  0
   23.3542  -19.7904  -12.6599 C   0  0  0  0  0  0  0  0  0  0  0  0
   23.4557  -20.9563  -13.6375 C   0  0  2  0  0  0  0  0  0  0  0  0
   24.5659  -20.7214  -14.5647 N   0  0  0  0  0  0  0  0  0  0  0  0
   22.1921  -21.1772  -14.3503 C   0  0  0  0  0  0  0  0  0  0  0  0
   21.9391  -20.4844  -15.3646 O   0  0  0  0  0  0  0  0  0  0  0  0
   23.3753  -20.5862  -10.3399 C   0  0  0  0  0  0  0  0  0  0  0  0
   24.0381  -20.7740   -9.1281 C   0  0  0  0  0  0  0  0  0  0  0  0
   17.7966  -22.7829  -16.3186 N   0  0  0  0  0  0  0  0  0  0  0  0
   18.3199  -23.8841  -15.5446 C   0  0  0  0  0  0  0  0  0  0  0  0
   17.7541  -24.9892  -15.6245 O   0  0  0  0  0  0  0  0  0  0  0  0
   19.4921  -23.6883  -14.6890 C   0  0  0  0  0  0  0  0  0  0  0  0
   20.0006  -22.2879  -14.7607 C   0  0  2  0  0  0  0  0  0  0  0  0
   21.2234  -22.1373  -13.9648 N   0  0  0  0  0  0  0  0  0  0  0  0
   18.9847  -21.3423  -14.2640 C   0  0  0  0  0  0  0  0  0  0  0  0
   19.0004  -21.0876  -13.0080 O   0  0  0  0  0  0  0  0  0  0  0  0
   18.0204  -20.6992  -14.9866 O   0  0  0  0  0  0  0  0  0  0  0  0
  1  5  1  0
  2  1  1  0
  3  2  1  0
  3  4  1  0
  4  5  1  0
  5  6  1  1
  6 15  1  0
  6  7  2  0
  9  8  1  0
 10  9  2  0
 11 10  1  0
 12 18  1  0
 12 11  2  0
 14 13  1  1
 13 12  1  0
 14 16  1  0
 15 14  1  0
 16 17  2  0
 18 19  2  0
 19  9  1  0
 20 21  1  0
 21 23  1  0
 22 21  2  0
 24 23  1  1
 24 26  1  0
 25 16  1  0
 25 24  1  0
 26 28  1  0
 27 26  2  0
M  END
$$$$
