PYN.pdb
     RDKit          3D

 28 29  0  0  1  0  0  0  0  0999 V2000
   27.9145  -20.7500  -17.2522 N   0  0  0  0  0  0  0  0  0  0  0  0
   29.1398  -20.8885  -17.9849 C   0  0  0  0  0  0  0  0  0  0  0  0
   29.9671  -21.8744  -17.1722 C   0  0  0  0  0  0  0  0  0  0  0  0
   28.8948  -22.7882  -16.6151 C   0  0  0  0  0  0  0  0  0  0  0  0
   27.5714  -22.1185  -16.9500 C   0  0  1  0  0  0  0  0  0  0  0  0
   26.7400  -22.1942  -15.6957 C   0  0  0  0  0  0  0  0  0  0  0  0
   26.1903  -23.2696  -15.3452 O   0  0  0  0  0  0  0  0  0  0  0  0
   23.8943  -20.5159   -7.5367 O   0  0  0  0  0  0  0  0  0  0  0  0
   24.5393  -20.4808   -8.7772 C   0  0  0  0  0  0  0  0  0  0  0  0
   25.7133  -21.1494   -8.9552 C   0  0  0  0  0  0  0  0  0  0  0  0
   26.3121  -21.0793  -10.2134 C   0  0  0  0  0  0  0  0  0  0  0  0
   25.7584  -20.3682  -11.2531 C   0  0  0  0  0  0  0  0  0  0  0  0
   26.4103  -20.3010  -12.5507 C   0  0  0  0  0  0  0  0  0  0  0  0
   25.7646  -21.1662  -13.6277 C   0  0  2  0  0  0  0  0  0  0  0  0
   26.5438  -21.0687  -14.8650 N   0  0  0  0  0  0  0  0  0  0  0  0
   24.3588  -20.8042  -13.8429 C   0  0  0  0  0  0  0  0  0  0  0  0
   24.0927  -19.7859  -14.5250 O   0  0  0  0  0  0  0  0  0  0  0  0
   24.5734  -19.7056  -11.0384 C   0  0  0  0  0  0  0  0  0  0  0  0
   23.9650  -19.7679   -9.7857 C   0  0  0  0  0  0  0  0  0  0  0  0
   22.1386  -24.0897  -15.7703 N   0  0  0  0  0  0  0  0  0  0  0  0
   21.5715  -22.7805  -15.5468 C   0  0  0  0  0  0  0  0  0  0  0  0
   21.4495  -22.0116  -16.5173 O   0  0  0  0  0  0  0  0  0  0  0  0
   21.1538  -22.3813  -14.2012 C   0  0  0  0  0  0  0  0  0  0  0  0
   21.8994  -21.1803  -13.7249 C   0  0  2  0  0  0  0  0  0  0  0  0
   23.2640  -21.5402  -13.3252 N   0  0  0  0  0  0  0  0  0  0  0  0
   21.2093  -20.5643  -12.5772 C   0  0  0  0  0  0  0  0  0  0  0  0
   21.5792  -20.9453  -11.4108 O   0  0  0  0  0  0  0  0  0  0  0  0
   20.2147  -19.6286  -12.6068 O   0  0  0  0  0  0  0  0  0  0  0  0
  1  5  1  0
  2  1  1  0
  3  2  1  0
  3  4  1  0
  4  5  1  0
  5  6  1  1
  6 15  1  0
  6  7  2  0
  9  8  1  0
 10  9  2  0
 11 10  1  0
 12 18  1  0
 12 11  2  0
 14 13  1  1
 13 12  1  0
 14 16  1  0
 15 14  1  0
 16 17  2  0
 18 19  2  0
 19  9  1  0
 20 21  1  0
 21 23  1  0
 22 21  2  0
 24 23  1  1
 24 26  1  0
 25 16  1  0
 25 24  1  0
 26 28  1  0
 27 26  2  0
M  END
$$$$
