PYN.pdb
     RDKit          3D

 28 29  0  0  1  0  0  0  0  0999 V2000
   28.9729  -21.9910  -10.9191 N   0  0  0  0  0  0  0  0  0  0  0  0
   30.2961  -21.9520  -10.3668 C   0  0  0  0  0  0  0  0  0  0  0  0
   30.6142  -20.4699  -10.2292 C   0  0  0  0  0  0  0  0  0  0  0  0
   29.2530  -19.8936   -9.8974 C   0  0  0  0  0  0  0  0  0  0  0  0
   28.2647  -21.0296  -10.1091 C   0  0  1  0  0  0  0  0  0  0  0  0
   27.1101  -20.4366  -10.8744 C   0  0  0  0  0  0  0  0  0  0  0  0
   26.4432  -19.4795  -10.4047 O   0  0  0  0  0  0  0  0  0  0  0  0
   24.0912  -16.6453  -18.1076 O   0  0  0  0  0  0  0  0  0  0  0  0
   24.7481  -17.4611  -17.1809 C   0  0  0  0  0  0  0  0  0  0  0  0
   24.7142  -18.8163  -17.3198 C   0  0  0  0  0  0  0  0  0  0  0  0
   25.3870  -19.5804  -16.3657 C   0  0  0  0  0  0  0  0  0  0  0  0
   26.0673  -19.0112  -15.3139 C   0  0  0  0  0  0  0  0  0  0  0  0
   26.7492  -19.8316  -14.3262 C   0  0  0  0  0  0  0  0  0  0  0  0
   25.9371  -20.1086  -13.0656 C   0  0  2  0  0  0  0  0  0  0  0  0
   26.7299  -20.9265  -12.1436 N   0  0  0  0  0  0  0  0  0  0  0  0
   24.6492  -20.7387  -13.3783 C   0  0  0  0  0  0  0  0  0  0  0  0
   24.6240  -21.9618  -13.6542 O   0  0  0  0  0  0  0  0  0  0  0  0
   26.0807  -17.6411  -15.2043 C   0  0  0  0  0  0  0  0  0  0  0  0
   25.4124  -16.8665  -16.1512 C   0  0  0  0  0  0  0  0  0  0  0  0
   20.7844  -22.9943  -12.7557 N   0  0  0  0  0  0  0  0  0  0  0  0
   20.4645  -21.7260  -12.1437 C   0  0  0  0  0  0  0  0  0  0  0  0
   19.5839  -21.6947  -11.2654 O   0  0  0  0  0  0  0  0  0  0  0  0
   21.1703  -20.5119  -12.5586 C   0  0  0  0  0  0  0  0  0  0  0  0
   22.1715  -20.7931  -13.6279 C   0  0  2  0  0  0  0  0  0  0  0  0
   23.4119  -20.0479  -13.3879 N   0  0  0  0  0  0  0  0  0  0  0  0
   21.6355  -20.4207  -14.9496 C   0  0  0  0  0  0  0  0  0  0  0  0
   21.9738  -19.2715  -15.4052 O   0  0  0  0  0  0  0  0  0  0  0  0
   20.8147  -21.1585  -15.7544 O   0  0  0  0  0  0  0  0  0  0  0  0
  1  5  1  0
  2  1  1  0
  3  2  1  0
  3  4  1  0
  4  5  1  0
  5  6  1  6
  6 15  1  0
  6  7  2  0
  9  8  1  0
 10  9  2  0
 11 10  1  0
 12 18  1  0
 12 11  2  0
 14 13  1  6
 13 12  1  0
 14 16  1  0
 15 14  1  0
 16 17  2  0
 18 19  2  0
 19  9  1  0
 20 21  1  0
 21 23  1  0
 22 21  2  0
 24 23  1  1
 24 26  1  0
 25 16  1  0
 25 24  1  0
 26 28  1  0
 27 26  2  0
M  END
$$$$
