PYN.pdb
     RDKit          3D

 28 29  0  0  1  0  0  0  0  0999 V2000
   28.3533  -18.6892  -18.2252 N   0  0  0  0  0  0  0  0  0  0  0  0
   29.4199  -18.5091  -19.1671 C   0  0  0  0  0  0  0  0  0  0  0  0
   30.3916  -19.6432  -18.8726 C   0  0  0  0  0  0  0  0  0  0  0  0
   29.4491  -20.7547  -18.4585 C   0  0  0  0  0  0  0  0  0  0  0  0
   28.0820  -20.1030  -18.3225 C   0  0  1  0  0  0  0  0  0  0  0  0
   27.5016  -20.6235  -17.0331 C   0  0  0  0  0  0  0  0  0  0  0  0
   27.0072  -21.7777  -16.9630 O   0  0  0  0  0  0  0  0  0  0  0  0
   25.0983  -21.0133   -8.5261 O   0  0  0  0  0  0  0  0  0  0  0  0
   25.7063  -20.6854   -9.7421 C   0  0  0  0  0  0  0  0  0  0  0  0
   25.4877  -19.4648  -10.3072 C   0  0  0  0  0  0  0  0  0  0  0  0
   26.1201  -19.1923  -11.5207 C   0  0  0  0  0  0  0  0  0  0  0  0
   26.9392  -20.1050  -12.1446 C   0  0  0  0  0  0  0  0  0  0  0  0
   27.5755  -19.8001  -13.4156 C   0  0  0  0  0  0  0  0  0  0  0  0
   26.8265  -20.3196  -14.6380 C   0  0  2  0  0  0  0  0  0  0  0  0
   27.4884  -19.8433  -15.8556 N   0  0  0  0  0  0  0  0  0  0  0  0
   25.4095  -19.9389  -14.6074 C   0  0  0  0  0  0  0  0  0  0  0  0
   25.0967  -18.7477  -14.8441 O   0  0  0  0  0  0  0  0  0  0  0  0
   27.1374  -21.3266  -11.5465 C   0  0  0  0  0  0  0  0  0  0  0  0
   26.5113  -21.6110  -10.3339 C   0  0  0  0  0  0  0  0  0  0  0  0
   19.6792  -21.4905  -15.1108 N   0  0  0  0  0  0  0  0  0  0  0  0
   20.7738  -20.5868  -15.3769 C   0  0  0  0  0  0  0  0  0  0  0  0
   20.5143  -19.3972  -15.6324 O   0  0  0  0  0  0  0  0  0  0  0  0
   22.1539  -21.0753  -15.3427 C   0  0  0  0  0  0  0  0  0  0  0  0
   22.9700  -20.3542  -14.3234 C   0  0  2  0  0  0  0  0  0  0  0  0
   24.3536  -20.8412  -14.3258 N   0  0  0  0  0  0  0  0  0  0  0  0
   22.3981  -20.5390  -12.9774 C   0  0  0  0  0  0  0  0  0  0  0  0
   22.7783  -21.5762  -12.3277 O   0  0  0  0  0  0  0  0  0  0  0  0
   21.5041  -19.7316  -12.3335 O   0  0  0  0  0  0  0  0  0  0  0  0
  1  5  1  0
  2  1  1  0
  3  2  1  0
  3  4  1  0
  4  5  1  0
  5  6  1  1
  6 15  1  0
  6  7  2  0
  9  8  1  0
 10  9  2  0
 11 10  1  0
 12 18  1  0
 12 11  2  0
 14 13  1  1
 13 12  1  0
 14 16  1  0
 15 14  1  0
 16 17  2  0
 18 19  2  0
 19  9  1  0
 20 21  1  0
 21 23  1  0
 22 21  2  0
 24 23  1  6
 24 26  1  0
 25 16  1  0
 25 24  1  0
 26 28  1  0
 27 26  2  0
M  END
$$$$
