PYN.pdb
     RDKit          3D

 28 29  0  0  1  0  0  0  0  0999 V2000
   26.4290    2.9940   -8.5842 N   0  0  0  0  0  0  0  0  0  0  0  0
   26.8074    2.8540   -9.9606 C   0  0  0  0  0  0  0  0  0  0  0  0
   26.1142    1.5808  -10.4247 C   0  0  0  0  0  0  0  0  0  0  0  0
   24.8295    1.6215   -9.6230 C   0  0  0  0  0  0  0  0  0  0  0  0
   25.0071    2.7523   -8.6220 C   0  0  1  0  0  0  0  0  0  0  0  0
   24.5233    2.2147   -7.3001 C   0  0  0  0  0  0  0  0  0  0  0  0
   23.3217    1.8822   -7.1351 O   0  0  0  0  0  0  0  0  0  0  0  0
   24.5249   -1.1303    0.8707 O   0  0  0  0  0  0  0  0  0  0  0  0
   24.9271   -0.6147   -0.3656 C   0  0  0  0  0  0  0  0  0  0  0  0
   26.2165   -0.7639   -0.7805 C   0  0  0  0  0  0  0  0  0  0  0  0
   26.5613   -0.2294   -2.0222 C   0  0  0  0  0  0  0  0  0  0  0  0
   25.6521    0.4287   -2.8180 C   0  0  0  0  0  0  0  0  0  0  0  0
   26.0414    0.9877   -4.1023 C   0  0  0  0  0  0  0  0  0  0  0  0
   24.8946    1.6021   -4.8977 C   0  0  2  0  0  0  0  0  0  0  0  0
   25.3924    2.0619   -6.1971 N   0  0  0  0  0  0  0  0  0  0  0  0
   24.2390    2.6848   -4.1549 C   0  0  0  0  0  0  0  0  0  0  0  0
   24.8798    3.7386   -3.9278 O   0  0  0  0  0  0  0  0  0  0  0  0
   24.3599    0.5612   -2.3683 C   0  0  0  0  0  0  0  0  0  0  0  0
   24.0028    0.0314   -1.1293 C   0  0  0  0  0  0  0  0  0  0  0  0
   20.9527    5.9647   -2.0308 N   0  0  0  0  0  0  0  0  0  0  0  0
   20.3916    5.3455   -3.2087 C   0  0  0  0  0  0  0  0  0  0  0  0
   19.3382    5.8100   -3.6803 O   0  0  0  0  0  0  0  0  0  0  0  0
   21.0600    4.1965   -3.8231 C   0  0  0  0  0  0  0  0  0  0  0  0
   22.2964    3.8148   -3.0810 C   0  0  2  0  0  0  0  0  0  0  0  0
   22.9087    2.6196   -3.6707 N   0  0  0  0  0  0  0  0  0  0  0  0
   21.9880    3.5475   -1.6645 C   0  0  0  0  0  0  0  0  0  0  0  0
   21.5996    4.5462   -0.9614 O   0  0  0  0  0  0  0  0  0  0  0  0
   22.0669    2.3540   -1.0050 O   0  0  0  0  0  0  0  0  0  0  0  0
  1  5  1  0
  2  1  1  0
  3  2  1  0
  3  4  1  0
  4  5  1  0
  5  6  1  1
  6 15  1  0
  6  7  2  0
  9  8  1  0
 10  9  2  0
 11 10  1  0
 12 18  1  0
 12 11  2  0
 14 13  1  1
 13 12  1  0
 14 16  1  0
 15 14  1  0
 16 17  2  0
 18 19  2  0
 19  9  1  0
 20 21  1  0
 21 23  1  0
 22 21  2  0
 24 23  1  6
 24 26  1  0
 25 16  1  0
 25 24  1  0
 26 28  1  0
 27 26  2  0
M  END
$$$$
