PYN.pdb
     RDKit          3D

 28 29  0  0  1  0  0  0  0  0999 V2000
   27.1301  -21.8567  -16.7521 N   0  0  0  0  0  0  0  0  0  0  0  0
   28.4274  -22.1192  -17.3048 C   0  0  0  0  0  0  0  0  0  0  0  0
   28.9560  -20.7525  -17.7169 C   0  0  0  0  0  0  0  0  0  0  0  0
   28.3628  -19.8590  -16.6468 C   0  0  0  0  0  0  0  0  0  0  0  0
   27.3791  -20.7318  -15.8835 C   0  0  1  0  0  0  0  0  0  0  0  0
   26.1325  -19.9021  -15.7165 C   0  0  0  0  0  0  0  0  0  0  0  0
   26.1143  -18.9046  -14.9509 O   0  0  0  0  0  0  0  0  0  0  0  0
   18.3530  -16.1696  -17.5859 O   0  0  0  0  0  0  0  0  0  0  0  0
   19.5469  -16.8979  -17.5942 C   0  0  0  0  0  0  0  0  0  0  0  0
   20.7436  -16.2466  -17.6201 C   0  0  0  0  0  0  0  0  0  0  0  0
   21.9021  -17.0241  -17.6273 C   0  0  0  0  0  0  0  0  0  0  0  0
   21.8651  -18.3994  -17.6092 C   0  0  0  0  0  0  0  0  0  0  0  0
   23.0877  -19.1857  -17.6305 C   0  0  0  0  0  0  0  0  0  0  0  0
   23.7459  -19.3673  -16.2670 C   0  0  2  0  0  0  0  0  0  0  0  0
   24.9390  -20.2064  -16.4082 N   0  0  0  0  0  0  0  0  0  0  0  0
   22.8087  -19.9197  -15.2821 C   0  0  0  0  0  0  0  0  0  0  0  0
   22.6040  -21.1569  -15.2677 O   0  0  0  0  0  0  0  0  0  0  0  0
   20.6407  -19.0236  -17.5833 C   0  0  0  0  0  0  0  0  0  0  0  0
   19.4758  -18.2580  -17.5758 C   0  0  0  0  0  0  0  0  0  0  0  0
   19.5887  -20.8433  -11.4242 N   0  0  0  0  0  0  0  0  0  0  0  0
   20.3831  -19.6937  -11.0599 C   0  0  0  0  0  0  0  0  0  0  0  0
   20.2780  -19.2395   -9.9064 O   0  0  0  0  0  0  0  0  0  0  0  0
   21.2882  -19.0870  -12.0382 C   0  0  0  0  0  0  0  0  0  0  0  0
   21.2438  -19.7995  -13.3479 C   0  0  2  0  0  0  0  0  0  0  0  0
   22.1092  -19.1373  -14.3297 N   0  0  0  0  0  0  0  0  0  0  0  0
   19.8658  -19.8369  -13.8703 C   0  0  0  0  0  0  0  0  0  0  0  0
   19.2514  -20.9591  -13.7937 O   0  0  0  0  0  0  0  0  0  0  0  0
   19.1586  -18.8116  -14.4308 O   0  0  0  0  0  0  0  0  0  0  0  0
  1  5  1  0
  2  1  1  0
  3  2  1  0
  3  4  1  0
  4  5  1  0
  5  6  1  6
  6 15  1  0
  6  7  2  0
  9  8  1  0
 10  9  2  0
 11 10  1  0
 12 18  1  0
 12 11  2  0
 14 13  1  6
 13 12  1  0
 14 16  1  0
 15 14  1  0
 16 17  2  0
 18 19  2  0
 19  9  1  0
 20 21  1  0
 21 23  1  0
 22 21  2  0
 24 23  1  1
 24 26  1  0
 25 16  1  0
 25 24  1  0
 26 28  1  0
 27 26  2  0
M  END
$$$$
