PYN.pdb
     RDKit          3D

 28 29  0  0  1  0  0  0  0  0999 V2000
   28.1831  -21.1274  -17.5807 N   0  0  0  0  0  0  0  0  0  0  0  0
   29.4450  -21.2204  -18.2562 C   0  0  0  0  0  0  0  0  0  0  0  0
   30.3042  -22.0932  -17.3523 C   0  0  0  0  0  0  0  0  0  0  0  0
   29.2759  -23.0472  -16.7798 C   0  0  0  0  0  0  0  0  0  0  0  0
   27.9242  -22.4965  -17.2062 C   0  0  1  0  0  0  0  0  0  0  0  0
   27.0478  -22.5567  -15.9819 C   0  0  0  0  0  0  0  0  0  0  0  0
   26.6102  -23.6539  -15.5502 O   0  0  0  0  0  0  0  0  0  0  0  0
   23.5908  -20.5130   -8.1612 O   0  0  0  0  0  0  0  0  0  0  0  0
   24.2724  -20.4897   -9.3821 C   0  0  0  0  0  0  0  0  0  0  0  0
   23.7185  -19.8687  -10.4613 C   0  0  0  0  0  0  0  0  0  0  0  0
   24.4432  -19.8768  -11.6535 C   0  0  0  0  0  0  0  0  0  0  0  0
   25.6740  -20.4823  -11.7621 C   0  0  0  0  0  0  0  0  0  0  0  0
   26.4022  -20.4872  -13.0204 C   0  0  0  0  0  0  0  0  0  0  0  0
   25.8666  -21.4694  -14.0565 C   0  0  2  0  0  0  0  0  0  0  0  0
   26.6829  -21.3919  -15.2711 N   0  0  0  0  0  0  0  0  0  0  0  0
   24.4464  -21.2346  -14.3424 C   0  0  0  0  0  0  0  0  0  0  0  0
   24.1287  -20.2804  -15.0916 O   0  0  0  0  0  0  0  0  0  0  0  0
   26.2029  -21.0994  -10.6536 C   0  0  0  0  0  0  0  0  0  0  0  0
   25.4887  -21.0983   -9.4565 C   0  0  0  0  0  0  0  0  0  0  0  0
   19.4165  -21.5482  -15.1161 N   0  0  0  0  0  0  0  0  0  0  0  0
   19.8933  -22.8803  -14.8269 C   0  0  0  0  0  0  0  0  0  0  0  0
   19.1160  -23.8384  -14.9878 O   0  0  0  0  0  0  0  0  0  0  0  0
   21.2648  -23.0828  -14.3553 C   0  0  0  0  0  0  0  0  0  0  0  0
   22.0209  -21.7988  -14.2878 C   0  0  2  0  0  0  0  0  0  0  0  0
   23.3930  -22.0271  -13.8222 N   0  0  0  0  0  0  0  0  0  0  0  0
   21.3547  -20.8533  -13.3740 C   0  0  0  0  0  0  0  0  0  0  0  0
   21.8462  -20.7488  -12.1950 O   0  0  0  0  0  0  0  0  0  0  0  0
   20.2675  -20.0684  -13.6340 O   0  0  0  0  0  0  0  0  0  0  0  0
  1  5  1  0
  2  1  1  0
  3  2  1  0
  3  4  1  0
  4  5  1  0
  5  6  1  1
  6 15  1  0
  6  7  2  0
  9  8  1  0
 10  9  2  0
 11 10  1  0
 12 18  1  0
 12 11  2  0
 14 13  1  1
 13 12  1  0
 14 16  1  0
 15 14  1  0
 16 17  2  0
 18 19  2  0
 19  9  1  0
 20 21  1  0
 21 23  1  0
 22 21  2  0
 24 23  1  1
 24 26  1  0
 25 16  1  0
 25 24  1  0
 26 28  1  0
 27 26  2  0
M  END
$$$$
