PYN.pdb
     RDKit          3D

 28 29  0  0  1  0  0  0  0  0999 V2000
   17.3669  -22.8944  -12.9939 N   0  0  0  0  0  0  0  0  0  0  0  0
   17.3929  -22.5527  -14.3866 C   0  0  0  0  0  0  0  0  0  0  0  0
   18.8708  -22.5187  -14.7491 C   0  0  0  0  0  0  0  0  0  0  0  0
   19.4294  -23.6120  -13.8614 C   0  0  0  0  0  0  0  0  0  0  0  0
   18.2969  -23.9953  -12.9219 C   0  0  1  0  0  0  0  0  0  0  0  0
   18.9105  -24.0847  -11.5486 C   0  0  0  0  0  0  0  0  0  0  0  0
   19.9486  -24.7647  -11.3446 O   0  0  0  0  0  0  0  0  0  0  0  0
   23.8833  -19.6577  -10.8593 O   0  0  0  0  0  0  0  0  0  0  0  0
   22.7213  -20.2334  -10.3357 C   0  0  0  0  0  0  0  0  0  0  0  0
   21.5166  -19.9984  -10.9278 C   0  0  0  0  0  0  0  0  0  0  0  0
   20.3911  -20.5986  -10.3625 C   0  0  0  0  0  0  0  0  0  0  0  0
   20.4674  -21.4026   -9.2485 C   0  0  0  0  0  0  0  0  0  0  0  0
   19.2767  -22.0052   -8.6720 C   0  0  0  0  0  0  0  0  0  0  0  0
   19.0074  -23.4348   -9.1294 C   0  0  2  0  0  0  0  0  0  0  0  0
   18.3506  -23.4131  -10.4393 N   0  0  0  0  0  0  0  0  0  0  0  0
   18.2199  -24.1807   -8.1409 C   0  0  0  0  0  0  0  0  0  0  0  0
   16.9693  -24.1760   -8.2338 O   0  0  0  0  0  0  0  0  0  0  0  0
   21.6987  -21.6182   -8.6768 C   0  0  0  0  0  0  0  0  0  0  0  0
   22.8310  -21.0242   -9.2322 C   0  0  0  0  0  0  0  0  0  0  0  0
   17.9078  -27.0784   -2.8661 N   0  0  0  0  0  0  0  0  0  0  0  0
   17.8078  -27.2237   -4.2994 C   0  0  0  0  0  0  0  0  0  0  0  0
   16.9675  -28.0174   -4.7596 O   0  0  0  0  0  0  0  0  0  0  0  0
   18.6835  -26.4465   -5.1789 C   0  0  0  0  0  0  0  0  0  0  0  0
   17.9043  -25.5598   -6.0908 C   0  0  2  0  0  0  0  0  0  0  0  0
   18.7864  -24.9193   -7.0722 N   0  0  0  0  0  0  0  0  0  0  0  0
   17.2023  -24.5159   -5.3225 C   0  0  0  0  0  0  0  0  0  0  0  0
   16.0763  -24.8415   -4.8043 O   0  0  0  0  0  0  0  0  0  0  0  0
   17.6102  -23.2324   -5.0943 O   0  0  0  0  0  0  0  0  0  0  0  0
  1  5  1  0
  2  1  1  0
  3  2  1  0
  3  4  1  0
  4  5  1  0
  5  6  1  1
  6 15  1  0
  6  7  2  0
  9  8  1  0
 10  9  2  0
 11 10  1  0
 12 18  1  0
 12 11  2  0
 14 13  1  1
 13 12  1  0
 14 16  1  0
 15 14  1  0
 16 17  2  0
 18 19  2  0
 19  9  1  0
 20 21  1  0
 21 23  1  0
 22 21  2  0
 24 23  1  1
 24 26  1  0
 25 16  1  0
 25 24  1  0
 26 28  1  0
 27 26  2  0
M  END
$$$$
