ASK.pdb
     RDKit          3D

 21 20  0  0  1  0  0  0  0  0999 V2000
    6.9024  -14.8295   19.6138 C   0  0  0  0  0  0  0  0  0  0  0  0
    7.1993  -13.4854   20.2748 C   0  0  2  0  0  0  0  0  0  0  0  0
    7.8723  -12.6667   19.3075 N   0  0  0  0  0  0  0  0  0  0  0  0
    8.0441  -13.7781   21.4585 C   0  0  0  0  0  0  0  0  0  0  0  0
    9.2820  -13.8292   21.3058 O   0  0  0  0  0  0  0  0  0  0  0  0
    6.2996  -14.8342   25.0872 O   0  0  0  0  0  0  0  0  0  0  0  0
    7.4253  -14.0159   25.1276 C   0  0  0  0  0  0  0  0  0  0  0  0
    8.3152  -14.2103   23.9243 C   0  0  2  0  0  0  0  0  0  0  0  0
    7.5002  -13.9995   22.7441 N   0  0  0  0  0  0  0  0  0  0  0  0
    8.7957  -15.6368   23.9682 C   0  0  0  0  0  0  0  0  0  0  0  0
    8.0918  -16.5420   23.4691 O   0  0  0  0  0  0  0  0  0  0  0  0
   10.0286  -15.9384   24.5684 N   0  0  0  0  0  0  0  0  0  0  0  0
   10.4410  -17.3904   24.7697 C   0  0  1  0  0  0  0  0  0  0  0  0
   11.6454  -17.4930   23.9211 C   0  0  0  0  0  0  0  0  0  0  0  0
   11.6535  -17.3974   22.4772 C   0  0  0  0  0  0  0  0  0  0  0  0
   12.5755  -18.3124   21.7504 C   0  0  0  0  0  0  0  0  0  0  0  0
   12.4160  -18.1246   20.2220 C   0  0  0  0  0  0  0  0  0  0  0  0
   13.2990  -19.0510   19.5646 N   0  0  0  0  0  0  0  0  0  0  0  0
   10.6123  -17.4589   26.2318 C   0  0  0  0  0  0  0  0  0  0  0  0
   10.6604  -16.3565   26.8844 O   0  0  0  0  0  0  0  0  0  0  0  0
   10.7252  -18.5728   27.0210 O   0  0  0  0  0  0  0  0  0  0  0  0
  2  1  1  6
  2  4  1  0
  3  2  1  0
  4  5  2  0
  8  7  1  1
  7  6  1  0
  8 10  1  0
  9  4  1  0
  9  8  1  0
 10 11  2  0
 12 10  1  0
 12 13  1  0
 13 19  1  0
 14 15  1  0
 13 14  1  6
 16 15  1  0
 17 18  1  0
 17 16  1  0
 19 21  1  0
 20 19  2  0
M  END
$$$$
