ASK.pdb
     RDKit          3D

 21 20  0  0  1  0  0  0  0  0999 V2000
    8.1543  -12.1271   19.5460 C   0  0  0  0  0  0  0  0  0  0  0  0
    8.2105  -13.2849   18.5520 C   0  0  2  0  0  0  0  0  0  0  0  0
    6.9260  -13.3744   17.9189 N   0  0  0  0  0  0  0  0  0  0  0  0
    8.5424  -14.4975   19.3394 C   0  0  0  0  0  0  0  0  0  0  0  0
    7.6133  -15.1104   19.9046 O   0  0  0  0  0  0  0  0  0  0  0  0
   12.0853  -16.4466   18.6502 O   0  0  0  0  0  0  0  0  0  0  0  0
   10.9386  -17.0799   19.1217 C   0  0  0  0  0  0  0  0  0  0  0  0
   10.1899  -16.2334   20.1221 C   0  0  2  0  0  0  0  0  0  0  0  0
    9.8644  -14.9797   19.4711 N   0  0  0  0  0  0  0  0  0  0  0  0
   11.1325  -15.9860   21.2701 C   0  0  0  0  0  0  0  0  0  0  0  0
   11.9323  -15.0261   21.2177 O   0  0  0  0  0  0  0  0  0  0  0  0
   11.1056  -16.8342   22.3886 N   0  0  0  0  0  0  0  0  0  0  0  0
   12.0907  -16.6189   23.5297 C   0  0  1  0  0  0  0  0  0  0  0  0
   11.5082  -17.4472   24.6049 C   0  0  0  0  0  0  0  0  0  0  0  0
   12.1894  -17.8207   25.8258 C   0  0  0  0  0  0  0  0  0  0  0  0
   11.4032  -18.6021   26.8194 C   0  0  0  0  0  0  0  0  0  0  0  0
   12.2324  -18.8081   28.1104 C   0  0  0  0  0  0  0  0  0  0  0  0
   11.4403  -19.5806   29.0302 N   0  0  0  0  0  0  0  0  0  0  0  0
   13.3601  -17.0580   22.9236 C   0  0  0  0  0  0  0  0  0  0  0  0
   14.4443  -16.5108   23.3344 O   0  0  0  0  0  0  0  0  0  0  0  0
   13.5535  -18.0057   21.9537 O   0  0  0  0  0  0  0  0  0  0  0  0
  2  1  1  1
  2  4  1  0
  3  2  1  0
  4  5  2  0
  8  7  1  6
  7  6  1  0
  8 10  1  0
  9  4  1  0
  9  8  1  0
 10 11  2  0
 12 10  1  0
 12 13  1  0
 13 19  1  0
 14 15  1  0
 13 14  1  1
 16 15  1  0
 17 18  1  0
 17 16  1  0
 19 21  1  0
 20 19  2  0
M  END
$$$$
