ASK.pdb
     RDKit          3D

 21 20  0  0  1  0  0  0  0  0999 V2000
    7.4849  -12.7621   18.9857 C   0  0  0  0  0  0  0  0  0  0  0  0
    8.0313  -14.1744   19.1820 C   0  0  2  0  0  0  0  0  0  0  0  0
    6.9123  -15.0723   19.2036 N   0  0  0  0  0  0  0  0  0  0  0  0
    8.7750  -14.1614   20.4655 C   0  0  0  0  0  0  0  0  0  0  0  0
    9.9025  -13.6264   20.4922 O   0  0  0  0  0  0  0  0  0  0  0  0
    7.2740  -16.2286   23.7672 O   0  0  0  0  0  0  0  0  0  0  0  0
    8.0121  -15.0710   23.9983 C   0  0  0  0  0  0  0  0  0  0  0  0
    9.0010  -14.7948   22.8920 C   0  0  2  0  0  0  0  0  0  0  0  0
    8.2551  -14.7293   21.6506 N   0  0  0  0  0  0  0  0  0  0  0  0
    9.9504  -15.9632   22.8594 C   0  0  0  0  0  0  0  0  0  0  0  0
    9.7017  -16.9416   22.1213 O   0  0  0  0  0  0  0  0  0  0  0  0
   11.1056  -15.9443   23.6571 N   0  0  0  0  0  0  0  0  0  0  0  0
   12.0320  -17.1528   23.6818 C   0  0  1  0  0  0  0  0  0  0  0  0
   13.3331  -16.5557   23.3184 C   0  0  0  0  0  0  0  0  0  0  0  0
   14.5955  -17.2629   23.3045 C   0  0  0  0  0  0  0  0  0  0  0  0
   15.7941  -16.4857   22.8863 C   0  0  0  0  0  0  0  0  0  0  0  0
   17.0463  -17.3961   22.8899 C   0  0  0  0  0  0  0  0  0  0  0  0
   18.1733  -16.6054   22.4719 N   0  0  0  0  0  0  0  0  0  0  0  0
   11.8532  -17.6459   25.0589 C   0  0  0  0  0  0  0  0  0  0  0  0
   12.3111  -18.8084   25.3462 O   0  0  0  0  0  0  0  0  0  0  0  0
   11.2514  -17.0135   26.1145 O   0  0  0  0  0  0  0  0  0  0  0  0
  2  1  1  1
  2  4  1  0
  3  2  1  0
  4  5  2  0
  8  7  1  1
  7  6  1  0
  8 10  1  0
  9  4  1  0
  9  8  1  0
 10 11  2  0
 12 10  1  0
 12 13  1  0
 13 19  1  0
 14 15  1  0
 13 14  1  1
 16 15  1  0
 17 18  1  0
 17 16  1  0
 19 21  1  0
 20 19  2  0
M  END
$$$$
