ASK.pdb
     RDKit          3D

 21 20  0  0  1  0  0  0  0  0999 V2000
    7.2361  -14.4416   18.4512 C   0  0  0  0  0  0  0  0  0  0  0  0
    8.3734  -13.6535   19.0972 C   0  0  2  0  0  0  0  0  0  0  0  0
    8.7653  -12.6255   18.1761 N   0  0  0  0  0  0  0  0  0  0  0  0
    9.4614  -14.6270   19.3597 C   0  0  0  0  0  0  0  0  0  0  0  0
    9.1918  -15.6559   20.0132 O   0  0  0  0  0  0  0  0  0  0  0  0
   13.5166  -13.7241   18.5299 O   0  0  0  0  0  0  0  0  0  0  0  0
   13.0130  -14.9957   18.2691 C   0  0  0  0  0  0  0  0  0  0  0  0
   11.8659  -15.3533   19.1823 C   0  0  2  0  0  0  0  0  0  0  0  0
   10.7832  -14.4317   18.8991 N   0  0  0  0  0  0  0  0  0  0  0  0
   12.3564  -15.1512   20.5916 C   0  0  0  0  0  0  0  0  0  0  0  0
   12.2280  -14.0331   21.1368 O   0  0  0  0  0  0  0  0  0  0  0  0
   12.9531  -16.2188   21.2811 N   0  0  0  0  0  0  0  0  0  0  0  0
   13.3240  -16.0625   22.7499 C   0  0  1  0  0  0  0  0  0  0  0  0
   12.5269  -17.1298   23.3879 C   0  0  0  0  0  0  0  0  0  0  0  0
   12.6383  -17.5329   24.7732 C   0  0  0  0  0  0  0  0  0  0  0  0
   11.8927  -18.7563   25.1769 C   0  0  0  0  0  0  0  0  0  0  0  0
   11.9817  -18.9519   26.7101 C   0  0  0  0  0  0  0  0  0  0  0  0
   11.1859  -20.0983   27.0600 N   0  0  0  0  0  0  0  0  0  0  0  0
   14.7891  -16.2164   22.7125 C   0  0  0  0  0  0  0  0  0  0  0  0
   15.2942  -16.9469   21.7881 O   0  0  0  0  0  0  0  0  0  0  0  0
   15.7211  -15.6650   23.5514 O   0  0  0  0  0  0  0  0  0  0  0  0
  2  1  1  6
  2  4  1  0
  3  2  1  0
  4  5  2  0
  8  7  1  6
  7  6  1  0
  8 10  1  0
  9  4  1  0
  9  8  1  0
 10 11  2  0
 12 10  1  0
 12 13  1  0
 13 19  1  0
 14 15  1  0
 13 14  1  1
 16 15  1  0
 17 18  1  0
 17 16  1  0
 19 21  1  0
 20 19  2  0
M  END
$$$$
