ASK.pdb
     RDKit          3D

 21 20  0  0  1  0  0  0  0  0999 V2000
    6.8425  -15.0343   19.4965 C   0  0  0  0  0  0  0  0  0  0  0  0
    7.4250  -13.6953   19.9431 C   0  0  2  0  0  0  0  0  0  0  0  0
    8.1891  -13.1691   18.8486 N   0  0  0  0  0  0  0  0  0  0  0  0
    8.2604  -13.9787   21.1357 C   0  0  0  0  0  0  0  0  0  0  0  0
    9.4701  -14.2349   20.9652 O   0  0  0  0  0  0  0  0  0  0  0  0
    6.4854  -14.5285   24.8115 O   0  0  0  0  0  0  0  0  0  0  0  0
    7.7018  -13.8514   24.8306 C   0  0  0  0  0  0  0  0  0  0  0  0
    8.5547  -14.1767   23.6287 C   0  0  2  0  0  0  0  0  0  0  0  0
    7.7381  -13.9688   22.4490 N   0  0  0  0  0  0  0  0  0  0  0  0
    8.9281  -15.6309   23.7446 C   0  0  0  0  0  0  0  0  0  0  0  0
    8.1565  -16.5054   23.2931 O   0  0  0  0  0  0  0  0  0  0  0  0
   10.1381  -15.9925   24.3581 N   0  0  0  0  0  0  0  0  0  0  0  0
   10.5747  -17.4513   24.3766 C   0  0  1  0  0  0  0  0  0  0  0  0
   11.7722  -17.4294   23.5124 C   0  0  0  0  0  0  0  0  0  0  0  0
   11.7767  -17.0730   22.1099 C   0  0  0  0  0  0  0  0  0  0  0  0
   12.1956  -18.1316   21.1510 C   0  0  0  0  0  0  0  0  0  0  0  0
   11.9754  -17.6493   19.6966 C   0  0  0  0  0  0  0  0  0  0  0  0
   12.4214  -18.6906   18.8095 N   0  0  0  0  0  0  0  0  0  0  0  0
   10.7613  -17.6955   25.8179 C   0  0  0  0  0  0  0  0  0  0  0  0
   10.7596  -16.6835   26.6050 O   0  0  0  0  0  0  0  0  0  0  0  0
   10.9363  -18.8931   26.4592 O   0  0  0  0  0  0  0  0  0  0  0  0
  2  1  1  6
  2  4  1  0
  3  2  1  0
  4  5  2  0
  8  7  1  1
  7  6  1  0
  8 10  1  0
  9  4  1  0
  9  8  1  0
 10 11  2  0
 12 10  1  0
 12 13  1  0
 13 19  1  0
 14 15  1  0
 13 14  1  6
 16 15  1  0
 17 18  1  0
 17 16  1  0
 19 21  1  0
 20 19  2  0
M  END
$$$$
