ASK.pdb
     RDKit          3D

 21 20  0  0  1  0  0  0  0  0999 V2000
    6.8521  -14.7308   19.2922 C   0  0  0  0  0  0  0  0  0  0  0  0
    7.3811  -13.4162   19.8613 C   0  0  2  0  0  0  0  0  0  0  0  0
    8.0947  -12.7465   18.8120 N   0  0  0  0  0  0  0  0  0  0  0  0
    8.2555  -13.7761   21.0042 C   0  0  0  0  0  0  0  0  0  0  0  0
    9.4759  -13.9300   20.7918 O   0  0  0  0  0  0  0  0  0  0  0  0
    6.5934  -14.6515   24.6974 O   0  0  0  0  0  0  0  0  0  0  0  0
    7.7932  -13.9453   24.7004 C   0  0  0  0  0  0  0  0  0  0  0  0
    8.6118  -14.2062   23.4595 C   0  0  2  0  0  0  0  0  0  0  0  0
    7.7586  -13.9495   22.3159 N   0  0  0  0  0  0  0  0  0  0  0  0
    8.9986  -15.6611   23.4951 C   0  0  0  0  0  0  0  0  0  0  0  0
    8.2603  -16.5107   22.9501 O   0  0  0  0  0  0  0  0  0  0  0  0
   10.1837  -16.0511   24.1390 N   0  0  0  0  0  0  0  0  0  0  0  0
   10.5688  -17.5234   24.1957 C   0  0  1  0  0  0  0  0  0  0  0  0
   11.7272  -17.5780   23.2810 C   0  0  0  0  0  0  0  0  0  0  0  0
   12.4833  -18.7721   22.9702 C   0  0  0  0  0  0  0  0  0  0  0  0
   13.6570  -18.6064   22.0699 C   0  0  0  0  0  0  0  0  0  0  0  0
   14.4214  -19.9464   21.9402 C   0  0  0  0  0  0  0  0  0  0  0  0
   15.5287  -19.7429   21.0444 N   0  0  0  0  0  0  0  0  0  0  0  0
   10.8099  -17.7203   25.6360 C   0  0  0  0  0  0  0  0  0  0  0  0
   10.9344  -16.6790   26.3734 O   0  0  0  0  0  0  0  0  0  0  0  0
   10.9176  -18.8998   26.3242 O   0  0  0  0  0  0  0  0  0  0  0  0
  2  1  1  6
  2  4  1  0
  3  2  1  0
  4  5  2  0
  8  7  1  1
  7  6  1  0
  8 10  1  0
  9  4  1  0
  9  8  1  0
 10 11  2  0
 12 10  1  0
 12 13  1  0
 13 19  1  0
 14 15  1  0
 13 14  1  6
 16 15  1  0
 17 18  1  0
 17 16  1  0
 19 21  1  0
 20 19  2  0
M  END
$$$$
