ASK.pdb
     RDKit          3D

 21 20  0  0  1  0  0  0  0  0999 V2000
    4.9207  -19.1304   20.2723 C   0  0  0  0  0  0  0  0  0  0  0  0
    5.3921  -18.4495   18.9893 C   0  0  2  0  0  0  0  0  0  0  0  0
    5.6183  -19.4760   18.0126 N   0  0  0  0  0  0  0  0  0  0  0  0
    6.6314  -17.7122   19.3373 C   0  0  0  0  0  0  0  0  0  0  0  0
    7.7040  -18.3482   19.3932 O   0  0  0  0  0  0  0  0  0  0  0  0
    8.6076  -13.2965   20.0244 O   0  0  0  0  0  0  0  0  0  0  0  0
    7.4889  -14.1144   19.8910 C   0  0  0  0  0  0  0  0  0  0  0  0
    7.8504  -15.5797   19.8913 C   0  0  2  0  0  0  0  0  0  0  0  0
    6.6399  -16.3246   19.6057 N   0  0  0  0  0  0  0  0  0  0  0  0
    8.3376  -15.9044   21.2787 C   0  0  0  0  0  0  0  0  0  0  0  0
    7.5417  -15.8509   22.2419 O   0  0  0  0  0  0  0  0  0  0  0  0
    9.6798  -16.2639   21.4793 N   0  0  0  0  0  0  0  0  0  0  0  0
   10.1720  -16.6155   22.8769 C   0  0  1  0  0  0  0  0  0  0  0  0
   10.7987  -17.9358   22.6638 C   0  0  0  0  0  0  0  0  0  0  0  0
   10.1046  -19.2038   22.7287 C   0  0  0  0  0  0  0  0  0  0  0  0
   10.9080  -20.4229   22.4389 C   0  0  0  0  0  0  0  0  0  0  0  0
   10.0079  -21.6809   22.5033 C   0  0  0  0  0  0  0  0  0  0  0  0
   10.8455  -22.8375   22.3280 N   0  0  0  0  0  0  0  0  0  0  0  0
   11.0476  -15.4719   23.1885 C   0  0  0  0  0  0  0  0  0  0  0  0
   11.4274  -15.3180   24.4032 O   0  0  0  0  0  0  0  0  0  0  0  0
   11.5355  -14.5198   22.3330 O   0  0  0  0  0  0  0  0  0  0  0  0
  2  1  1  1
  2  4  1  0
  3  2  1  0
  4  5  2  0
  8  7  1  1
  7  6  1  0
  8 10  1  0
  9  4  1  0
  9  8  1  0
 10 11  2  0
 12 10  1  0
 12 13  1  0
 13 19  1  0
 14 15  1  0
 13 14  1  6
 16 15  1  0
 17 18  1  0
 17 16  1  0
 19 21  1  0
 20 19  2  0
M  END
$$$$
