ASK.pdb
     RDKit          3D

 21 20  0  0  1  0  0  0  0  0999 V2000
    7.9233  -19.7064   18.7196 C   0  0  0  0  0  0  0  0  0  0  0  0
    7.0100  -18.6363   19.3133 C   0  0  2  0  0  0  0  0  0  0  0  0
    6.3722  -17.9576   18.2218 N   0  0  0  0  0  0  0  0  0  0  0  0
    7.8803  -17.7382   20.1110 C   0  0  0  0  0  0  0  0  0  0  0  0
    8.8246  -18.2433   20.7525 O   0  0  0  0  0  0  0  0  0  0  0  0
    6.7943  -13.7847   20.5173 O   0  0  0  0  0  0  0  0  0  0  0  0
    8.1584  -14.0467   20.6124 C   0  0  0  0  0  0  0  0  0  0  0  0
    8.4379  -15.4661   21.0423 C   0  0  2  0  0  0  0  0  0  0  0  0
    7.6792  -16.3405   20.1697 N   0  0  0  0  0  0  0  0  0  0  0  0
    7.9396  -15.5951   22.4575 C   0  0  0  0  0  0  0  0  0  0  0  0
    6.7253  -15.8066   22.6686 O   0  0  0  0  0  0  0  0  0  0  0  0
    8.8415  -15.4770   23.5270 N   0  0  0  0  0  0  0  0  0  0  0  0
    8.3958  -15.8301   24.9397 C   0  0  1  0  0  0  0  0  0  0  0  0
    8.2466  -17.2974   24.8619 C   0  0  0  0  0  0  0  0  0  0  0  0
    7.6426  -18.1252   25.8836 C   0  0  0  0  0  0  0  0  0  0  0  0
    7.5346  -19.5804   25.5896 C   0  0  0  0  0  0  0  0  0  0  0  0
    6.8050  -20.3043   26.7473 C   0  0  0  0  0  0  0  0  0  0  0  0
    6.6403  -21.6847   26.3762 N   0  0  0  0  0  0  0  0  0  0  0  0
    9.4977  -15.2850   25.7523 C   0  0  0  0  0  0  0  0  0  0  0  0
   10.6335  -15.1078   25.1849 O   0  0  0  0  0  0  0  0  0  0  0  0
    9.4781  -14.9221   27.0730 O   0  0  0  0  0  0  0  0  0  0  0  0
  2  1  1  6
  2  4  1  0
  3  2  1  0
  4  5  2  0
  8  7  1  6
  7  6  1  0
  8 10  1  0
  9  4  1  0
  9  8  1  0
 10 11  2  0
 12 10  1  0
 12 13  1  0
 13 19  1  0
 14 15  1  0
 13 14  1  6
 16 15  1  0
 17 18  1  0
 17 16  1  0
 19 21  1  0
 20 19  2  0
M  END
$$$$
