HQL.pdb
     RDKit          3D

 28 28  0  0  1  0  0  0  0  0999 V2000
    8.8449  -17.0932   19.2982 N   0  0  0  0  0  0  0  0  0  0  0  0
    8.8417  -15.9442   20.2189 C   0  0  1  0  0  0  0  0  0  0  0  0
    7.6363  -15.1060   19.8039 C   0  0  0  0  0  0  0  0  0  0  0  0
    7.9108  -14.3885   18.5332 C   0  0  0  0  0  0  0  0  0  0  0  0
    8.3958  -13.0914   18.4301 C   0  0  0  0  0  0  0  0  0  0  0  0
    8.5160  -12.7761   17.1118 N   0  0  0  0  0  0  0  0  0  0  0  0
    8.1071  -13.8746   16.4442 C   0  0  0  0  0  0  0  0  0  0  0  0
    7.7483  -14.8312   17.2929 N   0  0  0  0  0  0  0  0  0  0  0  0
    8.5819  -16.5071   21.5783 C   0  0  0  0  0  0  0  0  0  0  0  0
    7.9090  -17.5689   21.7525 O   0  0  0  0  0  0  0  0  0  0  0  0
   12.4042  -19.4652   24.0730 N   0  0  0  0  0  0  0  0  0  0  0  0
   11.2756  -19.6391   24.9076 C   0  0  0  0  0  0  0  0  0  0  0  0
   11.0188  -20.7540   25.3974 O   0  0  0  0  0  0  0  0  0  0  0  0
   10.3776  -18.4803   25.2092 C   0  0  0  0  0  0  0  0  0  0  0  0
   10.0715  -17.7818   23.9198 C   0  0  0  0  0  0  0  0  0  0  0  0
    9.1584  -16.6049   24.0318 C   0  0  2  0  0  0  0  0  0  0  0  0
    9.0693  -15.8942   22.7622 N   0  0  0  0  0  0  0  0  0  0  0  0
    9.5882  -15.6919   25.1251 C   0  0  0  0  0  0  0  0  0  0  0  0
   10.7985  -15.4065   25.2857 O   0  0  0  0  0  0  0  0  0  0  0  0
    5.9030  -12.0842   26.5553 C   0  0  0  0  0  0  0  0  0  0  0  0
    7.2067  -12.7397   26.2247 C   0  0  1  0  0  0  0  0  0  0  0  0
    8.0304  -11.6365   25.5094 C   0  0  0  0  0  0  0  0  0  0  0  0
    7.9870  -13.1991   27.3987 C   0  0  0  0  0  0  0  0  0  0  0  0
    8.9731  -14.2768   27.1611 C   0  0  2  0  0  0  0  0  0  0  0  0
    8.6633  -15.1041   26.0303 N   0  0  0  0  0  0  0  0  0  0  0  0
    9.3883  -15.0084   28.3744 C   0  0  0  0  0  0  0  0  0  0  0  0
    9.3928  -16.3862   28.4850 O   0  0  0  0  0  0  0  0  0  0  0  0
    9.7639  -14.3741   29.3838 O   0  0  0  0  0  0  0  0  0  0  0  0
  2  9  1  0
  2  1  1  6
  3  2  1  0
  4  3  1  0
  4  5  2  0
  6  5  1  0
  7  6  1  0
  8  7  2  0
  8  4  1  0
  9 10  2  0
 12 11  1  0
 12 14  1  0
 13 12  2  0
 16 15  1  6
 15 14  1  0
 17 16  1  0
 17  9  1  0
 18 16  1  0
 19 18  2  0
 21 20  1  1
 21 22  1  0
 23 21  1  0
 24 25  1  0
 24 23  1  1
 25 18  1  0
 26 24  1  0
 27 26  1  0
 28 26  2  0
M  END
$$$$
