HQL.pdb
     RDKit          3D

 28 28  0  0  1  0  0  0  0  0999 V2000
    6.7690  -18.0606   19.4217 N   0  0  0  0  0  0  0  0  0  0  0  0
    7.2946  -16.8631   20.0983 C   0  0  1  0  0  0  0  0  0  0  0  0
    6.6531  -15.6837   19.3737 C   0  0  0  0  0  0  0  0  0  0  0  0
    7.4995  -15.2463   18.2348 C   0  0  0  0  0  0  0  0  0  0  0  0
    8.7063  -15.8228   17.8612 C   0  0  0  0  0  0  0  0  0  0  0  0
    9.1908  -15.1540   16.7797 N   0  0  0  0  0  0  0  0  0  0  0  0
    8.2803  -14.1938   16.5174 C   0  0  0  0  0  0  0  0  0  0  0  0
    7.2761  -14.2522   17.3847 N   0  0  0  0  0  0  0  0  0  0  0  0
    6.7599  -16.9103   21.4926 C   0  0  0  0  0  0  0  0  0  0  0  0
    5.5796  -17.2987   21.7506 O   0  0  0  0  0  0  0  0  0  0  0  0
    6.3780  -19.9744   26.1548 N   0  0  0  0  0  0  0  0  0  0  0  0
    7.6084  -19.9816   25.4571 C   0  0  0  0  0  0  0  0  0  0  0  0
    8.4845  -20.8219   25.7314 O   0  0  0  0  0  0  0  0  0  0  0  0
    7.8680  -18.9754   24.3800 C   0  0  0  0  0  0  0  0  0  0  0  0
    6.7005  -18.0380   24.3287 C   0  0  0  0  0  0  0  0  0  0  0  0
    7.0320  -16.6230   23.9836 C   0  0  2  0  0  0  0  0  0  0  0  0
    7.5340  -16.5255   22.6184 N   0  0  0  0  0  0  0  0  0  0  0  0
    8.0035  -16.0460   24.9515 C   0  0  0  0  0  0  0  0  0  0  0  0
    9.2350  -16.2424   24.8207 O   0  0  0  0  0  0  0  0  0  0  0  0
    5.9069  -11.5257   27.2585 C   0  0  0  0  0  0  0  0  0  0  0  0
    6.7278  -12.5757   26.5787 C   0  0  1  0  0  0  0  0  0  0  0  0
    7.5101  -11.8110   25.4786 C   0  0  0  0  0  0  0  0  0  0  0  0
    7.7170  -13.2530   27.4510 C   0  0  0  0  0  0  0  0  0  0  0  0
    8.4254  -14.4171   26.8737 C   0  0  2  0  0  0  0  0  0  0  0  0
    7.5927  -15.2535   26.0576 N   0  0  0  0  0  0  0  0  0  0  0  0
    9.2963  -15.1391   27.8224 C   0  0  0  0  0  0  0  0  0  0  0  0
   10.3644  -14.5645   28.4851 O   0  0  0  0  0  0  0  0  0  0  0  0
    9.0840  -16.3469   28.0641 O   0  0  0  0  0  0  0  0  0  0  0  0
  2  9  1  0
  2  1  1  6
  3  2  1  0
  4  3  1  0
  4  5  2  0
  6  5  1  0
  7  6  1  0
  8  7  2  0
  8  4  1  0
  9 10  2  0
 12 11  1  0
 12 14  1  0
 13 12  2  0
 16 15  1  1
 15 14  1  0
 17 16  1  0
 17  9  1  0
 18 16  1  0
 19 18  2  0
 21 20  1  1
 21 22  1  0
 23 21  1  0
 24 25  1  0
 24 23  1  1
 25 18  1  0
 26 24  1  0
 27 26  1  0
 28 26  2  0
M  END
$$$$
