HQL.pdb
     RDKit          3D

 28 28  0  0  1  0  0  0  0  0999 V2000
    9.4107  -16.6313   18.9209 N   0  0  0  0  0  0  0  0  0  0  0  0
    8.7506  -15.5101   19.6103 C   0  0  1  0  0  0  0  0  0  0  0  0
    7.5123  -15.2030   18.7736 C   0  0  0  0  0  0  0  0  0  0  0  0
    7.8994  -14.6791   17.4392 C   0  0  0  0  0  0  0  0  0  0  0  0
    8.6735  -13.5488   17.2122 C   0  0  0  0  0  0  0  0  0  0  0  0
    8.8138  -13.3810   15.8691 N   0  0  0  0  0  0  0  0  0  0  0  0
    8.1308  -14.4008   15.3095 C   0  0  0  0  0  0  0  0  0  0  0  0
    7.5887  -15.1705   16.2464 N   0  0  0  0  0  0  0  0  0  0  0  0
    8.3078  -16.0441   20.9335 C   0  0  0  0  0  0  0  0  0  0  0  0
    7.3502  -16.8698   21.0426 O   0  0  0  0  0  0  0  0  0  0  0  0
    9.7118  -20.0662   24.5595 N   0  0  0  0  0  0  0  0  0  0  0  0
   10.7964  -19.2444   24.1739 C   0  0  0  0  0  0  0  0  0  0  0  0
   11.9686  -19.6330   24.3281 O   0  0  0  0  0  0  0  0  0  0  0  0
   10.5428  -17.8961   23.5757 C   0  0  0  0  0  0  0  0  0  0  0  0
    9.0607  -17.7108   23.4593 C   0  0  0  0  0  0  0  0  0  0  0  0
    8.5949  -16.2919   23.4271 C   0  0  2  0  0  0  0  0  0  0  0  0
    8.9269  -15.6653   22.1534 N   0  0  0  0  0  0  0  0  0  0  0  0
    9.1552  -15.5150   24.5656 C   0  0  0  0  0  0  0  0  0  0  0  0
   10.3787  -15.2461   24.6200 O   0  0  0  0  0  0  0  0  0  0  0  0
    5.8398  -11.6696   26.4473 C   0  0  0  0  0  0  0  0  0  0  0  0
    6.9536  -12.5632   26.0006 C   0  0  1  0  0  0  0  0  0  0  0  0
    7.9160  -11.6301   25.2194 C   0  0  0  0  0  0  0  0  0  0  0  0
    7.7245  -13.1926   27.0995 C   0  0  0  0  0  0  0  0  0  0  0  0
    8.7520  -14.1833   26.7080 C   0  0  2  0  0  0  0  0  0  0  0  0
    8.3451  -15.0438   25.6343 N   0  0  0  0  0  0  0  0  0  0  0  0
    9.4103  -14.8660   27.8396 C   0  0  0  0  0  0  0  0  0  0  0  0
   10.0957  -14.2122   28.8462 O   0  0  0  0  0  0  0  0  0  0  0  0
    9.3661  -16.1122   27.9235 O   0  0  0  0  0  0  0  0  0  0  0  0
  2  9  1  0
  2  1  1  6
  3  2  1  0
  4  3  1  0
  4  5  2  0
  6  5  1  0
  7  6  1  0
  8  7  2  0
  8  4  1  0
  9 10  2  0
 12 11  1  0
 12 14  1  0
 13 12  2  0
 16 15  1  6
 15 14  1  0
 17 16  1  0
 17  9  1  0
 18 16  1  0
 19 18  2  0
 21 20  1  1
 21 22  1  0
 23 21  1  0
 24 25  1  0
 24 23  1  1
 25 18  1  0
 26 24  1  0
 27 26  1  0
 28 26  2  0
M  END
$$$$
