HQL.pdb
     RDKit          3D

 28 28  0  0  1  0  0  0  0  0999 V2000
    9.7403  -15.7185   19.3872 N   0  0  0  0  0  0  0  0  0  0  0  0
    8.5933  -14.9318   19.8705 C   0  0  1  0  0  0  0  0  0  0  0  0
    7.4657  -15.2277   18.8864 C   0  0  0  0  0  0  0  0  0  0  0  0
    7.7604  -14.6316   17.5587 C   0  0  0  0  0  0  0  0  0  0  0  0
    8.5724  -15.1976   16.5849 C   0  0  0  0  0  0  0  0  0  0  0  0
    8.6073  -14.3638   15.5099 N   0  0  0  0  0  0  0  0  0  0  0  0
    7.8245  -13.3177   15.8451 C   0  0  0  0  0  0  0  0  0  0  0  0
    7.3226  -13.4808   17.0640 N   0  0  0  0  0  0  0  0  0  0  0  0
    8.2275  -15.5110   21.1983 C   0  0  0  0  0  0  0  0  0  0  0  0
    7.1700  -15.1744   21.8139 O   0  0  0  0  0  0  0  0  0  0  0  0
    8.8946  -21.4610   23.6727 N   0  0  0  0  0  0  0  0  0  0  0  0
    9.3096  -20.7013   22.5541 C   0  0  0  0  0  0  0  0  0  0  0  0
   10.1878  -21.1360   21.7868 O   0  0  0  0  0  0  0  0  0  0  0  0
    8.6944  -19.3641   22.2831 C   0  0  0  0  0  0  0  0  0  0  0  0
    9.1879  -18.4063   23.3240 C   0  0  0  0  0  0  0  0  0  0  0  0
    8.7068  -16.9997   23.1771 C   0  0  2  0  0  0  0  0  0  0  0  0
    9.0356  -16.4738   21.8579 N   0  0  0  0  0  0  0  0  0  0  0  0
    9.2555  -16.1279   24.2507 C   0  0  0  0  0  0  0  0  0  0  0  0
   10.4440  -15.7304   24.2112 O   0  0  0  0  0  0  0  0  0  0  0  0
    5.8933  -12.5983   26.7921 C   0  0  0  0  0  0  0  0  0  0  0  0
    7.0254  -13.3391   26.1533 C   0  0  1  0  0  0  0  0  0  0  0  0
    7.8961  -12.2353   25.4973 C   0  0  0  0  0  0  0  0  0  0  0  0
    7.8848  -14.0943   27.0961 C   0  0  0  0  0  0  0  0  0  0  0  0
    8.9257  -14.9604   26.4988 C   0  0  2  0  0  0  0  0  0  0  0  0
    8.4728  -15.7061   25.3596 N   0  0  0  0  0  0  0  0  0  0  0  0
    9.7172  -15.7337   27.4763 C   0  0  0  0  0  0  0  0  0  0  0  0
   10.4664  -15.1655   28.4894 O   0  0  0  0  0  0  0  0  0  0  0  0
    9.7348  -16.9818   27.4125 O   0  0  0  0  0  0  0  0  0  0  0  0
  2  9  1  0
  2  1  1  6
  3  2  1  0
  4  3  1  0
  4  5  2  0
  6  5  1  0
  7  6  1  0
  8  7  2  0
  8  4  1  0
  9 10  2  0
 12 11  1  0
 12 14  1  0
 13 12  2  0
 16 15  1  6
 15 14  1  0
 17 16  1  0
 17  9  1  0
 18 16  1  0
 19 18  2  0
 21 20  1  1
 21 22  1  0
 23 21  1  0
 24 25  1  0
 24 23  1  1
 25 18  1  0
 26 24  1  0
 27 26  1  0
 28 26  2  0
M  END
$$$$
