HQL.pdb
     RDKit          3D

 28 28  0  0  1  0  0  0  0  0999 V2000
    8.6812  -16.2477   20.0293 N   0  0  0  0  0  0  0  0  0  0  0  0
    8.0261  -15.0329   20.5422 C   0  0  1  0  0  0  0  0  0  0  0  0
    6.8547  -14.7840   19.5968 C   0  0  0  0  0  0  0  0  0  0  0  0
    7.3429  -14.4829   18.2271 C   0  0  0  0  0  0  0  0  0  0  0  0
    8.2539  -13.4879   17.8983 C   0  0  0  0  0  0  0  0  0  0  0  0
    8.4546  -13.5102   16.5525 N   0  0  0  0  0  0  0  0  0  0  0  0
    7.6713  -14.5072   16.0921 C   0  0  0  0  0  0  0  0  0  0  0  0
    7.0120  -15.0833   17.0910 N   0  0  0  0  0  0  0  0  0  0  0  0
    7.4819  -15.3949   21.8857 C   0  0  0  0  0  0  0  0  0  0  0  0
    6.7069  -14.6241   22.5307 O   0  0  0  0  0  0  0  0  0  0  0  0
    7.1166  -21.1056   24.2363 N   0  0  0  0  0  0  0  0  0  0  0  0
    6.7115  -20.3869   25.3852 C   0  0  0  0  0  0  0  0  0  0  0  0
    6.3410  -20.9902   26.4088 O   0  0  0  0  0  0  0  0  0  0  0  0
    6.7245  -18.8903   25.3795 C   0  0  0  0  0  0  0  0  0  0  0  0
    7.2050  -18.4350   24.0356 C   0  0  0  0  0  0  0  0  0  0  0  0
    7.3017  -16.9548   23.8595 C   0  0  2  0  0  0  0  0  0  0  0  0
    7.7940  -16.6214   22.5285 N   0  0  0  0  0  0  0  0  0  0  0  0
    8.1552  -16.3417   24.9128 C   0  0  0  0  0  0  0  0  0  0  0  0
    9.3975  -16.5115   24.9130 O   0  0  0  0  0  0  0  0  0  0  0  0
    6.4079  -11.5312   26.7201 C   0  0  0  0  0  0  0  0  0  0  0  0
    7.1862  -12.7264   26.2681 C   0  0  1  0  0  0  0  0  0  0  0  0
    8.3720  -12.1392   25.4582 C   0  0  0  0  0  0  0  0  0  0  0  0
    7.7494  -13.5521   27.3632 C   0  0  0  0  0  0  0  0  0  0  0  0
    8.3483  -14.8493   26.9771 C   0  0  2  0  0  0  0  0  0  0  0  0
    7.6151  -15.5432   25.9573 N   0  0  0  0  0  0  0  0  0  0  0  0
    8.7841  -15.6871   28.1119 C   0  0  0  0  0  0  0  0  0  0  0  0
    9.8580  -15.3873   28.9289 O   0  0  0  0  0  0  0  0  0  0  0  0
    8.1673  -16.7410   28.3784 O   0  0  0  0  0  0  0  0  0  0  0  0
  2  9  1  0
  2  1  1  6
  3  2  1  0
  4  3  1  0
  4  5  2  0
  6  5  1  0
  7  6  1  0
  8  7  2  0
  8  4  1  0
  9 10  2  0
 12 11  1  0
 12 14  1  0
 13 12  2  0
 16 15  1  1
 15 14  1  0
 17 16  1  0
 17  9  1  0
 18 16  1  0
 19 18  2  0
 21 20  1  1
 21 22  1  0
 23 21  1  0
 24 25  1  0
 24 23  1  1
 25 18  1  0
 26 24  1  0
 27 26  1  0
 28 26  2  0
M  END
$$$$
