HQL.pdb
     RDKit          3D

 28 28  0  0  1  0  0  0  0  0999 V2000
    6.6376  -16.7697   19.9298 N   0  0  0  0  0  0  0  0  0  0  0  0
    7.7937  -16.0496   20.4891 C   0  0  1  0  0  0  0  0  0  0  0  0
    7.5240  -14.5768   20.1961 C   0  0  0  0  0  0  0  0  0  0  0  0
    7.8353  -14.2598   18.7792 C   0  0  0  0  0  0  0  0  0  0  0  0
    7.7253  -13.0062   18.1923 C   0  0  0  0  0  0  0  0  0  0  0  0
    8.0915  -13.1048   16.8854 N   0  0  0  0  0  0  0  0  0  0  0  0
    8.4145  -14.4017   16.7029 C   0  0  0  0  0  0  0  0  0  0  0  0
    8.2610  -15.0851   17.8314 N   0  0  0  0  0  0  0  0  0  0  0  0
    7.7323  -16.2577   21.9673 C   0  0  0  0  0  0  0  0  0  0  0  0
    6.6625  -16.0897   22.6292 O   0  0  0  0  0  0  0  0  0  0  0  0
   10.7919  -20.5761   24.8268 N   0  0  0  0  0  0  0  0  0  0  0  0
   10.1930  -20.0043   25.9736 C   0  0  0  0  0  0  0  0  0  0  0  0
   10.3094  -20.5513   27.0854 O   0  0  0  0  0  0  0  0  0  0  0  0
    9.4115  -18.7331   25.8591 C   0  0  0  0  0  0  0  0  0  0  0  0
    9.4734  -18.2764   24.4336 C   0  0  0  0  0  0  0  0  0  0  0  0
    8.7750  -16.9880   24.1447 C   0  0  2  0  0  0  0  0  0  0  0  0
    8.8625  -16.6564   22.7278 N   0  0  0  0  0  0  0  0  0  0  0  0
    9.3122  -15.8839   24.9850 C   0  0  0  0  0  0  0  0  0  0  0  0
   10.4415  -15.3908   24.7532 O   0  0  0  0  0  0  0  0  0  0  0  0
    5.9578  -12.0941   26.9898 C   0  0  0  0  0  0  0  0  0  0  0  0
    7.1068  -12.8918   26.4589 C   0  0  1  0  0  0  0  0  0  0  0  0
    7.9139  -11.8890   25.5929 C   0  0  0  0  0  0  0  0  0  0  0  0
    8.0190  -13.4332   27.4947 C   0  0  0  0  0  0  0  0  0  0  0  0
    9.0583  -14.3814   27.0353 C   0  0  2  0  0  0  0  0  0  0  0  0
    8.5841  -15.3384   26.0770 N   0  0  0  0  0  0  0  0  0  0  0  0
    9.8993  -14.9408   28.1123 C   0  0  0  0  0  0  0  0  0  0  0  0
   10.1302  -16.2916   28.2925 O   0  0  0  0  0  0  0  0  0  0  0  0
   10.4510  -14.1742   28.9308 O   0  0  0  0  0  0  0  0  0  0  0  0
  2  9  1  0
  2  1  1  6
  3  2  1  0
  4  3  1  0
  4  5  2  0
  6  5  1  0
  7  6  1  0
  8  7  2  0
  8  4  1  0
  9 10  2  0
 12 11  1  0
 12 14  1  0
 13 12  2  0
 16 15  1  6
 15 14  1  0
 17 16  1  0
 17  9  1  0
 18 16  1  0
 19 18  2  0
 21 20  1  1
 21 22  1  0
 23 21  1  0
 24 25  1  0
 24 23  1  1
 25 18  1  0
 26 24  1  0
 27 26  1  0
 28 26  2  0
M  END
$$$$
