HQL.pdb
     RDKit          3D

 28 28  0  0  1  0  0  0  0  0999 V2000
    9.0176  -16.1160   19.9248 N   0  0  0  0  0  0  0  0  0  0  0  0
    8.2265  -14.9953   20.4596 C   0  0  1  0  0  0  0  0  0  0  0  0
    7.0737  -14.8177   19.4762 C   0  0  0  0  0  0  0  0  0  0  0  0
    7.5873  -14.4907   18.1218 C   0  0  0  0  0  0  0  0  0  0  0  0
    8.2807  -13.3369   17.7812 C   0  0  0  0  0  0  0  0  0  0  0  0
    8.5836  -13.3876   16.4554 N   0  0  0  0  0  0  0  0  0  0  0  0
    8.0751  -14.5581   16.0184 C   0  0  0  0  0  0  0  0  0  0  0  0
    7.4837  -15.2111   17.0123 N   0  0  0  0  0  0  0  0  0  0  0  0
    7.6693  -15.4697   21.7622 C   0  0  0  0  0  0  0  0  0  0  0  0
    6.5995  -14.9945   22.2524 O   0  0  0  0  0  0  0  0  0  0  0  0
    6.1217  -20.0408   25.1088 N   0  0  0  0  0  0  0  0  0  0  0  0
    6.1934  -20.0280   23.6963 C   0  0  0  0  0  0  0  0  0  0  0  0
    5.4163  -20.7249   23.0187 O   0  0  0  0  0  0  0  0  0  0  0  0
    7.2080  -19.1739   23.0025 C   0  0  0  0  0  0  0  0  0  0  0  0
    7.9094  -18.3508   24.0393 C   0  0  0  0  0  0  0  0  0  0  0  0
    7.8121  -16.8718   23.8540 C   0  0  2  0  0  0  0  0  0  0  0  0
    8.2969  -16.4807   22.5359 N   0  0  0  0  0  0  0  0  0  0  0  0
    8.5419  -16.1452   24.9278 C   0  0  0  0  0  0  0  0  0  0  0  0
    9.7947  -16.1609   24.9776 O   0  0  0  0  0  0  0  0  0  0  0  0
    6.1836  -11.5988   26.7675 C   0  0  0  0  0  0  0  0  0  0  0  0
    7.1362  -12.6634   26.3227 C   0  0  1  0  0  0  0  0  0  0  0  0
    8.2922  -11.8922   25.6328 C   0  0  0  0  0  0  0  0  0  0  0  0
    7.7211  -13.4718   27.4192 C   0  0  0  0  0  0  0  0  0  0  0  0
    8.4683  -14.6866   27.0237 C   0  0  2  0  0  0  0  0  0  0  0  0
    7.8675  -15.4061   25.9373 N   0  0  0  0  0  0  0  0  0  0  0  0
    8.9213  -15.5241   28.1521 C   0  0  0  0  0  0  0  0  0  0  0  0
    9.7909  -15.0935   29.1365 O   0  0  0  0  0  0  0  0  0  0  0  0
    8.5142  -16.7014   28.2540 O   0  0  0  0  0  0  0  0  0  0  0  0
  2  9  1  0
  2  1  1  6
  3  2  1  0
  4  3  1  0
  4  5  2  0
  6  5  1  0
  7  6  1  0
  8  7  2  0
  8  4  1  0
  9 10  2  0
 12 11  1  0
 12 14  1  0
 13 12  2  0
 16 15  1  1
 15 14  1  0
 17 16  1  0
 17  9  1  0
 18 16  1  0
 19 18  2  0
 21 20  1  1
 21 22  1  0
 23 21  1  0
 24 25  1  0
 24 23  1  1
 25 18  1  0
 26 24  1  0
 27 26  1  0
 28 26  2  0
M  END
$$$$
