HQL.pdb
     RDKit          3D

 28 28  0  0  1  0  0  0  0  0999 V2000
    4.8690  -17.2920   22.7138 N   0  0  0  0  0  0  0  0  0  0  0  0
    5.7207  -18.1619   21.8857 C   0  0  1  0  0  0  0  0  0  0  0  0
    4.9800  -18.2962   20.5587 C   0  0  0  0  0  0  0  0  0  0  0  0
    3.5962  -18.7874   20.7795 C   0  0  0  0  0  0  0  0  0  0  0  0
    3.0222  -19.0465   22.0170 C   0  0  0  0  0  0  0  0  0  0  0  0
    1.7483  -19.4836   21.8220 N   0  0  0  0  0  0  0  0  0  0  0  0
    1.5721  -19.4822   20.4847 C   0  0  0  0  0  0  0  0  0  0  0  0
    2.6730  -19.0675   19.8683 N   0  0  0  0  0  0  0  0  0  0  0  0
    6.9824  -17.3975   21.6489 C   0  0  0  0  0  0  0  0  0  0  0  0
    7.9923  -17.9191   21.0844 O   0  0  0  0  0  0  0  0  0  0  0  0
    9.3418  -12.3061   19.4677 N   0  0  0  0  0  0  0  0  0  0  0  0
    8.4696  -13.2687   18.9080 C   0  0  0  0  0  0  0  0  0  0  0  0
    8.1518  -13.2091   17.7062 O   0  0  0  0  0  0  0  0  0  0  0  0
    7.9197  -14.3703   19.7590 C   0  0  0  0  0  0  0  0  0  0  0  0
    8.3811  -14.1446   21.1663 C   0  0  0  0  0  0  0  0  0  0  0  0
    8.4266  -15.3646   22.0271 C   0  0  2  0  0  0  0  0  0  0  0  0
    7.1352  -16.0409   22.0377 N   0  0  0  0  0  0  0  0  0  0  0  0
    8.8660  -15.0325   23.4092 C   0  0  0  0  0  0  0  0  0  0  0  0
    9.9582  -14.4519   23.6144 O   0  0  0  0  0  0  0  0  0  0  0  0
    5.7170  -12.5543   26.6754 C   0  0  0  0  0  0  0  0  0  0  0  0
    6.9418  -13.1328   26.0399 C   0  0  1  0  0  0  0  0  0  0  0  0
    8.0185  -12.0249   26.1827 C   0  0  0  0  0  0  0  0  0  0  0  0
    7.4619  -14.3577   26.6935 C   0  0  0  0  0  0  0  0  0  0  0  0
    8.4450  -15.1544   25.9259 C   0  0  2  0  0  0  0  0  0  0  0  0
    8.0823  -15.3507   24.5515 N   0  0  0  0  0  0  0  0  0  0  0  0
    8.9344  -16.3617   26.6207 C   0  0  0  0  0  0  0  0  0  0  0  0
    9.3964  -16.3723   27.9233 O   0  0  0  0  0  0  0  0  0  0  0  0
    8.9469  -17.4596   26.0234 O   0  0  0  0  0  0  0  0  0  0  0  0
  2  9  1  0
  2  1  1  1
  3  2  1  0
  4  3  1  0
  4  5  2  0
  6  5  1  0
  7  6  1  0
  8  7  2  0
  8  4  1  0
  9 10  2  0
 12 11  1  0
 12 14  1  0
 13 12  2  0
 16 15  1  6
 15 14  1  0
 17 16  1  0
 17  9  1  0
 18 16  1  0
 19 18  2  0
 21 20  1  1
 21 22  1  0
 23 21  1  0
 24 25  1  0
 24 23  1  1
 25 18  1  0
 26 24  1  0
 27 26  1  0
 28 26  2  0
M  END
$$$$
