HQL.pdb
     RDKit          3D

 28 28  0  0  1  0  0  0  0  0999 V2000
    9.4189  -15.6743   19.5180 N   0  0  0  0  0  0  0  0  0  0  0  0
    8.5779  -14.6969   20.2290 C   0  0  1  0  0  0  0  0  0  0  0  0
    7.2551  -14.6838   19.4691 C   0  0  0  0  0  0  0  0  0  0  0  0
    7.4793  -14.3752   18.0340 C   0  0  0  0  0  0  0  0  0  0  0  0
    7.9971  -13.1861   17.5380 C   0  0  0  0  0  0  0  0  0  0  0  0
    8.0526  -13.2690   16.1809 N   0  0  0  0  0  0  0  0  0  0  0  0
    7.5734  -14.4932   15.8790 C   0  0  0  0  0  0  0  0  0  0  0  0
    7.2338  -15.1480   16.9836 N   0  0  0  0  0  0  0  0  0  0  0  0
    8.3384  -15.2714   21.5873 C   0  0  0  0  0  0  0  0  0  0  0  0
    7.3306  -14.9499   22.2885 O   0  0  0  0  0  0  0  0  0  0  0  0
   10.5947  -20.6368   23.6068 N   0  0  0  0  0  0  0  0  0  0  0  0
   10.0614  -20.1819   24.8353 C   0  0  0  0  0  0  0  0  0  0  0  0
   10.1129  -20.9003   25.8502 O   0  0  0  0  0  0  0  0  0  0  0  0
    9.4281  -18.8288   24.9251 C   0  0  0  0  0  0  0  0  0  0  0  0
    9.5492  -18.1693   23.5854 C   0  0  0  0  0  0  0  0  0  0  0  0
    8.9705  -16.7951   23.4952 C   0  0  2  0  0  0  0  0  0  0  0  0
    9.2188  -16.2124   22.1822 N   0  0  0  0  0  0  0  0  0  0  0  0
    9.4954  -15.9177   24.5760 C   0  0  0  0  0  0  0  0  0  0  0  0
   10.6910  -15.5399   24.5735 O   0  0  0  0  0  0  0  0  0  0  0  0
    5.9221  -12.4171   26.8022 C   0  0  0  0  0  0  0  0  0  0  0  0
    7.1478  -13.0739   26.2501 C   0  0  1  0  0  0  0  0  0  0  0  0
    7.9808  -11.9100   25.6514 C   0  0  0  0  0  0  0  0  0  0  0  0
    7.9902  -13.7640   27.2562 C   0  0  0  0  0  0  0  0  0  0  0  0
    9.0807  -14.6190   26.7364 C   0  0  2  0  0  0  0  0  0  0  0  0
    8.6813  -15.4682   25.6509 N   0  0  0  0  0  0  0  0  0  0  0  0
    9.8945  -15.2778   27.7773 C   0  0  0  0  0  0  0  0  0  0  0  0
   10.1555  -16.6347   27.8135 O   0  0  0  0  0  0  0  0  0  0  0  0
   10.3929  -14.5968   28.6992 O   0  0  0  0  0  0  0  0  0  0  0  0
  2  9  1  0
  2  1  1  6
  3  2  1  0
  4  3  1  0
  4  5  2  0
  6  5  1  0
  7  6  1  0
  8  7  2  0
  8  4  1  0
  9 10  2  0
 12 11  1  0
 12 14  1  0
 13 12  2  0
 16 15  1  6
 15 14  1  0
 17 16  1  0
 17  9  1  0
 18 16  1  0
 19 18  2  0
 21 20  1  1
 21 22  1  0
 23 21  1  0
 24 25  1  0
 24 23  1  1
 25 18  1  0
 26 24  1  0
 27 26  1  0
 28 26  2  0
M  END
$$$$
