HQL.pdb
     RDKit          3D

 28 28  0  0  1  0  0  0  0  0999 V2000
    9.7959  -18.1948   19.4443 N   0  0  0  0  0  0  0  0  0  0  0  0
   10.5620  -17.8773   20.6609 C   0  0  1  0  0  0  0  0  0  0  0  0
   11.4179  -16.6707   20.2878 C   0  0  0  0  0  0  0  0  0  0  0  0
   12.5847  -17.0897   19.4706 C   0  0  0  0  0  0  0  0  0  0  0  0
   13.7161  -17.7335   19.9540 C   0  0  0  0  0  0  0  0  0  0  0  0
   14.5680  -17.9529   18.9157 N   0  0  0  0  0  0  0  0  0  0  0  0
   13.9466  -17.4447   17.8317 C   0  0  0  0  0  0  0  0  0  0  0  0
   12.7675  -16.9326   18.1657 N   0  0  0  0  0  0  0  0  0  0  0  0
    9.5569  -17.4484   21.6798 C   0  0  0  0  0  0  0  0  0  0  0  0
    8.5483  -16.7400   21.3772 O   0  0  0  0  0  0  0  0  0  0  0  0
    7.1875  -21.0681   25.6477 N   0  0  0  0  0  0  0  0  0  0  0  0
    6.5500  -19.8981   26.1225 C   0  0  0  0  0  0  0  0  0  0  0  0
    5.5925  -19.9780   26.9135 O   0  0  0  0  0  0  0  0  0  0  0  0
    7.0227  -18.5501   25.6757 C   0  0  0  0  0  0  0  0  0  0  0  0
    8.0802  -18.7505   24.6337 C   0  0  0  0  0  0  0  0  0  0  0  0
    8.6177  -17.4991   24.0201 C   0  0  2  0  0  0  0  0  0  0  0  0
    9.6623  -17.8037   23.0500 N   0  0  0  0  0  0  0  0  0  0  0  0
    9.1141  -16.5590   25.0609 C   0  0  0  0  0  0  0  0  0  0  0  0
   10.2824  -16.6522   25.5067 O   0  0  0  0  0  0  0  0  0  0  0  0
    6.9964  -12.9504   24.7001 C   0  0  0  0  0  0  0  0  0  0  0  0
    7.3844  -12.5618   26.0918 C   0  0  1  0  0  0  0  0  0  0  0  0
    6.2042  -11.6924   26.6000 C   0  0  0  0  0  0  0  0  0  0  0  0
    7.5491  -13.6969   27.0312 C   0  0  0  0  0  0  0  0  0  0  0  0
    8.6128  -14.6751   26.7118 C   0  0  2  0  0  0  0  0  0  0  0  0
    8.3027  -15.5216   25.5955 N   0  0  0  0  0  0  0  0  0  0  0  0
    9.1802  -15.3708   27.8840 C   0  0  0  0  0  0  0  0  0  0  0  0
   10.1953  -14.8608   28.6713 O   0  0  0  0  0  0  0  0  0  0  0  0
    8.7398  -16.4934   28.2127 O   0  0  0  0  0  0  0  0  0  0  0  0
  2  9  1  0
  2  1  1  6
  3  2  1  0
  4  3  1  0
  4  5  2  0
  6  5  1  0
  7  6  1  0
  8  7  2  0
  8  4  1  0
  9 10  2  0
 12 11  1  0
 12 14  1  0
 13 12  2  0
 16 15  1  1
 15 14  1  0
 17 16  1  0
 17  9  1  0
 18 16  1  0
 19 18  2  0
 21 20  1  6
 21 22  1  0
 23 21  1  0
 24 25  1  0
 24 23  1  1
 25 18  1  0
 26 24  1  0
 27 26  1  0
 28 26  2  0
M  END
$$$$
