HQL.pdb
     RDKit          3D

 28 28  0  0  1  0  0  0  0  0999 V2000
    8.0007  -16.9912   20.3078 N   0  0  0  0  0  0  0  0  0  0  0  0
    8.5400  -15.9435   21.1907 C   0  0  1  0  0  0  0  0  0  0  0  0
    7.5249  -14.8064   21.1239 C   0  0  0  0  0  0  0  0  0  0  0  0
    7.9420  -13.7909   20.1240 C   0  0  0  0  0  0  0  0  0  0  0  0
    9.0554  -13.8835   19.2996 C   0  0  0  0  0  0  0  0  0  0  0  0
    9.1151  -12.7674   18.5233 N   0  0  0  0  0  0  0  0  0  0  0  0
    8.0489  -12.0246   18.8850 C   0  0  0  0  0  0  0  0  0  0  0  0
    7.3537  -12.6367   19.8369 N   0  0  0  0  0  0  0  0  0  0  0  0
    8.5191  -16.5169   22.5702 C   0  0  0  0  0  0  0  0  0  0  0  0
    7.5006  -17.1113   23.0392 O   0  0  0  0  0  0  0  0  0  0  0  0
   13.4484  -19.2917   24.3090 N   0  0  0  0  0  0  0  0  0  0  0  0
   12.6966  -19.6031   25.4660 C   0  0  0  0  0  0  0  0  0  0  0  0
   13.1374  -20.4072   26.3074 O   0  0  0  0  0  0  0  0  0  0  0  0
   11.3604  -18.9666   25.6884 C   0  0  0  0  0  0  0  0  0  0  0  0
   11.1191  -17.9922   24.5764 C   0  0  0  0  0  0  0  0  0  0  0  0
    9.7883  -17.3141   24.5988 C   0  0  2  0  0  0  0  0  0  0  0  0
    9.6336  -16.4360   23.4454 N   0  0  0  0  0  0  0  0  0  0  0  0
    9.5860  -16.5666   25.8692 C   0  0  0  0  0  0  0  0  0  0  0  0
    9.6058  -17.1593   26.9739 O   0  0  0  0  0  0  0  0  0  0  0  0
    5.6817  -12.8860   26.1582 C   0  0  0  0  0  0  0  0  0  0  0  0
    7.0864  -13.3645   25.9674 C   0  0  1  0  0  0  0  0  0  0  0  0
    7.8709  -12.1065   25.5103 C   0  0  0  0  0  0  0  0  0  0  0  0
    7.7379  -13.8848   27.1933 C   0  0  0  0  0  0  0  0  0  0  0  0
    9.1363  -14.3499   27.0566 C   0  0  2  0  0  0  0  0  0  0  0  0
    9.3638  -15.1629   25.8964 N   0  0  0  0  0  0  0  0  0  0  0  0
    9.7391  -14.8601   28.3041 C   0  0  0  0  0  0  0  0  0  0  0  0
   10.3562  -16.0915   28.4194 O   0  0  0  0  0  0  0  0  0  0  0  0
    9.7061  -14.1619   29.3403 O   0  0  0  0  0  0  0  0  0  0  0  0
  2  9  1  0
  2  1  1  6
  3  2  1  0
  4  3  1  0
  4  5  2  0
  6  5  1  0
  7  6  1  0
  8  7  2  0
  8  4  1  0
  9 10  2  0
 12 11  1  0
 12 14  1  0
 13 12  2  0
 16 15  1  1
 15 14  1  0
 17 16  1  0
 17  9  1  0
 18 16  1  0
 19 18  2  0
 21 20  1  1
 21 22  1  0
 23 21  1  0
 24 25  1  0
 24 23  1  1
 25 18  1  0
 26 24  1  0
 27 26  1  0
 28 26  2  0
M  END
$$$$
