LMC.pdb
     RDKit          3D

 23 22  0  0  1  0  0  0  0  0999 V2000
   20.5491  -13.3112  -20.2048 C   0  0  0  0  0  0  0  0  0  0  0  0
   19.3346  -13.4476  -19.3213 C   0  0  2  0  0  0  0  0  0  0  0  0
   18.0988  -13.1264  -20.0933 C   0  0  0  0  0  0  0  0  0  0  0  0
   19.4643  -12.5652  -18.0748 C   0  0  0  0  0  0  0  0  0  0  0  0
   20.8432  -12.8399  -17.4925 C   0  0  2  0  0  0  0  0  0  0  0  0
   20.7413  -14.0773  -16.7416 N   0  0  0  0  0  0  0  0  0  0  0  0
   21.3253  -11.7542  -16.6377 C   0  0  0  0  0  0  0  0  0  0  0  0
   20.6167  -11.4094  -15.6313 O   0  0  0  0  0  0  0  0  0  0  0  0
   27.5700   -9.8310  -16.4561 C   0  0  0  0  0  0  0  0  0  0  0  0
   26.5809  -11.0904  -15.6490 S   0  0  0  0  0  0  0  0  0  0  0  0
   25.0497  -10.3952  -14.9425 C   0  0  0  0  0  0  0  0  0  0  0  0
   24.3711   -9.6247  -16.0255 C   0  0  0  0  0  0  0  0  0  0  0  0
   22.8801   -9.8302  -16.0872 C   0  0  2  0  0  0  0  0  0  0  0  0
   22.5185  -11.0303  -16.8114 N   0  0  0  0  0  0  0  0  0  0  0  0
   22.1527   -8.6405  -16.5139 C   0  0  0  0  0  0  0  0  0  0  0  0
   21.7408   -8.4436  -17.6844 O   0  0  0  0  0  0  0  0  0  0  0  0
   21.8712   -7.6127  -15.5740 N   0  0  0  0  0  0  0  0  0  0  0  0
   21.1698   -6.3847  -15.9525 C   0  0  1  0  0  0  0  0  0  0  0  0
   19.8304   -6.8175  -16.5482 C   0  0  0  0  0  0  0  0  0  0  0  0
   18.7437   -5.3676  -16.6480 S   0  0  0  0  0  0  0  0  0  0  0  0
   21.0020   -5.4761  -14.8223 C   0  0  0  0  0  0  0  0  0  0  0  0
   20.5672   -4.1819  -15.0200 O   0  0  0  0  0  0  0  0  0  0  0  0
   21.2513   -5.8623  -13.6605 O   0  0  0  0  0  0  0  0  0  0  0  0
  2  1  1  6
  3  2  1  0
  4  2  1  0
  5  4  1  0
  5  6  1  1
  7  8  2  0
  7  5  1  0
  9 10  1  0
 11 10  1  0
 12 11  1  0
 13 12  1  6
 13 14  1  0
 14  7  1  0
 15 13  1  0
 15 17  1  0
 16 15  2  0
 18 17  1  0
 18 21  1  0
 18 19  1  1
 20 19  1  0
 21 22  1  0
 23 21  2  0
M  END
$$$$
