LMC.pdb
     RDKit          3D

 23 22  0  0  1  0  0  0  0  0999 V2000
   17.8705  -13.7118  -18.2642 C   0  0  0  0  0  0  0  0  0  0  0  0
   19.1016  -14.2208  -17.5573 C   0  0  2  0  0  0  0  0  0  0  0  0
   18.7773  -15.4557  -16.7853 C   0  0  0  0  0  0  0  0  0  0  0  0
   19.7019  -13.1357  -16.6565 C   0  0  0  0  0  0  0  0  0  0  0  0
   19.8735  -11.8985  -17.5258 C   0  0  2  0  0  0  0  0  0  0  0  0
   20.9448  -12.1893  -18.4604 N   0  0  0  0  0  0  0  0  0  0  0  0
   20.1769  -10.6961  -16.7489 C   0  0  0  0  0  0  0  0  0  0  0  0
   19.3734  -10.3538  -15.8155 O   0  0  0  0  0  0  0  0  0  0  0  0
   26.5459  -10.6180  -14.6729 C   0  0  0  0  0  0  0  0  0  0  0  0
   25.5732   -9.2781  -15.3617 S   0  0  0  0  0  0  0  0  0  0  0  0
   23.7910   -9.6662  -15.3552 C   0  0  0  0  0  0  0  0  0  0  0  0
   23.0790   -8.4926  -15.9408 C   0  0  0  0  0  0  0  0  0  0  0  0
   21.5964   -8.6948  -16.1148 C   0  0  2  0  0  0  0  0  0  0  0  0
   21.2895   -9.8541  -16.9255 N   0  0  0  0  0  0  0  0  0  0  0  0
   20.8952   -7.4839  -16.5254 C   0  0  0  0  0  0  0  0  0  0  0  0
   20.8984   -7.0253  -17.6951 O   0  0  0  0  0  0  0  0  0  0  0  0
   20.1475   -6.7451  -15.5694 N   0  0  0  0  0  0  0  0  0  0  0  0
   19.4304   -5.5187  -15.9233 C   0  0  1  0  0  0  0  0  0  0  0  0
   17.9629   -5.7584  -15.5702 C   0  0  0  0  0  0  0  0  0  0  0  0
   17.2971   -7.0265  -16.6845 S   0  0  0  0  0  0  0  0  0  0  0  0
   19.9759   -4.3470  -15.2447 C   0  0  0  0  0  0  0  0  0  0  0  0
   19.4262   -3.0981  -15.4480 O   0  0  0  0  0  0  0  0  0  0  0  0
   20.9496   -4.4633  -14.4703 O   0  0  0  0  0  0  0  0  0  0  0  0
  2  1  1  1
  3  2  1  0
  4  2  1  0
  5  4  1  0
  5  6  1  6
  7  8  2  0
  7  5  1  0
  9 10  1  0
 11 10  1  0
 12 11  1  0
 13 12  1  6
 13 14  1  0
 14  7  1  0
 15 13  1  0
 15 17  1  0
 16 15  2  0
 18 17  1  0
 18 21  1  0
 18 19  1  1
 20 19  1  0
 21 22  1  0
 23 21  2  0
M  END
$$$$
