LMC.pdb
     RDKit          3D

 23 22  0  0  1  0  0  0  0  0999 V2000
   28.8623  -17.4790  -15.3317 C   0  0  0  0  0  0  0  0  0  0  0  0
   27.9657  -18.0337  -16.4100 C   0  0  2  0  0  0  0  0  0  0  0  0
   27.4210  -16.9247  -17.2465 C   0  0  0  0  0  0  0  0  0  0  0  0
   26.8437  -18.8838  -15.8034 C   0  0  0  0  0  0  0  0  0  0  0  0
   27.5205  -19.9526  -14.9575 C   0  0  2  0  0  0  0  0  0  0  0  0
   28.0829  -20.9218  -15.8794 N   0  0  0  0  0  0  0  0  0  0  0  0
   26.6022  -20.6016  -14.0210 C   0  0  0  0  0  0  0  0  0  0  0  0
   25.9050  -21.5894  -14.4358 O   0  0  0  0  0  0  0  0  0  0  0  0
   26.6097  -19.6807   -7.7124 C   0  0  0  0  0  0  0  0  0  0  0  0
   25.1361  -20.7026   -7.7347 S   0  0  0  0  0  0  0  0  0  0  0  0
   24.6078  -21.0869   -9.4377 C   0  0  0  0  0  0  0  0  0  0  0  0
   25.6413  -20.5304  -10.3593 C   0  0  0  0  0  0  0  0  0  0  0  0
   25.3583  -20.7692  -11.8194 C   0  0  2  0  0  0  0  0  0  0  0  0
   26.4000  -20.2434  -12.6761 N   0  0  0  0  0  0  0  0  0  0  0  0
   24.0115  -20.3751  -12.2162 C   0  0  0  0  0  0  0  0  0  0  0  0
   23.6314  -19.1849  -12.3478 O   0  0  0  0  0  0  0  0  0  0  0  0
   23.0352  -21.3731  -12.4806 N   0  0  0  0  0  0  0  0  0  0  0  0
   21.6703  -21.0357  -12.8888 C   0  0  1  0  0  0  0  0  0  0  0  0
   21.6061  -21.2481  -14.4010 C   0  0  0  0  0  0  0  0  0  0  0  0
   20.8325  -19.7922  -15.1595 S   0  0  0  0  0  0  0  0  0  0  0  0
   20.6716  -21.8287  -12.1784 C   0  0  0  0  0  0  0  0  0  0  0  0
   19.4229  -21.3079  -11.9090 O   0  0  0  0  0  0  0  0  0  0  0  0
   20.9381  -22.9912  -11.8058 O   0  0  0  0  0  0  0  0  0  0  0  0
  2  1  1  1
  3  2  1  0
  4  2  1  0
  5  4  1  0
  5  6  1  6
  7  8  2  0
  7  5  1  0
  9 10  1  0
 11 10  1  0
 12 11  1  0
 13 12  1  1
 13 14  1  0
 14  7  1  0
 15 13  1  0
 15 17  1  0
 16 15  2  0
 18 17  1  0
 18 21  1  0
 18 19  1  6
 20 19  1  0
 21 22  1  0
 23 21  2  0
M  END
$$$$
