LMC.pdb
     RDKit          3D

 23 22  0  0  1  0  0  0  0  0999 V2000
   27.0736  -32.4437    5.4508 C   0  0  0  0  0  0  0  0  0  0  0  0
   27.2408  -31.3501    4.4259 C   0  0  2  0  0  0  0  0  0  0  0  0
   28.0124  -31.8577    3.2540 C   0  0  0  0  0  0  0  0  0  0  0  0
   27.9071  -30.1172    5.0466 C   0  0  0  0  0  0  0  0  0  0  0  0
   26.8675  -29.4748    5.9534 C   0  0  2  0  0  0  0  0  0  0  0  0
   25.8341  -28.9358    5.0890 N   0  0  0  0  0  0  0  0  0  0  0  0
   27.4280  -28.4256    6.8059 C   0  0  0  0  0  0  0  0  0  0  0  0
   28.5691  -27.9365    6.5012 O   0  0  0  0  0  0  0  0  0  0  0  0
   28.3371  -22.5579    9.5547 C   0  0  0  0  0  0  0  0  0  0  0  0
   26.8741  -23.5730    9.3418 S   0  0  0  0  0  0  0  0  0  0  0  0
   26.8928  -25.0230   10.4480 C   0  0  0  0  0  0  0  0  0  0  0  0
   26.3723  -26.1836    9.6675 C   0  0  0  0  0  0  0  0  0  0  0  0
   27.3997  -26.8449    8.7864 C   0  0  2  0  0  0  0  0  0  0  0  0
   26.8277  -27.8838    7.9565 N   0  0  0  0  0  0  0  0  0  0  0  0
   28.5970  -27.2579    9.5093 C   0  0  0  0  0  0  0  0  0  0  0  0
   28.6557  -28.2544   10.2722 O   0  0  0  0  0  0  0  0  0  0  0  0
   29.7972  -26.5104    9.3684 N   0  0  0  0  0  0  0  0  0  0  0  0
   30.9980  -26.8147   10.1488 C   0  0  1  0  0  0  0  0  0  0  0  0
   32.1141  -27.0811    9.1392 C   0  0  0  0  0  0  0  0  0  0  0  0
   31.7507  -28.6306    8.2673 S   0  0  0  0  0  0  0  0  0  0  0  0
   31.3389  -25.7397   11.0757 C   0  0  0  0  0  0  0  0  0  0  0  0
   32.4857  -25.8080   11.8395 O   0  0  0  0  0  0  0  0  0  0  0  0
   30.5932  -24.7434   11.1875 O   0  0  0  0  0  0  0  0  0  0  0  0
  2  1  1  1
  3  2  1  0
  4  2  1  0
  5  4  1  0
  5  6  1  6
  7  8  2  0
  7  5  1  0
  9 10  1  0
 11 10  1  0
 12 11  1  0
 13 12  1  1
 13 14  1  0
 14  7  1  0
 15 13  1  0
 15 17  1  0
 16 15  2  0
 18 17  1  0
 18 21  1  0
 18 19  1  6
 20 19  1  0
 21 22  1  0
 23 21  2  0
M  END
$$$$
