LMC.pdb
     RDKit          3D

 23 22  0  0  1  0  0  0  0  0999 V2000
   28.6677  -17.0497  -15.7144 C   0  0  0  0  0  0  0  0  0  0  0  0
   27.7764  -17.7350  -16.7195 C   0  0  2  0  0  0  0  0  0  0  0  0
   27.1129  -16.7229  -17.5922 C   0  0  0  0  0  0  0  0  0  0  0  0
   26.7504  -18.6316  -16.0175 C   0  0  0  0  0  0  0  0  0  0  0  0
   27.5444  -19.6851  -15.2590 C   0  0  2  0  0  0  0  0  0  0  0  0
   28.1306  -20.5639  -16.2538 N   0  0  0  0  0  0  0  0  0  0  0  0
   26.7231  -20.4457  -14.3163 C   0  0  0  0  0  0  0  0  0  0  0  0
   26.0450  -21.4351  -14.7581 O   0  0  0  0  0  0  0  0  0  0  0  0
   27.0232  -20.5493   -7.7946 C   0  0  0  0  0  0  0  0  0  0  0  0
   25.2430  -20.5317   -8.0107 S   0  0  0  0  0  0  0  0  0  0  0  0
   24.7655  -20.9918   -9.7098 C   0  0  0  0  0  0  0  0  0  0  0  0
   25.7973  -20.4281  -10.6290 C   0  0  0  0  0  0  0  0  0  0  0  0
   25.5527  -20.7232  -12.0857 C   0  0  2  0  0  0  0  0  0  0  0  0
   26.5974  -20.1962  -12.9380 N   0  0  0  0  0  0  0  0  0  0  0  0
   24.2042  -20.3813  -12.5232 C   0  0  0  0  0  0  0  0  0  0  0  0
   23.8316  -19.2214  -12.8300 O   0  0  0  0  0  0  0  0  0  0  0  0
   23.2174  -21.3987  -12.6225 N   0  0  0  0  0  0  0  0  0  0  0  0
   21.8343  -21.1050  -13.0026 C   0  0  1  0  0  0  0  0  0  0  0  0
   21.5496  -21.9206  -14.2634 C   0  0  0  0  0  0  0  0  0  0  0  0
   19.7915  -21.7511  -14.6800 S   0  0  0  0  0  0  0  0  0  0  0  0
   20.8928  -21.4052  -11.9282 C   0  0  0  0  0  0  0  0  0  0  0  0
   19.6915  -20.7329  -11.8385 O   0  0  0  0  0  0  0  0  0  0  0  0
   21.1660  -22.2770  -11.0757 O   0  0  0  0  0  0  0  0  0  0  0  0
  2  1  1  1
  3  2  1  0
  4  2  1  0
  5  4  1  0
  5  6  1  6
  7  8  2  0
  7  5  1  0
  9 10  1  0
 11 10  1  0
 12 11  1  0
 13 12  1  1
 13 14  1  0
 14  7  1  0
 15 13  1  0
 15 17  1  0
 16 15  2  0
 18 17  1  0
 18 21  1  0
 18 19  1  6
 20 19  1  0
 21 22  1  0
 23 21  2  0
M  END
$$$$
