LMC.pdb
     RDKit          3D

 23 22  0  0  1  0  0  0  0  0999 V2000
   18.6356  -13.3928  -16.2741 C   0  0  0  0  0  0  0  0  0  0  0  0
   19.5094  -13.2372  -17.4933 C   0  0  2  0  0  0  0  0  0  0  0  0
   20.2803  -14.4913  -17.7366 C   0  0  0  0  0  0  0  0  0  0  0  0
   20.4373  -12.0258  -17.3490 C   0  0  0  0  0  0  0  0  0  0  0  0
   19.5420  -10.8260  -17.0755 C   0  0  2  0  0  0  0  0  0  0  0  0
   18.6672  -10.6861  -18.2247 N   0  0  0  0  0  0  0  0  0  0  0  0
   20.2978   -9.5937  -16.8476 C   0  0  0  0  0  0  0  0  0  0  0  0
   21.1605   -9.5726  -15.9045 O   0  0  0  0  0  0  0  0  0  0  0  0
   23.0115   -4.6720  -20.8542 C   0  0  0  0  0  0  0  0  0  0  0  0
   22.0262   -6.1242  -21.2239 S   0  0  0  0  0  0  0  0  0  0  0  0
   21.8848   -7.2286  -19.7793 C   0  0  0  0  0  0  0  0  0  0  0  0
   21.1836   -6.4666  -18.7048 C   0  0  0  0  0  0  0  0  0  0  0  0
   21.0133   -7.2304  -17.4176 C   0  0  2  0  0  0  0  0  0  0  0  0
   20.1718   -8.3975  -17.5763 N   0  0  0  0  0  0  0  0  0  0  0  0
   20.6420   -6.3827  -16.2906 C   0  0  0  0  0  0  0  0  0  0  0  0
   19.4679   -6.0137  -16.0381 O   0  0  0  0  0  0  0  0  0  0  0  0
   21.6450   -5.9225  -15.3956 N   0  0  0  0  0  0  0  0  0  0  0  0
   21.3366   -5.0343  -14.2733 C   0  0  1  0  0  0  0  0  0  0  0  0
   21.7711   -5.7708  -13.0066 C   0  0  0  0  0  0  0  0  0  0  0  0
   20.5704   -7.0862  -12.6589 S   0  0  0  0  0  0  0  0  0  0  0  0
   21.9875   -3.7344  -14.4054 C   0  0  0  0  0  0  0  0  0  0  0  0
   21.6305   -2.6835  -13.5860 O   0  0  0  0  0  0  0  0  0  0  0  0
   22.8776   -3.5593  -15.2646 O   0  0  0  0  0  0  0  0  0  0  0  0
  2  1  1  1
  3  2  1  0
  4  2  1  0
  5  4  1  0
  5  6  1  6
  7  8  2  0
  7  5  1  0
  9 10  1  0
 11 10  1  0
 12 11  1  0
 13 12  1  6
 13 14  1  0
 14  7  1  0
 15 13  1  0
 15 17  1  0
 16 15  2  0
 18 17  1  0
 18 21  1  0
 18 19  1  1
 20 19  1  0
 21 22  1  0
 23 21  2  0
M  END
$$$$
