LMC.pdb
     RDKit          3D

 23 22  0  0  1  0  0  0  0  0999 V2000
   16.6949  -15.3207  -19.5233 C   0  0  0  0  0  0  0  0  0  0  0  0
   15.8338  -15.3654  -18.2860 C   0  0  2  0  0  0  0  0  0  0  0  0
   14.4210  -15.0318  -18.6308 C   0  0  0  0  0  0  0  0  0  0  0  0
   16.3845  -14.4302  -17.2036 C   0  0  0  0  0  0  0  0  0  0  0  0
   17.8248  -14.8551  -16.9573 C   0  0  2  0  0  0  0  0  0  0  0  0
   17.7723  -16.1229  -16.2533 N   0  0  0  0  0  0  0  0  0  0  0  0
   18.5847  -13.8680  -16.1893 C   0  0  0  0  0  0  0  0  0  0  0  0
   18.2838  -13.6879  -14.9601 O   0  0  0  0  0  0  0  0  0  0  0  0
   25.3761  -10.5021  -14.3486 C   0  0  0  0  0  0  0  0  0  0  0  0
   24.3582  -11.5968  -15.3395 S   0  0  0  0  0  0  0  0  0  0  0  0
   22.5813  -11.2502  -15.1173 C   0  0  0  0  0  0  0  0  0  0  0  0
   21.8298  -12.2284  -15.9572 C   0  0  0  0  0  0  0  0  0  0  0  0
   20.3340  -12.0547  -15.9169 C   0  0  2  0  0  0  0  0  0  0  0  0
   19.6400  -13.0747  -16.6741 N   0  0  0  0  0  0  0  0  0  0  0  0
   19.9045  -10.6954  -16.2240 C   0  0  0  0  0  0  0  0  0  0  0  0
   19.8156  -10.2258  -17.3860 O   0  0  0  0  0  0  0  0  0  0  0  0
   19.5544   -9.8122  -15.1674 N   0  0  0  0  0  0  0  0  0  0  0  0
   19.1690   -8.4213  -15.4130 C   0  0  1  0  0  0  0  0  0  0  0  0
   17.9546   -8.1459  -14.5269 C   0  0  0  0  0  0  0  0  0  0  0  0
   17.5009   -6.3966  -14.6908 S   0  0  0  0  0  0  0  0  0  0  0  0
   20.2642   -7.4923  -15.1508 C   0  0  0  0  0  0  0  0  0  0  0  0
   20.4252   -6.3604  -15.9227 O   0  0  0  0  0  0  0  0  0  0  0  0
   21.0696   -7.7135  -14.2215 O   0  0  0  0  0  0  0  0  0  0  0  0
  2  1  1  6
  3  2  1  0
  4  2  1  0
  5  4  1  0
  5  6  1  1
  7  8  2  0
  7  5  1  0
  9 10  1  0
 11 10  1  0
 12 11  1  0
 13 12  1  6
 13 14  1  0
 14  7  1  0
 15 13  1  0
 15 17  1  0
 16 15  2  0
 18 17  1  0
 18 21  1  0
 18 19  1  1
 20 19  1  0
 21 22  1  0
 23 21  2  0
M  END
$$$$
