LMC.pdb
     RDKit          3D

 23 22  0  0  1  0  0  0  0  0999 V2000
   21.4304  -34.9183  -15.3128 C   0  0  0  0  0  0  0  0  0  0  0  0
   21.7641  -35.5935  -16.6194 C   0  0  2  0  0  0  0  0  0  0  0  0
   20.7694  -36.6663  -16.9122 C   0  0  0  0  0  0  0  0  0  0  0  0
   23.1948  -36.1432  -16.6000 C   0  0  0  0  0  0  0  0  0  0  0  0
   24.1217  -34.9377  -16.6593 C   0  0  2  0  0  0  0  0  0  0  0  0
   24.7844  -34.9826  -17.9493 N   0  0  0  0  0  0  0  0  0  0  0  0
   25.1031  -34.9220  -15.5737 C   0  0  0  0  0  0  0  0  0  0  0  0
   25.8049  -35.9709  -15.3704 O   0  0  0  0  0  0  0  0  0  0  0  0
   29.8558  -31.1565  -15.8633 C   0  0  0  0  0  0  0  0  0  0  0  0
   28.6113  -32.3311  -16.3995 S   0  0  0  0  0  0  0  0  0  0  0  0
   28.3588  -33.6543  -15.1697 C   0  0  0  0  0  0  0  0  0  0  0  0
   27.5905  -33.0645  -14.0344 C   0  0  0  0  0  0  0  0  0  0  0  0
   26.3571  -33.8414  -13.6549 C   0  0  2  0  0  0  0  0  0  0  0  0
   25.3627  -33.8455  -14.7068 N   0  0  0  0  0  0  0  0  0  0  0  0
   25.8299  -33.4793  -12.3443 C   0  0  0  0  0  0  0  0  0  0  0  0
   24.8743  -32.6847  -12.1599 O   0  0  0  0  0  0  0  0  0  0  0  0
   26.4074  -34.0405  -11.1737 N   0  0  0  0  0  0  0  0  0  0  0  0
   25.9535  -33.6736   -9.8310 C   0  0  1  0  0  0  0  0  0  0  0  0
   25.9679  -34.9584   -9.0033 C   0  0  0  0  0  0  0  0  0  0  0  0
   27.6659  -35.2699   -8.4440 S   0  0  0  0  0  0  0  0  0  0  0  0
   26.7802  -32.6269   -9.2376 C   0  0  0  0  0  0  0  0  0  0  0  0
   26.3625  -31.9595   -8.1048 O   0  0  0  0  0  0  0  0  0  0  0  0
   27.8781  -32.3236   -9.7511 O   0  0  0  0  0  0  0  0  0  0  0  0
  2  1  1  1
  3  2  1  0
  4  2  1  0
  5  4  1  0
  5  6  1  6
  7  8  2  0
  7  5  1  0
  9 10  1  0
 11 10  1  0
 12 11  1  0
 13 12  1  6
 13 14  1  0
 14  7  1  0
 15 13  1  0
 15 17  1  0
 16 15  2  0
 18 17  1  0
 18 21  1  0
 18 19  1  1
 20 19  1  0
 21 22  1  0
 23 21  2  0
M  END
$$$$
