LMC.pdb
     RDKit          3D

 23 22  0  0  1  0  0  0  0  0999 V2000
   17.1234  -14.3335  -16.6158 C   0  0  0  0  0  0  0  0  0  0  0  0
   16.1854  -14.9541  -15.6111 C   0  0  2  0  0  0  0  0  0  0  0  0
   15.3892  -16.0400  -16.2538 C   0  0  0  0  0  0  0  0  0  0  0  0
   15.2797  -13.8905  -14.9803 C   0  0  0  0  0  0  0  0  0  0  0  0
   16.1899  -12.7520  -14.5430 C   0  0  2  0  0  0  0  0  0  0  0  0
   16.9580  -13.2410  -13.4132 N   0  0  0  0  0  0  0  0  0  0  0  0
   15.4514  -11.5414  -14.1816 C   0  0  0  0  0  0  0  0  0  0  0  0
   14.7468  -10.9656  -15.0793 O   0  0  0  0  0  0  0  0  0  0  0  0
   11.3564   -9.1367   -9.3039 C   0  0  0  0  0  0  0  0  0  0  0  0
   12.0201  -10.7520   -9.7122 S   0  0  0  0  0  0  0  0  0  0  0  0
   12.8091  -10.7607  -11.3566 C   0  0  0  0  0  0  0  0  0  0  0  0
   13.9600   -9.8122  -11.3018 C   0  0  0  0  0  0  0  0  0  0  0  0
   14.7323   -9.7045  -12.5907 C   0  0  2  0  0  0  0  0  0  0  0  0
   15.4348  -10.9276  -12.9163 N   0  0  0  0  0  0  0  0  0  0  0  0
   15.5625   -8.5080  -12.6654 C   0  0  0  0  0  0  0  0  0  0  0  0
   16.7471   -8.4406  -12.2520 O   0  0  0  0  0  0  0  0  0  0  0  0
   15.0341   -7.3191  -13.2364 N   0  0  0  0  0  0  0  0  0  0  0  0
   15.8563   -6.1261  -13.4466 C   0  0  1  0  0  0  0  0  0  0  0  0
   16.9410   -6.5194  -14.4490 C   0  0  0  0  0  0  0  0  0  0  0  0
   17.9738   -5.0661  -14.7870 S   0  0  0  0  0  0  0  0  0  0  0  0
   15.0670   -4.9880  -13.9076 C   0  0  0  0  0  0  0  0  0  0  0  0
   15.4289   -3.6999  -13.5716 O   0  0  0  0  0  0  0  0  0  0  0  0
   14.0520   -5.1691  -14.6134 O   0  0  0  0  0  0  0  0  0  0  0  0
  2  1  1  6
  3  2  1  0
  4  2  1  0
  5  4  1  0
  5  6  1  1
  7  8  2  0
  7  5  1  0
  9 10  1  0
 11 10  1  0
 12 11  1  0
 13 12  1  1
 13 14  1  0
 14  7  1  0
 15 13  1  0
 15 17  1  0
 16 15  2  0
 18 17  1  0
 18 21  1  0
 18 19  1  6
 20 19  1  0
 21 22  1  0
 23 21  2  0
M  END
$$$$
