PTA.pdb
     RDKit          3D

 20 20  0  0  1  0  0  0  0  0999 V2000
   19.2899  -10.7633  -15.9450 N   0  0  0  0  0  0  0  0  0  0  0  0
   18.5746  -11.7406  -16.7281 C   0  0  0  0  0  0  0  0  0  0  0  0
   17.3786  -11.0561  -17.3277 C   0  0  0  0  0  0  0  0  0  0  0  0
   17.2552   -9.8259  -16.4170 C   0  0  0  0  0  0  0  0  0  0  0  0
   18.7327   -9.4856  -16.2943 C   0  0  1  0  0  0  0  0  0  0  0  0
   19.0083   -8.4287  -15.3328 C   0  0  0  0  0  0  0  0  0  0  0  0
   18.5869   -8.5425  -14.1516 O   0  0  0  0  0  0  0  0  0  0  0  0
   21.7752   -7.4441  -13.5822 C   0  0  0  0  0  0  0  0  0  0  0  0
   21.4347   -6.2088  -14.3814 C   0  0  1  0  0  0  0  0  0  0  0  0
   22.2236   -6.3001  -15.5450 O   0  0  0  0  0  0  0  0  0  0  0  0
   19.9734   -6.1472  -14.7905 C   0  0  2  0  0  0  0  0  0  0  0  0
   19.7317   -7.2945  -15.7032 N   0  0  0  0  0  0  0  0  0  0  0  0
   19.5823   -4.9007  -15.4595 C   0  0  0  0  0  0  0  0  0  0  0  0
   19.8624   -4.7541  -16.7078 O   0  0  0  0  0  0  0  0  0  0  0  0
   17.2964   -1.9861  -14.8570 C   0  0  0  0  0  0  0  0  0  0  0  0
   18.4115   -2.6788  -15.6125 C   0  0  2  0  0  0  0  0  0  0  0  0
   18.9154   -3.8245  -14.8698 N   0  0  0  0  0  0  0  0  0  0  0  0
   19.5140   -1.6944  -15.7565 C   0  0  0  0  0  0  0  0  0  0  0  0
   20.7544   -1.8417  -15.1517 O   0  0  0  0  0  0  0  0  0  0  0  0
   19.3719   -0.6428  -16.4582 O   0  0  0  0  0  0  0  0  0  0  0  0
  1  2  1  0
  3  2  1  0
  4  3  1  0
  4  5  1  0
  5  1  1  0
  6 12  1  0
  5  6  1  1
  7  6  2  0
  9  8  1  1
  9 11  1  0
 10  9  1  0
 11 12  1  6
 11 13  1  0
 13 14  2  0
 16 15  1  1
 16 18  1  0
 17 13  1  0
 17 16  1  0
 18 19  1  0
 20 18  2  0
M  END
$$$$
