PTA.pdb
     RDKit          3D

 20 20  0  0  1  0  0  0  0  0999 V2000
   23.5753  -13.2430  -15.7936 N   0  0  0  0  0  0  0  0  0  0  0  0
   24.5545  -14.2650  -16.0702 C   0  0  0  0  0  0  0  0  0  0  0  0
   25.5168  -13.7109  -17.0828 C   0  0  0  0  0  0  0  0  0  0  0  0
   24.6964  -12.5514  -17.6662 C   0  0  0  0  0  0  0  0  0  0  0  0
   24.0872  -12.0316  -16.3729 C   0  0  1  0  0  0  0  0  0  0  0  0
   23.0861  -10.9952  -16.5767 C   0  0  0  0  0  0  0  0  0  0  0  0
   22.4709  -10.9376  -17.6740 O   0  0  0  0  0  0  0  0  0  0  0  0
   19.9877  -10.8543  -15.5539 C   0  0  0  0  0  0  0  0  0  0  0  0
   20.5196   -9.5705  -14.9626 C   0  0  1  0  0  0  0  0  0  0  0  0
   20.8967   -9.9054  -13.6472 O   0  0  0  0  0  0  0  0  0  0  0  0
   21.7383   -9.0366  -15.6949 C   0  0  2  0  0  0  0  0  0  0  0  0
   22.8010  -10.0679  -15.5738 N   0  0  0  0  0  0  0  0  0  0  0  0
   22.2408   -7.7558  -15.1837 C   0  0  0  0  0  0  0  0  0  0  0  0
   23.1073   -7.7668  -14.2312 O   0  0  0  0  0  0  0  0  0  0  0  0
   21.9920   -4.0620  -15.9594 C   0  0  0  0  0  0  0  0  0  0  0  0
   22.4522   -5.2489  -15.1389 C   0  0  2  0  0  0  0  0  0  0  0  0
   21.8708   -6.4872  -15.6358 N   0  0  0  0  0  0  0  0  0  0  0  0
   21.9690   -5.0303  -13.7517 C   0  0  0  0  0  0  0  0  0  0  0  0
   22.6124   -4.2063  -12.8389 O   0  0  0  0  0  0  0  0  0  0  0  0
   20.9166   -5.6014  -13.3221 O   0  0  0  0  0  0  0  0  0  0  0  0
  1  2  1  0
  3  2  1  0
  4  3  1  0
  4  5  1  0
  5  1  1  0
  6 12  1  0
  5  6  1  6
  7  6  2  0
  9  8  1  6
  9 11  1  0
 10  9  1  0
 11 12  1  1
 11 13  1  0
 13 14  2  0
 16 15  1  6
 16 18  1  0
 17 13  1  0
 17 16  1  0
 18 19  1  0
 20 18  2  0
M  END
$$$$
