PTA.pdb
     RDKit          3D

 20 20  0  0  1  0  0  0  0  0999 V2000
   24.4033  -12.3590  -15.8412 N   0  0  0  0  0  0  0  0  0  0  0  0
   24.9159  -13.7065  -15.8057 C   0  0  0  0  0  0  0  0  0  0  0  0
   24.3690  -14.4329  -17.0023 C   0  0  0  0  0  0  0  0  0  0  0  0
   23.1732  -13.5416  -17.3676 C   0  0  0  0  0  0  0  0  0  0  0  0
   23.8252  -12.1853  -17.1454 C   0  0  1  0  0  0  0  0  0  0  0  0
   22.8961  -11.0698  -17.2452 C   0  0  0  0  0  0  0  0  0  0  0  0
   22.4733  -10.7172  -18.3778 O   0  0  0  0  0  0  0  0  0  0  0  0
   19.5071  -10.7475  -16.1593 C   0  0  0  0  0  0  0  0  0  0  0  0
   20.2682   -9.6697  -15.4247 C   0  0  1  0  0  0  0  0  0  0  0  0
   20.6296  -10.2542  -14.1949 O   0  0  0  0  0  0  0  0  0  0  0  0
   21.5329   -9.2362  -16.1453 C   0  0  2  0  0  0  0  0  0  0  0  0
   22.4698  -10.3887  -16.1045 N   0  0  0  0  0  0  0  0  0  0  0  0
   22.1863   -8.0556  -15.5676 C   0  0  0  0  0  0  0  0  0  0  0  0
   23.1124   -8.2282  -14.6897 O   0  0  0  0  0  0  0  0  0  0  0  0
   22.2818   -4.3060  -15.9946 C   0  0  0  0  0  0  0  0  0  0  0  0
   22.5401   -5.5875  -15.2297 C   0  0  2  0  0  0  0  0  0  0  0  0
   21.9047   -6.7238  -15.8802 N   0  0  0  0  0  0  0  0  0  0  0  0
   21.9322   -5.4196  -13.8851 C   0  0  0  0  0  0  0  0  0  0  0  0
   22.5240   -4.6889  -12.8644 O   0  0  0  0  0  0  0  0  0  0  0  0
   20.8126   -5.9501  -13.5966 O   0  0  0  0  0  0  0  0  0  0  0  0
  1  2  1  0
  3  2  1  0
  4  3  1  0
  4  5  1  0
  5  1  1  0
  6 12  1  0
  5  6  1  1
  7  6  2  0
  9  8  1  6
  9 11  1  0
 10  9  1  0
 11 12  1  1
 11 13  1  0
 13 14  2  0
 16 15  1  6
 16 18  1  0
 17 13  1  0
 17 16  1  0
 18 19  1  0
 20 18  2  0
M  END
$$$$
