PTA.pdb
     RDKit          3D

 20 20  0  0  1  0  0  0  0  0999 V2000
   23.4870  -13.7807  -16.9162 N   0  0  0  0  0  0  0  0  0  0  0  0
   24.4978  -14.7530  -16.5800 C   0  0  0  0  0  0  0  0  0  0  0  0
   25.5264  -14.0638  -15.7282 C   0  0  0  0  0  0  0  0  0  0  0  0
   25.2459  -12.5911  -16.0601 C   0  0  0  0  0  0  0  0  0  0  0  0
   23.7257  -12.6460  -16.0673 C   0  0  1  0  0  0  0  0  0  0  0  0
   23.1013  -11.4137  -16.5246 C   0  0  0  0  0  0  0  0  0  0  0  0
   23.1179  -11.1308  -17.7517 O   0  0  0  0  0  0  0  0  0  0  0  0
   19.7198  -10.6992  -16.6244 C   0  0  0  0  0  0  0  0  0  0  0  0
   20.2807   -9.5777  -15.7828 C   0  0  1  0  0  0  0  0  0  0  0  0
   20.1245  -10.0098  -14.4511 O   0  0  0  0  0  0  0  0  0  0  0  0
   21.7554   -9.3201  -16.0388 C   0  0  2  0  0  0  0  0  0  0  0  0
   22.4863  -10.5449  -15.6224 N   0  0  0  0  0  0  0  0  0  0  0  0
   22.3017   -8.1597  -15.3252 C   0  0  0  0  0  0  0  0  0  0  0  0
   22.7718   -8.3280  -14.1382 O   0  0  0  0  0  0  0  0  0  0  0  0
   23.0685   -4.5072  -15.9348 C   0  0  0  0  0  0  0  0  0  0  0  0
   22.9328   -5.7381  -15.0627 C   0  0  2  0  0  0  0  0  0  0  0  0
   22.3713   -6.8524  -15.8119 N   0  0  0  0  0  0  0  0  0  0  0  0
   21.9921   -5.3913  -13.9670 C   0  0  0  0  0  0  0  0  0  0  0  0
   22.3691   -4.6944  -12.8277 O   0  0  0  0  0  0  0  0  0  0  0  0
   20.7655   -5.7243  -14.0207 O   0  0  0  0  0  0  0  0  0  0  0  0
  1  2  1  0
  3  2  1  0
  4  3  1  0
  4  5  1  0
  5  1  1  0
  6 12  1  0
  5  6  1  6
  7  6  2  0
  9  8  1  6
  9 11  1  0
 10  9  1  0
 11 12  1  1
 11 13  1  0
 13 14  2  0
 16 15  1  6
 16 18  1  0
 17 13  1  0
 17 16  1  0
 18 19  1  0
 20 18  2  0
M  END
$$$$
