PTA.pdb
     RDKit          3D

 20 20  0  0  1  0  0  0  0  0999 V2000
   17.7818  -13.5670  -17.5338 N   0  0  0  0  0  0  0  0  0  0  0  0
   16.4160  -13.9493  -17.7947 C   0  0  0  0  0  0  0  0  0  0  0  0
   15.5627  -12.7217  -17.6412 C   0  0  0  0  0  0  0  0  0  0  0  0
   16.4897  -11.8193  -16.8142 C   0  0  0  0  0  0  0  0  0  0  0  0
   17.7996  -12.1301  -17.5225 C   0  0  1  0  0  0  0  0  0  0  0  0
   18.9648  -11.5504  -16.8714 C   0  0  0  0  0  0  0  0  0  0  0  0
   19.5310  -12.1823  -15.9408 O   0  0  0  0  0  0  0  0  0  0  0  0
   22.8058   -8.5275  -17.3505 C   0  0  0  0  0  0  0  0  0  0  0  0
   21.5578   -9.2436  -17.8092 C   0  0  1  0  0  0  0  0  0  0  0  0
   22.0235  -10.3923  -18.4788 O   0  0  0  0  0  0  0  0  0  0  0  0
   20.6649   -9.6806  -16.6611 C   0  0  2  0  0  0  0  0  0  0  0  0
   19.4603  -10.3068  -17.2650 N   0  0  0  0  0  0  0  0  0  0  0  0
   20.2524   -8.5936  -15.7652 C   0  0  0  0  0  0  0  0  0  0  0  0
   19.4826   -7.6700  -16.2262 O   0  0  0  0  0  0  0  0  0  0  0  0
   20.4084   -7.6816  -12.1070 C   0  0  0  0  0  0  0  0  0  0  0  0
   20.1345   -7.3779  -13.5654 C   0  0  2  0  0  0  0  0  0  0  0  0
   20.6140   -8.4510  -14.4237 N   0  0  0  0  0  0  0  0  0  0  0  0
   20.8869   -6.1418  -13.8993 C   0  0  0  0  0  0  0  0  0  0  0  0
   20.4338   -4.8656  -13.5961 O   0  0  0  0  0  0  0  0  0  0  0  0
   22.0103   -6.1938  -14.4939 O   0  0  0  0  0  0  0  0  0  0  0  0
  1  2  1  0
  3  2  1  0
  4  3  1  0
  4  5  1  0
  5  1  1  0
  6 12  1  0
  5  6  1  1
  7  6  2  0
  9  8  1  1
  9 11  1  0
 10  9  1  0
 11 12  1  6
 11 13  1  0
 13 14  2  0
 16 15  1  1
 16 18  1  0
 17 13  1  0
 17 16  1  0
 18 19  1  0
 20 18  2  0
M  END
$$$$
