PTA.pdb
     RDKit          3D

 20 20  0  0  1  0  0  0  0  0999 V2000
   24.3598  -10.5714  -15.8759 N   0  0  0  0  0  0  0  0  0  0  0  0
   25.1232  -11.7946  -15.8479 C   0  0  0  0  0  0  0  0  0  0  0  0
   24.4581  -12.7673  -16.7807 C   0  0  0  0  0  0  0  0  0  0  0  0
   23.0568  -12.1509  -16.8999 C   0  0  0  0  0  0  0  0  0  0  0  0
   23.4600  -10.6870  -16.9904 C   0  0  1  0  0  0  0  0  0  0  0  0
   22.3317   -9.7690  -16.9472 C   0  0  0  0  0  0  0  0  0  0  0  0
   21.5002   -9.7670  -17.8930 O   0  0  0  0  0  0  0  0  0  0  0  0
   19.3969   -9.6748  -15.0586 C   0  0  0  0  0  0  0  0  0  0  0  0
   20.1116   -8.3934  -14.7010 C   0  0  1  0  0  0  0  0  0  0  0  0
   20.8741   -8.7093  -13.5593 O   0  0  0  0  0  0  0  0  0  0  0  0
   21.0508   -7.9100  -15.7923 C   0  0  2  0  0  0  0  0  0  0  0  0
   22.1610   -8.8941  -15.8738 N   0  0  0  0  0  0  0  0  0  0  0  0
   21.6032   -6.5689  -15.5675 C   0  0  0  0  0  0  0  0  0  0  0  0
   22.7791   -6.4619  -15.0538 O   0  0  0  0  0  0  0  0  0  0  0  0
   20.7442   -2.9549  -16.2770 C   0  0  0  0  0  0  0  0  0  0  0  0
   21.5864   -4.0546  -15.6642 C   0  0  2  0  0  0  0  0  0  0  0  0
   20.9717   -5.3587  -15.8632 N   0  0  0  0  0  0  0  0  0  0  0  0
   21.6524   -3.7876  -14.2048 C   0  0  0  0  0  0  0  0  0  0  0  0
   22.5351   -2.8826  -13.6323 O   0  0  0  0  0  0  0  0  0  0  0  0
   20.8847   -4.3901  -13.3887 O   0  0  0  0  0  0  0  0  0  0  0  0
  1  2  1  0
  3  2  1  0
  4  3  1  0
  4  5  1  0
  5  1  1  0
  6 12  1  0
  5  6  1  1
  7  6  2  0
  9  8  1  6
  9 11  1  0
 10  9  1  0
 11 12  1  1
 11 13  1  0
 13 14  2  0
 16 15  1  6
 16 18  1  0
 17 13  1  0
 17 16  1  0
 18 19  1  0
 20 18  2  0
M  END
$$$$
