PTA.pdb
     RDKit          3D

 20 20  0  0  1  0  0  0  0  0999 V2000
   35.4766  -25.1565  -14.2563 N   0  0  0  0  0  0  0  0  0  0  0  0
   36.1284  -25.3949  -12.9920 C   0  0  0  0  0  0  0  0  0  0  0  0
   36.5248  -26.8440  -12.9508 C   0  0  0  0  0  0  0  0  0  0  0  0
   35.6099  -27.4313  -14.0351 C   0  0  0  0  0  0  0  0  0  0  0  0
   35.7331  -26.3173  -15.0636 C   0  0  1  0  0  0  0  0  0  0  0  0
   34.8332  -26.4697  -16.1969 C   0  0  0  0  0  0  0  0  0  0  0  0
   34.0036  -25.5578  -16.4543 O   0  0  0  0  0  0  0  0  0  0  0  0
   34.1345  -25.3370  -18.8704 C   0  0  0  0  0  0  0  0  0  0  0  0
   34.5399  -26.7472  -19.2276 C   0  0  1  0  0  0  0  0  0  0  0  0
   35.9486  -26.7345  -19.2142 O   0  0  0  0  0  0  0  0  0  0  0  0
   34.0552  -27.7792  -18.2243 C   0  0  2  0  0  0  0  0  0  0  0  0
   34.8787  -27.6105  -16.9991 N   0  0  0  0  0  0  0  0  0  0  0  0
   34.1503  -29.1684  -18.6884 C   0  0  0  0  0  0  0  0  0  0  0  0
   35.3008  -29.7467  -18.6791 O   0  0  0  0  0  0  0  0  0  0  0  0
   31.8829  -32.0011  -19.7445 C   0  0  0  0  0  0  0  0  0  0  0  0
   33.2356  -31.3470  -19.5534 C   0  0  2  0  0  0  0  0  0  0  0  0
   33.0933  -29.9557  -19.1505 N   0  0  0  0  0  0  0  0  0  0  0  0
   33.9245  -31.3840  -20.8685 C   0  0  0  0  0  0  0  0  0  0  0  0
   34.5636  -32.5111  -21.3654 O   0  0  0  0  0  0  0  0  0  0  0  0
   33.9634  -30.3595  -21.6217 O   0  0  0  0  0  0  0  0  0  0  0  0
  1  2  1  0
  3  2  1  0
  4  3  1  0
  4  5  1  0
  5  1  1  0
  6 12  1  0
  5  6  1  6
  7  6  2  0
  9  8  1  1
  9 11  1  0
 10  9  1  0
 11 12  1  1
 11 13  1  0
 13 14  2  0
 16 15  1  6
 16 18  1  0
 17 13  1  0
 17 16  1  0
 18 19  1  0
 20 18  2  0
M  END
$$$$
