PTA.pdb
     RDKit          3D

 20 20  0  0  1  0  0  0  0  0999 V2000
   18.7402  -11.7667  -15.2586 N   0  0  0  0  0  0  0  0  0  0  0  0
   17.8893  -12.9286  -15.1830 C   0  0  0  0  0  0  0  0  0  0  0  0
   17.1865  -13.0644  -16.5045 C   0  0  0  0  0  0  0  0  0  0  0  0
   17.3470  -11.6465  -17.0714 C   0  0  0  0  0  0  0  0  0  0  0  0
   18.7854  -11.3937  -16.6456 C   0  0  1  0  0  0  0  0  0  0  0  0
   19.2318  -10.0294  -16.8850 C   0  0  0  0  0  0  0  0  0  0  0  0
   19.8161   -9.7510  -17.9652 O   0  0  0  0  0  0  0  0  0  0  0  0
   16.9262   -7.1193  -16.9899 C   0  0  0  0  0  0  0  0  0  0  0  0
   17.9754   -6.8541  -15.9366 C   0  0  1  0  0  0  0  0  0  0  0  0
   17.4163   -7.3376  -14.7372 O   0  0  0  0  0  0  0  0  0  0  0  0
   19.2787   -7.5899  -16.1947 C   0  0  2  0  0  0  0  0  0  0  0  0
   19.0206   -9.0298  -15.9347 N   0  0  0  0  0  0  0  0  0  0  0  0
   20.4044   -7.1390  -15.3676 C   0  0  0  0  0  0  0  0  0  0  0  0
   20.5509   -7.6452  -14.1926 O   0  0  0  0  0  0  0  0  0  0  0  0
   23.4774   -4.9563  -15.6259 C   0  0  0  0  0  0  0  0  0  0  0  0
   22.4512   -5.7661  -14.8610 C   0  0  2  0  0  0  0  0  0  0  0  0
   21.3652   -6.1927  -15.7309 N   0  0  0  0  0  0  0  0  0  0  0  0
   21.8885   -4.8752  -13.8145 C   0  0  0  0  0  0  0  0  0  0  0  0
   22.5023   -4.6511  -12.5902 O   0  0  0  0  0  0  0  0  0  0  0  0
   20.7900   -4.2592  -13.9937 O   0  0  0  0  0  0  0  0  0  0  0  0
  1  2  1  0
  3  2  1  0
  4  3  1  0
  4  5  1  0
  5  1  1  0
  6 12  1  0
  5  6  1  1
  7  6  2  0
  9  8  1  6
  9 11  1  0
 10  9  1  0
 11 12  1  1
 11 13  1  0
 13 14  2  0
 16 15  1  6
 16 18  1  0
 17 13  1  0
 17 16  1  0
 18 19  1  0
 20 18  2  0
M  END
$$$$
