EHP.pdb
     RDKit          3D

 27 28  0  0  1  0  0  0  0  0999 V2000
   17.5773  -15.8487  -16.0333 N   0  0  0  0  0  0  0  0  0  0  0  0
   17.2674  -14.4703  -16.2930 C   0  0  1  0  0  0  0  0  0  0  0  0
   16.0908  -14.0222  -15.5030 C   0  0  0  0  0  0  0  0  0  0  0  0
   16.1435  -14.2811  -14.0393 C   0  0  0  0  0  0  0  0  0  0  0  0
   15.0734  -13.7324  -13.2209 C   0  0  0  0  0  0  0  0  0  0  0  0
   13.9307  -14.2979  -13.1352 O   0  0  0  0  0  0  0  0  0  0  0  0
   18.4598  -13.5705  -16.1838 C   0  0  0  0  0  0  0  0  0  0  0  0
   19.4840  -13.9153  -15.5572 O   0  0  0  0  0  0  0  0  0  0  0  0
   15.2444  -12.5610  -12.4840 O   0  0  0  0  0  0  0  0  0  0  0  0
   18.3811  -12.3187  -16.8100 N   0  0  0  0  0  0  0  0  0  0  0  0
   19.4135  -11.3456  -16.9394 C   0  0  1  0  0  0  0  0  0  0  0  0
   19.4010  -10.5364  -18.2299 C   0  0  0  0  0  0  0  0  0  0  0  0
   20.6290   -9.7235  -18.4032 C   0  0  0  0  0  0  0  0  0  0  0  0
   20.6732   -8.3348  -18.1776 C   0  0  0  0  0  0  0  0  0  0  0  0
   21.9261   -7.9548  -18.4281 N   0  0  0  0  0  0  0  0  0  0  0  0
   22.6664   -9.0085  -18.7951 C   0  0  0  0  0  0  0  0  0  0  0  0
   21.8599  -10.0581  -18.7708 N   0  0  0  0  0  0  0  0  0  0  0  0
   19.6298  -10.5016  -15.7386 C   0  0  0  0  0  0  0  0  0  0  0  0
   18.5603   -9.8484  -15.4427 O   0  0  0  0  0  0  0  0  0  0  0  0
   20.8195  -10.4219  -15.0191 N   0  0  0  0  0  0  0  0  0  0  0  0
   21.9593  -11.3586  -15.0731 C   0  0  0  0  0  0  0  0  0  0  0  0
   23.0614  -10.4017  -15.4319 C   0  0  0  0  0  0  0  0  0  0  0  0
   22.6362   -9.0920  -14.7877 C   0  0  0  0  0  0  0  0  0  0  0  0
   21.3137   -9.5070  -14.0590 C   0  0  1  0  0  0  0  0  0  0  0  0
   20.5789   -8.3320  -13.6773 C   0  0  0  0  0  0  0  0  0  0  0  0
   20.1888   -7.3163  -14.4802 O   0  0  0  0  0  0  0  0  0  0  0  0
   20.2587   -8.2328  -12.4462 O   0  0  0  0  0  0  0  0  0  0  0  0
  2  7  1  0
  2  1  1  1
  3  2  1  0
  4  3  1  0
  5  4  1  0
  5  6  2  0
  7  8  2  0
  9  5  1  0
 10  7  1  0
 10 11  1  0
 11 12  1  6
 12 13  1  0
 13 14  2  0
 15 14  1  0
 16 15  1  0
 17 13  1  0
 17 16  2  0
 18 11  1  0
 18 19  2  0
 20 18  1  0
 21 20  1  0
 22 21  1  0
 23 22  1  0
 24 23  1  0
 24 20  1  0
 24 25  1  6
 26 25  1  0
 27 25  2  0
M  END
$$$$
