EHP.pdb
     RDKit          3D

 27 28  0  0  1  0  0  0  0  0999 V2000
   23.2218  -11.2365  -20.1406 N   0  0  0  0  0  0  0  0  0  0  0  0
   22.9465  -11.8543  -18.8733 C   0  0  1  0  0  0  0  0  0  0  0  0
   23.6117  -13.1788  -18.7612 C   0  0  0  0  0  0  0  0  0  0  0  0
   23.3442  -14.1447  -19.8601 C   0  0  0  0  0  0  0  0  0  0  0  0
   22.0092  -14.7168  -19.9417 C   0  0  0  0  0  0  0  0  0  0  0  0
   21.4593  -15.2940  -18.9431 O   0  0  0  0  0  0  0  0  0  0  0  0
   23.1925  -10.9426  -17.7107 C   0  0  0  0  0  0  0  0  0  0  0  0
   23.1776  -11.3639  -16.5347 O   0  0  0  0  0  0  0  0  0  0  0  0
   21.2603  -14.6591  -21.1166 O   0  0  0  0  0  0  0  0  0  0  0  0
   23.4364   -9.5912  -17.9927 N   0  0  0  0  0  0  0  0  0  0  0  0
   23.7247   -8.5485  -17.0657 C   0  0  1  0  0  0  0  0  0  0  0  0
   25.2007   -8.2239  -16.8743 C   0  0  0  0  0  0  0  0  0  0  0  0
   26.0022   -9.4162  -16.5075 C   0  0  0  0  0  0  0  0  0  0  0  0
   26.8656  -10.0716  -17.4055 C   0  0  0  0  0  0  0  0  0  0  0  0
   27.4099  -11.0837  -16.7301 N   0  0  0  0  0  0  0  0  0  0  0  0
   26.9462  -11.1065  -15.4741 C   0  0  0  0  0  0  0  0  0  0  0  0
   26.1019  -10.0921  -15.3693 N   0  0  0  0  0  0  0  0  0  0  0  0
   22.8874   -7.3328  -17.2133 C   0  0  0  0  0  0  0  0  0  0  0  0
   23.0336   -6.8190  -18.3850 O   0  0  0  0  0  0  0  0  0  0  0  0
   22.0510   -6.8117  -16.2294 N   0  0  0  0  0  0  0  0  0  0  0  0
   21.5748   -7.4943  -15.0101 C   0  0  0  0  0  0  0  0  0  0  0  0
   22.0552   -6.5235  -13.9680 C   0  0  0  0  0  0  0  0  0  0  0  0
   21.9987   -5.1748  -14.6673 C   0  0  0  0  0  0  0  0  0  0  0  0
   21.4074   -5.5621  -16.0646 C   0  0  1  0  0  0  0  0  0  0  0  0
   21.5975   -4.4792  -16.9906 C   0  0  0  0  0  0  0  0  0  0  0  0
   22.7709   -3.9199  -17.3631 O   0  0  0  0  0  0  0  0  0  0  0  0
   20.5454   -3.9888  -17.5205 O   0  0  0  0  0  0  0  0  0  0  0  0
  2  7  1  0
  2  1  1  6
  3  2  1  0
  4  3  1  0
  5  4  1  0
  5  6  2  0
  7  8  2  0
  9  5  1  0
 10  7  1  0
 10 11  1  0
 11 12  1  6
 12 13  1  0
 13 14  2  0
 15 14  1  0
 16 15  1  0
 17 13  1  0
 17 16  2  0
 18 11  1  0
 18 19  2  0
 20 18  1  0
 21 20  1  0
 22 21  1  0
 23 22  1  0
 24 23  1  0
 24 20  1  0
 24 25  1  6
 26 25  1  0
 27 25  2  0
M  END
$$$$
