EHP.pdb
     RDKit          3D

 27 28  0  0  1  0  0  0  0  0999 V2000
   27.1184  -24.4757  -16.2249 N   0  0  0  0  0  0  0  0  0  0  0  0
   27.7869  -23.2120  -16.3660 C   0  0  1  0  0  0  0  0  0  0  0  0
   28.2284  -22.9870  -17.7673 C   0  0  0  0  0  0  0  0  0  0  0  0
   28.4016  -21.5696  -18.1833 C   0  0  0  0  0  0  0  0  0  0  0  0
   27.5764  -21.0851  -19.2788 C   0  0  0  0  0  0  0  0  0  0  0  0
   26.5550  -20.3438  -19.0787 O   0  0  0  0  0  0  0  0  0  0  0  0
   27.0169  -22.0720  -15.7737 C   0  0  0  0  0  0  0  0  0  0  0  0
   27.5511  -20.9632  -15.5596 O   0  0  0  0  0  0  0  0  0  0  0  0
   27.8632  -21.4037  -20.6058 O   0  0  0  0  0  0  0  0  0  0  0  0
   25.6689  -22.2985  -15.4622 N   0  0  0  0  0  0  0  0  0  0  0  0
   24.7388  -21.3743  -14.9051 C   0  0  1  0  0  0  0  0  0  0  0  0
   23.8670  -20.6287  -15.9074 C   0  0  0  0  0  0  0  0  0  0  0  0
   22.8569  -19.7647  -15.2503 C   0  0  0  0  0  0  0  0  0  0  0  0
   22.9678  -18.3631  -15.1818 C   0  0  0  0  0  0  0  0  0  0  0  0
   21.8877  -17.9338  -14.5291 N   0  0  0  0  0  0  0  0  0  0  0  0
   21.1113  -18.9690  -14.1846 C   0  0  0  0  0  0  0  0  0  0  0  0
   21.7193  -20.0568  -14.6316 N   0  0  0  0  0  0  0  0  0  0  0  0
   23.9661  -21.8876  -13.7474 C   0  0  0  0  0  0  0  0  0  0  0  0
   23.0003  -22.6418  -14.1431 O   0  0  0  0  0  0  0  0  0  0  0  0
   24.2403  -21.6038  -12.4119 N   0  0  0  0  0  0  0  0  0  0  0  0
   25.5350  -21.1907  -11.8352 C   0  0  0  0  0  0  0  0  0  0  0  0
   25.1246  -19.9022  -11.1791 C   0  0  0  0  0  0  0  0  0  0  0  0
   23.6747  -20.1349  -10.7856 C   0  0  0  0  0  0  0  0  0  0  0  0
   23.4541  -21.6186  -11.2352 C   0  0  1  0  0  0  0  0  0  0  0  0
   22.0477  -21.9149  -11.2622 C   0  0  0  0  0  0  0  0  0  0  0  0
   21.2736  -22.2963  -10.2212 O   0  0  0  0  0  0  0  0  0  0  0  0
   21.4626  -21.8082  -12.3910 O   0  0  0  0  0  0  0  0  0  0  0  0
  2  7  1  0
  2  1  1  6
  3  2  1  0
  4  3  1  0
  5  4  1  0
  5  6  2  0
  7  8  2  0
  9  5  1  0
 10  7  1  0
 10 11  1  0
 11 12  1  6
 12 13  1  0
 13 14  2  0
 15 14  1  0
 16 15  1  0
 17 13  1  0
 17 16  2  0
 18 11  1  0
 18 19  2  0
 20 18  1  0
 21 20  1  0
 22 21  1  0
 23 22  1  0
 24 23  1  0
 24 20  1  0
 24 25  1  6
 26 25  1  0
 27 25  2  0
M  END
$$$$
