EHP.pdb
     RDKit          3D

 27 28  0  0  1  0  0  0  0  0999 V2000
   22.3394  -13.5240  -17.6101 N   0  0  0  0  0  0  0  0  0  0  0  0
   22.9497  -12.4297  -16.9076 C   0  0  1  0  0  0  0  0  0  0  0  0
   24.4287  -12.4505  -17.0539 C   0  0  0  0  0  0  0  0  0  0  0  0
   25.1796  -11.4142  -16.2960 C   0  0  0  0  0  0  0  0  0  0  0  0
   26.6252  -11.3815  -16.4544 C   0  0  0  0  0  0  0  0  0  0  0  0
   27.1780  -11.3412  -17.6058 O   0  0  0  0  0  0  0  0  0  0  0  0
   22.3196  -11.1075  -17.2209 C   0  0  0  0  0  0  0  0  0  0  0  0
   22.1672  -10.7182  -18.3981 O   0  0  0  0  0  0  0  0  0  0  0  0
   27.4812  -11.3882  -15.3536 O   0  0  0  0  0  0  0  0  0  0  0  0
   21.9098  -10.3170  -16.1380 N   0  0  0  0  0  0  0  0  0  0  0  0
   21.2465   -9.0570  -16.1841 C   0  0  1  0  0  0  0  0  0  0  0  0
   19.7530   -9.0851  -15.8858 C   0  0  0  0  0  0  0  0  0  0  0  0
   19.0971   -7.7804  -16.1432 C   0  0  0  0  0  0  0  0  0  0  0  0
   18.6820   -6.9099  -15.1179 C   0  0  0  0  0  0  0  0  0  0  0  0
   18.1448   -5.8498  -15.7218 N   0  0  0  0  0  0  0  0  0  0  0  0
   18.1947   -5.9981  -17.0516 C   0  0  0  0  0  0  0  0  0  0  0  0
   18.7726   -7.1681  -17.2754 N   0  0  0  0  0  0  0  0  0  0  0  0
   21.9486   -7.9559  -15.4801 C   0  0  0  0  0  0  0  0  0  0  0  0
   21.9935   -8.1813  -14.2131 O   0  0  0  0  0  0  0  0  0  0  0  0
   22.4925   -6.8306  -16.0943 N   0  0  0  0  0  0  0  0  0  0  0  0
   22.9279   -6.7038  -17.4992 C   0  0  0  0  0  0  0  0  0  0  0  0
   22.0934   -5.5272  -17.9215 C   0  0  0  0  0  0  0  0  0  0  0  0
   21.9442   -4.7064  -16.6506 C   0  0  0  0  0  0  0  0  0  0  0  0
   22.8052   -5.5294  -15.6339 C   0  0  1  0  0  0  0  0  0  0  0  0
   22.5119   -5.1048  -14.2923 C   0  0  0  0  0  0  0  0  0  0  0  0
   23.0249   -4.0348  -13.6439 O   0  0  0  0  0  0  0  0  0  0  0  0
   21.6766   -5.8136  -13.6382 O   0  0  0  0  0  0  0  0  0  0  0  0
  2  7  1  0
  2  1  1  6
  3  2  1  0
  4  3  1  0
  5  4  1  0
  5  6  2  0
  7  8  2  0
  9  5  1  0
 10  7  1  0
 10 11  1  0
 11 12  1  1
 12 13  1  0
 13 14  2  0
 15 14  1  0
 16 15  1  0
 17 13  1  0
 17 16  2  0
 18 11  1  0
 18 19  2  0
 20 18  1  0
 21 20  1  0
 22 21  1  0
 23 22  1  0
 24 23  1  0
 24 20  1  0
 24 25  1  1
 26 25  1  0
 27 25  2  0
M  END
$$$$
