EHP.pdb
     RDKit          3D

 27 28  0  0  1  0  0  0  0  0999 V2000
   29.0316  -21.0010  -17.1997 N   0  0  0  0  0  0  0  0  0  0  0  0
   27.8488  -21.7604  -16.9031 C   0  0  1  0  0  0  0  0  0  0  0  0
   28.1880  -23.0819  -16.3133 C   0  0  0  0  0  0  0  0  0  0  0  0
   27.8209  -24.2764  -17.1198 C   0  0  0  0  0  0  0  0  0  0  0  0
   28.1964  -25.5810  -16.5976 C   0  0  0  0  0  0  0  0  0  0  0  0
   29.2257  -26.2081  -17.0223 O   0  0  0  0  0  0  0  0  0  0  0  0
   26.8324  -20.9827  -16.1250 C   0  0  0  0  0  0  0  0  0  0  0  0
   27.0737  -20.5585  -14.9750 O   0  0  0  0  0  0  0  0  0  0  0  0
   27.4514  -26.2114  -15.6015 O   0  0  0  0  0  0  0  0  0  0  0  0
   25.5922  -20.7518  -16.7365 N   0  0  0  0  0  0  0  0  0  0  0  0
   24.4785  -20.0423  -16.2018 C   0  0  1  0  0  0  0  0  0  0  0  0
   24.2191  -18.6679  -16.8050 C   0  0  0  0  0  0  0  0  0  0  0  0
   23.0293  -18.0049  -16.2188 C   0  0  0  0  0  0  0  0  0  0  0  0
   21.7766  -17.9610  -16.8592 C   0  0  0  0  0  0  0  0  0  0  0  0
   20.9617  -17.2942  -16.0419 N   0  0  0  0  0  0  0  0  0  0  0  0
   21.6180  -16.9181  -14.9370 C   0  0  0  0  0  0  0  0  0  0  0  0
   22.8590  -17.3595  -15.0713 N   0  0  0  0  0  0  0  0  0  0  0  0
   23.2392  -20.8445  -16.0554 C   0  0  0  0  0  0  0  0  0  0  0  0
   22.7629  -21.1610  -17.2092 O   0  0  0  0  0  0  0  0  0  0  0  0
   22.6630  -21.2148  -14.8429 N   0  0  0  0  0  0  0  0  0  0  0  0
   23.2996  -21.1991  -13.5110 C   0  0  0  0  0  0  0  0  0  0  0  0
   22.3288  -20.3208  -12.7727 C   0  0  0  0  0  0  0  0  0  0  0  0
   20.9936  -20.6034  -13.4424 C   0  0  0  0  0  0  0  0  0  0  0  0
   21.3841  -21.7043  -14.4854 C   0  0  1  0  0  0  0  0  0  0  0  0
   20.3295  -21.8566  -15.4502 C   0  0  0  0  0  0  0  0  0  0  0  0
   20.3130  -21.3956  -16.7213 O   0  0  0  0  0  0  0  0  0  0  0  0
   19.2934  -22.4960  -15.0685 O   0  0  0  0  0  0  0  0  0  0  0  0
  2  7  1  0
  2  1  1  1
  3  2  1  0
  4  3  1  0
  5  4  1  0
  5  6  2  0
  7  8  2  0
  9  5  1  0
 10  7  1  0
 10 11  1  0
 11 12  1  6
 12 13  1  0
 13 14  2  0
 15 14  1  0
 16 15  1  0
 17 13  1  0
 17 16  2  0
 18 11  1  0
 18 19  2  0
 20 18  1  0
 21 20  1  0
 22 21  1  0
 23 22  1  0
 24 23  1  0
 24 20  1  0
 24 25  1  6
 26 25  1  0
 27 25  2  0
M  END
$$$$
