GCG.pdb
     RDKit          3D

 15 14  0  0  1  0  0  0  0  0999 V2000
    6.7481  -17.5770   19.1217 N   0  0  0  0  0  0  0  0  0  0  0  0
    6.3707  -17.0253   20.3977 C   0  0  0  0  0  0  0  0  0  0  0  0
    7.5405  -16.3140   20.9655 C   0  0  0  0  0  0  0  0  0  0  0  0
    8.6720  -16.3711   20.3853 O   0  0  0  0  0  0  0  0  0  0  0  0
    7.4381  -15.5539   22.1622 N   0  0  0  0  0  0  0  0  0  0  0  0
    8.5192  -14.8384   22.7488 C   0  0  1  0  0  0  0  0  0  0  0  0
    8.0368  -13.5973   23.4942 C   0  0  0  0  0  0  0  0  0  0  0  0
    6.7986  -14.1140   24.7219 S   0  0  0  0  0  0  0  0  0  0  0  0
    9.3822  -15.6580   23.6161 C   0  0  0  0  0  0  0  0  0  0  0  0
    8.8114  -16.4365   24.4309 O   0  0  0  0  0  0  0  0  0  0  0  0
   10.7965  -15.6103   23.5749 N   0  0  0  0  0  0  0  0  0  0  0  0
   11.5761  -16.5172   24.3880 C   0  0  0  0  0  0  0  0  0  0  0  0
   13.0461  -16.3108   24.1553 C   0  0  0  0  0  0  0  0  0  0  0  0
   13.4435  -15.8304   23.0649 O   0  0  0  0  0  0  0  0  0  0  0  0
   13.9170  -16.6637   25.1667 O   0  0  0  0  0  0  0  0  0  0  0  0
  1  2  1  0
  3  4  2  0
  3  2  1  0
  5  3  1  0
  6  9  1  0
  6  5  1  0
  7  8  1  0
  6  7  1  1
  9 11  1  0
 10  9  2  0
 11 12  1  0
 12 13  1  0
 13 14  2  0
 13 15  1  0
M  END
$$$$
