GCG.pdb
     RDKit          3D

 15 14  0  0  1  0  0  0  0  0999 V2000
    7.8037  -18.6471   17.9296 N   0  0  0  0  0  0  0  0  0  0  0  0
    7.0776  -17.7891   18.8304 C   0  0  0  0  0  0  0  0  0  0  0  0
    8.0446  -16.8889   19.5024 C   0  0  0  0  0  0  0  0  0  0  0  0
    9.2896  -17.1530   19.4835 O   0  0  0  0  0  0  0  0  0  0  0  0
    7.6182  -15.7154   20.1815 N   0  0  0  0  0  0  0  0  0  0  0  0
    8.4940  -14.8225   20.8601 C   0  0  1  0  0  0  0  0  0  0  0  0
    7.8430  -13.4627   21.0956 C   0  0  0  0  0  0  0  0  0  0  0  0
    7.3852  -12.7617   19.4811 S   0  0  0  0  0  0  0  0  0  0  0  0
    9.0410  -15.3575   22.1184 C   0  0  0  0  0  0  0  0  0  0  0  0
    8.2144  -15.6830   23.0165 O   0  0  0  0  0  0  0  0  0  0  0  0
   10.4270  -15.5186   22.3580 N   0  0  0  0  0  0  0  0  0  0  0  0
   10.8829  -16.1562   23.5733 C   0  0  0  0  0  0  0  0  0  0  0  0
   12.3785  -16.0708   23.6904 C   0  0  0  0  0  0  0  0  0  0  0  0
   13.0718  -15.8401   22.6688 O   0  0  0  0  0  0  0  0  0  0  0  0
   12.9411  -16.2524   24.9379 O   0  0  0  0  0  0  0  0  0  0  0  0
  1  2  1  0
  3  4  2  0
  3  2  1  0
  5  3  1  0
  6  9  1  0
  6  5  1  0
  7  8  1  0
  6  7  1  1
  9 11  1  0
 10  9  2  0
 11 12  1  0
 12 13  1  0
 13 14  2  0
 13 15  1  0
M  END
$$$$
