GCG.pdb
     RDKit          3D

 15 14  0  0  1  0  0  0  0  0999 V2000
    5.3569  -18.8883   23.0214 N   0  0  0  0  0  0  0  0  0  0  0  0
    5.7623  -18.3513   24.2950 C   0  0  0  0  0  0  0  0  0  0  0  0
    6.4724  -17.0717   24.0598 C   0  0  0  0  0  0  0  0  0  0  0  0
    6.8619  -16.7579   22.8894 O   0  0  0  0  0  0  0  0  0  0  0  0
    6.7384  -16.1644   25.1211 N   0  0  0  0  0  0  0  0  0  0  0  0
    7.5782  -15.0217   25.0032 C   0  0  1  0  0  0  0  0  0  0  0  0
    7.1715  -13.9190   25.9764 C   0  0  0  0  0  0  0  0  0  0  0  0
    5.4080  -13.5546   25.7215 S   0  0  0  0  0  0  0  0  0  0  0  0
    9.0155  -15.3166   25.1291 C   0  0  0  0  0  0  0  0  0  0  0  0
    9.3654  -16.1074   26.0499 O   0  0  0  0  0  0  0  0  0  0  0  0
   10.0012  -14.7614   24.2779 N   0  0  0  0  0  0  0  0  0  0  0  0
   10.4997  -15.5224   23.1538 C   0  0  0  0  0  0  0  0  0  0  0  0
   11.8025  -16.1876   23.4973 C   0  0  0  0  0  0  0  0  0  0  0  0
   11.8433  -17.0406   24.4183 O   0  0  0  0  0  0  0  0  0  0  0  0
   12.9225  -15.8287   22.7744 O   0  0  0  0  0  0  0  0  0  0  0  0
  1  2  1  0
  3  4  2  0
  3  2  1  0
  5  3  1  0
  6  9  1  0
  6  5  1  0
  7  8  1  0
  6  7  1  1
  9 11  1  0
 10  9  2  0
 11 12  1  0
 12 13  1  0
 13 14  2  0
 13 15  1  0
M  END
$$$$
