GCG.pdb
     RDKit          3D

 15 14  0  0  1  0  0  0  0  0999 V2000
    5.7817  -19.4179   23.8269 N   0  0  0  0  0  0  0  0  0  0  0  0
    6.1038  -18.5851   24.9571 C   0  0  0  0  0  0  0  0  0  0  0  0
    6.5779  -17.2741   24.4537 C   0  0  0  0  0  0  0  0  0  0  0  0
    6.7366  -17.0836   23.2053 O   0  0  0  0  0  0  0  0  0  0  0  0
    6.8673  -16.1997   25.3381 N   0  0  0  0  0  0  0  0  0  0  0  0
    7.5028  -14.9893   24.9433 C   0  0  1  0  0  0  0  0  0  0  0  0
    7.1688  -13.8408   25.8909 C   0  0  0  0  0  0  0  0  0  0  0  0
    5.3592  -13.7245   26.0313 S   0  0  0  0  0  0  0  0  0  0  0  0
    8.9602  -15.1054   24.7669 C   0  0  0  0  0  0  0  0  0  0  0  0
    9.6586  -15.2590   25.8082 O   0  0  0  0  0  0  0  0  0  0  0  0
    9.5977  -15.0528   23.5039 N   0  0  0  0  0  0  0  0  0  0  0  0
   11.0411  -15.0813   23.4191 C   0  0  0  0  0  0  0  0  0  0  0  0
   11.5538  -16.4884   23.5423 C   0  0  0  0  0  0  0  0  0  0  0  0
   11.5520  -17.2429   22.5382 O   0  0  0  0  0  0  0  0  0  0  0  0
   12.0145  -16.9033   24.7757 O   0  0  0  0  0  0  0  0  0  0  0  0
  1  2  1  0
  3  4  2  0
  3  2  1  0
  5  3  1  0
  6  9  1  0
  6  5  1  0
  7  8  1  0
  6  7  1  1
  9 11  1  0
 10  9  2  0
 11 12  1  0
 12 13  1  0
 13 14  2  0
 13 15  1  0
M  END
$$$$
