GCG.pdb
     RDKit          3D

 15 14  0  0  1  0  0  0  0  0999 V2000
  -11.2861  -23.0128   27.9370 N   0  0  0  0  0  0  0  0  0  0  0  0
  -10.2179  -22.4880   28.7485 C   0  0  0  0  0  0  0  0  0  0  0  0
   -8.9330  -23.0150   28.2304 C   0  0  0  0  0  0  0  0  0  0  0  0
   -8.8190  -24.2451   27.9240 O   0  0  0  0  0  0  0  0  0  0  0  0
   -7.8000  -22.1738   28.0608 N   0  0  0  0  0  0  0  0  0  0  0  0
   -6.5608  -22.6046   27.5097 C   0  0  1  0  0  0  0  0  0  0  0  0
   -5.8516  -21.4774   26.7648 C   0  0  0  0  0  0  0  0  0  0  0  0
   -6.9256  -20.9285   25.4036 S   0  0  0  0  0  0  0  0  0  0  0  0
   -5.6528  -23.2283   28.4871 C   0  0  0  0  0  0  0  0  0  0  0  0
   -5.4753  -22.6220   29.5810 O   0  0  0  0  0  0  0  0  0  0  0  0
   -4.9843  -24.4546   28.2557 N   0  0  0  0  0  0  0  0  0  0  0  0
   -4.0987  -24.9981   29.2615 C   0  0  0  0  0  0  0  0  0  0  0  0
   -3.4936  -26.2919   28.7949 C   0  0  0  0  0  0  0  0  0  0  0  0
   -3.9874  -26.8909   27.8075 O   0  0  0  0  0  0  0  0  0  0  0  0
   -2.3999  -26.7794   29.4818 O   0  0  0  0  0  0  0  0  0  0  0  0
  1  2  1  0
  3  4  2  0
  3  2  1  0
  5  3  1  0
  6  9  1  0
  6  5  1  0
  7  8  1  0
  6  7  1  1
  9 11  1  0
 10  9  2  0
 11 12  1  0
 12 13  1  0
 13 14  2  0
 13 15  1  0
M  END
$$$$
