GCG.pdb
     RDKit          3D

 15 14  0  0  1  0  0  0  0  0999 V2000
    7.7715  -12.7966   19.5645 N   0  0  0  0  0  0  0  0  0  0  0  0
    6.8309  -13.0582   20.6236 C   0  0  0  0  0  0  0  0  0  0  0  0
    7.5889  -13.4129   21.8470 C   0  0  0  0  0  0  0  0  0  0  0  0
    8.8359  -13.6596   21.7822 O   0  0  0  0  0  0  0  0  0  0  0  0
    6.9555  -13.4881   23.1172 N   0  0  0  0  0  0  0  0  0  0  0  0
    7.6329  -13.7941   24.3305 C   0  0  1  0  0  0  0  0  0  0  0  0
    6.8379  -13.3401   25.5513 C   0  0  0  0  0  0  0  0  0  0  0  0
    6.7714  -11.5226   25.5457 S   0  0  0  0  0  0  0  0  0  0  0  0
    8.0187  -15.2091   24.4631 C   0  0  0  0  0  0  0  0  0  0  0  0
    7.0867  -16.0566   24.5570 O   0  0  0  0  0  0  0  0  0  0  0  0
    9.3639  -15.6496   24.4892 N   0  0  0  0  0  0  0  0  0  0  0  0
    9.6624  -17.0631   24.5541 C   0  0  0  0  0  0  0  0  0  0  0  0
   11.1434  -17.2897   24.6677 C   0  0  0  0  0  0  0  0  0  0  0  0
   11.9264  -16.3076   24.6662 O   0  0  0  0  0  0  0  0  0  0  0  0
   11.5927  -18.5910   24.7710 O   0  0  0  0  0  0  0  0  0  0  0  0
  1  2  1  0
  3  4  2  0
  3  2  1  0
  5  3  1  0
  6  9  1  0
  6  5  1  0
  7  8  1  0
  6  7  1  1
  9 11  1  0
 10  9  2  0
 11 12  1  0
 12 13  1  0
 13 14  2  0
 13 15  1  0
M  END
$$$$
