GCG.pdb
     RDKit          3D

 15 14  0  0  1  0  0  0  0  0999 V2000
    6.7160  -13.9049   20.6648 N   0  0  0  0  0  0  0  0  0  0  0  0
    6.0333  -13.8555   21.9322 C   0  0  0  0  0  0  0  0  0  0  0  0
    7.0489  -13.8402   23.0117 C   0  0  0  0  0  0  0  0  0  0  0  0
    8.2772  -14.0366   22.7421 O   0  0  0  0  0  0  0  0  0  0  0  0
    6.6884  -13.6086   24.3669 N   0  0  0  0  0  0  0  0  0  0  0  0
    7.6122  -13.6029   25.4492 C   0  0  1  0  0  0  0  0  0  0  0  0
    6.9933  -13.0214   26.7170 C   0  0  0  0  0  0  0  0  0  0  0  0
    6.1575  -11.4656   26.2825 S   0  0  0  0  0  0  0  0  0  0  0  0
    8.2206  -14.9149   25.7271 C   0  0  0  0  0  0  0  0  0  0  0  0
    7.4822  -15.7958   26.2509 O   0  0  0  0  0  0  0  0  0  0  0  0
    9.5716  -15.2231   25.4371 N   0  0  0  0  0  0  0  0  0  0  0  0
   10.0733  -16.5611   25.6592 C   0  0  0  0  0  0  0  0  0  0  0  0
   11.5368  -16.6425   25.3284 C   0  0  0  0  0  0  0  0  0  0  0  0
   12.1121  -15.6593   24.7994 O   0  0  0  0  0  0  0  0  0  0  0  0
   12.2025  -17.8151   25.6241 O   0  0  0  0  0  0  0  0  0  0  0  0
  1  2  1  0
  3  4  2  0
  3  2  1  0
  5  3  1  0
  6  9  1  0
  6  5  1  0
  7  8  1  0
  6  7  1  1
  9 11  1  0
 10  9  2  0
 11 12  1  0
 12 13  1  0
 13 14  2  0
 13 15  1  0
M  END
$$$$
