GCG.pdb
     RDKit          3D

 15 14  0  0  1  0  0  0  0  0999 V2000
    7.5059  -13.3739   20.1735 N   0  0  0  0  0  0  0  0  0  0  0  0
    6.6745  -13.1807   21.3338 C   0  0  0  0  0  0  0  0  0  0  0  0
    7.4943  -13.4259   22.5441 C   0  0  0  0  0  0  0  0  0  0  0  0
    8.6984  -13.8241   22.4357 O   0  0  0  0  0  0  0  0  0  0  0  0
    6.9688  -13.2267   23.8497 N   0  0  0  0  0  0  0  0  0  0  0  0
    7.7183  -13.3984   25.0470 C   0  0  1  0  0  0  0  0  0  0  0  0
    7.1944  -12.5121   26.1733 C   0  0  0  0  0  0  0  0  0  0  0  0
    5.4150  -12.8319   26.3707 S   0  0  0  0  0  0  0  0  0  0  0  0
    7.8209  -14.7971   25.4964 C   0  0  0  0  0  0  0  0  0  0  0  0
    6.7808  -15.5093   25.4135 O   0  0  0  0  0  0  0  0  0  0  0  0
    9.0130  -15.3648   26.0071 N   0  0  0  0  0  0  0  0  0  0  0  0
    9.0650  -16.7739   26.3281 C   0  0  0  0  0  0  0  0  0  0  0  0
   10.4830  -17.2161   26.5547 C   0  0  0  0  0  0  0  0  0  0  0  0
   10.7459  -18.0129   27.4894 O   0  0  0  0  0  0  0  0  0  0  0  0
   11.4577  -16.7205   25.7121 O   0  0  0  0  0  0  0  0  0  0  0  0
  1  2  1  0
  3  4  2  0
  3  2  1  0
  5  3  1  0
  6  9  1  0
  6  5  1  0
  7  8  1  0
  6  7  1  1
  9 11  1  0
 10  9  2  0
 11 12  1  0
 12 13  1  0
 13 14  2  0
 13 15  1  0
M  END
$$$$
