WKT.pdb
     RDKit          3D

 31 32  0  0  1  0  0  0  0  0999 V2000
   25.1669  -18.3966  -17.6870 N   0  0  0  0  0  0  0  0  0  0  0  0
   25.2006  -18.9564  -16.3648 C   0  0  1  0  0  0  0  0  0  0  0  0
   25.2142  -17.8939  -15.2919 C   0  0  0  0  0  0  0  0  0  0  0  0
   26.3382  -16.9613  -15.5629 C   0  0  0  0  0  0  0  0  0  0  0  0
   26.3044  -15.6005  -15.4117 C   0  0  0  0  0  0  0  0  0  0  0  0
   27.5050  -15.1003  -15.7520 N   0  0  0  0  0  0  0  0  0  0  0  0
   28.3348  -16.0939  -16.1253 C   0  0  0  0  0  0  0  0  0  0  0  0
   29.6613  -16.0813  -16.5568 C   0  0  0  0  0  0  0  0  0  0  0  0
   30.2135  -17.3024  -16.8629 C   0  0  0  0  0  0  0  0  0  0  0  0
   29.4893  -18.4746  -16.7474 C   0  0  0  0  0  0  0  0  0  0  0  0
   28.1823  -18.4659  -16.3200 C   0  0  0  0  0  0  0  0  0  0  0  0
   27.6065  -17.2575  -16.0076 C   0  0  0  0  0  0  0  0  0  0  0  0
   24.0805  -19.9052  -16.2027 C   0  0  0  0  0  0  0  0  0  0  0  0
   22.9593  -19.7317  -16.7758 O   0  0  0  0  0  0  0  0  0  0  0  0
   24.2349  -21.0416  -15.3955 N   0  0  0  0  0  0  0  0  0  0  0  0
   23.2089  -22.0761  -15.3467 C   0  0  1  0  0  0  0  0  0  0  0  0
   23.8193  -23.4315  -15.1411 C   0  0  0  0  0  0  0  0  0  0  0  0
   22.7816  -24.5027  -15.1693 C   0  0  0  0  0  0  0  0  0  0  0  0
   23.3586  -25.8915  -15.1155 C   0  0  0  0  0  0  0  0  0  0  0  0
   22.2708  -26.9451  -15.1502 C   0  0  0  0  0  0  0  0  0  0  0  0
   22.8739  -28.2519  -15.0630 N   0  0  0  0  0  0  0  0  0  0  0  0
   22.2455  -21.7643  -14.2244 C   0  0  0  0  0  0  0  0  0  0  0  0
   22.6383  -21.3222  -13.1199 O   0  0  0  0  0  0  0  0  0  0  0  0
   17.5363  -21.0201  -12.8882 C   0  0  0  0  0  0  0  0  0  0  0  0
   18.5700  -21.2727  -13.9656 C   0  0  1  0  0  0  0  0  0  0  0  0
   18.7268  -20.1745  -14.7797 O   0  0  0  0  0  0  0  0  0  0  0  0
   19.8864  -21.7097  -13.3765 C   0  0  2  0  0  0  0  0  0  0  0  0
   20.8552  -21.9717  -14.4084 N   0  0  0  0  0  0  0  0  0  0  0  0
   19.7056  -22.8707  -12.4672 C   0  0  0  0  0  0  0  0  0  0  0  0
   19.5767  -22.6950  -11.0925 O   0  0  0  0  0  0  0  0  0  0  0  0
   19.6721  -24.0187  -12.9745 O   0  0  0  0  0  0  0  0  0  0  0  0
  2  1  1  6
  3  4  1  0
  3  2  1  0
  4  5  2  0
  5  6  1  0
  7  6  1  0
  8  7  2  0
  9  8  1  0
 10 11  1  0
 10  9  2  0
 11 12  2  0
 12  4  1  0
 12  7  1  0
 13  2  1  0
 13 15  1  0
 14 13  2  0
 16 15  1  0
 16 22  1  0
 16 17  1  1
 18 17  1  0
 19 18  1  0
 20 19  1  0
 21 20  1  0
 22 23  2  0
 22 28  1  0
 25 24  1  1
 25 26  1  0
 27 25  1  0
 27 29  1  0
 27 28  1  6
 29 30  1  0
 31 29  2  0
M  END
$$$$
