WKT.pdb
     RDKit          3D

 31 32  0  0  1  0  0  0  0  0999 V2000
   28.3921  -20.0464   -9.7730 N   0  0  0  0  0  0  0  0  0  0  0  0
   27.0520  -20.4743   -9.4832 C   0  0  1  0  0  0  0  0  0  0  0  0
   26.3724  -19.5853   -8.4692 C   0  0  0  0  0  0  0  0  0  0  0  0
   27.3300  -19.3034   -7.3691 C   0  0  0  0  0  0  0  0  0  0  0  0
   28.1816  -18.2327   -7.3030 C   0  0  0  0  0  0  0  0  0  0  0  0
   28.8898  -18.3167   -6.1633 N   0  0  0  0  0  0  0  0  0  0  0  0
   28.5305  -19.4155   -5.4714 C   0  0  0  0  0  0  0  0  0  0  0  0
   28.9706  -19.9277   -4.2509 C   0  0  0  0  0  0  0  0  0  0  0  0
   28.3766  -21.0939   -3.8304 C   0  0  0  0  0  0  0  0  0  0  0  0
   27.3977  -21.7197   -4.5801 C   0  0  0  0  0  0  0  0  0  0  0  0
   26.9773  -21.1985   -5.7812 C   0  0  0  0  0  0  0  0  0  0  0  0
   27.5556  -20.0329   -6.2242 C   0  0  0  0  0  0  0  0  0  0  0  0
   26.2859  -20.5805  -10.7413 C   0  0  0  0  0  0  0  0  0  0  0  0
   26.3231  -19.6764  -11.6339 O   0  0  0  0  0  0  0  0  0  0  0  0
   25.4841  -21.7059  -10.9815 N   0  0  0  0  0  0  0  0  0  0  0  0
   24.7732  -21.8689  -12.2437 C   0  0  1  0  0  0  0  0  0  0  0  0
   24.7770  -23.3036  -12.6834 C   0  0  0  0  0  0  0  0  0  0  0  0
   24.1101  -23.4660  -14.0077 C   0  0  0  0  0  0  0  0  0  0  0  0
   23.9647  -24.9035  -14.4283 C   0  0  0  0  0  0  0  0  0  0  0  0
   23.4679  -25.0159  -15.8549 C   0  0  0  0  0  0  0  0  0  0  0  0
   23.2789  -26.4072  -16.1827 N   0  0  0  0  0  0  0  0  0  0  0  0
   23.3524  -21.3801  -12.0775 C   0  0  0  0  0  0  0  0  0  0  0  0
   22.7352  -21.4987  -10.9937 O   0  0  0  0  0  0  0  0  0  0  0  0
   21.9372  -17.8549  -13.5316 C   0  0  0  0  0  0  0  0  0  0  0  0
   21.1561  -19.0674  -13.9931 C   0  0  1  0  0  0  0  0  0  0  0  0
   21.4695  -19.4041  -15.2900 O   0  0  0  0  0  0  0  0  0  0  0  0
   21.3500  -20.2365  -13.0621 C   0  0  2  0  0  0  0  0  0  0  0  0
   22.6836  -20.7679  -13.1673 N   0  0  0  0  0  0  0  0  0  0  0  0
   20.3116  -21.2754  -13.2858 C   0  0  0  0  0  0  0  0  0  0  0  0
   20.6226  -22.4819  -13.9062 O   0  0  0  0  0  0  0  0  0  0  0  0
   19.1418  -21.0343  -12.8986 O   0  0  0  0  0  0  0  0  0  0  0  0
  2  1  1  6
  3  4  1  0
  3  2  1  0
  4  5  2  0
  5  6  1  0
  7  6  1  0
  8  7  2  0
  9  8  1  0
 10 11  1  0
 10  9  2  0
 11 12  2  0
 12  4  1  0
 12  7  1  0
 13  2  1  0
 13 15  1  0
 14 13  2  0
 16 15  1  0
 16 22  1  0
 16 17  1  1
 18 17  1  0
 19 18  1  0
 20 19  1  0
 21 20  1  0
 22 23  2  0
 22 28  1  0
 25 24  1  1
 25 26  1  0
 27 25  1  0
 27 29  1  0
 27 28  1  6
 29 30  1  0
 31 29  2  0
M  END
$$$$
