WKT.pdb
     RDKit          3D

 31 32  0  0  1  0  0  0  0  0999 V2000
   24.8920  -19.3555  -11.5142 N   0  0  0  0  0  0  0  0  0  0  0  0
   25.9874  -20.2465  -11.7768 C   0  0  1  0  0  0  0  0  0  0  0  0
   26.0965  -21.3421  -10.7432 C   0  0  0  0  0  0  0  0  0  0  0  0
   26.3240  -20.7186   -9.4143 C   0  0  0  0  0  0  0  0  0  0  0  0
   25.3503  -20.3609   -8.5199 C   0  0  0  0  0  0  0  0  0  0  0  0
   25.9384  -19.8297   -7.4339 N   0  0  0  0  0  0  0  0  0  0  0  0
   27.2773  -19.8255   -7.5843 C   0  0  0  0  0  0  0  0  0  0  0  0
   28.3029  -19.3852   -6.7477 C   0  0  0  0  0  0  0  0  0  0  0  0
   29.5837  -19.5342   -7.2244 C   0  0  0  0  0  0  0  0  0  0  0  0
   29.8349  -20.0905   -8.4651 C   0  0  0  0  0  0  0  0  0  0  0  0
   28.8096  -20.5187   -9.2752 C   0  0  0  0  0  0  0  0  0  0  0  0
   27.5193  -20.3809   -8.8218 C   0  0  0  0  0  0  0  0  0  0  0  0
   25.8720  -20.7780  -13.1498 C   0  0  0  0  0  0  0  0  0  0  0  0
   24.7536  -20.8727  -13.7463 O   0  0  0  0  0  0  0  0  0  0  0  0
   27.0194  -21.1980  -13.8382 N   0  0  0  0  0  0  0  0  0  0  0  0
   26.9737  -21.5038  -15.2628 C   0  0  1  0  0  0  0  0  0  0  0  0
   28.3118  -21.2828  -15.9050 C   0  0  0  0  0  0  0  0  0  0  0  0
   28.1697  -20.6528  -17.2496 C   0  0  0  0  0  0  0  0  0  0  0  0
   29.4889  -20.3633  -17.9133 C   0  0  0  0  0  0  0  0  0  0  0  0
   29.2963  -19.7722  -19.2947 C   0  0  0  0  0  0  0  0  0  0  0  0
   30.5786  -19.3823  -19.8263 N   0  0  0  0  0  0  0  0  0  0  0  0
   26.5401  -22.9403  -15.4464 C   0  0  0  0  0  0  0  0  0  0  0  0
   27.2118  -23.8963  -14.9942 O   0  0  0  0  0  0  0  0  0  0  0  0
   23.1018  -24.5235  -14.4680 C   0  0  0  0  0  0  0  0  0  0  0  0
   23.3516  -24.6136  -15.9589 C   0  0  1  0  0  0  0  0  0  0  0  0
   22.6637  -23.6384  -16.6440 O   0  0  0  0  0  0  0  0  0  0  0  0
   24.8242  -24.5696  -16.2758 C   0  0  2  0  0  0  0  0  0  0  0  0
   25.3430  -23.2331  -16.1471 N   0  0  0  0  0  0  0  0  0  0  0  0
   25.1002  -25.1534  -17.6139 C   0  0  0  0  0  0  0  0  0  0  0  0
   25.4608  -24.3477  -18.6901 O   0  0  0  0  0  0  0  0  0  0  0  0
   24.9990  -26.3976  -17.7479 O   0  0  0  0  0  0  0  0  0  0  0  0
  2  1  1  1
  3  4  1  0
  3  2  1  0
  4  5  2  0
  5  6  1  0
  7  6  1  0
  8  7  2  0
  9  8  1  0
 10 11  1  0
 10  9  2  0
 11 12  2  0
 12  4  1  0
 12  7  1  0
 13  2  1  0
 13 15  1  0
 14 13  2  0
 16 15  1  0
 16 22  1  0
 16 17  1  1
 18 17  1  0
 19 18  1  0
 20 19  1  0
 21 20  1  0
 22 23  2  0
 22 28  1  0
 25 24  1  1
 25 26  1  0
 27 25  1  0
 27 29  1  0
 27 28  1  6
 29 30  1  0
 31 29  2  0
M  END
$$$$
