WKT.pdb
     RDKit          3D

 31 32  0  0  1  0  0  0  0  0999 V2000
   20.2505   -6.2027  -16.8787 N   0  0  0  0  0  0  0  0  0  0  0  0
   20.1016   -6.8744  -15.6180 C   0  0  1  0  0  0  0  0  0  0  0  0
   21.2918   -6.6654  -14.7123 C   0  0  0  0  0  0  0  0  0  0  0  0
   22.3912   -7.5577  -15.1614 C   0  0  0  0  0  0  0  0  0  0  0  0
   23.4132   -7.2082  -16.0037 C   0  0  0  0  0  0  0  0  0  0  0  0
   24.2110   -8.2763  -16.1775 N   0  0  0  0  0  0  0  0  0  0  0  0
   23.7450   -9.3256  -15.4725 C   0  0  0  0  0  0  0  0  0  0  0  0
   24.2164  -10.6308  -15.3317 C   0  0  0  0  0  0  0  0  0  0  0  0
   23.4811  -11.4591  -14.5175 C   0  0  0  0  0  0  0  0  0  0  0  0
   22.3386  -11.0171  -13.8763 C   0  0  0  0  0  0  0  0  0  0  0  0
   21.8902   -9.7260  -14.0280 C   0  0  0  0  0  0  0  0  0  0  0  0
   22.6077   -8.8775  -14.8370 C   0  0  0  0  0  0  0  0  0  0  0  0
   18.8334   -6.4592  -14.9852 C   0  0  0  0  0  0  0  0  0  0  0  0
   18.3448   -5.2973  -15.1492 O   0  0  0  0  0  0  0  0  0  0  0  0
   18.1274   -7.3584  -14.1729 N   0  0  0  0  0  0  0  0  0  0  0  0
   16.8368   -7.0002  -13.5975 C   0  0  1  0  0  0  0  0  0  0  0  0
   15.9208   -8.1878  -13.5468 C   0  0  0  0  0  0  0  0  0  0  0  0
   14.5660   -7.8061  -13.0530 C   0  0  0  0  0  0  0  0  0  0  0  0
   13.5836   -8.9458  -13.0702 C   0  0  0  0  0  0  0  0  0  0  0  0
   12.1809   -8.4732  -12.7481 C   0  0  0  0  0  0  0  0  0  0  0  0
   11.3220   -9.6189  -12.5789 N   0  0  0  0  0  0  0  0  0  0  0  0
   17.0515   -6.4498  -12.2061 C   0  0  0  0  0  0  0  0  0  0  0  0
   17.9027   -6.9371  -11.4267 O   0  0  0  0  0  0  0  0  0  0  0  0
   15.5938   -3.0554   -8.8405 C   0  0  0  0  0  0  0  0  0  0  0  0
   15.4118   -3.6933  -10.2018 C   0  0  1  0  0  0  0  0  0  0  0  0
   15.4747   -2.7573  -11.2085 O   0  0  0  0  0  0  0  0  0  0  0  0
   16.4023   -4.8066  -10.4269 C   0  0  2  0  0  0  0  0  0  0  0  0
   16.2773   -5.3518  -11.7532 N   0  0  0  0  0  0  0  0  0  0  0  0
   16.2808   -5.8502   -9.3764 C   0  0  0  0  0  0  0  0  0  0  0  0
   16.9702   -5.7427   -8.1720 O   0  0  0  0  0  0  0  0  0  0  0  0
   15.5366   -6.8351   -9.6054 O   0  0  0  0  0  0  0  0  0  0  0  0
  2  1  1  6
  3  4  1  0
  3  2  1  0
  4  5  2  0
  5  6  1  0
  7  6  1  0
  8  7  2  0
  9  8  1  0
 10 11  1  0
 10  9  2  0
 11 12  2  0
 12  4  1  0
 12  7  1  0
 13  2  1  0
 13 15  1  0
 14 13  2  0
 16 15  1  0
 16 22  1  0
 16 17  1  1
 18 17  1  0
 19 18  1  0
 20 19  1  0
 21 20  1  0
 22 23  2  0
 22 28  1  0
 25 24  1  1
 25 26  1  0
 27 25  1  0
 27 29  1  0
 27 28  1  6
 29 30  1  0
 31 29  2  0
M  END
$$$$
