WKT.pdb
     RDKit          3D

 31 32  0  0  1  0  0  0  0  0999 V2000
   25.1497  -19.3860  -11.9284 N   0  0  0  0  0  0  0  0  0  0  0  0
   25.9566  -20.5633  -12.0890 C   0  0  1  0  0  0  0  0  0  0  0  0
   25.7682  -21.5466  -10.9585 C   0  0  0  0  0  0  0  0  0  0  0  0
   26.1807  -20.8941   -9.6894 C   0  0  0  0  0  0  0  0  0  0  0  0
   25.3549  -20.2185   -8.8306 C   0  0  0  0  0  0  0  0  0  0  0  0
   26.0859  -19.7699   -7.7953 N   0  0  0  0  0  0  0  0  0  0  0  0
   27.3755  -20.1303   -7.9446 C   0  0  0  0  0  0  0  0  0  0  0  0
   28.4991  -19.9052   -7.1493 C   0  0  0  0  0  0  0  0  0  0  0  0
   29.6852  -20.4253   -7.6102 C   0  0  0  0  0  0  0  0  0  0  0  0
   29.7541  -21.1315   -8.7970 C   0  0  0  0  0  0  0  0  0  0  0  0
   28.6346  -21.3428   -9.5670 C   0  0  0  0  0  0  0  0  0  0  0  0
   27.4358  -20.8329   -9.1282 C   0  0  0  0  0  0  0  0  0  0  0  0
   25.6896  -21.1671  -13.4101 C   0  0  0  0  0  0  0  0  0  0  0  0
   24.5613  -21.0620  -13.9859 O   0  0  0  0  0  0  0  0  0  0  0  0
   26.6979  -21.8844  -14.0702 N   0  0  0  0  0  0  0  0  0  0  0  0
   26.4863  -22.4239  -15.4079 C   0  0  1  0  0  0  0  0  0  0  0  0
   27.7893  -22.5970  -16.1318 C   0  0  0  0  0  0  0  0  0  0  0  0
   28.0815  -21.4261  -17.0085 C   0  0  0  0  0  0  0  0  0  0  0  0
   29.3280  -21.5974  -17.8340 C   0  0  0  0  0  0  0  0  0  0  0  0
   29.5637  -20.4033  -18.7359 C   0  0  0  0  0  0  0  0  0  0  0  0
   30.8439  -20.5444  -19.3840 N   0  0  0  0  0  0  0  0  0  0  0  0
   25.7723  -23.7518  -15.2981 C   0  0  0  0  0  0  0  0  0  0  0  0
   26.2031  -24.6755  -14.5696 O   0  0  0  0  0  0  0  0  0  0  0  0
   22.1659  -24.4339  -14.1797 C   0  0  0  0  0  0  0  0  0  0  0  0
   22.3604  -24.8725  -15.6161 C   0  0  1  0  0  0  0  0  0  0  0  0
   21.8613  -23.9418  -16.4982 O   0  0  0  0  0  0  0  0  0  0  0  0
   23.8059  -25.1830  -15.9079 C   0  0  2  0  0  0  0  0  0  0  0  0
   24.5808  -23.9763  -16.0327 N   0  0  0  0  0  0  0  0  0  0  0  0
   23.9337  -26.0591  -17.1010 C   0  0  0  0  0  0  0  0  0  0  0  0
   23.7104  -27.4302  -17.0143 O   0  0  0  0  0  0  0  0  0  0  0  0
   24.2496  -25.5270  -18.1934 O   0  0  0  0  0  0  0  0  0  0  0  0
  2  1  1  1
  3  4  1  0
  3  2  1  0
  4  5  2  0
  5  6  1  0
  7  6  1  0
  8  7  2  0
  9  8  1  0
 10 11  1  0
 10  9  2  0
 11 12  2  0
 12  4  1  0
 12  7  1  0
 13  2  1  0
 13 15  1  0
 14 13  2  0
 16 15  1  0
 16 22  1  0
 16 17  1  1
 18 17  1  0
 19 18  1  0
 20 19  1  0
 21 20  1  0
 22 23  2  0
 22 28  1  0
 25 24  1  1
 25 26  1  0
 27 25  1  0
 27 29  1  0
 27 28  1  6
 29 30  1  0
 31 29  2  0
M  END
$$$$
