WKT.pdb
     RDKit          3D

 31 32  0  0  1  0  0  0  0  0999 V2000
   28.1890  -21.0643   -9.1928 N   0  0  0  0  0  0  0  0  0  0  0  0
   26.7605  -21.1982   -9.1259 C   0  0  1  0  0  0  0  0  0  0  0  0
   26.1778  -20.5274   -7.9049 C   0  0  0  0  0  0  0  0  0  0  0  0
   27.2432  -19.7240   -7.2520 C   0  0  0  0  0  0  0  0  0  0  0  0
   27.8948  -18.6551   -7.8078 C   0  0  0  0  0  0  0  0  0  0  0  0
   28.7883  -18.1870   -6.9191 N   0  0  0  0  0  0  0  0  0  0  0  0
   28.7467  -18.9175   -5.7878 C   0  0  0  0  0  0  0  0  0  0  0  0
   29.4680  -18.8252   -4.5974 C   0  0  0  0  0  0  0  0  0  0  0  0
   29.1647  -19.7519   -3.6284 C   0  0  0  0  0  0  0  0  0  0  0  0
   28.1973  -20.7193   -3.8285 C   0  0  0  0  0  0  0  0  0  0  0  0
   27.4969  -20.7937   -5.0095 C   0  0  0  0  0  0  0  0  0  0  0  0
   27.7813  -19.8784   -5.9949 C   0  0  0  0  0  0  0  0  0  0  0  0
   26.1598  -20.7025  -10.3807 C   0  0  0  0  0  0  0  0  0  0  0  0
   26.4015  -19.5393  -10.8325 O   0  0  0  0  0  0  0  0  0  0  0  0
   25.2916  -21.5233  -11.1150 N   0  0  0  0  0  0  0  0  0  0  0  0
   24.8091  -21.1229  -12.4310 C   0  0  1  0  0  0  0  0  0  0  0  0
   25.4607  -21.9324  -13.5136 C   0  0  0  0  0  0  0  0  0  0  0  0
   26.2347  -21.0642  -14.4476 C   0  0  0  0  0  0  0  0  0  0  0  0
   26.0419  -21.4275  -15.8951 C   0  0  0  0  0  0  0  0  0  0  0  0
   26.8307  -20.5100  -16.8064 C   0  0  0  0  0  0  0  0  0  0  0  0
   26.6643  -20.9411  -18.1723 N   0  0  0  0  0  0  0  0  0  0  0  0
   23.3086  -21.2991  -12.4821 C   0  0  0  0  0  0  0  0  0  0  0  0
   22.7703  -22.4229  -12.3514 O   0  0  0  0  0  0  0  0  0  0  0  0
   20.6967  -18.6622  -10.8271 C   0  0  0  0  0  0  0  0  0  0  0  0
   20.3976  -18.9713  -12.2791 C   0  0  1  0  0  0  0  0  0  0  0  0
   20.7699  -17.9328  -13.1015 O   0  0  0  0  0  0  0  0  0  0  0  0
   21.0350  -20.2668  -12.7107 C   0  0  2  0  0  0  0  0  0  0  0  0
   22.4712  -20.1730  -12.6827 N   0  0  0  0  0  0  0  0  0  0  0  0
   20.5255  -20.6964  -14.0386 C   0  0  0  0  0  0  0  0  0  0  0  0
   21.3523  -20.7053  -15.1583 O   0  0  0  0  0  0  0  0  0  0  0  0
   19.3245  -21.0525  -14.1234 O   0  0  0  0  0  0  0  0  0  0  0  0
  2  1  1  6
  3  4  1  0
  3  2  1  0
  4  5  2  0
  5  6  1  0
  7  6  1  0
  8  7  2  0
  9  8  1  0
 10 11  1  0
 10  9  2  0
 11 12  2  0
 12  4  1  0
 12  7  1  0
 13  2  1  0
 13 15  1  0
 14 13  2  0
 16 15  1  0
 16 22  1  0
 16 17  1  6
 18 17  1  0
 19 18  1  0
 20 19  1  0
 21 20  1  0
 22 23  2  0
 22 28  1  0
 25 24  1  1
 25 26  1  0
 27 25  1  0
 27 29  1  0
 27 28  1  6
 29 30  1  0
 31 29  2  0
M  END
$$$$
