WKT.pdb
     RDKit          3D

 31 32  0  0  1  0  0  0  0  0999 V2000
   28.6463  -20.9153   -9.8267 N   0  0  0  0  0  0  0  0  0  0  0  0
   27.2271  -20.7316   -9.7045 C   0  0  1  0  0  0  0  0  0  0  0  0
   26.8747  -19.5007   -8.9037 C   0  0  0  0  0  0  0  0  0  0  0  0
   27.8162  -19.3943   -7.7597 C   0  0  0  0  0  0  0  0  0  0  0  0
   29.0147  -18.7313   -7.7675 C   0  0  0  0  0  0  0  0  0  0  0  0
   29.5822  -18.8552   -6.5551 N   0  0  0  0  0  0  0  0  0  0  0  0
   28.7916  -19.5833   -5.7428 C   0  0  0  0  0  0  0  0  0  0  0  0
   28.9416  -19.9790   -4.4136 C   0  0  0  0  0  0  0  0  0  0  0  0
   27.9209  -20.7321   -3.8837 C   0  0  0  0  0  0  0  0  0  0  0  0
   26.8098  -21.0750   -4.6318 C   0  0  0  0  0  0  0  0  0  0  0  0
   26.6805  -20.6749   -5.9410 C   0  0  0  0  0  0  0  0  0  0  0  0
   27.6875  -19.9208   -6.4948 C   0  0  0  0  0  0  0  0  0  0  0  0
   26.6139  -20.7232  -11.0480 C   0  0  0  0  0  0  0  0  0  0  0  0
   27.3089  -20.6264  -12.1078 O   0  0  0  0  0  0  0  0  0  0  0  0
   25.2217  -20.8240  -11.1844 N   0  0  0  0  0  0  0  0  0  0  0  0
   24.6173  -21.2675  -12.4346 C   0  0  1  0  0  0  0  0  0  0  0  0
   25.0424  -22.6665  -12.7725 C   0  0  0  0  0  0  0  0  0  0  0  0
   24.4784  -23.1023  -14.0829 C   0  0  0  0  0  0  0  0  0  0  0  0
   24.9208  -24.4812  -14.4918 C   0  0  0  0  0  0  0  0  0  0  0  0
   24.4326  -24.8299  -15.8828 C   0  0  0  0  0  0  0  0  0  0  0  0
   24.9388  -26.1289  -16.2510 N   0  0  0  0  0  0  0  0  0  0  0  0
   23.1125  -21.1979  -12.3082 C   0  0  0  0  0  0  0  0  0  0  0  0
   22.4987  -21.7852  -11.3874 O   0  0  0  0  0  0  0  0  0  0  0  0
   21.1022  -17.7202  -13.4302 C   0  0  0  0  0  0  0  0  0  0  0  0
   20.5156  -19.0226  -13.9331 C   0  0  1  0  0  0  0  0  0  0  0  0
   20.8149  -19.2298  -15.2601 O   0  0  0  0  0  0  0  0  0  0  0  0
   20.9524  -20.1891  -13.0850 C   0  0  2  0  0  0  0  0  0  0  0  0
   22.3581  -20.4520  -13.2487 N   0  0  0  0  0  0  0  0  0  0  0  0
   20.1204  -21.3893  -13.3583 C   0  0  0  0  0  0  0  0  0  0  0  0
   18.8032  -21.4680  -12.9156 O   0  0  0  0  0  0  0  0  0  0  0  0
   20.6398  -22.3340  -14.0018 O   0  0  0  0  0  0  0  0  0  0  0  0
  2  1  1  6
  3  4  1  0
  3  2  1  0
  4  5  2  0
  5  6  1  0
  7  6  1  0
  8  7  2  0
  9  8  1  0
 10 11  1  0
 10  9  2  0
 11 12  2  0
 12  4  1  0
 12  7  1  0
 13  2  1  0
 13 15  1  0
 14 13  2  0
 16 15  1  0
 16 22  1  0
 16 17  1  1
 18 17  1  0
 19 18  1  0
 20 19  1  0
 21 20  1  0
 22 23  2  0
 22 28  1  0
 25 24  1  1
 25 26  1  0
 27 25  1  0
 27 29  1  0
 27 28  1  6
 29 30  1  0
 31 29  2  0
M  END
$$$$
