WKT.pdb
     RDKit          3D

 31 32  0  0  1  0  0  0  0  0999 V2000
   33.8938  -29.7488  -18.3401 N   0  0  0  0  0  0  0  0  0  0  0  0
   32.7839  -29.9486  -19.2295 C   0  0  1  0  0  0  0  0  0  0  0  0
   33.2255  -30.1843  -20.6542 C   0  0  0  0  0  0  0  0  0  0  0  0
   33.6205  -28.8818  -21.2493 C   0  0  0  0  0  0  0  0  0  0  0  0
   34.8469  -28.2843  -21.1273 C   0  0  0  0  0  0  0  0  0  0  0  0
   34.8268  -27.1206  -21.8003 N   0  0  0  0  0  0  0  0  0  0  0  0
   33.6188  -26.9302  -22.3657 C   0  0  0  0  0  0  0  0  0  0  0  0
   33.1152  -25.8922  -23.1498 C   0  0  0  0  0  0  0  0  0  0  0  0
   31.8122  -26.0222  -23.5681 C   0  0  0  0  0  0  0  0  0  0  0  0
   31.0483  -27.1231  -23.2274 C   0  0  0  0  0  0  0  0  0  0  0  0
   31.5632  -28.1363  -22.4532 C   0  0  0  0  0  0  0  0  0  0  0  0
   32.8641  -28.0304  -22.0219 C   0  0  0  0  0  0  0  0  0  0  0  0
   31.9320  -31.0406  -18.7167 C   0  0  0  0  0  0  0  0  0  0  0  0
   32.3352  -31.8500  -17.8234 O   0  0  0  0  0  0  0  0  0  0  0  0
   30.6325  -31.2100  -19.2161 N   0  0  0  0  0  0  0  0  0  0  0  0
   29.7281  -32.1993  -18.6429 C   0  0  1  0  0  0  0  0  0  0  0  0
   29.4075  -31.8728  -17.2138 C   0  0  0  0  0  0  0  0  0  0  0  0
   28.4619  -32.8678  -16.6299 C   0  0  0  0  0  0  0  0  0  0  0  0
   28.0887  -32.5677  -15.2033 C   0  0  0  0  0  0  0  0  0  0  0  0
   27.1584  -33.6225  -14.6405 C   0  0  0  0  0  0  0  0  0  0  0  0
   26.9938  -33.4025  -13.2250 N   0  0  0  0  0  0  0  0  0  0  0  0
   28.4591  -32.2430  -19.4632 C   0  0  0  0  0  0  0  0  0  0  0  0
   27.7635  -31.2197  -19.6594 O   0  0  0  0  0  0  0  0  0  0  0  0
   28.3003  -34.1174  -22.9189 C   0  0  0  0  0  0  0  0  0  0  0  0
   27.1579  -34.5544  -22.0259 C   0  0  1  0  0  0  0  0  0  0  0  0
   27.3716  -35.8145  -21.5161 O   0  0  0  0  0  0  0  0  0  0  0  0
   26.9027  -33.5554  -20.9269 C   0  0  2  0  0  0  0  0  0  0  0  0
   28.0286  -33.4670  -20.0343 N   0  0  0  0  0  0  0  0  0  0  0  0
   25.6388  -33.8625  -20.2088 C   0  0  0  0  0  0  0  0  0  0  0  0
   24.4025  -33.7070  -20.8292 O   0  0  0  0  0  0  0  0  0  0  0  0
   25.7166  -34.2677  -19.0230 O   0  0  0  0  0  0  0  0  0  0  0  0
  2  1  1  1
  3  4  1  0
  3  2  1  0
  4  5  2  0
  5  6  1  0
  7  6  1  0
  8  7  2  0
  9  8  1  0
 10 11  1  0
 10  9  2  0
 11 12  2  0
 12  4  1  0
 12  7  1  0
 13  2  1  0
 13 15  1  0
 14 13  2  0
 16 15  1  0
 16 22  1  0
 16 17  1  1
 18 17  1  0
 19 18  1  0
 20 19  1  0
 21 20  1  0
 22 23  2  0
 22 28  1  0
 25 24  1  1
 25 26  1  0
 27 25  1  0
 27 29  1  0
 27 28  1  1
 29 30  1  0
 31 29  2  0
M  END
$$$$
