WKT.pdb
     RDKit          3D

 31 32  0  0  1  0  0  0  0  0999 V2000
   25.3818  -22.1087  -14.4072 N   0  0  0  0  0  0  0  0  0  0  0  0
   24.4372  -22.0632  -15.4882 C   0  0  1  0  0  0  0  0  0  0  0  0
   24.1017  -23.4380  -16.0153 C   0  0  0  0  0  0  0  0  0  0  0  0
   25.3581  -24.0952  -16.4581 C   0  0  0  0  0  0  0  0  0  0  0  0
   25.9357  -25.1930  -15.8774 C   0  0  0  0  0  0  0  0  0  0  0  0
   27.0578  -25.4961  -16.5530 N   0  0  0  0  0  0  0  0  0  0  0  0
   27.2400  -24.6279  -17.5671 C   0  0  0  0  0  0  0  0  0  0  0  0
   28.2403  -24.5285  -18.5342 C   0  0  0  0  0  0  0  0  0  0  0  0
   28.1134  -23.5003  -19.4378 C   0  0  0  0  0  0  0  0  0  0  0  0
   27.0509  -22.6169  -19.3857 C   0  0  0  0  0  0  0  0  0  0  0  0
   26.0746  -22.7319  -18.4242 C   0  0  0  0  0  0  0  0  0  0  0  0
   26.1782  -23.7519  -17.5086 C   0  0  0  0  0  0  0  0  0  0  0  0
   23.2368  -21.3156  -15.0624 C   0  0  0  0  0  0  0  0  0  0  0  0
   22.7838  -21.3827  -13.8767 O   0  0  0  0  0  0  0  0  0  0  0  0
   22.5578  -20.4987  -15.9781 N   0  0  0  0  0  0  0  0  0  0  0  0
   21.4180  -19.6893  -15.5647 C   0  0  1  0  0  0  0  0  0  0  0  0
   21.2795  -18.4712  -16.4302 C   0  0  0  0  0  0  0  0  0  0  0  0
   22.3383  -17.4661  -16.1242 C   0  0  0  0  0  0  0  0  0  0  0  0
   22.2942  -16.2623  -17.0260 C   0  0  0  0  0  0  0  0  0  0  0  0
   23.3912  -15.2746  -16.6857 C   0  0  0  0  0  0  0  0  0  0  0  0
   23.3158  -14.1530  -17.5887 N   0  0  0  0  0  0  0  0  0  0  0  0
   20.1624  -20.5274  -15.6422 C   0  0  0  0  0  0  0  0  0  0  0  0
   19.8282  -21.1215  -16.6933 O   0  0  0  0  0  0  0  0  0  0  0  0
   19.4790  -23.5830  -13.8931 C   0  0  0  0  0  0  0  0  0  0  0  0
   18.3724  -22.6389  -13.4722 C   0  0  1  0  0  0  0  0  0  0  0  0
   18.5902  -22.1401  -12.2084 O   0  0  0  0  0  0  0  0  0  0  0  0
   18.1828  -21.5287  -14.4735 C   0  0  2  0  0  0  0  0  0  0  0  0
   19.3274  -20.6563  -14.5037 N   0  0  0  0  0  0  0  0  0  0  0  0
   16.9193  -20.7897  -14.2189 C   0  0  0  0  0  0  0  0  0  0  0  0
   15.6823  -21.4165  -14.3388 O   0  0  0  0  0  0  0  0  0  0  0  0
   16.9981  -19.5802  -13.8913 O   0  0  0  0  0  0  0  0  0  0  0  0
  2  1  1  1
  3  4  1  0
  3  2  1  0
  4  5  2  0
  5  6  1  0
  7  6  1  0
  8  7  2  0
  9  8  1  0
 10 11  1  0
 10  9  2  0
 11 12  2  0
 12  4  1  0
 12  7  1  0
 13  2  1  0
 13 15  1  0
 14 13  2  0
 16 15  1  0
 16 22  1  0
 16 17  1  6
 18 17  1  0
 19 18  1  0
 20 19  1  0
 21 20  1  0
 22 23  2  0
 22 28  1  0
 25 24  1  6
 25 26  1  0
 27 25  1  0
 27 29  1  0
 27 28  1  1
 29 30  1  0
 31 29  2  0
M  END
$$$$
