WKT.pdb
     RDKit          3D

 31 32  0  0  1  0  0  0  0  0999 V2000
   24.7371  -19.4972  -17.0561 N   0  0  0  0  0  0  0  0  0  0  0  0
   25.3934  -18.8050  -15.9824 C   0  0  1  0  0  0  0  0  0  0  0  0
   24.5527  -17.6809  -15.4255 C   0  0  0  0  0  0  0  0  0  0  0  0
   24.6825  -16.5034  -16.3217 C   0  0  0  0  0  0  0  0  0  0  0  0
   23.6789  -15.9566  -17.0765 C   0  0  0  0  0  0  0  0  0  0  0  0
   24.1744  -14.9067  -17.7544 N   0  0  0  0  0  0  0  0  0  0  0  0
   25.4809  -14.7425  -17.4692 C   0  0  0  0  0  0  0  0  0  0  0  0
   26.4169  -13.8088  -17.9141 C   0  0  0  0  0  0  0  0  0  0  0  0
   27.6893  -13.9342  -17.4092 C   0  0  0  0  0  0  0  0  0  0  0  0
   28.0170  -14.9325  -16.5104 C   0  0  0  0  0  0  0  0  0  0  0  0
   27.0795  -15.8437  -16.0838 C   0  0  0  0  0  0  0  0  0  0  0  0
   25.7995  -15.7400  -16.5738 C   0  0  0  0  0  0  0  0  0  0  0  0
   25.7951  -19.7748  -14.9436 C   0  0  0  0  0  0  0  0  0  0  0  0
   25.0711  -20.7726  -14.6341 O   0  0  0  0  0  0  0  0  0  0  0  0
   27.0103  -19.6107  -14.2628 N   0  0  0  0  0  0  0  0  0  0  0  0
   27.3316  -20.4150  -13.0903 C   0  0  1  0  0  0  0  0  0  0  0  0
   28.7642  -20.2283  -12.6844 C   0  0  0  0  0  0  0  0  0  0  0  0
   29.1250  -21.1208  -11.5450 C   0  0  0  0  0  0  0  0  0  0  0  0
   30.5622  -20.9897  -11.1186 C   0  0  0  0  0  0  0  0  0  0  0  0
   30.9155  -21.9973  -10.0441 C   0  0  0  0  0  0  0  0  0  0  0  0
   32.3030  -21.8400   -9.6847 N   0  0  0  0  0  0  0  0  0  0  0  0
   26.4144  -20.0220  -11.9547 C   0  0  0  0  0  0  0  0  0  0  0  0
   26.4099  -18.8626  -11.4799 O   0  0  0  0  0  0  0  0  0  0  0  0
   22.7387  -20.0537  -11.9257 C   0  0  0  0  0  0  0  0  0  0  0  0
   23.1752  -20.9549  -10.7897 C   0  0  1  0  0  0  0  0  0  0  0  0
   23.0235  -22.2833  -11.1147 O   0  0  0  0  0  0  0  0  0  0  0  0
   24.5876  -20.6550  -10.3582 C   0  0  2  0  0  0  0  0  0  0  0  0
   25.5279  -20.9785  -11.3989 N   0  0  0  0  0  0  0  0  0  0  0  0
   24.9106  -21.3352   -9.0774 C   0  0  0  0  0  0  0  0  0  0  0  0
   25.9042  -22.3075   -9.0095 O   0  0  0  0  0  0  0  0  0  0  0  0
   24.2605  -21.0078   -8.0543 O   0  0  0  0  0  0  0  0  0  0  0  0
  2  1  1  6
  3  4  1  0
  3  2  1  0
  4  5  2  0
  5  6  1  0
  7  6  1  0
  8  7  2  0
  9  8  1  0
 10 11  1  0
 10  9  2  0
 11 12  2  0
 12  4  1  0
 12  7  1  0
 13  2  1  0
 13 15  1  0
 14 13  2  0
 16 15  1  0
 16 22  1  0
 16 17  1  1
 18 17  1  0
 19 18  1  0
 20 19  1  0
 21 20  1  0
 22 23  2  0
 22 28  1  0
 25 24  1  6
 25 26  1  0
 27 25  1  0
 27 29  1  0
 27 28  1  6
 29 30  1  0
 31 29  2  0
M  END
$$$$
