WKT.pdb
     RDKit          3D

 31 32  0  0  1  0  0  0  0  0999 V2000
   28.0094  -21.4468   -9.3784 N   0  0  0  0  0  0  0  0  0  0  0  0
   26.6562  -20.9744   -9.4698 C   0  0  1  0  0  0  0  0  0  0  0  0
   26.4502  -19.6759   -8.7269 C   0  0  0  0  0  0  0  0  0  0  0  0
   26.6313  -19.9275   -7.2741 C   0  0  0  0  0  0  0  0  0  0  0  0
   25.6468  -20.2959   -6.3961 C   0  0  0  0  0  0  0  0  0  0  0  0
   26.1897  -20.4307   -5.1736 N   0  0  0  0  0  0  0  0  0  0  0  0
   27.5091  -20.1614   -5.2175 C   0  0  0  0  0  0  0  0  0  0  0  0
   28.4895  -20.1644   -4.2253 C   0  0  0  0  0  0  0  0  0  0  0  0
   29.7622  -19.8337   -4.6260 C   0  0  0  0  0  0  0  0  0  0  0  0
   30.0483  -19.5166   -5.9411 C   0  0  0  0  0  0  0  0  0  0  0  0
   29.0674  -19.5194   -6.9048 C   0  0  0  0  0  0  0  0  0  0  0  0
   27.7860  -19.8467   -6.5299 C   0  0  0  0  0  0  0  0  0  0  0  0
   26.2627  -20.8784  -10.8901 C   0  0  0  0  0  0  0  0  0  0  0  0
   26.9575  -20.2409  -11.7424 O   0  0  0  0  0  0  0  0  0  0  0  0
   25.0888  -21.5024  -11.3365 N   0  0  0  0  0  0  0  0  0  0  0  0
   24.6223  -21.3370  -12.7077 C   0  0  1  0  0  0  0  0  0  0  0  0
   24.2517  -22.6586  -13.3143 C   0  0  0  0  0  0  0  0  0  0  0  0
   24.4443  -22.6485  -14.7935 C   0  0  0  0  0  0  0  0  0  0  0  0
   25.8737  -22.8693  -15.2088 C   0  0  0  0  0  0  0  0  0  0  0  0
   25.9937  -23.0475  -16.7083 C   0  0  0  0  0  0  0  0  0  0  0  0
   27.3784  -23.2577  -17.0513 N   0  0  0  0  0  0  0  0  0  0  0  0
   23.4290  -20.4089  -12.7154 C   0  0  0  0  0  0  0  0  0  0  0  0
   23.4800  -19.2627  -12.2121 O   0  0  0  0  0  0  0  0  0  0  0  0
   22.7016  -17.9745  -13.8355 C   0  0  0  0  0  0  0  0  0  0  0  0
   21.6346  -18.8046  -14.5177 C   0  0  1  0  0  0  0  0  0  0  0  0
   22.0730  -19.2912  -15.7279 O   0  0  0  0  0  0  0  0  0  0  0  0
   21.1453  -19.9164  -13.6257 C   0  0  2  0  0  0  0  0  0  0  0  0
   22.2100  -20.8300  -13.3039 N   0  0  0  0  0  0  0  0  0  0  0  0
   19.9744  -20.6065  -14.2259 C   0  0  0  0  0  0  0  0  0  0  0  0
   18.6738  -20.2347  -13.8978 O   0  0  0  0  0  0  0  0  0  0  0  0
   20.1909  -21.5375  -15.0399 O   0  0  0  0  0  0  0  0  0  0  0  0
  2  1  1  6
  3  4  1  0
  3  2  1  0
  4  5  2  0
  5  6  1  0
  7  6  1  0
  8  7  2  0
  9  8  1  0
 10 11  1  0
 10  9  2  0
 11 12  2  0
 12  4  1  0
 12  7  1  0
 13  2  1  0
 13 15  1  0
 14 13  2  0
 16 15  1  0
 16 22  1  0
 16 17  1  1
 18 17  1  0
 19 18  1  0
 20 19  1  0
 21 20  1  0
 22 23  2  0
 22 28  1  0
 25 24  1  1
 25 26  1  0
 27 25  1  0
 27 29  1  0
 27 28  1  6
 29 30  1  0
 31 29  2  0
M  END
$$$$
