WKT.pdb
     RDKit          3D

 31 32  0  0  1  0  0  0  0  0999 V2000
   27.0190  -20.7749  -17.0267 N   0  0  0  0  0  0  0  0  0  0  0  0
   27.4968  -19.9446  -15.9566 C   0  0  1  0  0  0  0  0  0  0  0  0
   26.9187  -18.5505  -16.0101 C   0  0  0  0  0  0  0  0  0  0  0  0
   27.3574  -17.9039  -17.2734 C   0  0  0  0  0  0  0  0  0  0  0  0
   26.5352  -17.4747  -18.2812 C   0  0  0  0  0  0  0  0  0  0  0  0
   27.2924  -16.9440  -19.2570 N   0  0  0  0  0  0  0  0  0  0  0  0
   28.5961  -17.0099  -18.9231 C   0  0  0  0  0  0  0  0  0  0  0  0
   29.7472  -16.5979  -19.5946 C   0  0  0  0  0  0  0  0  0  0  0  0
   30.9408  -16.8225  -18.9508 C   0  0  0  0  0  0  0  0  0  0  0  0
   30.9911  -17.4240  -17.7067 C   0  0  0  0  0  0  0  0  0  0  0  0
   29.8445  -17.8231  -17.0610 C   0  0  0  0  0  0  0  0  0  0  0  0
   28.6377  -17.6098  -17.6835 C   0  0  0  0  0  0  0  0  0  0  0  0
   27.2402  -20.6108  -14.6638 C   0  0  0  0  0  0  0  0  0  0  0  0
   26.2068  -21.3232  -14.4638 O   0  0  0  0  0  0  0  0  0  0  0  0
   28.1517  -20.4674  -13.6077 N   0  0  0  0  0  0  0  0  0  0  0  0
   27.8678  -21.0170  -12.2876 C   0  0  1  0  0  0  0  0  0  0  0  0
   29.0446  -20.8533  -11.3709 C   0  0  0  0  0  0  0  0  0  0  0  0
   30.0696  -21.9099  -11.6116 C   0  0  0  0  0  0  0  0  0  0  0  0
   31.2387  -21.8306  -10.6674 C   0  0  0  0  0  0  0  0  0  0  0  0
   32.3305  -22.8069  -11.0542 C   0  0  0  0  0  0  0  0  0  0  0  0
   33.4775  -22.5955  -10.2064 N   0  0  0  0  0  0  0  0  0  0  0  0
   26.6584  -20.3174  -11.7105 C   0  0  0  0  0  0  0  0  0  0  0  0
   26.5617  -19.0684  -11.6959 O   0  0  0  0  0  0  0  0  0  0  0  0
   23.0325  -22.1758  -11.8758 C   0  0  0  0  0  0  0  0  0  0  0  0
   23.2284  -20.7040  -11.5781 C   0  0  1  0  0  0  0  0  0  0  0  0
   22.0776  -20.1331  -11.0850 O   0  0  0  0  0  0  0  0  0  0  0  0
   24.3928  -20.4787  -10.6484 C   0  0  2  0  0  0  0  0  0  0  0  0
   25.5940  -21.0795  -11.1663 N   0  0  0  0  0  0  0  0  0  0  0  0
   24.0774  -20.9471   -9.2741 C   0  0  0  0  0  0  0  0  0  0  0  0
   22.9718  -20.4593   -8.5835 O   0  0  0  0  0  0  0  0  0  0  0  0
   24.8382  -21.7979   -8.7509 O   0  0  0  0  0  0  0  0  0  0  0  0
  2  1  1  6
  3  4  1  0
  3  2  1  0
  4  5  2  0
  5  6  1  0
  7  6  1  0
  8  7  2  0
  9  8  1  0
 10 11  1  0
 10  9  2  0
 11 12  2  0
 12  4  1  0
 12  7  1  0
 13  2  1  0
 13 15  1  0
 14 13  2  0
 16 15  1  0
 16 22  1  0
 16 17  1  1
 18 17  1  0
 19 18  1  0
 20 19  1  0
 21 20  1  0
 22 23  2  0
 22 28  1  0
 25 24  1  1
 25 26  1  0
 27 25  1  0
 27 29  1  0
 27 28  1  6
 29 30  1  0
 31 29  2  0
M  END
$$$$
