PHT.pdb
     RDKit          3D

 25 26  0  0  1  0  0  0  0  0999 V2000
   20.1642  -11.0645  -15.8689 N   0  0  0  0  0  0  0  0  0  0  0  0
   19.9112  -12.4025  -16.3101 C   0  0  0  0  0  0  0  0  0  0  0  0
   18.4735  -12.4611  -16.7434 C   0  0  0  0  0  0  0  0  0  0  0  0
   18.0091  -11.0327  -16.6956 C   0  0  0  0  0  0  0  0  0  0  0  0
   19.2481  -10.1938  -16.5813 C   0  0  1  0  0  0  0  0  0  0  0  0
   19.0332   -8.9618  -15.7893 C   0  0  0  0  0  0  0  0  0  0  0  0
   18.2036   -8.1053  -16.1427 O   0  0  0  0  0  0  0  0  0  0  0  0
   19.7856   -8.7674  -14.6192 N   0  0  0  0  0  0  0  0  0  0  0  0
   19.6200   -7.6440  -13.7215 C   0  0  1  0  0  0  0  0  0  0  0  0
   19.6536   -8.2011  -12.3134 C   0  0  0  0  0  0  0  0  0  0  0  0
   18.3237   -8.6358  -11.8520 C   0  0  0  0  0  0  0  0  0  0  0  0
   17.1780   -8.4857  -12.6047 C   0  0  0  0  0  0  0  0  0  0  0  0
   16.1474   -8.9705  -11.9226 N   0  0  0  0  0  0  0  0  0  0  0  0
   16.5928   -9.4310  -10.7480 C   0  0  0  0  0  0  0  0  0  0  0  0
   17.9281   -9.2226  -10.7113 N   0  0  0  0  0  0  0  0  0  0  0  0
   20.8045   -6.7673  -13.8590 C   0  0  0  0  0  0  0  0  0  0  0  0
   21.9252   -7.2013  -13.5070 O   0  0  0  0  0  0  0  0  0  0  0  0
   22.4338   -5.5625  -16.9156 C   0  0  0  0  0  0  0  0  0  0  0  0
   22.1278   -4.3530  -16.0855 C   0  0  1  0  0  0  0  0  0  0  0  0
   20.9508   -3.7688  -16.5312 O   0  0  0  0  0  0  0  0  0  0  0  0
   21.9650   -4.6567  -14.6264 C   0  0  2  0  0  0  0  0  0  0  0  0
   20.7521   -5.4436  -14.3729 N   0  0  0  0  0  0  0  0  0  0  0  0
   21.9004   -3.4100  -13.8057 C   0  0  0  0  0  0  0  0  0  0  0  0
   22.9946   -2.5610  -13.7222 O   0  0  0  0  0  0  0  0  0  0  0  0
   20.8605   -3.1005  -13.1745 O   0  0  0  0  0  0  0  0  0  0  0  0
  2  1  1  0
  3  2  1  0
  4  3  1  0
  4  5  1  0
  5  1  1  0
  5  6  1  1
  6  7  2  0
  8  6  1  0
  8  9  1  0
  9 16  1  0
  9 10  1  1
 10 11  1  0
 11 12  2  0
 12 13  1  0
 14 13  1  0
 15 11  1  0
 15 14  2  0
 16 17  2  0
 19 18  1  6
 19 21  1  0
 20 19  1  0
 21 23  1  0
 21 22  1  6
 22 16  1  0
 23 25  2  0
 23 24  1  0
M  END
$$$$
