PHT.pdb
     RDKit          3D

 25 26  0  0  1  0  0  0  0  0999 V2000
   23.9455  -11.5863  -15.2017 N   0  0  0  0  0  0  0  0  0  0  0  0
   24.6481  -12.8324  -15.1534 C   0  0  0  0  0  0  0  0  0  0  0  0
   24.4049  -13.5286  -16.4627 C   0  0  0  0  0  0  0  0  0  0  0  0
   23.6896  -12.5082  -17.3026 C   0  0  0  0  0  0  0  0  0  0  0  0
   23.8550  -11.1948  -16.5958 C   0  0  1  0  0  0  0  0  0  0  0  0
   22.6902  -10.2988  -16.7746 C   0  0  0  0  0  0  0  0  0  0  0  0
   22.3694   -9.8760  -17.8993 O   0  0  0  0  0  0  0  0  0  0  0  0
   21.9413   -9.9262  -15.6462 N   0  0  0  0  0  0  0  0  0  0  0  0
   20.7777   -9.0661  -15.6885 C   0  0  1  0  0  0  0  0  0  0  0  0
   19.6883   -9.7658  -14.9027 C   0  0  0  0  0  0  0  0  0  0  0  0
   18.9707  -10.7670  -15.7108 C   0  0  0  0  0  0  0  0  0  0  0  0
   19.1786  -10.9336  -17.0638 C   0  0  0  0  0  0  0  0  0  0  0  0
   18.3894  -11.9057  -17.5048 N   0  0  0  0  0  0  0  0  0  0  0  0
   17.6752  -12.3746  -16.4753 C   0  0  0  0  0  0  0  0  0  0  0  0
   18.0366  -11.6718  -15.3783 N   0  0  0  0  0  0  0  0  0  0  0  0
   21.0987   -7.8222  -14.9535 C   0  0  0  0  0  0  0  0  0  0  0  0
   21.5219   -7.9039  -13.7776 O   0  0  0  0  0  0  0  0  0  0  0  0
   23.7006   -5.2022  -15.7397 C   0  0  0  0  0  0  0  0  0  0  0  0
   22.3749   -4.5214  -15.5826 C   0  0  1  0  0  0  0  0  0  0  0  0
   21.8199   -4.2899  -16.8330 O   0  0  0  0  0  0  0  0  0  0  0  0
   21.3872   -5.3167  -14.7827 C   0  0  2  0  0  0  0  0  0  0  0  0
   20.9557   -6.5201  -15.5039 N   0  0  0  0  0  0  0  0  0  0  0  0
   20.1767   -4.5110  -14.4396 C   0  0  0  0  0  0  0  0  0  0  0  0
   20.2595   -3.4592  -13.5387 O   0  0  0  0  0  0  0  0  0  0  0  0
   19.0603   -4.7638  -14.9547 O   0  0  0  0  0  0  0  0  0  0  0  0
  2  1  1  0
  3  2  1  0
  4  3  1  0
  4  5  1  0
  5  1  1  0
  5  6  1  1
  6  7  2  0
  8  6  1  0
  8  9  1  0
  9 16  1  0
  9 10  1  1
 10 11  1  0
 11 12  2  0
 12 13  1  0
 14 13  1  0
 15 11  1  0
 15 14  2  0
 16 17  2  0
 19 18  1  6
 19 21  1  0
 20 19  1  0
 21 23  1  0
 21 22  1  6
 22 16  1  0
 23 25  2  0
 23 24  1  0
M  END
$$$$
