PHT.pdb
     RDKit          3D

 25 26  0  0  1  0  0  0  0  0999 V2000
   27.6991  -21.7151  -16.5990 N   0  0  0  0  0  0  0  0  0  0  0  0
   28.2402  -21.9777  -17.8980 C   0  0  0  0  0  0  0  0  0  0  0  0
   28.3084  -20.6631  -18.6229 C   0  0  0  0  0  0  0  0  0  0  0  0
   27.9553  -19.6409  -17.5795 C   0  0  0  0  0  0  0  0  0  0  0  0
   28.0389  -20.3465  -16.2577 C   0  0  1  0  0  0  0  0  0  0  0  0
   27.0599  -19.8336  -15.2730 C   0  0  0  0  0  0  0  0  0  0  0  0
   27.0616  -18.6397  -14.9248 O   0  0  0  0  0  0  0  0  0  0  0  0
   26.1166  -20.7207  -14.7288 N   0  0  0  0  0  0  0  0  0  0  0  0
   25.0482  -20.3262  -13.8353 C   0  0  1  0  0  0  0  0  0  0  0  0
   23.7695  -20.9112  -14.3980 C   0  0  0  0  0  0  0  0  0  0  0  0
   23.2696  -20.1518  -15.5573 C   0  0  0  0  0  0  0  0  0  0  0  0
   23.0923  -20.7107  -16.8054 C   0  0  0  0  0  0  0  0  0  0  0  0
   22.6335  -19.7799  -17.6334 N   0  0  0  0  0  0  0  0  0  0  0  0
   22.5083  -18.6325  -16.9570 C   0  0  0  0  0  0  0  0  0  0  0  0
   22.9000  -18.8676  -15.6845 N   0  0  0  0  0  0  0  0  0  0  0  0
   25.2758  -20.9828  -12.5286 C   0  0  0  0  0  0  0  0  0  0  0  0
   25.4110  -22.2272  -12.4898 O   0  0  0  0  0  0  0  0  0  0  0  0
   28.0738  -20.6537  -10.0404 C   0  0  0  0  0  0  0  0  0  0  0  0
   26.7868  -20.4165   -9.3103 C   0  0  1  0  0  0  0  0  0  0  0  0
   26.5904  -19.0529   -9.1454 O   0  0  0  0  0  0  0  0  0  0  0  0
   25.5878  -20.9700  -10.0200 C   0  0  2  0  0  0  0  0  0  0  0  0
   25.3523  -20.2818  -11.2950 N   0  0  0  0  0  0  0  0  0  0  0  0
   24.3523  -20.8595   -9.1873 C   0  0  0  0  0  0  0  0  0  0  0  0
   24.2718  -21.4911   -7.9546 O   0  0  0  0  0  0  0  0  0  0  0  0
   23.3614  -20.1963   -9.5795 O   0  0  0  0  0  0  0  0  0  0  0  0
  2  1  1  0
  3  2  1  0
  4  3  1  0
  4  5  1  0
  5  1  1  0
  5  6  1  1
  6  7  2  0
  8  6  1  0
  8  9  1  0
  9 16  1  0
  9 10  1  6
 10 11  1  0
 11 12  2  0
 12 13  1  0
 14 13  1  0
 15 11  1  0
 15 14  2  0
 16 17  2  0
 19 18  1  6
 19 21  1  0
 20 19  1  0
 21 23  1  0
 21 22  1  6
 22 16  1  0
 23 25  2  0
 23 24  1  0
M  END
$$$$
