PHT.pdb
     RDKit          3D

 25 26  0  0  1  0  0  0  0  0999 V2000
   23.0857  -17.3953  -17.2581 N   0  0  0  0  0  0  0  0  0  0  0  0
   22.4925  -16.6890  -18.3527 C   0  0  0  0  0  0  0  0  0  0  0  0
   23.1936  -17.1407  -19.6028 C   0  0  0  0  0  0  0  0  0  0  0  0
   24.0703  -18.2748  -19.1518 C   0  0  0  0  0  0  0  0  0  0  0  0
   23.5953  -18.6500  -17.7786 C   0  0  1  0  0  0  0  0  0  0  0  0
   24.6908  -19.1293  -16.9060 C   0  0  0  0  0  0  0  0  0  0  0  0
   25.3278  -20.1617  -17.1798 O   0  0  0  0  0  0  0  0  0  0  0  0
   25.0077  -18.3965  -15.7503 N   0  0  0  0  0  0  0  0  0  0  0  0
   26.0762  -18.7393  -14.8358 C   0  0  1  0  0  0  0  0  0  0  0  0
   26.8809  -17.4760  -14.6108 C   0  0  0  0  0  0  0  0  0  0  0  0
   27.6886  -17.1103  -15.7874 C   0  0  0  0  0  0  0  0  0  0  0  0
   28.8290  -17.7901  -16.1601 C   0  0  0  0  0  0  0  0  0  0  0  0
   29.3296  -17.2260  -17.2527 N   0  0  0  0  0  0  0  0  0  0  0  0
   28.5454  -16.1989  -17.5992 C   0  0  0  0  0  0  0  0  0  0  0  0
   27.5410  -16.1337  -16.6964 N   0  0  0  0  0  0  0  0  0  0  0  0
   25.4700  -19.0937  -13.5330 C   0  0  0  0  0  0  0  0  0  0  0  0
   24.5046  -18.4181  -13.1087 O   0  0  0  0  0  0  0  0  0  0  0  0
   24.3320  -22.4261  -10.1076 C   0  0  0  0  0  0  0  0  0  0  0  0
   24.9374  -21.9939  -11.4086 C   0  0  1  0  0  0  0  0  0  0  0  0
   24.0624  -22.2807  -12.4465 O   0  0  0  0  0  0  0  0  0  0  0  0
   25.2495  -20.5286  -11.4635 C   0  0  2  0  0  0  0  0  0  0  0  0
   25.9194  -20.1681  -12.7188 N   0  0  0  0  0  0  0  0  0  0  0  0
   26.1188  -20.1051  -10.3246 C   0  0  0  0  0  0  0  0  0  0  0  0
   25.5687  -19.8201   -9.0832 O   0  0  0  0  0  0  0  0  0  0  0  0
   27.3619  -19.9970  -10.4611 O   0  0  0  0  0  0  0  0  0  0  0  0
  2  1  1  0
  3  2  1  0
  4  3  1  0
  4  5  1  0
  5  1  1  0
  5  6  1  1
  6  7  2  0
  8  6  1  0
  8  9  1  0
  9 16  1  0
  9 10  1  1
 10 11  1  0
 11 12  2  0
 12 13  1  0
 14 13  1  0
 15 11  1  0
 15 14  2  0
 16 17  2  0
 19 18  1  1
 19 21  1  0
 20 19  1  0
 21 23  1  0
 21 22  1  6
 22 16  1  0
 23 25  2  0
 23 24  1  0
M  END
$$$$
