PHT.pdb
     RDKit          3D

 25 26  0  0  1  0  0  0  0  0999 V2000
   25.0098  -12.0568  -15.9444 N   0  0  0  0  0  0  0  0  0  0  0  0
   25.6901  -13.3027  -16.1282 C   0  0  0  0  0  0  0  0  0  0  0  0
   25.1361  -13.9294  -17.3766 C   0  0  0  0  0  0  0  0  0  0  0  0
   24.2536  -12.8673  -17.9693 C   0  0  0  0  0  0  0  0  0  0  0  0
   24.5961  -11.5926  -17.2552 C   0  0  1  0  0  0  0  0  0  0  0  0
   23.4321  -10.6903  -17.1064 C   0  0  0  0  0  0  0  0  0  0  0  0
   22.8723  -10.1920  -18.0988 O   0  0  0  0  0  0  0  0  0  0  0  0
   22.9601  -10.3987  -15.8159 N   0  0  0  0  0  0  0  0  0  0  0  0
   21.8503   -9.5126  -15.5354 C   0  0  1  0  0  0  0  0  0  0  0  0
   21.0521  -10.1523  -14.4184 C   0  0  0  0  0  0  0  0  0  0  0  0
   20.0422  -11.0986  -14.9235 C   0  0  0  0  0  0  0  0  0  0  0  0
   19.7852  -11.2820  -16.2658 C   0  0  0  0  0  0  0  0  0  0  0  0
   18.8297  -12.1935  -16.4013 N   0  0  0  0  0  0  0  0  0  0  0  0
   18.4595  -12.6067  -15.1839 C   0  0  0  0  0  0  0  0  0  0  0  0
   19.2071  -11.9312  -14.2823 N   0  0  0  0  0  0  0  0  0  0  0  0
   22.3972   -8.2479  -14.9953 C   0  0  0  0  0  0  0  0  0  0  0  0
   23.3327   -8.2969  -14.1641 O   0  0  0  0  0  0  0  0  0  0  0  0
   21.3930   -4.3694  -16.6570 C   0  0  0  0  0  0  0  0  0  0  0  0
   22.7078   -4.7373  -16.0392 C   0  0  1  0  0  0  0  0  0  0  0  0
   23.3182   -3.5990  -15.5325 O   0  0  0  0  0  0  0  0  0  0  0  0
   22.5846   -5.7280  -14.9208 C   0  0  2  0  0  0  0  0  0  0  0  0
   21.9224   -6.9605  -15.3646 N   0  0  0  0  0  0  0  0  0  0  0  0
   21.8179   -5.1677  -13.7674 C   0  0  0  0  0  0  0  0  0  0  0  0
   22.3038   -4.0794  -13.0572 O   0  0  0  0  0  0  0  0  0  0  0  0
   20.7208   -5.6645  -13.4135 O   0  0  0  0  0  0  0  0  0  0  0  0
  2  1  1  0
  3  2  1  0
  4  3  1  0
  4  5  1  0
  5  1  1  0
  5  6  1  1
  6  7  2  0
  8  6  1  0
  8  9  1  0
  9 16  1  0
  9 10  1  1
 10 11  1  0
 11 12  2  0
 12 13  1  0
 14 13  1  0
 15 11  1  0
 15 14  2  0
 16 17  2  0
 19 18  1  1
 19 21  1  0
 20 19  1  0
 21 23  1  0
 21 22  1  6
 22 16  1  0
 23 25  2  0
 23 24  1  0
M  END
$$$$
