PHT.pdb
     RDKit          3D

 25 26  0  0  1  0  0  0  0  0999 V2000
   23.7174  -10.7258  -19.2829 N   0  0  0  0  0  0  0  0  0  0  0  0
   24.2149  -11.7479  -20.1528 C   0  0  0  0  0  0  0  0  0  0  0  0
   23.0750  -12.1707  -21.0360 C   0  0  0  0  0  0  0  0  0  0  0  0
   21.9799  -11.1878  -20.7309 C   0  0  0  0  0  0  0  0  0  0  0  0
   22.6251  -10.0652  -19.9723 C   0  0  1  0  0  0  0  0  0  0  0  0
   21.7185   -9.4546  -18.9741 C   0  0  0  0  0  0  0  0  0  0  0  0
   20.6346   -8.9479  -19.3132 O   0  0  0  0  0  0  0  0  0  0  0  0
   22.1000   -9.4532  -17.6222 N   0  0  0  0  0  0  0  0  0  0  0  0
   21.2942   -8.9106  -16.5490 C   0  0  1  0  0  0  0  0  0  0  0  0
   21.1329  -10.0132  -15.5232 C   0  0  0  0  0  0  0  0  0  0  0  0
   20.0676  -10.9638  -15.8865 C   0  0  0  0  0  0  0  0  0  0  0  0
   20.3183  -12.2049  -16.4325 C   0  0  0  0  0  0  0  0  0  0  0  0
   19.1631  -12.8224  -16.6484 N   0  0  0  0  0  0  0  0  0  0  0  0
   18.1696  -12.0161  -16.2575 C   0  0  0  0  0  0  0  0  0  0  0  0
   18.7314  -10.8780  -15.7913 N   0  0  0  0  0  0  0  0  0  0  0  0
   22.0674   -7.8319  -15.8941 C   0  0  0  0  0  0  0  0  0  0  0  0
   23.2328   -8.0715  -15.5031 O   0  0  0  0  0  0  0  0  0  0  0  0
   22.9368   -4.3989  -17.3293 C   0  0  0  0  0  0  0  0  0  0  0  0
   22.3448   -4.2131  -15.9652 C   0  0  1  0  0  0  0  0  0  0  0  0
   21.0144   -3.8372  -16.0829 O   0  0  0  0  0  0  0  0  0  0  0  0
   22.3990   -5.4489  -15.1182 C   0  0  2  0  0  0  0  0  0  0  0  0
   21.5655   -6.5205  -15.6765 N   0  0  0  0  0  0  0  0  0  0  0  0
   21.9500   -5.1805  -13.7188 C   0  0  0  0  0  0  0  0  0  0  0  0
   20.8460   -5.8357  -13.1926 O   0  0  0  0  0  0  0  0  0  0  0  0
   22.5565   -4.3602  -12.9876 O   0  0  0  0  0  0  0  0  0  0  0  0
  2  1  1  0
  3  2  1  0
  4  3  1  0
  4  5  1  0
  5  1  1  0
  5  6  1  1
  6  7  2  0
  8  6  1  0
  8  9  1  0
  9 16  1  0
  9 10  1  1
 10 11  1  0
 11 12  2  0
 12 13  1  0
 14 13  1  0
 15 11  1  0
 15 14  2  0
 16 17  2  0
 19 18  1  6
 19 21  1  0
 20 19  1  0
 21 23  1  0
 21 22  1  6
 22 16  1  0
 23 25  2  0
 23 24  1  0
M  END
$$$$
