PHT.pdb
     RDKit          3D

 25 26  0  0  1  0  0  0  0  0999 V2000
   23.5238  -12.0035  -18.2024 N   0  0  0  0  0  0  0  0  0  0  0  0
   23.9787  -13.2041  -18.8353 C   0  0  0  0  0  0  0  0  0  0  0  0
   22.9775  -13.5488  -19.9017 C   0  0  0  0  0  0  0  0  0  0  0  0
   22.0530  -12.3649  -19.9446 C   0  0  0  0  0  0  0  0  0  0  0  0
   22.7377  -11.2716  -19.1778 C   0  0  1  0  0  0  0  0  0  0  0  0
   21.7852  -10.3871  -18.4697 C   0  0  0  0  0  0  0  0  0  0  0  0
   20.9178   -9.7468  -19.0896 O   0  0  0  0  0  0  0  0  0  0  0  0
   21.8720  -10.2769  -17.0721 N   0  0  0  0  0  0  0  0  0  0  0  0
   21.0343   -9.4110  -16.2696 C   0  0  1  0  0  0  0  0  0  0  0  0
   20.5034  -10.2525  -15.1276 C   0  0  0  0  0  0  0  0  0  0  0  0
   19.2714  -10.9744  -15.4904 C   0  0  0  0  0  0  0  0  0  0  0  0
   18.6270  -10.8069  -16.6979 C   0  0  0  0  0  0  0  0  0  0  0  0
   17.5546  -11.5890  -16.7265 N   0  0  0  0  0  0  0  0  0  0  0  0
   17.4855  -12.2594  -15.5708 C   0  0  0  0  0  0  0  0  0  0  0  0
   18.5414  -11.8777  -14.8174 N   0  0  0  0  0  0  0  0  0  0  0  0
   21.8952   -8.3702  -15.6649 C   0  0  0  0  0  0  0  0  0  0  0  0
   22.9784   -8.7101  -15.1361 O   0  0  0  0  0  0  0  0  0  0  0  0
   23.3907   -5.2437  -17.3201 C   0  0  0  0  0  0  0  0  0  0  0  0
   22.6812   -4.8428  -16.0625 C   0  0  1  0  0  0  0  0  0  0  0  0
   21.4309   -4.3302  -16.3773 O   0  0  0  0  0  0  0  0  0  0  0  0
   22.4833   -5.9769  -15.1021 C   0  0  2  0  0  0  0  0  0  0  0  0
   21.5677   -6.9876  -15.6448 N   0  0  0  0  0  0  0  0  0  0  0  0
   21.9434   -5.5042  -13.7917 C   0  0  0  0  0  0  0  0  0  0  0  0
   20.6960   -5.9205  -13.3494 O   0  0  0  0  0  0  0  0  0  0  0  0
   22.6007   -4.7227  -13.0617 O   0  0  0  0  0  0  0  0  0  0  0  0
  2  1  1  0
  3  2  1  0
  4  3  1  0
  4  5  1  0
  5  1  1  0
  5  6  1  1
  6  7  2  0
  8  6  1  0
  8  9  1  0
  9 16  1  0
  9 10  1  1
 10 11  1  0
 11 12  2  0
 12 13  1  0
 14 13  1  0
 15 11  1  0
 15 14  2  0
 16 17  2  0
 19 18  1  6
 19 21  1  0
 20 19  1  0
 21 23  1  0
 21 22  1  6
 22 16  1  0
 23 25  2  0
 23 24  1  0
M  END
$$$$
