LNP.pdb
     RDKit          3D

 24 24  0  0  1  0  0  0  0  0999 V2000
   26.9096  -21.2944  -11.7041 C   0  0  0  0  0  0  0  0  0  0  0  0
   27.2376  -21.4873  -13.1461 C   0  0  2  0  0  0  0  0  0  0  0  0
   28.3849  -20.5838  -13.5397 C   0  0  0  0  0  0  0  0  0  0  0  0
   26.0431  -21.3047  -14.0674 C   0  0  0  0  0  0  0  0  0  0  0  0
   24.9486  -22.2104  -13.5768 C   0  0  2  0  0  0  0  0  0  0  0  0
   25.3558  -23.5871  -13.7807 N   0  0  0  0  0  0  0  0  0  0  0  0
   23.6504  -21.9306  -14.2475 C   0  0  0  0  0  0  0  0  0  0  0  0
   23.6421  -22.0090  -15.4982 O   0  0  0  0  0  0  0  0  0  0  0  0
   20.5719  -23.9391  -14.2528 N   0  0  0  0  0  0  0  0  0  0  0  0
   19.8613  -23.1351  -13.3199 C   0  0  0  0  0  0  0  0  0  0  0  0
   18.9639  -23.6329  -12.6066 O   0  0  0  0  0  0  0  0  0  0  0  0
   20.1444  -21.6639  -13.1436 C   0  0  0  0  0  0  0  0  0  0  0  0
   21.2065  -21.2962  -14.1715 C   0  0  2  0  0  0  0  0  0  0  0  0
   22.4837  -21.5931  -13.5466 N   0  0  0  0  0  0  0  0  0  0  0  0
   21.1685  -19.9049  -14.6045 C   0  0  0  0  0  0  0  0  0  0  0  0
   21.2062  -19.0244  -13.6700 O   0  0  0  0  0  0  0  0  0  0  0  0
   21.0976  -19.4108  -15.9222 N   0  0  0  0  0  0  0  0  0  0  0  0
   21.1762  -20.1419  -17.1640 C   0  0  0  0  0  0  0  0  0  0  0  0
   20.0597  -19.4294  -17.9453 C   0  0  0  0  0  0  0  0  0  0  0  0
   20.5582  -17.9896  -17.7614 C   0  0  0  0  0  0  0  0  0  0  0  0
   20.9202  -18.0037  -16.2719 C   0  0  1  0  0  0  0  0  0  0  0  0
   19.7394  -17.4107  -15.5860 C   0  0  0  0  0  0  0  0  0  0  0  0
   19.6620  -16.0231  -15.5888 O   0  0  0  0  0  0  0  0  0  0  0  0
   18.8390  -18.0771  -15.0229 O   0  0  0  0  0  0  0  0  0  0  0  0
  2  1  1  1
  2  3  1  0
  4  5  1  0
  4  2  1  0
  5  6  1  6
  5  7  1  0
  7  8  2  0
  9 10  1  0
 10 12  1  0
 11 10  2  0
 13 12  1  1
 14  7  1  0
 14 13  1  0
 15 13  1  0
 15 16  2  0
 17 15  1  0
 18 17  1  0
 19 18  1  0
 20 21  1  0
 20 19  1  0
 21 17  1  0
 21 22  1  1
 23 22  1  0
 24 22  2  0
M  END
$$$$
