LNP.pdb
     RDKit          3D

 24 24  0  0  1  0  0  0  0  0999 V2000
   18.3504  -20.7521  -16.7384 C   0  0  0  0  0  0  0  0  0  0  0  0
   18.2914  -20.5752  -15.2587 C   0  0  2  0  0  0  0  0  0  0  0  0
   16.9856  -19.9189  -14.8692 C   0  0  0  0  0  0  0  0  0  0  0  0
   19.4838  -19.8232  -14.6917 C   0  0  0  0  0  0  0  0  0  0  0  0
   20.7280  -20.5095  -15.1814 C   0  0  2  0  0  0  0  0  0  0  0  0
   20.5340  -21.9439  -15.0959 N   0  0  0  0  0  0  0  0  0  0  0  0
   21.9348  -20.0857  -14.4214 C   0  0  0  0  0  0  0  0  0  0  0  0
   22.1137  -18.8508  -14.3049 O   0  0  0  0  0  0  0  0  0  0  0  0
   25.3955  -20.3142  -10.0263 N   0  0  0  0  0  0  0  0  0  0  0  0
   25.4366  -21.0625  -11.2345 C   0  0  0  0  0  0  0  0  0  0  0  0
   26.5309  -21.3942  -11.7391 O   0  0  0  0  0  0  0  0  0  0  0  0
   24.1856  -21.4883  -11.9619 C   0  0  0  0  0  0  0  0  0  0  0  0
   24.0852  -20.6170  -13.2072 C   0  0  2  0  0  0  0  0  0  0  0  0
   22.8417  -20.9939  -13.8565 N   0  0  0  0  0  0  0  0  0  0  0  0
   25.2014  -20.7608  -14.1336 C   0  0  0  0  0  0  0  0  0  0  0  0
   25.3858  -21.9383  -14.6127 O   0  0  0  0  0  0  0  0  0  0  0  0
   26.0992  -19.7652  -14.5673 N   0  0  0  0  0  0  0  0  0  0  0  0
   26.1910  -18.3885  -14.1440 C   0  0  0  0  0  0  0  0  0  0  0  0
   27.7200  -18.2578  -14.0467 C   0  0  0  0  0  0  0  0  0  0  0  0
   28.0649  -18.7485  -15.4594 C   0  0  0  0  0  0  0  0  0  0  0  0
   27.1442  -19.9694  -15.5673 C   0  0  1  0  0  0  0  0  0  0  0  0
   28.0101  -21.1322  -15.2289 C   0  0  0  0  0  0  0  0  0  0  0  0
   28.8837  -21.5555  -16.2234 O   0  0  0  0  0  0  0  0  0  0  0  0
   27.9927  -21.7313  -14.1277 O   0  0  0  0  0  0  0  0  0  0  0  0
  2  1  1  6
  2  3  1  0
  4  5  1  0
  4  2  1  0
  5  6  1  1
  5  7  1  0
  7  8  2  0
  9 10  1  0
 10 12  1  0
 11 10  2  0
 13 12  1  1
 14  7  1  0
 14 13  1  0
 15 13  1  0
 15 16  2  0
 17 15  1  0
 18 17  1  0
 19 18  1  0
 20 21  1  0
 20 19  1  0
 21 17  1  0
 21 22  1  1
 23 22  1  0
 24 22  2  0
M  END
$$$$
