LNP.pdb
     RDKit          3D

 24 24  0  0  1  0  0  0  0  0999 V2000
   23.3919  -14.7311  -20.7262 C   0  0  0  0  0  0  0  0  0  0  0  0
   23.3596  -13.4469  -19.9685 C   0  0  2  0  0  0  0  0  0  0  0  0
   21.9367  -12.9450  -19.8642 C   0  0  0  0  0  0  0  0  0  0  0  0
   24.2847  -12.3850  -20.5389 C   0  0  0  0  0  0  0  0  0  0  0  0
   24.7002  -11.4888  -19.4061 C   0  0  2  0  0  0  0  0  0  0  0  0
   24.4582  -12.1777  -18.1533 N   0  0  0  0  0  0  0  0  0  0  0  0
   23.9943  -10.1796  -19.4429 C   0  0  0  0  0  0  0  0  0  0  0  0
   23.7949   -9.6867  -20.5776 O   0  0  0  0  0  0  0  0  0  0  0  0
   20.3674   -6.7805  -19.8801 N   0  0  0  0  0  0  0  0  0  0  0  0
   20.3376   -7.8399  -18.9323 C   0  0  0  0  0  0  0  0  0  0  0  0
   19.4566   -7.8748  -18.0465 O   0  0  0  0  0  0  0  0  0  0  0  0
   21.3494   -8.9586  -18.9417 C   0  0  0  0  0  0  0  0  0  0  0  0
   22.6096   -8.4148  -18.2813 C   0  0  2  0  0  0  0  0  0  0  0  0
   23.5655   -9.5085  -18.2887 N   0  0  0  0  0  0  0  0  0  0  0  0
   22.4135   -7.9258  -16.9223 C   0  0  0  0  0  0  0  0  0  0  0  0
   21.8074   -8.7249  -16.1196 O   0  0  0  0  0  0  0  0  0  0  0  0
   22.8097   -6.6856  -16.3837 N   0  0  0  0  0  0  0  0  0  0  0  0
   23.4922   -5.5956  -17.0388 C   0  0  0  0  0  0  0  0  0  0  0  0
   22.6955   -4.4158  -16.4576 C   0  0  0  0  0  0  0  0  0  0  0  0
   22.8568   -4.7629  -14.9713 C   0  0  0  0  0  0  0  0  0  0  0  0
   22.5823   -6.2707  -15.0017 C   0  0  1  0  0  0  0  0  0  0  0  0
   21.1511   -6.4064  -14.6148 C   0  0  0  0  0  0  0  0  0  0  0  0
   20.8699   -6.2957  -13.2583 O   0  0  0  0  0  0  0  0  0  0  0  0
   20.2150   -6.6095  -15.4237 O   0  0  0  0  0  0  0  0  0  0  0  0
  2  1  1  6
  2  3  1  0
  4  5  1  0
  4  2  1  0
  5  6  1  1
  5  7  1  0
  7  8  2  0
  9 10  1  0
 10 12  1  0
 11 10  2  0
 13 12  1  1
 14  7  1  0
 14 13  1  0
 15 13  1  0
 15 16  2  0
 17 15  1  0
 18 17  1  0
 19 18  1  0
 20 21  1  0
 20 19  1  0
 21 17  1  0
 21 22  1  6
 23 22  1  0
 24 22  2  0
M  END
$$$$
