LNP.pdb
     RDKit          3D

 24 24  0  0  1  0  0  0  0  0999 V2000
   28.1519  -23.6076  -19.2793 C   0  0  0  0  0  0  0  0  0  0  0  0
   28.6149  -22.1987  -19.4377 C   0  0  2  0  0  0  0  0  0  0  0  0
   30.1264  -22.1477  -19.4241 C   0  0  0  0  0  0  0  0  0  0  0  0
   28.0159  -21.2471  -18.4157 C   0  0  0  0  0  0  0  0  0  0  0  0
   26.5204  -21.3624  -18.5097 C   0  0  2  0  0  0  0  0  0  0  0  0
   26.0873  -20.7967  -19.7727 N   0  0  0  0  0  0  0  0  0  0  0  0
   25.8369  -20.7027  -17.3646 C   0  0  0  0  0  0  0  0  0  0  0  0
   26.0117  -19.4672  -17.2492 O   0  0  0  0  0  0  0  0  0  0  0  0
   21.7740  -19.1599  -14.1993 N   0  0  0  0  0  0  0  0  0  0  0  0
   22.1419  -20.5266  -14.3342 C   0  0  0  0  0  0  0  0  0  0  0  0
   21.8726  -21.3487  -13.4321 O   0  0  0  0  0  0  0  0  0  0  0  0
   22.8655  -21.0504  -15.5497 C   0  0  0  0  0  0  0  0  0  0  0  0
   24.3481  -20.7832  -15.3255 C   0  0  2  0  0  0  0  0  0  0  0  0
   25.0366  -21.3982  -16.4469 N   0  0  0  0  0  0  0  0  0  0  0  0
   24.8696  -21.3029  -14.0674 C   0  0  0  0  0  0  0  0  0  0  0  0
   24.6211  -22.5394  -13.8242 O   0  0  0  0  0  0  0  0  0  0  0  0
   25.6136  -20.6139  -13.0891 N   0  0  0  0  0  0  0  0  0  0  0  0
   26.1596  -19.2792  -13.1467 C   0  0  0  0  0  0  0  0  0  0  0  0
   25.8149  -18.8059  -11.7248 C   0  0  0  0  0  0  0  0  0  0  0  0
   26.4584  -19.9664  -10.9536 C   0  0  0  0  0  0  0  0  0  0  0  0
   25.9737  -21.1607  -11.7833 C   0  0  1  0  0  0  0  0  0  0  0  0
   24.7817  -21.6741  -11.0539 C   0  0  0  0  0  0  0  0  0  0  0  0
   25.0381  -22.4313   -9.9172 O   0  0  0  0  0  0  0  0  0  0  0  0
   23.5951  -21.4658  -11.4011 O   0  0  0  0  0  0  0  0  0  0  0  0
  2  1  1  1
  2  3  1  0
  4  5  1  0
  4  2  1  0
  5  6  1  6
  5  7  1  0
  7  8  2  0
  9 10  1  0
 10 12  1  0
 11 10  2  0
 13 12  1  6
 14  7  1  0
 14 13  1  0
 15 13  1  0
 15 16  2  0
 17 15  1  0
 18 17  1  0
 19 18  1  0
 20 21  1  0
 20 19  1  0
 21 17  1  0
 21 22  1  1
 23 22  1  0
 24 22  2  0
M  END
$$$$
