LNP.pdb
     RDKit          3D

 24 24  0  0  1  0  0  0  0  0999 V2000
   28.5886  -20.8305  -14.1150 C   0  0  0  0  0  0  0  0  0  0  0  0
   27.4837  -19.8447  -14.2929 C   0  0  2  0  0  0  0  0  0  0  0  0
   27.9482  -18.7010  -15.1668 C   0  0  0  0  0  0  0  0  0  0  0  0
   26.9036  -19.3435  -12.9809 C   0  0  0  0  0  0  0  0  0  0  0  0
   26.5749  -20.5459  -12.1411 C   0  0  2  0  0  0  0  0  0  0  0  0
   25.5108  -21.2894  -12.7873 N   0  0  0  0  0  0  0  0  0  0  0  0
   26.1986  -20.1698  -10.7517 C   0  0  0  0  0  0  0  0  0  0  0  0
   25.5504  -19.1054  -10.6196 O   0  0  0  0  0  0  0  0  0  0  0  0
   23.8777  -19.7014   -9.2609 N   0  0  0  0  0  0  0  0  0  0  0  0
   23.8402  -20.8031   -8.3630 C   0  0  0  0  0  0  0  0  0  0  0  0
   22.7476  -21.2862   -7.9958 O   0  0  0  0  0  0  0  0  0  0  0  0
   25.0933  -21.4373   -7.8124 C   0  0  0  0  0  0  0  0  0  0  0  0
   26.2583  -20.5627   -8.2571 C   0  0  2  0  0  0  0  0  0  0  0  0
   26.5377  -20.9418   -9.6312 N   0  0  0  0  0  0  0  0  0  0  0  0
   27.4591  -20.7001   -7.4422 C   0  0  0  0  0  0  0  0  0  0  0  0
   27.9872  -21.8707   -7.4128 O   0  0  0  0  0  0  0  0  0  0  0  0
   28.1099  -19.7050   -6.6863 N   0  0  0  0  0  0  0  0  0  0  0  0
   27.9484  -18.2725   -6.7537 C   0  0  0  0  0  0  0  0  0  0  0  0
   27.9518  -17.9489   -5.2504 C   0  0  0  0  0  0  0  0  0  0  0  0
   29.2673  -18.6503   -4.8858 C   0  0  0  0  0  0  0  0  0  0  0  0
   29.1065  -19.9686   -5.6514 C   0  0  1  0  0  0  0  0  0  0  0  0
   28.6060  -20.9394   -4.6397 C   0  0  0  0  0  0  0  0  0  0  0  0
   29.5352  -21.3882   -3.7088 O   0  0  0  0  0  0  0  0  0  0  0  0
   27.4263  -21.3607   -4.5855 O   0  0  0  0  0  0  0  0  0  0  0  0
  2  1  1  1
  2  3  1  0
  4  5  1  0
  4  2  1  0
  5  6  1  6
  5  7  1  0
  7  8  2  0
  9 10  1  0
 10 12  1  0
 11 10  2  0
 13 12  1  1
 14  7  1  0
 14 13  1  0
 15 13  1  0
 15 16  2  0
 17 15  1  0
 18 17  1  0
 19 18  1  0
 20 21  1  0
 20 19  1  0
 21 17  1  0
 21 22  1  1
 23 22  1  0
 24 22  2  0
M  END
$$$$
