LNP.pdb
     RDKit          3D

 24 24  0  0  1  0  0  0  0  0999 V2000
   21.2306  -16.1607  -20.0859 C   0  0  0  0  0  0  0  0  0  0  0  0
   20.6765  -15.7915  -18.7514 C   0  0  2  0  0  0  0  0  0  0  0  0
   20.1477  -14.3749  -18.7863 C   0  0  0  0  0  0  0  0  0  0  0  0
   21.6615  -15.9907  -17.6117 C   0  0  0  0  0  0  0  0  0  0  0  0
   22.1047  -17.4266  -17.6404 C   0  0  2  0  0  0  0  0  0  0  0  0
   20.9373  -18.2721  -17.7985 N   0  0  0  0  0  0  0  0  0  0  0  0
   22.8739  -17.7974  -16.4221 C   0  0  0  0  0  0  0  0  0  0  0  0
   23.6221  -16.9121  -15.9456 O   0  0  0  0  0  0  0  0  0  0  0  0
   23.7394  -21.8060  -12.2740 N   0  0  0  0  0  0  0  0  0  0  0  0
   23.1298  -20.5339  -12.4522 C   0  0  0  0  0  0  0  0  0  0  0  0
   23.1487  -19.6864  -11.5338 O   0  0  0  0  0  0  0  0  0  0  0  0
   22.4379  -20.1443  -13.7348 C   0  0  0  0  0  0  0  0  0  0  0  0
   23.4755  -19.4328  -14.5934 C   0  0  2  0  0  0  0  0  0  0  0  0
   22.7894  -19.0602  -15.8182 N   0  0  0  0  0  0  0  0  0  0  0  0
   24.6544  -20.2336  -14.8995 C   0  0  0  0  0  0  0  0  0  0  0  0
   24.4294  -21.4178  -15.3434 O   0  0  0  0  0  0  0  0  0  0  0  0
   26.0080  -19.8649  -14.7692 N   0  0  0  0  0  0  0  0  0  0  0  0
   26.5607  -18.6103  -14.3184 C   0  0  0  0  0  0  0  0  0  0  0  0
   27.6993  -19.1420  -13.4322 C   0  0  0  0  0  0  0  0  0  0  0  0
   28.3679  -20.0533  -14.4705 C   0  0  0  0  0  0  0  0  0  0  0  0
   27.1385  -20.7357  -15.0812 C   0  0  1  0  0  0  0  0  0  0  0  0
   27.0374  -22.0429  -14.3759 C   0  0  0  0  0  0  0  0  0  0  0  0
   25.9941  -22.1695  -13.4666 O   0  0  0  0  0  0  0  0  0  0  0  0
   27.8204  -23.0059  -14.5536 O   0  0  0  0  0  0  0  0  0  0  0  0
  2  1  1  6
  2  3  1  0
  4  5  1  0
  4  2  1  0
  5  6  1  1
  5  7  1  0
  7  8  2  0
  9 10  1  0
 10 12  1  0
 11 10  2  0
 13 12  1  1
 14  7  1  0
 14 13  1  0
 15 13  1  0
 15 16  2  0
 17 15  1  0
 18 17  1  0
 19 18  1  0
 20 21  1  0
 20 19  1  0
 21 17  1  0
 21 22  1  1
 23 22  1  0
 24 22  2  0
M  END
$$$$
