LNP.pdb
     RDKit          3D

 24 24  0  0  1  0  0  0  0  0999 V2000
   20.5507  -35.2546   -3.2248 C   0  0  0  0  0  0  0  0  0  0  0  0
   20.6822  -34.7388   -4.6180 C   0  0  2  0  0  0  0  0  0  0  0  0
   21.8782  -35.3731   -5.2923 C   0  0  0  0  0  0  0  0  0  0  0  0
   20.7364  -33.2224   -4.6985 C   0  0  0  0  0  0  0  0  0  0  0  0
   19.5141  -32.6870   -4.0069 C   0  0  2  0  0  0  0  0  0  0  0  0
   18.3417  -33.0670   -4.7708 N   0  0  0  0  0  0  0  0  0  0  0  0
   19.5787  -31.2121   -3.8223 C   0  0  0  0  0  0  0  0  0  0  0  0
   20.6790  -30.7463   -3.4444 O   0  0  0  0  0  0  0  0  0  0  0  0
   18.5833  -26.2072   -3.8169 N   0  0  0  0  0  0  0  0  0  0  0  0
   17.7618  -26.8247   -4.7995 C   0  0  0  0  0  0  0  0  0  0  0  0
   17.0570  -26.1318   -5.5645 O   0  0  0  0  0  0  0  0  0  0  0  0
   17.6951  -28.3221   -4.9691 C   0  0  0  0  0  0  0  0  0  0  0  0
   18.4990  -28.9284   -3.8263 C   0  0  2  0  0  0  0  0  0  0  0  0
   18.4853  -30.3637   -4.0487 N   0  0  0  0  0  0  0  0  0  0  0  0
   17.9841  -28.6191   -2.4981 C   0  0  0  0  0  0  0  0  0  0  0  0
   16.7254  -28.8082   -2.3255 O   0  0  0  0  0  0  0  0  0  0  0  0
   18.7000  -28.1406   -1.3828 N   0  0  0  0  0  0  0  0  0  0  0  0
   20.1106  -27.8568   -1.2717 C   0  0  0  0  0  0  0  0  0  0  0  0
   20.0397  -26.5395   -0.4817 C   0  0  0  0  0  0  0  0  0  0  0  0
   19.1677  -27.0357    0.6797 C   0  0  0  0  0  0  0  0  0  0  0  0
   18.1045  -27.8321   -0.0852 C   0  0  1  0  0  0  0  0  0  0  0  0
   16.9505  -26.9007   -0.2166 C   0  0  0  0  0  0  0  0  0  0  0  0
   16.2209  -26.6617    0.9418 O   0  0  0  0  0  0  0  0  0  0  0  0
   16.6126  -26.3382   -1.2850 O   0  0  0  0  0  0  0  0  0  0  0  0
  2  1  1  1
  2  3  1  0
  4  5  1  0
  4  2  1  0
  5  6  1  6
  5  7  1  0
  7  8  2  0
  9 10  1  0
 10 12  1  0
 11 10  2  0
 13 12  1  6
 14  7  1  0
 14 13  1  0
 15 13  1  0
 15 16  2  0
 17 15  1  0
 18 17  1  0
 19 18  1  0
 20 21  1  0
 20 19  1  0
 21 17  1  0
 21 22  1  6
 23 22  1  0
 24 22  2  0
M  END
$$$$
