HHH.pdb
     RDKit          3D

 31 33  0  0  1  0  0  0  0  0999 V2000
   10.4973  -16.7601   15.5402 N   0  0  0  0  0  0  0  0  0  0  0  0
    9.8816  -17.4292   16.6713 C   0  0  1  0  0  0  0  0  0  0  0  0
   10.3794  -18.8462   16.6939 C   0  0  0  0  0  0  0  0  0  0  0  0
    9.4581  -19.6484   15.8340 C   0  0  0  0  0  0  0  0  0  0  0  0
    8.3212  -19.1711   15.1856 C   0  0  0  0  0  0  0  0  0  0  0  0
    7.7466  -20.1766   14.5072 N   0  0  0  0  0  0  0  0  0  0  0  0
    8.4842  -21.2853   14.7031 C   0  0  0  0  0  0  0  0  0  0  0  0
    9.5211  -20.9526   15.5105 N   0  0  0  0  0  0  0  0  0  0  0  0
   10.1824  -16.6720   17.8935 C   0  0  0  0  0  0  0  0  0  0  0  0
   11.2525  -16.0248   18.0309 O   0  0  0  0  0  0  0  0  0  0  0  0
    9.2784  -16.6163   19.0167 N   0  0  0  0  0  0  0  0  0  0  0  0
    9.6313  -15.9324   20.2316 C   0  0  1  0  0  0  0  0  0  0  0  0
    8.4550  -15.1864   20.7618 C   0  0  0  0  0  0  0  0  0  0  0  0
    7.9208  -14.1102   19.9437 C   0  0  0  0  0  0  0  0  0  0  0  0
    8.1987  -12.7877   19.8983 C   0  0  0  0  0  0  0  0  0  0  0  0
    7.4305  -12.2108   18.9132 N   0  0  0  0  0  0  0  0  0  0  0  0
    6.6991  -13.1813   18.3732 C   0  0  0  0  0  0  0  0  0  0  0  0
    6.9810  -14.3401   18.9829 N   0  0  0  0  0  0  0  0  0  0  0  0
   10.1973  -16.8128   21.2800 C   0  0  0  0  0  0  0  0  0  0  0  0
    9.6308  -17.9071   21.4978 O   0  0  0  0  0  0  0  0  0  0  0  0
   11.3398  -16.4710   22.0394 N   0  0  0  0  0  0  0  0  0  0  0  0
   11.8050  -17.4702   23.0382 C   0  0  1  0  0  0  0  0  0  0  0  0
   13.1729  -17.1261   23.5030 C   0  0  0  0  0  0  0  0  0  0  0  0
   13.7225  -18.0501   24.5089 C   0  0  0  0  0  0  0  0  0  0  0  0
   14.2565  -19.2907   24.1329 C   0  0  0  0  0  0  0  0  0  0  0  0
   14.6659  -19.8834   25.2573 N   0  0  0  0  0  0  0  0  0  0  0  0
   14.4058  -19.0612   26.2994 C   0  0  0  0  0  0  0  0  0  0  0  0
   13.8296  -17.9400   25.8482 N   0  0  0  0  0  0  0  0  0  0  0  0
   10.8666  -17.3856   24.2110 C   0  0  0  0  0  0  0  0  0  0  0  0
    9.8698  -16.3911   24.2462 O   0  0  0  0  0  0  0  0  0  0  0  0
   10.9039  -18.1500   25.1828 O   0  0  0  0  0  0  0  0  0  0  0  0
  2  1  1  6
  2  3  1  0
  3  4  1  0
  4  8  1  0
  5  4  2  0
  5  6  1  0
  6  7  1  0
  8  7  2  0
  9  2  1  0
 10  9  2  0
 11  9  1  0
 12 13  1  1
 12 11  1  0
 14 15  2  0
 14 13  1  0
 16 15  1  0
 17 18  2  0
 17 16  1  0
 18 14  1  0
 19 20  2  0
 19 12  1  0
 21 19  1  0
 22 21  1  0
 22 23  1  1
 24 23  1  0
 25 24  2  0
 26 25  1  0
 27 26  1  0
 27 28  2  0
 28 24  1  0
 29 30  1  0
 29 22  1  0
 31 29  2  0
M  END
$$$$
