HHH.pdb
     RDKit          3D

 31 33  0  0  1  0  0  0  0  0999 V2000
   11.7912  -15.0870   10.2052 N   0  0  0  0  0  0  0  0  0  0  0  0
   11.9827  -14.4588   11.4993 C   0  0  1  0  0  0  0  0  0  0  0  0
   10.8324  -14.8578   12.3788 C   0  0  0  0  0  0  0  0  0  0  0  0
    9.6293  -14.1201   11.8887 C   0  0  0  0  0  0  0  0  0  0  0  0
    9.0504  -13.0064   12.4930 C   0  0  0  0  0  0  0  0  0  0  0  0
    7.9882  -12.6162   11.7711 N   0  0  0  0  0  0  0  0  0  0  0  0
    7.8707  -13.4496   10.7207 C   0  0  0  0  0  0  0  0  0  0  0  0
    8.8727  -14.3589   10.8024 N   0  0  0  0  0  0  0  0  0  0  0  0
   13.2982  -14.8460   12.0261 C   0  0  0  0  0  0  0  0  0  0  0  0
   13.7403  -16.0191   11.9201 O   0  0  0  0  0  0  0  0  0  0  0  0
   14.1720  -13.9150   12.6982 N   0  0  0  0  0  0  0  0  0  0  0  0
   15.4545  -14.3216   13.2063 C   0  0  1  0  0  0  0  0  0  0  0  0
   16.3479  -13.1377   13.3533 C   0  0  0  0  0  0  0  0  0  0  0  0
   16.8102  -12.4929   12.1354 C   0  0  0  0  0  0  0  0  0  0  0  0
   16.8272  -12.9034   10.8472 C   0  0  0  0  0  0  0  0  0  0  0  0
   17.3427  -11.8914   10.0702 N   0  0  0  0  0  0  0  0  0  0  0  0
   17.6312  -10.8831   10.8878 C   0  0  0  0  0  0  0  0  0  0  0  0
   17.3161  -11.2267   12.1435 N   0  0  0  0  0  0  0  0  0  0  0  0
   15.3900  -15.0785   14.4781 C   0  0  0  0  0  0  0  0  0  0  0  0
   14.2691  -15.2395   15.0104 O   0  0  0  0  0  0  0  0  0  0  0  0
   16.5320  -15.6207   15.1112 N   0  0  0  0  0  0  0  0  0  0  0  0
   16.2980  -16.4379   16.3317 C   0  0  1  0  0  0  0  0  0  0  0  0
   15.4741  -17.6273   15.9974 C   0  0  0  0  0  0  0  0  0  0  0  0
   15.3248  -18.5917   17.0998 C   0  0  0  0  0  0  0  0  0  0  0  0
   15.2765  -18.1608   18.4331 C   0  0  0  0  0  0  0  0  0  0  0  0
   15.1384  -19.2584   19.1812 N   0  0  0  0  0  0  0  0  0  0  0  0
   15.1004  -20.3364   18.3650 C   0  0  0  0  0  0  0  0  0  0  0  0
   15.2139  -19.9352   17.0928 N   0  0  0  0  0  0  0  0  0  0  0  0
   17.6452  -16.9085   16.8078 C   0  0  0  0  0  0  0  0  0  0  0  0
   17.9126  -17.0012   18.1876 O   0  0  0  0  0  0  0  0  0  0  0  0
   18.5706  -17.2325   16.0536 O   0  0  0  0  0  0  0  0  0  0  0  0
  2  1  1  6
  2  3  1  0
  3  4  1  0
  4  8  1  0
  5  4  2  0
  5  6  1  0
  6  7  1  0
  8  7  2  0
  9  2  1  0
 10  9  2  0
 11  9  1  0
 12 13  1  1
 12 11  1  0
 14 15  2  0
 14 13  1  0
 16 15  1  0
 17 18  2  0
 17 16  1  0
 18 14  1  0
 19 20  2  0
 19 12  1  0
 21 19  1  0
 22 21  1  0
 22 23  1  6
 24 23  1  0
 25 24  2  0
 26 25  1  0
 27 26  1  0
 27 28  2  0
 28 24  1  0
 29 30  1  0
 29 22  1  0
 31 29  2  0
M  END
$$$$
