HHH.pdb
     RDKit          3D

 31 33  0  0  1  0  0  0  0  0999 V2000
    8.9246  -19.8666   18.8731 N   0  0  0  0  0  0  0  0  0  0  0  0
    9.6831  -18.9249   19.6758 C   0  0  1  0  0  0  0  0  0  0  0  0
    9.1839  -17.5442   19.3587 C   0  0  0  0  0  0  0  0  0  0  0  0
    9.5193  -17.2744   17.9282 C   0  0  0  0  0  0  0  0  0  0  0  0
    8.6055  -17.0221   16.9073 C   0  0  0  0  0  0  0  0  0  0  0  0
    9.2718  -16.8260   15.7588 N   0  0  0  0  0  0  0  0  0  0  0  0
   10.5876  -16.9458   16.0157 C   0  0  0  0  0  0  0  0  0  0  0  0
   10.7260  -17.2182   17.3364 N   0  0  0  0  0  0  0  0  0  0  0  0
    9.5544  -19.2950   21.0915 C   0  0  0  0  0  0  0  0  0  0  0  0
    8.4378  -19.5335   21.6199 O   0  0  0  0  0  0  0  0  0  0  0  0
   10.6917  -19.4108   21.9719 N   0  0  0  0  0  0  0  0  0  0  0  0
   10.5363  -19.7666   23.3567 C   0  0  1  0  0  0  0  0  0  0  0  0
   11.3890  -20.9446   23.6835 C   0  0  0  0  0  0  0  0  0  0  0  0
   11.3874  -21.4105   25.0603 C   0  0  0  0  0  0  0  0  0  0  0  0
   12.2884  -21.2767   26.0596 C   0  0  0  0  0  0  0  0  0  0  0  0
   11.7848  -21.8800   27.1891 N   0  0  0  0  0  0  0  0  0  0  0  0
   10.5912  -22.3703   26.8678 C   0  0  0  0  0  0  0  0  0  0  0  0
   10.3312  -22.0967   25.5827 N   0  0  0  0  0  0  0  0  0  0  0  0
   10.8069  -18.6579   24.3012 C   0  0  0  0  0  0  0  0  0  0  0  0
   11.7528  -17.8813   24.0408 O   0  0  0  0  0  0  0  0  0  0  0  0
   10.0488  -18.4430   25.4751 N   0  0  0  0  0  0  0  0  0  0  0  0
   10.5425  -17.3972   26.4104 C   0  0  1  0  0  0  0  0  0  0  0  0
    9.4164  -16.5339   26.8486 C   0  0  0  0  0  0  0  0  0  0  0  0
    9.7725  -15.5517   27.8861 C   0  0  0  0  0  0  0  0  0  0  0  0
   10.1208  -14.2371   27.5452 C   0  0  0  0  0  0  0  0  0  0  0  0
   10.3851  -13.6059   28.6920 N   0  0  0  0  0  0  0  0  0  0  0  0
   10.2138  -14.4752   29.7141 C   0  0  0  0  0  0  0  0  0  0  0  0
    9.8396  -15.6652   29.2277 N   0  0  0  0  0  0  0  0  0  0  0  0
   11.0930  -18.1119   27.6143 C   0  0  0  0  0  0  0  0  0  0  0  0
   12.2075  -17.5872   28.2973 O   0  0  0  0  0  0  0  0  0  0  0  0
   10.6254  -19.1635   28.0678 O   0  0  0  0  0  0  0  0  0  0  0  0
  2  1  1  6
  2  3  1  0
  3  4  1  0
  4  8  1  0
  5  4  2  0
  5  6  1  0
  6  7  1  0
  8  7  2  0
  9  2  1  0
 10  9  2  0
 11  9  1  0
 12 13  1  1
 12 11  1  0
 14 15  2  0
 14 13  1  0
 16 15  1  0
 17 18  2  0
 17 16  1  0
 18 14  1  0
 19 20  2  0
 19 12  1  0
 21 19  1  0
 22 21  1  0
 22 23  1  1
 24 23  1  0
 25 24  2  0
 26 25  1  0
 27 26  1  0
 27 28  2  0
 28 24  1  0
 29 30  1  0
 29 22  1  0
 31 29  2  0
M  END
$$$$
