HHH.pdb
     RDKit          3D

 31 33  0  0  1  0  0  0  0  0999 V2000
    8.6462  -17.7928   14.8498 N   0  0  0  0  0  0  0  0  0  0  0  0
    9.3462  -16.7960   15.6388 C   0  0  1  0  0  0  0  0  0  0  0  0
    8.5736  -15.5113   15.5469 C   0  0  0  0  0  0  0  0  0  0  0  0
    8.8438  -14.9327   14.1963 C   0  0  0  0  0  0  0  0  0  0  0  0
    9.6477  -15.4994   13.2096 C   0  0  0  0  0  0  0  0  0  0  0  0
    9.6543  -14.6977   12.1331 N   0  0  0  0  0  0  0  0  0  0  0  0
    8.8767  -13.6328   12.4030 C   0  0  0  0  0  0  0  0  0  0  0  0
    8.3898  -13.7862   13.6588 N   0  0  0  0  0  0  0  0  0  0  0  0
    9.5046  -17.2997   17.0096 C   0  0  0  0  0  0  0  0  0  0  0  0
    8.5409  -17.7828   17.6583 O   0  0  0  0  0  0  0  0  0  0  0  0
   10.7682  -17.2768   17.7058 N   0  0  0  0  0  0  0  0  0  0  0  0
   10.9059  -17.8206   19.0301 C   0  0  1  0  0  0  0  0  0  0  0  0
   12.1009  -18.7086   19.0994 C   0  0  0  0  0  0  0  0  0  0  0  0
   11.9545  -20.0675   18.6045 C   0  0  0  0  0  0  0  0  0  0  0  0
   10.8906  -20.7368   18.1059 C   0  0  0  0  0  0  0  0  0  0  0  0
   11.2964  -22.0015   17.7461 N   0  0  0  0  0  0  0  0  0  0  0  0
   12.5933  -22.0875   18.0269 C   0  0  0  0  0  0  0  0  0  0  0  0
   13.0118  -20.9265   18.5476 N   0  0  0  0  0  0  0  0  0  0  0  0
   10.9613  -16.7992   20.1017 C   0  0  0  0  0  0  0  0  0  0  0  0
   11.7721  -15.8549   19.9726 O   0  0  0  0  0  0  0  0  0  0  0  0
   10.1447  -16.8468   21.2549 N   0  0  0  0  0  0  0  0  0  0  0  0
   10.3738  -15.7967   22.2830 C   0  0  1  0  0  0  0  0  0  0  0  0
    9.0809  -15.1846   22.6821 C   0  0  0  0  0  0  0  0  0  0  0  0
    8.4508  -14.3611   21.6368 C   0  0  0  0  0  0  0  0  0  0  0  0
    9.1425  -14.0343   20.4618 C   0  0  0  0  0  0  0  0  0  0  0  0
    8.3114  -13.2901   19.7277 N   0  0  0  0  0  0  0  0  0  0  0  0
    7.1470  -13.1491   20.4014 C   0  0  0  0  0  0  0  0  0  0  0  0
    7.2264  -13.8012   21.5680 N   0  0  0  0  0  0  0  0  0  0  0  0
   10.9685  -16.4819   23.4830 C   0  0  0  0  0  0  0  0  0  0  0  0
   11.4074  -15.7208   24.5840 O   0  0  0  0  0  0  0  0  0  0  0  0
   11.1072  -17.7071   23.5814 O   0  0  0  0  0  0  0  0  0  0  0  0
  2  1  1  6
  2  3  1  0
  3  4  1  0
  4  8  1  0
  5  4  2  0
  5  6  1  0
  6  7  1  0
  8  7  2  0
  9  2  1  0
 10  9  2  0
 11  9  1  0
 12 13  1  6
 12 11  1  0
 14 15  2  0
 14 13  1  0
 16 15  1  0
 17 18  2  0
 17 16  1  0
 18 14  1  0
 19 20  2  0
 19 12  1  0
 21 19  1  0
 22 21  1  0
 22 23  1  1
 24 23  1  0
 25 24  2  0
 26 25  1  0
 27 26  1  0
 27 28  2  0
 28 24  1  0
 29 30  1  0
 29 22  1  0
 31 29  2  0
M  END
$$$$
