HHH.pdb
     RDKit          3D

 31 33  0  0  1  0  0  0  0  0999 V2000
    9.8320  -16.6598   14.7246 N   0  0  0  0  0  0  0  0  0  0  0  0
    9.8882  -17.8113   15.6061 C   0  0  1  0  0  0  0  0  0  0  0  0
   10.7304  -18.8607   14.9385 C   0  0  0  0  0  0  0  0  0  0  0  0
    9.9503  -19.3718   13.7715 C   0  0  0  0  0  0  0  0  0  0  0  0
    8.9512  -20.3416   13.8170 C   0  0  0  0  0  0  0  0  0  0  0  0
    8.4772  -20.5438   12.5776 N   0  0  0  0  0  0  0  0  0  0  0  0
    9.1453  -19.7300   11.7391 C   0  0  0  0  0  0  0  0  0  0  0  0
   10.0374  -19.0230   12.4752 N   0  0  0  0  0  0  0  0  0  0  0  0
   10.3967  -17.3833   16.9161 C   0  0  0  0  0  0  0  0  0  0  0  0
   11.5099  -16.8116   17.0453 O   0  0  0  0  0  0  0  0  0  0  0  0
    9.6608  -17.5863   18.1406 N   0  0  0  0  0  0  0  0  0  0  0  0
   10.1363  -17.0718   19.3966 C   0  0  1  0  0  0  0  0  0  0  0  0
    9.0723  -16.2634   20.0567 C   0  0  0  0  0  0  0  0  0  0  0  0
    8.6280  -15.0584   19.3758 C   0  0  0  0  0  0  0  0  0  0  0  0
    9.0443  -14.4593   18.2374 C   0  0  0  0  0  0  0  0  0  0  0  0
    8.2614  -13.3503   18.0128 N   0  0  0  0  0  0  0  0  0  0  0  0
    7.3831  -13.2871   19.0093 C   0  0  0  0  0  0  0  0  0  0  0  0
    7.5878  -14.3127   19.8461 N   0  0  0  0  0  0  0  0  0  0  0  0
   10.6432  -18.1102   20.3237 C   0  0  0  0  0  0  0  0  0  0  0  0
   10.0214  -19.1940   20.3894 O   0  0  0  0  0  0  0  0  0  0  0  0
   11.7892  -17.9290   21.1317 N   0  0  0  0  0  0  0  0  0  0  0  0
   12.2022  -19.0803   21.9780 C   0  0  1  0  0  0  0  0  0  0  0  0
   13.6598  -19.0119   22.2539 C   0  0  0  0  0  0  0  0  0  0  0  0
   14.5122  -19.2516   21.0777 C   0  0  0  0  0  0  0  0  0  0  0  0
   14.0373  -19.9838   19.9803 C   0  0  0  0  0  0  0  0  0  0  0  0
   15.0335  -20.0235   19.0918 N   0  0  0  0  0  0  0  0  0  0  0  0
   16.0918  -19.3499   19.5977 C   0  0  0  0  0  0  0  0  0  0  0  0
   15.7790  -18.8763   20.8103 N   0  0  0  0  0  0  0  0  0  0  0  0
   11.4626  -18.9522   23.2817 C   0  0  0  0  0  0  0  0  0  0  0  0
   11.6336  -19.9232   24.2877 O   0  0  0  0  0  0  0  0  0  0  0  0
   10.6874  -18.0261   23.5488 O   0  0  0  0  0  0  0  0  0  0  0  0
  2  1  1  6
  2  3  1  0
  3  4  1  0
  4  8  1  0
  5  4  2  0
  5  6  1  0
  6  7  1  0
  8  7  2  0
  9  2  1  0
 10  9  2  0
 11  9  1  0
 12 13  1  1
 12 11  1  0
 14 15  2  0
 14 13  1  0
 16 15  1  0
 17 18  2  0
 17 16  1  0
 18 14  1  0
 19 20  2  0
 19 12  1  0
 21 19  1  0
 22 21  1  0
 22 23  1  1
 24 23  1  0
 25 24  2  0
 26 25  1  0
 27 26  1  0
 27 28  2  0
 28 24  1  0
 29 30  1  0
 29 22  1  0
 31 29  2  0
M  END
$$$$
