HHH.pdb
     RDKit          3D

 31 33  0  0  1  0  0  0  0  0999 V2000
   10.8094  -18.3257   19.7434 N   0  0  0  0  0  0  0  0  0  0  0  0
   11.7449  -17.2441   19.9906 C   0  0  1  0  0  0  0  0  0  0  0  0
   12.2203  -16.7343   18.6601 C   0  0  0  0  0  0  0  0  0  0  0  0
   13.0088  -17.8333   18.0259 C   0  0  0  0  0  0  0  0  0  0  0  0
   14.3304  -18.1647   18.3164 C   0  0  0  0  0  0  0  0  0  0  0  0
   14.7023  -19.2029   17.5513 N   0  0  0  0  0  0  0  0  0  0  0  0
   13.6550  -19.5459   16.7784 C   0  0  0  0  0  0  0  0  0  0  0  0
   12.6322  -18.7073   17.0752 N   0  0  0  0  0  0  0  0  0  0  0  0
   11.0860  -16.2252   20.8186 C   0  0  0  0  0  0  0  0  0  0  0  0
   11.6794  -15.1785   21.1864 O   0  0  0  0  0  0  0  0  0  0  0  0
    9.7202  -16.3507   21.2666 N   0  0  0  0  0  0  0  0  0  0  0  0
    9.1614  -15.4462   22.2351 C   0  0  1  0  0  0  0  0  0  0  0  0
    7.7548  -15.1110   21.8737 C   0  0  0  0  0  0  0  0  0  0  0  0
    7.5250  -14.4995   20.5752 C   0  0  0  0  0  0  0  0  0  0  0  0
    7.7459  -13.2473   20.1154 C   0  0  0  0  0  0  0  0  0  0  0  0
    7.3825  -13.1957   18.7892 N   0  0  0  0  0  0  0  0  0  0  0  0
    6.9482  -14.4082   18.4584 C   0  0  0  0  0  0  0  0  0  0  0  0
    7.0263  -15.2134   19.5259 N   0  0  0  0  0  0  0  0  0  0  0  0
    9.2311  -15.9353   23.6317 C   0  0  0  0  0  0  0  0  0  0  0  0
    9.4211  -17.1580   23.8177 O   0  0  0  0  0  0  0  0  0  0  0  0
    9.0917  -15.0863   24.7536 N   0  0  0  0  0  0  0  0  0  0  0  0
    9.1073  -15.7351   26.0919 C   0  0  1  0  0  0  0  0  0  0  0  0
    9.1233  -14.7015   27.1582 C   0  0  0  0  0  0  0  0  0  0  0  0
    8.1602  -13.6063   26.9565 C   0  0  0  0  0  0  0  0  0  0  0  0
    6.8848  -13.8555   26.4303 C   0  0  0  0  0  0  0  0  0  0  0  0
    6.2620  -12.6756   26.3720 N   0  0  0  0  0  0  0  0  0  0  0  0
    7.0991  -11.7208   26.8380 C   0  0  0  0  0  0  0  0  0  0  0  0
    8.2599  -12.2835   27.1964 N   0  0  0  0  0  0  0  0  0  0  0  0
    7.8318  -16.5239   26.2105 C   0  0  0  0  0  0  0  0  0  0  0  0
    7.6735  -17.4557   27.2549 O   0  0  0  0  0  0  0  0  0  0  0  0
    6.8759  -16.4137   25.4331 O   0  0  0  0  0  0  0  0  0  0  0  0
  2  1  1  6
  2  3  1  0
  3  4  1  0
  4  8  1  0
  5  4  2  0
  5  6  1  0
  6  7  1  0
  8  7  2  0
  9  2  1  0
 10  9  2  0
 11  9  1  0
 12 13  1  6
 12 11  1  0
 14 15  2  0
 14 13  1  0
 16 15  1  0
 17 18  2  0
 17 16  1  0
 18 14  1  0
 19 20  2  0
 19 12  1  0
 21 19  1  0
 22 21  1  0
 22 23  1  1
 24 23  1  0
 25 24  2  0
 26 25  1  0
 27 26  1  0
 27 28  2  0
 28 24  1  0
 29 30  1  0
 29 22  1  0
 31 29  2  0
M  END
$$$$
