HHH.pdb
     RDKit          3D

 31 33  0  0  1  0  0  0  0  0999 V2000
   13.8051  -13.7852   17.4285 N   0  0  0  0  0  0  0  0  0  0  0  0
   13.4329  -15.0842   17.9578 C   0  0  1  0  0  0  0  0  0  0  0  0
   14.6787  -15.9186   18.0466 C   0  0  0  0  0  0  0  0  0  0  0  0
   15.1428  -16.1639   16.6480 C   0  0  0  0  0  0  0  0  0  0  0  0
   14.3719  -16.6811   15.6092 C   0  0  0  0  0  0  0  0  0  0  0  0
   15.1239  -16.7602   14.5003 N   0  0  0  0  0  0  0  0  0  0  0  0
   16.3557  -16.3078   14.8000 C   0  0  0  0  0  0  0  0  0  0  0  0
   16.3554  -15.9484   16.1071 N   0  0  0  0  0  0  0  0  0  0  0  0
   12.7486  -14.8956   19.2439 C   0  0  0  0  0  0  0  0  0  0  0  0
   13.2761  -14.2608   20.1934 O   0  0  0  0  0  0  0  0  0  0  0  0
   11.4312  -15.4213   19.5087 N   0  0  0  0  0  0  0  0  0  0  0  0
   10.7660  -15.1842   20.7616 C   0  0  1  0  0  0  0  0  0  0  0  0
    9.2879  -15.2107   20.5718 C   0  0  0  0  0  0  0  0  0  0  0  0
    8.7229  -14.3005   19.5895 C   0  0  0  0  0  0  0  0  0  0  0  0
    8.4610  -12.9747   19.6331 C   0  0  0  0  0  0  0  0  0  0  0  0
    7.9542  -12.5866   18.4141 N   0  0  0  0  0  0  0  0  0  0  0  0
    7.9140  -13.6721   17.6471 C   0  0  0  0  0  0  0  0  0  0  0  0
    8.3755  -14.7215   18.3400 N   0  0  0  0  0  0  0  0  0  0  0  0
   11.1625  -16.1151   21.8437 C   0  0  0  0  0  0  0  0  0  0  0  0
   11.0048  -17.3415   21.6515 O   0  0  0  0  0  0  0  0  0  0  0  0
   11.7055  -15.6799   23.0744 N   0  0  0  0  0  0  0  0  0  0  0  0
   12.0752  -16.7353   24.0551 C   0  0  1  0  0  0  0  0  0  0  0  0
   13.3001  -16.3364   24.7942 C   0  0  0  0  0  0  0  0  0  0  0  0
   14.5238  -16.3175   23.9758 C   0  0  0  0  0  0  0  0  0  0  0  0
   14.5932  -17.0232   22.7662 C   0  0  0  0  0  0  0  0  0  0  0  0
   15.8149  -16.8080   22.2718 N   0  0  0  0  0  0  0  0  0  0  0  0
   16.4915  -16.0046   23.1241 C   0  0  0  0  0  0  0  0  0  0  0  0
   15.7078  -15.7019   24.1666 N   0  0  0  0  0  0  0  0  0  0  0  0
   10.9386  -16.8391   25.0351 C   0  0  0  0  0  0  0  0  0  0  0  0
    9.7744  -16.0685   24.8489 O   0  0  0  0  0  0  0  0  0  0  0  0
   10.9473  -17.5761   26.0285 O   0  0  0  0  0  0  0  0  0  0  0  0
  2  1  1  1
  2  3  1  0
  3  4  1  0
  4  8  1  0
  5  4  2  0
  5  6  1  0
  6  7  1  0
  8  7  2  0
  9  2  1  0
 10  9  2  0
 11  9  1  0
 12 13  1  6
 12 11  1  0
 14 15  2  0
 14 13  1  0
 16 15  1  0
 17 18  2  0
 17 16  1  0
 18 14  1  0
 19 20  2  0
 19 12  1  0
 21 19  1  0
 22 21  1  0
 22 23  1  1
 24 23  1  0
 25 24  2  0
 26 25  1  0
 27 26  1  0
 27 28  2  0
 28 24  1  0
 29 30  1  0
 29 22  1  0
 31 29  2  0
M  END
$$$$
