HHH.pdb
     RDKit          3D

 31 33  0  0  1  0  0  0  0  0999 V2000
    5.5712  -19.4339   20.5515 N   0  0  0  0  0  0  0  0  0  0  0  0
    5.3419  -18.4007   21.5446 C   0  0  1  0  0  0  0  0  0  0  0  0
    4.6815  -19.0423   22.7314 C   0  0  0  0  0  0  0  0  0  0  0  0
    3.2898  -19.3969   22.3202 C   0  0  0  0  0  0  0  0  0  0  0  0
    2.4634  -18.6399   21.4927 C   0  0  0  0  0  0  0  0  0  0  0  0
    1.2885  -19.2723   21.3465 N   0  0  0  0  0  0  0  0  0  0  0  0
    1.3395  -20.4139   22.0576 C   0  0  0  0  0  0  0  0  0  0  0  0
    2.5596  -20.4790   22.6448 N   0  0  0  0  0  0  0  0  0  0  0  0
    6.6203  -17.7469   21.8548 C   0  0  0  0  0  0  0  0  0  0  0  0
    7.6752  -18.4038   22.0510 O   0  0  0  0  0  0  0  0  0  0  0  0
    6.7569  -16.3141   21.9560 N   0  0  0  0  0  0  0  0  0  0  0  0
    8.0036  -15.7033   22.3315 C   0  0  1  0  0  0  0  0  0  0  0  0
    8.0100  -14.2653   21.9398 C   0  0  0  0  0  0  0  0  0  0  0  0
    8.1023  -13.9583   20.5221 C   0  0  0  0  0  0  0  0  0  0  0  0
    8.2346  -14.7499   19.4338 C   0  0  0  0  0  0  0  0  0  0  0  0
    8.2391  -13.9553   18.3104 N   0  0  0  0  0  0  0  0  0  0  0  0
    8.1098  -12.6980   18.7238 C   0  0  0  0  0  0  0  0  0  0  0  0
    8.0251  -12.6776   20.0604 N   0  0  0  0  0  0  0  0  0  0  0  0
    8.3405  -15.8470   23.7670 C   0  0  0  0  0  0  0  0  0  0  0  0
    7.5096  -15.4403   24.6095 O   0  0  0  0  0  0  0  0  0  0  0  0
    9.5516  -16.4179   24.2211 N   0  0  0  0  0  0  0  0  0  0  0  0
    9.7337  -16.5217   25.6937 C   0  0  1  0  0  0  0  0  0  0  0  0
    9.8002  -17.9489   26.0988 C   0  0  0  0  0  0  0  0  0  0  0  0
    8.5139  -18.6615   26.0248 C   0  0  0  0  0  0  0  0  0  0  0  0
    7.3472  -18.0023   25.6125 C   0  0  0  0  0  0  0  0  0  0  0  0
    6.3665  -18.9080   25.6517 N   0  0  0  0  0  0  0  0  0  0  0  0
    6.8825  -20.0868   26.0685 C   0  0  0  0  0  0  0  0  0  0  0  0
    8.1936  -19.9422   26.2978 N   0  0  0  0  0  0  0  0  0  0  0  0
   11.0507  -15.8711   26.0184 C   0  0  0  0  0  0  0  0  0  0  0  0
   11.4595  -15.7377   27.3597 O   0  0  0  0  0  0  0  0  0  0  0  0
   11.8313  -15.4278   25.1674 O   0  0  0  0  0  0  0  0  0  0  0  0
  2  1  1  6
  2  3  1  0
  3  4  1  0
  4  8  1  0
  5  4  2  0
  5  6  1  0
  6  7  1  0
  8  7  2  0
  9  2  1  0
 10  9  2  0
 11  9  1  0
 12 13  1  1
 12 11  1  0
 14 15  2  0
 14 13  1  0
 16 15  1  0
 17 18  2  0
 17 16  1  0
 18 14  1  0
 19 20  2  0
 19 12  1  0
 21 19  1  0
 22 21  1  0
 22 23  1  6
 24 23  1  0
 25 24  2  0
 26 25  1  0
 27 26  1  0
 27 28  2  0
 28 24  1  0
 29 30  1  0
 29 22  1  0
 31 29  2  0
M  END
$$$$
