HHH.pdb
     RDKit          3D

 31 33  0  0  1  0  0  0  0  0999 V2000
    9.3708  -14.7061   20.1172 N   0  0  0  0  0  0  0  0  0  0  0  0
    8.1820  -15.1791   20.8021 C   0  0  1  0  0  0  0  0  0  0  0  0
    7.1711  -15.5599   19.7585 C   0  0  0  0  0  0  0  0  0  0  0  0
    7.5091  -14.7947   18.5208 C   0  0  0  0  0  0  0  0  0  0  0  0
    7.7587  -13.4261   18.4478 C   0  0  0  0  0  0  0  0  0  0  0  0
    8.0273  -13.0949   17.1751 N   0  0  0  0  0  0  0  0  0  0  0  0
    7.9566  -14.2140   16.4305 C   0  0  0  0  0  0  0  0  0  0  0  0
    7.6413  -15.2400   17.2584 N   0  0  0  0  0  0  0  0  0  0  0  0
    8.5563  -16.2803   21.6994 C   0  0  0  0  0  0  0  0  0  0  0  0
    7.6963  -17.0257   22.2356 O   0  0  0  0  0  0  0  0  0  0  0  0
    9.9281  -16.5842   22.0279 N   0  0  0  0  0  0  0  0  0  0  0  0
   10.2648  -17.6444   22.9395 C   0  0  1  0  0  0  0  0  0  0  0  0
   11.5468  -18.2856   22.5310 C   0  0  0  0  0  0  0  0  0  0  0  0
   11.5636  -19.0021   21.2665 C   0  0  0  0  0  0  0  0  0  0  0  0
   10.6074  -19.6973   20.6102 C   0  0  0  0  0  0  0  0  0  0  0  0
   11.1334  -20.1559   19.4242 N   0  0  0  0  0  0  0  0  0  0  0  0
   12.3945  -19.7374   19.3715 C   0  0  0  0  0  0  0  0  0  0  0  0
   12.6753  -19.0364   20.4778 N   0  0  0  0  0  0  0  0  0  0  0  0
   10.3285  -17.2255   24.3590 C   0  0  0  0  0  0  0  0  0  0  0  0
   11.1686  -17.7836   25.0997 O   0  0  0  0  0  0  0  0  0  0  0  0
    9.4862  -16.2314   24.9079 N   0  0  0  0  0  0  0  0  0  0  0  0
    9.4315  -16.1429   26.3916 C   0  0  1  0  0  0  0  0  0  0  0  0
    8.0845  -15.6920   26.8250 C   0  0  0  0  0  0  0  0  0  0  0  0
    7.6516  -14.4158   26.2319 C   0  0  0  0  0  0  0  0  0  0  0  0
    8.5175  -13.6661   25.4233 C   0  0  0  0  0  0  0  0  0  0  0  0
    7.8381  -12.5800   25.0461 N   0  0  0  0  0  0  0  0  0  0  0  0
    6.5998  -12.6344   25.5875 C   0  0  0  0  0  0  0  0  0  0  0  0
    6.4803  -13.7534   26.3128 N   0  0  0  0  0  0  0  0  0  0  0  0
    9.6637  -17.5316   26.9214 C   0  0  0  0  0  0  0  0  0  0  0  0
    9.8279  -17.7402   28.3047 O   0  0  0  0  0  0  0  0  0  0  0  0
    9.7238  -18.5419   26.2102 O   0  0  0  0  0  0  0  0  0  0  0  0
  2  1  1  6
  2  3  1  0
  3  4  1  0
  4  8  1  0
  5  4  2  0
  5  6  1  0
  6  7  1  0
  8  7  2  0
  9  2  1  0
 10  9  2  0
 11  9  1  0
 12 13  1  6
 12 11  1  0
 14 15  2  0
 14 13  1  0
 16 15  1  0
 17 18  2  0
 17 16  1  0
 18 14  1  0
 19 20  2  0
 19 12  1  0
 21 19  1  0
 22 21  1  0
 22 23  1  6
 24 23  1  0
 25 24  2  0
 26 25  1  0
 27 26  1  0
 27 28  2  0
 28 24  1  0
 29 30  1  0
 29 22  1  0
 31 29  2  0
M  END
$$$$
