HHH.pdb
     RDKit          3D

 31 33  0  0  1  0  0  0  0  0999 V2000
   13.8383  -13.7375   17.3680 N   0  0  0  0  0  0  0  0  0  0  0  0
   14.2448  -14.7093   18.3662 C   0  0  1  0  0  0  0  0  0  0  0  0
   15.5720  -14.2735   18.9182 C   0  0  0  0  0  0  0  0  0  0  0  0
   16.6252  -14.8193   18.0100 C   0  0  0  0  0  0  0  0  0  0  0  0
   16.7970  -14.4918   16.6669 C   0  0  0  0  0  0  0  0  0  0  0  0
   17.8422  -15.1768   16.1770 N   0  0  0  0  0  0  0  0  0  0  0  0
   18.3448  -15.9343   17.1696 C   0  0  0  0  0  0  0  0  0  0  0  0
   17.5978  -15.7091   18.2781 N   0  0  0  0  0  0  0  0  0  0  0  0
   13.1863  -14.8228   19.3784 C   0  0  0  0  0  0  0  0  0  0  0  0
   12.8646  -13.8575   20.1183 O   0  0  0  0  0  0  0  0  0  0  0  0
   12.4446  -16.0413   19.5952 N   0  0  0  0  0  0  0  0  0  0  0  0
   11.4961  -16.1621   20.6695 C   0  0  1  0  0  0  0  0  0  0  0  0
   10.1393  -16.4553   20.1268 C   0  0  0  0  0  0  0  0  0  0  0  0
    9.8006  -15.8908   18.8309 C   0  0  0  0  0  0  0  0  0  0  0  0
   10.5211  -15.1650   17.9463 C   0  0  0  0  0  0  0  0  0  0  0  0
    9.7352  -14.9064   16.8467 N   0  0  0  0  0  0  0  0  0  0  0  0
    8.5539  -15.4738   17.0720 C   0  0  0  0  0  0  0  0  0  0  0  0
    8.5723  -16.0757   18.2684 N   0  0  0  0  0  0  0  0  0  0  0  0
   11.8673  -17.1641   21.6956 C   0  0  0  0  0  0  0  0  0  0  0  0
   12.8610  -17.8917   21.4745 O   0  0  0  0  0  0  0  0  0  0  0  0
   11.1513  -17.3324   22.9031 N   0  0  0  0  0  0  0  0  0  0  0  0
   11.9539  -17.4189   24.1524 C   0  0  1  0  0  0  0  0  0  0  0  0
   12.6026  -16.1126   24.4319 C   0  0  0  0  0  0  0  0  0  0  0  0
   14.0200  -16.0425   24.0397 C   0  0  0  0  0  0  0  0  0  0  0  0
   14.6527  -17.1322   23.4249 C   0  0  0  0  0  0  0  0  0  0  0  0
   15.9145  -16.7587   23.1977 N   0  0  0  0  0  0  0  0  0  0  0  0
   16.0785  -15.4929   23.6455 C   0  0  0  0  0  0  0  0  0  0  0  0
   14.9247  -15.0505   24.1608 N   0  0  0  0  0  0  0  0  0  0  0  0
   10.9930  -17.7237   25.2691 C   0  0  0  0  0  0  0  0  0  0  0  0
   11.4805  -18.1119   26.5324 O   0  0  0  0  0  0  0  0  0  0  0  0
    9.7627  -17.6575   25.1600 O   0  0  0  0  0  0  0  0  0  0  0  0
  2  1  1  6
  2  3  1  0
  3  4  1  0
  4  8  1  0
  5  4  2  0
  5  6  1  0
  6  7  1  0
  8  7  2  0
  9  2  1  0
 10  9  2  0
 11  9  1  0
 12 13  1  6
 12 11  1  0
 14 15  2  0
 14 13  1  0
 16 15  1  0
 17 18  2  0
 17 16  1  0
 18 14  1  0
 19 20  2  0
 19 12  1  0
 21 19  1  0
 22 21  1  0
 22 23  1  1
 24 23  1  0
 25 24  2  0
 26 25  1  0
 27 26  1  0
 27 28  2  0
 28 24  1  0
 29 30  1  0
 29 22  1  0
 31 29  2  0
M  END
$$$$
