DKE.pdb
     RDKit          3D

 27 26  0  0  1  0  0  0  0  0999 V2000
   12.3370  -16.6424   16.3261 N   0  0  0  0  0  0  0  0  0  0  0  0
   13.4270  -15.8092   16.7287 C   0  0  1  0  0  0  0  0  0  0  0  0
   13.8949  -14.8171   15.7258 C   0  0  0  0  0  0  0  0  0  0  0  0
   14.3895  -15.5120   14.5195 C   0  0  0  0  0  0  0  0  0  0  0  0
   14.2250  -16.7617   14.4384 O   0  0  0  0  0  0  0  0  0  0  0  0
   13.1258  -15.2395   18.0720 C   0  0  0  0  0  0  0  0  0  0  0  0
   13.9936  -14.6383   18.7670 O   0  0  0  0  0  0  0  0  0  0  0  0
   15.0244  -14.8769   13.4692 O   0  0  0  0  0  0  0  0  0  0  0  0
   11.8165  -15.3411   18.6706 N   0  0  0  0  0  0  0  0  0  0  0  0
   11.5280  -14.7674   19.9632 C   0  0  1  0  0  0  0  0  0  0  0  0
   10.0731  -14.6465   20.1846 C   0  0  0  0  0  0  0  0  0  0  0  0
    9.3119  -13.6560   19.3899 C   0  0  0  0  0  0  0  0  0  0  0  0
    7.8345  -13.6523   19.5334 C   0  0  0  0  0  0  0  0  0  0  0  0
    7.3134  -12.4605   18.7117 C   0  0  0  0  0  0  0  0  0  0  0  0
    5.8760  -12.4035   18.7485 N   0  0  0  0  0  0  0  0  0  0  0  0
   12.0311  -15.6952   21.0554 C   0  0  0  0  0  0  0  0  0  0  0  0
   11.8575  -16.9145   20.8593 O   0  0  0  0  0  0  0  0  0  0  0  0
   12.6586  -15.2397   22.2276 N   0  0  0  0  0  0  0  0  0  0  0  0
   13.1530  -16.1735   23.2170 C   0  0  1  0  0  0  0  0  0  0  0  0
   14.5898  -15.9941   23.5741 C   0  0  0  0  0  0  0  0  0  0  0  0
   15.5594  -15.9218   22.4579 C   0  0  0  0  0  0  0  0  0  0  0  0
   16.9488  -15.7503   22.9292 C   0  0  0  0  0  0  0  0  0  0  0  0
   17.8858  -15.8561   22.1176 O   0  0  0  0  0  0  0  0  0  0  0  0
   12.2491  -16.1618   24.3687 C   0  0  0  0  0  0  0  0  0  0  0  0
   11.1840  -15.2866   24.4182 O   0  0  0  0  0  0  0  0  0  0  0  0
   17.1587  -15.4740   24.2712 O   0  0  0  0  0  0  0  0  0  0  0  0
   12.4399  -16.9520   25.3199 O   0  0  0  0  0  0  0  0  0  0  0  0
  2  1  1  6
  2  3  1  0
  2  6  1  0
  4  3  1  0
  4  8  1  0
  5  4  2  0
  6  7  2  0
  9  6  1  0
  9 10  1  0
 10 11  1  1
 11 12  1  0
 13 12  1  0
 13 14  1  0
 14 15  1  0
 16 17  2  0
 16 10  1  0
 18 16  1  0
 19 20  1  1
 19 18  1  0
 20 21  1  0
 22 21  1  0
 22 23  2  0
 24 19  1  0
 25 24  1  0
 26 22  1  0
 27 24  2  0
M  END
$$$$
