DKE.pdb
     RDKit          3D

 27 26  0  0  1  0  0  0  0  0999 V2000
    7.6999  -16.5371   19.9550 N   0  0  0  0  0  0  0  0  0  0  0  0
    9.1193  -16.5428   20.1274 C   0  0  1  0  0  0  0  0  0  0  0  0
    9.9179  -16.0373   18.9803 C   0  0  0  0  0  0  0  0  0  0  0  0
    9.5670  -16.7807   17.7528 C   0  0  0  0  0  0  0  0  0  0  0  0
   10.4362  -17.5441   17.2459 O   0  0  0  0  0  0  0  0  0  0  0  0
    9.4468  -15.9136   21.4375 C   0  0  0  0  0  0  0  0  0  0  0  0
   10.6335  -15.7828   21.8525 O   0  0  0  0  0  0  0  0  0  0  0  0
    8.3410  -16.6923   17.1213 O   0  0  0  0  0  0  0  0  0  0  0  0
    8.4234  -15.4128   22.3234 N   0  0  0  0  0  0  0  0  0  0  0  0
    8.7457  -14.8600   23.6172 C   0  0  1  0  0  0  0  0  0  0  0  0
    7.6599  -13.9927   24.1163 C   0  0  0  0  0  0  0  0  0  0  0  0
    7.8339  -13.3131   25.4201 C   0  0  0  0  0  0  0  0  0  0  0  0
    6.7501  -12.4031   25.8682 C   0  0  0  0  0  0  0  0  0  0  0  0
    7.2167  -11.7794   27.1950 C   0  0  0  0  0  0  0  0  0  0  0  0
    6.2381  -10.8508   27.6956 N   0  0  0  0  0  0  0  0  0  0  0  0
    8.8710  -15.9822   24.6330 C   0  0  0  0  0  0  0  0  0  0  0  0
    8.2683  -17.0385   24.3573 O   0  0  0  0  0  0  0  0  0  0  0  0
    9.6135  -15.8694   25.8210 N   0  0  0  0  0  0  0  0  0  0  0  0
   10.5165  -16.9220   26.2359 C   0  0  1  0  0  0  0  0  0  0  0  0
   11.4654  -17.3761   25.1789 C   0  0  0  0  0  0  0  0  0  0  0  0
   12.5134  -18.3411   25.5810 C   0  0  0  0  0  0  0  0  0  0  0  0
   13.0523  -19.0981   24.4327 C   0  0  0  0  0  0  0  0  0  0  0  0
   13.0157  -20.3416   24.4504 O   0  0  0  0  0  0  0  0  0  0  0  0
   11.1668  -16.5195   27.4843 C   0  0  0  0  0  0  0  0  0  0  0  0
   11.8459  -17.4420   28.2531 O   0  0  0  0  0  0  0  0  0  0  0  0
   13.5829  -18.3876   23.3673 O   0  0  0  0  0  0  0  0  0  0  0  0
   11.1096  -15.3280   27.8620 O   0  0  0  0  0  0  0  0  0  0  0  0
  2  1  1  6
  2  3  1  0
  2  6  1  0
  4  3  1  0
  4  8  1  0
  5  4  2  0
  6  7  2  0
  9  6  1  0
  9 10  1  0
 10 11  1  1
 11 12  1  0
 13 12  1  0
 13 14  1  0
 14 15  1  0
 16 17  2  0
 16 10  1  0
 18 16  1  0
 19 20  1  6
 19 18  1  0
 20 21  1  0
 22 21  1  0
 22 23  2  0
 24 19  1  0
 25 24  1  0
 26 22  1  0
 27 24  2  0
M  END
$$$$
