DKE.pdb
     RDKit          3D

 27 26  0  0  1  0  0  0  0  0999 V2000
   14.3341  -15.8643   17.3885 N   0  0  0  0  0  0  0  0  0  0  0  0
   14.6898  -14.9750   18.4501 C   0  0  1  0  0  0  0  0  0  0  0  0
   14.8008  -13.5378   18.0877 C   0  0  0  0  0  0  0  0  0  0  0  0
   15.9920  -13.3200   17.2415 C   0  0  0  0  0  0  0  0  0  0  0  0
   15.9729  -13.7570   16.0566 O   0  0  0  0  0  0  0  0  0  0  0  0
   13.8158  -15.2538   19.6240 C   0  0  0  0  0  0  0  0  0  0  0  0
   13.9421  -14.6483   20.7262 O   0  0  0  0  0  0  0  0  0  0  0  0
   17.1316  -12.6648   17.6676 O   0  0  0  0  0  0  0  0  0  0  0  0
   12.7644  -16.2414   19.5781 N   0  0  0  0  0  0  0  0  0  0  0  0
   12.0501  -16.6431   20.7663 C   0  0  1  0  0  0  0  0  0  0  0  0
   10.9740  -17.6026   20.4475 C   0  0  0  0  0  0  0  0  0  0  0  0
   10.2272  -18.2307   21.5610 C   0  0  0  0  0  0  0  0  0  0  0  0
    9.0732  -19.0958   21.2099 C   0  0  0  0  0  0  0  0  0  0  0  0
    8.5592  -19.7033   22.5266 C   0  0  0  0  0  0  0  0  0  0  0  0
    7.3850  -20.5027   22.2969 N   0  0  0  0  0  0  0  0  0  0  0  0
   12.9921  -17.3822   21.7007 C   0  0  0  0  0  0  0  0  0  0  0  0
   13.5083  -18.4222   21.2458 O   0  0  0  0  0  0  0  0  0  0  0  0
   13.2856  -16.9470   23.0045 N   0  0  0  0  0  0  0  0  0  0  0  0
   14.0259  -17.7891   23.9202 C   0  0  1  0  0  0  0  0  0  0  0  0
   15.4496  -17.3903   24.1147 C   0  0  0  0  0  0  0  0  0  0  0  0
   16.1497  -16.7971   22.9531 C   0  0  0  0  0  0  0  0  0  0  0  0
   17.5528  -16.4501   23.2584 C   0  0  0  0  0  0  0  0  0  0  0  0
   18.4609  -16.8788   22.5240 O   0  0  0  0  0  0  0  0  0  0  0  0
   13.2675  -17.9098   25.1667 C   0  0  0  0  0  0  0  0  0  0  0  0
   13.6832  -18.7687   26.1628 O   0  0  0  0  0  0  0  0  0  0  0  0
   17.8075  -15.6511   24.3620 O   0  0  0  0  0  0  0  0  0  0  0  0
   12.2315  -17.2287   25.3354 O   0  0  0  0  0  0  0  0  0  0  0  0
  2  1  1  6
  2  3  1  0
  2  6  1  0
  4  3  1  0
  4  8  1  0
  5  4  2  0
  6  7  2  0
  9  6  1  0
  9 10  1  0
 10 11  1  6
 11 12  1  0
 13 12  1  0
 13 14  1  0
 14 15  1  0
 16 17  2  0
 16 10  1  0
 18 16  1  0
 19 20  1  1
 19 18  1  0
 20 21  1  0
 22 21  1  0
 22 23  2  0
 24 19  1  0
 25 24  1  0
 26 22  1  0
 27 24  2  0
M  END
$$$$
