DKE.pdb
     RDKit          3D

 27 26  0  0  1  0  0  0  0  0999 V2000
   10.8019  -20.5571   19.5530 N   0  0  0  0  0  0  0  0  0  0  0  0
   11.1539  -19.4892   20.4361 C   0  0  1  0  0  0  0  0  0  0  0  0
   11.2972  -18.1475   19.8129 C   0  0  0  0  0  0  0  0  0  0  0  0
   12.2852  -18.2020   18.7160 C   0  0  0  0  0  0  0  0  0  0  0  0
   11.8610  -18.3367   17.5339 O   0  0  0  0  0  0  0  0  0  0  0  0
   10.2537  -19.5299   21.6225 C   0  0  0  0  0  0  0  0  0  0  0  0
   10.2910  -18.6572   22.5361 O   0  0  0  0  0  0  0  0  0  0  0  0
   13.6516  -18.1148   18.9034 O   0  0  0  0  0  0  0  0  0  0  0  0
    9.2775  -20.5768   21.8071 N   0  0  0  0  0  0  0  0  0  0  0  0
    8.5024  -20.6844   23.0200 C   0  0  1  0  0  0  0  0  0  0  0  0
    7.3672  -21.6135   22.8513 C   0  0  0  0  0  0  0  0  0  0  0  0
    6.5046  -21.9031   24.0192 C   0  0  0  0  0  0  0  0  0  0  0  0
    5.4303  -22.9122   23.8438 C   0  0  0  0  0  0  0  0  0  0  0  0
    4.6688  -22.9839   25.1788 C   0  0  0  0  0  0  0  0  0  0  0  0
    3.4976  -23.8107   25.0556 N   0  0  0  0  0  0  0  0  0  0  0  0
    9.3604  -21.2841   24.1205 C   0  0  0  0  0  0  0  0  0  0  0  0
   10.1586  -22.1747   23.7669 O   0  0  0  0  0  0  0  0  0  0  0  0
    9.2842  -20.8822   25.4651 N   0  0  0  0  0  0  0  0  0  0  0  0
   10.3719  -21.1469   26.3828 C   0  0  1  0  0  0  0  0  0  0  0  0
   11.6884  -20.5884   25.9600 C   0  0  0  0  0  0  0  0  0  0  0  0
   12.8270  -20.7646   26.8895 C   0  0  0  0  0  0  0  0  0  0  0  0
   14.0920  -20.2396   26.3362 C   0  0  0  0  0  0  0  0  0  0  0  0
   14.6968  -19.3387   26.9450 O   0  0  0  0  0  0  0  0  0  0  0  0
    9.9608  -20.7440   27.7290 C   0  0  0  0  0  0  0  0  0  0  0  0
   10.6690  -21.1634   28.8360 O   0  0  0  0  0  0  0  0  0  0  0  0
   14.5632  -20.7763   25.1483 O   0  0  0  0  0  0  0  0  0  0  0  0
    8.9581  -20.0114   27.8823 O   0  0  0  0  0  0  0  0  0  0  0  0
  2  1  1  6
  2  3  1  0
  2  6  1  0
  4  3  1  0
  4  8  1  0
  5  4  2  0
  6  7  2  0
  9  6  1  0
  9 10  1  0
 10 11  1  6
 11 12  1  0
 13 12  1  0
 13 14  1  0
 14 15  1  0
 16 17  2  0
 16 10  1  0
 18 16  1  0
 19 20  1  6
 19 18  1  0
 20 21  1  0
 22 21  1  0
 22 23  2  0
 24 19  1  0
 25 24  1  0
 26 22  1  0
 27 24  2  0
M  END
$$$$
