DKE.pdb
     RDKit          3D

 27 26  0  0  1  0  0  0  0  0999 V2000
    7.2638  -17.0736   19.9940 N   0  0  0  0  0  0  0  0  0  0  0  0
    8.6000  -16.5991   19.8106 C   0  0  1  0  0  0  0  0  0  0  0  0
    8.8706  -15.8887   18.5334 C   0  0  0  0  0  0  0  0  0  0  0  0
    8.4880  -16.7415   17.3893 C   0  0  0  0  0  0  0  0  0  0  0  0
    7.6139  -17.6344   17.5738 O   0  0  0  0  0  0  0  0  0  0  0  0
    9.0194  -15.8590   21.0337 C   0  0  0  0  0  0  0  0  0  0  0  0
   10.2252  -15.5638   21.2713 O   0  0  0  0  0  0  0  0  0  0  0  0
    9.0297  -16.6230   16.1236 O   0  0  0  0  0  0  0  0  0  0  0  0
    8.0699  -15.4318   22.0332 N   0  0  0  0  0  0  0  0  0  0  0  0
    8.4936  -14.7953   23.2575 C   0  0  1  0  0  0  0  0  0  0  0  0
    7.3561  -14.1648   23.9566 C   0  0  0  0  0  0  0  0  0  0  0  0
    7.6024  -13.4868   25.2496 C   0  0  0  0  0  0  0  0  0  0  0  0
    6.4418  -12.8506   25.9214 C   0  0  0  0  0  0  0  0  0  0  0  0
    6.9732  -12.2222   27.2214 C   0  0  0  0  0  0  0  0  0  0  0  0
    5.9031  -11.6244   27.9751 N   0  0  0  0  0  0  0  0  0  0  0  0
    9.0313  -15.8436   24.2161 C   0  0  0  0  0  0  0  0  0  0  0  0
    8.3838  -16.9073   24.2818 O   0  0  0  0  0  0  0  0  0  0  0  0
   10.1858  -15.6575   24.9958 N   0  0  0  0  0  0  0  0  0  0  0  0
   10.9157  -16.7900   25.5252 C   0  0  1  0  0  0  0  0  0  0  0  0
   12.3061  -16.9288   25.0042 C   0  0  0  0  0  0  0  0  0  0  0  0
   13.1096  -18.0615   25.5165 C   0  0  0  0  0  0  0  0  0  0  0  0
   14.4939  -18.0485   25.0010 C   0  0  0  0  0  0  0  0  0  0  0  0
   15.4214  -17.6975   25.7523 O   0  0  0  0  0  0  0  0  0  0  0  0
   10.8290  -16.7648   26.9864 C   0  0  0  0  0  0  0  0  0  0  0  0
   10.7110  -17.9366   27.7046 O   0  0  0  0  0  0  0  0  0  0  0  0
   14.7100  -18.4327   23.6868 O   0  0  0  0  0  0  0  0  0  0  0  0
   10.8624  -15.6719   27.5949 O   0  0  0  0  0  0  0  0  0  0  0  0
  2  1  1  1
  2  3  1  0
  2  6  1  0
  4  3  1  0
  4  8  1  0
  5  4  2  0
  6  7  2  0
  9  6  1  0
  9 10  1  0
 10 11  1  1
 11 12  1  0
 13 12  1  0
 13 14  1  0
 14 15  1  0
 16 17  2  0
 16 10  1  0
 18 16  1  0
 19 20  1  1
 19 18  1  0
 20 21  1  0
 22 21  1  0
 22 23  2  0
 24 19  1  0
 25 24  1  0
 26 22  1  0
 27 24  2  0
M  END
$$$$
