DKE.pdb
     RDKit          3D

 27 26  0  0  1  0  0  0  0  0999 V2000
   12.1130  -17.8158   18.5760 N   0  0  0  0  0  0  0  0  0  0  0  0
   11.3669  -18.3886   19.6529 C   0  0  1  0  0  0  0  0  0  0  0  0
   11.8341  -19.7134   20.1382 C   0  0  0  0  0  0  0  0  0  0  0  0
   12.0430  -20.6260   18.9953 C   0  0  0  0  0  0  0  0  0  0  0  0
   12.0247  -20.1399   17.8297 O   0  0  0  0  0  0  0  0  0  0  0  0
   11.1960  -17.3617   20.7187 C   0  0  0  0  0  0  0  0  0  0  0  0
   12.1643  -16.9200   21.4005 O   0  0  0  0  0  0  0  0  0  0  0  0
   12.2579  -21.9851   19.1226 O   0  0  0  0  0  0  0  0  0  0  0  0
    9.9052  -16.8046   21.0450 N   0  0  0  0  0  0  0  0  0  0  0  0
    9.7573  -15.7653   22.0357 C   0  0  1  0  0  0  0  0  0  0  0  0
    8.6261  -14.8728   21.7130 C   0  0  0  0  0  0  0  0  0  0  0  0
    8.6591  -14.1123   20.4431 C   0  0  0  0  0  0  0  0  0  0  0  0
    7.3794  -13.5420   19.9527 C   0  0  0  0  0  0  0  0  0  0  0  0
    7.6854  -12.8612   18.6074 C   0  0  0  0  0  0  0  0  0  0  0  0
    6.5418  -12.1273   18.1338 N   0  0  0  0  0  0  0  0  0  0  0  0
    9.4158  -16.3874   23.3785 C   0  0  0  0  0  0  0  0  0  0  0  0
    8.3413  -17.0181   23.4311 O   0  0  0  0  0  0  0  0  0  0  0  0
   10.2392  -16.2779   24.5123 N   0  0  0  0  0  0  0  0  0  0  0  0
   10.4084  -17.3939   25.4187 C   0  0  1  0  0  0  0  0  0  0  0  0
   10.7322  -18.6885   24.7530 C   0  0  0  0  0  0  0  0  0  0  0  0
   10.9113  -19.8707   25.6257 C   0  0  0  0  0  0  0  0  0  0  0  0
   11.2747  -21.0829   24.8641 C   0  0  0  0  0  0  0  0  0  0  0  0
   12.4618  -21.2669   24.5401 O   0  0  0  0  0  0  0  0  0  0  0  0
   11.3577  -17.0107   26.4653 C   0  0  0  0  0  0  0  0  0  0  0  0
   12.1938  -15.9269   26.2943 O   0  0  0  0  0  0  0  0  0  0  0  0
   10.2699  -21.9798   24.5364 O   0  0  0  0  0  0  0  0  0  0  0  0
   11.4148  -17.6692   27.5277 O   0  0  0  0  0  0  0  0  0  0  0  0
  2  1  1  6
  2  3  1  0
  2  6  1  0
  4  3  1  0
  4  8  1  0
  5  4  2  0
  6  7  2  0
  9  6  1  0
  9 10  1  0
 10 11  1  6
 11 12  1  0
 13 12  1  0
 13 14  1  0
 14 15  1  0
 16 17  2  0
 16 10  1  0
 18 16  1  0
 19 20  1  6
 19 18  1  0
 20 21  1  0
 22 21  1  0
 22 23  2  0
 24 19  1  0
 25 24  1  0
 26 22  1  0
 27 24  2  0
M  END
$$$$
