DKE.pdb
     RDKit          3D

 27 26  0  0  1  0  0  0  0  0999 V2000
    9.5368  -17.3261   19.9283 N   0  0  0  0  0  0  0  0  0  0  0  0
   10.9497  -17.1130   19.9795 C   0  0  1  0  0  0  0  0  0  0  0  0
   11.5716  -16.5627   18.7468 C   0  0  0  0  0  0  0  0  0  0  0  0
   11.3009  -17.4558   17.6015 C   0  0  0  0  0  0  0  0  0  0  0  0
   11.7923  -18.6193   17.6202 O   0  0  0  0  0  0  0  0  0  0  0  0
   11.2784  -16.3676   21.2268 C   0  0  0  0  0  0  0  0  0  0  0  0
   11.8693  -16.9057   22.2061 O   0  0  0  0  0  0  0  0  0  0  0  0
   10.5402  -17.0959   16.5055 O   0  0  0  0  0  0  0  0  0  0  0  0
   10.9383  -14.9756   21.3990 N   0  0  0  0  0  0  0  0  0  0  0  0
    9.8515  -14.5616   22.2538 C   0  0  1  0  0  0  0  0  0  0  0  0
    8.5718  -14.5290   21.5179 C   0  0  0  0  0  0  0  0  0  0  0  0
    8.5589  -13.9996   20.1353 C   0  0  0  0  0  0  0  0  0  0  0  0
    7.2530  -13.9553   19.4309 C   0  0  0  0  0  0  0  0  0  0  0  0
    7.5286  -13.3990   18.0232 C   0  0  0  0  0  0  0  0  0  0  0  0
    6.2991  -13.1991   17.3027 N   0  0  0  0  0  0  0  0  0  0  0  0
    9.6588  -15.5820   23.3622 C   0  0  0  0  0  0  0  0  0  0  0  0
    8.6901  -15.3864   24.1227 O   0  0  0  0  0  0  0  0  0  0  0  0
   10.5029  -16.6906   23.5468 N   0  0  0  0  0  0  0  0  0  0  0  0
   10.2558  -17.6445   24.6072 C   0  0  1  0  0  0  0  0  0  0  0  0
   10.6336  -19.0489   24.2770 C   0  0  0  0  0  0  0  0  0  0  0  0
   10.5565  -20.0441   25.3701 C   0  0  0  0  0  0  0  0  0  0  0  0
   11.0495  -21.3738   24.9568 C   0  0  0  0  0  0  0  0  0  0  0  0
   11.1206  -22.2869   25.7988 O   0  0  0  0  0  0  0  0  0  0  0  0
   10.8596  -17.1421   25.8426 C   0  0  0  0  0  0  0  0  0  0  0  0
   10.3636  -17.5210   27.0728 O   0  0  0  0  0  0  0  0  0  0  0  0
   11.4171  -21.5566   23.6328 O   0  0  0  0  0  0  0  0  0  0  0  0
   11.8358  -16.3614   25.7877 O   0  0  0  0  0  0  0  0  0  0  0  0
  2  1  1  6
  2  3  1  0
  2  6  1  0
  4  3  1  0
  4  8  1  0
  5  4  2  0
  6  7  2  0
  9  6  1  0
  9 10  1  0
 10 11  1  6
 11 12  1  0
 13 12  1  0
 13 14  1  0
 14 15  1  0
 16 17  2  0
 16 10  1  0
 18 16  1  0
 19 20  1  6
 19 18  1  0
 20 21  1  0
 22 21  1  0
 22 23  2  0
 24 19  1  0
 25 24  1  0
 26 22  1  0
 27 24  2  0
M  END
$$$$
