DKE.pdb
     RDKit          3D

 27 26  0  0  1  0  0  0  0  0999 V2000
   11.5220  -17.0709   14.7767 N   0  0  0  0  0  0  0  0  0  0  0  0
   12.7710  -16.4321   15.0530 C   0  0  1  0  0  0  0  0  0  0  0  0
   13.4052  -15.7188   13.9136 C   0  0  0  0  0  0  0  0  0  0  0  0
   13.7410  -16.6771   12.8406 C   0  0  0  0  0  0  0  0  0  0  0  0
   14.2176  -17.8000   13.1682 O   0  0  0  0  0  0  0  0  0  0  0  0
   12.6312  -15.6196   16.2940 C   0  0  0  0  0  0  0  0  0  0  0  0
   13.6062  -15.0174   16.8273 O   0  0  0  0  0  0  0  0  0  0  0  0
   13.5656  -16.4203   11.4942 O   0  0  0  0  0  0  0  0  0  0  0  0
   11.3662  -15.4698   16.9724 N   0  0  0  0  0  0  0  0  0  0  0  0
   11.2453  -14.7027   18.1891 C   0  0  1  0  0  0  0  0  0  0  0  0
    9.8298  -14.4897   18.5514 C   0  0  0  0  0  0  0  0  0  0  0  0
    9.5156  -13.6692   19.7431 C   0  0  0  0  0  0  0  0  0  0  0  0
    8.0845  -13.4022   20.0329 C   0  0  0  0  0  0  0  0  0  0  0  0
    8.0417  -12.5933   21.3410 C   0  0  0  0  0  0  0  0  0  0  0  0
    6.6850  -12.2821   21.7056 N   0  0  0  0  0  0  0  0  0  0  0  0
   11.8492  -15.4824   19.3441 C   0  0  0  0  0  0  0  0  0  0  0  0
   11.7461  -16.7235   19.2787 O   0  0  0  0  0  0  0  0  0  0  0  0
   12.4921  -14.8729   20.4352 N   0  0  0  0  0  0  0  0  0  0  0  0
   13.3411  -15.6406   21.3214 C   0  0  1  0  0  0  0  0  0  0  0  0
   14.7121  -15.0827   21.5026 C   0  0  0  0  0  0  0  0  0  0  0  0
   15.6076  -15.7849   22.4493 C   0  0  0  0  0  0  0  0  0  0  0  0
   16.9471  -15.1665   22.5214 C   0  0  0  0  0  0  0  0  0  0  0  0
   17.5249  -14.8380   21.4697 O   0  0  0  0  0  0  0  0  0  0  0  0
   12.6239  -15.8727   22.5765 C   0  0  0  0  0  0  0  0  0  0  0  0
   12.9794  -16.9147   23.4077 O   0  0  0  0  0  0  0  0  0  0  0  0
   17.5155  -14.9721   23.7707 O   0  0  0  0  0  0  0  0  0  0  0  0
   11.6787  -15.1209   22.9035 O   0  0  0  0  0  0  0  0  0  0  0  0
  2  1  1  6
  2  3  1  0
  2  6  1  0
  4  3  1  0
  4  8  1  0
  5  4  2  0
  6  7  2  0
  9  6  1  0
  9 10  1  0
 10 11  1  1
 11 12  1  0
 13 12  1  0
 13 14  1  0
 14 15  1  0
 16 17  2  0
 16 10  1  0
 18 16  1  0
 19 20  1  1
 19 18  1  0
 20 21  1  0
 22 21  1  0
 22 23  2  0
 24 19  1  0
 25 24  1  0
 26 22  1  0
 27 24  2  0
M  END
$$$$
