QRW.pdb
     RDKit          3D

 35 36  0  0  1  0  0  0  0  0999 V2000
   19.5226  -17.5592  -11.4779 N   0  0  0  0  0  0  0  0  0  0  0  0
   18.6096  -18.2742  -12.2826 C   0  0  0  0  0  0  0  0  0  0  0  0
   18.1473  -17.7125  -13.3114 O   0  0  0  0  0  0  0  0  0  0  0  0
   18.1661  -19.6557  -11.9720 C   0  0  0  0  0  0  0  0  0  0  0  0
   19.3194  -20.5501  -11.6031 C   0  0  0  0  0  0  0  0  0  0  0  0
   19.9639  -21.0789  -12.8275 C   0  0  2  0  0  0  0  0  0  0  0  0
   19.1347  -22.0625  -13.4744 N   0  0  0  0  0  0  0  0  0  0  0  0
   21.3006  -21.6815  -12.5795 C   0  0  0  0  0  0  0  0  0  0  0  0
   21.4272  -22.7199  -11.8477 O   0  0  0  0  0  0  0  0  0  0  0  0
   27.5533  -25.5271  -15.5608 N   0  0  0  0  0  0  0  0  0  0  0  0
   27.3813  -24.4224  -16.4330 C   0  0  0  0  0  0  0  0  0  0  0  0
   27.4721  -24.5633  -17.7064 N   0  0  0  0  0  0  0  0  0  0  0  0
   27.0879  -23.1000  -15.9526 N   0  0  0  0  0  0  0  0  0  0  0  0
   26.7548  -22.9408  -14.5855 C   0  0  0  0  0  0  0  0  0  0  0  0
   25.3239  -22.9756  -14.2015 C   0  0  0  0  0  0  0  0  0  0  0  0
   24.7358  -21.6013  -13.9855 C   0  0  0  0  0  0  0  0  0  0  0  0
   23.8111  -21.6186  -12.7796 C   0  0  2  0  0  0  0  0  0  0  0  0
   22.4962  -21.1486  -13.1284 N   0  0  0  0  0  0  0  0  0  0  0  0
   24.4365  -20.7281  -11.7071 C   0  0  0  0  0  0  0  0  0  0  0  0
   23.7513  -19.8340  -11.2267 O   0  0  0  0  0  0  0  0  0  0  0  0
   27.3331  -23.7511  -18.3495 N   0  0  0  0  0  0  0  0  0  0  0  0
   25.7641  -20.9883  -11.3215 C   0  0  2  0  0  0  0  0  0  0  0  0
   26.6026  -20.2998  -10.3853 C   0  0  0  0  0  0  0  0  0  0  0  0
   25.9529  -20.4039   -8.9982 C   0  0  0  0  0  0  0  0  0  0  0  0
   26.6535  -19.5727   -8.0344 C   0  0  0  0  0  0  0  0  0  0  0  0
   26.9936  -18.2764   -8.0136 N   0  0  0  0  0  0  0  0  0  0  0  0
   27.6901  -17.9235   -6.9342 C   0  0  0  0  0  0  0  0  0  0  0  0
   27.8195  -19.0400   -6.2021 C   0  0  0  0  0  0  0  0  0  0  0  0
   28.4256  -19.2725   -4.9865 C   0  0  0  0  0  0  0  0  0  0  0  0
   28.4238  -20.5086   -4.3949 C   0  0  0  0  0  0  0  0  0  0  0  0
   27.7948  -21.5444   -5.0404 C   0  0  0  0  0  0  0  0  0  0  0  0
   27.1868  -21.3337   -6.2528 C   0  0  0  0  0  0  0  0  0  0  0  0
   27.1929  -20.1038   -6.8361 C   0  0  0  0  0  0  0  0  0  0  0  0
   27.9783  -20.7057  -10.3353 O   0  0  0  0  0  0  0  0  0  0  0  0
   29.0612  -19.7818  -10.3713 O   0  0  0  0  0  0  0  0  0  0  0  0
  2  3  2  0
  2  1  1  0
  4  2  1  0
  5  6  1  0
  5  4  1  0
  6  8  1  0
  6  7  1  1
  8  9  2  0
 10 11  1  0
 11 13  1  0
 11 12  2  0
 13 14  1  0
 14 15  1  0
 16 15  1  0
 17 16  1  6
 17 19  1  0
 18 17  1  0
 18  8  1  0
 19 20  2  0
 19 21  1  0
 21 22  1  0
 22 33  1  0
 22 23  1  1
 24 23  1  0
 24 25  2  0
 26 25  1  0
 27 26  1  0
 28 27  2  0
 29 28  1  0
 30 29  2  0
 30 31  1  0
 31 32  2  0
 32 27  1  0
 32 24  1  0
 33 35  2  0
 33 34  1  0
M  END
$$$$
