QRW.pdb
     RDKit          3D

 35 36  0  0  1  0  0  0  0  0999 V2000
   18.7127  -23.9758  -15.0032 N   0  0  0  0  0  0  0  0  0  0  0  0
   20.0901  -24.1950  -15.2199 C   0  0  0  0  0  0  0  0  0  0  0  0
   20.4590  -24.6414  -16.3389 O   0  0  0  0  0  0  0  0  0  0  0  0
   21.1243  -23.9270  -14.1901 C   0  0  0  0  0  0  0  0  0  0  0  0
   21.9203  -22.6869  -14.4977 C   0  0  0  0  0  0  0  0  0  0  0  0
   23.1971  -23.0526  -15.1535 C   0  0  2  0  0  0  0  0  0  0  0  0
   23.1382  -24.3769  -15.7158 N   0  0  0  0  0  0  0  0  0  0  0  0
   24.3714  -22.9805  -14.2439 C   0  0  0  0  0  0  0  0  0  0  0  0
   24.5432  -23.8483  -13.3235 O   0  0  0  0  0  0  0  0  0  0  0  0
   31.4955  -23.2875  -14.7378 N   0  0  0  0  0  0  0  0  0  0  0  0
   30.6615  -23.2067  -15.8817 C   0  0  0  0  0  0  0  0  0  0  0  0
   30.6244  -24.1586  -16.7431 N   0  0  0  0  0  0  0  0  0  0  0  0
   29.8112  -22.0765  -16.1367 N   0  0  0  0  0  0  0  0  0  0  0  0
   29.6148  -21.1357  -15.0967 C   0  0  0  0  0  0  0  0  0  0  0  0
   28.7864  -21.5347  -13.9345 C   0  0  0  0  0  0  0  0  0  0  0  0
   27.4594  -20.8154  -13.8792 C   0  0  0  0  0  0  0  0  0  0  0  0
   26.3845  -21.7536  -13.3558 C   0  0  2  0  0  0  0  0  0  0  0  0
   25.3541  -21.9606  -14.3391 N   0  0  0  0  0  0  0  0  0  0  0  0
   25.8044  -21.1277  -12.0885 C   0  0  0  0  0  0  0  0  0  0  0  0
   24.9117  -20.2984  -12.2100 O   0  0  0  0  0  0  0  0  0  0  0  0
   29.9590  -24.1304  -17.5488 N   0  0  0  0  0  0  0  0  0  0  0  0
   26.3205  -21.5442  -10.8479 C   0  0  2  0  0  0  0  0  0  0  0  0
   26.0389  -21.0667   -9.5264 C   0  0  0  0  0  0  0  0  0  0  0  0
   27.2879  -21.2921   -8.6626 C   0  0  0  0  0  0  0  0  0  0  0  0
   27.3852  -20.2851   -7.6200 C   0  0  0  0  0  0  0  0  0  0  0  0
   26.6953  -19.1670   -7.3543 N   0  0  0  0  0  0  0  0  0  0  0  0
   27.1562  -18.4913   -6.3027 C   0  0  0  0  0  0  0  0  0  0  0  0
   28.2039  -19.1946   -5.8477 C   0  0  0  0  0  0  0  0  0  0  0  0
   29.0519  -18.9871   -4.7814 C   0  0  0  0  0  0  0  0  0  0  0  0
   30.0650  -19.8576   -4.4749 C   0  0  0  0  0  0  0  0  0  0  0  0
   30.2340  -20.9710   -5.2604 C   0  0  0  0  0  0  0  0  0  0  0  0
   29.4009  -21.1947   -6.3280 C   0  0  0  0  0  0  0  0  0  0  0  0
   28.3970  -20.3257   -6.6283 C   0  0  0  0  0  0  0  0  0  0  0  0
   25.5817  -19.7107   -9.4170 O   0  0  0  0  0  0  0  0  0  0  0  0
   26.2293  -18.6196  -10.0634 O   0  0  0  0  0  0  0  0  0  0  0  0
  2  3  2  0
  2  1  1  0
  4  2  1  0
  5  6  1  0
  5  4  1  0
  6  8  1  0
  6  7  1  1
  8  9  2  0
 10 11  1  0
 11 13  1  0
 11 12  2  0
 13 14  1  0
 14 15  1  0
 16 15  1  0
 17 16  1  6
 17 19  1  0
 18 17  1  0
 18  8  1  0
 19 20  2  0
 19 21  1  0
 21 22  1  0
 22 33  1  0
 22 23  1  1
 24 23  1  0
 24 25  2  0
 26 25  1  0
 27 26  1  0
 28 27  2  0
 29 28  1  0
 30 29  2  0
 30 31  1  0
 31 32  2  0
 32 27  1  0
 32 24  1  0
 33 35  2  0
 33 34  1  0
M  END
$$$$
