QRW.pdb
     RDKit          3D

 35 36  0  0  1  0  0  0  0  0999 V2000
   20.8183  -17.2211  -13.1243 N   0  0  0  0  0  0  0  0  0  0  0  0
   19.5929  -17.9086  -13.2585 C   0  0  0  0  0  0  0  0  0  0  0  0
   18.8010  -17.5529  -14.1717 O   0  0  0  0  0  0  0  0  0  0  0  0
   19.1921  -19.0293  -12.3724 C   0  0  0  0  0  0  0  0  0  0  0  0
   20.3823  -19.7769  -11.8331 C   0  0  0  0  0  0  0  0  0  0  0  0
   20.9306  -20.6774  -12.8736 C   0  0  2  0  0  0  0  0  0  0  0  0
   20.0335  -21.7696  -13.1486 N   0  0  0  0  0  0  0  0  0  0  0  0
   22.2628  -21.2400  -12.5270 C   0  0  0  0  0  0  0  0  0  0  0  0
   22.4216  -21.9559  -11.4820 O   0  0  0  0  0  0  0  0  0  0  0  0
   29.7726  -23.1404  -16.3434 N   0  0  0  0  0  0  0  0  0  0  0  0
   28.5619  -22.5594  -16.7985 C   0  0  0  0  0  0  0  0  0  0  0  0
   28.1338  -22.7689  -17.9912 N   0  0  0  0  0  0  0  0  0  0  0  0
   27.7466  -21.7226  -15.9615 N   0  0  0  0  0  0  0  0  0  0  0  0
   28.1526  -21.5148  -14.6209 C   0  0  0  0  0  0  0  0  0  0  0  0
   27.1273  -21.5998  -13.5543 C   0  0  0  0  0  0  0  0  0  0  0  0
   25.7419  -21.2380  -14.0353 C   0  0  0  0  0  0  0  0  0  0  0  0
   24.7555  -21.3255  -12.8826 C   0  0  2  0  0  0  0  0  0  0  0  0
   23.4191  -21.0183  -13.3200 N   0  0  0  0  0  0  0  0  0  0  0  0
   25.2129  -20.3391  -11.8092 C   0  0  0  0  0  0  0  0  0  0  0  0
   24.9941  -19.1476  -11.9882 O   0  0  0  0  0  0  0  0  0  0  0  0
   27.2093  -22.3956  -18.3051 N   0  0  0  0  0  0  0  0  0  0  0  0
   25.8537  -20.8530  -10.6671 C   0  0  2  0  0  0  0  0  0  0  0  0
   26.7544  -20.2166   -9.7521 C   0  0  0  0  0  0  0  0  0  0  0  0
   26.1716  -20.3528   -8.3383 C   0  0  0  0  0  0  0  0  0  0  0  0
   26.9143  -19.5391   -7.3913 C   0  0  0  0  0  0  0  0  0  0  0  0
   27.1300  -18.2206   -7.2827 N   0  0  0  0  0  0  0  0  0  0  0  0
   27.9295  -17.8910   -6.2694 C   0  0  0  0  0  0  0  0  0  0  0  0
   28.2618  -19.0472   -5.6757 C   0  0  0  0  0  0  0  0  0  0  0  0
   29.0461  -19.3189   -4.5756 C   0  0  0  0  0  0  0  0  0  0  0  0
   29.2412  -20.5952   -4.1163 C   0  0  0  0  0  0  0  0  0  0  0  0
   28.6316  -21.6318   -4.7787 C   0  0  0  0  0  0  0  0  0  0  0  0
   27.8479  -21.3821   -5.8776 C   0  0  0  0  0  0  0  0  0  0  0  0
   27.6587  -20.1122   -6.3300 C   0  0  0  0  0  0  0  0  0  0  0  0
   28.1202  -20.6560   -9.7846 O   0  0  0  0  0  0  0  0  0  0  0  0
   28.5057  -21.9587  -10.2109 O   0  0  0  0  0  0  0  0  0  0  0  0
  2  3  2  0
  2  1  1  0
  4  2  1  0
  5  6  1  0
  5  4  1  0
  6  8  1  0
  6  7  1  1
  8  9  2  0
 10 11  1  0
 11 13  1  0
 11 12  2  0
 13 14  1  0
 14 15  1  0
 16 15  1  0
 17 16  1  6
 17 19  1  0
 18 17  1  0
 18  8  1  0
 19 20  2  0
 19 21  1  0
 21 22  1  0
 22 33  1  0
 22 23  1  1
 24 23  1  0
 24 25  2  0
 26 25  1  0
 27 26  1  0
 28 27  2  0
 29 28  1  0
 30 29  2  0
 30 31  1  0
 31 32  2  0
 32 27  1  0
 32 24  1  0
 33 35  2  0
 33 34  1  0
M  END
$$$$
