QRW.pdb
     RDKit          3D

 35 36  0  0  1  0  0  0  0  0999 V2000
   27.0440  -17.6952  -20.3069 N   0  0  0  0  0  0  0  0  0  0  0  0
   25.9708  -18.3858  -19.7039 C   0  0  0  0  0  0  0  0  0  0  0  0
   25.3462  -17.8237  -18.7650 O   0  0  0  0  0  0  0  0  0  0  0  0
   25.5455  -19.7446  -20.1219 C   0  0  0  0  0  0  0  0  0  0  0  0
   26.3403  -20.2493  -21.2965 C   0  0  0  0  0  0  0  0  0  0  0  0
   27.1854  -21.3937  -20.8839 C   0  0  2  0  0  0  0  0  0  0  0  0
   27.8987  -21.9505  -22.0040 N   0  0  0  0  0  0  0  0  0  0  0  0
   26.4215  -22.4857  -20.2240 C   0  0  0  0  0  0  0  0  0  0  0  0
   25.3250  -22.9123  -20.7195 O   0  0  0  0  0  0  0  0  0  0  0  0
   28.9271  -29.4727  -16.8635 N   0  0  0  0  0  0  0  0  0  0  0  0
   27.5372  -29.5920  -16.6096 C   0  0  0  0  0  0  0  0  0  0  0  0
   26.9772  -30.7441  -16.5167 N   0  0  0  0  0  0  0  0  0  0  0  0
   26.6856  -28.4480  -16.4320 N   0  0  0  0  0  0  0  0  0  0  0  0
   27.2023  -27.1697  -16.7548 C   0  0  0  0  0  0  0  0  0  0  0  0
   26.2818  -26.0089  -16.7167 C   0  0  0  0  0  0  0  0  0  0  0  0
   26.9223  -24.7299  -17.2017 C   0  0  0  0  0  0  0  0  0  0  0  0
   26.1300  -24.1656  -18.3693 C   0  0  2  0  0  0  0  0  0  0  0  0
   26.8543  -23.1081  -19.0239 N   0  0  0  0  0  0  0  0  0  0  0  0
   24.8017  -23.6500  -17.8180 C   0  0  0  0  0  0  0  0  0  0  0  0
   24.7881  -22.5519  -17.2761 O   0  0  0  0  0  0  0  0  0  0  0  0
   25.9403  -30.8328  -16.4183 N   0  0  0  0  0  0  0  0  0  0  0  0
   23.6620  -24.4606  -17.9700 C   0  0  2  0  0  0  0  0  0  0  0  0
   22.3109  -24.2379  -17.5475 C   0  0  0  0  0  0  0  0  0  0  0  0
   21.3888  -24.4916  -18.7486 C   0  0  0  0  0  0  0  0  0  0  0  0
   21.4425  -23.3830  -19.6860 C   0  0  0  0  0  0  0  0  0  0  0  0
   21.8194  -22.1016  -19.5740 N   0  0  0  0  0  0  0  0  0  0  0  0
   21.6608  -21.3975  -20.6938 C   0  0  0  0  0  0  0  0  0  0  0  0
   21.1532  -22.2529  -21.5939 C   0  0  0  0  0  0  0  0  0  0  0  0
   20.8044  -22.0891  -22.9170 C   0  0  0  0  0  0  0  0  0  0  0  0
   20.3141  -23.1201  -23.6751 C   0  0  0  0  0  0  0  0  0  0  0  0
   20.1688  -24.3538  -23.0903 C   0  0  0  0  0  0  0  0  0  0  0  0
   20.5089  -24.5369  -21.7732 C   0  0  0  0  0  0  0  0  0  0  0  0
   20.9944  -23.5087  -21.0247 C   0  0  0  0  0  0  0  0  0  0  0  0
   21.8667  -24.9757  -16.3995 O   0  0  0  0  0  0  0  0  0  0  0  0
   20.8219  -24.5238  -15.5440 O   0  0  0  0  0  0  0  0  0  0  0  0
  2  3  2  0
  2  1  1  0
  4  2  1  0
  5  6  1  0
  5  4  1  0
  6  8  1  0
  6  7  1  6
  8  9  2  0
 10 11  1  0
 11 13  1  0
 11 12  2  0
 13 14  1  0
 14 15  1  0
 16 15  1  0
 17 16  1  1
 17 19  1  0
 18 17  1  0
 18  8  1  0
 19 20  2  0
 19 21  1  0
 21 22  1  0
 22 33  1  0
 22 23  1  6
 24 23  1  0
 24 25  2  0
 26 25  1  0
 27 26  1  0
 28 27  2  0
 29 28  1  0
 30 29  2  0
 30 31  1  0
 31 32  2  0
 32 27  1  0
 32 24  1  0
 33 35  2  0
 33 34  1  0
M  END
$$$$
