QRW.pdb
     RDKit          3D

 35 36  0  0  1  0  0  0  0  0999 V2000
   26.9999  -25.6371  -19.7471 N   0  0  0  0  0  0  0  0  0  0  0  0
   28.3296  -26.0538  -19.5218 C   0  0  0  0  0  0  0  0  0  0  0  0
   28.9031  -26.7397  -20.4096 O   0  0  0  0  0  0  0  0  0  0  0  0
   29.0830  -25.7245  -18.2866 C   0  0  0  0  0  0  0  0  0  0  0  0
   28.2581  -24.9177  -17.3196 C   0  0  0  0  0  0  0  0  0  0  0  0
   28.7159  -23.5089  -17.3138 C   0  0  2  0  0  0  0  0  0  0  0  0
   30.1378  -23.4179  -17.5222 N   0  0  0  0  0  0  0  0  0  0  0  0
   28.3775  -22.7820  -16.0614 C   0  0  0  0  0  0  0  0  0  0  0  0
   28.1883  -23.4119  -14.9673 O   0  0  0  0  0  0  0  0  0  0  0  0
   29.0117  -17.2211  -19.4925 N   0  0  0  0  0  0  0  0  0  0  0  0
   29.9504  -18.2199  -19.1297 C   0  0  0  0  0  0  0  0  0  0  0  0
   30.7616  -18.7124  -19.9951 N   0  0  0  0  0  0  0  0  0  0  0  0
   30.0572  -18.7260  -17.7888 N   0  0  0  0  0  0  0  0  0  0  0  0
   29.1597  -18.2322  -16.8112 C   0  0  0  0  0  0  0  0  0  0  0  0
   27.8599  -18.9225  -16.6371 C   0  0  0  0  0  0  0  0  0  0  0  0
   27.5199  -19.1872  -15.1895 C   0  0  0  0  0  0  0  0  0  0  0  0
   27.6844  -20.6664  -14.8821 C   0  0  2  0  0  0  0  0  0  0  0  0
   28.2439  -21.3699  -16.0062 N   0  0  0  0  0  0  0  0  0  0  0  0
   26.3044  -21.2198  -14.5306 C   0  0  0  0  0  0  0  0  0  0  0  0
   25.9156  -22.2203  -15.1202 O   0  0  0  0  0  0  0  0  0  0  0  0
   31.4303  -19.4726  -19.7353 N   0  0  0  0  0  0  0  0  0  0  0  0
   25.5566  -20.5558  -13.5412 C   0  0  1  0  0  0  0  0  0  0  0  0
   25.0017  -21.0537  -12.3174 C   0  0  0  0  0  0  0  0  0  0  0  0
   26.1592  -21.5365  -11.4318 C   0  0  0  0  0  0  0  0  0  0  0  0
   26.1298  -20.8785  -10.1369 C   0  0  0  0  0  0  0  0  0  0  0  0
   25.1395  -20.3997   -9.3710 N   0  0  0  0  0  0  0  0  0  0  0  0
   25.5638  -19.8149   -8.2518 C   0  0  0  0  0  0  0  0  0  0  0  0
   26.9017  -19.9093   -8.2753 C   0  0  0  0  0  0  0  0  0  0  0  0
   27.8642  -19.4973   -7.3792 C   0  0  0  0  0  0  0  0  0  0  0  0
   29.2002  -19.7161   -7.5918 C   0  0  0  0  0  0  0  0  0  0  0  0
   29.5845  -20.3683   -8.7374 C   0  0  0  0  0  0  0  0  0  0  0  0
   28.6412  -20.7850   -9.6431 C   0  0  0  0  0  0  0  0  0  0  0  0
   27.3155  -20.5637   -9.4270 C   0  0  0  0  0  0  0  0  0  0  0  0
   24.1427  -20.1621  -11.5917 O   0  0  0  0  0  0  0  0  0  0  0  0
   24.1956  -18.7463  -11.7351 O   0  0  0  0  0  0  0  0  0  0  0  0
  2  3  2  0
  2  1  1  0
  4  2  1  0
  5  6  1  0
  5  4  1  0
  6  8  1  0
  6  7  1  1
  8  9  2  0
 10 11  1  0
 11 13  1  0
 11 12  2  0
 13 14  1  0
 14 15  1  0
 16 15  1  0
 17 16  1  6
 17 19  1  0
 18 17  1  0
 18  8  1  0
 19 20  2  0
 19 21  1  0
 21 22  1  0
 22 33  1  0
 22 23  1  6
 24 23  1  0
 24 25  2  0
 26 25  1  0
 27 26  1  0
 28 27  2  0
 29 28  1  0
 30 29  2  0
 30 31  1  0
 31 32  2  0
 32 27  1  0
 32 24  1  0
 33 35  2  0
 33 34  1  0
M  END
$$$$
