QRW.pdb
     RDKit          3D

 35 36  0  0  1  0  0  0  0  0999 V2000
   24.6373  -29.2483  -17.1500 N   0  0  0  0  0  0  0  0  0  0  0  0
   23.6805  -28.3493  -17.6682 C   0  0  0  0  0  0  0  0  0  0  0  0
   22.8304  -28.7842  -18.4902 O   0  0  0  0  0  0  0  0  0  0  0  0
   23.6307  -26.9146  -17.2924 C   0  0  0  0  0  0  0  0  0  0  0  0
   24.6943  -26.5559  -16.2893 C   0  0  0  0  0  0  0  0  0  0  0  0
   25.4108  -25.3343  -16.7236 C   0  0  2  0  0  0  0  0  0  0  0  0
   26.6323  -25.6592  -17.4135 N   0  0  0  0  0  0  0  0  0  0  0  0
   25.7350  -24.4094  -15.6053 C   0  0  0  0  0  0  0  0  0  0  0  0
   25.8058  -24.8323  -14.4029 O   0  0  0  0  0  0  0  0  0  0  0  0
   30.0711  -21.5048  -17.9718 N   0  0  0  0  0  0  0  0  0  0  0  0
   29.2855  -20.5029  -18.5959 C   0  0  0  0  0  0  0  0  0  0  0  0
   29.0780  -20.5174  -19.8633 N   0  0  0  0  0  0  0  0  0  0  0  0
   28.6732  -19.4327  -17.8573 N   0  0  0  0  0  0  0  0  0  0  0  0
   28.5363  -19.5769  -16.4553 C   0  0  0  0  0  0  0  0  0  0  0  0
   28.0350  -20.8673  -15.9266 C   0  0  0  0  0  0  0  0  0  0  0  0
   26.6821  -20.7501  -15.2653 C   0  0  0  0  0  0  0  0  0  0  0  0
   26.2504  -22.1046  -14.7281 C   0  0  2  0  0  0  0  0  0  0  0  0
   25.9790  -23.0247  -15.8011 N   0  0  0  0  0  0  0  0  0  0  0  0
   25.0017  -21.8851  -13.8755 C   0  0  0  0  0  0  0  0  0  0  0  0
   23.9332  -21.7142  -14.4488 O   0  0  0  0  0  0  0  0  0  0  0  0
   28.5228  -19.7629  -20.3270 N   0  0  0  0  0  0  0  0  0  0  0  0
   25.1441  -21.8999  -12.4761 C   0  0  2  0  0  0  0  0  0  0  0  0
   24.1664  -21.6930  -11.4490 C   0  0  0  0  0  0  0  0  0  0  0  0
   24.8337  -21.9692  -10.0942 C   0  0  0  0  0  0  0  0  0  0  0  0
   25.2775  -20.7327   -9.4738 C   0  0  0  0  0  0  0  0  0  0  0  0
   24.7307  -19.5145   -9.3571 N   0  0  0  0  0  0  0  0  0  0  0  0
   25.5152  -18.6329   -8.7391 C   0  0  0  0  0  0  0  0  0  0  0  0
   26.6387  -19.2977   -8.4304 C   0  0  0  0  0  0  0  0  0  0  0  0
   27.7855  -18.9028   -7.7760 C   0  0  0  0  0  0  0  0  0  0  0  0
   28.8255  -19.7641   -7.5425 C   0  0  0  0  0  0  0  0  0  0  0  0
   28.7136  -21.0617   -7.9774 C   0  0  0  0  0  0  0  0  0  0  0  0
   27.5802  -21.4741   -8.6326 C   0  0  0  0  0  0  0  0  0  0  0  0
   26.5509  -20.6136   -8.8627 C   0  0  0  0  0  0  0  0  0  0  0  0
   23.5032  -20.4203  -11.4401 O   0  0  0  0  0  0  0  0  0  0  0  0
   22.1936  -20.2320  -10.9134 O   0  0  0  0  0  0  0  0  0  0  0  0
  2  3  2  0
  2  1  1  0
  4  2  1  0
  5  6  1  0
  5  4  1  0
  6  8  1  0
  6  7  1  1
  8  9  2  0
 10 11  1  0
 11 13  1  0
 11 12  2  0
 13 14  1  0
 14 15  1  0
 16 15  1  0
 17 16  1  6
 17 19  1  0
 18 17  1  0
 18  8  1  0
 19 20  2  0
 19 21  1  0
 21 22  1  0
 22 33  1  0
 22 23  1  1
 24 23  1  0
 24 25  2  0
 26 25  1  0
 27 26  1  0
 28 27  2  0
 29 28  1  0
 30 29  2  0
 30 31  1  0
 31 32  2  0
 32 27  1  0
 32 24  1  0
 33 35  2  0
 33 34  1  0
M  END
$$$$
