QRW.pdb
     RDKit          3D

 35 36  0  0  1  0  0  0  0  0999 V2000
   19.5817  -19.5299  -12.6242 N   0  0  0  0  0  0  0  0  0  0  0  0
   18.3384  -20.1895  -12.7310 C   0  0  0  0  0  0  0  0  0  0  0  0
   17.3140  -19.5028  -12.9893 O   0  0  0  0  0  0  0  0  0  0  0  0
   18.1806  -21.6538  -12.5502 C   0  0  0  0  0  0  0  0  0  0  0  0
   19.4874  -22.3275  -12.2270 C   0  0  0  0  0  0  0  0  0  0  0  0
   20.3086  -22.4577  -13.4529 C   0  0  2  0  0  0  0  0  0  0  0  0
   19.7854  -23.4727  -14.3301 N   0  0  0  0  0  0  0  0  0  0  0  0
   21.7373  -22.7655  -13.1782 C   0  0  0  0  0  0  0  0  0  0  0  0
   22.0671  -23.7756  -12.4707 O   0  0  0  0  0  0  0  0  0  0  0  0
   27.8138  -21.3703  -17.6631 N   0  0  0  0  0  0  0  0  0  0  0  0
   28.8291  -21.7831  -16.7636 C   0  0  0  0  0  0  0  0  0  0  0  0
   30.0070  -22.0763  -17.1834 N   0  0  0  0  0  0  0  0  0  0  0  0
   28.6083  -21.8858  -15.3472 N   0  0  0  0  0  0  0  0  0  0  0  0
   27.3750  -21.4262  -14.8248 C   0  0  0  0  0  0  0  0  0  0  0  0
   26.5131  -22.3920  -14.1033 C   0  0  0  0  0  0  0  0  0  0  0  0
   25.0639  -22.3195  -14.5225 C   0  0  0  0  0  0  0  0  0  0  0  0
   24.1792  -22.1571  -13.2976 C   0  0  2  0  0  0  0  0  0  0  0  0
   22.8027  -21.9692  -13.6739 N   0  0  0  0  0  0  0  0  0  0  0  0
   24.6946  -20.9512  -12.5138 C   0  0  0  0  0  0  0  0  0  0  0  0
   24.7651  -19.8737  -13.0915 O   0  0  0  0  0  0  0  0  0  0  0  0
   30.7560  -22.3776  -16.5195 N   0  0  0  0  0  0  0  0  0  0  0  0
   25.0528  -21.1405  -11.1667 C   0  0  2  0  0  0  0  0  0  0  0  0
   25.6621  -20.2332  -10.2398 C   0  0  0  0  0  0  0  0  0  0  0  0
   26.3550  -21.0616   -9.1486 C   0  0  0  0  0  0  0  0  0  0  0  0
   26.8321  -20.2076   -8.0745 C   0  0  0  0  0  0  0  0  0  0  0  0
   26.5543  -18.9484   -7.7086 N   0  0  0  0  0  0  0  0  0  0  0  0
   27.2693  -18.5236   -6.6679 C   0  0  0  0  0  0  0  0  0  0  0  0
   28.0614  -19.5508   -6.3257 C   0  0  0  0  0  0  0  0  0  0  0  0
   28.9931  -19.6928   -5.3203 C   0  0  0  0  0  0  0  0  0  0  0  0
   29.6899  -20.8575   -5.1307 C   0  0  0  0  0  0  0  0  0  0  0  0
   29.4458  -21.9133   -5.9738 C   0  0  0  0  0  0  0  0  0  0  0  0
   28.5229  -21.7912   -6.9824 C   0  0  0  0  0  0  0  0  0  0  0  0
   27.8347  -20.6313   -7.1667 C   0  0  0  0  0  0  0  0  0  0  0  0
   26.5627  -19.2608  -10.7902 O   0  0  0  0  0  0  0  0  0  0  0  0
   26.4009  -17.8589  -10.5999 O   0  0  0  0  0  0  0  0  0  0  0  0
  2  3  2  0
  2  1  1  0
  4  2  1  0
  5  6  1  0
  5  4  1  0
  6  8  1  0
  6  7  1  6
  8  9  2  0
 10 11  1  0
 11 13  1  0
 11 12  2  0
 13 14  1  0
 14 15  1  0
 16 15  1  0
 17 16  1  6
 17 19  1  0
 18 17  1  0
 18  8  1  0
 19 20  2  0
 19 21  1  0
 21 22  1  0
 22 33  1  0
 22 23  1  1
 24 23  1  0
 24 25  2  0
 26 25  1  0
 27 26  1  0
 28 27  2  0
 29 28  1  0
 30 29  2  0
 30 31  1  0
 31 32  2  0
 32 27  1  0
 32 24  1  0
 33 35  2  0
 33 34  1  0
M  END
$$$$
