QRW.pdb
     RDKit          3D

 35 36  0  0  1  0  0  0  0  0999 V2000
   26.4668  -14.4349  -15.6728 N   0  0  0  0  0  0  0  0  0  0  0  0
   27.0989  -14.2498  -16.9212 C   0  0  0  0  0  0  0  0  0  0  0  0
   27.5963  -13.1218  -17.1816 O   0  0  0  0  0  0  0  0  0  0  0  0
   27.2025  -15.3208  -17.9429 C   0  0  0  0  0  0  0  0  0  0  0  0
   26.4371  -16.5553  -17.5473 C   0  0  0  0  0  0  0  0  0  0  0  0
   27.1931  -17.3160  -16.5256 C   0  0  2  0  0  0  0  0  0  0  0  0
   28.5862  -17.4226  -16.8744 N   0  0  0  0  0  0  0  0  0  0  0  0
   26.6612  -18.6852  -16.2935 C   0  0  0  0  0  0  0  0  0  0  0  0
   25.4051  -18.8954  -16.2056 O   0  0  0  0  0  0  0  0  0  0  0  0
   30.9511  -23.9148  -18.4178 N   0  0  0  0  0  0  0  0  0  0  0  0
   30.1223  -24.8806  -17.7926 C   0  0  0  0  0  0  0  0  0  0  0  0
   30.6204  -25.9443  -17.2728 N   0  0  0  0  0  0  0  0  0  0  0  0
   28.6971  -24.7245  -17.6937 N   0  0  0  0  0  0  0  0  0  0  0  0
   28.1319  -23.4763  -18.0511 C   0  0  0  0  0  0  0  0  0  0  0  0
   28.6107  -22.2610  -17.3510 C   0  0  0  0  0  0  0  0  0  0  0  0
   28.1233  -22.1696  -15.9243 C   0  0  0  0  0  0  0  0  0  0  0  0
   27.0154  -21.1345  -15.8221 C   0  0  2  0  0  0  0  0  0  0  0  0
   27.5009  -19.8213  -16.1557 N   0  0  0  0  0  0  0  0  0  0  0  0
   26.4857  -21.1670  -14.3894 C   0  0  0  0  0  0  0  0  0  0  0  0
   27.2773  -20.9707  -13.4760 O   0  0  0  0  0  0  0  0  0  0  0  0
   30.0053  -26.7267  -16.9533 N   0  0  0  0  0  0  0  0  0  0  0  0
   25.1140  -21.4120  -14.1956 C   0  0  1  0  0  0  0  0  0  0  0  0
   24.3647  -21.5429  -12.9811 C   0  0  0  0  0  0  0  0  0  0  0  0
   24.7021  -20.3447  -12.0824 C   0  0  0  0  0  0  0  0  0  0  0  0
   24.1978  -20.5495  -10.7354 C   0  0  0  0  0  0  0  0  0  0  0  0
   24.7391  -21.0534   -9.6175 N   0  0  0  0  0  0  0  0  0  0  0  0
   23.8930  -21.1052   -8.5897 C   0  0  0  0  0  0  0  0  0  0  0  0
   22.7325  -20.6120   -9.0472 C   0  0  0  0  0  0  0  0  0  0  0  0
   21.5172  -20.4094   -8.4298 C   0  0  0  0  0  0  0  0  0  0  0  0
   20.4467  -19.8628   -9.0880 C   0  0  0  0  0  0  0  0  0  0  0  0
   20.5978  -19.5074  -10.4056 C   0  0  0  0  0  0  0  0  0  0  0  0
   21.7998  -19.7026  -11.0390 C   0  0  0  0  0  0  0  0  0  0  0  0
   22.8593  -20.2472  -10.3803 C   0  0  0  0  0  0  0  0  0  0  0  0
   22.9440  -21.6946  -13.1157 O   0  0  0  0  0  0  0  0  0  0  0  0
   22.1888  -22.6321  -12.3552 O   0  0  0  0  0  0  0  0  0  0  0  0
  2  3  2  0
  2  1  1  0
  4  2  1  0
  5  6  1  0
  5  4  1  0
  6  8  1  0
  6  7  1  6
  8  9  2  0
 10 11  1  0
 11 13  1  0
 11 12  2  0
 13 14  1  0
 14 15  1  0
 16 15  1  0
 17 16  1  1
 17 19  1  0
 18 17  1  0
 18  8  1  0
 19 20  2  0
 19 21  1  0
 21 22  1  0
 22 33  1  0
 22 23  1  6
 24 23  1  0
 24 25  2  0
 26 25  1  0
 27 26  1  0
 28 27  2  0
 29 28  1  0
 30 29  2  0
 30 31  1  0
 31 32  2  0
 32 27  1  0
 32 24  1  0
 33 35  2  0
 33 34  1  0
M  END
$$$$
