LCE.pdb
     RDKit          3D

 24 23  0  0  1  0  0  0  0  0999 V2000
    8.1355  -13.0024   19.1669 C   0  0  0  0  0  0  0  0  0  0  0  0
    7.7823  -13.8213   20.3811 C   0  0  2  0  0  0  0  0  0  0  0  0
    6.7609  -12.9994   21.1798 C   0  0  0  0  0  0  0  0  0  0  0  0
    8.9442  -14.0592   21.2869 C   0  0  0  0  0  0  0  0  0  0  0  0
    8.6851  -15.1471   22.3038 C   0  0  2  0  0  0  0  0  0  0  0  0
    7.3272  -15.2165   22.7217 N   0  0  0  0  0  0  0  0  0  0  0  0
    9.5785  -15.0355   23.4760 C   0  0  0  0  0  0  0  0  0  0  0  0
   10.8324  -15.0060   23.3486 O   0  0  0  0  0  0  0  0  0  0  0  0
    9.0137  -14.9602   24.7683 N   0  0  0  0  0  0  0  0  0  0  0  0
    9.8038  -14.8705   25.9994 C   0  0  1  0  0  0  0  0  0  0  0  0
    9.1361  -13.8958   26.9491 C   0  0  0  0  0  0  0  0  0  0  0  0
    9.9785  -13.9077   28.5371 S   0  0  0  0  0  0  0  0  0  0  0  0
    9.7722  -16.2143   26.6097 C   0  0  0  0  0  0  0  0  0  0  0  0
    8.6378  -16.7758   26.8036 O   0  0  0  0  0  0  0  0  0  0  0  0
   10.9230  -16.9450   27.0021 N   0  0  0  0  0  0  0  0  0  0  0  0
   10.7905  -18.2861   27.5498 C   0  0  1  0  0  0  0  0  0  0  0  0
   11.4318  -19.3188   26.6606 C   0  0  0  0  0  0  0  0  0  0  0  0
   12.8008  -18.9325   26.1755 C   0  0  0  0  0  0  0  0  0  0  0  0
   13.2856  -20.0271   25.3039 C   0  0  0  0  0  0  0  0  0  0  0  0
   12.5233  -20.9940   25.0744 O   0  0  0  0  0  0  0  0  0  0  0  0
   11.4407  -18.3960   28.8779 C   0  0  0  0  0  0  0  0  0  0  0  0
   12.1123  -17.3541   29.4993 O   0  0  0  0  0  0  0  0  0  0  0  0
   14.5453  -20.0184   24.7375 O   0  0  0  0  0  0  0  0  0  0  0  0
   11.3856  -19.4942   29.4846 O   0  0  0  0  0  0  0  0  0  0  0  0
  2  1  1  6
  2  3  1  0
  4  5  1  0
  4  2  1  0
  5  6  1  1
  5  7  1  0
  7  8  2  0
  9  7  1  0
  9 10  1  0
 10 13  1  0
 10 11  1  1
 11 12  1  0
 13 14  2  0
 15 16  1  0
 15 13  1  0
 16 21  1  0
 16 17  1  6
 18 17  1  0
 19 20  2  0
 19 18  1  0
 21 24  2  0
 21 22  1  0
 23 19  1  0
M  END
$$$$
