LCE.pdb
     RDKit          3D

 24 23  0  0  1  0  0  0  0  0999 V2000
    7.2707  -12.0122   24.8279 C   0  0  0  0  0  0  0  0  0  0  0  0
    6.0634  -12.5301   25.5654 C   0  0  2  0  0  0  0  0  0  0  0  0
    5.8254  -11.5713   26.7405 C   0  0  0  0  0  0  0  0  0  0  0  0
    6.2717  -13.8860   26.1531 C   0  0  0  0  0  0  0  0  0  0  0  0
    6.8845  -14.8634   25.1764 C   0  0  2  0  0  0  0  0  0  0  0  0
    6.2404  -16.1316   25.1687 N   0  0  0  0  0  0  0  0  0  0  0  0
    8.3377  -15.0262   25.3921 C   0  0  0  0  0  0  0  0  0  0  0  0
    9.1377  -14.0628   25.2464 O   0  0  0  0  0  0  0  0  0  0  0  0
    8.8408  -16.2905   25.7700 N   0  0  0  0  0  0  0  0  0  0  0  0
   10.2639  -16.5727   25.9784 C   0  0  1  0  0  0  0  0  0  0  0  0
   10.5204  -16.7689   27.4594 C   0  0  0  0  0  0  0  0  0  0  0  0
    9.1764  -17.7063   28.1987 S   0  0  0  0  0  0  0  0  0  0  0  0
   10.5390  -17.8456   25.2832 C   0  0  0  0  0  0  0  0  0  0  0  0
    9.8096  -18.8634   25.5510 O   0  0  0  0  0  0  0  0  0  0  0  0
   11.5661  -18.0297   24.3223 N   0  0  0  0  0  0  0  0  0  0  0  0
   11.7723  -19.3318   23.7075 C   0  0  1  0  0  0  0  0  0  0  0  0
   12.4806  -19.2187   22.3831 C   0  0  0  0  0  0  0  0  0  0  0  0
   13.2988  -17.9660   22.2403 C   0  0  0  0  0  0  0  0  0  0  0  0
   13.9507  -18.0136   20.9115 C   0  0  0  0  0  0  0  0  0  0  0  0
   13.3467  -17.5255   19.9289 O   0  0  0  0  0  0  0  0  0  0  0  0
   12.6008  -20.2118   24.5665 C   0  0  0  0  0  0  0  0  0  0  0  0
   12.8218  -21.5568   24.3114 O   0  0  0  0  0  0  0  0  0  0  0  0
   15.1975  -18.5758   20.7194 O   0  0  0  0  0  0  0  0  0  0  0  0
   13.1390  -19.7194   25.5888 O   0  0  0  0  0  0  0  0  0  0  0  0
  2  1  1  1
  2  3  1  0
  4  5  1  0
  4  2  1  0
  5  6  1  1
  5  7  1  0
  7  8  2  0
  9  7  1  0
  9 10  1  0
 10 13  1  0
 10 11  1  1
 11 12  1  0
 13 14  2  0
 15 16  1  0
 15 13  1  0
 16 21  1  0
 16 17  1  6
 18 17  1  0
 19 20  2  0
 19 18  1  0
 21 24  2  0
 21 22  1  0
 23 19  1  0
M  END
$$$$
