LCE.pdb
     RDKit          3D

 24 23  0  0  1  0  0  0  0  0999 V2000
    5.5939  -14.6227   19.1501 C   0  0  0  0  0  0  0  0  0  0  0  0
    7.0794  -14.8449   19.0333 C   0  0  2  0  0  0  0  0  0  0  0  0
    7.2672  -16.2822   18.5277 C   0  0  0  0  0  0  0  0  0  0  0  0
    7.7911  -14.7538   20.3419 C   0  0  0  0  0  0  0  0  0  0  0  0
    7.7575  -13.3639   20.9350 C   0  0  2  0  0  0  0  0  0  0  0  0
    8.3087  -12.3716   20.0778 N   0  0  0  0  0  0  0  0  0  0  0  0
    8.4032  -13.3116   22.2635 C   0  0  0  0  0  0  0  0  0  0  0  0
    9.5540  -12.8205   22.4183 O   0  0  0  0  0  0  0  0  0  0  0  0
    7.7144  -13.8238   23.3851 N   0  0  0  0  0  0  0  0  0  0  0  0
    8.2823  -13.8797   24.7351 C   0  0  1  0  0  0  0  0  0  0  0  0
    7.2482  -13.3922   25.7304 C   0  0  0  0  0  0  0  0  0  0  0  0
    5.6710  -14.1989   25.4250 S   0  0  0  0  0  0  0  0  0  0  0  0
    8.5597  -15.3037   25.0082 C   0  0  0  0  0  0  0  0  0  0  0  0
    7.6316  -16.1618   24.8039 O   0  0  0  0  0  0  0  0  0  0  0  0
    9.7987  -15.8029   25.4855 N   0  0  0  0  0  0  0  0  0  0  0  0
    9.9642  -17.2229   25.7545 C   0  0  1  0  0  0  0  0  0  0  0  0
   11.2769  -17.7419   25.2292 C   0  0  0  0  0  0  0  0  0  0  0  0
   11.5458  -17.3680   23.7985 C   0  0  0  0  0  0  0  0  0  0  0  0
   13.0109  -17.2122   23.6508 C   0  0  0  0  0  0  0  0  0  0  0  0
   13.4833  -16.0579   23.5361 O   0  0  0  0  0  0  0  0  0  0  0  0
    9.9394  -17.5055   27.2099 C   0  0  0  0  0  0  0  0  0  0  0  0
    9.7732  -16.5330   28.1843 O   0  0  0  0  0  0  0  0  0  0  0  0
   13.8714  -18.2925   23.6350 O   0  0  0  0  0  0  0  0  0  0  0  0
   10.0763  -18.6934   27.5935 O   0  0  0  0  0  0  0  0  0  0  0  0
  2  1  1  1
  2  3  1  0
  4  5  1  0
  4  2  1  0
  5  6  1  6
  5  7  1  0
  7  8  2  0
  9  7  1  0
  9 10  1  0
 10 13  1  0
 10 11  1  1
 11 12  1  0
 13 14  2  0
 15 16  1  0
 15 13  1  0
 16 21  1  0
 16 17  1  1
 18 17  1  0
 19 20  2  0
 19 18  1  0
 21 24  2  0
 21 22  1  0
 23 19  1  0
M  END
$$$$
