LCE.pdb
     RDKit          3D

 24 23  0  0  1  0  0  0  0  0999 V2000
    0.3002  -28.3340   28.2834 C   0  0  0  0  0  0  0  0  0  0  0  0
   -0.4961  -27.7058   27.1694 C   0  0  2  0  0  0  0  0  0  0  0  0
    0.4507  -27.5923   25.9664 C   0  0  0  0  0  0  0  0  0  0  0  0
   -0.9565  -26.3218   27.4853 C   0  0  0  0  0  0  0  0  0  0  0  0
   -2.2378  -25.9508   26.7743 C   0  0  2  0  0  0  0  0  0  0  0  0
   -2.0520  -25.6536   25.3957 N   0  0  0  0  0  0  0  0  0  0  0  0
   -2.9455  -24.8420   27.4483 C   0  0  0  0  0  0  0  0  0  0  0  0
   -3.1075  -24.8267   28.6985 O   0  0  0  0  0  0  0  0  0  0  0  0
   -3.4519  -23.7755   26.6733 N   0  0  0  0  0  0  0  0  0  0  0  0
   -4.0330  -22.5570   27.2439 C   0  0  1  0  0  0  0  0  0  0  0  0
   -4.0593  -21.4744   26.1832 C   0  0  0  0  0  0  0  0  0  0  0  0
   -2.4059  -20.8137   25.9360 S   0  0  0  0  0  0  0  0  0  0  0  0
   -5.4247  -22.8925   27.6046 C   0  0  0  0  0  0  0  0  0  0  0  0
   -6.0188  -23.8275   26.9624 O   0  0  0  0  0  0  0  0  0  0  0  0
   -6.1661  -22.2486   28.6283 N   0  0  0  0  0  0  0  0  0  0  0  0
   -7.3883  -22.8495   29.1392 C   0  0  1  0  0  0  0  0  0  0  0  0
   -7.1372  -24.2130   29.7276 C   0  0  0  0  0  0  0  0  0  0  0  0
   -7.6169  -24.3576   31.1446 C   0  0  0  0  0  0  0  0  0  0  0  0
   -7.6828  -25.8066   31.4427 C   0  0  0  0  0  0  0  0  0  0  0  0
   -7.4209  -26.6203   30.5273 O   0  0  0  0  0  0  0  0  0  0  0  0
   -7.9927  -22.0215   30.2106 C   0  0  0  0  0  0  0  0  0  0  0  0
   -9.3296  -22.0815   30.5739 O   0  0  0  0  0  0  0  0  0  0  0  0
   -8.0223  -26.2898   32.6913 O   0  0  0  0  0  0  0  0  0  0  0  0
   -7.2585  -21.2144   30.8324 O   0  0  0  0  0  0  0  0  0  0  0  0
  2  1  1  1
  2  3  1  0
  4  5  1  0
  4  2  1  0
  5  6  1  6
  5  7  1  0
  7  8  2  0
  9  7  1  0
  9 10  1  0
 10 13  1  0
 10 11  1  6
 11 12  1  0
 13 14  2  0
 15 16  1  0
 15 13  1  0
 16 21  1  0
 16 17  1  1
 18 17  1  0
 19 20  2  0
 19 18  1  0
 21 24  2  0
 21 22  1  0
 23 19  1  0
M  END
$$$$
