LCE.pdb
     RDKit          3D

 24 23  0  0  1  0  0  0  0  0999 V2000
    5.7081  -12.3556   25.4853 C   0  0  0  0  0  0  0  0  0  0  0  0
    6.3430  -13.1077   26.6258 C   0  0  2  0  0  0  0  0  0  0  0  0
    7.1764  -12.0861   27.4121 C   0  0  0  0  0  0  0  0  0  0  0  0
    7.2850  -14.1733   26.1739 C   0  0  0  0  0  0  0  0  0  0  0  0
    6.6160  -15.2289   25.3236 C   0  0  2  0  0  0  0  0  0  0  0  0
    5.6111  -15.9584   26.0174 N   0  0  0  0  0  0  0  0  0  0  0  0
    7.5950  -16.1541   24.7152 C   0  0  0  0  0  0  0  0  0  0  0  0
    7.8849  -17.2557   25.2554 O   0  0  0  0  0  0  0  0  0  0  0  0
    8.2198  -15.7951   23.5005 N   0  0  0  0  0  0  0  0  0  0  0  0
    9.1877  -16.6436   22.7996 C   0  0  1  0  0  0  0  0  0  0  0  0
    9.2069  -16.2679   21.3312 C   0  0  0  0  0  0  0  0  0  0  0  0
    9.2716  -14.4803   21.1533 S   0  0  0  0  0  0  0  0  0  0  0  0
   10.5085  -16.3303   23.3799 C   0  0  0  0  0  0  0  0  0  0  0  0
   10.7054  -15.1627   23.8674 O   0  0  0  0  0  0  0  0  0  0  0  0
   11.5943  -17.2410   23.4424 N   0  0  0  0  0  0  0  0  0  0  0  0
   12.8285  -16.8678   24.1158 C   0  0  1  0  0  0  0  0  0  0  0  0
   13.5120  -18.0606   24.7312 C   0  0  0  0  0  0  0  0  0  0  0  0
   14.8444  -17.7415   25.3491 C   0  0  0  0  0  0  0  0  0  0  0  0
   15.3917  -19.0045   25.8951 C   0  0  0  0  0  0  0  0  0  0  0  0
   14.7647  -20.0690   25.6893 O   0  0  0  0  0  0  0  0  0  0  0  0
   13.7957  -16.2541   23.1743 C   0  0  0  0  0  0  0  0  0  0  0  0
   14.7829  -15.3574   23.5541 O   0  0  0  0  0  0  0  0  0  0  0  0
   16.5658  -19.0486   26.6213 O   0  0  0  0  0  0  0  0  0  0  0  0
   13.7251  -16.5580   21.9578 O   0  0  0  0  0  0  0  0  0  0  0  0
  2  1  1  6
  2  3  1  0
  4  5  1  0
  4  2  1  0
  5  6  1  1
  5  7  1  0
  7  8  2  0
  9  7  1  0
  9 10  1  0
 10 13  1  0
 10 11  1  6
 11 12  1  0
 13 14  2  0
 15 16  1  0
 15 13  1  0
 16 21  1  0
 16 17  1  6
 18 17  1  0
 19 20  2  0
 19 18  1  0
 21 24  2  0
 21 22  1  0
 23 19  1  0
M  END
$$$$
