LCE.pdb
     RDKit          3D

 24 23  0  0  1  0  0  0  0  0999 V2000
    7.7249  -14.5529   18.6738 C   0  0  0  0  0  0  0  0  0  0  0  0
    7.1058  -13.6602   19.7176 C   0  0  2  0  0  0  0  0  0  0  0  0
    6.9011  -12.2908   19.0549 C   0  0  0  0  0  0  0  0  0  0  0  0
    7.9902  -13.4375   20.8989 C   0  0  0  0  0  0  0  0  0  0  0  0
    8.2479  -14.7007   21.6881 C   0  0  2  0  0  0  0  0  0  0  0  0
    7.0615  -15.4168   22.0092 N   0  0  0  0  0  0  0  0  0  0  0  0
    9.0377  -14.4403   22.9101 C   0  0  0  0  0  0  0  0  0  0  0  0
   10.1468  -13.8429   22.8632 O   0  0  0  0  0  0  0  0  0  0  0  0
    8.5376  -14.8711   24.1586 N   0  0  0  0  0  0  0  0  0  0  0  0
    9.1936  -14.5933   25.4395 C   0  0  1  0  0  0  0  0  0  0  0  0
    8.1371  -14.3014   26.4865 C   0  0  0  0  0  0  0  0  0  0  0  0
    8.9095  -14.0680   28.0929 S   0  0  0  0  0  0  0  0  0  0  0  0
    9.8992  -15.8329   25.8199 C   0  0  0  0  0  0  0  0  0  0  0  0
    9.2168  -16.9037   25.9856 O   0  0  0  0  0  0  0  0  0  0  0  0
   11.3007  -15.9308   26.0165 N   0  0  0  0  0  0  0  0  0  0  0  0
   11.9098  -17.2118   26.3390 C   0  0  1  0  0  0  0  0  0  0  0  0
   13.3695  -17.2453   25.9696 C   0  0  0  0  0  0  0  0  0  0  0  0
   13.6414  -16.8545   24.5440 C   0  0  0  0  0  0  0  0  0  0  0  0
   15.1098  -16.8734   24.3534 C   0  0  0  0  0  0  0  0  0  0  0  0
   15.6306  -17.8696   23.8013 O   0  0  0  0  0  0  0  0  0  0  0  0
   11.8248  -17.5024   27.7906 C   0  0  0  0  0  0  0  0  0  0  0  0
   11.3149  -16.6174   28.7284 O   0  0  0  0  0  0  0  0  0  0  0  0
   15.9218  -15.8336   24.7624 O   0  0  0  0  0  0  0  0  0  0  0  0
   12.2368  -18.6137   28.2057 O   0  0  0  0  0  0  0  0  0  0  0  0
  2  1  1  6
  2  3  1  0
  4  5  1  0
  4  2  1  0
  5  6  1  1
  5  7  1  0
  7  8  2  0
  9  7  1  0
  9 10  1  0
 10 13  1  0
 10 11  1  1
 11 12  1  0
 13 14  2  0
 15 16  1  0
 15 13  1  0
 16 21  1  0
 16 17  1  1
 18 17  1  0
 19 20  2  0
 19 18  1  0
 21 24  2  0
 21 22  1  0
 23 19  1  0
M  END
$$$$
