LCE.pdb
     RDKit          3D

 24 23  0  0  1  0  0  0  0  0999 V2000
    8.1453  -14.3165   18.2731 C   0  0  0  0  0  0  0  0  0  0  0  0
    7.1794  -13.6357   19.2076 C   0  0  2  0  0  0  0  0  0  0  0  0
    6.8639  -12.2671   18.5880 C   0  0  0  0  0  0  0  0  0  0  0  0
    7.7564  -13.3725   20.5585 C   0  0  0  0  0  0  0  0  0  0  0  0
    8.0893  -14.6390   21.3136 C   0  0  2  0  0  0  0  0  0  0  0  0
    6.9628  -15.4808   21.5271 N   0  0  0  0  0  0  0  0  0  0  0  0
    8.7715  -14.3584   22.5945 C   0  0  0  0  0  0  0  0  0  0  0  0
    9.8536  -13.7130   22.6375 O   0  0  0  0  0  0  0  0  0  0  0  0
    8.1971  -14.8245   23.7976 N   0  0  0  0  0  0  0  0  0  0  0  0
    8.7777  -14.5899   25.1227 C   0  0  1  0  0  0  0  0  0  0  0  0
    7.6886  -14.1215   26.0672 C   0  0  0  0  0  0  0  0  0  0  0  0
    8.3876  -13.7615   27.6838 S   0  0  0  0  0  0  0  0  0  0  0  0
    9.2747  -15.8978   25.5937 C   0  0  0  0  0  0  0  0  0  0  0  0
    8.7743  -16.9638   25.0910 O   0  0  0  0  0  0  0  0  0  0  0  0
   10.2841  -16.0666   26.5760 N   0  0  0  0  0  0  0  0  0  0  0  0
   10.7674  -17.3968   26.9119 C   0  0  1  0  0  0  0  0  0  0  0  0
   11.7988  -17.8818   25.9273 C   0  0  0  0  0  0  0  0  0  0  0  0
   12.9601  -16.9430   25.7567 C   0  0  0  0  0  0  0  0  0  0  0  0
   13.6500  -17.3177   24.5012 C   0  0  0  0  0  0  0  0  0  0  0  0
   12.9629  -17.4999   23.4700 O   0  0  0  0  0  0  0  0  0  0  0  0
   11.4040  -17.4202   28.2509 C   0  0  0  0  0  0  0  0  0  0  0  0
   11.9717  -18.5511   28.8182 O   0  0  0  0  0  0  0  0  0  0  0  0
   15.0206  -17.4728   24.4287 O   0  0  0  0  0  0  0  0  0  0  0  0
   11.4362  -16.3576   28.9194 O   0  0  0  0  0  0  0  0  0  0  0  0
  2  1  1  6
  2  3  1  0
  4  5  1  0
  4  2  1  0
  5  6  1  1
  5  7  1  0
  7  8  2  0
  9  7  1  0
  9 10  1  0
 10 13  1  0
 10 11  1  1
 11 12  1  0
 13 14  2  0
 15 16  1  0
 15 13  1  0
 16 21  1  0
 16 17  1  6
 18 17  1  0
 19 20  2  0
 19 18  1  0
 21 24  2  0
 21 22  1  0
 23 19  1  0
M  END
$$$$
