LCE.pdb
     RDKit          3D

 24 23  0  0  1  0  0  0  0  0999 V2000
    9.1518  -16.9486   19.8511 C   0  0  0  0  0  0  0  0  0  0  0  0
    8.3304  -15.9283   20.5954 C   0  0  2  0  0  0  0  0  0  0  0  0
    6.9250  -16.5268   20.7480 C   0  0  0  0  0  0  0  0  0  0  0  0
    8.1719  -14.6453   19.8498 C   0  0  0  0  0  0  0  0  0  0  0  0
    7.3918  -13.6071   20.6234 C   0  0  2  0  0  0  0  0  0  0  0  0
    7.1363  -12.4228   19.8781 N   0  0  0  0  0  0  0  0  0  0  0  0
    8.0359  -13.2748   21.9115 C   0  0  0  0  0  0  0  0  0  0  0  0
    8.6139  -12.1693   22.0937 O   0  0  0  0  0  0  0  0  0  0  0  0
    8.0029  -14.2181   22.9621 N   0  0  0  0  0  0  0  0  0  0  0  0
    8.1915  -13.8730   24.3740 C   0  0  1  0  0  0  0  0  0  0  0  0
    7.0770  -12.9437   24.8121 C   0  0  0  0  0  0  0  0  0  0  0  0
    7.2376  -12.5716   26.5635 S   0  0  0  0  0  0  0  0  0  0  0  0
    8.0707  -15.1364   25.1280 C   0  0  0  0  0  0  0  0  0  0  0  0
    7.3301  -16.0675   24.6546 O   0  0  0  0  0  0  0  0  0  0  0  0
    8.7264  -15.4033   26.3573 N   0  0  0  0  0  0  0  0  0  0  0  0
    9.5983  -16.5603   26.4889 C   0  0  1  0  0  0  0  0  0  0  0  0
   10.7200  -16.5320   25.4842 C   0  0  0  0  0  0  0  0  0  0  0  0
   10.6075  -17.5902   24.4228 C   0  0  0  0  0  0  0  0  0  0  0  0
   11.7978  -17.4687   23.5504 C   0  0  0  0  0  0  0  0  0  0  0  0
   12.9029  -17.8681   23.9837 O   0  0  0  0  0  0  0  0  0  0  0  0
   10.2232  -16.6181   27.8324 C   0  0  0  0  0  0  0  0  0  0  0  0
   10.0670  -15.6385   28.8014 O   0  0  0  0  0  0  0  0  0  0  0  0
   11.7313  -16.9317   22.2796 O   0  0  0  0  0  0  0  0  0  0  0  0
   10.9388  -17.6093   28.1198 O   0  0  0  0  0  0  0  0  0  0  0  0
  2  1  1  6
  2  3  1  0
  4  5  1  0
  4  2  1  0
  5  6  1  6
  5  7  1  0
  7  8  2  0
  9  7  1  0
  9 10  1  0
 10 13  1  0
 10 11  1  1
 11 12  1  0
 13 14  2  0
 15 16  1  0
 15 13  1  0
 16 21  1  0
 16 17  1  6
 18 17  1  0
 19 20  2  0
 19 18  1  0
 21 24  2  0
 21 22  1  0
 23 19  1  0
M  END
$$$$
