LCE.pdb
     RDKit          3D

 24 23  0  0  1  0  0  0  0  0999 V2000
    8.7363  -12.1764   20.6844 C   0  0  0  0  0  0  0  0  0  0  0  0
    7.9372  -12.7976   19.5685 C   0  0  2  0  0  0  0  0  0  0  0  0
    6.7981  -11.8190   19.2502 C   0  0  0  0  0  0  0  0  0  0  0  0
    7.2978  -14.0900   19.9534 C   0  0  0  0  0  0  0  0  0  0  0  0
    8.2104  -14.9794   20.7664 C   0  0  2  0  0  0  0  0  0  0  0  0
    7.7047  -16.2974   20.9406 N   0  0  0  0  0  0  0  0  0  0  0  0
    8.5470  -14.3808   22.0753 C   0  0  0  0  0  0  0  0  0  0  0  0
    8.9295  -13.1836   22.1739 O   0  0  0  0  0  0  0  0  0  0  0  0
    8.4375  -15.1690   23.2421 N   0  0  0  0  0  0  0  0  0  0  0  0
    8.5309  -14.6301   24.6019 C   0  0  1  0  0  0  0  0  0  0  0  0
    7.4008  -13.6448   24.8252 C   0  0  0  0  0  0  0  0  0  0  0  0
    7.3962  -13.0896   26.5349 S   0  0  0  0  0  0  0  0  0  0  0  0
    8.3406  -15.7749   25.5142 C   0  0  0  0  0  0  0  0  0  0  0  0
    7.2651  -16.4637   25.4217 O   0  0  0  0  0  0  0  0  0  0  0  0
    9.2761  -16.1790   26.5011 N   0  0  0  0  0  0  0  0  0  0  0  0
    9.7089  -17.5656   26.5793 C   0  0  1  0  0  0  0  0  0  0  0  0
   10.5073  -17.9709   25.3682 C   0  0  0  0  0  0  0  0  0  0  0  0
   11.9046  -17.4175   25.3523 C   0  0  0  0  0  0  0  0  0  0  0  0
   12.5549  -17.8959   24.1109 C   0  0  0  0  0  0  0  0  0  0  0  0
   13.7174  -17.5069   23.8540 O   0  0  0  0  0  0  0  0  0  0  0  0
   10.5714  -17.7984   27.7628 C   0  0  0  0  0  0  0  0  0  0  0  0
   10.9309  -19.0561   28.2230 O   0  0  0  0  0  0  0  0  0  0  0  0
   11.9255  -18.7532   23.2297 O   0  0  0  0  0  0  0  0  0  0  0  0
   11.0076  -16.8036   28.3931 O   0  0  0  0  0  0  0  0  0  0  0  0
  2  1  1  1
  2  3  1  0
  4  5  1  0
  4  2  1  0
  5  6  1  1
  5  7  1  0
  7  8  2  0
  9  7  1  0
  9 10  1  0
 10 13  1  0
 10 11  1  1
 11 12  1  0
 13 14  2  0
 15 16  1  0
 15 13  1  0
 16 21  1  0
 16 17  1  6
 18 17  1  0
 19 20  2  0
 19 18  1  0
 21 24  2  0
 21 22  1  0
 23 19  1  0
M  END
$$$$
