LCE.pdb
     RDKit          3D

 24 23  0  0  1  0  0  0  0  0999 V2000
    9.6066  -12.1523   19.6350 C   0  0  0  0  0  0  0  0  0  0  0  0
    8.2797  -12.8521   19.4961 C   0  0  2  0  0  0  0  0  0  0  0  0
    7.2559  -12.0022   20.2617 C   0  0  0  0  0  0  0  0  0  0  0  0
    8.2633  -14.2082   20.1190 C   0  0  0  0  0  0  0  0  0  0  0  0
    9.2156  -15.1741   19.4521 C   0  0  2  0  0  0  0  0  0  0  0  0
    8.8871  -15.4430   18.0944 N   0  0  0  0  0  0  0  0  0  0  0  0
    9.3460  -16.4369   20.2092 C   0  0  0  0  0  0  0  0  0  0  0  0
    8.4742  -17.3443   20.1327 O   0  0  0  0  0  0  0  0  0  0  0  0
   10.4736  -16.6306   21.0372 N   0  0  0  0  0  0  0  0  0  0  0  0
   10.7350  -17.8648   21.7832 C   0  0  1  0  0  0  0  0  0  0  0  0
   11.3243  -18.8984   20.8440 C   0  0  0  0  0  0  0  0  0  0  0  0
   12.5132  -18.1222   19.7413 S   0  0  0  0  0  0  0  0  0  0  0  0
   11.7489  -17.5256   22.8012 C   0  0  0  0  0  0  0  0  0  0  0  0
   12.5867  -16.5909   22.5480 O   0  0  0  0  0  0  0  0  0  0  0  0
   11.8662  -18.1656   24.0617 N   0  0  0  0  0  0  0  0  0  0  0  0
   12.8684  -17.7246   25.0193 C   0  0  1  0  0  0  0  0  0  0  0  0
   12.3224  -17.6869   26.4224 C   0  0  0  0  0  0  0  0  0  0  0  0
   12.4006  -19.0067   27.1372 C   0  0  0  0  0  0  0  0  0  0  0  0
   11.8269  -18.8118   28.4884 C   0  0  0  0  0  0  0  0  0  0  0  0
   11.3097  -17.7057   28.7671 O   0  0  0  0  0  0  0  0  0  0  0  0
   14.0395  -18.6340   25.0360 C   0  0  0  0  0  0  0  0  0  0  0  0
   14.0731  -19.8643   24.3970 O   0  0  0  0  0  0  0  0  0  0  0  0
   11.8427  -19.8046   29.4485 O   0  0  0  0  0  0  0  0  0  0  0  0
   15.0674  -18.2782   25.6635 O   0  0  0  0  0  0  0  0  0  0  0  0
  2  1  1  1
  2  3  1  0
  4  5  1  0
  4  2  1  0
  5  6  1  6
  5  7  1  0
  7  8  2  0
  9  7  1  0
  9 10  1  0
 10 13  1  0
 10 11  1  6
 11 12  1  0
 13 14  2  0
 15 16  1  0
 15 13  1  0
 16 21  1  0
 16 17  1  1
 18 17  1  0
 19 20  2  0
 19 18  1  0
 21 24  2  0
 21 22  1  0
 23 19  1  0
M  END
$$$$
