LCE.pdb
     RDKit          3D

 24 23  0  0  1  0  0  0  0  0999 V2000
    5.4376  -12.8752   26.1913 C   0  0  0  0  0  0  0  0  0  0  0  0
    6.6161  -13.4181   26.9568 C   0  0  2  0  0  0  0  0  0  0  0  0
    7.4501  -12.2050   27.3920 C   0  0  0  0  0  0  0  0  0  0  0  0
    7.5098  -14.2777   26.1263 C   0  0  0  0  0  0  0  0  0  0  0  0
    6.8117  -15.5056   25.5879 C   0  0  2  0  0  0  0  0  0  0  0  0
    6.4568  -16.4412   26.5988 N   0  0  0  0  0  0  0  0  0  0  0  0
    7.5967  -16.1694   24.5258 C   0  0  0  0  0  0  0  0  0  0  0  0
    8.3423  -17.1549   24.7755 O   0  0  0  0  0  0  0  0  0  0  0  0
    7.5090  -15.6879   23.2010 N   0  0  0  0  0  0  0  0  0  0  0  0
    8.2879  -16.2290   22.0836 C   0  0  1  0  0  0  0  0  0  0  0  0
    7.7678  -15.6442   20.7854 C   0  0  0  0  0  0  0  0  0  0  0  0
    7.3480  -13.9114   21.0147 S   0  0  0  0  0  0  0  0  0  0  0  0
    9.6749  -15.7645   22.2834 C   0  0  0  0  0  0  0  0  0  0  0  0
    9.8801  -14.7374   23.0200 O   0  0  0  0  0  0  0  0  0  0  0  0
   10.8180  -16.3818   21.7138 N   0  0  0  0  0  0  0  0  0  0  0  0
   12.0602  -16.4642   22.4661 C   0  0  1  0  0  0  0  0  0  0  0  0
   11.9091  -17.3090   23.7038 C   0  0  0  0  0  0  0  0  0  0  0  0
   13.2038  -17.5645   24.4230 C   0  0  0  0  0  0  0  0  0  0  0  0
   12.8966  -18.4126   25.5974 C   0  0  0  0  0  0  0  0  0  0  0  0
   13.2254  -18.0046   26.7350 O   0  0  0  0  0  0  0  0  0  0  0  0
   13.1443  -17.0726   21.6577 C   0  0  0  0  0  0  0  0  0  0  0  0
   14.4583  -16.6297   21.6671 O   0  0  0  0  0  0  0  0  0  0  0  0
   12.2623  -19.6341   25.4816 O   0  0  0  0  0  0  0  0  0  0  0  0
   12.8662  -18.0477   20.9169 O   0  0  0  0  0  0  0  0  0  0  0  0
  2  1  1  6
  2  3  1  0
  4  5  1  0
  4  2  1  0
  5  6  1  1
  5  7  1  0
  7  8  2  0
  9  7  1  0
  9 10  1  0
 10 13  1  0
 10 11  1  6
 11 12  1  0
 13 14  2  0
 15 16  1  0
 15 13  1  0
 16 21  1  0
 16 17  1  1
 18 17  1  0
 19 20  2  0
 19 18  1  0
 21 24  2  0
 21 22  1  0
 23 19  1  0
M  END
$$$$
