ERH.pdb
     RDKit          3D

 31 31  0  0  1  0  0  0  0  0999 V2000
   36.3802  -31.5239  -20.4540 N   0  0  0  0  0  0  0  0  0  0  0  0
   34.9996  -31.1973  -20.7062 C   0  0  1  0  0  0  0  0  0  0  0  0
   34.0689  -32.3612  -20.7757 C   0  0  0  0  0  0  0  0  0  0  0  0
   34.1148  -33.3037  -19.6297 C   0  0  0  0  0  0  0  0  0  0  0  0
   32.9035  -33.4605  -18.8359 C   0  0  0  0  0  0  0  0  0  0  0  0
   31.8186  -33.5931  -19.5164 O   0  0  0  0  0  0  0  0  0  0  0  0
   34.5794  -30.1820  -19.7140 C   0  0  0  0  0  0  0  0  0  0  0  0
   35.4316  -29.5157  -19.0795 O   0  0  0  0  0  0  0  0  0  0  0  0
   32.7766  -33.4817  -17.4716 O   0  0  0  0  0  0  0  0  0  0  0  0
   34.2187  -23.5095  -17.1447 N   0  0  0  0  0  0  0  0  0  0  0  0
   35.4998  -23.8637  -17.6464 C   0  0  0  0  0  0  0  0  0  0  0  0
   36.5797  -23.4141  -17.1245 N   0  0  0  0  0  0  0  0  0  0  0  0
   35.6294  -24.7471  -18.7672 N   0  0  0  0  0  0  0  0  0  0  0  0
   34.4363  -25.3140  -19.3522 C   0  0  0  0  0  0  0  0  0  0  0  0
   34.1022  -26.5943  -18.6372 C   0  0  0  0  0  0  0  0  0  0  0  0
   33.2364  -27.5059  -19.4873 C   0  0  0  0  0  0  0  0  0  0  0  0
   32.7999  -28.7335  -18.6782 C   0  0  2  0  0  0  0  0  0  0  0  0
   33.2015  -29.8928  -19.4130 N   0  0  0  0  0  0  0  0  0  0  0  0
   31.3521  -28.5984  -18.4845 C   0  0  0  0  0  0  0  0  0  0  0  0
   30.6320  -28.6333  -19.5112 O   0  0  0  0  0  0  0  0  0  0  0  0
   37.5291  -23.6617  -17.4333 N   0  0  0  0  0  0  0  0  0  0  0  0
   30.7177  -28.4303  -17.1988 C   0  0  2  0  0  0  0  0  0  0  0  0
   29.5448  -27.5990  -17.0987 C   0  0  0  0  0  0  0  0  0  0  0  0
   29.8215  -26.1571  -17.2558 C   0  0  0  0  0  0  0  0  0  0  0  0
   30.7879  -25.5274  -16.3863 C   0  0  0  0  0  0  0  0  0  0  0  0
   31.5942  -26.0068  -15.3985 N   0  0  0  0  0  0  0  0  0  0  0  0
   32.3655  -25.0064  -14.8745 C   0  0  0  0  0  0  0  0  0  0  0  0
   32.0119  -23.9133  -15.5630 N   0  0  0  0  0  0  0  0  0  0  0  0
   31.0735  -24.1889  -16.4725 C   0  0  0  0  0  0  0  0  0  0  0  0
   28.4324  -28.0930  -17.9422 O   0  0  0  0  0  0  0  0  0  0  0  0
   27.2414  -27.4391  -17.9334 O   0  0  0  0  0  0  0  0  0  0  0  0
  2  1  1  1
  3  2  1  0
  3  4  1  0
  4  5  1  0
  5  9  1  0
  6  5  2  0
  7  2  1  0
  8  7  2  0
 10 11  1  0
 11 12  2  0
 13 14  1  0
 13 11  1  0
 14 15  1  0
 16 15  1  0
 17 16  1  6
 17 18  1  0
 18  7  1  0
 19 21  1  0
 19 17  1  0
 20 19  2  0
 22 21  1  0
 22 29  1  0
 22 23  1  1
 23 24  1  0
 24 28  1  0
 24 25  2  0
 25 26  1  0
 27 26  1  0
 28 27  2  0
 29 30  1  0
 31 29  2  0
M  END
$$$$
