ERH.pdb
     RDKit          3D

 31 31  0  0  1  0  0  0  0  0999 V2000
   25.8882  -12.7174  -19.9747 N   0  0  0  0  0  0  0  0  0  0  0  0
   25.0483  -11.6516  -20.4594 C   0  0  1  0  0  0  0  0  0  0  0  0
   24.2415  -11.9736  -21.6724 C   0  0  0  0  0  0  0  0  0  0  0  0
   23.8162  -13.3884  -21.8174 C   0  0  0  0  0  0  0  0  0  0  0  0
   22.3929  -13.6519  -21.9807 C   0  0  0  0  0  0  0  0  0  0  0  0
   21.8630  -14.3777  -21.0588 O   0  0  0  0  0  0  0  0  0  0  0  0
   24.2223  -11.1680  -19.3299 C   0  0  0  0  0  0  0  0  0  0  0  0
   23.8855  -11.9446  -18.4046 O   0  0  0  0  0  0  0  0  0  0  0  0
   21.5587  -13.2304  -22.9830 O   0  0  0  0  0  0  0  0  0  0  0  0
   20.4427   -6.7423  -15.4088 N   0  0  0  0  0  0  0  0  0  0  0  0
   21.1883   -5.6491  -14.8917 C   0  0  0  0  0  0  0  0  0  0  0  0
   20.8155   -5.0087  -13.8469 N   0  0  0  0  0  0  0  0  0  0  0  0
   22.3979   -5.2202  -15.5289 N   0  0  0  0  0  0  0  0  0  0  0  0
   22.7043   -5.7137  -16.8518 C   0  0  0  0  0  0  0  0  0  0  0  0
   22.8271   -7.2117  -16.7982 C   0  0  0  0  0  0  0  0  0  0  0  0
   22.9324   -7.8190  -18.1850 C   0  0  0  0  0  0  0  0  0  0  0  0
   22.9978   -9.3486  -18.0937 C   0  0  2  0  0  0  0  0  0  0  0  0
   23.7583   -9.8101  -19.2135 N   0  0  0  0  0  0  0  0  0  0  0  0
   21.6069   -9.8133  -18.0607 C   0  0  0  0  0  0  0  0  0  0  0  0
   21.1874  -10.4349  -19.0664 O   0  0  0  0  0  0  0  0  0  0  0  0
   21.3585   -4.2651  -13.3884 N   0  0  0  0  0  0  0  0  0  0  0  0
   20.7063   -9.5997  -16.9529 C   0  0  2  0  0  0  0  0  0  0  0  0
   19.7840  -10.6450  -16.5873 C   0  0  0  0  0  0  0  0  0  0  0  0
   20.4334  -11.9410  -16.3063 C   0  0  0  0  0  0  0  0  0  0  0  0
   20.0258  -13.1086  -17.0525 C   0  0  0  0  0  0  0  0  0  0  0  0
   19.1098  -13.3006  -18.0423 N   0  0  0  0  0  0  0  0  0  0  0  0
   19.1066  -14.6050  -18.4532 C   0  0  0  0  0  0  0  0  0  0  0  0
   20.0374  -15.1988  -17.6948 N   0  0  0  0  0  0  0  0  0  0  0  0
   20.6049  -14.3349  -16.8491 C   0  0  0  0  0  0  0  0  0  0  0  0
   18.8296  -10.2116  -15.5412 O   0  0  0  0  0  0  0  0  0  0  0  0
   19.2745   -9.4748  -14.4899 O   0  0  0  0  0  0  0  0  0  0  0  0
  2  1  1  1
  3  2  1  0
  3  4  1  0
  4  5  1  0
  5  9  1  0
  6  5  2  0
  7  2  1  0
  8  7  2  0
 10 11  1  0
 11 12  2  0
 13 14  1  0
 13 11  1  0
 14 15  1  0
 16 15  1  0
 17 16  1  6
 17 18  1  0
 18  7  1  0
 19 21  1  0
 19 17  1  0
 20 19  2  0
 22 21  1  0
 22 29  1  0
 22 23  1  6
 23 24  1  0
 24 28  1  0
 24 25  2  0
 25 26  1  0
 27 26  1  0
 28 27  2  0
 29 30  1  0
 31 29  2  0
M  END
$$$$
