ERH.pdb
     RDKit          3D

 31 31  0  0  1  0  0  0  0  0999 V2000
   20.0723   -7.5599  -14.2107 N   0  0  0  0  0  0  0  0  0  0  0  0
   20.0186   -7.3187  -15.6303 C   0  0  1  0  0  0  0  0  0  0  0  0
   20.1217   -5.8880  -16.0407 C   0  0  0  0  0  0  0  0  0  0  0  0
   19.0228   -4.9981  -15.5892 C   0  0  0  0  0  0  0  0  0  0  0  0
   19.1373   -3.5776  -15.8913 C   0  0  0  0  0  0  0  0  0  0  0  0
   20.2534   -3.2216  -16.4253 O   0  0  0  0  0  0  0  0  0  0  0  0
   21.0325   -8.1792  -16.2810 C   0  0  0  0  0  0  0  0  0  0  0  0
   22.1718   -8.3202  -15.7760 O   0  0  0  0  0  0  0  0  0  0  0  0
   18.2168   -2.5850  -15.6779 O   0  0  0  0  0  0  0  0  0  0  0  0
   20.5982  -15.4868  -21.2903 N   0  0  0  0  0  0  0  0  0  0  0  0
   21.9735  -15.1391  -21.2120 C   0  0  0  0  0  0  0  0  0  0  0  0
   22.8910  -15.8918  -21.6938 N   0  0  0  0  0  0  0  0  0  0  0  0
   22.3863  -13.9192  -20.5837 N   0  0  0  0  0  0  0  0  0  0  0  0
   21.3811  -13.0480  -20.0200 C   0  0  0  0  0  0  0  0  0  0  0  0
   22.0583  -11.8548  -19.4038 C   0  0  0  0  0  0  0  0  0  0  0  0
   21.0576  -10.8917  -18.7920 C   0  0  0  0  0  0  0  0  0  0  0  0
   21.7861   -9.7184  -18.1251 C   0  0  2  0  0  0  0  0  0  0  0  0
   20.7927   -8.8969  -17.5058 N   0  0  0  0  0  0  0  0  0  0  0  0
   22.5540   -9.0603  -19.1877 C   0  0  0  0  0  0  0  0  0  0  0  0
   21.9437   -8.2319  -19.9053 O   0  0  0  0  0  0  0  0  0  0  0  0
   23.9003  -15.7066  -21.6234 N   0  0  0  0  0  0  0  0  0  0  0  0
   23.9517   -9.3075  -19.4506 C   0  0  1  0  0  0  0  0  0  0  0  0
   24.6182   -8.5443  -20.4755 C   0  0  0  0  0  0  0  0  0  0  0  0
   24.4909   -7.0829  -20.3076 C   0  0  0  0  0  0  0  0  0  0  0  0
   25.2307   -6.2068  -21.1860 C   0  0  0  0  0  0  0  0  0  0  0  0
   25.9207   -6.4220  -22.3407 N   0  0  0  0  0  0  0  0  0  0  0  0
   26.4368   -5.2506  -22.8221 C   0  0  0  0  0  0  0  0  0  0  0  0
   26.0465   -4.3227  -21.9385 N   0  0  0  0  0  0  0  0  0  0  0  0
   25.3254   -4.8591  -20.9506 C   0  0  0  0  0  0  0  0  0  0  0  0
   26.0070   -9.0044  -20.7048 O   0  0  0  0  0  0  0  0  0  0  0  0
   26.7859   -8.3614  -21.6138 O   0  0  0  0  0  0  0  0  0  0  0  0
  2  1  1  1
  3  2  1  0
  3  4  1  0
  4  5  1  0
  5  9  1  0
  6  5  2  0
  7  2  1  0
  8  7  2  0
 10 11  1  0
 11 12  2  0
 13 14  1  0
 13 11  1  0
 14 15  1  0
 16 15  1  0
 17 16  1  6
 17 18  1  0
 18  7  1  0
 19 21  1  0
 19 17  1  0
 20 19  2  0
 22 21  1  0
 22 29  1  0
 22 23  1  1
 23 24  1  0
 24 28  1  0
 24 25  2  0
 25 26  1  0
 27 26  1  0
 28 27  2  0
 29 30  1  0
 31 29  2  0
M  END
$$$$
