ERH.pdb
     RDKit          3D

 31 31  0  0  1  0  0  0  0  0999 V2000
   27.7523  -22.3968  -16.5613 N   0  0  0  0  0  0  0  0  0  0  0  0
   27.7533  -21.3425  -15.5790 C   0  0  1  0  0  0  0  0  0  0  0  0
   27.7616  -19.9556  -16.1287 C   0  0  0  0  0  0  0  0  0  0  0  0
   27.0640  -19.7624  -17.4248 C   0  0  0  0  0  0  0  0  0  0  0  0
   27.0369  -18.4170  -17.9827 C   0  0  0  0  0  0  0  0  0  0  0  0
   28.1692  -17.9827  -18.4151 O   0  0  0  0  0  0  0  0  0  0  0  0
   26.6312  -21.5849  -14.6441 C   0  0  0  0  0  0  0  0  0  0  0  0
   25.6236  -22.2367  -15.0086 O   0  0  0  0  0  0  0  0  0  0  0  0
   25.9695  -17.5657  -18.1005 O   0  0  0  0  0  0  0  0  0  0  0  0
   22.3467  -22.2126   -7.6816 N   0  0  0  0  0  0  0  0  0  0  0  0
   22.0095  -21.1341   -8.5428 C   0  0  0  0  0  0  0  0  0  0  0  0
   20.8444  -21.0213   -9.0629 N   0  0  0  0  0  0  0  0  0  0  0  0
   22.9731  -20.1230   -8.8629 N   0  0  0  0  0  0  0  0  0  0  0  0
   23.6582  -20.1873  -10.1332 C   0  0  0  0  0  0  0  0  0  0  0  0
   24.8224  -21.1319  -10.0134 C   0  0  0  0  0  0  0  0  0  0  0  0
   25.9109  -20.8167  -11.0228 C   0  0  0  0  0  0  0  0  0  0  0  0
   25.4851  -21.2696  -12.4249 C   0  0  2  0  0  0  0  0  0  0  0  0
   26.6142  -21.1046  -13.2870 N   0  0  0  0  0  0  0  0  0  0  0  0
   24.3172  -20.4551  -12.7776 C   0  0  0  0  0  0  0  0  0  0  0  0
   24.5240  -19.2502  -13.0591 O   0  0  0  0  0  0  0  0  0  0  0  0
   20.5731  -20.3023   -9.7465 N   0  0  0  0  0  0  0  0  0  0  0  0
   22.9631  -20.9537  -12.8192 C   0  0  2  0  0  0  0  0  0  0  0  0
   22.0266  -20.3639  -13.7422 C   0  0  0  0  0  0  0  0  0  0  0  0
   22.5362  -20.2621  -15.1243 C   0  0  0  0  0  0  0  0  0  0  0  0
   21.7236  -19.6149  -16.1279 C   0  0  0  0  0  0  0  0  0  0  0  0
   21.1370  -18.3871  -16.1925 N   0  0  0  0  0  0  0  0  0  0  0  0
   20.4799  -18.2262  -17.3810 C   0  0  0  0  0  0  0  0  0  0  0  0
   20.6796  -19.3781  -18.0346 N   0  0  0  0  0  0  0  0  0  0  0  0
   21.4175  -20.2281  -17.3157 C   0  0  0  0  0  0  0  0  0  0  0  0
   20.6799  -20.9717  -13.6414 O   0  0  0  0  0  0  0  0  0  0  0  0
   20.4560  -21.9620  -12.7384 O   0  0  0  0  0  0  0  0  0  0  0  0
  2  1  1  6
  3  2  1  0
  3  4  1  0
  4  5  1  0
  5  9  1  0
  6  5  2  0
  7  2  1  0
  8  7  2  0
 10 11  1  0
 11 12  2  0
 13 14  1  0
 13 11  1  0
 14 15  1  0
 16 15  1  0
 17 16  1  1
 17 18  1  0
 18  7  1  0
 19 21  1  0
 19 17  1  0
 20 19  2  0
 22 21  1  0
 22 29  1  0
 22 23  1  6
 23 24  1  0
 24 28  1  0
 24 25  2  0
 25 26  1  0
 27 26  1  0
 28 27  2  0
 29 30  1  0
 31 29  2  0
M  END
$$$$
