ERH.pdb
     RDKit          3D

 31 31  0  0  1  0  0  0  0  0999 V2000
   26.3487  -15.6800  -20.1853 N   0  0  0  0  0  0  0  0  0  0  0  0
   26.2003  -15.5780  -18.7557 C   0  0  1  0  0  0  0  0  0  0  0  0
   25.5731  -14.3160  -18.2658 C   0  0  0  0  0  0  0  0  0  0  0  0
   24.3094  -13.9130  -18.9323 C   0  0  0  0  0  0  0  0  0  0  0  0
   23.0646  -14.1336  -18.2086 C   0  0  0  0  0  0  0  0  0  0  0  0
   23.0606  -13.7173  -16.9903 O   0  0  0  0  0  0  0  0  0  0  0  0
   25.5001  -16.7922  -18.2789 C   0  0  0  0  0  0  0  0  0  0  0  0
   24.4901  -17.2270  -18.8819 O   0  0  0  0  0  0  0  0  0  0  0  0
   21.9122  -14.7241  -18.6573 O   0  0  0  0  0  0  0  0  0  0  0  0
   24.7418  -23.9143  -14.5095 N   0  0  0  0  0  0  0  0  0  0  0  0
   25.8363  -24.0023  -15.4110 C   0  0  0  0  0  0  0  0  0  0  0  0
   26.0144  -25.0241  -16.1627 N   0  0  0  0  0  0  0  0  0  0  0  0
   26.7903  -22.9379  -15.5116 N   0  0  0  0  0  0  0  0  0  0  0  0
   26.5909  -21.7434  -14.7237 C   0  0  0  0  0  0  0  0  0  0  0  0
   25.6013  -20.8545  -15.4256 C   0  0  0  0  0  0  0  0  0  0  0  0
   26.2263  -19.5376  -15.8477 C   0  0  0  0  0  0  0  0  0  0  0  0
   25.2323  -18.7184  -16.6803 C   0  0  2  0  0  0  0  0  0  0  0  0
   25.9148  -17.5417  -17.1217 N   0  0  0  0  0  0  0  0  0  0  0  0
   24.0793  -18.4706  -15.8080 C   0  0  0  0  0  0  0  0  0  0  0  0
   24.1761  -17.5280  -14.9859 O   0  0  0  0  0  0  0  0  0  0  0  0
   26.7773  -25.1259  -16.8450 N   0  0  0  0  0  0  0  0  0  0  0  0
   22.8570  -19.2379  -15.8414 C   0  0  2  0  0  0  0  0  0  0  0  0
   21.7412  -18.8151  -15.0332 C   0  0  0  0  0  0  0  0  0  0  0  0
   21.4150  -17.3816  -15.1712 C   0  0  0  0  0  0  0  0  0  0  0  0
   20.2995  -16.8396  -14.4307 C   0  0  0  0  0  0  0  0  0  0  0  0
   19.6866  -17.2161  -13.2739 N   0  0  0  0  0  0  0  0  0  0  0  0
   18.6725  -16.3539  -12.9601 C   0  0  0  0  0  0  0  0  0  0  0  0
   18.6830  -15.4487  -13.9473 N   0  0  0  0  0  0  0  0  0  0  0  0
   19.6411  -15.7087  -14.8407 C   0  0  0  0  0  0  0  0  0  0  0  0
   20.5727  -19.7138  -15.1745 O   0  0  0  0  0  0  0  0  0  0  0  0
   19.4342  -19.4490  -14.4817 O   0  0  0  0  0  0  0  0  0  0  0  0
  2  1  1  6
  3  2  1  0
  3  4  1  0
  4  5  1  0
  5  9  1  0
  6  5  2  0
  7  2  1  0
  8  7  2  0
 10 11  1  0
 11 12  2  0
 13 14  1  0
 13 11  1  0
 14 15  1  0
 16 15  1  0
 17 16  1  1
 17 18  1  0
 18  7  1  0
 19 21  1  0
 19 17  1  0
 20 19  2  0
 22 21  1  0
 22 29  1  0
 22 23  1  6
 23 24  1  0
 24 28  1  0
 24 25  2  0
 25 26  1  0
 27 26  1  0
 28 27  2  0
 29 30  1  0
 31 29  2  0
M  END
$$$$
