ERH.pdb
     RDKit          3D

 31 31  0  0  1  0  0  0  0  0999 V2000
   29.2620  -23.6792  -17.0609 N   0  0  0  0  0  0  0  0  0  0  0  0
   29.1489  -22.4240  -16.3623 C   0  0  1  0  0  0  0  0  0  0  0  0
   29.3352  -21.2050  -17.2021 C   0  0  0  0  0  0  0  0  0  0  0  0
   28.5664  -21.1622  -18.4712 C   0  0  0  0  0  0  0  0  0  0  0  0
   28.7174  -19.9825  -19.3123 C   0  0  0  0  0  0  0  0  0  0  0  0
   29.2715  -20.1943  -20.4549 O   0  0  0  0  0  0  0  0  0  0  0  0
   27.8660  -22.4239  -15.6233 C   0  0  0  0  0  0  0  0  0  0  0  0
   26.8970  -23.1125  -16.0228 O   0  0  0  0  0  0  0  0  0  0  0  0
   28.3495  -18.6907  -19.0405 O   0  0  0  0  0  0  0  0  0  0  0  0
   21.5414  -19.5131  -11.5147 N   0  0  0  0  0  0  0  0  0  0  0  0
   22.1288  -20.7941  -11.3353 C   0  0  0  0  0  0  0  0  0  0  0  0
   21.5825  -21.8596  -11.7903 N   0  0  0  0  0  0  0  0  0  0  0  0
   23.3680  -20.9400  -10.6307 N   0  0  0  0  0  0  0  0  0  0  0  0
   24.5677  -20.3721  -11.2011 C   0  0  0  0  0  0  0  0  0  0  0  0
   25.6103  -21.4497  -11.3189 C   0  0  0  0  0  0  0  0  0  0  0  0
   26.6968  -21.0773  -12.3109 C   0  0  0  0  0  0  0  0  0  0  0  0
   26.4356  -21.7488  -13.6648 C   0  0  2  0  0  0  0  0  0  0  0  0
   27.6425  -21.6558  -14.4263 N   0  0  0  0  0  0  0  0  0  0  0  0
   25.2843  -21.0518  -14.2483 C   0  0  0  0  0  0  0  0  0  0  0  0
   25.4928  -19.9183  -14.7437 O   0  0  0  0  0  0  0  0  0  0  0  0
   21.9575  -22.8098  -11.6698 N   0  0  0  0  0  0  0  0  0  0  0  0
   23.9446  -21.5882  -14.2850 C   0  0  1  0  0  0  0  0  0  0  0  0
   22.9756  -20.9947  -15.1715 C   0  0  0  0  0  0  0  0  0  0  0  0
   23.4035  -20.9598  -16.5843 C   0  0  0  0  0  0  0  0  0  0  0  0
   23.8436  -19.7082  -17.1553 C   0  0  0  0  0  0  0  0  0  0  0  0
   24.9256  -19.3645  -17.9082 N   0  0  0  0  0  0  0  0  0  0  0  0
   24.8877  -18.0367  -18.2331 C   0  0  0  0  0  0  0  0  0  0  0  0
   23.7634  -17.5830  -17.6640 N   0  0  0  0  0  0  0  0  0  0  0  0
   23.1168  -18.5539  -17.0137 C   0  0  0  0  0  0  0  0  0  0  0  0
   21.6164  -21.5464  -14.9685 O   0  0  0  0  0  0  0  0  0  0  0  0
   20.5758  -21.0496  -15.6872 O   0  0  0  0  0  0  0  0  0  0  0  0
  2  1  1  6
  3  2  1  0
  3  4  1  0
  4  5  1  0
  5  9  1  0
  6  5  2  0
  7  2  1  0
  8  7  2  0
 10 11  1  0
 11 12  2  0
 13 14  1  0
 13 11  1  0
 14 15  1  0
 16 15  1  0
 17 16  1  1
 17 18  1  0
 18  7  1  0
 19 21  1  0
 19 17  1  0
 20 19  2  0
 22 21  1  0
 22 29  1  0
 22 23  1  6
 23 24  1  0
 24 28  1  0
 24 25  2  0
 25 26  1  0
 27 26  1  0
 28 27  2  0
 29 30  1  0
 31 29  2  0
M  END
$$$$
