QCR.pdb
     RDKit          3D

 27 26  0  0  1  0  0  0  0  0999 V2000
   21.7315  -16.9136  -17.7886 N   0  0  0  0  0  0  0  0  0  0  0  0
   22.8139  -16.8346  -18.7192 C   0  0  0  0  0  0  0  0  0  0  0  0
   23.3052  -17.8829  -19.2118 O   0  0  0  0  0  0  0  0  0  0  0  0
   23.3348  -15.4923  -19.0825 C   0  0  0  0  0  0  0  0  0  0  0  0
   22.5186  -14.4294  -18.4048 C   0  0  0  0  0  0  0  0  0  0  0  0
   22.9803  -13.0405  -18.6891 C   0  0  2  0  0  0  0  0  0  0  0  0
   24.2790  -12.9312  -19.2567 N   0  0  0  0  0  0  0  0  0  0  0  0
   22.7988  -12.1831  -17.4790 C   0  0  0  0  0  0  0  0  0  0  0  0
   21.8219  -12.3670  -16.7071 O   0  0  0  0  0  0  0  0  0  0  0  0
   23.7644  -11.1728  -17.2499 N   0  0  0  0  0  0  0  0  0  0  0  0
   23.6697  -10.2933  -16.1107 C   0  0  1  0  0  0  0  0  0  0  0  0
   25.0195   -9.6253  -15.8221 C   0  0  0  0  0  0  0  0  0  0  0  0
   26.1451  -10.8002  -15.0520 S   0  0  0  0  0  0  0  0  0  0  0  0
   22.7149   -9.1868  -16.4272 C   0  0  0  0  0  0  0  0  0  0  0  0
   22.7895   -8.5738  -17.5284 O   0  0  0  0  0  0  0  0  0  0  0  0
   14.1219   -8.9561  -14.2096 N   0  0  0  0  0  0  0  0  0  0  0  0
   14.3667   -7.8114  -15.0218 C   0  0  0  0  0  0  0  0  0  0  0  0
   13.3974   -7.0388  -15.3792 N   0  0  0  0  0  0  0  0  0  0  0  0
   15.6731   -7.4788  -15.4658 N   0  0  0  0  0  0  0  0  0  0  0  0
   16.8434   -8.3295  -15.0829 C   0  0  0  0  0  0  0  0  0  0  0  0
   18.0920   -7.7053  -15.5695 C   0  0  0  0  0  0  0  0  0  0  0  0
   19.3899   -8.3284  -15.4346 C   0  0  0  0  0  0  0  0  0  0  0  0
   20.6707   -7.7638  -15.9123 C   0  0  2  0  0  0  0  0  0  0  0  0
   21.7184   -8.7966  -15.5264 N   0  0  0  0  0  0  0  0  0  0  0  0
   21.1421   -6.4908  -15.3781 C   0  0  0  0  0  0  0  0  0  0  0  0
   21.8101   -6.3397  -14.1887 O   0  0  0  0  0  0  0  0  0  0  0  0
   20.9441   -5.3842  -16.0140 O   0  0  0  0  0  0  0  0  0  0  0  0
  2  1  1  0
  2  3  2  0
  4  2  1  0
  5  4  1  0
  5  6  1  0
  6  8  1  0
  6  7  1  1
  8  9  2  0
 10 11  1  0
 10  8  1  0
 11 12  1  6
 12 13  1  0
 14 11  1  0
 15 14  2  0
 16 17  1  0
 17 19  1  0
 18 17  2  0
 20 19  1  0
 21 22  1  0
 21 20  1  0
 23 24  1  0
 23 22  1  1
 24 14  1  0
 25 23  1  0
 26 25  1  0
 27 25  2  0
M  END
$$$$
