QCR.pdb
     RDKit          3D

 27 26  0  0  1  0  0  0  0  0999 V2000
   28.7667   -9.5770  -16.1197 N   0  0  0  0  0  0  0  0  0  0  0  0
   28.4686  -10.8205  -16.7590 C   0  0  0  0  0  0  0  0  0  0  0  0
   29.3564  -11.4272  -17.4123 O   0  0  0  0  0  0  0  0  0  0  0  0
   27.0944  -11.3680  -16.6297 C   0  0  0  0  0  0  0  0  0  0  0  0
   26.2563  -10.4462  -15.7913 C   0  0  0  0  0  0  0  0  0  0  0  0
   24.9158  -10.1515  -16.3737 C   0  0  2  0  0  0  0  0  0  0  0  0
   24.9196   -9.7017  -17.7222 N   0  0  0  0  0  0  0  0  0  0  0  0
   24.1479   -9.2514  -15.4611 C   0  0  0  0  0  0  0  0  0  0  0  0
   23.9798   -9.5606  -14.2526 O   0  0  0  0  0  0  0  0  0  0  0  0
   23.6295   -8.0558  -16.0154 N   0  0  0  0  0  0  0  0  0  0  0  0
   22.8378   -7.1469  -15.2234 C   0  0  1  0  0  0  0  0  0  0  0  0
   23.2849   -5.6969  -15.4451 C   0  0  0  0  0  0  0  0  0  0  0  0
   22.3272   -4.5827  -14.4049 S   0  0  0  0  0  0  0  0  0  0  0  0
   21.4144   -7.2193  -15.6757 C   0  0  0  0  0  0  0  0  0  0  0  0
   21.1299   -7.1521  -16.9040 O   0  0  0  0  0  0  0  0  0  0  0  0
   15.1425  -13.0277  -14.3381 N   0  0  0  0  0  0  0  0  0  0  0  0
   14.5961  -12.0342  -15.2009 C   0  0  0  0  0  0  0  0  0  0  0  0
   13.4479  -12.2096  -15.7621 N   0  0  0  0  0  0  0  0  0  0  0  0
   15.2861  -10.8245  -15.4748 N   0  0  0  0  0  0  0  0  0  0  0  0
   16.6451  -10.5796  -14.8979 C   0  0  0  0  0  0  0  0  0  0  0  0
   17.0909   -9.2121  -15.2389 C   0  0  0  0  0  0  0  0  0  0  0  0
   18.4132   -8.7138  -14.9317 C   0  0  0  0  0  0  0  0  0  0  0  0
   18.9135   -7.3549  -15.2327 C   0  0  2  0  0  0  0  0  0  0  0  0
   20.3612   -7.3619  -14.7662 N   0  0  0  0  0  0  0  0  0  0  0  0
   18.2898   -6.1992  -14.5975 C   0  0  0  0  0  0  0  0  0  0  0  0
   16.9881   -5.8081  -14.7882 O   0  0  0  0  0  0  0  0  0  0  0  0
   18.9542   -5.4393  -13.7916 O   0  0  0  0  0  0  0  0  0  0  0  0
  2  1  1  0
  2  3  2  0
  4  2  1  0
  5  4  1  0
  5  6  1  0
  6  8  1  0
  6  7  1  6
  8  9  2  0
 10 11  1  0
 10  8  1  0
 11 12  1  6
 12 13  1  0
 14 11  1  0
 15 14  2  0
 16 17  1  0
 17 19  1  0
 18 17  2  0
 20 19  1  0
 21 22  1  0
 21 20  1  0
 23 24  1  0
 23 22  1  1
 24 14  1  0
 25 23  1  0
 26 25  1  0
 27 25  2  0
M  END
$$$$
