QCR.pdb
     RDKit          3D

 27 26  0  0  1  0  0  0  0  0999 V2000
   18.9766  -24.3101   -7.1149 N   0  0  0  0  0  0  0  0  0  0  0  0
   18.9511  -25.4419   -7.9880 C   0  0  0  0  0  0  0  0  0  0  0  0
   18.8044  -26.6009   -7.5208 O   0  0  0  0  0  0  0  0  0  0  0  0
   19.1015  -25.2103   -9.4470 C   0  0  0  0  0  0  0  0  0  0  0  0
   19.3393  -23.7507   -9.7086 C   0  0  0  0  0  0  0  0  0  0  0  0
   18.2498  -23.0908  -10.4836 C   0  0  2  0  0  0  0  0  0  0  0  0
   17.2641  -23.9640  -11.0191 N   0  0  0  0  0  0  0  0  0  0  0  0
   18.8339  -22.1730  -11.5077 C   0  0  0  0  0  0  0  0  0  0  0  0
   18.7600  -22.4535  -12.7325 O   0  0  0  0  0  0  0  0  0  0  0  0
   19.4624  -20.9940  -11.0381 N   0  0  0  0  0  0  0  0  0  0  0  0
   19.7887  -19.9130  -11.9355 C   0  0  1  0  0  0  0  0  0  0  0  0
   20.0590  -18.6195  -11.1576 C   0  0  0  0  0  0  0  0  0  0  0  0
   21.0075  -18.9731   -9.6691 S   0  0  0  0  0  0  0  0  0  0  0  0
   21.0584  -20.2421  -12.6536 C   0  0  0  0  0  0  0  0  0  0  0  0
   21.8652  -21.0850  -12.1714 O   0  0  0  0  0  0  0  0  0  0  0  0
   26.6409  -24.2734  -16.8270 N   0  0  0  0  0  0  0  0  0  0  0  0
   25.7623  -24.9897  -15.9638 C   0  0  0  0  0  0  0  0  0  0  0  0
   25.8269  -26.2753  -15.8789 N   0  0  0  0  0  0  0  0  0  0  0  0
   24.7907  -24.3246  -15.1714 N   0  0  0  0  0  0  0  0  0  0  0  0
   24.7752  -22.8305  -15.0868 C   0  0  0  0  0  0  0  0  0  0  0  0
   23.5774  -22.3871  -14.3426 C   0  0  0  0  0  0  0  0  0  0  0  0
   22.6565  -21.3941  -14.8495 C   0  0  0  0  0  0  0  0  0  0  0  0
   22.7101  -19.9438  -14.5645 C   0  0  2  0  0  0  0  0  0  0  0  0
   21.3931  -19.6357  -13.8689 N   0  0  0  0  0  0  0  0  0  0  0  0
   22.8162  -18.9950  -15.6676 C   0  0  0  0  0  0  0  0  0  0  0  0
   21.7712  -18.2649  -16.1760 O   0  0  0  0  0  0  0  0  0  0  0  0
   23.9435  -18.7828  -16.2611 O   0  0  0  0  0  0  0  0  0  0  0  0
  2  1  1  0
  2  3  2  0
  4  2  1  0
  5  4  1  0
  5  6  1  0
  6  8  1  0
  6  7  1  6
  8  9  2  0
 10 11  1  0
 10  8  1  0
 11 12  1  1
 12 13  1  0
 14 11  1  0
 15 14  2  0
 16 17  1  0
 17 19  1  0
 18 17  2  0
 20 19  1  0
 21 22  1  0
 21 20  1  0
 23 24  1  0
 23 22  1  6
 24 14  1  0
 25 23  1  0
 26 25  1  0
 27 25  2  0
M  END
$$$$
