FEV.pdb
     RDKit          3D

 28 28  0  0  1  0  0  0  0  0999 V2000
    5.8133  -17.0266   24.5522 N   0  0  0  0  0  0  0  0  0  0  0  0
    6.7604  -16.5638   23.5605 C   0  0  1  0  0  0  0  0  0  0  0  0
    6.4296  -15.1113   23.2843 C   0  0  0  0  0  0  0  0  0  0  0  0
    6.5904  -14.2844   24.5077 C   0  0  0  0  0  0  0  0  0  0  0  0
    7.6371  -13.3891   24.6111 C   0  0  0  0  0  0  0  0  0  0  0  0
    7.8344  -12.5989   25.7190 C   0  0  0  0  0  0  0  0  0  0  0  0
    6.9691  -12.6890   26.7724 C   0  0  0  0  0  0  0  0  0  0  0  0
    5.9022  -13.5736   26.7161 C   0  0  0  0  0  0  0  0  0  0  0  0
    5.7261  -14.3623   25.5810 C   0  0  0  0  0  0  0  0  0  0  0  0
    8.1233  -16.7395   24.0826 C   0  0  0  0  0  0  0  0  0  0  0  0
    8.2733  -17.2966   25.1985 O   0  0  0  0  0  0  0  0  0  0  0  0
    9.2875  -16.3029   23.3739 N   0  0  0  0  0  0  0  0  0  0  0  0
   10.5783  -16.6717   23.8481 C   0  0  1  0  0  0  0  0  0  0  0  0
   11.6399  -16.5778   22.7498 C   0  0  0  0  0  0  0  0  0  0  0  0
   12.9836  -17.0083   23.2475 C   0  0  0  0  0  0  0  0  0  0  0  0
   13.9547  -16.9302   22.1287 C   0  0  0  0  0  0  0  0  0  0  0  0
   13.7168  -17.4800   21.0235 O   0  0  0  0  0  0  0  0  0  0  0  0
   10.9906  -15.8941   25.0535 C   0  0  0  0  0  0  0  0  0  0  0  0
   11.3869  -14.7156   24.9892 O   0  0  0  0  0  0  0  0  0  0  0  0
   15.1694  -16.2533   22.2348 O   0  0  0  0  0  0  0  0  0  0  0  0
   10.6855  -14.0294   29.0728 C   0  0  0  0  0  0  0  0  0  0  0  0
   10.4720  -14.6015   27.6974 C   0  0  1  0  0  0  0  0  0  0  0  0
   11.2266  -13.6634   26.7406 C   0  0  0  0  0  0  0  0  0  0  0  0
   11.1264  -15.9355   27.5771 C   0  0  2  0  0  0  0  0  0  0  0  0
   10.9143  -16.5548   26.2985 N   0  0  0  0  0  0  0  0  0  0  0  0
   10.9502  -16.8440   28.7395 C   0  0  0  0  0  0  0  0  0  0  0  0
   10.3395  -17.9316   28.7379 O   0  0  0  0  0  0  0  0  0  0  0  0
   11.5070  -16.4783   29.9599 O   0  0  0  0  0  0  0  0  0  0  0  0
  2  1  1  1
  3  2  1  0
  4  3  1  0
  4  9  2  0
  5  4  1  0
  6  5  2  0
  6  7  1  0
  7  8  2  0
  8  9  1  0
 10  2  1  0
 11 10  2  0
 12 10  1  0
 13 18  1  0
 13 12  1  0
 13 14  1  6
 15 14  1  0
 16 15  1  0
 17 16  2  0
 18 19  2  0
 20 16  1  0
 22 21  1  1
 22 24  1  0
 23 22  1  0
 24 25  1  6
 25 18  1  0
 26 28  1  0
 26 24  1  0
 27 26  2  0
M  END
$$$$
