FEV.pdb
     RDKit          3D

 28 28  0  0  1  0  0  0  0  0999 V2000
    5.7758  -16.4476   25.3517 N   0  0  0  0  0  0  0  0  0  0  0  0
    6.6276  -16.2298   24.2021 C   0  0  1  0  0  0  0  0  0  0  0  0
    6.4185  -14.7931   23.7688 C   0  0  0  0  0  0  0  0  0  0  0  0
    6.8107  -13.8477   24.8452 C   0  0  0  0  0  0  0  0  0  0  0  0
    5.9723  -13.6301   25.9211 C   0  0  0  0  0  0  0  0  0  0  0  0
    6.2838  -12.7670   26.9453 C   0  0  0  0  0  0  0  0  0  0  0  0
    7.4682  -12.0868   26.9151 C   0  0  0  0  0  0  0  0  0  0  0  0
    8.3440  -12.2716   25.8554 C   0  0  0  0  0  0  0  0  0  0  0  0
    8.0028  -13.1523   24.8311 C   0  0  0  0  0  0  0  0  0  0  0  0
    8.0211  -16.5045   24.5809 C   0  0  0  0  0  0  0  0  0  0  0  0
    8.2640  -16.8714   25.7576 O   0  0  0  0  0  0  0  0  0  0  0  0
    9.1139  -16.3719   23.6663 N   0  0  0  0  0  0  0  0  0  0  0  0
   10.4014  -16.8552   24.0350 C   0  0  1  0  0  0  0  0  0  0  0  0
   11.3660  -16.8780   22.8471 C   0  0  0  0  0  0  0  0  0  0  0  0
   12.6958  -17.4458   23.2311 C   0  0  0  0  0  0  0  0  0  0  0  0
   13.5580  -17.5005   22.0251 C   0  0  0  0  0  0  0  0  0  0  0  0
   13.4083  -18.4012   21.1609 O   0  0  0  0  0  0  0  0  0  0  0  0
   10.9895  -16.1036   25.1826 C   0  0  0  0  0  0  0  0  0  0  0  0
   11.7746  -15.1496   25.0289 O   0  0  0  0  0  0  0  0  0  0  0  0
   14.5693  -16.5715   21.7824 O   0  0  0  0  0  0  0  0  0  0  0  0
    9.9169  -13.9518   27.2653 C   0  0  0  0  0  0  0  0  0  0  0  0
   10.3730  -14.9281   28.3158 C   0  0  1  0  0  0  0  0  0  0  0  0
    9.0900  -15.5886   28.8476 C   0  0  0  0  0  0  0  0  0  0  0  0
   11.1811  -16.0198   27.7015 C   0  0  2  0  0  0  0  0  0  0  0  0
   10.6170  -16.5199   26.4788 N   0  0  0  0  0  0  0  0  0  0  0  0
   11.6559  -17.0715   28.6376 C   0  0  0  0  0  0  0  0  0  0  0  0
   11.4157  -18.2927   28.5557 O   0  0  0  0  0  0  0  0  0  0  0  0
   12.4459  -16.6934   29.7174 O   0  0  0  0  0  0  0  0  0  0  0  0
  2  1  1  1
  3  2  1  0
  4  3  1  0
  4  9  2  0
  5  4  1  0
  6  5  2  0
  6  7  1  0
  7  8  2  0
  8  9  1  0
 10  2  1  0
 11 10  2  0
 12 10  1  0
 13 18  1  0
 13 12  1  0
 13 14  1  6
 15 14  1  0
 16 15  1  0
 17 16  2  0
 18 19  2  0
 20 16  1  0
 22 21  1  6
 22 24  1  0
 23 22  1  0
 24 25  1  6
 25 18  1  0
 26 28  1  0
 26 24  1  0
 27 26  2  0
M  END
$$$$
