FEV.pdb
     RDKit          3D

 28 28  0  0  1  0  0  0  0  0999 V2000
    6.4157  -17.2430   22.1445 N   0  0  0  0  0  0  0  0  0  0  0  0
    7.0101  -16.1139   22.8272 C   0  0  1  0  0  0  0  0  0  0  0  0
    5.9739  -15.5996   23.8057 C   0  0  0  0  0  0  0  0  0  0  0  0
    6.4731  -14.4053   24.5343 C   0  0  0  0  0  0  0  0  0  0  0  0
    6.4166  -14.3566   25.9136 C   0  0  0  0  0  0  0  0  0  0  0  0
    6.8638  -13.2777   26.6395 C   0  0  0  0  0  0  0  0  0  0  0  0
    7.3895  -12.1988   25.9867 C   0  0  0  0  0  0  0  0  0  0  0  0
    7.4677  -12.2003   24.6018 C   0  0  0  0  0  0  0  0  0  0  0  0
    7.0070  -13.3069   23.8914 C   0  0  0  0  0  0  0  0  0  0  0  0
    8.2430  -16.5543   23.4955 C   0  0  0  0  0  0  0  0  0  0  0  0
    8.1939  -17.5589   24.2482 O   0  0  0  0  0  0  0  0  0  0  0  0
    9.4979  -15.8876   23.3256 N   0  0  0  0  0  0  0  0  0  0  0  0
   10.6896  -16.4991   23.8084 C   0  0  1  0  0  0  0  0  0  0  0  0
   11.8346  -16.3982   22.7980 C   0  0  0  0  0  0  0  0  0  0  0  0
   13.0610  -17.1021   23.2866 C   0  0  0  0  0  0  0  0  0  0  0  0
   14.1237  -16.9794   22.2588 C   0  0  0  0  0  0  0  0  0  0  0  0
   15.2888  -17.3982   22.4769 O   0  0  0  0  0  0  0  0  0  0  0  0
   11.1076  -15.9694   25.1397 C   0  0  0  0  0  0  0  0  0  0  0  0
   12.0470  -15.1640   25.2773 O   0  0  0  0  0  0  0  0  0  0  0  0
   13.8972  -16.4014   21.0100 O   0  0  0  0  0  0  0  0  0  0  0  0
   10.1767  -14.8070   29.6521 C   0  0  0  0  0  0  0  0  0  0  0  0
    9.7756  -15.1122   28.2341 C   0  0  1  0  0  0  0  0  0  0  0  0
    9.9880  -13.8027   27.4561 C   0  0  0  0  0  0  0  0  0  0  0  0
   10.7023  -16.1117   27.6306 C   0  0  2  0  0  0  0  0  0  0  0  0
   10.3851  -16.4226   26.2645 N   0  0  0  0  0  0  0  0  0  0  0  0
   11.0110  -17.2935   28.4766 C   0  0  0  0  0  0  0  0  0  0  0  0
   10.8043  -18.4868   28.1780 O   0  0  0  0  0  0  0  0  0  0  0  0
   11.5865  -17.0857   29.7251 O   0  0  0  0  0  0  0  0  0  0  0  0
  2  1  1  1
  3  2  1  0
  4  3  1  0
  4  9  2  0
  5  4  1  0
  6  5  2  0
  6  7  1  0
  7  8  2  0
  8  9  1  0
 10  2  1  0
 11 10  2  0
 12 10  1  0
 13 18  1  0
 13 12  1  0
 13 14  1  6
 15 14  1  0
 16 15  1  0
 17 16  2  0
 18 19  2  0
 20 16  1  0
 22 21  1  1
 22 24  1  0
 23 22  1  0
 24 25  1  6
 25 18  1  0
 26 28  1  0
 26 24  1  0
 27 26  2  0
M  END
$$$$
