FEV.pdb
     RDKit          3D

 28 28  0  0  1  0  0  0  0  0999 V2000
    5.9897  -17.7723   23.3964 N   0  0  0  0  0  0  0  0  0  0  0  0
    6.6785  -16.5551   23.7686 C   0  0  1  0  0  0  0  0  0  0  0  0
    5.8695  -15.9170   24.8795 C   0  0  0  0  0  0  0  0  0  0  0  0
    6.2759  -14.5044   25.0931 C   0  0  0  0  0  0  0  0  0  0  0  0
    5.7053  -13.7610   26.1078 C   0  0  0  0  0  0  0  0  0  0  0  0
    6.0431  -12.4504   26.3512 C   0  0  0  0  0  0  0  0  0  0  0  0
    6.9808  -11.8405   25.5669 C   0  0  0  0  0  0  0  0  0  0  0  0
    7.5825  -12.5455   24.5349 C   0  0  0  0  0  0  0  0  0  0  0  0
    7.2211  -13.8724   24.3107 C   0  0  0  0  0  0  0  0  0  0  0  0
    8.0459  -16.8898   24.1914 C   0  0  0  0  0  0  0  0  0  0  0  0
    8.2040  -17.7585   25.0851 O   0  0  0  0  0  0  0  0  0  0  0  0
    9.2058  -16.2685   23.6285 N   0  0  0  0  0  0  0  0  0  0  0  0
   10.4996  -16.7509   23.9754 C   0  0  1  0  0  0  0  0  0  0  0  0
   11.4918  -16.6108   22.8187 C   0  0  0  0  0  0  0  0  0  0  0  0
   12.8553  -17.0911   23.2043 C   0  0  0  0  0  0  0  0  0  0  0  0
   13.7624  -16.9381   22.0404 C   0  0  0  0  0  0  0  0  0  0  0  0
   14.7249  -16.1299   22.0699 O   0  0  0  0  0  0  0  0  0  0  0  0
   11.0356  -16.1156   25.2151 C   0  0  0  0  0  0  0  0  0  0  0  0
   11.9686  -15.2914   25.1979 O   0  0  0  0  0  0  0  0  0  0  0  0
   13.6040  -17.6696   20.8638 O   0  0  0  0  0  0  0  0  0  0  0  0
   10.2680  -14.5190   29.6330 C   0  0  0  0  0  0  0  0  0  0  0  0
    9.8638  -14.9559   28.2508 C   0  0  1  0  0  0  0  0  0  0  0  0
   10.0420  -13.7156   27.3593 C   0  0  0  0  0  0  0  0  0  0  0  0
   10.8080  -15.9846   27.7290 C   0  0  2  0  0  0  0  0  0  0  0  0
   10.4352  -16.4891   26.4368 N   0  0  0  0  0  0  0  0  0  0  0  0
   11.2227  -17.0278   28.7024 C   0  0  0  0  0  0  0  0  0  0  0  0
   11.6870  -16.8277   29.8427 O   0  0  0  0  0  0  0  0  0  0  0  0
   11.0933  -18.3641   28.3408 O   0  0  0  0  0  0  0  0  0  0  0  0
  2  1  1  1
  3  2  1  0
  4  3  1  0
  4  9  2  0
  5  4  1  0
  6  5  2  0
  6  7  1  0
  7  8  2  0
  8  9  1  0
 10  2  1  0
 11 10  2  0
 12 10  1  0
 13 18  1  0
 13 12  1  0
 13 14  1  6
 15 14  1  0
 16 15  1  0
 17 16  2  0
 18 19  2  0
 20 16  1  0
 22 21  1  1
 22 24  1  0
 23 22  1  0
 24 25  1  6
 25 18  1  0
 26 28  1  0
 26 24  1  0
 27 26  2  0
M  END
$$$$
