FEV.pdb
     RDKit          3D

 28 28  0  0  1  0  0  0  0  0999 V2000
    5.9331  -17.5121   24.0785 N   0  0  0  0  0  0  0  0  0  0  0  0
    6.7862  -16.3792   24.3676 C   0  0  1  0  0  0  0  0  0  0  0  0
    6.3625  -15.8470   25.7214 C   0  0  0  0  0  0  0  0  0  0  0  0
    6.6285  -14.3897   25.8299 C   0  0  0  0  0  0  0  0  0  0  0  0
    5.6101  -13.5185   26.1645 C   0  0  0  0  0  0  0  0  0  0  0  0
    5.7988  -12.1613   26.2791 C   0  0  0  0  0  0  0  0  0  0  0  0
    7.0389  -11.6332   26.0563 C   0  0  0  0  0  0  0  0  0  0  0  0
    8.0941  -12.4675   25.7175 C   0  0  0  0  0  0  0  0  0  0  0  0
    7.8745  -13.8390   25.6084 C   0  0  0  0  0  0  0  0  0  0  0  0
    8.1883  -16.8203   24.3517 C   0  0  0  0  0  0  0  0  0  0  0  0
    8.4937  -17.8773   24.9581 O   0  0  0  0  0  0  0  0  0  0  0  0
    9.2212  -16.0971   23.6748 N   0  0  0  0  0  0  0  0  0  0  0  0
   10.5830  -16.4571   23.8825 C   0  0  1  0  0  0  0  0  0  0  0  0
   11.4669  -16.0606   22.6978 C   0  0  0  0  0  0  0  0  0  0  0  0
   11.1553  -16.8771   21.4834 C   0  0  0  0  0  0  0  0  0  0  0  0
   12.4034  -17.5242   21.0098 C   0  0  0  0  0  0  0  0  0  0  0  0
   13.0484  -17.0559   20.0376 O   0  0  0  0  0  0  0  0  0  0  0  0
   11.1316  -15.9140   25.1599 C   0  0  0  0  0  0  0  0  0  0  0  0
   11.6338  -14.7780   25.2460 O   0  0  0  0  0  0  0  0  0  0  0  0
   12.9269  -18.6715   21.6051 O   0  0  0  0  0  0  0  0  0  0  0  0
   10.9570  -14.0600   26.9229 C   0  0  0  0  0  0  0  0  0  0  0  0
   10.8665  -15.0585   28.0452 C   0  0  1  0  0  0  0  0  0  0  0  0
    9.3629  -15.2936   28.2658 C   0  0  0  0  0  0  0  0  0  0  0  0
   11.4375  -16.3705   27.6271 C   0  0  2  0  0  0  0  0  0  0  0  0
   11.0605  -16.7510   26.2943 N   0  0  0  0  0  0  0  0  0  0  0  0
   11.3411  -17.4617   28.6309 C   0  0  0  0  0  0  0  0  0  0  0  0
   10.8231  -18.5823   28.4525 O   0  0  0  0  0  0  0  0  0  0  0  0
   11.8691  -17.2474   29.8991 O   0  0  0  0  0  0  0  0  0  0  0  0
  2  1  1  1
  3  2  1  0
  4  3  1  0
  4  9  2  0
  5  4  1  0
  6  5  2  0
  6  7  1  0
  7  8  2  0
  8  9  1  0
 10  2  1  0
 11 10  2  0
 12 10  1  0
 13 18  1  0
 13 12  1  0
 13 14  1  6
 15 14  1  0
 16 15  1  0
 17 16  2  0
 18 19  2  0
 20 16  1  0
 22 21  1  6
 22 24  1  0
 23 22  1  0
 24 25  1  6
 25 18  1  0
 26 28  1  0
 26 24  1  0
 27 26  2  0
M  END
$$$$
