FEV.pdb
     RDKit          3D

 28 28  0  0  1  0  0  0  0  0999 V2000
    7.3496  -15.7958   20.7059 N   0  0  0  0  0  0  0  0  0  0  0  0
    7.7129  -14.9902   21.8520 C   0  0  1  0  0  0  0  0  0  0  0  0
    6.4213  -14.4623   22.4425 C   0  0  0  0  0  0  0  0  0  0  0  0
    6.6750  -13.7157   23.7013 C   0  0  0  0  0  0  0  0  0  0  0  0
    7.2810  -12.4750   23.6656 C   0  0  0  0  0  0  0  0  0  0  0  0
    7.5400  -11.7399   24.7984 C   0  0  0  0  0  0  0  0  0  0  0  0
    7.1905  -12.2412   26.0203 C   0  0  0  0  0  0  0  0  0  0  0  0
    6.5793  -13.4833   26.1081 C   0  0  0  0  0  0  0  0  0  0  0  0
    6.3287  -14.2066   24.9439 C   0  0  0  0  0  0  0  0  0  0  0  0
    8.4655  -15.8220   22.8019 C   0  0  0  0  0  0  0  0  0  0  0  0
    7.9006  -16.8272   23.3006 O   0  0  0  0  0  0  0  0  0  0  0  0
    9.8149  -15.5361   23.1834 N   0  0  0  0  0  0  0  0  0  0  0  0
   10.5086  -16.4367   24.0406 C   0  0  1  0  0  0  0  0  0  0  0  0
   11.7058  -17.0849   23.3414 C   0  0  0  0  0  0  0  0  0  0  0  0
   12.3511  -18.1212   24.2063 C   0  0  0  0  0  0  0  0  0  0  0  0
   13.5007  -18.7063   23.4736 C   0  0  0  0  0  0  0  0  0  0  0  0
   13.3288  -19.3675   22.4182 O   0  0  0  0  0  0  0  0  0  0  0  0
   10.9241  -15.8008   25.3254 C   0  0  0  0  0  0  0  0  0  0  0  0
   11.5250  -14.7114   25.3722 O   0  0  0  0  0  0  0  0  0  0  0  0
   14.8188  -18.5600   23.9048 O   0  0  0  0  0  0  0  0  0  0  0  0
   10.5930  -13.8112   27.2965 C   0  0  0  0  0  0  0  0  0  0  0  0
   10.5533  -14.8833   28.3518 C   0  0  1  0  0  0  0  0  0  0  0  0
    9.0611  -15.1363   28.6245 C   0  0  0  0  0  0  0  0  0  0  0  0
   11.1037  -16.1627   27.8205 C   0  0  2  0  0  0  0  0  0  0  0  0
   10.6055  -16.4920   26.5141 N   0  0  0  0  0  0  0  0  0  0  0  0
   11.1244  -17.2990   28.7776 C   0  0  0  0  0  0  0  0  0  0  0  0
   10.5934  -18.4147   28.6071 O   0  0  0  0  0  0  0  0  0  0  0  0
   11.7910  -17.1380   29.9870 O   0  0  0  0  0  0  0  0  0  0  0  0
  2  1  1  6
  3  2  1  0
  4  3  1  0
  4  9  2  0
  5  4  1  0
  6  5  2  0
  6  7  1  0
  7  8  2  0
  8  9  1  0
 10  2  1  0
 11 10  2  0
 12 10  1  0
 13 18  1  0
 13 12  1  0
 13 14  1  6
 15 14  1  0
 16 15  1  0
 17 16  2  0
 18 19  2  0
 20 16  1  0
 22 21  1  6
 22 24  1  0
 23 22  1  0
 24 25  1  6
 25 18  1  0
 26 28  1  0
 26 24  1  0
 27 26  2  0
M  END
$$$$
