HCN.pdb
     RDKit          3D

 25 25  0  0  1  0  0  0  0  0999 V2000
   13.7570  -14.1547   18.6442 N   0  0  0  0  0  0  0  0  0  0  0  0
   12.5243  -14.9305   18.7823 C   0  0  1  0  0  0  0  0  0  0  0  0
   12.7511  -16.3077   18.2563 C   0  0  0  0  0  0  0  0  0  0  0  0
   12.9063  -16.3364   16.7810 C   0  0  0  0  0  0  0  0  0  0  0  0
   14.0809  -16.2374   16.0434 C   0  0  0  0  0  0  0  0  0  0  0  0
   13.7932  -16.3098   14.7228 N   0  0  0  0  0  0  0  0  0  0  0  0
   12.4684  -16.4509   14.6386 C   0  0  0  0  0  0  0  0  0  0  0  0
   11.9262  -16.4680   15.8639 N   0  0  0  0  0  0  0  0  0  0  0  0
   12.0743  -14.9211   20.1892 C   0  0  0  0  0  0  0  0  0  0  0  0
   12.9370  -14.9255   21.0958 O   0  0  0  0  0  0  0  0  0  0  0  0
   10.6999  -14.9087   20.4995 N   0  0  0  0  0  0  0  0  0  0  0  0
   10.2485  -14.9968   21.8551 C   0  0  1  0  0  0  0  0  0  0  0  0
    8.8746  -14.4030   21.9682 C   0  0  0  0  0  0  0  0  0  0  0  0
    8.1074  -14.6982   23.5608 S   0  0  0  0  0  0  0  0  0  0  0  0
   10.3122  -16.3836   22.3824 C   0  0  0  0  0  0  0  0  0  0  0  0
    9.8768  -17.3800   21.7803 O   0  0  0  0  0  0  0  0  0  0  0  0
   13.2304  -20.7011   23.3028 N   0  0  0  0  0  0  0  0  0  0  0  0
   12.9299  -19.6600   24.2029 C   0  0  0  0  0  0  0  0  0  0  0  0
   13.0136  -19.8041   25.4372 O   0  0  0  0  0  0  0  0  0  0  0  0
   12.4995  -18.3458   23.6854 C   0  0  0  0  0  0  0  0  0  0  0  0
   11.1152  -17.9510   24.1590 C   0  0  2  0  0  0  0  0  0  0  0  0
   10.9046  -16.5856   23.6478 N   0  0  0  0  0  0  0  0  0  0  0  0
   10.9742  -17.9523   25.6233 C   0  0  0  0  0  0  0  0  0  0  0  0
   10.6423  -18.9972   26.2358 O   0  0  0  0  0  0  0  0  0  0  0  0
   11.2011  -16.8114   26.3702 O   0  0  0  0  0  0  0  0  0  0  0  0
  2  1  1  1
  3  2  1  0
  4  3  1  0
  4  8  1  0
  5  4  2  0
  6  5  1  0
  6  7  1  0
  7  8  2  0
  9  2  1  0
  9 11  1  0
 10  9  2  0
 11 12  1  0
 12 15  1  0
 12 13  1  6
 14 13  1  0
 15 16  2  0
 15 22  1  0
 18 17  1  0
 18 19  2  0
 20 18  1  0
 21 20  1  1
 21 23  1  0
 22 21  1  0
 23 25  1  0
 24 23  2  0
M  END
$$$$
