HCN.pdb
     RDKit          3D

 25 25  0  0  1  0  0  0  0  0999 V2000
    9.5195  -15.1095   22.1648 N   0  0  0  0  0  0  0  0  0  0  0  0
    8.9160  -16.0720   21.2429 C   0  0  1  0  0  0  0  0  0  0  0  0
    7.7805  -15.4199   20.5285 C   0  0  0  0  0  0  0  0  0  0  0  0
    8.1776  -14.1563   19.8597 C   0  0  0  0  0  0  0  0  0  0  0  0
    9.4344  -13.5622   19.8330 C   0  0  0  0  0  0  0  0  0  0  0  0
    9.3786  -12.4178   19.1124 N   0  0  0  0  0  0  0  0  0  0  0  0
    8.1148  -12.3007   18.6988 C   0  0  0  0  0  0  0  0  0  0  0  0
    7.3860  -13.3352   19.1399 N   0  0  0  0  0  0  0  0  0  0  0  0
    9.9417  -16.6046   20.3230 C   0  0  0  0  0  0  0  0  0  0  0  0
    9.5697  -17.2547   19.3203 O   0  0  0  0  0  0  0  0  0  0  0  0
   11.3104  -16.3837   20.5741 N   0  0  0  0  0  0  0  0  0  0  0  0
   12.3054  -16.7464   19.6110 C   0  0  1  0  0  0  0  0  0  0  0  0
   11.9883  -16.1034   18.2923 C   0  0  0  0  0  0  0  0  0  0  0  0
   12.6360  -14.4388   18.1451 S   0  0  0  0  0  0  0  0  0  0  0  0
   13.6812  -16.4368   20.0767 C   0  0  0  0  0  0  0  0  0  0  0  0
   14.7127  -16.7204   19.4439 O   0  0  0  0  0  0  0  0  0  0  0  0
   15.8521  -14.7970   19.7444 N   0  0  0  0  0  0  0  0  0  0  0  0
   16.1367  -14.0803   20.9232 C   0  0  0  0  0  0  0  0  0  0  0  0
   16.7650  -13.0049   20.9115 O   0  0  0  0  0  0  0  0  0  0  0  0
   15.6835  -14.6049   22.2268 C   0  0  0  0  0  0  0  0  0  0  0  0
   15.0477  -15.9764   22.1209 C   0  0  2  0  0  0  0  0  0  0  0  0
   13.8294  -15.7786   21.3169 N   0  0  0  0  0  0  0  0  0  0  0  0
   14.6855  -16.5566   23.4233 C   0  0  0  0  0  0  0  0  0  0  0  0
   13.4947  -16.5470   23.8220 O   0  0  0  0  0  0  0  0  0  0  0  0
   15.6369  -17.1288   24.2471 O   0  0  0  0  0  0  0  0  0  0  0  0
  2  1  1  1
  3  2  1  0
  4  3  1  0
  4  8  1  0
  5  4  2  0
  6  5  1  0
  6  7  1  0
  7  8  2  0
  9  2  1  0
  9 11  1  0
 10  9  2  0
 11 12  1  0
 12 15  1  0
 12 13  1  6
 14 13  1  0
 15 16  2  0
 15 22  1  0
 18 17  1  0
 18 19  2  0
 20 18  1  0
 21 20  1  1
 21 23  1  0
 22 21  1  0
 23 25  1  0
 24 23  2  0
M  END
$$$$
