HCN.pdb
     RDKit          3D

 25 25  0  0  1  0  0  0  0  0999 V2000
   10.1193  -14.3606   20.9536 N   0  0  0  0  0  0  0  0  0  0  0  0
    8.8187  -14.1063   21.5734 C   0  0  1  0  0  0  0  0  0  0  0  0
    7.7696  -14.8746   20.8428 C   0  0  0  0  0  0  0  0  0  0  0  0
    7.6217  -14.4386   19.4322 C   0  0  0  0  0  0  0  0  0  0  0  0
    8.3268  -13.4411   18.7679 C   0  0  0  0  0  0  0  0  0  0  0  0
    7.8929  -13.3559   17.4886 N   0  0  0  0  0  0  0  0  0  0  0  0
    6.9382  -14.2798   17.3580 C   0  0  0  0  0  0  0  0  0  0  0  0
    6.7665  -14.9344   18.5146 N   0  0  0  0  0  0  0  0  0  0  0  0
    8.8705  -14.4332   23.0130 C   0  0  0  0  0  0  0  0  0  0  0  0
    9.6669  -15.3178   23.3997 O   0  0  0  0  0  0  0  0  0  0  0  0
    8.0371  -13.7608   23.9286 N   0  0  0  0  0  0  0  0  0  0  0  0
    8.0819  -14.0630   25.3272 C   0  0  1  0  0  0  0  0  0  0  0  0
    7.1613  -13.1406   26.0718 C   0  0  0  0  0  0  0  0  0  0  0  0
    5.4417  -13.6377   25.9838 S   0  0  0  0  0  0  0  0  0  0  0  0
    7.7975  -15.4939   25.6049 C   0  0  0  0  0  0  0  0  0  0  0  0
    7.0119  -16.1912   24.9404 O   0  0  0  0  0  0  0  0  0  0  0  0
    9.5465  -20.1650   26.2907 N   0  0  0  0  0  0  0  0  0  0  0  0
    9.9519  -19.2280   25.3202 C   0  0  0  0  0  0  0  0  0  0  0  0
   10.6421  -19.5489   24.3344 O   0  0  0  0  0  0  0  0  0  0  0  0
    9.5552  -17.8124   25.4581 C   0  0  0  0  0  0  0  0  0  0  0  0
    8.7107  -17.5548   26.6897 C   0  0  2  0  0  0  0  0  0  0  0  0
    8.4605  -16.1031   26.6923 N   0  0  0  0  0  0  0  0  0  0  0  0
    9.3733  -17.9392   27.9456 C   0  0  0  0  0  0  0  0  0  0  0  0
    9.3366  -19.1262   28.3541 O   0  0  0  0  0  0  0  0  0  0  0  0
   10.0546  -17.0135   28.7137 O   0  0  0  0  0  0  0  0  0  0  0  0
  2  1  1  6
  3  2  1  0
  4  3  1  0
  4  8  1  0
  5  4  2  0
  6  5  1  0
  6  7  1  0
  7  8  2  0
  9  2  1  0
  9 11  1  0
 10  9  2  0
 11 12  1  0
 12 15  1  0
 12 13  1  1
 14 13  1  0
 15 16  2  0
 15 22  1  0
 18 17  1  0
 18 19  2  0
 20 18  1  0
 21 20  1  6
 21 23  1  0
 22 21  1  0
 23 25  1  0
 24 23  2  0
M  END
$$$$
