HCN.pdb
     RDKit          3D

 25 25  0  0  1  0  0  0  0  0999 V2000
    8.6993  -15.2955   14.9866 N   0  0  0  0  0  0  0  0  0  0  0  0
    9.0842  -14.7044   16.2683 C   0  0  1  0  0  0  0  0  0  0  0  0
    7.9596  -14.8587   17.2360 C   0  0  0  0  0  0  0  0  0  0  0  0
    8.2480  -14.2333   18.5502 C   0  0  0  0  0  0  0  0  0  0  0  0
    9.3409  -13.4486   18.9015 C   0  0  0  0  0  0  0  0  0  0  0  0
    9.2286  -13.0703   20.1962 N   0  0  0  0  0  0  0  0  0  0  0  0
    8.0908  -13.6071   20.6426 C   0  0  0  0  0  0  0  0  0  0  0  0
    7.4949  -14.3058   19.6667 N   0  0  0  0  0  0  0  0  0  0  0  0
   10.3418  -15.3117   16.7495 C   0  0  0  0  0  0  0  0  0  0  0  0
   10.9243  -16.1447   16.0194 O   0  0  0  0  0  0  0  0  0  0  0  0
   10.8705  -14.9580   18.0067 N   0  0  0  0  0  0  0  0  0  0  0  0
   12.2269  -15.2619   18.3489 C   0  0  1  0  0  0  0  0  0  0  0  0
   13.1498  -14.6709   17.3234 C   0  0  0  0  0  0  0  0  0  0  0  0
   14.8804  -14.9869   17.6661 S   0  0  0  0  0  0  0  0  0  0  0  0
   12.5689  -14.8388   19.7307 C   0  0  0  0  0  0  0  0  0  0  0  0
   12.7703  -13.6602   20.0701 O   0  0  0  0  0  0  0  0  0  0  0  0
    9.9162  -17.0807   22.2976 N   0  0  0  0  0  0  0  0  0  0  0  0
   10.7540  -16.0863   22.8395 C   0  0  0  0  0  0  0  0  0  0  0  0
   10.3201  -14.9758   23.1994 O   0  0  0  0  0  0  0  0  0  0  0  0
   12.1985  -16.3502   22.9943 C   0  0  0  0  0  0  0  0  0  0  0  0
   13.0557  -15.4775   22.0999 C   0  0  2  0  0  0  0  0  0  0  0  0
   12.6724  -15.8370   20.7238 N   0  0  0  0  0  0  0  0  0  0  0  0
   14.4996  -15.6954   22.2783 C   0  0  0  0  0  0  0  0  0  0  0  0
   15.1857  -16.2283   21.3715 O   0  0  0  0  0  0  0  0  0  0  0  0
   15.1463  -15.3232   23.4421 O   0  0  0  0  0  0  0  0  0  0  0  0
  2  1  1  6
  3  2  1  0
  4  3  1  0
  4  8  1  0
  5  4  2  0
  6  5  1  0
  6  7  1  0
  7  8  2  0
  9  2  1  0
  9 11  1  0
 10  9  2  0
 11 12  1  0
 12 15  1  0
 12 13  1  6
 14 13  1  0
 15 16  2  0
 15 22  1  0
 18 17  1  0
 18 19  2  0
 20 18  1  0
 21 20  1  1
 21 23  1  0
 22 21  1  0
 23 25  1  0
 24 23  2  0
M  END
$$$$
