HCN.pdb
     RDKit          3D

 25 25  0  0  1  0  0  0  0  0999 V2000
    8.0557  -17.7546   18.2669 N   0  0  0  0  0  0  0  0  0  0  0  0
    9.1668  -17.2865   19.0956 C   0  0  1  0  0  0  0  0  0  0  0  0
    8.7299  -16.0879   19.8686 C   0  0  0  0  0  0  0  0  0  0  0  0
    8.2986  -14.9705   18.9928 C   0  0  0  0  0  0  0  0  0  0  0  0
    8.2688  -14.9368   17.6030 C   0  0  0  0  0  0  0  0  0  0  0  0
    7.8080  -13.7332   17.1896 N   0  0  0  0  0  0  0  0  0  0  0  0
    7.5559  -13.0317   18.2970 C   0  0  0  0  0  0  0  0  0  0  0  0
    7.8458  -13.7615   19.3829 N   0  0  0  0  0  0  0  0  0  0  0  0
    9.6504  -18.3816   19.9610 C   0  0  0  0  0  0  0  0  0  0  0  0
    8.8357  -19.2537   20.3378 O   0  0  0  0  0  0  0  0  0  0  0  0
   11.0026  -18.4383   20.3529 N   0  0  0  0  0  0  0  0  0  0  0  0
   11.4783  -19.4777   21.2147 C   0  0  1  0  0  0  0  0  0  0  0  0
   12.4056  -20.3790   20.4528 C   0  0  0  0  0  0  0  0  0  0  0  0
   12.7391  -19.8039   18.7884 S   0  0  0  0  0  0  0  0  0  0  0  0
   12.0976  -18.9438   22.4544 C   0  0  0  0  0  0  0  0  0  0  0  0
   13.1988  -18.3686   22.4927 O   0  0  0  0  0  0  0  0  0  0  0  0
    9.2453  -15.9815   24.7379 N   0  0  0  0  0  0  0  0  0  0  0  0
   10.5604  -16.4743   24.8462 C   0  0  0  0  0  0  0  0  0  0  0  0
   11.5392  -15.8648   24.3752 O   0  0  0  0  0  0  0  0  0  0  0  0
   10.8080  -17.7551   25.5379 C   0  0  0  0  0  0  0  0  0  0  0  0
   11.9412  -18.5489   24.9196 C   0  0  2  0  0  0  0  0  0  0  0  0
   11.3927  -19.0983   23.6678 N   0  0  0  0  0  0  0  0  0  0  0  0
   12.4172  -19.6507   25.7702 C   0  0  0  0  0  0  0  0  0  0  0  0
   12.0983  -20.8393   25.5201 O   0  0  0  0  0  0  0  0  0  0  0  0
   13.2266  -19.4171   26.8664 O   0  0  0  0  0  0  0  0  0  0  0  0
  2  1  1  1
  3  2  1  0
  4  3  1  0
  4  8  1  0
  5  4  2  0
  6  5  1  0
  6  7  1  0
  7  8  2  0
  9  2  1  0
  9 11  1  0
 10  9  2  0
 11 12  1  0
 12 15  1  0
 12 13  1  6
 14 13  1  0
 15 16  2  0
 15 22  1  0
 18 17  1  0
 18 19  2  0
 20 18  1  0
 21 20  1  1
 21 23  1  0
 22 21  1  0
 23 25  1  0
 24 23  2  0
M  END
$$$$
