HCN.pdb
     RDKit          3D

 25 25  0  0  1  0  0  0  0  0999 V2000
    8.8479  -14.5698   20.1520 N   0  0  0  0  0  0  0  0  0  0  0  0
    8.0054  -15.1306   21.2084 C   0  0  1  0  0  0  0  0  0  0  0  0
    7.8734  -16.6017   21.0001 C   0  0  0  0  0  0  0  0  0  0  0  0
    7.2370  -16.9393   19.7029 C   0  0  0  0  0  0  0  0  0  0  0  0
    7.8313  -16.9883   18.4468 C   0  0  0  0  0  0  0  0  0  0  0  0
    6.9071  -17.3395   17.5225 N   0  0  0  0  0  0  0  0  0  0  0  0
    5.7616  -17.5059   18.1874 C   0  0  0  0  0  0  0  0  0  0  0  0
    5.9461  -17.2690   19.4934 N   0  0  0  0  0  0  0  0  0  0  0  0
    8.5585  -14.7868   22.5342 C   0  0  0  0  0  0  0  0  0  0  0  0
    9.7603  -15.0453   22.7690 O   0  0  0  0  0  0  0  0  0  0  0  0
    7.7451  -14.1812   23.5123 N   0  0  0  0  0  0  0  0  0  0  0  0
    8.1561  -14.1247   24.8824 C   0  0  1  0  0  0  0  0  0  0  0  0
    7.3629  -13.0743   25.6036 C   0  0  0  0  0  0  0  0  0  0  0  0
    5.6603  -13.5522   25.8954 S   0  0  0  0  0  0  0  0  0  0  0  0
    8.0813  -15.4495   25.5493 C   0  0  0  0  0  0  0  0  0  0  0  0
    7.3030  -16.3579   25.2118 O   0  0  0  0  0  0  0  0  0  0  0  0
   10.8640  -19.5434   25.1676 N   0  0  0  0  0  0  0  0  0  0  0  0
   11.3878  -18.3068   25.5928 C   0  0  0  0  0  0  0  0  0  0  0  0
   12.5593  -18.1856   25.9979 O   0  0  0  0  0  0  0  0  0  0  0  0
   10.5351  -17.1016   25.5648 C   0  0  0  0  0  0  0  0  0  0  0  0
    9.6207  -16.9991   26.7688 C   0  0  2  0  0  0  0  0  0  0  0  0
    8.9485  -15.6951   26.6360 N   0  0  0  0  0  0  0  0  0  0  0  0
   10.3351  -17.0526   28.0536 C   0  0  0  0  0  0  0  0  0  0  0  0
   10.7985  -18.1366   28.4864 O   0  0  0  0  0  0  0  0  0  0  0  0
   10.5200  -15.9191   28.8232 O   0  0  0  0  0  0  0  0  0  0  0  0
  2  1  1  6
  3  2  1  0
  4  3  1  0
  4  8  1  0
  5  4  2  0
  6  5  1  0
  6  7  1  0
  7  8  2  0
  9  2  1  0
  9 11  1  0
 10  9  2  0
 11 12  1  0
 12 15  1  0
 12 13  1  1
 14 13  1  0
 15 16  2  0
 15 22  1  0
 18 17  1  0
 18 19  2  0
 20 18  1  0
 21 20  1  6
 21 23  1  0
 22 21  1  0
 23 25  1  0
 24 23  2  0
M  END
$$$$
