HCN.pdb
     RDKit          3D

 25 25  0  0  1  0  0  0  0  0999 V2000
   10.2160  -13.8679   20.5646 N   0  0  0  0  0  0  0  0  0  0  0  0
    8.9226  -13.8822   21.2482 C   0  0  1  0  0  0  0  0  0  0  0  0
    8.0158  -14.8462   20.5601 C   0  0  0  0  0  0  0  0  0  0  0  0
    7.7834  -14.4945   19.1374 C   0  0  0  0  0  0  0  0  0  0  0  0
    8.3670  -13.4668   18.4050 C   0  0  0  0  0  0  0  0  0  0  0  0
    7.8885  -13.4852   17.1391 N   0  0  0  0  0  0  0  0  0  0  0  0
    7.0254  -14.5020   17.0831 C   0  0  0  0  0  0  0  0  0  0  0  0
    6.9536  -15.1138   18.2732 N   0  0  0  0  0  0  0  0  0  0  0  0
    9.1094  -14.1931   22.6801 C   0  0  0  0  0  0  0  0  0  0  0  0
   10.1107  -14.8603   23.0242 O   0  0  0  0  0  0  0  0  0  0  0  0
    8.1754  -13.7463   23.6358 N   0  0  0  0  0  0  0  0  0  0  0  0
    8.3285  -14.0655   25.0228 C   0  0  1  0  0  0  0  0  0  0  0  0
    7.3787  -13.2374   25.8383 C   0  0  0  0  0  0  0  0  0  0  0  0
    5.6876  -13.3193   25.2503 S   0  0  0  0  0  0  0  0  0  0  0  0
    8.1837  -15.5197   25.2868 C   0  0  0  0  0  0  0  0  0  0  0  0
    7.4573  -16.2804   24.6245 O   0  0  0  0  0  0  0  0  0  0  0  0
   11.7233  -19.6030   25.4006 N   0  0  0  0  0  0  0  0  0  0  0  0
   10.3623  -19.3018   25.1972 C   0  0  0  0  0  0  0  0  0  0  0  0
    9.5065  -20.1874   25.0114 O   0  0  0  0  0  0  0  0  0  0  0  0
    9.9151  -17.8946   25.2009 C   0  0  0  0  0  0  0  0  0  0  0  0
    9.1209  -17.5323   26.4396 C   0  0  2  0  0  0  0  0  0  0  0  0
    8.9166  -16.0758   26.3576 N   0  0  0  0  0  0  0  0  0  0  0  0
    9.8130  -17.8593   27.6959 C   0  0  0  0  0  0  0  0  0  0  0  0
   10.3744  -16.9625   28.3723 O   0  0  0  0  0  0  0  0  0  0  0  0
    9.8683  -19.1561   28.1718 O   0  0  0  0  0  0  0  0  0  0  0  0
  2  1  1  6
  3  2  1  0
  4  3  1  0
  4  8  1  0
  5  4  2  0
  6  5  1  0
  6  7  1  0
  7  8  2  0
  9  2  1  0
  9 11  1  0
 10  9  2  0
 11 12  1  0
 12 15  1  0
 12 13  1  1
 14 13  1  0
 15 16  2  0
 15 22  1  0
 18 17  1  0
 18 19  2  0
 20 18  1  0
 21 20  1  6
 21 23  1  0
 22 21  1  0
 23 25  1  0
 24 23  2  0
M  END
$$$$
