HCN.pdb
     RDKit          3D

 25 25  0  0  1  0  0  0  0  0999 V2000
    9.8843  -14.7533   20.7199 N   0  0  0  0  0  0  0  0  0  0  0  0
    8.7969  -14.2916   21.5830 C   0  0  1  0  0  0  0  0  0  0  0  0
    7.4935  -14.7300   21.0052 C   0  0  0  0  0  0  0  0  0  0  0  0
    7.3215  -14.3011   19.5953 C   0  0  0  0  0  0  0  0  0  0  0  0
    7.3688  -13.0091   19.0835 C   0  0  0  0  0  0  0  0  0  0  0  0
    7.1655  -13.0447   17.7458 N   0  0  0  0  0  0  0  0  0  0  0  0
    6.9952  -14.3306   17.4302 C   0  0  0  0  0  0  0  0  0  0  0  0
    7.0862  -15.0925   18.5288 N   0  0  0  0  0  0  0  0  0  0  0  0
    9.0042  -14.7763   22.9629 C   0  0  0  0  0  0  0  0  0  0  0  0
    9.9980  -15.4981   23.2030 O   0  0  0  0  0  0  0  0  0  0  0  0
    8.0977  -14.4313   23.9849 N   0  0  0  0  0  0  0  0  0  0  0  0
    8.3866  -14.7214   25.3566 C   0  0  1  0  0  0  0  0  0  0  0  0
    7.4665  -13.9335   26.2429 C   0  0  0  0  0  0  0  0  0  0  0  0
    5.7399  -14.3633   26.0273 S   0  0  0  0  0  0  0  0  0  0  0  0
    8.3447  -16.1773   25.6467 C   0  0  0  0  0  0  0  0  0  0  0  0
    7.3615  -16.9049   25.4260 O   0  0  0  0  0  0  0  0  0  0  0  0
    9.3713  -18.8430   23.9193 N   0  0  0  0  0  0  0  0  0  0  0  0
   10.5789  -19.1331   24.5840 C   0  0  0  0  0  0  0  0  0  0  0  0
   11.5425  -19.6709   24.0065 O   0  0  0  0  0  0  0  0  0  0  0  0
   10.7273  -18.7957   26.0138 C   0  0  0  0  0  0  0  0  0  0  0  0
    9.4715  -18.1923   26.6099 C   0  0  2  0  0  0  0  0  0  0  0  0
    9.4935  -16.7751   26.2089 N   0  0  0  0  0  0  0  0  0  0  0  0
    9.4163  -18.2847   28.0771 C   0  0  0  0  0  0  0  0  0  0  0  0
    9.5909  -17.2670   28.7919 O   0  0  0  0  0  0  0  0  0  0  0  0
    9.1719  -19.4866   28.7148 O   0  0  0  0  0  0  0  0  0  0  0  0
  2  1  1  6
  3  2  1  0
  4  3  1  0
  4  8  1  0
  5  4  2  0
  6  5  1  0
  6  7  1  0
  7  8  2  0
  9  2  1  0
  9 11  1  0
 10  9  2  0
 11 12  1  0
 12 15  1  0
 12 13  1  1
 14 13  1  0
 15 16  2  0
 15 22  1  0
 18 17  1  0
 18 19  2  0
 20 18  1  0
 21 20  1  1
 21 23  1  0
 22 21  1  0
 23 25  1  0
 24 23  2  0
M  END
$$$$
