HCN.pdb
     RDKit          3D

 25 25  0  0  1  0  0  0  0  0999 V2000
   11.1076  -13.3374   19.2444 N   0  0  0  0  0  0  0  0  0  0  0  0
    9.8306  -13.8754   19.7138 C   0  0  1  0  0  0  0  0  0  0  0  0
    9.4917  -15.0931   18.9219 C   0  0  0  0  0  0  0  0  0  0  0  0
    9.0441  -14.7714   17.5443 C   0  0  0  0  0  0  0  0  0  0  0  0
    9.0408  -13.5316   16.9147 C   0  0  0  0  0  0  0  0  0  0  0  0
    8.5567  -13.6639   15.6577 N   0  0  0  0  0  0  0  0  0  0  0  0
    8.2646  -14.9577   15.5066 C   0  0  0  0  0  0  0  0  0  0  0  0
    8.5517  -15.6310   16.6291 N   0  0  0  0  0  0  0  0  0  0  0  0
    9.8933  -14.1355   21.1665 C   0  0  0  0  0  0  0  0  0  0  0  0
   11.0045  -14.3874   21.6842 O   0  0  0  0  0  0  0  0  0  0  0  0
    8.7224  -14.1007   21.9496 N   0  0  0  0  0  0  0  0  0  0  0  0
    8.7654  -14.3746   23.3540 C   0  0  1  0  0  0  0  0  0  0  0  0
    7.5141  -13.8622   24.0057 C   0  0  0  0  0  0  0  0  0  0  0  0
    7.3976  -14.2891   25.7425 S   0  0  0  0  0  0  0  0  0  0  0  0
    9.0074  -15.8112   23.6419 C   0  0  0  0  0  0  0  0  0  0  0  0
    8.2771  -16.7353   23.2450 O   0  0  0  0  0  0  0  0  0  0  0  0
   13.1835  -16.7771   22.6662 N   0  0  0  0  0  0  0  0  0  0  0  0
   12.2188  -17.7066   23.1019 C   0  0  0  0  0  0  0  0  0  0  0  0
   11.6424  -18.4831   22.3170 O   0  0  0  0  0  0  0  0  0  0  0  0
   11.8652  -17.7784   24.5336 C   0  0  0  0  0  0  0  0  0  0  0  0
   10.3881  -17.5547   24.7874 C   0  0  2  0  0  0  0  0  0  0  0  0
   10.1384  -16.1514   24.4155 N   0  0  0  0  0  0  0  0  0  0  0  0
    9.9955  -17.7665   26.1892 C   0  0  0  0  0  0  0  0  0  0  0  0
    9.5486  -16.8188   26.8814 O   0  0  0  0  0  0  0  0  0  0  0  0
   10.1041  -19.0076   26.7884 O   0  0  0  0  0  0  0  0  0  0  0  0
  2  1  1  6
  3  2  1  0
  4  3  1  0
  4  8  1  0
  5  4  2  0
  6  5  1  0
  6  7  1  0
  7  8  2  0
  9  2  1  0
  9 11  1  0
 10  9  2  0
 11 12  1  0
 12 15  1  0
 12 13  1  6
 14 13  1  0
 15 16  2  0
 15 22  1  0
 18 17  1  0
 18 19  2  0
 20 18  1  0
 21 20  1  1
 21 23  1  0
 22 21  1  0
 23 25  1  0
 24 23  2  0
M  END
$$$$
