HCN.pdb
     RDKit          3D

 25 25  0  0  1  0  0  0  0  0999 V2000
   10.4912  -14.1049   19.5484 N   0  0  0  0  0  0  0  0  0  0  0  0
    9.1660  -14.0312   20.1638 C   0  0  1  0  0  0  0  0  0  0  0  0
    8.2314  -14.9266   19.4224 C   0  0  0  0  0  0  0  0  0  0  0  0
    8.0517  -14.5176   18.0074 C   0  0  0  0  0  0  0  0  0  0  0  0
    7.9961  -13.2276   17.4914 C   0  0  0  0  0  0  0  0  0  0  0  0
    7.8245  -13.2840   16.1500 N   0  0  0  0  0  0  0  0  0  0  0  0
    7.7742  -14.5805   15.8363 C   0  0  0  0  0  0  0  0  0  0  0  0
    7.9088  -15.3290   16.9397 N   0  0  0  0  0  0  0  0  0  0  0  0
    9.2554  -14.3599   21.6011 C   0  0  0  0  0  0  0  0  0  0  0  0
   10.1957  -15.0866   21.9936 O   0  0  0  0  0  0  0  0  0  0  0  0
    8.2982  -13.8638   22.5082 N   0  0  0  0  0  0  0  0  0  0  0  0
    8.3759  -14.1704   23.9043 C   0  0  1  0  0  0  0  0  0  0  0  0
    7.3221  -13.4029   24.6482 C   0  0  0  0  0  0  0  0  0  0  0  0
    7.2365  -13.8265   26.3876 S   0  0  0  0  0  0  0  0  0  0  0  0
    8.3053  -15.6305   24.1664 C   0  0  0  0  0  0  0  0  0  0  0  0
    7.3226  -16.3416   23.8954 O   0  0  0  0  0  0  0  0  0  0  0  0
   12.6292  -18.5246   24.5833 N   0  0  0  0  0  0  0  0  0  0  0  0
   11.5269  -17.8773   23.9914 C   0  0  0  0  0  0  0  0  0  0  0  0
   11.6514  -16.8415   23.3111 O   0  0  0  0  0  0  0  0  0  0  0  0
   10.1696  -18.4299   24.1718 C   0  0  0  0  0  0  0  0  0  0  0  0
    9.3508  -17.6604   25.1885 C   0  0  2  0  0  0  0  0  0  0  0  0
    9.4245  -16.2526   24.7611 N   0  0  0  0  0  0  0  0  0  0  0  0
    9.8596  -17.7814   26.5634 C   0  0  0  0  0  0  0  0  0  0  0  0
   10.1970  -16.7627   27.2156 O   0  0  0  0  0  0  0  0  0  0  0  0
    9.9826  -19.0123   27.1806 O   0  0  0  0  0  0  0  0  0  0  0  0
  2  1  1  6
  3  2  1  0
  4  3  1  0
  4  8  1  0
  5  4  2  0
  6  5  1  0
  6  7  1  0
  7  8  2  0
  9  2  1  0
  9 11  1  0
 10  9  2  0
 11 12  1  0
 12 15  1  0
 12 13  1  1
 14 13  1  0
 15 16  2  0
 15 22  1  0
 18 17  1  0
 18 19  2  0
 20 18  1  0
 21 20  1  6
 21 23  1  0
 22 21  1  0
 23 25  1  0
 24 23  2  0
M  END
$$$$
