SRY.pdb
     RDKit          3D

 30 30  0  0  1  0  0  0  0  0999 V2000
   23.8155  -19.1018  -16.1747 O   0  0  0  0  0  0  0  0  0  0  0  0
   23.6668  -17.7243  -16.3545 C   0  0  0  0  0  0  0  0  0  0  0  0
   24.7180  -17.1810  -17.2965 C   0  0  2  0  0  0  0  0  0  0  0  0
   26.0308  -17.4808  -16.7590 N   0  0  0  0  0  0  0  0  0  0  0  0
   24.6153  -15.7106  -17.4615 C   0  0  0  0  0  0  0  0  0  0  0  0
   25.0504  -14.9314  -16.5775 O   0  0  0  0  0  0  0  0  0  0  0  0
   22.1900  -10.5961  -24.2986 N   0  0  0  0  0  0  0  0  0  0  0  0
   21.3493  -11.2254  -23.3254 C   0  0  0  0  0  0  0  0  0  0  0  0
   20.1011  -11.4196  -23.5893 N   0  0  0  0  0  0  0  0  0  0  0  0
   21.8658  -11.6338  -22.0876 N   0  0  0  0  0  0  0  0  0  0  0  0
   23.2236  -11.3046  -21.7133 C   0  0  0  0  0  0  0  0  0  0  0  0
   23.5417  -11.7908  -20.3206 C   0  0  0  0  0  0  0  0  0  0  0  0
   23.5964  -13.3136  -20.2488 C   0  0  0  0  0  0  0  0  0  0  0  0
   23.8666  -13.7180  -18.8521 C   0  0  2  0  0  0  0  0  0  0  0  0
   24.0351  -15.0932  -18.5969 N   0  0  0  0  0  0  0  0  0  0  0  0
   22.8844  -13.1520  -17.8755 C   0  0  0  0  0  0  0  0  0  0  0  0
   21.8207  -13.7480  -17.6247 O   0  0  0  0  0  0  0  0  0  0  0  0
   19.4562  -11.8804  -22.9019 O   0  0  0  0  0  0  0  0  0  0  0  0
   20.0777   -7.7275  -11.6640 C   0  0  0  0  0  0  0  0  0  0  0  0
   20.8537   -8.4438  -12.5579 C   0  0  0  0  0  0  0  0  0  0  0  0
   21.5417   -7.7974  -13.5598 C   0  0  0  0  0  0  0  0  0  0  0  0
   22.3116   -8.5036  -14.4475 C   0  0  0  0  0  0  0  0  0  0  0  0
   22.3795   -9.8719  -14.3123 C   0  0  0  0  0  0  0  0  0  0  0  0
   23.2025  -10.6284  -15.2612 C   0  0  1  0  0  0  0  0  0  0  0  0
   22.2860  -11.2844  -16.3031 N   0  0  0  0  0  0  0  0  0  0  0  0
   23.1814  -11.9402  -17.2473 C   0  0  0  0  0  0  0  0  0  0  0  0
   21.6139  -10.1780  -17.0139 O   0  0  0  0  0  0  0  0  0  0  0  0
   20.4506   -9.8499  -16.6867 C   0  0  0  0  0  0  0  0  0  0  0  0
   21.6968  -10.5244  -13.3164 C   0  0  0  0  0  0  0  0  0  0  0  0
   20.9265   -9.8095  -12.4297 O   0  0  0  0  0  0  0  0  0  0  0  0
  2  1  1  0
  3  2  1  0
  3  4  1  1
  5  6  2  0
  5  3  1  0
  7  8  1  0
  8  9  2  0
 10 11  1  0
 10  8  1  0
 11 12  1  0
 12 13  1  0
 14 13  1  6
 14 15  1  0
 15  5  1  0
 16 14  1  0
 17 16  2  0
 18 19  1  0
 19 20  2  0
 19 29  1  0
 20 21  1  0
 21 22  2  0
 22 23  1  0
 24 23  1  1
 24 25  1  0
 25 16  1  0
 26 30  1  0
 26 24  1  0
 27 26  2  0
 28 22  1  0
 29 28  2  0
M  END
$$$$
