SRY.pdb
     RDKit          3D

 30 30  0  0  1  0  0  0  0  0999 V2000
   26.4426  -16.8479  -17.4338 O   0  0  0  0  0  0  0  0  0  0  0  0
   27.6244  -17.3347  -16.8696 C   0  0  0  0  0  0  0  0  0  0  0  0
   27.7615  -18.8244  -17.0926 C   0  0  2  0  0  0  0  0  0  0  0  0
   27.8875  -19.0770  -18.5148 N   0  0  0  0  0  0  0  0  0  0  0  0
   26.5827  -19.5754  -16.5965 C   0  0  0  0  0  0  0  0  0  0  0  0
   25.6228  -19.8453  -17.3606 O   0  0  0  0  0  0  0  0  0  0  0  0
   26.5362  -20.1651   -8.5987 N   0  0  0  0  0  0  0  0  0  0  0  0
   25.4021  -20.8850   -9.0941 C   0  0  0  0  0  0  0  0  0  0  0  0
   24.2976  -20.8750   -8.4268 N   0  0  0  0  0  0  0  0  0  0  0  0
   25.4766  -21.6016  -10.2970 N   0  0  0  0  0  0  0  0  0  0  0  0
   26.6192  -21.4530  -11.1713 C   0  0  0  0  0  0  0  0  0  0  0  0
   26.2800  -20.6145  -12.3792 C   0  0  0  0  0  0  0  0  0  0  0  0
   25.5376  -21.4205  -13.4404 C   0  0  0  0  0  0  0  0  0  0  0  0
   25.3167  -20.5637  -14.6254 C   0  0  2  0  0  0  0  0  0  0  0  0
   26.4556  -20.0315  -15.2614 N   0  0  0  0  0  0  0  0  0  0  0  0
   24.3299  -19.4658  -14.3815 C   0  0  0  0  0  0  0  0  0  0  0  0
   24.6356  -18.4773  -13.6894 O   0  0  0  0  0  0  0  0  0  0  0  0
   23.4555  -21.4142   -8.7442 O   0  0  0  0  0  0  0  0  0  0  0  0
   20.6357  -22.1721  -19.6492 C   0  0  0  0  0  0  0  0  0  0  0  0
   20.8938  -21.1396  -18.7650 C   0  0  0  0  0  0  0  0  0  0  0  0
   22.1815  -20.6951  -18.5670 C   0  0  0  0  0  0  0  0  0  0  0  0
   22.4414  -19.6723  -17.6918 C   0  0  0  0  0  0  0  0  0  0  0  0
   21.3851  -19.1023  -17.0176 C   0  0  0  0  0  0  0  0  0  0  0  0
   21.6618  -18.0084  -16.0812 C   0  0  1  0  0  0  0  0  0  0  0  0
   21.9915  -18.6022  -14.7048 N   0  0  0  0  0  0  0  0  0  0  0  0
   23.0559  -19.5678  -14.9453 C   0  0  0  0  0  0  0  0  0  0  0  0
   20.7909  -19.3513  -14.2821 O   0  0  0  0  0  0  0  0  0  0  0  0
   20.8346  -20.6009  -14.2141 C   0  0  0  0  0  0  0  0  0  0  0  0
   20.0982  -19.5392  -17.2091 C   0  0  0  0  0  0  0  0  0  0  0  0
   19.8451  -20.5656  -18.0885 O   0  0  0  0  0  0  0  0  0  0  0  0
  2  1  1  0
  3  2  1  0
  3  4  1  6
  5  6  2  0
  5  3  1  0
  7  8  1  0
  8  9  2  0
 10 11  1  0
 10  8  1  0
 11 12  1  0
 12 13  1  0
 14 13  1  1
 14 15  1  0
 15  5  1  0
 16 14  1  0
 17 16  2  0
 18 19  1  0
 19 20  2  0
 19 29  1  0
 20 21  1  0
 21 22  2  0
 22 23  1  0
 24 23  1  1
 24 25  1  0
 25 16  1  0
 26 30  1  0
 26 24  1  0
 27 26  2  0
 28 22  1  0
 29 28  2  0
M  END
$$$$
