SRY.pdb
     RDKit          3D

 30 30  0  0  1  0  0  0  0  0999 V2000
   21.3505  -29.9987   -8.9304 O   0  0  0  0  0  0  0  0  0  0  0  0
   22.1838  -30.7209   -9.7883 C   0  0  0  0  0  0  0  0  0  0  0  0
   22.0347  -32.2097   -9.5673 C   0  0  2  0  0  0  0  0  0  0  0  0
   20.6748  -32.5984   -9.8871 N   0  0  0  0  0  0  0  0  0  0  0  0
   22.3030  -32.5964   -8.1608 C   0  0  0  0  0  0  0  0  0  0  0  0
   21.3719  -32.6527   -7.3195 O   0  0  0  0  0  0  0  0  0  0  0  0
   29.7233  -35.9990   -5.2891 N   0  0  0  0  0  0  0  0  0  0  0  0
   29.1739  -35.0621   -6.2220 C   0  0  0  0  0  0  0  0  0  0  0  0
   29.9315  -34.5457   -7.1302 N   0  0  0  0  0  0  0  0  0  0  0  0
   27.8212  -34.6983   -6.1613 N   0  0  0  0  0  0  0  0  0  0  0  0
   26.9135  -35.3895   -5.2723 C   0  0  0  0  0  0  0  0  0  0  0  0
   25.4843  -34.9684   -5.5119 C   0  0  0  0  0  0  0  0  0  0  0  0
   25.3975  -33.5737   -6.1235 C   0  0  0  0  0  0  0  0  0  0  0  0
   23.9757  -33.2408   -6.3576 C   0  0  2  0  0  0  0  0  0  0  0  0
   23.5935  -32.9219   -7.6755 N   0  0  0  0  0  0  0  0  0  0  0  0
   23.4564  -32.1914   -5.4260 C   0  0  0  0  0  0  0  0  0  0  0  0
   23.8185  -31.0057   -5.5374 O   0  0  0  0  0  0  0  0  0  0  0  0
   29.5739  -33.8256   -7.8041 O   0  0  0  0  0  0  0  0  0  0  0  0
   18.2721  -27.2690   -0.9334 C   0  0  0  0  0  0  0  0  0  0  0  0
   18.8970  -28.1873   -1.7584 C   0  0  0  0  0  0  0  0  0  0  0  0
   18.2930  -29.3896   -2.0490 C   0  0  0  0  0  0  0  0  0  0  0  0
   18.9088  -30.3021   -2.8661 C   0  0  0  0  0  0  0  0  0  0  0  0
   20.1433  -29.9868   -3.3874 C   0  0  0  0  0  0  0  0  0  0  0  0
   20.8031  -30.9620   -4.2613 C   0  0  2  0  0  0  0  0  0  0  0  0
   21.9560  -31.6210   -3.4916 N   0  0  0  0  0  0  0  0  0  0  0  0
   22.5551  -32.5648   -4.4261 C   0  0  0  0  0  0  0  0  0  0  0  0
   21.3313  -32.3998   -2.4033 O   0  0  0  0  0  0  0  0  0  0  0  0
   20.7478  -31.8008   -1.4713 C   0  0  0  0  0  0  0  0  0  0  0  0
   20.7527  -28.7904   -3.1029 C   0  0  0  0  0  0  0  0  0  0  0  0
   20.1290  -27.8800   -2.2826 O   0  0  0  0  0  0  0  0  0  0  0  0
  2  1  1  0
  3  2  1  0
  3  4  1  1
  5  6  2  0
  5  3  1  0
  7  8  1  0
  8  9  2  0
 10 11  1  0
 10  8  1  0
 11 12  1  0
 12 13  1  0
 14 13  1  6
 14 15  1  0
 15  5  1  0
 16 14  1  0
 17 16  2  0
 18 19  1  0
 19 20  2  0
 19 29  1  0
 20 21  1  0
 21 22  2  0
 22 23  1  0
 24 23  1  6
 24 25  1  0
 25 16  1  0
 26 30  1  0
 26 24  1  0
 27 26  2  0
 28 22  1  0
 29 28  2  0
M  END
$$$$
