SRY.pdb
     RDKit          3D

 30 30  0  0  1  0  0  0  0  0999 V2000
   20.6460  -14.2701  -15.5903 O   0  0  0  0  0  0  0  0  0  0  0  0
   20.7066  -12.9852  -16.1357 C   0  0  0  0  0  0  0  0  0  0  0  0
   19.3297  -12.3659  -16.2257 C   0  0  2  0  0  0  0  0  0  0  0  0
   18.5534  -13.0877  -17.2150 N   0  0  0  0  0  0  0  0  0  0  0  0
   19.3825  -10.9413  -16.6350 C   0  0  0  0  0  0  0  0  0  0  0  0
   19.1942  -10.6076  -17.8314 O   0  0  0  0  0  0  0  0  0  0  0  0
   12.7845   -7.2226  -15.6603 N   0  0  0  0  0  0  0  0  0  0  0  0
   13.5630   -8.1860  -16.3784 C   0  0  0  0  0  0  0  0  0  0  0  0
   13.0720   -8.7473  -17.4316 N   0  0  0  0  0  0  0  0  0  0  0  0
   14.8539   -8.5278  -15.9511 N   0  0  0  0  0  0  0  0  0  0  0  0
   15.8345   -7.4996  -15.6801 C   0  0  0  0  0  0  0  0  0  0  0  0
   17.1646   -8.0986  -15.2935 C   0  0  0  0  0  0  0  0  0  0  0  0
   18.1738   -8.0264  -16.4350 C   0  0  0  0  0  0  0  0  0  0  0  0
   19.4872   -8.4967  -15.9438 C   0  0  2  0  0  0  0  0  0  0  0  0
   19.6418   -9.8809  -15.7322 N   0  0  0  0  0  0  0  0  0  0  0  0
   19.9614   -7.7567  -14.7329 C   0  0  0  0  0  0  0  0  0  0  0  0
   19.6247   -8.1217  -13.5914 O   0  0  0  0  0  0  0  0  0  0  0  0
   13.5940   -9.4916  -17.9553 O   0  0  0  0  0  0  0  0  0  0  0  0
   25.3621   -6.3531  -18.5564 C   0  0  0  0  0  0  0  0  0  0  0  0
   24.7215   -6.3606  -17.3300 C   0  0  0  0  0  0  0  0  0  0  0  0
   24.7046   -5.2307  -16.5439 C   0  0  0  0  0  0  0  0  0  0  0  0
   24.0710   -5.2341  -15.3282 C   0  0  0  0  0  0  0  0  0  0  0  0
   23.4537   -6.3928  -14.9140 C   0  0  0  0  0  0  0  0  0  0  0  0
   22.7758   -6.3978  -13.6138 C   0  0  1  0  0  0  0  0  0  0  0  0
   21.3435   -5.8774  -13.7966 N   0  0  0  0  0  0  0  0  0  0  0  0
   20.7913   -6.6462  -14.9045 C   0  0  0  0  0  0  0  0  0  0  0  0
   21.4696   -4.4745  -14.2407 O   0  0  0  0  0  0  0  0  0  0  0  0
   21.9179   -3.6140  -13.4492 C   0  0  0  0  0  0  0  0  0  0  0  0
   23.4657   -7.5238  -15.6914 C   0  0  0  0  0  0  0  0  0  0  0  0
   24.1032   -7.5130  -16.9097 O   0  0  0  0  0  0  0  0  0  0  0  0
  2  1  1  0
  3  2  1  0
  3  4  1  6
  5  6  2  0
  5  3  1  0
  7  8  1  0
  8  9  2  0
 10 11  1  0
 10  8  1  0
 11 12  1  0
 12 13  1  0
 14 13  1  1
 14 15  1  0
 15  5  1  0
 16 14  1  0
 17 16  2  0
 18 19  1  0
 19 20  2  0
 19 29  1  0
 20 21  1  0
 21 22  2  0
 22 23  1  0
 24 23  1  1
 24 25  1  0
 25 16  1  0
 26 30  1  0
 26 24  1  0
 27 26  2  0
 28 22  1  0
 29 28  2  0
M  END
$$$$
