SRY.pdb
     RDKit          3D

 30 30  0  0  1  0  0  0  0  0999 V2000
   10.7031   -9.9596   -8.1585 O   0  0  0  0  0  0  0  0  0  0  0  0
   12.0018   -9.6230   -8.5484 C   0  0  0  0  0  0  0  0  0  0  0  0
   12.4060  -10.3701   -9.7998 C   0  0  2  0  0  0  0  0  0  0  0  0
   12.4055  -11.7926   -9.5187 N   0  0  0  0  0  0  0  0  0  0  0  0
   13.7646   -9.9948  -10.2615 C   0  0  0  0  0  0  0  0  0  0  0  0
   14.7824  -10.5729   -9.8053 O   0  0  0  0  0  0  0  0  0  0  0  0
   17.7058   -6.1682  -16.8916 N   0  0  0  0  0  0  0  0  0  0  0  0
   18.7832   -6.8230  -16.2132 C   0  0  0  0  0  0  0  0  0  0  0  0
   20.0010   -6.4805  -16.4681 N   0  0  0  0  0  0  0  0  0  0  0  0
   18.5313   -7.8331  -15.2739 N   0  0  0  0  0  0  0  0  0  0  0  0
   17.1758   -8.2470  -14.9856 C   0  0  0  0  0  0  0  0  0  0  0  0
   16.8912   -8.1993  -13.5043 C   0  0  0  0  0  0  0  0  0  0  0  0
   15.4868   -8.6977  -13.1789 C   0  0  0  0  0  0  0  0  0  0  0  0
   15.2464   -8.5395  -11.7282 C   0  0  2  0  0  0  0  0  0  0  0  0
   14.0083   -8.9847  -11.2243 N   0  0  0  0  0  0  0  0  0  0  0  0
   15.5080   -7.1506  -11.2369 C   0  0  0  0  0  0  0  0  0  0  0  0
   14.6983   -6.2325  -11.4626 O   0  0  0  0  0  0  0  0  0  0  0  0
   20.8039   -6.8181  -15.8831 O   0  0  0  0  0  0  0  0  0  0  0  0
   22.1239   -7.2110  -13.0748 C   0  0  0  0  0  0  0  0  0  0  0  0
   21.1871   -6.8585  -12.1196 C   0  0  0  0  0  0  0  0  0  0  0  0
   20.8207   -5.5421  -11.9531 C   0  0  0  0  0  0  0  0  0  0  0  0
   19.8929   -5.1886  -11.0077 C   0  0  0  0  0  0  0  0  0  0  0  0
   19.3382   -6.1806  -10.2309 C   0  0  0  0  0  0  0  0  0  0  0  0
   18.3458   -5.8039   -9.2193 C   0  0  1  0  0  0  0  0  0  0  0  0
   16.9846   -5.6150   -9.9027 N   0  0  0  0  0  0  0  0  0  0  0  0
   16.6792   -6.9001  -10.5179 C   0  0  0  0  0  0  0  0  0  0  0  0
   17.2017   -4.6366  -10.9876 O   0  0  0  0  0  0  0  0  0  0  0  0
   17.2554   -5.0322  -12.1745 C   0  0  0  0  0  0  0  0  0  0  0  0
   19.6977   -7.4955  -10.3902 C   0  0  0  0  0  0  0  0  0  0  0  0
   20.6290   -7.8425  -11.3405 O   0  0  0  0  0  0  0  0  0  0  0  0
  2  1  1  0
  3  2  1  0
  3  4  1  1
  5  6  2  0
  5  3  1  0
  7  8  1  0
  8  9  2  0
 10 11  1  0
 10  8  1  0
 11 12  1  0
 12 13  1  0
 14 13  1  6
 14 15  1  0
 15  5  1  0
 16 14  1  0
 17 16  2  0
 18 19  1  0
 19 20  2  0
 19 29  1  0
 20 21  1  0
 21 22  2  0
 22 23  1  0
 24 23  1  1
 24 25  1  0
 25 16  1  0
 26 30  1  0
 26 24  1  0
 27 26  2  0
 28 22  1  0
 29 28  2  0
M  END
$$$$
