SRY.pdb
     RDKit          3D

 30 30  0  0  1  0  0  0  0  0999 V2000
   22.7353  -21.3022  -11.1629 O   0  0  0  0  0  0  0  0  0  0  0  0
   23.6509  -20.9303  -10.1754 C   0  0  0  0  0  0  0  0  0  0  0  0
   25.0694  -20.9915  -10.6965 C   0  0  2  0  0  0  0  0  0  0  0  0
   25.9668  -20.4830   -9.6774 N   0  0  0  0  0  0  0  0  0  0  0  0
   25.2525  -20.1715  -11.9188 C   0  0  0  0  0  0  0  0  0  0  0  0
   25.2213  -18.9169  -11.8633 O   0  0  0  0  0  0  0  0  0  0  0  0
   30.0585  -23.3142  -15.6016 N   0  0  0  0  0  0  0  0  0  0  0  0
   28.9279  -23.0989  -16.4532 C   0  0  0  0  0  0  0  0  0  0  0  0
   28.3222  -24.1099  -16.9789 N   0  0  0  0  0  0  0  0  0  0  0  0
   28.4699  -21.8016  -16.7236 N   0  0  0  0  0  0  0  0  0  0  0  0
   28.9394  -20.6788  -15.9420 C   0  0  0  0  0  0  0  0  0  0  0  0
   27.8861  -20.2095  -14.9686 C   0  0  0  0  0  0  0  0  0  0  0  0
   26.4779  -20.5465  -15.4486 C   0  0  0  0  0  0  0  0  0  0  0  0
   25.5022  -20.0651  -14.4468 C   0  0  2  0  0  0  0  0  0  0  0  0
   25.4701  -20.7271  -13.2036 N   0  0  0  0  0  0  0  0  0  0  0  0
   24.1102  -19.9594  -14.9853 C   0  0  0  0  0  0  0  0  0  0  0  0
   23.2000  -20.6844  -14.5433 O   0  0  0  0  0  0  0  0  0  0  0  0
   27.4987  -23.9897  -17.6177 O   0  0  0  0  0  0  0  0  0  0  0  0
   17.9352  -18.9580  -12.0182 C   0  0  0  0  0  0  0  0  0  0  0  0
   19.0417  -18.5822  -12.7590 C   0  0  0  0  0  0  0  0  0  0  0  0
   19.7000  -19.4999  -13.5460 C   0  0  0  0  0  0  0  0  0  0  0  0
   20.7967  -19.1315  -14.2814 C   0  0  0  0  0  0  0  0  0  0  0  0
   21.2224  -17.8241  -14.2134 C   0  0  0  0  0  0  0  0  0  0  0  0
   22.3954  -17.4288  -14.9994 C   0  0  2  0  0  0  0  0  0  0  0  0
   22.5504  -18.3938  -16.1829 N   0  0  0  0  0  0  0  0  0  0  0  0
   23.8475  -19.0306  -15.9951 C   0  0  0  0  0  0  0  0  0  0  0  0
   22.6337  -17.5505  -17.3925 O   0  0  0  0  0  0  0  0  0  0  0  0
   21.6635  -17.5063  -18.1828 C   0  0  0  0  0  0  0  0  0  0  0  0
   20.5720  -16.9026  -13.4314 C   0  0  0  0  0  0  0  0  0  0  0  0
   19.4727  -17.2794  -12.6965 O   0  0  0  0  0  0  0  0  0  0  0  0
  2  1  1  0
  3  2  1  0
  3  4  1  1
  5  6  2  0
  5  3  1  0
  7  8  1  0
  8  9  2  0
 10 11  1  0
 10  8  1  0
 11 12  1  0
 12 13  1  0
 14 13  1  6
 14 15  1  0
 15  5  1  0
 16 14  1  0
 17 16  2  0
 18 19  1  0
 19 20  2  0
 19 29  1  0
 20 21  1  0
 21 22  2  0
 22 23  1  0
 24 23  1  1
 24 25  1  0
 25 16  1  0
 26 30  1  0
 26 24  1  0
 27 26  2  0
 28 22  1  0
 29 28  2  0
M  END
$$$$
