SRY.pdb
     RDKit          3D

 30 30  0  0  1  0  0  0  0  0999 V2000
   21.0996  -23.0112  -15.7449 O   0  0  0  0  0  0  0  0  0  0  0  0
   20.9030  -24.3605  -16.0494 C   0  0  0  0  0  0  0  0  0  0  0  0
   21.7139  -25.2498  -15.1334 C   0  0  2  0  0  0  0  0  0  0  0  0
   21.0912  -25.2683  -13.8241 N   0  0  0  0  0  0  0  0  0  0  0  0
   23.1064  -24.7652  -14.9716 C   0  0  0  0  0  0  0  0  0  0  0  0
   23.4483  -24.1173  -13.9511 O   0  0  0  0  0  0  0  0  0  0  0  0
   28.1660  -29.8758  -15.9912 N   0  0  0  0  0  0  0  0  0  0  0  0
   28.3147  -29.2847  -17.2867 C   0  0  0  0  0  0  0  0  0  0  0  0
   28.3558  -30.0397  -18.3326 N   0  0  0  0  0  0  0  0  0  0  0  0
   28.4164  -27.8941  -17.4336 N   0  0  0  0  0  0  0  0  0  0  0  0
   28.0478  -27.0117  -16.3484 C   0  0  0  0  0  0  0  0  0  0  0  0
   26.5912  -26.6249  -16.4268 C   0  0  0  0  0  0  0  0  0  0  0  0
   26.4115  -25.1678  -16.8410 C   0  0  0  0  0  0  0  0  0  0  0  0
   25.4539  -24.5218  -15.9175 C   0  0  2  0  0  0  0  0  0  0  0  0
   24.1255  -24.9908  -15.9294 N   0  0  0  0  0  0  0  0  0  0  0  0
   25.4508  -23.0293  -16.0231 C   0  0  0  0  0  0  0  0  0  0  0  0
   24.7427  -22.4525  -16.8690 O   0  0  0  0  0  0  0  0  0  0  0  0
   28.4514  -29.6410  -19.2983 O   0  0  0  0  0  0  0  0  0  0  0  0
   22.8318  -21.3974   -9.9820 C   0  0  0  0  0  0  0  0  0  0  0  0
   23.8259  -21.1645  -10.9158 C   0  0  0  0  0  0  0  0  0  0  0  0
   25.1172  -21.5784  -10.6793 C   0  0  0  0  0  0  0  0  0  0  0  0
   26.1050  -21.3496  -11.6020 C   0  0  0  0  0  0  0  0  0  0  0  0
   25.7741  -20.6970  -12.7682 C   0  0  0  0  0  0  0  0  0  0  0  0
   26.8298  -20.4515  -13.7558 C   0  0  2  0  0  0  0  0  0  0  0  0
   26.3088  -20.8348  -15.1477 N   0  0  0  0  0  0  0  0  0  0  0  0
   26.2575  -22.2909  -15.1539 C   0  0  0  0  0  0  0  0  0  0  0  0
   27.3518  -20.4169  -16.1063 O   0  0  0  0  0  0  0  0  0  0  0  0
   27.4957  -19.2016  -16.3716 C   0  0  0  0  0  0  0  0  0  0  0  0
   24.4893  -20.2809  -13.0121 C   0  0  0  0  0  0  0  0  0  0  0  0
   23.5037  -20.5139  -12.0820 O   0  0  0  0  0  0  0  0  0  0  0  0
  2  1  1  0
  3  2  1  0
  3  4  1  1
  5  6  2  0
  5  3  1  0
  7  8  1  0
  8  9  2  0
 10 11  1  0
 10  8  1  0
 11 12  1  0
 12 13  1  0
 14 13  1  6
 14 15  1  0
 15  5  1  0
 16 14  1  0
 17 16  2  0
 18 19  1  0
 19 20  2  0
 19 29  1  0
 20 21  1  0
 21 22  2  0
 22 23  1  0
 24 23  1  1
 24 25  1  0
 25 16  1  0
 26 30  1  0
 26 24  1  0
 27 26  2  0
 28 22  1  0
 29 28  2  0
M  END
$$$$
