SRY.pdb
     RDKit          3D

 30 30  0  0  1  0  0  0  0  0999 V2000
   22.6989  -12.9238  -16.0231 O   0  0  0  0  0  0  0  0  0  0  0  0
   23.4798  -13.2914  -14.9245 C   0  0  0  0  0  0  0  0  0  0  0  0
   24.7307  -14.0191  -15.3641 C   0  0  2  0  0  0  0  0  0  0  0  0
   25.4371  -13.1989  -16.3287 N   0  0  0  0  0  0  0  0  0  0  0  0
   24.4247  -15.3206  -16.0061 C   0  0  0  0  0  0  0  0  0  0  0  0
   24.8071  -15.5668  -17.1771 O   0  0  0  0  0  0  0  0  0  0  0  0
   27.5853  -21.5845  -14.9816 N   0  0  0  0  0  0  0  0  0  0  0  0
   26.8552  -21.4453  -16.2053 C   0  0  0  0  0  0  0  0  0  0  0  0
   26.4025  -22.4961  -16.8022 N   0  0  0  0  0  0  0  0  0  0  0  0
   26.6257  -20.1800  -16.7640 N   0  0  0  0  0  0  0  0  0  0  0  0
   26.9877  -18.9808  -16.0409 C   0  0  0  0  0  0  0  0  0  0  0  0
   25.7692  -18.2902  -15.4792 C   0  0  0  0  0  0  0  0  0  0  0  0
   24.5665  -18.4137  -16.4093 C   0  0  0  0  0  0  0  0  0  0  0  0
   23.4348  -17.6562  -15.8323 C   0  0  2  0  0  0  0  0  0  0  0  0
   23.6986  -16.3538  -15.3642 N   0  0  0  0  0  0  0  0  0  0  0  0
   22.6933  -18.4179  -14.7793 C   0  0  0  0  0  0  0  0  0  0  0  0
   23.0508  -18.3692  -13.5879 O   0  0  0  0  0  0  0  0  0  0  0  0
   25.8291  -22.4298  -17.6783 O   0  0  0  0  0  0  0  0  0  0  0  0
   18.5894  -14.1085  -13.2646 C   0  0  0  0  0  0  0  0  0  0  0  0
   18.7664  -15.4437  -13.5813 C   0  0  0  0  0  0  0  0  0  0  0  0
   18.6465  -16.4135  -12.6117 C   0  0  0  0  0  0  0  0  0  0  0  0
   18.8211  -17.7375  -12.9215 C   0  0  0  0  0  0  0  0  0  0  0  0
   19.1186  -18.0722  -14.2233 C   0  0  0  0  0  0  0  0  0  0  0  0
   19.3058  -19.4880  -14.5559 C   0  0  2  0  0  0  0  0  0  0  0  0
   20.7432  -19.8964  -14.2054 N   0  0  0  0  0  0  0  0  0  0  0  0
   21.5895  -19.1867  -15.1558 C   0  0  0  0  0  0  0  0  0  0  0  0
   20.8445  -21.3396  -14.5025 O   0  0  0  0  0  0  0  0  0  0  0  0
   21.5106  -21.7213  -15.4917 C   0  0  0  0  0  0  0  0  0  0  0  0
   19.2401  -17.1119  -15.1963 C   0  0  0  0  0  0  0  0  0  0  0  0
   19.0635  -15.7858  -14.8781 O   0  0  0  0  0  0  0  0  0  0  0  0
  2  1  1  0
  3  2  1  0
  3  4  1  6
  5  6  2  0
  5  3  1  0
  7  8  1  0
  8  9  2  0
 10 11  1  0
 10  8  1  0
 11 12  1  0
 12 13  1  0
 14 13  1  1
 14 15  1  0
 15  5  1  0
 16 14  1  0
 17 16  2  0
 18 19  1  0
 19 20  2  0
 19 29  1  0
 20 21  1  0
 21 22  2  0
 22 23  1  0
 24 23  1  1
 24 25  1  0
 25 16  1  0
 26 30  1  0
 26 24  1  0
 27 26  2  0
 28 22  1  0
 29 28  2  0
M  END
$$$$
