SRY.pdb
     RDKit          3D

 30 30  0  0  1  0  0  0  0  0999 V2000
   15.4343   -9.2699  -14.8941 O   0  0  0  0  0  0  0  0  0  0  0  0
   15.8265  -10.4183  -15.5864 C   0  0  0  0  0  0  0  0  0  0  0  0
   16.7797  -11.2534  -14.7609 C   0  0  2  0  0  0  0  0  0  0  0  0
   16.1305  -11.6149  -13.5158 N   0  0  0  0  0  0  0  0  0  0  0  0
   18.0258  -10.5193  -14.4317 C   0  0  0  0  0  0  0  0  0  0  0  0
   18.1136   -9.8394  -13.3791 O   0  0  0  0  0  0  0  0  0  0  0  0
   20.9656  -12.6907  -19.6948 N   0  0  0  0  0  0  0  0  0  0  0  0
   21.5279  -11.4735  -20.1969 C   0  0  0  0  0  0  0  0  0  0  0  0
   21.2130  -11.0642  -21.3795 N   0  0  0  0  0  0  0  0  0  0  0  0
   22.4177  -10.7195  -19.4186 N   0  0  0  0  0  0  0  0  0  0  0  0
   22.5383  -10.9620  -17.9978 C   0  0  0  0  0  0  0  0  0  0  0  0
   21.3807  -10.3612  -17.2387 C   0  0  0  0  0  0  0  0  0  0  0  0
   21.5964  -10.4238  -15.7300 C   0  0  0  0  0  0  0  0  0  0  0  0
   20.4044   -9.8699  -15.0521 C   0  0  2  0  0  0  0  0  0  0  0  0
   19.1771  -10.5304  -15.2570 N   0  0  0  0  0  0  0  0  0  0  0  0
   20.2211   -8.4040  -15.2895 C   0  0  0  0  0  0  0  0  0  0  0  0
   19.3677   -7.9917  -16.0966 O   0  0  0  0  0  0  0  0  0  0  0  0
   21.6059  -10.1779  -21.7803 O   0  0  0  0  0  0  0  0  0  0  0  0
   21.2369    0.0701  -13.5170 C   0  0  0  0  0  0  0  0  0  0  0  0
   21.3711   -1.3069  -13.5334 C   0  0  0  0  0  0  0  0  0  0  0  0
   20.5061   -2.1016  -12.8158 C   0  0  0  0  0  0  0  0  0  0  0  0
   20.6358   -3.4663  -12.8294 C   0  0  0  0  0  0  0  0  0  0  0  0
   21.6502   -4.0208  -13.5769 C   0  0  0  0  0  0  0  0  0  0  0  0
   21.7901   -5.4804  -13.5922 C   0  0  2  0  0  0  0  0  0  0  0  0
   20.8924   -6.0554  -14.6964 N   0  0  0  0  0  0  0  0  0  0  0  0
   21.0253   -7.5024  -14.5883 C   0  0  0  0  0  0  0  0  0  0  0  0
   21.5004   -5.6418  -15.9772 O   0  0  0  0  0  0  0  0  0  0  0  0
   20.9444   -4.7577  -16.6680 C   0  0  0  0  0  0  0  0  0  0  0  0
   22.5171   -3.2360  -14.2953 C   0  0  0  0  0  0  0  0  0  0  0  0
   22.3808   -1.8678  -14.2769 O   0  0  0  0  0  0  0  0  0  0  0  0
  2  1  1  0
  3  2  1  0
  3  4  1  1
  5  6  2  0
  5  3  1  0
  7  8  1  0
  8  9  2  0
 10 11  1  0
 10  8  1  0
 11 12  1  0
 12 13  1  0
 14 13  1  6
 14 15  1  0
 15  5  1  0
 16 14  1  0
 17 16  2  0
 18 19  1  0
 19 20  2  0
 19 29  1  0
 20 21  1  0
 21 22  2  0
 22 23  1  0
 24 23  1  1
 24 25  1  0
 25 16  1  0
 26 30  1  0
 26 24  1  0
 27 26  2  0
 28 22  1  0
 29 28  2  0
M  END
$$$$
