GMI.pdb
     RDKit          3D

 21 20  0  0  1  0  0  0  0  0999 V2000
    8.4791  -17.1770   20.3335 N   0  0  0  0  0  0  0  0  0  0  0  0
    7.6040  -16.6825   21.3785 C   0  0  0  0  0  0  0  0  0  0  0  0
    8.3933  -15.9310   22.3749 C   0  0  0  0  0  0  0  0  0  0  0  0
    9.6408  -15.9254   22.3189 O   0  0  0  0  0  0  0  0  0  0  0  0
    5.2354  -12.1287   26.4390 C   0  0  0  0  0  0  0  0  0  0  0  0
    6.8972  -11.4799   26.7581 S   0  0  0  0  0  0  0  0  0  0  0  0
    8.1315  -12.6596   26.0993 C   0  0  0  0  0  0  0  0  0  0  0  0
    7.4896  -13.5087   25.0456 C   0  0  0  0  0  0  0  0  0  0  0  0
    8.4158  -14.4674   24.3835 C   0  0  2  0  0  0  0  0  0  0  0  0
    7.6660  -15.2271   23.3831 N   0  0  0  0  0  0  0  0  0  0  0  0
    8.9096  -15.4984   25.3663 C   0  0  0  0  0  0  0  0  0  0  0  0
    8.1279  -16.4363   25.6091 O   0  0  0  0  0  0  0  0  0  0  0  0
   12.9660  -18.3552   24.4113 C   0  0  0  0  0  0  0  0  0  0  0  0
   11.7220  -17.7034   24.9364 C   0  0  0  0  0  0  0  0  0  0  0  0
   11.7924  -17.1966   26.3293 C   0  0  2  0  0  0  0  0  0  0  0  0
   12.4455  -18.1955   27.2802 C   0  0  0  0  0  0  0  0  0  0  0  0
   10.6608  -16.4270   26.8872 C   0  0  2  0  0  0  0  0  0  0  0  0
   10.1617  -15.4299   25.9811 N   0  0  0  0  0  0  0  0  0  0  0  0
   10.6749  -16.0717   28.3069 C   0  0  0  0  0  0  0  0  0  0  0  0
   10.6771  -16.8712   29.2810 O   0  0  0  0  0  0  0  0  0  0  0  0
   10.6951  -14.7277   28.7462 O   0  0  0  0  0  0  0  0  0  0  0  0
  2  1  1  0
  3  2  1  0
  3 10  1  0
  4  3  2  0
  6  5  1  0
  7  8  1  0
  7  6  1  0
  9  8  1  1
  9 10  1  0
  9 11  1  0
 11 12  2  0
 13 14  1  0
 15 14  1  0
 15 16  1  1
 17 15  1  0
 18 11  1  0
 17 18  1  6
 19 17  1  0
 20 19  2  0
 21 19  1  0
M  END
$$$$
