GMI.pdb
     RDKit          3D

 21 20  0  0  1  0  0  0  0  0999 V2000
    7.6423  -19.3664   21.6525 N   0  0  0  0  0  0  0  0  0  0  0  0
    7.1154  -18.7493   22.8541 C   0  0  0  0  0  0  0  0  0  0  0  0
    7.7435  -17.4276   23.0518 C   0  0  0  0  0  0  0  0  0  0  0  0
    8.7312  -17.0885   22.3669 O   0  0  0  0  0  0  0  0  0  0  0  0
    6.5578  -10.4883   26.6733 C   0  0  0  0  0  0  0  0  0  0  0  0
    5.9763  -12.1667   26.3144 S   0  0  0  0  0  0  0  0  0  0  0  0
    7.2407  -13.0316   25.3131 C   0  0  0  0  0  0  0  0  0  0  0  0
    6.7905  -14.4367   25.0559 C   0  0  0  0  0  0  0  0  0  0  0  0
    7.7355  -15.2419   24.2349 C   0  0  2  0  0  0  0  0  0  0  0  0
    7.1707  -16.5784   24.0476 N   0  0  0  0  0  0  0  0  0  0  0  0
    9.0294  -15.4659   24.9755 C   0  0  0  0  0  0  0  0  0  0  0  0
    9.9984  -14.7831   24.5955 O   0  0  0  0  0  0  0  0  0  0  0  0
    9.7032  -13.7862   29.4994 C   0  0  0  0  0  0  0  0  0  0  0  0
    9.9317  -14.3747   28.1394 C   0  0  0  0  0  0  0  0  0  0  0  0
   10.2836  -15.8159   28.1060 C   0  0  2  0  0  0  0  0  0  0  0  0
   11.3701  -16.1738   29.1158 C   0  0  0  0  0  0  0  0  0  0  0  0
   10.3559  -16.5227   26.8100 C   0  0  2  0  0  0  0  0  0  0  0  0
    9.1608  -16.3767   26.0260 N   0  0  0  0  0  0  0  0  0  0  0  0
   11.0244  -17.8231   26.7467 C   0  0  0  0  0  0  0  0  0  0  0  0
   12.1829  -18.0927   27.1630 O   0  0  0  0  0  0  0  0  0  0  0  0
   10.4011  -18.9635   26.1894 O   0  0  0  0  0  0  0  0  0  0  0  0
  2  1  1  0
  3  2  1  0
  3 10  1  0
  4  3  2  0
  6  5  1  0
  7  8  1  0
  7  6  1  0
  9  8  1  1
  9 10  1  0
  9 11  1  0
 11 12  2  0
 13 14  1  0
 15 14  1  0
 15 16  1  6
 17 15  1  0
 18 11  1  0
 17 18  1  1
 19 17  1  0
 20 19  2  0
 21 19  1  0
M  END
$$$$
