GMI.pdb
     RDKit          3D

 21 20  0  0  1  0  0  0  0  0999 V2000
    5.5865  -20.1193   23.3219 N   0  0  0  0  0  0  0  0  0  0  0  0
    5.3522  -18.6890   23.3629 C   0  0  0  0  0  0  0  0  0  0  0  0
    6.5493  -17.9741   22.8766 C   0  0  0  0  0  0  0  0  0  0  0  0
    7.6268  -18.5839   22.7138 O   0  0  0  0  0  0  0  0  0  0  0  0
    8.2785  -11.8225   20.3512 C   0  0  0  0  0  0  0  0  0  0  0  0
    7.5588  -13.0011   19.1778 S   0  0  0  0  0  0  0  0  0  0  0  0
    7.7269  -14.6923   19.8567 C   0  0  0  0  0  0  0  0  0  0  0  0
    7.0643  -14.7537   21.1986 C   0  0  0  0  0  0  0  0  0  0  0  0
    7.5594  -15.8490   22.0764 C   0  0  2  0  0  0  0  0  0  0  0  0
    6.4083  -16.5779   22.6091 N   0  0  0  0  0  0  0  0  0  0  0  0
    8.2598  -15.2876   23.2876 C   0  0  0  0  0  0  0  0  0  0  0  0
    9.3951  -14.8170   23.0896 O   0  0  0  0  0  0  0  0  0  0  0  0
    5.9973  -11.7846   26.3549 C   0  0  0  0  0  0  0  0  0  0  0  0
    6.7815  -12.8048   25.5853 C   0  0  0  0  0  0  0  0  0  0  0  0
    7.6752  -13.6772   26.3868 C   0  0  2  0  0  0  0  0  0  0  0  0
    8.4951  -12.8916   27.4061 C   0  0  0  0  0  0  0  0  0  0  0  0
    8.3732  -14.8061   25.7366 C   0  0  2  0  0  0  0  0  0  0  0  0
    7.6934  -15.2833   24.5642 N   0  0  0  0  0  0  0  0  0  0  0  0
    9.0214  -15.8168   26.5732 C   0  0  0  0  0  0  0  0  0  0  0  0
    9.7956  -15.6035   27.5445 O   0  0  0  0  0  0  0  0  0  0  0  0
    8.8272  -17.2022   26.3666 O   0  0  0  0  0  0  0  0  0  0  0  0
  2  1  1  0
  3  2  1  0
  3 10  1  0
  4  3  2  0
  6  5  1  0
  7  8  1  0
  7  6  1  0
  9  8  1  6
  9 10  1  0
  9 11  1  0
 11 12  2  0
 13 14  1  0
 15 14  1  0
 15 16  1  6
 17 15  1  0
 18 11  1  0
 17 18  1  1
 19 17  1  0
 20 19  2  0
 21 19  1  0
M  END
$$$$
