GMI.pdb
     RDKit          3D

 21 20  0  0  1  0  0  0  0  0999 V2000
    9.6648  -17.2135   19.7255 N   0  0  0  0  0  0  0  0  0  0  0  0
    8.6808  -17.1350   20.7875 C   0  0  0  0  0  0  0  0  0  0  0  0
    9.1651  -16.2302   21.8493 C   0  0  0  0  0  0  0  0  0  0  0  0
   10.3721  -15.9158   21.9096 O   0  0  0  0  0  0  0  0  0  0  0  0
    5.1678  -13.1454   26.5993 C   0  0  0  0  0  0  0  0  0  0  0  0
    6.3402  -12.0492   25.7580 S   0  0  0  0  0  0  0  0  0  0  0  0
    7.8433  -13.0025   25.3322 C   0  0  0  0  0  0  0  0  0  0  0  0
    7.4895  -14.0631   24.3357 C   0  0  0  0  0  0  0  0  0  0  0  0
    8.6470  -14.8717   23.8649 C   0  0  2  0  0  0  0  0  0  0  0  0
    8.1972  -15.7462   22.7819 N   0  0  0  0  0  0  0  0  0  0  0  0
    9.1219  -15.8061   24.9486 C   0  0  0  0  0  0  0  0  0  0  0  0
    8.7473  -16.9891   24.8490 O   0  0  0  0  0  0  0  0  0  0  0  0
   10.2847  -13.7314   29.2064 C   0  0  0  0  0  0  0  0  0  0  0  0
   10.8353  -15.1259   29.2233 C   0  0  0  0  0  0  0  0  0  0  0  0
   11.3910  -15.6205   27.9393 C   0  0  2  0  0  0  0  0  0  0  0  0
   12.4155  -14.6615   27.3401 C   0  0  0  0  0  0  0  0  0  0  0  0
   10.5049  -16.2986   26.9701 C   0  0  2  0  0  0  0  0  0  0  0  0
    9.9321  -15.3964   26.0098 N   0  0  0  0  0  0  0  0  0  0  0  0
    9.6473  -17.3896   27.4347 C   0  0  0  0  0  0  0  0  0  0  0  0
   10.0273  -18.4911   27.9148 O   0  0  0  0  0  0  0  0  0  0  0  0
    8.2361  -17.3073   27.3939 O   0  0  0  0  0  0  0  0  0  0  0  0
  2  1  1  0
  3  2  1  0
  3 10  1  0
  4  3  2  0
  6  5  1  0
  7  8  1  0
  7  6  1  0
  9  8  1  1
  9 10  1  0
  9 11  1  0
 11 12  2  0
 13 14  1  0
 15 14  1  0
 15 16  1  6
 17 15  1  0
 18 11  1  0
 17 18  1  1
 19 17  1  0
 20 19  2  0
 21 19  1  0
M  END
$$$$
