GMI.pdb
     RDKit          3D

 21 20  0  0  1  0  0  0  0  0999 V2000
    6.4617  -19.4211   20.3413 N   0  0  0  0  0  0  0  0  0  0  0  0
    7.3899  -19.3542   21.4533 C   0  0  0  0  0  0  0  0  0  0  0  0
    6.7982  -18.5603   22.5488 C   0  0  0  0  0  0  0  0  0  0  0  0
    5.7413  -17.9206   22.3662 O   0  0  0  0  0  0  0  0  0  0  0  0
    8.1578  -20.0564   28.5601 C   0  0  0  0  0  0  0  0  0  0  0  0
    6.8156  -20.9163   27.6981 S   0  0  0  0  0  0  0  0  0  0  0  0
    6.4637  -20.0441   26.1282 C   0  0  0  0  0  0  0  0  0  0  0  0
    7.1001  -18.6887   26.1630 C   0  0  0  0  0  0  0  0  0  0  0  0
    6.8764  -17.8755   24.9367 C   0  0  2  0  0  0  0  0  0  0  0  0
    7.4872  -18.5651   23.8002 N   0  0  0  0  0  0  0  0  0  0  0  0
    7.6030  -16.5579   25.0295 C   0  0  0  0  0  0  0  0  0  0  0  0
    8.7237  -16.5159   24.4891 O   0  0  0  0  0  0  0  0  0  0  0  0
    6.5946  -10.5484   26.3093 C   0  0  0  0  0  0  0  0  0  0  0  0
    7.5515  -11.6822   26.0926 C   0  0  0  0  0  0  0  0  0  0  0  0
    6.9424  -13.0276   25.9474 C   0  0  2  0  0  0  0  0  0  0  0  0
    5.6602  -13.1774   26.7609 C   0  0  0  0  0  0  0  0  0  0  0  0
    7.8101  -14.2228   25.8935 C   0  0  2  0  0  0  0  0  0  0  0  0
    7.0751  -15.4380   25.6757 N   0  0  0  0  0  0  0  0  0  0  0  0
    8.9598  -14.3069   26.7951 C   0  0  0  0  0  0  0  0  0  0  0  0
    9.0929  -15.0934   27.7708 O   0  0  0  0  0  0  0  0  0  0  0  0
   10.0942  -13.4756   26.6478 O   0  0  0  0  0  0  0  0  0  0  0  0
  2  1  1  0
  3  2  1  0
  3 10  1  0
  4  3  2  0
  6  5  1  0
  7  8  1  0
  7  6  1  0
  9  8  1  1
  9 10  1  0
  9 11  1  0
 11 12  2  0
 13 14  1  0
 15 14  1  0
 15 16  1  1
 17 15  1  0
 18 11  1  0
 17 18  1  1
 19 17  1  0
 20 19  2  0
 21 19  1  0
M  END
$$$$
