GMI.pdb
     RDKit          3D

 21 20  0  0  1  0  0  0  0  0999 V2000
    5.4815  -19.9042   23.3332 N   0  0  0  0  0  0  0  0  0  0  0  0
    5.4109  -18.4652   23.1695 C   0  0  0  0  0  0  0  0  0  0  0  0
    6.7469  -17.9366   22.8289 C   0  0  0  0  0  0  0  0  0  0  0  0
    7.7459  -18.6857   22.8451 O   0  0  0  0  0  0  0  0  0  0  0  0
    8.4406  -12.1694   19.5445 C   0  0  0  0  0  0  0  0  0  0  0  0
    6.8360  -12.5791   20.2802 S   0  0  0  0  0  0  0  0  0  0  0  0
    7.0959  -13.7681   21.6470 C   0  0  0  0  0  0  0  0  0  0  0  0
    7.9511  -14.8982   21.1623 C   0  0  0  0  0  0  0  0  0  0  0  0
    8.1399  -15.9921   22.1537 C   0  0  2  0  0  0  0  0  0  0  0  0
    6.8301  -16.5518   22.4877 N   0  0  0  0  0  0  0  0  0  0  0  0
    8.6744  -15.4481   23.4542 C   0  0  0  0  0  0  0  0  0  0  0  0
    9.8633  -15.0794   23.4414 O   0  0  0  0  0  0  0  0  0  0  0  0
    6.0964  -11.8786   26.3787 C   0  0  0  0  0  0  0  0  0  0  0  0
    7.0108  -12.8338   25.6719 C   0  0  0  0  0  0  0  0  0  0  0  0
    7.6536  -13.8668   26.5214 C   0  0  2  0  0  0  0  0  0  0  0  0
    8.2472  -13.2827   27.7999 C   0  0  0  0  0  0  0  0  0  0  0  0
    8.4334  -14.9526   25.8910 C   0  0  2  0  0  0  0  0  0  0  0  0
    7.9055  -15.3529   24.6161 N   0  0  0  0  0  0  0  0  0  0  0  0
    8.9810  -16.0156   26.7347 C   0  0  0  0  0  0  0  0  0  0  0  0
    8.6847  -17.2396   26.6871 O   0  0  0  0  0  0  0  0  0  0  0  0
    9.9502  -15.7608   27.7325 O   0  0  0  0  0  0  0  0  0  0  0  0
  2  1  1  0
  3  2  1  0
  3 10  1  0
  4  3  2  0
  6  5  1  0
  7  8  1  0
  7  6  1  0
  9  8  1  6
  9 10  1  0
  9 11  1  0
 11 12  2  0
 13 14  1  0
 15 14  1  0
 15 16  1  1
 17 15  1  0
 18 11  1  0
 17 18  1  6
 19 17  1  0
 20 19  2  0
 21 19  1  0
M  END
$$$$
