AYA.pdb
     RDKit          3D

 23 23  0  0  1  0  0  0  0  0999 V2000
   23.0979    4.2944    0.3485 C   0  0  0  0  0  0  0  0  0  0  0  0
   22.3389    3.7215   -0.8254 C   0  0  2  0  0  0  0  0  0  0  0  0
   21.3853    2.7751   -0.3329 N   0  0  0  0  0  0  0  0  0  0  0  0
   23.2153    3.0863   -1.8160 C   0  0  0  0  0  0  0  0  0  0  0  0
   23.1968    1.8130   -1.8589 O   0  0  0  0  0  0  0  0  0  0  0  0
   25.5155    0.3187   -9.6386 O   0  0  0  0  0  0  0  0  0  0  0  0
   25.0786    0.8594   -8.4218 C   0  0  0  0  0  0  0  0  0  0  0  0
   24.4064    2.0607   -8.3637 C   0  0  0  0  0  0  0  0  0  0  0  0
   23.9795    2.5864   -7.1617 C   0  0  0  0  0  0  0  0  0  0  0  0
   24.1921    1.9572   -5.9562 C   0  0  0  0  0  0  0  0  0  0  0  0
   23.7495    2.4858   -4.6568 C   0  0  0  0  0  0  0  0  0  0  0  0
   24.7805    3.0443   -3.7515 C   0  0  2  0  0  0  0  0  0  0  0  0
   24.0577    3.8071   -2.7022 N   0  0  0  0  0  0  0  0  0  0  0  0
   25.6661    4.0324   -4.3879 C   0  0  0  0  0  0  0  0  0  0  0  0
   25.2222    5.1918   -4.7125 O   0  0  0  0  0  0  0  0  0  0  0  0
   24.8776    0.7352   -6.0299 C   0  0  0  0  0  0  0  0  0  0  0  0
   25.3048    0.2083   -7.2286 C   0  0  0  0  0  0  0  0  0  0  0  0
   29.3058    4.6744   -5.1235 C   0  0  0  0  0  0  0  0  0  0  0  0
   27.8063    4.9005   -5.3133 C   0  0  2  0  0  0  0  0  0  0  0  0
   27.0476    3.8358   -4.6968 N   0  0  0  0  0  0  0  0  0  0  0  0
   27.5917    4.9654   -6.7725 C   0  0  0  0  0  0  0  0  0  0  0  0
   27.2369    3.8949   -7.5755 O   0  0  0  0  0  0  0  0  0  0  0  0
   27.7302    6.0693   -7.4006 O   0  0  0  0  0  0  0  0  0  0  0  0
  2  1  1  1
  2  4  1  0
  2  3  1  0
  4  5  2  0
  7  6  1  0
  7 17  2  0
  8  7  1  0
  9  8  2  0
  9 10  1  0
 10 16  2  0
 11 10  1  0
 12 11  1  6
 13 12  1  0
 13  4  1  0
 14 12  1  0
 15 14  2  0
 16 17  1  0
 19 18  1  6
 19 20  1  0
 20 14  1  0
 21 22  1  0
 21 19  1  0
 23 21  2  0
M  END
$$$$
