AYA.pdb
     RDKit          3D

 23 23  0  0  1  0  0  0  0  0999 V2000
   27.5384  -19.6890  -19.4361 C   0  0  0  0  0  0  0  0  0  0  0  0
   28.5627  -20.1825  -18.4413 C   0  0  2  0  0  0  0  0  0  0  0  0
   29.3184  -21.2343  -19.0499 N   0  0  0  0  0  0  0  0  0  0  0  0
   27.9608  -20.6528  -17.1886 C   0  0  0  0  0  0  0  0  0  0  0  0
   27.6177  -21.8791  -17.1472 O   0  0  0  0  0  0  0  0  0  0  0  0
   25.1076  -20.7857   -8.6584 O   0  0  0  0  0  0  0  0  0  0  0  0
   25.7236  -20.5286   -9.8906 C   0  0  0  0  0  0  0  0  0  0  0  0
   25.5246  -19.3443  -10.5658 C   0  0  0  0  0  0  0  0  0  0  0  0
   26.1348  -19.0988  -11.7786 C   0  0  0  0  0  0  0  0  0  0  0  0
   26.9714  -20.0057  -12.3884 C   0  0  0  0  0  0  0  0  0  0  0  0
   27.6407  -19.7776  -13.6783 C   0  0  0  0  0  0  0  0  0  0  0  0
   27.0568  -20.4150  -14.8811 C   0  0  2  0  0  0  0  0  0  0  0  0
   27.7503  -19.8255  -16.0546 N   0  0  0  0  0  0  0  0  0  0  0  0
   25.6341  -20.1046  -15.0938 C   0  0  0  0  0  0  0  0  0  0  0  0
   25.2769  -18.9535  -15.5342 O   0  0  0  0  0  0  0  0  0  0  0  0
   27.1651  -21.2071  -11.6901 C   0  0  0  0  0  0  0  0  0  0  0  0
   26.5571  -21.4546  -10.4793 C   0  0  0  0  0  0  0  0  0  0  0  0
   22.2970  -21.5596  -15.6475 C   0  0  0  0  0  0  0  0  0  0  0  0
   23.1836  -20.5166  -14.9680 C   0  0  2  0  0  0  0  0  0  0  0  0
   24.5426  -20.9963  -14.8570 N   0  0  0  0  0  0  0  0  0  0  0  0
   22.5708  -20.2672  -13.6482 C   0  0  0  0  0  0  0  0  0  0  0  0
   21.4974  -19.4252  -13.4129 O   0  0  0  0  0  0  0  0  0  0  0  0
   23.0235  -20.8452  -12.6026 O   0  0  0  0  0  0  0  0  0  0  0  0
  2  1  1  6
  2  4  1  0
  2  3  1  0
  4  5  2  0
  7  6  1  0
  7 17  2  0
  8  7  1  0
  9  8  2  0
  9 10  1  0
 10 16  2  0
 11 10  1  0
 12 11  1  1
 13 12  1  0
 13  4  1  0
 14 12  1  0
 15 14  2  0
 16 17  1  0
 19 18  1  1
 19 20  1  0
 20 14  1  0
 21 22  1  0
 21 19  1  0
 23 21  2  0
M  END
$$$$
