AYA.pdb
     RDKit          3D

 23 23  0  0  1  0  0  0  0  0999 V2000
   20.0443  -11.4652  -18.1428 C   0  0  0  0  0  0  0  0  0  0  0  0
   20.1061   -9.9878  -18.4528 C   0  0  2  0  0  0  0  0  0  0  0  0
   21.4122   -9.6815  -18.9509 N   0  0  0  0  0  0  0  0  0  0  0  0
   19.7994   -9.1476  -17.2897 C   0  0  0  0  0  0  0  0  0  0  0  0
   18.6267   -9.2553  -16.8032 O   0  0  0  0  0  0  0  0  0  0  0  0
   19.4420   -5.9584   -9.2281 O   0  0  0  0  0  0  0  0  0  0  0  0
   19.8198   -6.4535  -10.4835 C   0  0  0  0  0  0  0  0  0  0  0  0
   20.9386   -5.9870  -11.1384 C   0  0  0  0  0  0  0  0  0  0  0  0
   21.3039   -6.4795  -12.3743 C   0  0  0  0  0  0  0  0  0  0  0  0
   20.5873   -7.4557  -13.0283 C   0  0  0  0  0  0  0  0  0  0  0  0
   20.9477   -8.0062  -14.3440 C   0  0  0  0  0  0  0  0  0  0  0  0
   20.2710   -7.4446  -15.5360 C   0  0  2  0  0  0  0  0  0  0  0  0
   20.7246   -8.2468  -16.7005 N   0  0  0  0  0  0  0  0  0  0  0  0
   20.6678   -6.0643  -15.8565 C   0  0  0  0  0  0  0  0  0  0  0  0
   21.8273   -5.8166  -16.3471 O   0  0  0  0  0  0  0  0  0  0  0  0
   19.4507   -7.9215  -12.3504 C   0  0  0  0  0  0  0  0  0  0  0  0
   19.0839   -7.4314  -11.1166 C   0  0  0  0  0  0  0  0  0  0  0  0
   19.2779   -2.5834  -16.2043 C   0  0  0  0  0  0  0  0  0  0  0  0
   20.3996   -3.5930  -15.9633 C   0  0  2  0  0  0  0  0  0  0  0  0
   19.8560   -4.9016  -15.6782 N   0  0  0  0  0  0  0  0  0  0  0  0
   21.1858   -3.0576  -14.8342 C   0  0  0  0  0  0  0  0  0  0  0  0
   22.3080   -2.2557  -14.9521 O   0  0  0  0  0  0  0  0  0  0  0  0
   20.8535   -3.3213  -13.6291 O   0  0  0  0  0  0  0  0  0  0  0  0
  2  1  1  1
  2  4  1  0
  2  3  1  0
  4  5  2  0
  7  6  1  0
  7 17  2  0
  8  7  1  0
  9  8  2  0
  9 10  1  0
 10 16  2  0
 11 10  1  0
 12 11  1  1
 13 12  1  0
 13  4  1  0
 14 12  1  0
 15 14  2  0
 16 17  1  0
 19 18  1  1
 19 20  1  0
 20 14  1  0
 21 22  1  0
 21 19  1  0
 23 21  2  0
M  END
$$$$
