AYA.pdb
     RDKit          3D

 23 23  0  0  1  0  0  0  0  0999 V2000
   25.2777  -21.5413  -18.0906 C   0  0  0  0  0  0  0  0  0  0  0  0
   26.1440  -22.3745  -17.1753 C   0  0  2  0  0  0  0  0  0  0  0  0
   26.1050  -23.7329  -17.6235 N   0  0  0  0  0  0  0  0  0  0  0  0
   25.7306  -22.2944  -15.7697 C   0  0  0  0  0  0  0  0  0  0  0  0
   24.9731  -23.2269  -15.3453 O   0  0  0  0  0  0  0  0  0  0  0  0
   25.5243  -20.1864   -7.0686 O   0  0  0  0  0  0  0  0  0  0  0  0
   25.8024  -20.2869   -8.4384 C   0  0  0  0  0  0  0  0  0  0  0  0
   26.1916  -19.1929   -9.1798 C   0  0  0  0  0  0  0  0  0  0  0  0
   26.4636  -19.3000  -10.5282 C   0  0  0  0  0  0  0  0  0  0  0  0
   26.3666  -20.4887  -11.2152 C   0  0  0  0  0  0  0  0  0  0  0  0
   26.6510  -20.6411  -12.6504 C   0  0  0  0  0  0  0  0  0  0  0  0
   25.6224  -21.2951  -13.4922 C   0  0  2  0  0  0  0  0  0  0  0  0
   26.1262  -21.2544  -14.8885 N   0  0  0  0  0  0  0  0  0  0  0  0
   24.3389  -20.5767  -13.5375 C   0  0  0  0  0  0  0  0  0  0  0  0
   23.6067  -20.4834  -12.4879 O   0  0  0  0  0  0  0  0  0  0  0  0
   25.9694  -21.5944  -10.4482 C   0  0  0  0  0  0  0  0  0  0  0  0
   25.6973  -21.4899   -9.1021 C   0  0  0  0  0  0  0  0  0  0  0  0
   22.2691  -18.3818  -15.8207 C   0  0  0  0  0  0  0  0  0  0  0  0
   22.5135  -19.2522  -14.5886 C   0  0  2  0  0  0  0  0  0  0  0  0
   23.7878  -19.9276  -14.6855 N   0  0  0  0  0  0  0  0  0  0  0  0
   21.3828  -20.1999  -14.5359 C   0  0  0  0  0  0  0  0  0  0  0  0
   21.4534  -21.5453  -14.8543 O   0  0  0  0  0  0  0  0  0  0  0  0
   20.2219  -19.8061  -14.1758 O   0  0  0  0  0  0  0  0  0  0  0  0
  2  1  1  6
  2  4  1  0
  2  3  1  0
  4  5  2  0
  7  6  1  0
  7 17  2  0
  8  7  1  0
  9  8  2  0
  9 10  1  0
 10 16  2  0
 11 10  1  0
 12 11  1  1
 13 12  1  0
 13  4  1  0
 14 12  1  0
 15 14  2  0
 16 17  1  0
 19 18  1  6
 19 20  1  0
 20 14  1  0
 21 22  1  0
 21 19  1  0
 23 21  2  0
M  END
$$$$
