AYA.pdb
     RDKit          3D

 23 23  0  0  1  0  0  0  0  0999 V2000
   27.4113  -21.5845  -18.6023 C   0  0  0  0  0  0  0  0  0  0  0  0
   28.1426  -22.0023  -17.3481 C   0  0  2  0  0  0  0  0  0  0  0  0
   28.8395  -23.2238  -17.6131 N   0  0  0  0  0  0  0  0  0  0  0  0
   27.2496  -22.1702  -16.1961 C   0  0  0  0  0  0  0  0  0  0  0  0
   26.7827  -23.3400  -16.0036 O   0  0  0  0  0  0  0  0  0  0  0  0
   23.3832  -20.7839   -8.2072 O   0  0  0  0  0  0  0  0  0  0  0  0
   24.1157  -20.7274   -9.4006 C   0  0  0  0  0  0  0  0  0  0  0  0
   23.5726  -20.2174  -10.5595 C   0  0  0  0  0  0  0  0  0  0  0  0
   24.3004  -20.1653  -11.7304 C   0  0  0  0  0  0  0  0  0  0  0  0
   25.5991  -20.6119  -11.8205 C   0  0  0  0  0  0  0  0  0  0  0  0
   26.4059  -20.5697  -13.0497 C   0  0  0  0  0  0  0  0  0  0  0  0
   25.9909  -21.4355  -14.1778 C   0  0  2  0  0  0  0  0  0  0  0  0
   26.8937  -21.1174  -15.3132 N   0  0  0  0  0  0  0  0  0  0  0  0
   24.6389  -21.1524  -14.6854 C   0  0  0  0  0  0  0  0  0  0  0  0
   24.4200  -20.1210  -15.4168 O   0  0  0  0  0  0  0  0  0  0  0  0
   26.1397  -21.1286  -10.6333 C   0  0  0  0  0  0  0  0  0  0  0  0
   25.4151  -21.1818   -9.4632 C   0  0  0  0  0  0  0  0  0  0  0  0
   21.5950  -22.5824  -15.8762 C   0  0  0  0  0  0  0  0  0  0  0  0
   22.1929  -21.5192  -14.9555 C   0  0  2  0  0  0  0  0  0  0  0  0
   23.4760  -21.9480  -14.4464 N   0  0  0  0  0  0  0  0  0  0  0  0
   21.2039  -21.3195  -13.8777 C   0  0  0  0  0  0  0  0  0  0  0  0
   20.1323  -20.4446  -13.9299 O   0  0  0  0  0  0  0  0  0  0  0  0
   21.2917  -21.9772  -12.7860 O   0  0  0  0  0  0  0  0  0  0  0  0
  2  1  1  6
  2  4  1  0
  2  3  1  0
  4  5  2  0
  7  6  1  0
  7 17  2  0
  8  7  1  0
  9  8  2  0
  9 10  1  0
 10 16  2  0
 11 10  1  0
 12 11  1  1
 13 12  1  0
 13  4  1  0
 14 12  1  0
 15 14  2  0
 16 17  1  0
 19 18  1  6
 19 20  1  0
 20 14  1  0
 21 22  1  0
 21 19  1  0
 23 21  2  0
M  END
$$$$
