AYA.pdb
     RDKit          3D

 23 23  0  0  1  0  0  0  0  0999 V2000
   22.7017  -13.1376  -17.8985 C   0  0  0  0  0  0  0  0  0  0  0  0
   22.0223  -11.7883  -17.9049 C   0  0  2  0  0  0  0  0  0  0  0  0
   21.9694  -11.3116  -19.2531 N   0  0  0  0  0  0  0  0  0  0  0  0
   22.6963  -10.8062  -17.0482 C   0  0  0  0  0  0  0  0  0  0  0  0
   22.7633  -11.0848  -15.8067 O   0  0  0  0  0  0  0  0  0  0  0  0
   28.7498  -13.1546  -16.7929 O   0  0  0  0  0  0  0  0  0  0  0  0
   27.9147  -12.0316  -16.8656 C   0  0  0  0  0  0  0  0  0  0  0  0
   27.2634  -11.6885  -18.0302 C   0  0  0  0  0  0  0  0  0  0  0  0
   26.4428  -10.5812  -18.0937 C   0  0  0  0  0  0  0  0  0  0  0  0
   26.2213   -9.7557  -17.0149 C   0  0  0  0  0  0  0  0  0  0  0  0
   25.3520   -8.5694  -17.0448 C   0  0  0  0  0  0  0  0  0  0  0  0
   23.9620   -8.7199  -16.5551 C   0  0  2  0  0  0  0  0  0  0  0  0
   23.2603   -9.5952  -17.5280 N   0  0  0  0  0  0  0  0  0  0  0  0
   23.1879   -7.4684  -16.5532 C   0  0  0  0  0  0  0  0  0  0  0  0
   22.8135   -6.9319  -17.6571 O   0  0  0  0  0  0  0  0  0  0  0  0
   26.8905  -10.1166  -15.8357 C   0  0  0  0  0  0  0  0  0  0  0  0
   27.7102  -11.2214  -15.7699 C   0  0  0  0  0  0  0  0  0  0  0  0
   20.7043   -5.7100  -16.1775 C   0  0  0  0  0  0  0  0  0  0  0  0
   22.0735   -5.4904  -15.5351 C   0  0  2  0  0  0  0  0  0  0  0  0
   22.7768   -6.7450  -15.3911 N   0  0  0  0  0  0  0  0  0  0  0  0
   21.8075   -4.8478  -14.2329 C   0  0  0  0  0  0  0  0  0  0  0  0
   21.3671   -3.5467  -14.0600 O   0  0  0  0  0  0  0  0  0  0  0  0
   21.9796   -5.4926  -13.1434 O   0  0  0  0  0  0  0  0  0  0  0  0
  2  1  1  6
  2  4  1  0
  2  3  1  0
  4  5  2  0
  7  6  1  0
  7 17  2  0
  8  7  1  0
  9  8  2  0
  9 10  1  0
 10 16  2  0
 11 10  1  0
 12 11  1  6
 13 12  1  0
 13  4  1  0
 14 12  1  0
 15 14  2  0
 16 17  1  0
 19 18  1  1
 19 20  1  0
 20 14  1  0
 21 22  1  0
 21 19  1  0
 23 21  2  0
M  END
$$$$
