AYA.pdb
     RDKit          3D

 23 23  0  0  1  0  0  0  0  0999 V2000
   24.7868  -32.6103   -6.6414 C   0  0  0  0  0  0  0  0  0  0  0  0
   26.0458  -32.5947   -7.4764 C   0  0  2  0  0  0  0  0  0  0  0  0
   25.7099  -32.9777   -8.8137 N   0  0  0  0  0  0  0  0  0  0  0  0
   27.0926  -33.4758   -6.9467 C   0  0  0  0  0  0  0  0  0  0  0  0
   27.2707  -34.5795   -7.5579 O   0  0  0  0  0  0  0  0  0  0  0  0
   34.6520  -36.8107   -3.8863 O   0  0  0  0  0  0  0  0  0  0  0  0
   33.5645  -36.0257   -4.2925 C   0  0  0  0  0  0  0  0  0  0  0  0
   33.2532  -35.8541   -5.6237 C   0  0  0  0  0  0  0  0  0  0  0  0
   32.1808  -35.0797   -6.0155 C   0  0  0  0  0  0  0  0  0  0  0  0
   31.3604  -34.4350   -5.1179 C   0  0  0  0  0  0  0  0  0  0  0  0
   30.2077  -33.6042   -5.4986 C   0  0  0  0  0  0  0  0  0  0  0  0
   28.8547  -34.1855   -5.3377 C   0  0  2  0  0  0  0  0  0  0  0  0
   27.8917  -33.1615   -5.8165 N   0  0  0  0  0  0  0  0  0  0  0  0
   28.4709  -34.4335   -3.9388 C   0  0  0  0  0  0  0  0  0  0  0  0
   28.0906  -33.4664   -3.1860 O   0  0  0  0  0  0  0  0  0  0  0  0
   31.6886  -34.6182   -3.7662 C   0  0  0  0  0  0  0  0  0  0  0  0
   32.7587  -35.3908   -3.3725 C   0  0  0  0  0  0  0  0  0  0  0  0
   28.4827  -34.5140   -1.1531 C   0  0  0  0  0  0  0  0  0  0  0  0
   28.1139  -35.8006   -1.8908 C   0  0  2  0  0  0  0  0  0  0  0  0
   28.4678  -35.7065   -3.2891 N   0  0  0  0  0  0  0  0  0  0  0  0
   26.6611  -35.9740   -1.6938 C   0  0  0  0  0  0  0  0  0  0  0  0
   26.0425  -36.2040   -0.4769 O   0  0  0  0  0  0  0  0  0  0  0  0
   25.8600  -35.9183   -2.6875 O   0  0  0  0  0  0  0  0  0  0  0  0
  2  1  1  1
  2  4  1  0
  2  3  1  0
  4  5  2  0
  7  6  1  0
  7 17  2  0
  8  7  1  0
  9  8  2  0
  9 10  1  0
 10 16  2  0
 11 10  1  0
 12 11  1  1
 13 12  1  0
 13  4  1  0
 14 12  1  0
 15 14  2  0
 16 17  1  0
 19 18  1  1
 19 20  1  0
 20 14  1  0
 21 22  1  0
 21 19  1  0
 23 21  2  0
M  END
$$$$
