AYA.pdb
     RDKit          3D

 23 23  0  0  1  0  0  0  0  0999 V2000
   20.8391  -12.0015  -16.3043 C   0  0  0  0  0  0  0  0  0  0  0  0
   21.0620  -10.6714  -16.9853 C   0  0  2  0  0  0  0  0  0  0  0  0
   22.4603  -10.5250  -17.2517 N   0  0  0  0  0  0  0  0  0  0  0  0
   20.5775   -9.5362  -16.1919 C   0  0  0  0  0  0  0  0  0  0  0  0
   19.3309   -9.5160  -15.9294 O   0  0  0  0  0  0  0  0  0  0  0  0
   17.4440   -6.1897   -9.4665 O   0  0  0  0  0  0  0  0  0  0  0  0
   18.3636   -6.4986  -10.4779 C   0  0  0  0  0  0  0  0  0  0  0  0
   18.7108   -5.5809  -11.4451 C   0  0  0  0  0  0  0  0  0  0  0  0
   19.6170   -5.8928  -12.4376 C   0  0  0  0  0  0  0  0  0  0  0  0
   20.2274   -7.1230  -12.5287 C   0  0  0  0  0  0  0  0  0  0  0  0
   21.1993   -7.4899  -13.5702 C   0  0  0  0  0  0  0  0  0  0  0  0
   20.7747   -7.3682  -14.9841 C   0  0  2  0  0  0  0  0  0  0  0  0
   21.4124   -8.4906  -15.7183 N   0  0  0  0  0  0  0  0  0  0  0  0
   21.2673   -6.1552  -15.6561 C   0  0  0  0  0  0  0  0  0  0  0  0
   22.4986   -6.0569  -16.0036 O   0  0  0  0  0  0  0  0  0  0  0  0
   19.8648   -8.0477  -11.5378 C   0  0  0  0  0  0  0  0  0  0  0  0
   18.9604   -7.7388  -10.5461 C   0  0  0  0  0  0  0  0  0  0  0  0
   20.0204   -2.9769  -17.2708 C   0  0  0  0  0  0  0  0  0  0  0  0
   21.0893   -3.8918  -16.6741 C   0  0  2  0  0  0  0  0  0  0  0  0
   20.4800   -5.0102  -15.9904 N   0  0  0  0  0  0  0  0  0  0  0  0
   21.8797   -3.0432  -15.7605 C   0  0  0  0  0  0  0  0  0  0  0  0
   22.9696   -2.2732  -16.1290 O   0  0  0  0  0  0  0  0  0  0  0  0
   21.5831   -2.9733  -14.5198 O   0  0  0  0  0  0  0  0  0  0  0  0
  2  1  1  1
  2  4  1  0
  2  3  1  0
  4  5  2  0
  7  6  1  0
  7 17  2  0
  8  7  1  0
  9  8  2  0
  9 10  1  0
 10 16  2  0
 11 10  1  0
 12 11  1  1
 13 12  1  0
 13  4  1  0
 14 12  1  0
 15 14  2  0
 16 17  1  0
 19 18  1  1
 19 20  1  0
 20 14  1  0
 21 22  1  0
 21 19  1  0
 23 21  2  0
M  END
$$$$
