LWC.pdb
     RDKit          3D

 29 30  0  0  1  0  0  0  0  0999 V2000
    8.3663  -14.9030   17.4705 C   0  0  0  0  0  0  0  0  0  0  0  0
    8.6082  -13.9085   18.5668 C   0  0  2  0  0  0  0  0  0  0  0  0
    8.2693  -12.5427   18.0200 C   0  0  0  0  0  0  0  0  0  0  0  0
    9.9841  -13.9681   19.1552 C   0  0  0  0  0  0  0  0  0  0  0  0
   10.1909  -15.2528   19.9233 C   0  0  2  0  0  0  0  0  0  0  0  0
    9.2229  -16.2109   19.4734 N   0  0  0  0  0  0  0  0  0  0  0  0
   10.0139  -15.0555   21.3763 C   0  0  0  0  0  0  0  0  0  0  0  0
   10.6879  -14.1851   22.0093 O   0  0  0  0  0  0  0  0  0  0  0  0
    9.0927  -15.8084   22.1710 N   0  0  0  0  0  0  0  0  0  0  0  0
    8.8432  -15.5398   23.5528 C   0  0  1  0  0  0  0  0  0  0  0  0
    7.4718  -15.9354   24.0111 C   0  0  0  0  0  0  0  0  0  0  0  0
    7.0398  -15.2475   25.2503 C   0  0  0  0  0  0  0  0  0  0  0  0
    6.5795  -15.8766   26.4138 C   0  0  0  0  0  0  0  0  0  0  0  0
    6.3045  -14.9464   27.3319 N   0  0  0  0  0  0  0  0  0  0  0  0
    6.5562  -13.6984   26.8488 C   0  0  0  0  0  0  0  0  0  0  0  0
    6.4248  -12.4440   27.4087 C   0  0  0  0  0  0  0  0  0  0  0  0
    6.7496  -11.3281   26.6806 C   0  0  0  0  0  0  0  0  0  0  0  0
    7.2016  -11.5237   25.3949 C   0  0  0  0  0  0  0  0  0  0  0  0
    7.3336  -12.7770   24.8341 C   0  0  0  0  0  0  0  0  0  0  0  0
    7.0123  -13.9058   25.5531 C   0  0  0  0  0  0  0  0  0  0  0  0
    9.8286  -16.2076   24.4470 C   0  0  0  0  0  0  0  0  0  0  0  0
   10.3681  -17.2711   24.0793 O   0  0  0  0  0  0  0  0  0  0  0  0
   10.1510  -15.6376   25.7074 N   0  0  0  0  0  0  0  0  0  0  0  0
   11.1260  -16.1982   26.6023 C   0  0  1  0  0  0  0  0  0  0  0  0
   11.5287  -15.2293   27.6935 C   0  0  0  0  0  0  0  0  0  0  0  0
   10.1406  -14.0930   28.0515 S   0  0  0  0  0  0  0  0  0  0  0  0
   10.7280  -17.4839   27.1950 C   0  0  0  0  0  0  0  0  0  0  0  0
    9.4382  -17.9402   27.0179 O   0  0  0  0  0  0  0  0  0  0  0  0
   11.5339  -18.1708   27.8552 O   0  0  0  0  0  0  0  0  0  0  0  0
  2  3  1  6
  2  1  1  0
  4  2  1  0
  5  4  1  0
  5  6  1  6
  7  8  2  0
  7  5  1  0
  9  7  1  0
 10  9  1  0
 10 11  1  1
 11 12  1  0
 12 13  2  0
 12 20  1  0
 13 14  1  0
 14 15  1  0
 15 16  2  0
 17 16  1  0
 18 17  2  0
 19 20  2  0
 19 18  1  0
 20 15  1  0
 21 22  2  0
 21 10  1  0
 23 21  1  0
 24 25  1  1
 24 23  1  0
 26 25  1  0
 27 24  1  0
 28 27  1  0
 29 27  2  0
M  END
$$$$
