LWC.pdb
     RDKit          3D

 29 30  0  0  1  0  0  0  0  0999 V2000
    6.6136  -14.1189   20.9271 C   0  0  0  0  0  0  0  0  0  0  0  0
    8.0439  -13.6681   20.9074 C   0  0  2  0  0  0  0  0  0  0  0  0
    8.0671  -12.2648   20.3508 C   0  0  0  0  0  0  0  0  0  0  0  0
    8.9677  -14.5928   20.1765 C   0  0  0  0  0  0  0  0  0  0  0  0
    9.0852  -15.9192   20.8908 C   0  0  2  0  0  0  0  0  0  0  0  0
    7.7699  -16.4717   21.0403 N   0  0  0  0  0  0  0  0  0  0  0  0
    9.6839  -15.7664   22.2323 C   0  0  0  0  0  0  0  0  0  0  0  0
   10.7516  -15.1009   22.4046 O   0  0  0  0  0  0  0  0  0  0  0  0
    9.1261  -16.3402   23.4183 N   0  0  0  0  0  0  0  0  0  0  0  0
    9.7700  -16.2921   24.6937 C   0  0  1  0  0  0  0  0  0  0  0  0
    8.8270  -16.3883   25.8550 C   0  0  0  0  0  0  0  0  0  0  0  0
    7.7192  -15.4058   25.8017 C   0  0  0  0  0  0  0  0  0  0  0  0
    6.3897  -15.6937   25.4687 C   0  0  0  0  0  0  0  0  0  0  0  0
    5.6684  -14.5723   25.5485 N   0  0  0  0  0  0  0  0  0  0  0  0
    6.4472  -13.5200   25.9233 C   0  0  0  0  0  0  0  0  0  0  0  0
    6.1643  -12.1854   26.1310 C   0  0  0  0  0  0  0  0  0  0  0  0
    7.1611  -11.3210   26.5052 C   0  0  0  0  0  0  0  0  0  0  0  0
    8.4253  -11.8446   26.6578 C   0  0  0  0  0  0  0  0  0  0  0  0
    8.7093  -13.1785   26.4506 C   0  0  0  0  0  0  0  0  0  0  0  0
    7.7191  -14.0577   26.0757 C   0  0  0  0  0  0  0  0  0  0  0  0
   10.7932  -17.3617   24.8527 C   0  0  0  0  0  0  0  0  0  0  0  0
   10.4524  -18.5574   24.7455 O   0  0  0  0  0  0  0  0  0  0  0  0
   12.1456  -17.0225   25.1239 N   0  0  0  0  0  0  0  0  0  0  0  0
   13.1779  -17.9994   25.3384 C   0  0  1  0  0  0  0  0  0  0  0  0
   14.5645  -17.4188   25.1599 C   0  0  0  0  0  0  0  0  0  0  0  0
   14.6518  -16.5079   23.5759 S   0  0  0  0  0  0  0  0  0  0  0  0
   13.0878  -18.6943   26.6313 C   0  0  0  0  0  0  0  0  0  0  0  0
   12.0768  -18.3617   27.5092 O   0  0  0  0  0  0  0  0  0  0  0  0
   13.9077  -19.5791   26.9505 O   0  0  0  0  0  0  0  0  0  0  0  0
  2  3  1  6
  2  1  1  0
  4  2  1  0
  5  4  1  0
  5  6  1  1
  7  8  2  0
  7  5  1  0
  9  7  1  0
 10  9  1  0
 10 11  1  1
 11 12  1  0
 12 13  2  0
 12 20  1  0
 13 14  1  0
 14 15  1  0
 15 16  2  0
 17 16  1  0
 18 17  2  0
 19 20  2  0
 19 18  1  0
 20 15  1  0
 21 22  2  0
 21 10  1  0
 23 21  1  0
 24 25  1  1
 24 23  1  0
 26 25  1  0
 27 24  1  0
 28 27  1  0
 29 27  2  0
M  END
$$$$
