LWC.pdb
     RDKit          3D

 29 30  0  0  1  0  0  0  0  0999 V2000
    8.9507  -14.0864   18.3965 C   0  0  0  0  0  0  0  0  0  0  0  0
    7.9010  -13.8571   19.4428 C   0  0  2  0  0  0  0  0  0  0  0  0
    7.1320  -12.6196   19.0471 C   0  0  0  0  0  0  0  0  0  0  0  0
    8.4349  -13.7811   20.8399 C   0  0  0  0  0  0  0  0  0  0  0  0
    9.1521  -15.0565   21.2172 C   0  0  2  0  0  0  0  0  0  0  0  0
    8.2477  -16.1553   21.0376 N   0  0  0  0  0  0  0  0  0  0  0  0
    9.5934  -15.0390   22.6265 C   0  0  0  0  0  0  0  0  0  0  0  0
   10.3733  -14.1358   23.0609 O   0  0  0  0  0  0  0  0  0  0  0  0
    9.1901  -16.0123   23.5946 N   0  0  0  0  0  0  0  0  0  0  0  0
    9.4505  -15.8846   24.9944 C   0  0  1  0  0  0  0  0  0  0  0  0
    8.3177  -16.3346   25.8671 C   0  0  0  0  0  0  0  0  0  0  0  0
    7.1982  -15.3663   25.9312 C   0  0  0  0  0  0  0  0  0  0  0  0
    5.8373  -15.6870   25.8506 C   0  0  0  0  0  0  0  0  0  0  0  0
    5.1184  -14.5676   25.9698 N   0  0  0  0  0  0  0  0  0  0  0  0
    5.9290  -13.4851   26.1292 C   0  0  0  0  0  0  0  0  0  0  0  0
    5.6597  -12.1405   26.2839 C   0  0  0  0  0  0  0  0  0  0  0  0
    6.6885  -11.2439   26.4194 C   0  0  0  0  0  0  0  0  0  0  0  0
    7.9702  -11.7462   26.3929 C   0  0  0  0  0  0  0  0  0  0  0  0
    8.2407  -13.0900   26.2384 C   0  0  0  0  0  0  0  0  0  0  0  0
    7.2184  -14.0013   26.1021 C   0  0  0  0  0  0  0  0  0  0  0  0
   10.6685  -16.6303   25.4147 C   0  0  0  0  0  0  0  0  0  0  0  0
   11.0797  -17.5778   24.7144 O   0  0  0  0  0  0  0  0  0  0  0  0
   11.3558  -16.2649   26.6028 N   0  0  0  0  0  0  0  0  0  0  0  0
   12.3751  -17.0777   27.2082 C   0  0  1  0  0  0  0  0  0  0  0  0
   13.0004  -16.4110   28.4149 C   0  0  0  0  0  0  0  0  0  0  0  0
   11.7112  -15.5335   29.3710 S   0  0  0  0  0  0  0  0  0  0  0  0
   11.9313  -18.4351   27.5589 C   0  0  0  0  0  0  0  0  0  0  0  0
   10.5947  -18.7590   27.4508 O   0  0  0  0  0  0  0  0  0  0  0  0
   12.7398  -19.3003   27.9525 O   0  0  0  0  0  0  0  0  0  0  0  0
  2  3  1  6
  2  1  1  0
  4  2  1  0
  5  4  1  0
  5  6  1  1
  7  8  2  0
  7  5  1  0
  9  7  1  0
 10  9  1  0
 10 11  1  1
 11 12  1  0
 12 13  2  0
 12 20  1  0
 13 14  1  0
 14 15  1  0
 15 16  2  0
 17 16  1  0
 18 17  2  0
 19 20  2  0
 19 18  1  0
 20 15  1  0
 21 22  2  0
 21 10  1  0
 23 21  1  0
 24 25  1  1
 24 23  1  0
 26 25  1  0
 27 24  1  0
 28 27  1  0
 29 27  2  0
M  END
$$$$
