LWC.pdb
     RDKit          3D

 29 30  0  0  1  0  0  0  0  0999 V2000
    8.4494  -14.1294   18.2201 C   0  0  0  0  0  0  0  0  0  0  0  0
    7.7034  -13.6602   19.4336 C   0  0  2  0  0  0  0  0  0  0  0  0
    7.2432  -12.2481   19.1624 C   0  0  0  0  0  0  0  0  0  0  0  0
    8.4755  -13.7789   20.7114 C   0  0  0  0  0  0  0  0  0  0  0  0
    8.9300  -15.2015   20.9410 C   0  0  2  0  0  0  0  0  0  0  0  0
    7.7762  -16.0538   20.9279 N   0  0  0  0  0  0  0  0  0  0  0  0
    9.6103  -15.3546   22.2429 C   0  0  0  0  0  0  0  0  0  0  0  0
   10.6608  -14.6963   22.5180 O   0  0  0  0  0  0  0  0  0  0  0  0
    9.1551  -16.2341   23.2755 N   0  0  0  0  0  0  0  0  0  0  0  0
    9.7960  -16.3520   24.5479 C   0  0  1  0  0  0  0  0  0  0  0  0
    8.8492  -16.5857   25.6864 C   0  0  0  0  0  0  0  0  0  0  0  0
    7.7355  -15.6100   25.7406 C   0  0  0  0  0  0  0  0  0  0  0  0
    6.3964  -15.8836   25.4352 C   0  0  0  0  0  0  0  0  0  0  0  0
    5.6730  -14.7758   25.6183 N   0  0  0  0  0  0  0  0  0  0  0  0
    6.4596  -13.7465   26.0381 C   0  0  0  0  0  0  0  0  0  0  0  0
    6.1779  -12.4317   26.3482 C   0  0  0  0  0  0  0  0  0  0  0  0
    7.1831  -11.5882   26.7467 C   0  0  0  0  0  0  0  0  0  0  0  0
    8.4544  -12.1119   26.8179 C   0  0  0  0  0  0  0  0  0  0  0  0
    8.7373  -13.4260   26.5083 C   0  0  0  0  0  0  0  0  0  0  0  0
    7.7386  -14.2842   26.1079 C   0  0  0  0  0  0  0  0  0  0  0  0
   10.8103  -17.4416   24.5728 C   0  0  0  0  0  0  0  0  0  0  0  0
   10.4910  -18.5855   24.1896 O   0  0  0  0  0  0  0  0  0  0  0  0
   12.1297  -17.1796   25.0288 N   0  0  0  0  0  0  0  0  0  0  0  0
   13.1650  -18.1758   25.0680 C   0  0  1  0  0  0  0  0  0  0  0  0
   14.5329  -17.5947   24.7800 C   0  0  0  0  0  0  0  0  0  0  0  0
   14.3687  -16.1595   23.6577 S   0  0  0  0  0  0  0  0  0  0  0  0
   13.2030  -18.9537   26.3154 C   0  0  0  0  0  0  0  0  0  0  0  0
   12.3433  -18.6262   27.3435 O   0  0  0  0  0  0  0  0  0  0  0  0
   13.9976  -19.9044   26.4628 O   0  0  0  0  0  0  0  0  0  0  0  0
  2  3  1  6
  2  1  1  0
  4  2  1  0
  5  4  1  0
  5  6  1  1
  7  8  2  0
  7  5  1  0
  9  7  1  0
 10  9  1  0
 10 11  1  1
 11 12  1  0
 12 13  2  0
 12 20  1  0
 13 14  1  0
 14 15  1  0
 15 16  2  0
 17 16  1  0
 18 17  2  0
 19 20  2  0
 19 18  1  0
 20 15  1  0
 21 22  2  0
 21 10  1  0
 23 21  1  0
 24 25  1  1
 24 23  1  0
 26 25  1  0
 27 24  1  0
 28 27  1  0
 29 27  2  0
M  END
$$$$
