EQE.pdb
     RDKit          3D

 28 27  0  0  1  0  0  0  0  0999 V2000
   10.7990  -15.7610   13.7203 N   0  0  0  0  0  0  0  0  0  0  0  0
    9.8347  -15.8012   14.8184 C   0  0  1  0  0  0  0  0  0  0  0  0
    9.4816  -17.2382   15.0161 C   0  0  0  0  0  0  0  0  0  0  0  0
   10.6278  -18.1091   15.4692 C   0  0  0  0  0  0  0  0  0  0  0  0
   10.0924  -19.4758   15.6124 C   0  0  0  0  0  0  0  0  0  0  0  0
    8.8980  -19.7050   15.3177 O   0  0  0  0  0  0  0  0  0  0  0  0
   10.4349  -15.1462   15.9902 C   0  0  0  0  0  0  0  0  0  0  0  0
   11.7097  -15.1602   16.1312 O   0  0  0  0  0  0  0  0  0  0  0  0
   10.9002  -20.4958   16.0630 O   0  0  0  0  0  0  0  0  0  0  0  0
    7.3335  -12.0179   20.5860 N   0  0  0  0  0  0  0  0  0  0  0  0
    7.3593  -13.4095   20.3027 C   0  0  0  0  0  0  0  0  0  0  0  0
    6.4469  -14.1224   20.8308 O   0  0  0  0  0  0  0  0  0  0  0  0
    8.3842  -14.0040   19.4447 C   0  0  0  0  0  0  0  0  0  0  0  0
    9.3619  -13.0354   18.8444 C   0  0  0  0  0  0  0  0  0  0  0  0
   10.4008  -13.7989   18.0479 C   0  0  2  0  0  0  0  0  0  0  0  0
    9.6735  -14.4871   16.9932 N   0  0  0  0  0  0  0  0  0  0  0  0
   11.0890  -14.8099   18.8869 C   0  0  0  0  0  0  0  0  0  0  0  0
   10.8067  -16.0301   18.7634 O   0  0  0  0  0  0  0  0  0  0  0  0
   12.0479  -14.4242   19.8133 N   0  0  0  0  0  0  0  0  0  0  0  0
   12.8730  -15.3585   20.6207 C   0  0  1  0  0  0  0  0  0  0  0  0
   14.2182  -14.7289   20.6167 C   0  0  0  0  0  0  0  0  0  0  0  0
   15.3120  -15.3266   21.3910 C   0  0  0  0  0  0  0  0  0  0  0  0
   16.5610  -14.5524   21.3021 C   0  0  0  0  0  0  0  0  0  0  0  0
   17.0378  -14.0480   22.3544 O   0  0  0  0  0  0  0  0  0  0  0  0
   12.1883  -15.5985   21.8745 C   0  0  0  0  0  0  0  0  0  0  0  0
   11.2361  -14.8070   22.2169 O   0  0  0  0  0  0  0  0  0  0  0  0
   17.2636  -14.3305   20.1379 O   0  0  0  0  0  0  0  0  0  0  0  0
   12.4474  -16.6212   22.7823 O   0  0  0  0  0  0  0  0  0  0  0  0
  2  1  1  6
  2  3  1  0
  2  7  1  0
  4  3  1  0
  4  5  1  0
  5  6  2  0
  7  8  2  0
  9  5  1  0
 10 11  1  0
 11 12  2  0
 13 11  1  0
 13 14  1  0
 15 14  1  1
 16  7  1  0
 16 15  1  0
 17 15  1  0
 17 18  2  0
 19 17  1  0
 20 25  1  0
 20 19  1  0
 20 21  1  1
 22 21  1  0
 23 27  1  0
 23 22  1  0
 24 23  2  0
 25 28  1  0
 26 25  2  0
M  END
$$$$
