EQE.pdb
     RDKit          3D

 28 27  0  0  1  0  0  0  0  0999 V2000
    8.1621  -15.5091   18.9205 N   0  0  0  0  0  0  0  0  0  0  0  0
    7.1825  -15.5370   20.0053 C   0  0  1  0  0  0  0  0  0  0  0  0
    6.6630  -16.9352   20.0677 C   0  0  0  0  0  0  0  0  0  0  0  0
    7.7125  -18.0031   19.8785 C   0  0  0  0  0  0  0  0  0  0  0  0
    7.0118  -19.3002   19.9224 C   0  0  0  0  0  0  0  0  0  0  0  0
    7.0809  -20.0045   20.9546 O   0  0  0  0  0  0  0  0  0  0  0  0
    7.8357  -15.0657   21.2355 C   0  0  0  0  0  0  0  0  0  0  0  0
    9.1150  -15.1046   21.3200 O   0  0  0  0  0  0  0  0  0  0  0  0
    6.2821  -19.7338   18.8383 O   0  0  0  0  0  0  0  0  0  0  0  0
    5.3376  -12.5672   26.6771 N   0  0  0  0  0  0  0  0  0  0  0  0
    6.7361  -12.7383   26.8576 C   0  0  0  0  0  0  0  0  0  0  0  0
    7.2164  -12.4061   27.9883 O   0  0  0  0  0  0  0  0  0  0  0  0
    7.5921  -13.2706   25.7974 C   0  0  0  0  0  0  0  0  0  0  0  0
    6.9004  -13.5608   24.4967 C   0  0  0  0  0  0  0  0  0  0  0  0
    7.8928  -14.1652   23.5239 C   0  0  2  0  0  0  0  0  0  0  0  0
    7.1217  -14.5609   22.3561 N   0  0  0  0  0  0  0  0  0  0  0  0
    8.5425  -15.3705   24.0940 C   0  0  0  0  0  0  0  0  0  0  0  0
    7.8975  -16.4465   24.1953 O   0  0  0  0  0  0  0  0  0  0  0  0
    9.8627  -15.3264   24.5199 N   0  0  0  0  0  0  0  0  0  0  0  0
   10.6147  -16.4801   25.0757 C   0  0  1  0  0  0  0  0  0  0  0  0
   11.9779  -16.3134   24.5100 C   0  0  0  0  0  0  0  0  0  0  0  0
   13.0851  -17.1400   25.0040 C   0  0  0  0  0  0  0  0  0  0  0  0
   14.3576  -16.8531   24.3216 C   0  0  0  0  0  0  0  0  0  0  0  0
   15.4075  -17.4152   24.7350 O   0  0  0  0  0  0  0  0  0  0  0  0
   10.4223  -16.4961   26.5114 C   0  0  0  0  0  0  0  0  0  0  0  0
    9.9794  -15.4351   27.0846 O   0  0  0  0  0  0  0  0  0  0  0  0
   14.4952  -16.0024   23.2466 O   0  0  0  0  0  0  0  0  0  0  0  0
   10.6668  -17.5618   27.3725 O   0  0  0  0  0  0  0  0  0  0  0  0
  2  1  1  6
  2  3  1  0
  2  7  1  0
  4  3  1  0
  4  5  1  0
  5  6  2  0
  7  8  2  0
  9  5  1  0
 10 11  1  0
 11 12  2  0
 13 11  1  0
 13 14  1  0
 15 14  1  1
 16  7  1  0
 16 15  1  0
 17 15  1  0
 17 18  2  0
 19 17  1  0
 20 25  1  0
 20 19  1  0
 20 21  1  1
 22 21  1  0
 23 27  1  0
 23 22  1  0
 24 23  2  0
 25 28  1  0
 26 25  2  0
M  END
$$$$
