EQE.pdb
     RDKit          3D

 28 27  0  0  1  0  0  0  0  0999 V2000
    7.7568  -14.9745   18.9573 N   0  0  0  0  0  0  0  0  0  0  0  0
    8.1513  -16.0212   19.8987 C   0  0  1  0  0  0  0  0  0  0  0  0
    9.1555  -16.8683   19.1897 C   0  0  0  0  0  0  0  0  0  0  0  0
    9.3343  -18.2489   19.7723 C   0  0  0  0  0  0  0  0  0  0  0  0
   10.4051  -18.9023   18.9964 C   0  0  0  0  0  0  0  0  0  0  0  0
   11.5989  -18.5947   19.2115 O   0  0  0  0  0  0  0  0  0  0  0  0
    8.6416  -15.3815   21.1286 C   0  0  0  0  0  0  0  0  0  0  0  0
    9.7194  -14.6873   21.0868 O   0  0  0  0  0  0  0  0  0  0  0  0
   10.0965  -19.8478   18.0443 O   0  0  0  0  0  0  0  0  0  0  0  0
    5.5237  -13.3182   26.2517 N   0  0  0  0  0  0  0  0  0  0  0  0
    6.7166  -12.5935   25.9884 C   0  0  0  0  0  0  0  0  0  0  0  0
    6.8455  -11.4663   26.5650 O   0  0  0  0  0  0  0  0  0  0  0  0
    7.7539  -13.1116   25.0965 C   0  0  0  0  0  0  0  0  0  0  0  0
    7.4348  -14.4181   24.4289 C   0  0  0  0  0  0  0  0  0  0  0  0
    8.5824  -14.8117   23.5208 C   0  0  2  0  0  0  0  0  0  0  0  0
    7.9811  -15.4884   22.3826 N   0  0  0  0  0  0  0  0  0  0  0  0
    9.5082  -15.7526   24.1971 C   0  0  0  0  0  0  0  0  0  0  0  0
    9.2026  -16.9685   24.3072 O   0  0  0  0  0  0  0  0  0  0  0  0
   10.7164  -15.3056   24.7134 N   0  0  0  0  0  0  0  0  0  0  0  0
   11.3823  -15.8613   25.9190 C   0  0  1  0  0  0  0  0  0  0  0  0
   10.4800  -15.4647   27.0301 C   0  0  0  0  0  0  0  0  0  0  0  0
   10.1288  -16.4345   28.0738 C   0  0  0  0  0  0  0  0  0  0  0  0
   10.7481  -16.1219   29.3723 C   0  0  0  0  0  0  0  0  0  0  0  0
   10.5641  -14.9794   29.8724 O   0  0  0  0  0  0  0  0  0  0  0  0
   11.6617  -17.2618   25.6763 C   0  0  0  0  0  0  0  0  0  0  0  0
   12.4828  -17.8694   26.4553 O   0  0  0  0  0  0  0  0  0  0  0  0
   11.5281  -16.9952   30.0984 O   0  0  0  0  0  0  0  0  0  0  0  0
   11.1259  -18.0547   24.6657 O   0  0  0  0  0  0  0  0  0  0  0  0
  2  1  1  6
  2  3  1  0
  2  7  1  0
  4  3  1  0
  4  5  1  0
  5  6  2  0
  7  8  2  0
  9  5  1  0
 10 11  1  0
 11 12  2  0
 13 11  1  0
 13 14  1  0
 15 14  1  1
 16  7  1  0
 16 15  1  0
 17 15  1  0
 17 18  2  0
 19 17  1  0
 20 25  1  0
 20 19  1  0
 20 21  1  1
 22 21  1  0
 23 27  1  0
 23 22  1  0
 24 23  2  0
 25 28  1  0
 26 25  2  0
M  END
$$$$
