EQE.pdb
     RDKit          3D

 28 27  0  0  1  0  0  0  0  0999 V2000
    9.0065  -17.4354   16.9153 N   0  0  0  0  0  0  0  0  0  0  0  0
   10.2493  -17.8877   17.5384 C   0  0  1  0  0  0  0  0  0  0  0  0
   11.2492  -18.0176   16.4374 C   0  0  0  0  0  0  0  0  0  0  0  0
   12.6301  -18.4257   16.8893 C   0  0  0  0  0  0  0  0  0  0  0  0
   13.4817  -18.4491   15.6854 C   0  0  0  0  0  0  0  0  0  0  0  0
   13.0667  -17.9288   14.6255 O   0  0  0  0  0  0  0  0  0  0  0  0
   10.6154  -16.9331   18.5952 C   0  0  0  0  0  0  0  0  0  0  0  0
   11.2324  -15.8541   18.2785 O   0  0  0  0  0  0  0  0  0  0  0  0
   14.7271  -19.0348   15.7254 O   0  0  0  0  0  0  0  0  0  0  0  0
    7.2035  -13.8982   21.9159 N   0  0  0  0  0  0  0  0  0  0  0  0
    7.2804  -15.3070   22.0804 C   0  0  0  0  0  0  0  0  0  0  0  0
    6.2509  -15.8897   22.5494 O   0  0  0  0  0  0  0  0  0  0  0  0
    8.4842  -16.0607   21.7297 C   0  0  0  0  0  0  0  0  0  0  0  0
    9.6306  -15.2392   21.2147 C   0  0  0  0  0  0  0  0  0  0  0  0
   10.8066  -16.1478   20.9185 C   0  0  2  0  0  0  0  0  0  0  0  0
   10.3212  -17.1382   19.9706 N   0  0  0  0  0  0  0  0  0  0  0  0
   11.2694  -16.8484   22.1411 C   0  0  0  0  0  0  0  0  0  0  0  0
   10.7216  -17.9240   22.4974 O   0  0  0  0  0  0  0  0  0  0  0  0
   12.3070  -16.3290   22.9026 N   0  0  0  0  0  0  0  0  0  0  0  0
   12.8737  -16.9707   24.1161 C   0  0  1  0  0  0  0  0  0  0  0  0
   14.2885  -16.5187   24.1216 C   0  0  0  0  0  0  0  0  0  0  0  0
   15.1352  -16.7387   22.9435 C   0  0  0  0  0  0  0  0  0  0  0  0
   16.4624  -16.1148   23.0724 C   0  0  0  0  0  0  0  0  0  0  0  0
   16.5592  -14.8642   22.9466 O   0  0  0  0  0  0  0  0  0  0  0  0
   12.0092  -16.6617   25.2367 C   0  0  0  0  0  0  0  0  0  0  0  0
   12.2807  -17.1744   26.3829 O   0  0  0  0  0  0  0  0  0  0  0  0
   17.6297  -16.8021   23.3240 O   0  0  0  0  0  0  0  0  0  0  0  0
   10.8820  -15.8456   25.2184 O   0  0  0  0  0  0  0  0  0  0  0  0
  2  1  1  6
  2  3  1  0
  2  7  1  0
  4  3  1  0
  4  5  1  0
  5  6  2  0
  7  8  2  0
  9  5  1  0
 10 11  1  0
 11 12  2  0
 13 11  1  0
 13 14  1  0
 15 14  1  1
 16  7  1  0
 16 15  1  0
 17 15  1  0
 17 18  2  0
 19 17  1  0
 20 25  1  0
 20 19  1  0
 20 21  1  1
 22 21  1  0
 23 27  1  0
 23 22  1  0
 24 23  2  0
 25 28  1  0
 26 25  2  0
M  END
$$$$
