EQE.pdb
     RDKit          3D

 28 27  0  0  1  0  0  0  0  0999 V2000
    9.7296  -18.6382   18.5057 N   0  0  0  0  0  0  0  0  0  0  0  0
   10.5147  -18.6305   19.7389 C   0  0  1  0  0  0  0  0  0  0  0  0
   11.7834  -17.9087   19.4258 C   0  0  0  0  0  0  0  0  0  0  0  0
   12.7079  -18.6440   18.4865 C   0  0  0  0  0  0  0  0  0  0  0  0
   13.9733  -17.8870   18.4564 C   0  0  0  0  0  0  0  0  0  0  0  0
   14.5018  -17.6115   17.3560 O   0  0  0  0  0  0  0  0  0  0  0  0
    9.7043  -18.0208   20.8037 C   0  0  0  0  0  0  0  0  0  0  0  0
    9.0395  -16.9532   20.5516 O   0  0  0  0  0  0  0  0  0  0  0  0
   14.5692  -17.4809   19.6294 O   0  0  0  0  0  0  0  0  0  0  0  0
    6.2395  -21.0574   24.6039 N   0  0  0  0  0  0  0  0  0  0  0  0
    7.6561  -21.1597   24.5875 C   0  0  0  0  0  0  0  0  0  0  0  0
    8.1615  -22.2374   25.0376 O   0  0  0  0  0  0  0  0  0  0  0  0
    8.5023  -20.0804   24.0787 C   0  0  0  0  0  0  0  0  0  0  0  0
    7.7693  -18.8687   23.5799 C   0  0  0  0  0  0  0  0  0  0  0  0
    8.7698  -17.8497   23.0727 C   0  0  2  0  0  0  0  0  0  0  0  0
    9.6121  -18.5531   22.1184 N   0  0  0  0  0  0  0  0  0  0  0  0
    9.6239  -17.3378   24.1719 C   0  0  0  0  0  0  0  0  0  0  0  0
   10.8151  -17.7293   24.2799 O   0  0  0  0  0  0  0  0  0  0  0  0
    9.1222  -16.4253   25.0895 N   0  0  0  0  0  0  0  0  0  0  0  0
    9.8846  -15.8660   26.2348 C   0  0  1  0  0  0  0  0  0  0  0  0
    9.0376  -14.7383   26.7005 C   0  0  0  0  0  0  0  0  0  0  0  0
    9.0682  -13.4541   25.9913 C   0  0  0  0  0  0  0  0  0  0  0  0
    8.0357  -12.5178   26.4654 C   0  0  0  0  0  0  0  0  0  0  0  0
    8.2198  -11.9143   27.5568 O   0  0  0  0  0  0  0  0  0  0  0  0
   10.2065  -16.9523   27.1374 C   0  0  0  0  0  0  0  0  0  0  0  0
    9.4374  -17.9809   27.1612 O   0  0  0  0  0  0  0  0  0  0  0  0
    6.8616  -12.2435   25.7987 O   0  0  0  0  0  0  0  0  0  0  0  0
   11.2886  -17.0165   28.0104 O   0  0  0  0  0  0  0  0  0  0  0  0
  2  1  1  6
  2  3  1  0
  2  7  1  0
  4  3  1  0
  4  5  1  0
  5  6  2  0
  7  8  2  0
  9  5  1  0
 10 11  1  0
 11 12  2  0
 13 11  1  0
 13 14  1  0
 15 14  1  1
 16  7  1  0
 16 15  1  0
 17 15  1  0
 17 18  2  0
 19 17  1  0
 20 25  1  0
 20 19  1  0
 20 21  1  1
 22 21  1  0
 23 27  1  0
 23 22  1  0
 24 23  2  0
 25 28  1  0
 26 25  2  0
M  END
$$$$
