EQE.pdb
     RDKit          3D

 28 27  0  0  1  0  0  0  0  0999 V2000
    7.7991  -12.7487   18.9918 N   0  0  0  0  0  0  0  0  0  0  0  0
    7.6334  -14.0463   19.6444 C   0  0  1  0  0  0  0  0  0  0  0  0
    8.2727  -15.0537   18.7470 C   0  0  0  0  0  0  0  0  0  0  0  0
    8.3365  -16.4498   19.3164 C   0  0  0  0  0  0  0  0  0  0  0  0
    7.6372  -17.3304   18.3620 C   0  0  0  0  0  0  0  0  0  0  0  0
    6.6542  -16.8919   17.7237 O   0  0  0  0  0  0  0  0  0  0  0  0
    8.2118  -13.9667   20.9940 C   0  0  0  0  0  0  0  0  0  0  0  0
    9.4125  -13.5386   21.1367 O   0  0  0  0  0  0  0  0  0  0  0  0
    8.0636  -18.6254   18.1693 O   0  0  0  0  0  0  0  0  0  0  0  0
    5.4959  -12.5495   26.4885 N   0  0  0  0  0  0  0  0  0  0  0  0
    6.8784  -12.7580   26.7391 C   0  0  0  0  0  0  0  0  0  0  0  0
    7.3113  -12.4316   27.8905 O   0  0  0  0  0  0  0  0  0  0  0  0
    7.7705  -13.3212   25.7257 C   0  0  0  0  0  0  0  0  0  0  0  0
    7.1564  -13.5283   24.3713 C   0  0  0  0  0  0  0  0  0  0  0  0
    8.1796  -14.1559   23.4463 C   0  0  2  0  0  0  0  0  0  0  0  0
    7.5077  -14.3424   22.1701 N   0  0  0  0  0  0  0  0  0  0  0  0
    8.6209  -15.4801   23.9479 C   0  0  0  0  0  0  0  0  0  0  0  0
    7.8607  -16.4780   23.8476 O   0  0  0  0  0  0  0  0  0  0  0  0
    9.8712  -15.6336   24.5306 N   0  0  0  0  0  0  0  0  0  0  0  0
   10.3663  -16.8834   25.1620 C   0  0  1  0  0  0  0  0  0  0  0  0
   11.7928  -16.9401   24.7523 C   0  0  0  0  0  0  0  0  0  0  0  0
   12.1456  -17.0853   23.3354 C   0  0  0  0  0  0  0  0  0  0  0  0
   13.5995  -17.1555   23.1156 C   0  0  0  0  0  0  0  0  0  0  0  0
   14.2893  -16.1139   23.2846 O   0  0  0  0  0  0  0  0  0  0  0  0
   10.0160  -16.8495   26.5672 C   0  0  0  0  0  0  0  0  0  0  0  0
    9.5617  -15.7545   27.0619 O   0  0  0  0  0  0  0  0  0  0  0  0
   14.2796  -18.2907   22.7321 O   0  0  0  0  0  0  0  0  0  0  0  0
   10.1150  -17.8995   27.4755 O   0  0  0  0  0  0  0  0  0  0  0  0
  2  1  1  6
  2  3  1  0
  2  7  1  0
  4  3  1  0
  4  5  1  0
  5  6  2  0
  7  8  2  0
  9  5  1  0
 10 11  1  0
 11 12  2  0
 13 11  1  0
 13 14  1  0
 15 14  1  1
 16  7  1  0
 16 15  1  0
 17 15  1  0
 17 18  2  0
 19 17  1  0
 20 25  1  0
 20 19  1  0
 20 21  1  1
 22 21  1  0
 23 27  1  0
 23 22  1  0
 24 23  2  0
 25 28  1  0
 26 25  2  0
M  END
$$$$
