EQE.pdb
     RDKit          3D

 28 27  0  0  1  0  0  0  0  0999 V2000
   12.7948  -17.0945   16.3892 N   0  0  0  0  0  0  0  0  0  0  0  0
   11.9822  -16.0034   15.8541 C   0  0  1  0  0  0  0  0  0  0  0  0
   11.0291  -16.6235   14.8868 C   0  0  0  0  0  0  0  0  0  0  0  0
   10.1371  -15.6410   14.1680 C   0  0  0  0  0  0  0  0  0  0  0  0
    9.9825  -16.1380   12.7880 C   0  0  0  0  0  0  0  0  0  0  0  0
    9.3905  -17.2217   12.5849 O   0  0  0  0  0  0  0  0  0  0  0  0
   11.3491  -15.2987   16.9788 C   0  0  0  0  0  0  0  0  0  0  0  0
   10.7185  -14.2040   16.7570 O   0  0  0  0  0  0  0  0  0  0  0  0
   10.4812  -15.4145   11.7281 O   0  0  0  0  0  0  0  0  0  0  0  0
    8.9285  -12.0922   18.9228 N   0  0  0  0  0  0  0  0  0  0  0  0
    8.3487  -12.8425   19.9805 C   0  0  0  0  0  0  0  0  0  0  0  0
    7.7170  -12.1895   20.8716 O   0  0  0  0  0  0  0  0  0  0  0  0
    8.4679  -14.2988   20.0497 C   0  0  0  0  0  0  0  0  0  0  0  0
    9.2628  -14.9327   18.9448 C   0  0  0  0  0  0  0  0  0  0  0  0
   10.7266  -14.9679   19.3355 C   0  0  2  0  0  0  0  0  0  0  0  0
   11.3950  -15.7664   18.3203 N   0  0  0  0  0  0  0  0  0  0  0  0
   10.9183  -15.6199   20.6538 C   0  0  0  0  0  0  0  0  0  0  0  0
   10.2045  -16.6034   20.9810 O   0  0  0  0  0  0  0  0  0  0  0  0
   11.8826  -15.1556   21.5375 N   0  0  0  0  0  0  0  0  0  0  0  0
   12.8762  -16.0103   22.2362 C   0  0  1  0  0  0  0  0  0  0  0  0
   14.1160  -15.1926   22.2151 C   0  0  0  0  0  0  0  0  0  0  0  0
   15.3364  -15.6910   22.8597 C   0  0  0  0  0  0  0  0  0  0  0  0
   16.5508  -15.4000   22.0800 C   0  0  0  0  0  0  0  0  0  0  0  0
   16.6754  -14.2609   21.5545 O   0  0  0  0  0  0  0  0  0  0  0  0
   12.3043  -16.4280   23.4998 C   0  0  0  0  0  0  0  0  0  0  0  0
   11.2991  -15.7776   23.9652 O   0  0  0  0  0  0  0  0  0  0  0  0
   17.5817  -16.2906   21.8748 O   0  0  0  0  0  0  0  0  0  0  0  0
   12.7282  -17.4883   24.2956 O   0  0  0  0  0  0  0  0  0  0  0  0
  2  1  1  1
  2  3  1  0
  2  7  1  0
  4  3  1  0
  4  5  1  0
  5  6  2  0
  7  8  2  0
  9  5  1  0
 10 11  1  0
 11 12  2  0
 13 11  1  0
 13 14  1  0
 15 14  1  6
 16  7  1  0
 16 15  1  0
 17 15  1  0
 17 18  2  0
 19 17  1  0
 20 25  1  0
 20 19  1  0
 20 21  1  1
 22 21  1  0
 23 27  1  0
 23 22  1  0
 24 23  2  0
 25 28  1  0
 26 25  2  0
M  END
$$$$
