EQE.pdb
     RDKit          3D

 28 27  0  0  1  0  0  0  0  0999 V2000
   10.9349  -18.4312   16.6467 N   0  0  0  0  0  0  0  0  0  0  0  0
    9.8112  -18.6123   17.5641 C   0  0  1  0  0  0  0  0  0  0  0  0
    9.8331  -20.0463   17.9787 C   0  0  0  0  0  0  0  0  0  0  0  0
   11.0791  -20.4660   18.7194 C   0  0  0  0  0  0  0  0  0  0  0  0
   10.9465  -21.9097   18.9904 C   0  0  0  0  0  0  0  0  0  0  0  0
   11.3795  -22.3780   20.0671 O   0  0  0  0  0  0  0  0  0  0  0  0
    9.9493  -17.6489   18.6664 C   0  0  0  0  0  0  0  0  0  0  0  0
   11.1225  -17.3042   19.0538 O   0  0  0  0  0  0  0  0  0  0  0  0
   10.3468  -22.7384   18.0688 O   0  0  0  0  0  0  0  0  0  0  0  0
    7.1090  -12.7533   19.9248 N   0  0  0  0  0  0  0  0  0  0  0  0
    7.6251  -12.9837   21.2279 C   0  0  0  0  0  0  0  0  0  0  0  0
    7.7533  -11.9689   21.9850 O   0  0  0  0  0  0  0  0  0  0  0  0
    7.9950  -14.3228   21.6862 C   0  0  0  0  0  0  0  0  0  0  0  0
    7.7844  -15.4253   20.6890 C   0  0  0  0  0  0  0  0  0  0  0  0
    9.1200  -16.0532   20.3447 C   0  0  2  0  0  0  0  0  0  0  0  0
    8.8412  -17.0669   19.3399 N   0  0  0  0  0  0  0  0  0  0  0  0
    9.7281  -16.7115   21.5265 C   0  0  0  0  0  0  0  0  0  0  0  0
    9.3422  -17.8564   21.8791 O   0  0  0  0  0  0  0  0  0  0  0  0
   10.7250  -16.0761   22.2537 N   0  0  0  0  0  0  0  0  0  0  0  0
   11.4474  -16.6731   23.4059 C   0  0  1  0  0  0  0  0  0  0  0  0
   12.8615  -16.2844   23.1704 C   0  0  0  0  0  0  0  0  0  0  0  0
   13.8836  -16.5818   24.1804 C   0  0  0  0  0  0  0  0  0  0  0  0
   15.2363  -16.1871   23.7540 C   0  0  0  0  0  0  0  0  0  0  0  0
   15.3914  -15.7042   22.6000 O   0  0  0  0  0  0  0  0  0  0  0  0
   10.7756  -16.2637   24.6222 C   0  0  0  0  0  0  0  0  0  0  0  0
    9.9566  -15.2754   24.5700 O   0  0  0  0  0  0  0  0  0  0  0  0
   16.3681  -16.3061   24.5307 O   0  0  0  0  0  0  0  0  0  0  0  0
   10.9156  -16.8354   25.8835 O   0  0  0  0  0  0  0  0  0  0  0  0
  2  1  1  6
  2  3  1  0
  2  7  1  0
  4  3  1  0
  4  5  1  0
  5  6  2  0
  7  8  2  0
  9  5  1  0
 10 11  1  0
 11 12  2  0
 13 11  1  0
 13 14  1  0
 15 14  1  1
 16  7  1  0
 16 15  1  0
 17 15  1  0
 17 18  2  0
 19 17  1  0
 20 25  1  0
 20 19  1  0
 20 21  1  1
 22 21  1  0
 23 27  1  0
 23 22  1  0
 24 23  2  0
 25 28  1  0
 26 25  2  0
M  END
$$$$
