HPV.pdb
     RDKit          3D

 25 26  0  0  1  0  0  0  0  0999 V2000
    9.9922  -14.5518   20.8711 N   0  0  0  0  0  0  0  0  0  0  0  0
    8.8507  -14.3094   21.6757 C   0  0  1  0  0  0  0  0  0  0  0  0
    7.5801  -14.9373   21.0937 C   0  0  0  0  0  0  0  0  0  0  0  0
    7.3868  -14.5016   19.6828 C   0  0  0  0  0  0  0  0  0  0  0  0
    7.3723  -15.3424   18.5956 C   0  0  0  0  0  0  0  0  0  0  0  0
    7.1772  -14.6030   17.5079 N   0  0  0  0  0  0  0  0  0  0  0  0
    7.0729  -13.3406   17.9016 C   0  0  0  0  0  0  0  0  0  0  0  0
    7.1986  -13.2539   19.2347 N   0  0  0  0  0  0  0  0  0  0  0  0
    8.9433  -14.7526   23.0748 C   0  0  0  0  0  0  0  0  0  0  0  0
    9.9641  -15.4755   23.3345 O   0  0  0  0  0  0  0  0  0  0  0  0
    7.9994  -14.4286   24.0891 N   0  0  0  0  0  0  0  0  0  0  0  0
    6.6399  -13.9676   23.9600 C   0  0  0  0  0  0  0  0  0  0  0  0
    6.2631  -13.3291   25.2792 C   0  0  0  0  0  0  0  0  0  0  0  0
    7.5118  -13.3523   26.1121 C   0  0  0  0  0  0  0  0  0  0  0  0
    8.2669  -14.5132   25.5036 C   0  0  1  0  0  0  0  0  0  0  0  0
    7.7831  -15.7479   26.1381 C   0  0  0  0  0  0  0  0  0  0  0  0
    6.5384  -15.8997   26.2337 O   0  0  0  0  0  0  0  0  0  0  0  0
    7.4683  -18.7857   24.7798 C   0  0  0  0  0  0  0  0  0  0  0  0
    8.1726  -19.1317   26.0468 C   0  0  1  0  0  0  0  0  0  0  0  0
    9.6373  -19.3554   25.7332 C   0  0  0  0  0  0  0  0  0  0  0  0
    8.0940  -18.0596   27.1005 C   0  0  2  0  0  0  0  0  0  0  0  0
    8.6036  -16.7878   26.6548 N   0  0  0  0  0  0  0  0  0  0  0  0
    8.8795  -18.5033   28.2762 C   0  0  0  0  0  0  0  0  0  0  0  0
    9.9286  -17.8943   28.6256 O   0  0  0  0  0  0  0  0  0  0  0  0
    8.4356  -19.6074   28.9886 O   0  0  0  0  0  0  0  0  0  0  0  0
  2  9  1  0
  2  1  1  6
  3  2  1  0
  4  3  1  0
  5  4  2  0
  6  5  1  0
  7  6  1  0
  7  8  2  0
  8  4  1  0
  9 11  1  0
 10  9  2  0
 11 15  1  0
 12 11  1  0
 12 13  1  0
 13 14  1  0
 15 16  1  1
 15 14  1  0
 16 17  2  0
 19 18  1  6
 19 21  1  0
 19 20  1  0
 21 22  1  6
 22 16  1  0
 23 21  1  0
 24 23  2  0
 25 23  1  0
M  END
$$$$
