HPV.pdb
     RDKit          3D

 25 26  0  0  1  0  0  0  0  0999 V2000
   10.8711  -17.4676   19.9363 N   0  0  0  0  0  0  0  0  0  0  0  0
    9.7165  -17.4852   20.7582 C   0  0  1  0  0  0  0  0  0  0  0  0
    9.3325  -18.9016   21.1983 C   0  0  0  0  0  0  0  0  0  0  0  0
    7.9297  -18.9261   21.6978 C   0  0  0  0  0  0  0  0  0  0  0  0
    7.5678  -18.9459   23.0237 C   0  0  0  0  0  0  0  0  0  0  0  0
    6.2398  -18.9645   23.0861 N   0  0  0  0  0  0  0  0  0  0  0  0
    5.7855  -18.9565   21.8398 C   0  0  0  0  0  0  0  0  0  0  0  0
    6.8063  -18.9329   20.9693 N   0  0  0  0  0  0  0  0  0  0  0  0
    9.7802  -16.6627   21.9756 C   0  0  0  0  0  0  0  0  0  0  0  0
   10.9150  -16.6726   22.5621 O   0  0  0  0  0  0  0  0  0  0  0  0
    8.6950  -15.9027   22.4949 N   0  0  0  0  0  0  0  0  0  0  0  0
    7.3078  -15.9036   22.1038 C   0  0  0  0  0  0  0  0  0  0  0  0
    6.7043  -14.6132   22.6145 C   0  0  0  0  0  0  0  0  0  0  0  0
    7.8452  -13.8396   23.2091 C   0  0  0  0  0  0  0  0  0  0  0  0
    8.8144  -14.9448   23.5662 C   0  0  1  0  0  0  0  0  0  0  0  0
    8.4372  -15.4655   24.8882 C   0  0  0  0  0  0  0  0  0  0  0  0
    7.8808  -16.5926   24.9288 O   0  0  0  0  0  0  0  0  0  0  0  0
   10.9573  -14.4256   29.1094 C   0  0  0  0  0  0  0  0  0  0  0  0
    9.9055  -14.0761   28.1130 C   0  0  1  0  0  0  0  0  0  0  0  0
   10.2749  -12.7541   27.4727 C   0  0  0  0  0  0  0  0  0  0  0  0
    9.7523  -15.0868   27.0081 C   0  0  2  0  0  0  0  0  0  0  0  0
    8.6474  -14.8024   26.1283 N   0  0  0  0  0  0  0  0  0  0  0  0
    9.5435  -16.4196   27.6214 C   0  0  0  0  0  0  0  0  0  0  0  0
   10.4528  -16.9738   28.2995 O   0  0  0  0  0  0  0  0  0  0  0  0
    8.3219  -17.0489   27.4340 O   0  0  0  0  0  0  0  0  0  0  0  0
  2  9  1  0
  2  1  1  1
  3  2  1  0
  4  3  1  0
  5  4  2  0
  6  5  1  0
  7  6  1  0
  7  8  2  0
  8  4  1  0
  9 11  1  0
 10  9  2  0
 11 15  1  0
 12 11  1  0
 12 13  1  0
 13 14  1  0
 15 16  1  1
 15 14  1  0
 16 17  2  0
 19 18  1  1
 19 21  1  0
 19 20  1  0
 21 22  1  6
 22 16  1  0
 23 21  1  0
 24 23  2  0
 25 23  1  0
M  END
$$$$
