HPV.pdb
     RDKit          3D

 25 26  0  0  1  0  0  0  0  0999 V2000
  -14.3465  -41.1876  -24.1712 N   0  0  0  0  0  0  0  0  0  0  0  0
  -14.7647  -40.0977  -24.9753 C   0  0  1  0  0  0  0  0  0  0  0  0
  -14.4826  -40.3259  -26.4637 C   0  0  0  0  0  0  0  0  0  0  0  0
  -14.0906  -41.7422  -26.7052 C   0  0  0  0  0  0  0  0  0  0  0  0
  -13.2438  -42.4707  -25.9043 C   0  0  0  0  0  0  0  0  0  0  0  0
  -13.1283  -43.6870  -26.4289 N   0  0  0  0  0  0  0  0  0  0  0  0
  -13.8784  -43.7185  -27.5225 C   0  0  0  0  0  0  0  0  0  0  0  0
  -14.4796  -42.5341  -27.7124 N   0  0  0  0  0  0  0  0  0  0  0  0
  -16.1816  -39.7209  -24.8624 C   0  0  0  0  0  0  0  0  0  0  0  0
  -16.6091  -39.6221  -23.6626 O   0  0  0  0  0  0  0  0  0  0  0  0
  -17.0433  -39.4768  -25.9683 N   0  0  0  0  0  0  0  0  0  0  0  0
  -17.7504  -38.2738  -26.3289 C   0  0  0  0  0  0  0  0  0  0  0  0
  -18.8623  -38.6810  -27.2712 C   0  0  0  0  0  0  0  0  0  0  0  0
  -18.8149  -40.1803  -27.3303 C   0  0  0  0  0  0  0  0  0  0  0  0
  -17.3714  -40.4576  -26.9733 C   0  0  1  0  0  0  0  0  0  0  0  0
  -16.5744  -40.3525  -28.2042 C   0  0  0  0  0  0  0  0  0  0  0  0
  -15.9117  -39.2976  -28.3759 O   0  0  0  0  0  0  0  0  0  0  0  0
  -17.7016  -44.8836  -29.5308 C   0  0  0  0  0  0  0  0  0  0  0  0
  -16.8614  -43.6932  -29.8440 C   0  0  1  0  0  0  0  0  0  0  0  0
  -16.6743  -43.6226  -31.3454 C   0  0  0  0  0  0  0  0  0  0  0  0
  -17.4651  -42.3872  -29.4014 C   0  0  2  0  0  0  0  0  0  0  0  0
  -16.4886  -41.3435  -29.2202 N   0  0  0  0  0  0  0  0  0  0  0  0
  -18.1690  -42.6110  -28.1166 C   0  0  0  0  0  0  0  0  0  0  0  0
  -17.8806  -41.9352  -27.0901 O   0  0  0  0  0  0  0  0  0  0  0  0
  -19.1565  -43.5835  -28.0652 O   0  0  0  0  0  0  0  0  0  0  0  0
  2  9  1  0
  2  1  1  1
  3  2  1  0
  4  3  1  0
  5  4  2  0
  6  5  1  0
  7  6  1  0
  7  8  2  0
  8  4  1  0
  9 11  1  0
 10  9  2  0
 11 15  1  0
 12 11  1  0
 12 13  1  0
 13 14  1  0
 15 16  1  6
 15 14  1  0
 16 17  2  0
 19 18  1  6
 19 21  1  0
 19 20  1  0
 21 22  1  1
 22 16  1  0
 23 21  1  0
 24 23  2  0
 25 23  1  0
M  END
$$$$
