HPV.pdb
     RDKit          3D

 25 26  0  0  1  0  0  0  0  0999 V2000
   11.9660  -17.1232   19.7885 N   0  0  0  0  0  0  0  0  0  0  0  0
   11.0529  -17.3871   20.8400 C   0  0  1  0  0  0  0  0  0  0  0  0
   11.7443  -17.9363   22.0920 C   0  0  0  0  0  0  0  0  0  0  0  0
   12.3364  -19.2737   21.8119 C   0  0  0  0  0  0  0  0  0  0  0  0
   11.6509  -20.3419   21.2844 C   0  0  0  0  0  0  0  0  0  0  0  0
   12.4990  -21.3601   21.1753 N   0  0  0  0  0  0  0  0  0  0  0  0
   13.6769  -20.9426   21.6200 C   0  0  0  0  0  0  0  0  0  0  0  0
   13.6011  -19.6630   22.0167 N   0  0  0  0  0  0  0  0  0  0  0  0
   10.2245  -16.2520   21.2733 C   0  0  0  0  0  0  0  0  0  0  0  0
   10.8467  -15.1384   21.3418 O   0  0  0  0  0  0  0  0  0  0  0  0
    8.8421  -16.3387   21.5994 N   0  0  0  0  0  0  0  0  0  0  0  0
    7.9640  -17.4810   21.5649 C   0  0  0  0  0  0  0  0  0  0  0  0
    6.5478  -16.9485   21.5321 C   0  0  0  0  0  0  0  0  0  0  0  0
    6.6781  -15.4562   21.4343 C   0  0  0  0  0  0  0  0  0  0  0  0
    8.0422  -15.2249   22.0458 C   0  0  1  0  0  0  0  0  0  0  0  0
    7.8749  -15.1463   23.5043 C   0  0  0  0  0  0  0  0  0  0  0  0
    8.2276  -16.1454   24.1817 O   0  0  0  0  0  0  0  0  0  0  0  0
    5.7607  -12.3748   26.2018 C   0  0  0  0  0  0  0  0  0  0  0  0
    7.2303  -12.3074   25.9637 C   0  0  1  0  0  0  0  0  0  0  0  0
    7.9077  -11.9259   27.2635 C   0  0  0  0  0  0  0  0  0  0  0  0
    7.8337  -13.6075   25.5036 C   0  0  2  0  0  0  0  0  0  0  0  0
    7.3468  -14.0349   24.2167 N   0  0  0  0  0  0  0  0  0  0  0  0
    7.5130  -14.6507   26.5061 C   0  0  0  0  0  0  0  0  0  0  0  0
    6.5241  -15.4200   26.3514 O   0  0  0  0  0  0  0  0  0  0  0  0
    8.3261  -14.7648   27.6239 O   0  0  0  0  0  0  0  0  0  0  0  0
  2  9  1  0
  2  1  1  6
  3  2  1  0
  4  3  1  0
  5  4  2  0
  6  5  1  0
  7  6  1  0
  7  8  2  0
  8  4  1  0
  9 11  1  0
 10  9  2  0
 11 15  1  0
 12 11  1  0
 12 13  1  0
 13 14  1  0
 15 16  1  1
 15 14  1  0
 16 17  2  0
 19 18  1  1
 19 21  1  0
 19 20  1  0
 21 22  1  6
 22 16  1  0
 23 21  1  0
 24 23  2  0
 25 23  1  0
M  END
$$$$
