HPV.pdb
     RDKit          3D

 25 26  0  0  1  0  0  0  0  0999 V2000
   12.0016  -17.1571   20.3675 N   0  0  0  0  0  0  0  0  0  0  0  0
   10.9279  -17.4578   21.2426 C   0  0  1  0  0  0  0  0  0  0  0  0
   11.3632  -18.3275   22.4264 C   0  0  0  0  0  0  0  0  0  0  0  0
   11.7975  -19.6701   21.9503 C   0  0  0  0  0  0  0  0  0  0  0  0
   10.9484  -20.6799   21.5649 C   0  0  0  0  0  0  0  0  0  0  0  0
   11.6892  -21.7235   21.2042 N   0  0  0  0  0  0  0  0  0  0  0  0
   12.9605  -21.3779   21.3589 C   0  0  0  0  0  0  0  0  0  0  0  0
   13.0516  -20.1199   21.8166 N   0  0  0  0  0  0  0  0  0  0  0  0
   10.2111  -16.3025   21.8028 C   0  0  0  0  0  0  0  0  0  0  0  0
   10.9511  -15.2925   22.0560 O   0  0  0  0  0  0  0  0  0  0  0  0
    8.8117  -16.2664   22.0588 N   0  0  0  0  0  0  0  0  0  0  0  0
    7.8276  -17.3090   21.9108 C   0  0  0  0  0  0  0  0  0  0  0  0
    6.4750  -16.6334   21.8469 C   0  0  0  0  0  0  0  0  0  0  0  0
    6.7577  -15.1590   21.8509 C   0  0  0  0  0  0  0  0  0  0  0  0
    8.1041  -15.1050   22.5382 C   0  0  1  0  0  0  0  0  0  0  0  0
    7.8694  -15.0958   23.9894 C   0  0  0  0  0  0  0  0  0  0  0  0
    8.1129  -16.1554   24.6215 O   0  0  0  0  0  0  0  0  0  0  0  0
    7.7706  -11.1149   25.5871 C   0  0  0  0  0  0  0  0  0  0  0  0
    7.4250  -12.2536   26.4843 C   0  0  1  0  0  0  0  0  0  0  0  0
    5.9162  -12.3562   26.5662 C   0  0  0  0  0  0  0  0  0  0  0  0
    7.9438  -13.5841   26.0083 C   0  0  2  0  0  0  0  0  0  0  0  0
    7.3890  -13.9891   24.7419 N   0  0  0  0  0  0  0  0  0  0  0  0
    7.6067  -14.6069   27.0264 C   0  0  0  0  0  0  0  0  0  0  0  0
    8.1397  -14.5870   28.1705 O   0  0  0  0  0  0  0  0  0  0  0  0
    6.6884  -15.5919   26.6942 O   0  0  0  0  0  0  0  0  0  0  0  0
  2  9  1  0
  2  1  1  1
  3  2  1  0
  4  3  1  0
  5  4  2  0
  6  5  1  0
  7  6  1  0
  7  8  2  0
  8  4  1  0
  9 11  1  0
 10  9  2  0
 11 15  1  0
 12 11  1  0
 12 13  1  0
 13 14  1  0
 15 16  1  1
 15 14  1  0
 16 17  2  0
 19 18  1  6
 19 21  1  0
 19 20  1  0
 21 22  1  6
 22 16  1  0
 23 21  1  0
 24 23  2  0
 25 23  1  0
M  END
$$$$
