HPV.pdb
     RDKit          3D

 25 26  0  0  1  0  0  0  0  0999 V2000
   11.7645  -17.1103   20.2093 N   0  0  0  0  0  0  0  0  0  0  0  0
   10.5911  -17.2475   20.9925 C   0  0  1  0  0  0  0  0  0  0  0  0
   10.4000  -18.6746   21.5160 C   0  0  0  0  0  0  0  0  0  0  0  0
   10.1534  -19.6121   20.3855 C   0  0  0  0  0  0  0  0  0  0  0  0
    9.1723  -19.4568   19.4355 C   0  0  0  0  0  0  0  0  0  0  0  0
    9.2535  -20.4806   18.5910 N   0  0  0  0  0  0  0  0  0  0  0  0
   10.2528  -21.2514   18.9994 C   0  0  0  0  0  0  0  0  0  0  0  0
   10.8209  -20.7374   20.1009 N   0  0  0  0  0  0  0  0  0  0  0  0
   10.4823  -16.3495   22.1519 C   0  0  0  0  0  0  0  0  0  0  0  0
   11.6026  -15.9724   22.6362 O   0  0  0  0  0  0  0  0  0  0  0  0
    9.2543  -15.9105   22.7214 N   0  0  0  0  0  0  0  0  0  0  0  0
    7.9032  -16.2684   22.3696 C   0  0  0  0  0  0  0  0  0  0  0  0
    7.0008  -15.1910   22.9309 C   0  0  0  0  0  0  0  0  0  0  0  0
    7.9189  -14.1560   23.5133 C   0  0  0  0  0  0  0  0  0  0  0  0
    9.1552  -14.9743   23.8137 C   0  0  1  0  0  0  0  0  0  0  0  0
    8.9727  -15.5995   25.1317 C   0  0  0  0  0  0  0  0  0  0  0  0
    8.5377  -16.7792   25.1570 O   0  0  0  0  0  0  0  0  0  0  0  0
   11.2907  -13.2745   27.8067 C   0  0  0  0  0  0  0  0  0  0  0  0
   10.6088  -14.4754   28.3670 C   0  0  1  0  0  0  0  0  0  0  0  0
    9.3469  -14.0227   29.0717 C   0  0  0  0  0  0  0  0  0  0  0  0
   10.2084  -15.4892   27.3289 C   0  0  2  0  0  0  0  0  0  0  0  0
    9.2459  -14.9833   26.3836 N   0  0  0  0  0  0  0  0  0  0  0  0
    9.6254  -16.6616   28.0229 C   0  0  0  0  0  0  0  0  0  0  0  0
    8.4069  -16.9609   27.8837 O   0  0  0  0  0  0  0  0  0  0  0  0
   10.4507  -17.4272   28.8331 O   0  0  0  0  0  0  0  0  0  0  0  0
  2  9  1  0
  2  1  1  1
  3  2  1  0
  4  3  1  0
  5  4  2  0
  6  5  1  0
  7  6  1  0
  7  8  2  0
  8  4  1  0
  9 11  1  0
 10  9  2  0
 11 15  1  0
 12 11  1  0
 12 13  1  0
 13 14  1  0
 15 16  1  1
 15 14  1  0
 16 17  2  0
 19 18  1  6
 19 21  1  0
 19 20  1  0
 21 22  1  6
 22 16  1  0
 23 21  1  0
 24 23  2  0
 25 23  1  0
M  END
$$$$
