HPV.pdb
     RDKit          3D

 25 26  0  0  1  0  0  0  0  0999 V2000
    6.8626  -18.2660   18.2371 N   0  0  0  0  0  0  0  0  0  0  0  0
    6.6658  -17.5978   19.4715 C   0  0  1  0  0  0  0  0  0  0  0  0
    5.9712  -18.4822   20.5120 C   0  0  0  0  0  0  0  0  0  0  0  0
    4.6557  -18.9525   19.9963 C   0  0  0  0  0  0  0  0  0  0  0  0
    3.5051  -18.2009   19.9766 C   0  0  0  0  0  0  0  0  0  0  0  0
    2.5377  -18.9455   19.4495 N   0  0  0  0  0  0  0  0  0  0  0  0
    3.0659  -20.1247   19.1492 C   0  0  0  0  0  0  0  0  0  0  0  0
    4.3668  -20.1522   19.4765 N   0  0  0  0  0  0  0  0  0  0  0  0
    7.8746  -17.0564   20.1104 C   0  0  0  0  0  0  0  0  0  0  0  0
    8.9624  -17.6190   19.7471 O   0  0  0  0  0  0  0  0  0  0  0  0
    7.8811  -15.9959   21.0592 N   0  0  0  0  0  0  0  0  0  0  0  0
    6.7743  -15.2572   21.6130 C   0  0  0  0  0  0  0  0  0  0  0  0
    7.3391  -13.9702   22.1739 C   0  0  0  0  0  0  0  0  0  0  0  0
    8.7945  -13.9720   21.8063 C   0  0  0  0  0  0  0  0  0  0  0  0
    9.0738  -15.4514   21.6596 C   0  0  1  0  0  0  0  0  0  0  0  0
    9.3780  -15.9872   22.9944 C   0  0  0  0  0  0  0  0  0  0  0  0
    8.4251  -16.0858   23.8091 O   0  0  0  0  0  0  0  0  0  0  0  0
   10.9121  -19.3405   22.7026 C   0  0  0  0  0  0  0  0  0  0  0  0
   11.6298  -18.6363   23.8026 C   0  0  1  0  0  0  0  0  0  0  0  0
   12.9323  -18.0935   23.2523 C   0  0  0  0  0  0  0  0  0  0  0  0
   10.8664  -17.4768   24.3846 C   0  0  2  0  0  0  0  0  0  0  0  0
   10.6605  -16.4043   23.4448 N   0  0  0  0  0  0  0  0  0  0  0  0
   11.6250  -16.9552   25.5458 C   0  0  0  0  0  0  0  0  0  0  0  0
   12.2474  -15.8590   25.4776 O   0  0  0  0  0  0  0  0  0  0  0  0
   11.6370  -17.7004   26.7155 O   0  0  0  0  0  0  0  0  0  0  0  0
  2  9  1  0
  2  1  1  6
  3  2  1  0
  4  3  1  0
  5  4  2  0
  6  5  1  0
  7  6  1  0
  7  8  2  0
  8  4  1  0
  9 11  1  0
 10  9  2  0
 11 15  1  0
 12 11  1  0
 12 13  1  0
 13 14  1  0
 15 16  1  1
 15 14  1  0
 16 17  2  0
 19 18  1  6
 19 21  1  0
 19 20  1  0
 21 22  1  6
 22 16  1  0
 23 21  1  0
 24 23  2  0
 25 23  1  0
M  END
$$$$
