HPV.pdb
     RDKit          3D

 25 26  0  0  1  0  0  0  0  0999 V2000
   10.8534  -14.5391   20.7730 N   0  0  0  0  0  0  0  0  0  0  0  0
    9.5926  -14.3249   21.3842 C   0  0  1  0  0  0  0  0  0  0  0  0
    8.4890  -15.1919   20.7697 C   0  0  0  0  0  0  0  0  0  0  0  0
    8.1357  -14.6942   19.4113 C   0  0  0  0  0  0  0  0  0  0  0  0
    8.7053  -13.6017   18.8018 C   0  0  0  0  0  0  0  0  0  0  0  0
    8.1442  -13.4611   17.6046 N   0  0  0  0  0  0  0  0  0  0  0  0
    7.2525  -14.4339   17.4693 C   0  0  0  0  0  0  0  0  0  0  0  0
    7.2298  -15.2044   18.5676 N   0  0  0  0  0  0  0  0  0  0  0  0
    9.5386  -14.5333   22.8389 C   0  0  0  0  0  0  0  0  0  0  0  0
   10.5912  -15.0577   23.3378 O   0  0  0  0  0  0  0  0  0  0  0  0
    8.4288  -14.1952   23.6629 N   0  0  0  0  0  0  0  0  0  0  0  0
    7.0702  -13.8931   23.2887 C   0  0  0  0  0  0  0  0  0  0  0  0
    6.4465  -13.1518   24.4513 C   0  0  0  0  0  0  0  0  0  0  0  0
    7.5532  -12.9532   25.4460 C   0  0  0  0  0  0  0  0  0  0  0  0
    8.4868  -14.0920   25.1001 C   0  0  1  0  0  0  0  0  0  0  0  0
    8.0194  -15.2903   25.8120 C   0  0  0  0  0  0  0  0  0  0  0  0
    7.2851  -16.0903   25.1778 O   0  0  0  0  0  0  0  0  0  0  0  0
   11.1521  -15.0653   29.6101 C   0  0  0  0  0  0  0  0  0  0  0  0
    9.8764  -14.8042   28.8851 C   0  0  1  0  0  0  0  0  0  0  0  0
    9.8858  -13.3680   28.4043 C   0  0  0  0  0  0  0  0  0  0  0  0
    9.6684  -15.6832   27.6810 C   0  0  2  0  0  0  0  0  0  0  0  0
    8.3266  -15.6232   27.1598 N   0  0  0  0  0  0  0  0  0  0  0  0
    9.9683  -17.0820   28.0678 C   0  0  0  0  0  0  0  0  0  0  0  0
   11.1160  -17.4125   28.4769 O   0  0  0  0  0  0  0  0  0  0  0  0
    8.9565  -18.0256   27.9705 O   0  0  0  0  0  0  0  0  0  0  0  0
  2  9  1  0
  2  1  1  6
  3  2  1  0
  4  3  1  0
  5  4  2  0
  6  5  1  0
  7  6  1  0
  7  8  2  0
  8  4  1  0
  9 11  1  0
 10  9  2  0
 11 15  1  0
 12 11  1  0
 12 13  1  0
 13 14  1  0
 15 16  1  1
 15 14  1  0
 16 17  2  0
 19 18  1  6
 19 21  1  0
 19 20  1  0
 21 22  1  1
 22 16  1  0
 23 21  1  0
 24 23  2  0
 25 23  1  0
M  END
$$$$
