GAA.pdb
     RDKit          3D

 15 14  0  0  1  0  0  0  0  0999 V2000
   17.2861  -11.5596  -16.7942 N   0  0  0  0  0  0  0  0  0  0  0  0
   18.3378  -10.7084  -17.2637 C   0  0  0  0  0  0  0  0  0  0  0  0
   18.9927   -9.9709  -16.1658 C   0  0  0  0  0  0  0  0  0  0  0  0
   18.3522   -9.4088  -15.2232 O   0  0  0  0  0  0  0  0  0  0  0  0
   22.5707   -9.4930  -15.0304 C   0  0  0  0  0  0  0  0  0  0  0  0
   21.1105   -9.0809  -15.1681 C   0  0  2  0  0  0  0  0  0  0  0  0
   20.4028   -9.8608  -16.1235 N   0  0  0  0  0  0  0  0  0  0  0  0
   21.0910   -7.6271  -15.4406 C   0  0  0  0  0  0  0  0  0  0  0  0
   21.3063   -7.2221  -16.6088 O   0  0  0  0  0  0  0  0  0  0  0  0
   19.6375   -4.5286  -14.0881 C   0  0  0  0  0  0  0  0  0  0  0  0
   20.8084   -5.2064  -14.7661 C   0  0  2  0  0  0  0  0  0  0  0  0
   20.8433   -6.6276  -14.4676 N   0  0  0  0  0  0  0  0  0  0  0  0
   22.0441   -4.6165  -14.2028 C   0  0  0  0  0  0  0  0  0  0  0  0
   22.7034   -5.2935  -13.3823 O   0  0  0  0  0  0  0  0  0  0  0  0
   22.5071   -3.3585  -14.5353 O   0  0  0  0  0  0  0  0  0  0  0  0
  2  3  1  0
  2  1  1  0
  3  7  1  0
  4  3  2  0
  6  5  1  6
  7  6  1  0
  8  6  1  0
  8 12  1  0
  9  8  2  0
 11 10  1  1
 11 12  1  0
 11 13  1  0
 13 15  1  0
 14 13  2  0
M  END
$$$$
