GAA.pdb
     RDKit          3D

 15 14  0  0  1  0  0  0  0  0999 V2000
   18.1511  -12.0037  -15.2339 N   0  0  0  0  0  0  0  0  0  0  0  0
   17.5581  -10.7159  -15.0315 C   0  0  0  0  0  0  0  0  0  0  0  0
   18.4571   -9.6166  -15.4333 C   0  0  0  0  0  0  0  0  0  0  0  0
   19.6476   -9.8011  -15.8374 O   0  0  0  0  0  0  0  0  0  0  0  0
   17.9411   -6.0243  -16.3596 C   0  0  0  0  0  0  0  0  0  0  0  0
   18.7872   -7.1613  -15.8007 C   0  0  2  0  0  0  0  0  0  0  0  0
   18.0096   -8.2752  -15.3806 N   0  0  0  0  0  0  0  0  0  0  0  0
   19.6439   -6.5874  -14.7401 C   0  0  0  0  0  0  0  0  0  0  0  0
   19.1835   -6.4742  -13.5781 O   0  0  0  0  0  0  0  0  0  0  0  0
   23.2830   -5.7433  -14.2108 C   0  0  0  0  0  0  0  0  0  0  0  0
   21.8149   -5.6345  -13.8605 C   0  0  2  0  0  0  0  0  0  0  0  0
   20.9755   -6.1433  -14.9314 N   0  0  0  0  0  0  0  0  0  0  0  0
   21.5033   -4.1944  -13.7150 C   0  0  0  0  0  0  0  0  0  0  0  0
   22.0339   -3.5655  -12.7721 O   0  0  0  0  0  0  0  0  0  0  0  0
   20.6581   -3.5088  -14.5653 O   0  0  0  0  0  0  0  0  0  0  0  0
  2  3  1  0
  2  1  1  0
  3  7  1  0
  4  3  2  0
  6  5  1  1
  7  6  1  0
  8  6  1  0
  8 12  1  0
  9  8  2  0
 11 10  1  6
 11 12  1  0
 11 13  1  0
 13 15  1  0
 14 13  2  0
M  END
$$$$
