GAA.pdb
     RDKit          3D

 15 14  0  0  1  0  0  0  0  0999 V2000
   18.6763  -12.3461  -17.2727 N   0  0  0  0  0  0  0  0  0  0  0  0
   19.9724  -11.7443  -17.3686 C   0  0  0  0  0  0  0  0  0  0  0  0
   20.2455  -10.8229  -16.2485 C   0  0  0  0  0  0  0  0  0  0  0  0
   19.3391  -10.1620  -15.6517 O   0  0  0  0  0  0  0  0  0  0  0  0
   23.3282   -9.9609  -14.2107 C   0  0  0  0  0  0  0  0  0  0  0  0
   21.9343   -9.7094  -14.7719 C   0  0  2  0  0  0  0  0  0  0  0  0
   21.5697  -10.6377  -15.7854 N   0  0  0  0  0  0  0  0  0  0  0  0
   21.8855   -8.2948  -15.2017 C   0  0  0  0  0  0  0  0  0  0  0  0
   22.3599   -7.9799  -16.3202 O   0  0  0  0  0  0  0  0  0  0  0  0
   19.8009   -5.3467  -14.7148 C   0  0  0  0  0  0  0  0  0  0  0  0
   21.2033   -5.8757  -14.9234 C   0  0  2  0  0  0  0  0  0  0  0  0
   21.3335   -7.2381  -14.4364 N   0  0  0  0  0  0  0  0  0  0  0  0
   22.1144   -5.0379  -14.1109 C   0  0  0  0  0  0  0  0  0  0  0  0
   22.5336   -5.4988  -13.0255 O   0  0  0  0  0  0  0  0  0  0  0  0
   22.5259   -3.7746  -14.4880 O   0  0  0  0  0  0  0  0  0  0  0  0
  2  3  1  0
  2  1  1  0
  3  7  1  0
  4  3  2  0
  6  5  1  6
  7  6  1  0
  8  6  1  0
  8 12  1  0
  9  8  2  0
 11 10  1  1
 11 12  1  0
 11 13  1  0
 13 15  1  0
 14 13  2  0
M  END
$$$$
