GAA.pdb
     RDKit          3D

 15 14  0  0  1  0  0  0  0  0999 V2000
   15.9880   -7.8568  -15.2746 N   0  0  0  0  0  0  0  0  0  0  0  0
   17.1962   -7.7945  -16.0410 C   0  0  0  0  0  0  0  0  0  0  0  0
   18.3353   -8.4202  -15.3416 C   0  0  0  0  0  0  0  0  0  0  0  0
   18.3424   -8.6577  -14.0933 O   0  0  0  0  0  0  0  0  0  0  0  0
   21.5147  -10.1541  -16.3695 C   0  0  0  0  0  0  0  0  0  0  0  0
   20.6927   -9.2587  -15.4511 C   0  0  2  0  0  0  0  0  0  0  0  0
   19.4968   -8.7894  -16.0606 N   0  0  0  0  0  0  0  0  0  0  0  0
   21.5893   -8.1841  -14.9721 C   0  0  0  0  0  0  0  0  0  0  0  0
   22.5864   -8.4874  -14.2729 O   0  0  0  0  0  0  0  0  0  0  0  0
   22.2127   -4.5126  -15.5714 C   0  0  0  0  0  0  0  0  0  0  0  0
   22.2832   -5.7650  -14.7248 C   0  0  2  0  0  0  0  0  0  0  0  0
   21.4119   -6.8050  -15.2438 N   0  0  0  0  0  0  0  0  0  0  0  0
   21.7805   -5.4133  -13.3773 C   0  0  0  0  0  0  0  0  0  0  0  0
   20.6020   -5.7178  -13.0861 O   0  0  0  0  0  0  0  0  0  0  0  0
   22.5438   -4.7668  -12.4250 O   0  0  0  0  0  0  0  0  0  0  0  0
  2  3  1  0
  2  1  1  0
  3  7  1  0
  4  3  2  0
  6  5  1  6
  7  6  1  0
  8  6  1  0
  8 12  1  0
  9  8  2  0
 11 10  1  6
 11 12  1  0
 11 13  1  0
 13 15  1  0
 14 13  2  0
M  END
$$$$
