GAA.pdb
     RDKit          3D

 15 14  0  0  1  0  0  0  0  0999 V2000
   26.7338  -11.1768  -15.9954 N   0  0  0  0  0  0  0  0  0  0  0  0
   25.4440  -11.2285  -15.3750 C   0  0  0  0  0  0  0  0  0  0  0  0
   24.5784  -10.1074  -15.7896 C   0  0  0  0  0  0  0  0  0  0  0  0
   24.9691   -9.1694  -16.5526 O   0  0  0  0  0  0  0  0  0  0  0  0
   20.8752   -9.3769  -15.4051 C   0  0  0  0  0  0  0  0  0  0  0  0
   22.3213   -9.0239  -15.7293 C   0  0  2  0  0  0  0  0  0  0  0  0
   23.2396  -10.0361  -15.3369 N   0  0  0  0  0  0  0  0  0  0  0  0
   22.5913   -7.6978  -15.1320 C   0  0  0  0  0  0  0  0  0  0  0  0
   22.9513   -7.6309  -13.9316 O   0  0  0  0  0  0  0  0  0  0  0  0
   22.8196   -4.0856  -16.2938 C   0  0  0  0  0  0  0  0  0  0  0  0
   22.8951   -5.1907  -15.2627 C   0  0  2  0  0  0  0  0  0  0  0  0
   22.4746   -6.4647  -15.8198 N   0  0  0  0  0  0  0  0  0  0  0  0
   21.9367   -4.8531  -14.1858 C   0  0  0  0  0  0  0  0  0  0  0  0
   22.3076   -4.0638  -13.2882 O   0  0  0  0  0  0  0  0  0  0  0  0
   20.6550   -5.3635  -14.1199 O   0  0  0  0  0  0  0  0  0  0  0  0
  2  3  1  0
  2  1  1  0
  3  7  1  0
  4  3  2  0
  6  5  1  1
  7  6  1  0
  8  6  1  0
  8 12  1  0
  9  8  2  0
 11 10  1  6
 11 12  1  0
 11 13  1  0
 13 15  1  0
 14 13  2  0
M  END
$$$$
