GAA.pdb
     RDKit          3D

 15 14  0  0  1  0  0  0  0  0999 V2000
   18.0892  -14.8995  -15.3226 N   0  0  0  0  0  0  0  0  0  0  0  0
   17.7563  -13.7961  -14.4724 C   0  0  0  0  0  0  0  0  0  0  0  0
   17.4732  -12.5661  -15.2373 C   0  0  0  0  0  0  0  0  0  0  0  0
   18.0850  -12.2526  -16.3060 O   0  0  0  0  0  0  0  0  0  0  0  0
   14.7964   -9.8967  -15.0733 C   0  0  0  0  0  0  0  0  0  0  0  0
   16.1741  -10.4344  -15.4388 C   0  0  2  0  0  0  0  0  0  0  0  0
   16.4781  -11.6639  -14.7923 N   0  0  0  0  0  0  0  0  0  0  0  0
   17.1490   -9.3541  -15.1726 C   0  0  0  0  0  0  0  0  0  0  0  0
   17.6843   -9.2805  -14.0398 O   0  0  0  0  0  0  0  0  0  0  0  0
   18.9968   -6.6725  -17.1128 C   0  0  0  0  0  0  0  0  0  0  0  0
   18.5279   -7.3419  -15.8392 C   0  0  2  0  0  0  0  0  0  0  0  0
   17.5391   -8.3699  -16.1140 N   0  0  0  0  0  0  0  0  0  0  0  0
   17.8580   -6.3066  -15.0196 C   0  0  0  0  0  0  0  0  0  0  0  0
   16.6079   -6.2516  -15.0401 O   0  0  0  0  0  0  0  0  0  0  0  0
   18.5403   -5.3987  -14.2338 O   0  0  0  0  0  0  0  0  0  0  0  0
  2  3  1  0
  2  1  1  0
  3  7  1  0
  4  3  2  0
  6  5  1  1
  7  6  1  0
  8  6  1  0
  8 12  1  0
  9  8  2  0
 11 10  1  6
 11 12  1  0
 11 13  1  0
 13 15  1  0
 14 13  2  0
M  END
$$$$
