SDH.pdb
     RDKit          3D

 25 25  0  0  1  0  0  0  0  0999 V2000
    6.0430  -17.4736   19.0451 O   0  0  0  0  0  0  0  0  0  0  0  0
    6.6934  -17.8712   17.8770 C   0  0  0  0  0  0  0  0  0  0  0  0
    7.2864  -19.2433   18.1494 C   0  0  2  0  0  0  0  0  0  0  0  0
    6.2599  -20.1231   18.6650 N   0  0  0  0  0  0  0  0  0  0  0  0
    8.3412  -19.1052   19.1842 C   0  0  0  0  0  0  0  0  0  0  0  0
    8.1124  -19.4868   20.3586 O   0  0  0  0  0  0  0  0  0  0  0  0
    9.6125  -18.5644   18.9412 N   0  0  0  0  0  0  0  0  0  0  0  0
   10.6463  -18.3980   19.9868 C   0  0  1  0  0  0  0  0  0  0  0  0
   11.9416  -18.4296   19.2507 C   0  0  0  0  0  0  0  0  0  0  0  0
   13.1589  -18.4092   20.0470 C   0  0  0  0  0  0  0  0  0  0  0  0
   13.2809  -18.4384   21.2814 O   0  0  0  0  0  0  0  0  0  0  0  0
   10.3842  -17.1411   20.7323 C   0  0  0  0  0  0  0  0  0  0  0  0
    9.7909  -16.2090   20.1485 O   0  0  0  0  0  0  0  0  0  0  0  0
   14.3697  -18.3478   19.3241 O   0  0  0  0  0  0  0  0  0  0  0  0
   10.7666  -16.9338   22.0676 N   0  0  0  0  0  0  0  0  0  0  0  0
   10.1180  -15.9172   22.8959 C   0  0  1  0  0  0  0  0  0  0  0  0
    8.6275  -15.9989   22.7772 C   0  0  0  0  0  0  0  0  0  0  0  0
    8.1553  -15.0618   21.7354 C   0  0  0  0  0  0  0  0  0  0  0  0
    8.8788  -14.1706   20.9630 C   0  0  0  0  0  0  0  0  0  0  0  0
    8.0084  -13.5247   20.1731 N   0  0  0  0  0  0  0  0  0  0  0  0
    6.7540  -13.9767   20.4185 C   0  0  0  0  0  0  0  0  0  0  0  0
    6.8463  -14.9118   21.3693 N   0  0  0  0  0  0  0  0  0  0  0  0
   10.6323  -16.0076   24.2602 C   0  0  0  0  0  0  0  0  0  0  0  0
   11.1604  -14.9724   24.7796 O   0  0  0  0  0  0  0  0  0  0  0  0
   10.5676  -17.1611   25.0041 O   0  0  0  0  0  0  0  0  0  0  0  0
  2  3  1  0
  2  1  1  0
  3  4  1  1
  5  3  1  0
  6  5  2  0
  7  5  1  0
  8 12  1  0
  8  7  1  0
  8  9  1  6
 10  9  1  0
 10 11  2  0
 12 15  1  0
 13 12  2  0
 14 10  1  0
 15 16  1  0
 16 17  1  1
 16 23  1  0
 18 17  1  0
 19 18  2  0
 20 19  1  0
 21 20  1  0
 21 22  2  0
 22 18  1  0
 23 24  2  0
 23 25  1  0
M  END
$$$$
