SDH.pdb
     RDKit          3D

 25 25  0  0  1  0  0  0  0  0999 V2000
    9.0542  -15.7758   16.9463 O   0  0  0  0  0  0  0  0  0  0  0  0
    9.8023  -16.8650   16.5000 C   0  0  0  0  0  0  0  0  0  0  0  0
    9.0933  -18.1160   16.9909 C   0  0  2  0  0  0  0  0  0  0  0  0
    7.8108  -18.2382   16.3320 N   0  0  0  0  0  0  0  0  0  0  0  0
    8.8542  -17.9821   18.4493 C   0  0  0  0  0  0  0  0  0  0  0  0
    7.7228  -17.6270   18.8630 O   0  0  0  0  0  0  0  0  0  0  0  0
    9.8264  -18.2301   19.4296 N   0  0  0  0  0  0  0  0  0  0  0  0
    9.5351  -18.2785   20.8796 C   0  0  1  0  0  0  0  0  0  0  0  0
   10.4976  -19.2747   21.4289 C   0  0  0  0  0  0  0  0  0  0  0  0
   10.1463  -20.6803   21.2971 C   0  0  0  0  0  0  0  0  0  0  0  0
   10.8928  -21.6713   21.2961 O   0  0  0  0  0  0  0  0  0  0  0  0
    9.6625  -16.9119   21.4457 C   0  0  0  0  0  0  0  0  0  0  0  0
   10.7108  -16.2670   21.2284 O   0  0  0  0  0  0  0  0  0  0  0  0
    8.7712  -20.9628   21.1500 O   0  0  0  0  0  0  0  0  0  0  0  0
    8.6665  -16.2934   22.2187 N   0  0  0  0  0  0  0  0  0  0  0  0
    8.8525  -14.9492   22.7656 C   0  0  1  0  0  0  0  0  0  0  0  0
    7.6999  -14.0613   22.4111 C   0  0  0  0  0  0  0  0  0  0  0  0
    7.6351  -13.8854   20.9444 C   0  0  0  0  0  0  0  0  0  0  0  0
    8.1903  -12.8952   20.1535 C   0  0  0  0  0  0  0  0  0  0  0  0
    7.8404  -13.1511   18.8844 N   0  0  0  0  0  0  0  0  0  0  0  0
    7.0799  -14.2727   18.8427 C   0  0  0  0  0  0  0  0  0  0  0  0
    6.9566  -14.7174   20.0973 N   0  0  0  0  0  0  0  0  0  0  0  0
    9.1375  -15.0461   24.1950 C   0  0  0  0  0  0  0  0  0  0  0  0
    9.3880  -13.9763   24.8378 O   0  0  0  0  0  0  0  0  0  0  0  0
    9.1444  -16.2416   24.8724 O   0  0  0  0  0  0  0  0  0  0  0  0
  2  3  1  0
  2  1  1  0
  3  4  1  6
  5  3  1  0
  6  5  2  0
  7  5  1  0
  8 12  1  0
  8  7  1  0
  8  9  1  1
 10  9  1  0
 10 11  2  0
 12 15  1  0
 13 12  2  0
 14 10  1  0
 15 16  1  0
 16 17  1  1
 16 23  1  0
 18 17  1  0
 19 18  2  0
 20 19  1  0
 21 20  1  0
 21 22  2  0
 22 18  1  0
 23 24  2  0
 23 25  1  0
M  END
$$$$
