SDH.pdb
     RDKit          3D

 25 25  0  0  1  0  0  0  0  0999 V2000
   11.2835  -15.9026   16.1072 O   0  0  0  0  0  0  0  0  0  0  0  0
   11.2240  -17.2695   15.8364 C   0  0  0  0  0  0  0  0  0  0  0  0
    9.7592  -17.6120   15.6226 C   0  0  2  0  0  0  0  0  0  0  0  0
    9.1000  -16.5215   14.9372 N   0  0  0  0  0  0  0  0  0  0  0  0
    9.1154  -17.7826   16.9487 C   0  0  0  0  0  0  0  0  0  0  0  0
    8.0306  -17.1986   17.1920 O   0  0  0  0  0  0  0  0  0  0  0  0
    9.6437  -18.5712   17.9815 N   0  0  0  0  0  0  0  0  0  0  0  0
    8.9363  -18.8377   19.2536 C   0  0  1  0  0  0  0  0  0  0  0  0
    9.2825  -20.2464   19.5946 C   0  0  0  0  0  0  0  0  0  0  0  0
    8.6591  -20.8155   20.7795 C   0  0  0  0  0  0  0  0  0  0  0  0
    9.1973  -21.3635   21.7538 O   0  0  0  0  0  0  0  0  0  0  0  0
    9.3559  -17.8318   20.2618 C   0  0  0  0  0  0  0  0  0  0  0  0
    8.8652  -17.8910   21.4096 O   0  0  0  0  0  0  0  0  0  0  0  0
    7.2508  -20.7373   20.8353 O   0  0  0  0  0  0  0  0  0  0  0  0
   10.2804  -16.8074   20.0014 N   0  0  0  0  0  0  0  0  0  0  0  0
   10.6239  -15.8151   21.0202 C   0  0  1  0  0  0  0  0  0  0  0  0
    9.4107  -15.0554   21.4601 C   0  0  0  0  0  0  0  0  0  0  0  0
    8.8098  -14.3570   20.3035 C   0  0  0  0  0  0  0  0  0  0  0  0
    9.2494  -14.2894   18.9934 C   0  0  0  0  0  0  0  0  0  0  0  0
    8.3815  -13.5224   18.3173 N   0  0  0  0  0  0  0  0  0  0  0  0
    7.4037  -13.0996   19.1559 C   0  0  0  0  0  0  0  0  0  0  0  0
    7.6666  -13.6088   20.3635 N   0  0  0  0  0  0  0  0  0  0  0  0
   11.3653  -16.4670   22.0968 C   0  0  0  0  0  0  0  0  0  0  0  0
   11.4312  -17.7383   22.1052 O   0  0  0  0  0  0  0  0  0  0  0  0
   11.9942  -15.7656   23.0971 O   0  0  0  0  0  0  0  0  0  0  0  0
  2  3  1  0
  2  1  1  0
  3  4  1  1
  5  3  1  0
  6  5  2  0
  7  5  1  0
  8 12  1  0
  8  7  1  0
  8  9  1  1
 10  9  1  0
 10 11  2  0
 12 15  1  0
 13 12  2  0
 14 10  1  0
 15 16  1  0
 16 17  1  1
 16 23  1  0
 18 17  1  0
 19 18  2  0
 20 19  1  0
 21 20  1  0
 21 22  2  0
 22 18  1  0
 23 24  2  0
 23 25  1  0
M  END
$$$$
