SDH.pdb
     RDKit          3D

 25 25  0  0  1  0  0  0  0  0999 V2000
    9.2871  -11.8764   17.6236 O   0  0  0  0  0  0  0  0  0  0  0  0
    9.5919  -12.9248   18.4915 C   0  0  0  0  0  0  0  0  0  0  0  0
    9.8839  -14.1401   17.6275 C   0  0  2  0  0  0  0  0  0  0  0  0
    8.6554  -14.6200   17.0324 N   0  0  0  0  0  0  0  0  0  0  0  0
   10.4305  -15.2146   18.4928 C   0  0  0  0  0  0  0  0  0  0  0  0
    9.6790  -16.1445   18.8775 O   0  0  0  0  0  0  0  0  0  0  0  0
   11.7635  -15.2712   18.9257 N   0  0  0  0  0  0  0  0  0  0  0  0
   12.2819  -16.3028   19.8514 C   0  0  1  0  0  0  0  0  0  0  0  0
   13.7590  -16.2830   19.6557 C   0  0  0  0  0  0  0  0  0  0  0  0
   14.2717  -16.8356   18.4114 C   0  0  0  0  0  0  0  0  0  0  0  0
   13.9719  -17.9019   17.8525 O   0  0  0  0  0  0  0  0  0  0  0  0
   11.8323  -15.9868   21.2306 C   0  0  0  0  0  0  0  0  0  0  0  0
   12.3591  -15.0240   21.8284 O   0  0  0  0  0  0  0  0  0  0  0  0
   15.2426  -16.0585   17.7434 O   0  0  0  0  0  0  0  0  0  0  0  0
   10.8407  -16.7116   21.9115 N   0  0  0  0  0  0  0  0  0  0  0  0
   10.4362  -16.3551   23.2716 C   0  0  1  0  0  0  0  0  0  0  0  0
    8.9447  -16.3567   23.4057 C   0  0  0  0  0  0  0  0  0  0  0  0
    8.3627  -15.3050   22.5445 C   0  0  0  0  0  0  0  0  0  0  0  0
    8.9919  -14.2702   21.8754 C   0  0  0  0  0  0  0  0  0  0  0  0
    8.0430  -13.5658   21.2414 N   0  0  0  0  0  0  0  0  0  0  0  0
    6.8299  -14.1195   21.4860 C   0  0  0  0  0  0  0  0  0  0  0  0
    7.0273  -15.1774   22.2790 N   0  0  0  0  0  0  0  0  0  0  0  0
   11.1403  -17.2109   24.2233 C   0  0  0  0  0  0  0  0  0  0  0  0
   11.8712  -18.1494   23.7703 O   0  0  0  0  0  0  0  0  0  0  0  0
   11.0472  -17.0432   25.5840 O   0  0  0  0  0  0  0  0  0  0  0  0
  2  3  1  0
  2  1  1  0
  3  4  1  1
  5  3  1  0
  6  5  2  0
  7  5  1  0
  8 12  1  0
  8  7  1  0
  8  9  1  1
 10  9  1  0
 10 11  2  0
 12 15  1  0
 13 12  2  0
 14 10  1  0
 15 16  1  0
 16 17  1  6
 16 23  1  0
 18 17  1  0
 19 18  2  0
 20 19  1  0
 21 20  1  0
 21 22  2  0
 22 18  1  0
 23 24  2  0
 23 25  1  0
M  END
$$$$
