SDH.pdb
     RDKit          3D

 25 25  0  0  1  0  0  0  0  0999 V2000
    7.6939  -13.7266   17.8823 O   0  0  0  0  0  0  0  0  0  0  0  0
    8.7681  -13.2593   17.1254 C   0  0  0  0  0  0  0  0  0  0  0  0
    9.3045  -14.4467   16.3437 C   0  0  2  0  0  0  0  0  0  0  0  0
    8.2350  -15.0463   15.5754 N   0  0  0  0  0  0  0  0  0  0  0  0
    9.8070  -15.4581   17.3065 C   0  0  0  0  0  0  0  0  0  0  0  0
    9.0946  -16.4526   17.5906 O   0  0  0  0  0  0  0  0  0  0  0  0
   11.0555  -15.3841   17.9417 N   0  0  0  0  0  0  0  0  0  0  0  0
   11.5232  -16.3639   18.9472 C   0  0  1  0  0  0  0  0  0  0  0  0
   12.9687  -16.5613   18.6435 C   0  0  0  0  0  0  0  0  0  0  0  0
   13.6541  -17.6359   19.3448 C   0  0  0  0  0  0  0  0  0  0  0  0
   14.8471  -17.7106   19.6770 O   0  0  0  0  0  0  0  0  0  0  0  0
   11.2386  -15.8376   20.3060 C   0  0  0  0  0  0  0  0  0  0  0  0
   11.7380  -14.7426   20.6428 O   0  0  0  0  0  0  0  0  0  0  0  0
   12.8603  -18.7483   19.6987 O   0  0  0  0  0  0  0  0  0  0  0  0
   10.4342  -16.5024   21.2456 N   0  0  0  0  0  0  0  0  0  0  0  0
   10.2115  -15.9513   22.5825 C   0  0  1  0  0  0  0  0  0  0  0  0
    8.7481  -15.8349   22.8782 C   0  0  0  0  0  0  0  0  0  0  0  0
    8.1105  -14.9242   21.9032 C   0  0  0  0  0  0  0  0  0  0  0  0
    8.1344  -13.5419   21.8471 C   0  0  0  0  0  0  0  0  0  0  0  0
    7.3925  -13.1696   20.7938 N   0  0  0  0  0  0  0  0  0  0  0  0
    6.8972  -14.2712   20.1779 C   0  0  0  0  0  0  0  0  0  0  0  0
    7.3356  -15.3372   20.8549 N   0  0  0  0  0  0  0  0  0  0  0  0
   10.9761  -16.7264   23.5564 C   0  0  0  0  0  0  0  0  0  0  0  0
   11.6181  -17.7478   23.1500 O   0  0  0  0  0  0  0  0  0  0  0  0
   11.0318  -16.3976   24.8894 O   0  0  0  0  0  0  0  0  0  0  0  0
  2  3  1  0
  2  1  1  0
  3  4  1  1
  5  3  1  0
  6  5  2  0
  7  5  1  0
  8 12  1  0
  8  7  1  0
  8  9  1  1
 10  9  1  0
 10 11  2  0
 12 15  1  0
 13 12  2  0
 14 10  1  0
 15 16  1  0
 16 17  1  1
 16 23  1  0
 18 17  1  0
 19 18  2  0
 20 19  1  0
 21 20  1  0
 21 22  2  0
 22 18  1  0
 23 24  2  0
 23 25  1  0
M  END
$$$$
