SDH.pdb
     RDKit          3D

 25 25  0  0  1  0  0  0  0  0999 V2000
    8.8316  -19.1649   17.3620 O   0  0  0  0  0  0  0  0  0  0  0  0
    9.6262  -18.5037   16.4257 C   0  0  0  0  0  0  0  0  0  0  0  0
   10.5252  -19.5526   15.7931 C   0  0  2  0  0  0  0  0  0  0  0  0
    9.7353  -20.7026   15.4096 N   0  0  0  0  0  0  0  0  0  0  0  0
   11.5223  -19.9904   16.8012 C   0  0  0  0  0  0  0  0  0  0  0  0
   11.3499  -21.0720   17.4158 O   0  0  0  0  0  0  0  0  0  0  0  0
   12.6774  -19.2651   17.1285 N   0  0  0  0  0  0  0  0  0  0  0  0
   13.6284  -19.6714   18.1869 C   0  0  1  0  0  0  0  0  0  0  0  0
   14.9438  -19.1262   17.7473 C   0  0  0  0  0  0  0  0  0  0  0  0
   16.1327  -19.6536   18.3990 C   0  0  0  0  0  0  0  0  0  0  0  0
   17.3119  -19.2864   18.2803 O   0  0  0  0  0  0  0  0  0  0  0  0
   13.1473  -19.1583   19.4943 C   0  0  0  0  0  0  0  0  0  0  0  0
   12.8928  -17.9397   19.6045 O   0  0  0  0  0  0  0  0  0  0  0  0
   15.9243  -20.7295   19.2888 O   0  0  0  0  0  0  0  0  0  0  0  0
   12.9589  -19.9673   20.6266 N   0  0  0  0  0  0  0  0  0  0  0  0
   12.4517  -19.4132   21.8821 C   0  0  1  0  0  0  0  0  0  0  0  0
   11.1937  -20.1067   22.3054 C   0  0  0  0  0  0  0  0  0  0  0  0
   10.0809  -19.7147   21.4142 C   0  0  0  0  0  0  0  0  0  0  0  0
    9.7948  -18.4808   20.8573 C   0  0  0  0  0  0  0  0  0  0  0  0
    8.6716  -18.6157   20.1370 N   0  0  0  0  0  0  0  0  0  0  0  0
    8.2338  -19.8962   20.2181 C   0  0  0  0  0  0  0  0  0  0  0  0
    9.0930  -20.5626   20.9956 N   0  0  0  0  0  0  0  0  0  0  0  0
   13.5211  -19.4174   22.8771 C   0  0  0  0  0  0  0  0  0  0  0  0
   14.6607  -19.8750   22.5416 O   0  0  0  0  0  0  0  0  0  0  0  0
   13.3480  -18.9471   24.1566 O   0  0  0  0  0  0  0  0  0  0  0  0
  2  3  1  0
  2  1  1  0
  3  4  1  1
  5  3  1  0
  6  5  2  0
  7  5  1  0
  8 12  1  0
  8  7  1  0
  8  9  1  6
 10  9  1  0
 10 11  2  0
 12 15  1  0
 13 12  2  0
 14 10  1  0
 15 16  1  0
 16 17  1  1
 16 23  1  0
 18 17  1  0
 19 18  2  0
 20 19  1  0
 21 20  1  0
 21 22  2  0
 22 18  1  0
 23 24  2  0
 23 25  1  0
M  END
$$$$
