SDH.pdb
     RDKit          3D

 25 25  0  0  1  0  0  0  0  0999 V2000
    8.1241  -13.6085   14.9408 O   0  0  0  0  0  0  0  0  0  0  0  0
    8.8297  -14.1500   16.0152 C   0  0  0  0  0  0  0  0  0  0  0  0
    9.8865  -15.0703   15.4279 C   0  0  2  0  0  0  0  0  0  0  0  0
    9.2501  -16.2308   14.8433 N   0  0  0  0  0  0  0  0  0  0  0  0
   10.7738  -15.5313   16.5244 C   0  0  0  0  0  0  0  0  0  0  0  0
   10.4962  -16.5871   17.1454 O   0  0  0  0  0  0  0  0  0  0  0  0
   11.9340  -14.8560   16.9311 N   0  0  0  0  0  0  0  0  0  0  0  0
   12.7966  -15.3063   18.0460 C   0  0  1  0  0  0  0  0  0  0  0  0
   14.1372  -14.7276   17.7486 C   0  0  0  0  0  0  0  0  0  0  0  0
   15.2571  -15.2008   18.5475 C   0  0  0  0  0  0  0  0  0  0  0  0
   15.3494  -16.2409   19.2175 O   0  0  0  0  0  0  0  0  0  0  0  0
   12.1986  -14.8639   19.3310 C   0  0  0  0  0  0  0  0  0  0  0  0
   12.4318  -13.7042   19.7343 O   0  0  0  0  0  0  0  0  0  0  0  0
   16.3972  -14.3686   18.5682 O   0  0  0  0  0  0  0  0  0  0  0  0
   11.3784  -15.6778   20.1290 N   0  0  0  0  0  0  0  0  0  0  0  0
   10.9325  -15.2434   21.4530 C   0  0  1  0  0  0  0  0  0  0  0  0
    9.4378  -15.2515   21.5453 C   0  0  0  0  0  0  0  0  0  0  0  0
    8.8681  -14.3328   20.5365 C   0  0  0  0  0  0  0  0  0  0  0  0
    9.5142  -13.4561   19.6831 C   0  0  0  0  0  0  0  0  0  0  0  0
    8.5723  -12.8237   18.9681 N   0  0  0  0  0  0  0  0  0  0  0  0
    7.3472  -13.2701   19.3396 C   0  0  0  0  0  0  0  0  0  0  0  0
    7.5301  -14.1881   20.2939 N   0  0  0  0  0  0  0  0  0  0  0  0
   11.6162  -16.0327   22.4745 C   0  0  0  0  0  0  0  0  0  0  0  0
   12.3267  -17.0214   22.1029 O   0  0  0  0  0  0  0  0  0  0  0  0
   11.5252  -15.7510   23.8163 O   0  0  0  0  0  0  0  0  0  0  0  0
  2  3  1  0
  2  1  1  0
  3  4  1  1
  5  3  1  0
  6  5  2  0
  7  5  1  0
  8 12  1  0
  8  7  1  0
  8  9  1  6
 10  9  1  0
 10 11  2  0
 12 15  1  0
 13 12  2  0
 14 10  1  0
 15 16  1  0
 16 17  1  6
 16 23  1  0
 18 17  1  0
 19 18  2  0
 20 19  1  0
 21 20  1  0
 21 22  2  0
 22 18  1  0
 23 24  2  0
 23 25  1  0
M  END
$$$$
