NCY.pdb
     RDKit          3D

 27 27  0  0  1  0  0  0  0  0999 V2000
    8.9344  -12.8505   16.5807 N   0  0  0  0  0  0  0  0  0  0  0  0
    7.5946  -13.3353   16.7125 C   0  0  0  0  0  0  0  0  0  0  0  0
    6.7810  -13.0249   15.8138 O   0  0  0  0  0  0  0  0  0  0  0  0
    7.2890  -14.1617   17.9009 C   0  0  0  0  0  0  0  0  0  0  0  0
    8.4043  -14.3528   18.8570 C   0  0  2  0  0  0  0  0  0  0  0  0
    9.4740  -15.0521   18.1478 N   0  0  0  0  0  0  0  0  0  0  0  0
    8.0642  -15.0476   20.1155 C   0  0  0  0  0  0  0  0  0  0  0  0
    7.1495  -14.6763   20.8770 O   0  0  0  0  0  0  0  0  0  0  0  0
    8.7934  -16.2120   20.5256 N   0  0  0  0  0  0  0  0  0  0  0  0
    8.4172  -16.9792   21.7048 C   0  0  1  0  0  0  0  0  0  0  0  0
    8.7762  -18.4538   21.4705 C   0  0  0  0  0  0  0  0  0  0  0  0
    7.4711  -19.4011   20.7103 S   0  0  0  0  0  0  0  0  0  0  0  0
    9.1336  -16.4870   22.9050 C   0  0  0  0  0  0  0  0  0  0  0  0
   10.3362  -16.0780   22.7397 O   0  0  0  0  0  0  0  0  0  0  0  0
    5.7545  -10.5948   25.6001 O   0  0  0  0  0  0  0  0  0  0  0  0
    6.4343  -11.7812   25.7533 C   0  0  0  0  0  0  0  0  0  0  0  0
    7.5345  -12.1230   24.9789 C   0  0  0  0  0  0  0  0  0  0  0  0
    8.1797  -13.3313   25.1775 C   0  0  0  0  0  0  0  0  0  0  0  0
    7.7625  -14.2301   26.1372 C   0  0  0  0  0  0  0  0  0  0  0  0
    8.4033  -15.5160   26.3823 C   0  0  0  0  0  0  0  0  0  0  0  0
    9.4175  -15.9447   25.3497 C   0  0  2  0  0  0  0  0  0  0  0  0
    8.6496  -16.4122   24.2095 N   0  0  0  0  0  0  0  0  0  0  0  0
   10.2585  -17.0617   25.8177 C   0  0  0  0  0  0  0  0  0  0  0  0
   11.2689  -16.8128   26.7269 O   0  0  0  0  0  0  0  0  0  0  0  0
    6.6702  -13.8611   26.8866 C   0  0  0  0  0  0  0  0  0  0  0  0
    6.0035  -12.6727   26.7205 C   0  0  0  0  0  0  0  0  0  0  0  0
   10.0824  -18.2537   25.4086 O   0  0  0  0  0  0  0  0  0  0  0  0
  2  1  1  0
  3  2  2  0
  4  2  1  0
  4  5  1  0
  5  7  1  0
  5  6  1  6
  7  9  1  0
  8  7  2  0
  9 10  1  0
 10 11  1  6
 11 12  1  0
 13 10  1  0
 13 14  2  0
 15 16  1  0
 16 17  2  0
 16 26  1  0
 17 18  1  0
 18 19  2  0
 19 20  1  0
 21 20  1  1
 21 22  1  0
 21 23  1  0
 22 13  1  0
 23 24  1  0
 25 19  1  0
 26 25  2  0
 27 23  2  0
M  END
$$$$
