NCY.pdb
     RDKit          3D

 27 27  0  0  1  0  0  0  0  0999 V2000
    5.6061  -21.4222   24.7016 N   0  0  0  0  0  0  0  0  0  0  0  0
    5.0293  -20.3597   23.9362 C   0  0  0  0  0  0  0  0  0  0  0  0
    3.8258  -20.4735   23.6125 O   0  0  0  0  0  0  0  0  0  0  0  0
    5.9073  -19.2191   23.5947 C   0  0  0  0  0  0  0  0  0  0  0  0
    5.8800  -18.7863   22.1783 C   0  0  2  0  0  0  0  0  0  0  0  0
    5.9557  -19.9892   21.3515 N   0  0  0  0  0  0  0  0  0  0  0  0
    6.9134  -17.8081   21.7818 C   0  0  0  0  0  0  0  0  0  0  0  0
    8.1111  -18.1089   21.6098 O   0  0  0  0  0  0  0  0  0  0  0  0
    6.5720  -16.4314   21.5723 N   0  0  0  0  0  0  0  0  0  0  0  0
    7.5874  -15.4147   21.3356 C   0  0  1  0  0  0  0  0  0  0  0  0
    6.9049  -14.1521   20.7895 C   0  0  0  0  0  0  0  0  0  0  0  0
    8.0404  -12.8426   20.3718 S   0  0  0  0  0  0  0  0  0  0  0  0
    8.3013  -15.0800   22.5903 C   0  0  0  0  0  0  0  0  0  0  0  0
    7.8796  -14.0652   23.2485 O   0  0  0  0  0  0  0  0  0  0  0  0
    5.3757  -11.5728   26.6417 O   0  0  0  0  0  0  0  0  0  0  0  0
    6.2244  -12.6153   26.3484 C   0  0  0  0  0  0  0  0  0  0  0  0
    5.7701  -13.8722   25.9730 C   0  0  0  0  0  0  0  0  0  0  0  0
    6.6709  -14.8840   25.6894 C   0  0  0  0  0  0  0  0  0  0  0  0
    8.0341  -14.6878   25.7669 C   0  0  0  0  0  0  0  0  0  0  0  0
    9.0231  -15.7203   25.4839 C   0  0  0  0  0  0  0  0  0  0  0  0
   10.0236  -15.3844   24.4047 C   0  0  2  0  0  0  0  0  0  0  0  0
    9.3898  -15.7463   23.1495 N   0  0  0  0  0  0  0  0  0  0  0  0
   11.2665  -16.1680   24.5268 C   0  0  0  0  0  0  0  0  0  0  0  0
   11.5797  -17.0955   23.5515 O   0  0  0  0  0  0  0  0  0  0  0  0
    8.4506  -13.4320   26.1416 C   0  0  0  0  0  0  0  0  0  0  0  0
    7.5895  -12.4027   26.4309 C   0  0  0  0  0  0  0  0  0  0  0  0
   12.0638  -16.0167   25.5069 O   0  0  0  0  0  0  0  0  0  0  0  0
  2  1  1  0
  3  2  2  0
  4  2  1  0
  4  5  1  0
  5  7  1  0
  5  6  1  6
  7  9  1  0
  8  7  2  0
  9 10  1  0
 10 11  1  1
 11 12  1  0
 13 10  1  0
 13 14  2  0
 15 16  1  0
 16 17  2  0
 16 26  1  0
 17 18  1  0
 18 19  2  0
 19 20  1  0
 21 20  1  1
 21 22  1  0
 21 23  1  0
 22 13  1  0
 23 24  1  0
 25 19  1  0
 26 25  2  0
 27 23  2  0
M  END
$$$$
