NCY.pdb
     RDKit          3D

 27 27  0  0  1  0  0  0  0  0999 V2000
   13.0101  -18.3670   16.0380 N   0  0  0  0  0  0  0  0  0  0  0  0
   11.6066  -18.0914   16.0797 C   0  0  0  0  0  0  0  0  0  0  0  0
   10.8703  -18.7444   15.3067 O   0  0  0  0  0  0  0  0  0  0  0  0
   11.1491  -17.0576   17.0340 C   0  0  0  0  0  0  0  0  0  0  0  0
   10.4385  -17.5574   18.2338 C   0  0  2  0  0  0  0  0  0  0  0  0
    9.1061  -17.9815   17.8085 N   0  0  0  0  0  0  0  0  0  0  0  0
   10.3551  -16.6199   19.3723 C   0  0  0  0  0  0  0  0  0  0  0  0
   11.3363  -15.9902   19.8142 O   0  0  0  0  0  0  0  0  0  0  0  0
    9.1055  -16.3884   20.0362 N   0  0  0  0  0  0  0  0  0  0  0  0
    9.0069  -15.5403   21.2159 C   0  0  1  0  0  0  0  0  0  0  0  0
    7.5661  -15.0222   21.3333 C   0  0  0  0  0  0  0  0  0  0  0  0
    6.3464  -16.3134   21.4865 S   0  0  0  0  0  0  0  0  0  0  0  0
    9.3548  -16.2981   22.4409 C   0  0  0  0  0  0  0  0  0  0  0  0
    9.0987  -17.5532   22.4429 O   0  0  0  0  0  0  0  0  0  0  0  0
   15.2807  -18.7216   21.4078 O   0  0  0  0  0  0  0  0  0  0  0  0
   14.4002  -18.1998   22.3273 C   0  0  0  0  0  0  0  0  0  0  0  0
   13.8150  -18.9651   23.3268 C   0  0  0  0  0  0  0  0  0  0  0  0
   12.9356  -18.3859   24.2250 C   0  0  0  0  0  0  0  0  0  0  0  0
   12.6103  -17.0467   24.1645 C   0  0  0  0  0  0  0  0  0  0  0  0
   11.6872  -16.3904   25.0819 C   0  0  0  0  0  0  0  0  0  0  0  0
   10.2211  -16.5978   24.7884 C   0  0  2  0  0  0  0  0  0  0  0  0
    9.9368  -15.8038   23.6064 N   0  0  0  0  0  0  0  0  0  0  0  0
    9.3555  -16.1123   25.8787 C   0  0  0  0  0  0  0  0  0  0  0  0
    8.5653  -14.9981   25.6699 O   0  0  0  0  0  0  0  0  0  0  0  0
   13.2069  -16.3173   23.1630 C   0  0  0  0  0  0  0  0  0  0  0  0
   14.0837  -16.8544   22.2535 C   0  0  0  0  0  0  0  0  0  0  0  0
    9.3129  -16.6898   27.0118 O   0  0  0  0  0  0  0  0  0  0  0  0
  2  1  1  0
  3  2  2  0
  4  2  1  0
  4  5  1  0
  5  7  1  0
  5  6  1  6
  7  9  1  0
  8  7  2  0
  9 10  1  0
 10 11  1  1
 11 12  1  0
 13 10  1  0
 13 14  2  0
 15 16  1  0
 16 17  2  0
 16 26  1  0
 17 18  1  0
 18 19  2  0
 19 20  1  0
 21 20  1  1
 21 22  1  0
 21 23  1  0
 22 13  1  0
 23 24  1  0
 25 19  1  0
 26 25  2  0
 27 23  2  0
M  END
$$$$
