NCY.pdb
     RDKit          3D

 27 27  0  0  1  0  0  0  0  0999 V2000
    5.2062  -19.2389   17.0845 N   0  0  0  0  0  0  0  0  0  0  0  0
    6.5275  -19.7812   17.1705 C   0  0  0  0  0  0  0  0  0  0  0  0
    6.7995  -20.7508   16.4275 O   0  0  0  0  0  0  0  0  0  0  0  0
    7.4568  -19.1472   18.1313 C   0  0  0  0  0  0  0  0  0  0  0  0
    7.6498  -17.6869   17.9734 C   0  0  2  0  0  0  0  0  0  0  0  0
    8.3142  -17.4695   16.6899 N   0  0  0  0  0  0  0  0  0  0  0  0
    8.3783  -17.0099   19.0656 C   0  0  0  0  0  0  0  0  0  0  0  0
    9.5970  -17.1672   19.2764 O   0  0  0  0  0  0  0  0  0  0  0  0
    7.6938  -16.1175   19.9550 N   0  0  0  0  0  0  0  0  0  0  0  0
    8.3814  -15.4431   21.0472 C   0  0  1  0  0  0  0  0  0  0  0  0
    7.4440  -14.3818   21.6413 C   0  0  0  0  0  0  0  0  0  0  0  0
    8.0528  -13.6433   23.1454 S   0  0  0  0  0  0  0  0  0  0  0  0
    8.7613  -16.4071   22.1066 C   0  0  0  0  0  0  0  0  0  0  0  0
    7.8429  -17.1863   22.5430 O   0  0  0  0  0  0  0  0  0  0  0  0
   12.2171  -23.3361   25.8853 O   0  0  0  0  0  0  0  0  0  0  0  0
   11.9502  -22.1611   25.2213 C   0  0  0  0  0  0  0  0  0  0  0  0
   10.6625  -21.7560   24.8973 C   0  0  0  0  0  0  0  0  0  0  0  0
   10.4537  -20.5627   24.2280 C   0  0  0  0  0  0  0  0  0  0  0  0
   11.4993  -19.7409   23.8618 C   0  0  0  0  0  0  0  0  0  0  0  0
   11.3335  -18.4786   23.1522 C   0  0  0  0  0  0  0  0  0  0  0  0
   10.3169  -17.5305   23.7405 C   0  0  2  0  0  0  0  0  0  0  0  0
   10.0149  -16.5722   22.6923 N   0  0  0  0  0  0  0  0  0  0  0  0
   10.8469  -16.7847   24.8966 C   0  0  0  0  0  0  0  0  0  0  0  0
   10.8154  -17.3671   26.1493 O   0  0  0  0  0  0  0  0  0  0  0  0
   12.7616  -20.1712   24.1975 C   0  0  0  0  0  0  0  0  0  0  0  0
   13.0100  -21.3473   24.8605 C   0  0  0  0  0  0  0  0  0  0  0  0
   11.3347  -15.6155   24.7767 O   0  0  0  0  0  0  0  0  0  0  0  0
  2  1  1  0
  3  2  2  0
  4  2  1  0
  4  5  1  0
  5  7  1  0
  5  6  1  6
  7  9  1  0
  8  7  2  0
  9 10  1  0
 10 11  1  1
 11 12  1  0
 13 10  1  0
 13 14  2  0
 15 16  1  0
 16 17  2  0
 16 26  1  0
 17 18  1  0
 18 19  2  0
 19 20  1  0
 21 20  1  6
 21 22  1  0
 21 23  1  0
 22 13  1  0
 23 24  1  0
 25 19  1  0
 26 25  2  0
 27 23  2  0
M  END
$$$$
