NCY.pdb
     RDKit          3D

 27 27  0  0  1  0  0  0  0  0999 V2000
   15.1949  -18.4082   21.5348 N   0  0  0  0  0  0  0  0  0  0  0  0
   13.8385  -18.5775   21.9579 C   0  0  0  0  0  0  0  0  0  0  0  0
   13.4835  -19.7275   22.3007 O   0  0  0  0  0  0  0  0  0  0  0  0
   12.9744  -17.3767   21.9528 C   0  0  0  0  0  0  0  0  0  0  0  0
   11.6286  -17.5487   22.5477 C   0  0  2  0  0  0  0  0  0  0  0  0
   10.9005  -18.5036   21.7146 N   0  0  0  0  0  0  0  0  0  0  0  0
   10.8446  -16.3116   22.7401 C   0  0  0  0  0  0  0  0  0  0  0  0
   11.3476  -15.2328   23.1108 O   0  0  0  0  0  0  0  0  0  0  0  0
    9.4308  -16.2999   22.5014 N   0  0  0  0  0  0  0  0  0  0  0  0
    8.6300  -15.0976   22.6846 C   0  0  1  0  0  0  0  0  0  0  0  0
    7.3837  -15.1930   21.7925 C   0  0  0  0  0  0  0  0  0  0  0  0
    6.1881  -13.9031   22.0844 S   0  0  0  0  0  0  0  0  0  0  0  0
    8.2088  -14.9545   24.0981 C   0  0  0  0  0  0  0  0  0  0  0  0
    7.8756  -16.0244   24.7187 O   0  0  0  0  0  0  0  0  0  0  0  0
   12.0121  -17.2431   29.2873 O   0  0  0  0  0  0  0  0  0  0  0  0
   11.2480  -16.2615   28.6995 C   0  0  0  0  0  0  0  0  0  0  0  0
   11.5253  -15.7449   27.4412 C   0  0  0  0  0  0  0  0  0  0  0  0
   10.7212  -14.7574   26.8993 C   0  0  0  0  0  0  0  0  0  0  0  0
    9.6296  -14.2546   27.5762 C   0  0  0  0  0  0  0  0  0  0  0  0
    8.7554  -13.2125   27.0527 C   0  0  0  0  0  0  0  0  0  0  0  0
    7.6092  -13.6943   26.1967 C   0  0  2  0  0  0  0  0  0  0  0  0
    8.1324  -13.7806   24.8449 N   0  0  0  0  0  0  0  0  0  0  0  0
    6.4794  -12.7472   26.1851 C   0  0  0  0  0  0  0  0  0  0  0  0
    6.2516  -11.9798   25.0588 O   0  0  0  0  0  0  0  0  0  0  0  0
    9.3828  -14.7875   28.8197 C   0  0  0  0  0  0  0  0  0  0  0  0
   10.1560  -15.7672   29.3915 C   0  0  0  0  0  0  0  0  0  0  0  0
    5.7036  -12.6132   27.1848 O   0  0  0  0  0  0  0  0  0  0  0  0
  2  1  1  0
  3  2  2  0
  4  2  1  0
  4  5  1  0
  5  7  1  0
  5  6  1  6
  7  9  1  0
  8  7  2  0
  9 10  1  0
 10 11  1  6
 11 12  1  0
 13 10  1  0
 13 14  2  0
 15 16  1  0
 16 17  2  0
 16 26  1  0
 17 18  1  0
 18 19  2  0
 19 20  1  0
 21 20  1  1
 21 22  1  0
 21 23  1  0
 22 13  1  0
 23 24  1  0
 25 19  1  0
 26 25  2  0
 27 23  2  0
M  END
$$$$
