SCH.pdb
     RDKit          3D

 23 23  0  0  1  0  0  0  0  0999 V2000
   12.2664  -11.3500   -9.7204 O   0  0  0  0  0  0  0  0  0  0  0  0
   12.6072  -11.6312  -11.0477 C   0  0  0  0  0  0  0  0  0  0  0  0
   14.0554  -11.2516  -11.2215 C   0  0  2  0  0  0  0  0  0  0  0  0
   14.8631  -11.9875  -10.2833 N   0  0  0  0  0  0  0  0  0  0  0  0
   14.2539   -9.8019  -10.9893 C   0  0  0  0  0  0  0  0  0  0  0  0
   13.6988   -8.9453  -11.7288 O   0  0  0  0  0  0  0  0  0  0  0  0
   15.0783   -9.3552   -9.9228 N   0  0  0  0  0  0  0  0  0  0  0  0
   15.2331   -7.9163   -9.6769 C   0  0  1  0  0  0  0  0  0  0  0  0
   15.1393   -7.6956   -8.1817 C   0  0  0  0  0  0  0  0  0  0  0  0
   15.6139   -5.9655   -7.8501 S   0  0  0  0  0  0  0  0  0  0  0  0
   16.6136   -7.4846  -10.0852 C   0  0  0  0  0  0  0  0  0  0  0  0
   17.6103   -8.0974   -9.6244 O   0  0  0  0  0  0  0  0  0  0  0  0
   16.8435   -6.4213  -10.9632 N   0  0  0  0  0  0  0  0  0  0  0  0
   18.1792   -6.1633  -11.5389 C   0  0  1  0  0  0  0  0  0  0  0  0
   18.6652   -7.3543  -12.2708 C   0  0  0  0  0  0  0  0  0  0  0  0
   19.8725   -7.0806  -13.0609 C   0  0  0  0  0  0  0  0  0  0  0  0
   20.9656   -6.4304  -12.4614 C   0  0  0  0  0  0  0  0  0  0  0  0
   21.9212   -6.2979  -13.3613 N   0  0  0  0  0  0  0  0  0  0  0  0
   21.4796   -6.8330  -14.4931 C   0  0  0  0  0  0  0  0  0  0  0  0
   20.2371   -7.3091  -14.3154 N   0  0  0  0  0  0  0  0  0  0  0  0
   18.0591   -4.9625  -12.4183 C   0  0  0  0  0  0  0  0  0  0  0  0
   19.1185   -4.1417  -12.6997 O   0  0  0  0  0  0  0  0  0  0  0  0
   16.9335   -4.6890  -12.9249 O   0  0  0  0  0  0  0  0  0  0  0  0
  2  3  1  0
  2  1  1  0
  3  4  1  1
  3  5  1  0
  5  7  1  0
  6  5  2  0
  7  8  1  0
  8 11  1  0
  8  9  1  1
  9 10  1  0
 11 12  2  0
 13 14  1  0
 13 11  1  0
 14 15  1  6
 15 16  1  0
 16 17  2  0
 16 20  1  0
 17 18  1  0
 18 19  1  0
 20 19  2  0
 21 22  1  0
 21 14  1  0
 23 21  2  0
M  END
$$$$
