SCH.pdb
     RDKit          3D

 23 23  0  0  1  0  0  0  0  0999 V2000
   16.7743  -13.8850  -18.1267 O   0  0  0  0  0  0  0  0  0  0  0  0
   17.0750  -12.8701  -17.2120 C   0  0  0  0  0  0  0  0  0  0  0  0
   18.3647  -13.2551  -16.5338 C   0  0  2  0  0  0  0  0  0  0  0  0
   18.1200  -14.3287  -15.6055 N   0  0  0  0  0  0  0  0  0  0  0  0
   18.9378  -12.1058  -15.7954 C   0  0  0  0  0  0  0  0  0  0  0  0
   18.2726  -11.5109  -14.9050 O   0  0  0  0  0  0  0  0  0  0  0  0
   20.2537  -11.6558  -16.0830 N   0  0  0  0  0  0  0  0  0  0  0  0
   20.8090  -10.5140  -15.3463 C   0  0  1  0  0  0  0  0  0  0  0  0
   22.3126  -10.6874  -15.3004 C   0  0  0  0  0  0  0  0  0  0  0  0
   23.0064   -9.2453  -14.4245 S   0  0  0  0  0  0  0  0  0  0  0  0
   20.5497   -9.2487  -16.1149 C   0  0  0  0  0  0  0  0  0  0  0  0
   20.6523   -9.2593  -17.3681 O   0  0  0  0  0  0  0  0  0  0  0  0
   20.1958   -8.0471  -15.4941 N   0  0  0  0  0  0  0  0  0  0  0  0
   19.9720   -6.8088  -16.2677 C   0  0  1  0  0  0  0  0  0  0  0  0
   18.5593   -6.7172  -16.6991 C   0  0  0  0  0  0  0  0  0  0  0  0
   18.2663   -5.4718  -17.4201 C   0  0  0  0  0  0  0  0  0  0  0  0
   17.4357   -4.5031  -16.8295 C   0  0  0  0  0  0  0  0  0  0  0  0
   17.3217   -3.4842  -17.6598 N   0  0  0  0  0  0  0  0  0  0  0  0
   18.0398   -3.7680  -18.7396 C   0  0  0  0  0  0  0  0  0  0  0  0
   18.6146   -4.9729  -18.5985 N   0  0  0  0  0  0  0  0  0  0  0  0
   20.3794   -5.6638  -15.4002 C   0  0  0  0  0  0  0  0  0  0  0  0
   20.8246   -4.4721  -15.9073 O   0  0  0  0  0  0  0  0  0  0  0  0
   20.3126   -5.7973  -14.1447 O   0  0  0  0  0  0  0  0  0  0  0  0
  2  3  1  0
  2  1  1  0
  3  4  1  1
  3  5  1  0
  5  7  1  0
  6  5  2  0
  7  8  1  0
  8 11  1  0
  8  9  1  6
  9 10  1  0
 11 12  2  0
 13 14  1  0
 13 11  1  0
 14 15  1  1
 15 16  1  0
 16 17  2  0
 16 20  1  0
 17 18  1  0
 18 19  1  0
 20 19  2  0
 21 22  1  0
 21 14  1  0
 23 21  2  0
M  END
$$$$
