SCH.pdb
     RDKit          3D

 23 23  0  0  1  0  0  0  0  0999 V2000
   21.2849  -12.4403  -19.9611 O   0  0  0  0  0  0  0  0  0  0  0  0
   21.8404  -11.7273  -18.8935 C   0  0  0  0  0  0  0  0  0  0  0  0
   23.2024  -11.2584  -19.3369 C   0  0  2  0  0  0  0  0  0  0  0  0
   24.0607  -12.3963  -19.5440 N   0  0  0  0  0  0  0  0  0  0  0  0
   23.8161  -10.3758  -18.3175 C   0  0  0  0  0  0  0  0  0  0  0  0
   24.4457  -10.8579  -17.3376 O   0  0  0  0  0  0  0  0  0  0  0  0
   23.7023   -8.9649  -18.4317 N   0  0  0  0  0  0  0  0  0  0  0  0
   24.2307   -8.1042  -17.3665 C   0  0  1  0  0  0  0  0  0  0  0  0
   25.2174   -7.1462  -18.0004 C   0  0  0  0  0  0  0  0  0  0  0  0
   25.8284   -6.0369  -16.6873 S   0  0  0  0  0  0  0  0  0  0  0  0
   23.1194   -7.2617  -16.8062 C   0  0  0  0  0  0  0  0  0  0  0  0
   22.3667   -6.6347  -17.5946 O   0  0  0  0  0  0  0  0  0  0  0  0
   22.8810   -7.1415  -15.4340 N   0  0  0  0  0  0  0  0  0  0  0  0
   21.7553   -6.3429  -14.9075 C   0  0  1  0  0  0  0  0  0  0  0  0
   21.1432   -7.0185  -13.7417 C   0  0  0  0  0  0  0  0  0  0  0  0
   20.3163   -8.1705  -14.1236 C   0  0  0  0  0  0  0  0  0  0  0  0
   20.1749   -8.5077  -15.4813 C   0  0  0  0  0  0  0  0  0  0  0  0
   19.3936   -9.5669  -15.5724 N   0  0  0  0  0  0  0  0  0  0  0  0
   19.0398   -9.9081  -14.3391 C   0  0  0  0  0  0  0  0  0  0  0  0
   19.5973   -9.0637  -13.4571 N   0  0  0  0  0  0  0  0  0  0  0  0
   22.2909   -4.9912  -14.5676 C   0  0  0  0  0  0  0  0  0  0  0  0
   21.5001   -3.9793  -14.0920 O   0  0  0  0  0  0  0  0  0  0  0  0
   23.5253   -4.7681  -14.7252 O   0  0  0  0  0  0  0  0  0  0  0  0
  2  3  1  0
  2  1  1  0
  3  4  1  1
  3  5  1  0
  5  7  1  0
  6  5  2  0
  7  8  1  0
  8 11  1  0
  8  9  1  6
  9 10  1  0
 11 12  2  0
 13 14  1  0
 13 11  1  0
 14 15  1  1
 15 16  1  0
 16 17  2  0
 16 20  1  0
 17 18  1  0
 18 19  1  0
 20 19  2  0
 21 22  1  0
 21 14  1  0
 23 21  2  0
M  END
$$$$
