SCH.pdb
     RDKit          3D

 23 23  0  0  1  0  0  0  0  0999 V2000
   16.7343  -12.5498  -17.4790 O   0  0  0  0  0  0  0  0  0  0  0  0
   17.8495  -12.4369  -18.3159 C   0  0  0  0  0  0  0  0  0  0  0  0
   19.0543  -12.8330  -17.5018 C   0  0  2  0  0  0  0  0  0  0  0  0
   18.8055  -14.0952  -16.8543 N   0  0  0  0  0  0  0  0  0  0  0  0
   19.3516  -11.8153  -16.4670 C   0  0  0  0  0  0  0  0  0  0  0  0
   18.7352  -11.8101  -15.3674 O   0  0  0  0  0  0  0  0  0  0  0  0
   20.3420  -10.8251  -16.7020 N   0  0  0  0  0  0  0  0  0  0  0  0
   20.5725   -9.7755  -15.7021 C   0  0  1  0  0  0  0  0  0  0  0  0
   22.0664   -9.5415  -15.6212 C   0  0  0  0  0  0  0  0  0  0  0  0
   22.3495   -8.2061  -14.4109 S   0  0  0  0  0  0  0  0  0  0  0  0
   19.9650   -8.4866  -16.1803 C   0  0  0  0  0  0  0  0  0  0  0  0
   20.1374   -8.1323  -17.3745 O   0  0  0  0  0  0  0  0  0  0  0  0
   19.2089   -7.6542  -15.3499 N   0  0  0  0  0  0  0  0  0  0  0  0
   18.7250   -6.3346  -15.8044 C   0  0  1  0  0  0  0  0  0  0  0  0
   17.3586   -6.0818  -15.2954 C   0  0  0  0  0  0  0  0  0  0  0  0
   16.8517   -4.7546  -15.6667 C   0  0  0  0  0  0  0  0  0  0  0  0
   17.5615   -3.9714  -16.5939 C   0  0  0  0  0  0  0  0  0  0  0  0
   16.9162   -2.8333  -16.7645 N   0  0  0  0  0  0  0  0  0  0  0  0
   15.8385   -2.8666  -15.9900 C   0  0  0  0  0  0  0  0  0  0  0  0
   15.7953   -4.0303  -15.3223 N   0  0  0  0  0  0  0  0  0  0  0  0
   19.7080   -5.3146  -15.3319 C   0  0  0  0  0  0  0  0  0  0  0  0
   20.3301   -5.3938  -14.1145 O   0  0  0  0  0  0  0  0  0  0  0  0
   19.9785   -4.3354  -16.0845 O   0  0  0  0  0  0  0  0  0  0  0  0
  2  3  1  0
  2  1  1  0
  3  4  1  1
  3  5  1  0
  5  7  1  0
  6  5  2  0
  7  8  1  0
  8 11  1  0
  8  9  1  6
  9 10  1  0
 11 12  2  0
 13 14  1  0
 13 11  1  0
 14 15  1  1
 15 16  1  0
 16 17  2  0
 16 20  1  0
 17 18  1  0
 18 19  1  0
 20 19  2  0
 21 22  1  0
 21 14  1  0
 23 21  2  0
M  END
$$$$
