DGQ.pdb
     RDKit          3D

 22 21  0  0  1  0  0  0  0  0999 V2000
   14.4616  -19.6871    4.6456 N   0  0  0  0  0  0  0  0  0  0  0  0
   15.8568  -19.3139    4.7760 C   0  0  1  0  0  0  0  0  0  0  0  0
   16.5094  -19.6004    3.4296 C   0  0  0  0  0  0  0  0  0  0  0  0
   16.6519  -21.0653    3.3076 C   0  0  0  0  0  0  0  0  0  0  0  0
   15.9261  -21.7787    2.5749 O   0  0  0  0  0  0  0  0  0  0  0  0
   15.9321  -17.8557    5.0465 C   0  0  0  0  0  0  0  0  0  0  0  0
   15.0147  -17.0878    4.6624 O   0  0  0  0  0  0  0  0  0  0  0  0
   17.6485  -21.6883    4.0485 O   0  0  0  0  0  0  0  0  0  0  0  0
   17.0303  -17.2710    5.7427 N   0  0  0  0  0  0  0  0  0  0  0  0
   17.1073  -15.8907    6.0983 C   0  0  0  0  0  0  0  0  0  0  0  0
   18.4065  -15.5610    6.7829 C   0  0  0  0  0  0  0  0  0  0  0  0
   19.2053  -16.4829    7.0842 O   0  0  0  0  0  0  0  0  0  0  0  0
   21.0868   -9.5806    6.8783 N   0  0  0  0  0  0  0  0  0  0  0  0
   21.9433  -10.5109    7.5089 C   0  0  0  0  0  0  0  0  0  0  0  0
   23.1114  -10.0841    7.8278 O   0  0  0  0  0  0  0  0  0  0  0  0
   21.6359  -11.8964    7.8399 C   0  0  0  0  0  0  0  0  0  0  0  0
   20.3477  -12.4487    7.3973 C   0  0  0  0  0  0  0  0  0  0  0  0
   20.0151  -13.8560    7.7658 C   0  0  2  0  0  0  0  0  0  0  0  0
   18.7408  -14.2201    7.0926 N   0  0  0  0  0  0  0  0  0  0  0  0
   19.9346  -14.1512    9.1829 C   0  0  0  0  0  0  0  0  0  0  0  0
   18.8402  -14.0127   10.0100 O   0  0  0  0  0  0  0  0  0  0  0  0
   20.9968  -14.5874    9.7577 O   0  0  0  0  0  0  0  0  0  0  0  0
  2  1  1  6
  2  3  1  0
  3  4  1  0
  4  8  1  0
  5  4  2  0
  6  7  2  0
  6  2  1  0
  9  6  1  0
 10  9  1  0
 10 11  1  0
 11 12  2  0
 13 14  1  0
 14 16  1  0
 14 15  2  0
 16 17  1  0
 18 17  1  1
 18 20  1  0
 19 11  1  0
 19 18  1  0
 20 21  1  0
 22 20  2  0
M  END
$$$$
