DGQ.pdb
     RDKit          3D

 22 21  0  0  1  0  0  0  0  0999 V2000
   21.5764   -7.3544  -15.1608 N   0  0  0  0  0  0  0  0  0  0  0  0
   20.5034   -8.2014  -14.6770 C   0  0  1  0  0  0  0  0  0  0  0  0
   20.9429   -9.6394  -14.9217 C   0  0  0  0  0  0  0  0  0  0  0  0
   20.9532   -9.8584  -16.3823 C   0  0  0  0  0  0  0  0  0  0  0  0
   20.1539   -9.3079  -17.1764 O   0  0  0  0  0  0  0  0  0  0  0  0
   20.3543   -7.9860  -13.2153 C   0  0  0  0  0  0  0  0  0  0  0  0
   21.3541   -8.0471  -12.4567 O   0  0  0  0  0  0  0  0  0  0  0  0
   21.9044  -10.7253  -16.9058 O   0  0  0  0  0  0  0  0  0  0  0  0
   19.0912   -7.7050  -12.6168 N   0  0  0  0  0  0  0  0  0  0  0  0
   18.8660   -7.6644  -11.2079 C   0  0  0  0  0  0  0  0  0  0  0  0
   17.4892   -7.1549  -10.8759 C   0  0  0  0  0  0  0  0  0  0  0  0
   16.7665   -6.6716  -11.7830 O   0  0  0  0  0  0  0  0  0  0  0  0
   12.8453  -10.0955   -8.3551 N   0  0  0  0  0  0  0  0  0  0  0  0
   12.4861   -8.7289   -8.3312 C   0  0  0  0  0  0  0  0  0  0  0  0
   11.2782   -8.4637   -7.9866 O   0  0  0  0  0  0  0  0  0  0  0  0
   13.3441   -7.5947   -8.6488 C   0  0  0  0  0  0  0  0  0  0  0  0
   14.7824   -7.8384   -8.8288 C   0  0  0  0  0  0  0  0  0  0  0  0
   15.6598   -6.6822   -9.1758 C   0  0  2  0  0  0  0  0  0  0  0  0
   16.9968   -7.2137   -9.5493 N   0  0  0  0  0  0  0  0  0  0  0  0
   15.7957   -5.6488   -8.1682 C   0  0  0  0  0  0  0  0  0  0  0  0
   15.0057   -4.5318   -7.9972 O   0  0  0  0  0  0  0  0  0  0  0  0
   16.7622   -5.7626   -7.3305 O   0  0  0  0  0  0  0  0  0  0  0  0
  2  1  1  1
  2  3  1  0
  3  4  1  0
  4  8  1  0
  5  4  2  0
  6  7  2  0
  6  2  1  0
  9  6  1  0
 10  9  1  0
 10 11  1  0
 11 12  2  0
 13 14  1  0
 14 16  1  0
 14 15  2  0
 16 17  1  0
 18 17  1  1
 18 20  1  0
 19 11  1  0
 19 18  1  0
 20 21  1  0
 22 20  2  0
M  END
$$$$
