DGQ.pdb
     RDKit          3D

 22 21  0  0  1  0  0  0  0  0999 V2000
   28.1726  -19.4320  -18.6969 N   0  0  0  0  0  0  0  0  0  0  0  0
   27.3825  -18.2174  -18.7557 C   0  0  1  0  0  0  0  0  0  0  0  0
   26.2099  -18.5081  -19.6837 C   0  0  0  0  0  0  0  0  0  0  0  0
   26.6623  -18.2497  -21.0657 C   0  0  0  0  0  0  0  0  0  0  0  0
   27.1099  -17.1462  -21.4588 O   0  0  0  0  0  0  0  0  0  0  0  0
   26.8599  -17.9280  -17.3962 C   0  0  0  0  0  0  0  0  0  0  0  0
   25.9822  -17.0453  -17.2252 O   0  0  0  0  0  0  0  0  0  0  0  0
   26.5870  -19.2906  -21.9828 O   0  0  0  0  0  0  0  0  0  0  0  0
   27.3227  -18.6269  -16.2429 N   0  0  0  0  0  0  0  0  0  0  0  0
   26.9354  -18.3082  -14.9066 C   0  0  0  0  0  0  0  0  0  0  0  0
   25.7828  -19.1566  -14.4408 C   0  0  0  0  0  0  0  0  0  0  0  0
   25.2201  -19.9416  -15.2445 O   0  0  0  0  0  0  0  0  0  0  0  0
   25.9256  -19.8605   -8.6417 N   0  0  0  0  0  0  0  0  0  0  0  0
   25.0590  -20.9091   -9.0244 C   0  0  0  0  0  0  0  0  0  0  0  0
   25.0278  -21.9330   -8.2504 O   0  0  0  0  0  0  0  0  0  0  0  0
   24.1956  -20.9444  -10.1976 C   0  0  0  0  0  0  0  0  0  0  0  0
   24.1896  -19.7789  -11.0932 C   0  0  0  0  0  0  0  0  0  0  0  0
   24.2992  -20.0131  -12.5630 C   0  0  2  0  0  0  0  0  0  0  0  0
   25.3232  -19.0808  -13.1033 N   0  0  0  0  0  0  0  0  0  0  0  0
   23.0722  -19.9066  -13.3276 C   0  0  0  0  0  0  0  0  0  0  0  0
   22.3282  -18.7715  -13.5702 O   0  0  0  0  0  0  0  0  0  0  0  0
   22.6007  -20.9842  -13.8428 O   0  0  0  0  0  0  0  0  0  0  0  0
  2  1  1  1
  2  3  1  0
  3  4  1  0
  4  8  1  0
  5  4  2  0
  6  7  2  0
  6  2  1  0
  9  6  1  0
 10  9  1  0
 10 11  1  0
 11 12  2  0
 13 14  1  0
 14 16  1  0
 14 15  2  0
 16 17  1  0
 18 17  1  1
 18 20  1  0
 19 11  1  0
 19 18  1  0
 20 21  1  0
 22 20  2  0
M  END
$$$$
