DGQ.pdb
     RDKit          3D

 22 21  0  0  1  0  0  0  0  0999 V2000
   17.6794  -12.4596  -14.6329 N   0  0  0  0  0  0  0  0  0  0  0  0
   16.5170  -11.8769  -15.2750 C   0  0  1  0  0  0  0  0  0  0  0  0
   15.4366  -11.7763  -14.2058 C   0  0  0  0  0  0  0  0  0  0  0  0
   14.6208  -13.0051  -14.2814 C   0  0  0  0  0  0  0  0  0  0  0  0
   15.0658  -14.1167  -14.6539 O   0  0  0  0  0  0  0  0  0  0  0  0
   16.8677  -10.5092  -15.7349 C   0  0  0  0  0  0  0  0  0  0  0  0
   16.1220   -9.8963  -16.5393 O   0  0  0  0  0  0  0  0  0  0  0  0
   13.2821  -12.9234  -13.9182 O   0  0  0  0  0  0  0  0  0  0  0  0
   18.0466   -9.8410  -15.2919 N   0  0  0  0  0  0  0  0  0  0  0  0
   18.3487   -8.4765  -15.5825 C   0  0  0  0  0  0  0  0  0  0  0  0
   19.6586   -8.0518  -14.9750 C   0  0  0  0  0  0  0  0  0  0  0  0
   20.1533   -8.7159  -14.0299 O   0  0  0  0  0  0  0  0  0  0  0  0
   24.0484   -5.1381  -18.6448 N   0  0  0  0  0  0  0  0  0  0  0  0
   24.6014   -5.3504  -17.3618 C   0  0  0  0  0  0  0  0  0  0  0  0
   25.8431   -5.0559  -17.2212 O   0  0  0  0  0  0  0  0  0  0  0  0
   23.9086   -5.8597  -16.1854 C   0  0  0  0  0  0  0  0  0  0  0  0
   22.4682   -6.1333  -16.2896 C   0  0  0  0  0  0  0  0  0  0  0  0
   21.7456   -6.6041  -15.0717 C   0  0  2  0  0  0  0  0  0  0  0  0
   20.3427   -6.9093  -15.4570 N   0  0  0  0  0  0  0  0  0  0  0  0
   21.7681   -5.7186  -13.9241 C   0  0  0  0  0  0  0  0  0  0  0  0
   22.6576   -5.7295  -12.8708 O   0  0  0  0  0  0  0  0  0  0  0  0
   20.8583   -4.8149  -13.8562 O   0  0  0  0  0  0  0  0  0  0  0  0
  2  1  1  1
  2  3  1  0
  3  4  1  0
  4  8  1  0
  5  4  2  0
  6  7  2  0
  6  2  1  0
  9  6  1  0
 10  9  1  0
 10 11  1  0
 11 12  2  0
 13 14  1  0
 14 16  1  0
 14 15  2  0
 16 17  1  0
 18 17  1  6
 18 20  1  0
 19 11  1  0
 19 18  1  0
 20 21  1  0
 22 20  2  0
M  END
$$$$
