DGQ.pdb
     RDKit          3D

 22 21  0  0  1  0  0  0  0  0999 V2000
   20.9367  -19.4876  -16.1226 N   0  0  0  0  0  0  0  0  0  0  0  0
   20.5046  -19.9360  -14.8129 C   0  0  1  0  0  0  0  0  0  0  0  0
   19.3133  -20.8574  -15.0419 C   0  0  0  0  0  0  0  0  0  0  0  0
   18.0934  -20.0262  -14.9966 C   0  0  0  0  0  0  0  0  0  0  0  0
   18.0677  -18.8467  -14.5715 O   0  0  0  0  0  0  0  0  0  0  0  0
   21.6055  -20.7175  -14.1946 C   0  0  0  0  0  0  0  0  0  0  0  0
   22.0162  -21.7760  -14.7327 O   0  0  0  0  0  0  0  0  0  0  0  0
   16.9054  -20.5847  -15.4519 O   0  0  0  0  0  0  0  0  0  0  0  0
   22.2357  -20.3088  -12.9828 N   0  0  0  0  0  0  0  0  0  0  0  0
   23.3156  -21.0108  -12.3676 C   0  0  0  0  0  0  0  0  0  0  0  0
   24.6524  -20.4784  -12.8089 C   0  0  0  0  0  0  0  0  0  0  0  0
   24.7063  -19.5142  -13.6129 O   0  0  0  0  0  0  0  0  0  0  0  0
   30.2889  -21.9710   -9.7810 N   0  0  0  0  0  0  0  0  0  0  0  0
   30.5717  -21.2309  -10.9512 C   0  0  0  0  0  0  0  0  0  0  0  0
   31.8103  -20.9871  -11.1852 O   0  0  0  0  0  0  0  0  0  0  0  0
   29.6071  -20.7251  -11.9192 C   0  0  0  0  0  0  0  0  0  0  0  0
   28.1992  -21.1206  -11.7712 C   0  0  0  0  0  0  0  0  0  0  0  0
   27.1911  -20.5114  -12.6875 C   0  0  2  0  0  0  0  0  0  0  0  0
   25.8543  -21.0526  -12.3275 N   0  0  0  0  0  0  0  0  0  0  0  0
   27.4296  -20.6711  -14.1086 C   0  0  0  0  0  0  0  0  0  0  0  0
   28.0264  -19.7726  -14.9673 O   0  0  0  0  0  0  0  0  0  0  0  0
   27.0416  -21.7668  -14.6542 O   0  0  0  0  0  0  0  0  0  0  0  0
  2  1  1  6
  2  3  1  0
  3  4  1  0
  4  8  1  0
  5  4  2  0
  6  7  2  0
  6  2  1  0
  9  6  1  0
 10  9  1  0
 10 11  1  0
 11 12  2  0
 13 14  1  0
 14 16  1  0
 14 15  2  0
 16 17  1  0
 18 17  1  1
 18 20  1  0
 19 11  1  0
 19 18  1  0
 20 21  1  0
 22 20  2  0
M  END
$$$$
