DGQ.pdb
     RDKit          3D

 22 21  0  0  1  0  0  0  0  0999 V2000
   19.9307   -8.8624  -15.5706 N   0  0  0  0  0  0  0  0  0  0  0  0
   21.1543   -9.1650  -14.8535 C   0  0  1  0  0  0  0  0  0  0  0  0
   22.2479   -8.3121  -15.4837 C   0  0  0  0  0  0  0  0  0  0  0  0
   22.5119   -8.8534  -16.8322 C   0  0  0  0  0  0  0  0  0  0  0  0
   21.8910   -8.4965  -17.8616 O   0  0  0  0  0  0  0  0  0  0  0  0
   20.9835   -8.7578  -13.4357 C   0  0  0  0  0  0  0  0  0  0  0  0
   21.9535   -8.8021  -12.6384 O   0  0  0  0  0  0  0  0  0  0  0  0
   23.5066   -9.8141  -16.9669 O   0  0  0  0  0  0  0  0  0  0  0  0
   19.7319   -8.3057  -12.9238 N   0  0  0  0  0  0  0  0  0  0  0  0
   19.5371   -7.8354  -11.5903 C   0  0  0  0  0  0  0  0  0  0  0  0
   18.1597   -7.2609  -11.3954 C   0  0  0  0  0  0  0  0  0  0  0  0
   17.5027   -6.8622  -12.3896 O   0  0  0  0  0  0  0  0  0  0  0  0
   13.5017   -9.6431   -8.0700 N   0  0  0  0  0  0  0  0  0  0  0  0
   13.1374   -8.3128   -8.3775 C   0  0  0  0  0  0  0  0  0  0  0  0
   11.9514   -7.9549   -8.0404 O   0  0  0  0  0  0  0  0  0  0  0  0
   13.9683   -7.3078   -9.0280 C   0  0  0  0  0  0  0  0  0  0  0  0
   15.4026   -7.5866   -9.1866 C   0  0  0  0  0  0  0  0  0  0  0  0
   16.2531   -6.5652   -9.8652 C   0  0  2  0  0  0  0  0  0  0  0  0
   17.5931   -7.1638  -10.1010 N   0  0  0  0  0  0  0  0  0  0  0  0
   16.3870   -5.2869   -9.1945 C   0  0  0  0  0  0  0  0  0  0  0  0
   15.5701   -4.1830   -9.3174 O   0  0  0  0  0  0  0  0  0  0  0  0
   17.3792   -5.1405   -8.3926 O   0  0  0  0  0  0  0  0  0  0  0  0
  2  1  1  6
  2  3  1  0
  3  4  1  0
  4  8  1  0
  5  4  2  0
  6  7  2  0
  6  2  1  0
  9  6  1  0
 10  9  1  0
 10 11  1  0
 11 12  2  0
 13 14  1  0
 14 16  1  0
 14 15  2  0
 16 17  1  0
 18 17  1  1
 18 20  1  0
 19 11  1  0
 19 18  1  0
 20 21  1  0
 22 20  2  0
M  END
$$$$
