DGQ.pdb
     RDKit          3D

 22 21  0  0  1  0  0  0  0  0999 V2000
   14.7612  -14.2424  -16.7298 N   0  0  0  0  0  0  0  0  0  0  0  0
   15.7968  -13.8824  -15.7806 C   0  0  1  0  0  0  0  0  0  0  0  0
   16.6067  -15.1467  -15.5231 C   0  0  0  0  0  0  0  0  0  0  0  0
   16.5620  -15.4151  -14.0715 C   0  0  0  0  0  0  0  0  0  0  0  0
   15.7180  -14.9096  -13.2938 O   0  0  0  0  0  0  0  0  0  0  0  0
   16.6788  -12.8654  -16.4075 C   0  0  0  0  0  0  0  0  0  0  0  0
   17.0890  -13.0163  -17.5854 O   0  0  0  0  0  0  0  0  0  0  0  0
   17.5108  -16.2782  -13.5375 O   0  0  0  0  0  0  0  0  0  0  0  0
   17.0930  -11.6914  -15.7125 N   0  0  0  0  0  0  0  0  0  0  0  0
   17.9824  -10.7147  -16.2533 C   0  0  0  0  0  0  0  0  0  0  0  0
   18.1294   -9.5262  -15.3416 C   0  0  0  0  0  0  0  0  0  0  0  0
   17.4194   -9.4398  -14.3085 O   0  0  0  0  0  0  0  0  0  0  0  0
   23.6348   -6.1880  -14.7724 N   0  0  0  0  0  0  0  0  0  0  0  0
   22.6533   -5.5973  -13.9449 C   0  0  0  0  0  0  0  0  0  0  0  0
   23.0539   -4.6558  -13.1695 O   0  0  0  0  0  0  0  0  0  0  0  0
   21.2382   -5.9403  -13.8869 C   0  0  0  0  0  0  0  0  0  0  0  0
   20.7415   -6.9999  -14.7763 C   0  0  0  0  0  0  0  0  0  0  0  0
   19.2930   -7.3543  -14.7173 C   0  0  2  0  0  0  0  0  0  0  0  0
   19.0612   -8.5007  -15.6348 N   0  0  0  0  0  0  0  0  0  0  0  0
   18.3544   -6.2871  -15.0028 C   0  0  0  0  0  0  0  0  0  0  0  0
   17.8213   -5.3762  -14.1156 O   0  0  0  0  0  0  0  0  0  0  0  0
   17.9532   -6.1607  -16.2161 O   0  0  0  0  0  0  0  0  0  0  0  0
  2  1  1  6
  2  3  1  0
  3  4  1  0
  4  8  1  0
  5  4  2  0
  6  7  2  0
  6  2  1  0
  9  6  1  0
 10  9  1  0
 10 11  1  0
 11 12  2  0
 13 14  1  0
 14 16  1  0
 14 15  2  0
 16 17  1  0
 18 17  1  6
 18 20  1  0
 19 11  1  0
 19 18  1  0
 20 21  1  0
 22 20  2  0
M  END
$$$$
