DGQ.pdb
     RDKit          3D

 22 21  0  0  1  0  0  0  0  0999 V2000
   17.1665  -10.0897  -14.4301 N   0  0  0  0  0  0  0  0  0  0  0  0
   18.5215   -9.6775  -14.7413 C   0  0  1  0  0  0  0  0  0  0  0  0
   18.7355   -9.9737  -16.2202 C   0  0  0  0  0  0  0  0  0  0  0  0
   18.7932  -11.4413  -16.3756 C   0  0  0  0  0  0  0  0  0  0  0  0
   19.7095  -12.1575  -15.9065 O   0  0  0  0  0  0  0  0  0  0  0  0
   18.6312   -8.2127  -14.5232 C   0  0  0  0  0  0  0  0  0  0  0  0
   19.7042   -7.6094  -14.7747 O   0  0  0  0  0  0  0  0  0  0  0  0
   17.7721  -12.0636  -17.0830 O   0  0  0  0  0  0  0  0  0  0  0  0
   17.5421   -7.4380  -14.0269 N   0  0  0  0  0  0  0  0  0  0  0  0
   17.6189   -6.0411  -13.7437 C   0  0  0  0  0  0  0  0  0  0  0  0
   17.5235   -5.7636  -12.2675 C   0  0  0  0  0  0  0  0  0  0  0  0
   17.5253   -6.7186  -11.4509 O   0  0  0  0  0  0  0  0  0  0  0  0
   17.9460   -0.0253   -7.3624 N   0  0  0  0  0  0  0  0  0  0  0  0
   17.9303   -0.7326   -8.5857 C   0  0  0  0  0  0  0  0  0  0  0  0
   18.2947   -0.0766   -9.6274 O   0  0  0  0  0  0  0  0  0  0  0  0
   17.5521   -2.1258   -8.7843 C   0  0  0  0  0  0  0  0  0  0  0  0
   17.6459   -2.6865  -10.1397 C   0  0  0  0  0  0  0  0  0  0  0  0
   17.2975   -4.1239  -10.3385 C   0  0  2  0  0  0  0  0  0  0  0  0
   17.4313   -4.4349  -11.7859 N   0  0  0  0  0  0  0  0  0  0  0  0
   15.9984   -4.5469   -9.8537 C   0  0  0  0  0  0  0  0  0  0  0  0
   15.6611   -4.9235   -8.5709 O   0  0  0  0  0  0  0  0  0  0  0  0
   15.0356   -4.5904  -10.7023 O   0  0  0  0  0  0  0  0  0  0  0  0
  2  1  1  6
  2  3  1  0
  3  4  1  0
  4  8  1  0
  5  4  2  0
  6  7  2  0
  6  2  1  0
  9  6  1  0
 10  9  1  0
 10 11  1  0
 11 12  2  0
 13 14  1  0
 14 16  1  0
 14 15  2  0
 16 17  1  0
 18 17  1  6
 18 20  1  0
 19 11  1  0
 19 18  1  0
 20 21  1  0
 22 20  2  0
M  END
$$$$
