WVQ.pdb
     RDKit          3D

 31 32  0  0  1  0  0  0  0  0999 V2000
    6.0818  -17.6774   24.8701 N   0  0  0  0  0  0  0  0  0  0  0  0
    7.2900  -16.9351   24.6904 C   0  0  1  0  0  0  0  0  0  0  0  0
    7.6934  -16.1796   25.9159 C   0  0  0  0  0  0  0  0  0  0  0  0
    7.0069  -14.8934   26.1204 C   0  0  0  0  0  0  0  0  0  0  0  0
    5.8849  -14.6632   26.9383 C   0  0  0  0  0  0  0  0  0  0  0  0
    5.5521  -13.3655   26.8965 N   0  0  0  0  0  0  0  0  0  0  0  0
    6.3934  -12.6966   26.0878 C   0  0  0  0  0  0  0  0  0  0  0  0
    6.4468  -11.3643   25.7280 C   0  0  0  0  0  0  0  0  0  0  0  0
    7.4211  -10.9316   24.8591 C   0  0  0  0  0  0  0  0  0  0  0  0
    8.3199  -11.8457   24.3707 C   0  0  0  0  0  0  0  0  0  0  0  0
    8.2507  -13.1706   24.7415 C   0  0  0  0  0  0  0  0  0  0  0  0
    7.2936  -13.6478   25.6085 C   0  0  0  0  0  0  0  0  0  0  0  0
    8.4014  -17.8445   24.2487 C   0  0  0  0  0  0  0  0  0  0  0  0
    8.3758  -19.0516   24.6372 O   0  0  0  0  0  0  0  0  0  0  0  0
   12.3592  -18.6156   21.4118 C   0  0  0  0  0  0  0  0  0  0  0  0
   11.1628  -17.7459   21.7817 C   0  0  2  0  0  0  0  0  0  0  0  0
   11.6971  -16.3634   22.0000 C   0  0  0  0  0  0  0  0  0  0  0  0
   10.5320  -18.2385   23.0765 C   0  0  2  0  0  0  0  0  0  0  0  0
    9.4218  -17.3108   23.4224 N   0  0  0  0  0  0  0  0  0  0  0  0
   11.5498  -18.0591   24.1500 C   0  0  0  0  0  0  0  0  0  0  0  0
   11.9583  -16.8537   24.3592 O   0  0  0  0  0  0  0  0  0  0  0  0
   13.6109  -20.6838   29.9911 N   0  0  0  0  0  0  0  0  0  0  0  0
   12.3788  -20.0673   29.5229 C   0  0  0  0  0  0  0  0  0  0  0  0
   11.3225  -20.6289   29.8539 O   0  0  0  0  0  0  0  0  0  0  0  0
   12.4351  -18.8641   28.7095 C   0  0  0  0  0  0  0  0  0  0  0  0
   11.8664  -18.9811   27.3439 C   0  0  0  0  0  0  0  0  0  0  0  0
   12.8088  -18.7030   26.1952 C   0  0  2  0  0  0  0  0  0  0  0  0
   12.0889  -19.0812   24.9428 N   0  0  0  0  0  0  0  0  0  0  0  0
   14.0698  -19.4403   26.1999 C   0  0  0  0  0  0  0  0  0  0  0  0
   15.0778  -19.0271   26.8667 O   0  0  0  0  0  0  0  0  0  0  0  0
   14.2164  -20.6068   25.4861 O   0  0  0  0  0  0  0  0  0  0  0  0
  2  1  1  1
  2 13  1  0
  3  2  1  0
  4  5  2  0
  4  3  1  0
  6  5  1  0
  7 12  2  0
  7  6  1  0
  8  7  1  0
  9 10  1  0
  9  8  2  0
 10 11  2  0
 11 12  1  0
 12  4  1  0
 13 14  2  0
 16 18  1  0
 16 15  1  1
 16 17  1  0
 19 13  1  0
 18 19  1  1
 20 18  1  0
 20 21  2  0
 22 23  1  0
 23 25  1  0
 24 23  2  0
 25 26  1  0
 27 26  1  1
 27 29  1  0
 27 28  1  0
 28 20  1  0
 29 31  1  0
 30 29  2  0
M  END
$$$$
