WVQ.pdb
     RDKit          3D

 31 32  0  0  1  0  0  0  0  0999 V2000
    6.6371  -18.3410   24.2512 N   0  0  0  0  0  0  0  0  0  0  0  0
    6.8390  -16.9378   24.0690 C   0  0  1  0  0  0  0  0  0  0  0  0
    7.6081  -16.3131   25.1887 C   0  0  0  0  0  0  0  0  0  0  0  0
    6.8801  -15.2969   25.9663 C   0  0  0  0  0  0  0  0  0  0  0  0
    5.6923  -15.4919   26.6955 C   0  0  0  0  0  0  0  0  0  0  0  0
    5.3359  -14.3477   27.2959 N   0  0  0  0  0  0  0  0  0  0  0  0
    6.2239  -13.3784   27.0114 C   0  0  0  0  0  0  0  0  0  0  0  0
    6.2770  -12.0506   27.3877 C   0  0  0  0  0  0  0  0  0  0  0  0
    7.3074  -11.2564   26.9416 C   0  0  0  0  0  0  0  0  0  0  0  0
    8.2615  -11.8126   26.1277 C   0  0  0  0  0  0  0  0  0  0  0  0
    8.1917  -13.1393   25.7634 C   0  0  0  0  0  0  0  0  0  0  0  0
    7.1795  -13.9711   26.1865 C   0  0  0  0  0  0  0  0  0  0  0  0
    7.5211  -16.6738   22.7566 C   0  0  0  0  0  0  0  0  0  0  0  0
    8.0623  -17.6518   22.1572 O   0  0  0  0  0  0  0  0  0  0  0  0
    6.5615  -13.3521   20.3138 C   0  0  0  0  0  0  0  0  0  0  0  0
    8.0295  -13.6912   20.5473 C   0  0  2  0  0  0  0  0  0  0  0  0
    8.7291  -13.4592   19.2430 C   0  0  0  0  0  0  0  0  0  0  0  0
    8.1784  -15.1568   20.9303 C   0  0  2  0  0  0  0  0  0  0  0  0
    7.5273  -15.3486   22.2540 N   0  0  0  0  0  0  0  0  0  0  0  0
    9.6305  -15.3988   21.1621 C   0  0  0  0  0  0  0  0  0  0  0  0
   10.4065  -15.2598   20.1414 O   0  0  0  0  0  0  0  0  0  0  0  0
   13.1635  -18.0976   26.1808 N   0  0  0  0  0  0  0  0  0  0  0  0
   13.7570  -16.9340   25.5397 C   0  0  0  0  0  0  0  0  0  0  0  0
   14.5104  -16.2427   26.2434 O   0  0  0  0  0  0  0  0  0  0  0  0
   13.4481  -16.6363   24.1509 C   0  0  0  0  0  0  0  0  0  0  0  0
   12.0570  -16.1972   23.8790 C   0  0  0  0  0  0  0  0  0  0  0  0
   11.6880  -15.9870   22.4283 C   0  0  2  0  0  0  0  0  0  0  0  0
   10.2132  -15.7568   22.3852 N   0  0  0  0  0  0  0  0  0  0  0  0
   11.9718  -17.0962   21.5212 C   0  0  0  0  0  0  0  0  0  0  0  0
   11.2448  -18.1463   21.5086 O   0  0  0  0  0  0  0  0  0  0  0  0
   13.0329  -17.0489   20.6473 O   0  0  0  0  0  0  0  0  0  0  0  0
  2  1  1  1
  2 13  1  0
  3  2  1  0
  4  5  2  0
  4  3  1  0
  6  5  1  0
  7 12  2  0
  7  6  1  0
  8  7  1  0
  9 10  1  0
  9  8  2  0
 10 11  2  0
 11 12  1  0
 12  4  1  0
 13 14  2  0
 16 18  1  0
 16 15  1  6
 16 17  1  0
 19 13  1  0
 18 19  1  1
 20 18  1  0
 20 21  2  0
 22 23  1  0
 23 25  1  0
 24 23  2  0
 25 26  1  0
 27 26  1  1
 27 29  1  0
 27 28  1  0
 28 20  1  0
 29 31  1  0
 30 29  2  0
M  END
$$$$
