WVQ.pdb
     RDKit          3D

 31 32  0  0  1  0  0  0  0  0999 V2000
    9.6374  -15.6706   24.7526 N   0  0  0  0  0  0  0  0  0  0  0  0
    8.5226  -16.5176   24.4644 C   0  0  1  0  0  0  0  0  0  0  0  0
    7.4344  -16.4096   25.4840 C   0  0  0  0  0  0  0  0  0  0  0  0
    7.4045  -15.1504   26.2461 C   0  0  0  0  0  0  0  0  0  0  0  0
    6.4037  -14.1624   26.1930 C   0  0  0  0  0  0  0  0  0  0  0  0
    6.7015  -13.1694   27.0428 N   0  0  0  0  0  0  0  0  0  0  0  0
    7.8597  -13.4313   27.6746 C   0  0  0  0  0  0  0  0  0  0  0  0
    8.5664  -12.7128   28.6190 C   0  0  0  0  0  0  0  0  0  0  0  0
    9.7528  -13.2097   29.1058 C   0  0  0  0  0  0  0  0  0  0  0  0
   10.2035  -14.4164   28.6339 C   0  0  0  0  0  0  0  0  0  0  0  0
    9.4843  -15.1186   27.6919 C   0  0  0  0  0  0  0  0  0  0  0  0
    8.2923  -14.6603   27.1775 C   0  0  0  0  0  0  0  0  0  0  0  0
    7.9837  -16.2238   23.0931 C   0  0  0  0  0  0  0  0  0  0  0  0
    6.9313  -16.8270   22.7228 O   0  0  0  0  0  0  0  0  0  0  0  0
    7.5451  -12.7986   21.4820 C   0  0  0  0  0  0  0  0  0  0  0  0
    8.3106  -13.6775   20.4991 C   0  0  2  0  0  0  0  0  0  0  0  0
    7.6689  -13.4725   19.1610 C   0  0  0  0  0  0  0  0  0  0  0  0
    8.1782  -15.1433   20.8877 C   0  0  2  0  0  0  0  0  0  0  0  0
    8.6759  -15.2901   22.2819 N   0  0  0  0  0  0  0  0  0  0  0  0
    9.1385  -15.9048   20.0399 C   0  0  0  0  0  0  0  0  0  0  0  0
   10.3892  -15.6365   20.2053 O   0  0  0  0  0  0  0  0  0  0  0  0
   11.4051  -18.2145   22.7078 N   0  0  0  0  0  0  0  0  0  0  0  0
   11.3222  -19.2477   21.6866 C   0  0  0  0  0  0  0  0  0  0  0  0
   11.2100  -20.4151   22.0930 O   0  0  0  0  0  0  0  0  0  0  0  0
   11.3790  -18.8823   20.2809 C   0  0  0  0  0  0  0  0  0  0  0  0
   10.0794  -18.8677   19.5648 C   0  0  0  0  0  0  0  0  0  0  0  0
    9.8773  -17.7590   18.5573 C   0  0  2  0  0  0  0  0  0  0  0  0
    8.7963  -16.8789   19.0925 N   0  0  0  0  0  0  0  0  0  0  0  0
    9.4669  -18.1697   17.2170 C   0  0  0  0  0  0  0  0  0  0  0  0
    8.2342  -18.3142   16.9153 O   0  0  0  0  0  0  0  0  0  0  0  0
   10.3942  -18.4150   16.2312 O   0  0  0  0  0  0  0  0  0  0  0  0
  2  1  1  1
  2 13  1  0
  3  2  1  0
  4  5  2  0
  4  3  1  0
  6  5  1  0
  7 12  2  0
  7  6  1  0
  8  7  1  0
  9 10  1  0
  9  8  2  0
 10 11  2  0
 11 12  1  0
 12  4  1  0
 13 14  2  0
 16 18  1  0
 16 15  1  1
 16 17  1  0
 19 13  1  0
 18 19  1  1
 20 18  1  0
 20 21  2  0
 22 23  1  0
 23 25  1  0
 24 23  2  0
 25 26  1  0
 27 26  1  1
 27 29  1  0
 27 28  1  0
 28 20  1  0
 29 31  1  0
 30 29  2  0
M  END
$$$$
