WVQ.pdb
     RDKit          3D

 31 32  0  0  1  0  0  0  0  0999 V2000
    6.1671  -18.6052   24.8432 N   0  0  0  0  0  0  0  0  0  0  0  0
    6.4065  -17.2069   24.6691 C   0  0  1  0  0  0  0  0  0  0  0  0
    6.9931  -16.5639   25.8847 C   0  0  0  0  0  0  0  0  0  0  0  0
    6.4674  -15.2276   26.2094 C   0  0  0  0  0  0  0  0  0  0  0  0
    5.1122  -14.8646   26.3206 C   0  0  0  0  0  0  0  0  0  0  0  0
    5.0156  -13.5699   26.6536 N   0  0  0  0  0  0  0  0  0  0  0  0
    6.2412  -13.0294   26.7751 C   0  0  0  0  0  0  0  0  0  0  0  0
    6.6456  -11.7470   27.0902 C   0  0  0  0  0  0  0  0  0  0  0  0
    7.9872  -11.4481   27.1389 C   0  0  0  0  0  0  0  0  0  0  0  0
    8.8929  -12.4428   26.8703 C   0  0  0  0  0  0  0  0  0  0  0  0
    8.4701  -13.7162   26.5581 C   0  0  0  0  0  0  0  0  0  0  0  0
    7.1385  -14.0606   26.4985 C   0  0  0  0  0  0  0  0  0  0  0  0
    7.2902  -16.9723   23.4769 C   0  0  0  0  0  0  0  0  0  0  0  0
    7.9833  -17.9435   23.0467 O   0  0  0  0  0  0  0  0  0  0  0  0
    6.3852  -14.0899   20.5464 C   0  0  0  0  0  0  0  0  0  0  0  0
    7.8174  -14.1622   21.0642 C   0  0  2  0  0  0  0  0  0  0  0  0
    8.7067  -13.9437   19.8784 C   0  0  0  0  0  0  0  0  0  0  0  0
    8.1007  -15.5413   21.6427 C   0  0  2  0  0  0  0  0  0  0  0  0
    7.3071  -15.6809   22.8931 N   0  0  0  0  0  0  0  0  0  0  0  0
    9.5271  -15.5456   22.0741 C   0  0  0  0  0  0  0  0  0  0  0  0
    9.8266  -14.7920   23.0770 O   0  0  0  0  0  0  0  0  0  0  0  0
   11.4676  -19.7933   25.2385 N   0  0  0  0  0  0  0  0  0  0  0  0
   12.5886  -18.9055   24.9696 C   0  0  0  0  0  0  0  0  0  0  0  0
   13.2785  -18.5787   25.9484 O   0  0  0  0  0  0  0  0  0  0  0  0
   12.8412  -18.4487   23.6131 C   0  0  0  0  0  0  0  0  0  0  0  0
   11.6620  -17.9297   22.8767 C   0  0  0  0  0  0  0  0  0  0  0  0
   11.7938  -16.5460   22.2827 C   0  0  2  0  0  0  0  0  0  0  0  0
   10.5550  -16.2960   21.4874 N   0  0  0  0  0  0  0  0  0  0  0  0
   12.9259  -16.3326   21.3847 C   0  0  0  0  0  0  0  0  0  0  0  0
   12.7879  -16.3936   20.1163 O   0  0  0  0  0  0  0  0  0  0  0  0
   14.1818  -16.0575   21.8735 O   0  0  0  0  0  0  0  0  0  0  0  0
  2  1  1  1
  2 13  1  0
  3  2  1  0
  4  5  2  0
  4  3  1  0
  6  5  1  0
  7 12  2  0
  7  6  1  0
  8  7  1  0
  9 10  1  0
  9  8  2  0
 10 11  2  0
 11 12  1  0
 12  4  1  0
 13 14  2  0
 16 18  1  0
 16 15  1  6
 16 17  1  0
 19 13  1  0
 18 19  1  1
 20 18  1  0
 20 21  2  0
 22 23  1  0
 23 25  1  0
 24 23  2  0
 25 26  1  0
 27 26  1  6
 27 29  1  0
 27 28  1  0
 28 20  1  0
 29 31  1  0
 30 29  2  0
M  END
$$$$
