WVQ.pdb
     RDKit          3D

 31 32  0  0  1  0  0  0  0  0999 V2000
    6.6957  -17.6372   24.2338 N   0  0  0  0  0  0  0  0  0  0  0  0
    7.6752  -16.6409   23.9318 C   0  0  1  0  0  0  0  0  0  0  0  0
    8.1442  -15.9034   25.1449 C   0  0  0  0  0  0  0  0  0  0  0  0
    7.1656  -14.9787   25.7404 C   0  0  0  0  0  0  0  0  0  0  0  0
    6.0414  -15.3305   26.5106 C   0  0  0  0  0  0  0  0  0  0  0  0
    5.3966  -14.2230   26.9035 N   0  0  0  0  0  0  0  0  0  0  0  0
    6.0265  -13.1296   26.4379 C   0  0  0  0  0  0  0  0  0  0  0  0
    5.7397  -11.7852   26.5715 C   0  0  0  0  0  0  0  0  0  0  0  0
    6.5555  -10.8518   25.9759 C   0  0  0  0  0  0  0  0  0  0  0  0
    7.6408  -11.2885   25.2594 C   0  0  0  0  0  0  0  0  0  0  0  0
    7.9108  -12.6339   25.1377 C   0  0  0  0  0  0  0  0  0  0  0  0
    7.1226  -13.6027   25.7170 C   0  0  0  0  0  0  0  0  0  0  0  0
    8.8416  -17.2560   23.2118 C   0  0  0  0  0  0  0  0  0  0  0  0
    9.1624  -18.4480   23.5029 O   0  0  0  0  0  0  0  0  0  0  0  0
    9.6557  -16.7644   19.3111 C   0  0  0  0  0  0  0  0  0  0  0  0
   10.8532  -16.4733   20.2087 C   0  0  2  0  0  0  0  0  0  0  0  0
   12.0454  -17.0767   19.5312 C   0  0  0  0  0  0  0  0  0  0  0  0
   10.6704  -17.1390   21.5654 C   0  0  2  0  0  0  0  0  0  0  0  0
    9.5254  -16.4763   22.2457 N   0  0  0  0  0  0  0  0  0  0  0  0
   11.8699  -16.7972   22.3809 C   0  0  0  0  0  0  0  0  0  0  0  0
   11.9905  -15.5634   22.7368 O   0  0  0  0  0  0  0  0  0  0  0  0
   14.1502  -20.2408   26.7134 N   0  0  0  0  0  0  0  0  0  0  0  0
   13.0276  -19.3151   26.7228 C   0  0  0  0  0  0  0  0  0  0  0  0
   12.1685  -19.5012   27.5992 O   0  0  0  0  0  0  0  0  0  0  0  0
   12.9583  -18.2512   25.7348 C   0  0  0  0  0  0  0  0  0  0  0  0
   14.1101  -18.1590   24.8038 C   0  0  0  0  0  0  0  0  0  0  0  0
   13.9702  -17.1894   23.6526 C   0  0  2  0  0  0  0  0  0  0  0  0
   12.8625  -17.6979   22.7899 N   0  0  0  0  0  0  0  0  0  0  0  0
   15.1408  -17.0324   22.7930 C   0  0  0  0  0  0  0  0  0  0  0  0
   15.2133  -17.6130   21.6576 O   0  0  0  0  0  0  0  0  0  0  0  0
   16.2072  -16.2528   23.1761 O   0  0  0  0  0  0  0  0  0  0  0  0
  2  1  1  1
  2 13  1  0
  3  2  1  0
  4  5  2  0
  4  3  1  0
  6  5  1  0
  7 12  2  0
  7  6  1  0
  8  7  1  0
  9 10  1  0
  9  8  2  0
 10 11  2  0
 11 12  1  0
 12  4  1  0
 13 14  2  0
 16 18  1  0
 16 15  1  6
 16 17  1  0
 19 13  1  0
 18 19  1  1
 20 18  1  0
 20 21  2  0
 22 23  1  0
 23 25  1  0
 24 23  2  0
 25 26  1  0
 27 26  1  1
 27 29  1  0
 27 28  1  0
 28 20  1  0
 29 31  1  0
 30 29  2  0
M  END
$$$$
