WVQ.pdb
     RDKit          3D

 31 32  0  0  1  0  0  0  0  0999 V2000
    6.0668  -16.7747   25.1016 N   0  0  0  0  0  0  0  0  0  0  0  0
    6.9683  -15.7798   24.6111 C   0  0  1  0  0  0  0  0  0  0  0  0
    8.1379  -15.5611   25.5165 C   0  0  0  0  0  0  0  0  0  0  0  0
    7.9376  -14.5605   26.5778 C   0  0  0  0  0  0  0  0  0  0  0  0
    8.5626  -14.5398   27.8386 C   0  0  0  0  0  0  0  0  0  0  0  0
    8.1544  -13.4660   28.5292 N   0  0  0  0  0  0  0  0  0  0  0  0
    7.2788  -12.7510   27.8004 C   0  0  0  0  0  0  0  0  0  0  0  0
    6.5909  -11.5877   28.0846 C   0  0  0  0  0  0  0  0  0  0  0  0
    5.7309  -11.0589   27.1506 C   0  0  0  0  0  0  0  0  0  0  0  0
    5.5806  -11.7096   25.9522 C   0  0  0  0  0  0  0  0  0  0  0  0
    6.2758  -12.8689   25.6869 C   0  0  0  0  0  0  0  0  0  0  0  0
    7.1470  -13.4333   26.5913 C   0  0  0  0  0  0  0  0  0  0  0  0
    7.4378  -16.1357   23.2290 C   0  0  0  0  0  0  0  0  0  0  0  0
    7.5959  -17.3625   22.9491 O   0  0  0  0  0  0  0  0  0  0  0  0
    9.0193  -13.1919   20.6774 C   0  0  0  0  0  0  0  0  0  0  0  0
    8.1189  -14.2585   20.0641 C   0  0  2  0  0  0  0  0  0  0  0  0
    6.7400  -13.6742   20.0227 C   0  0  0  0  0  0  0  0  0  0  0  0
    8.0992  -15.5017   20.9422 C   0  0  2  0  0  0  0  0  0  0  0  0
    7.6813  -15.0862   22.3081 N   0  0  0  0  0  0  0  0  0  0  0  0
    9.5112  -15.9577   21.0795 C   0  0  0  0  0  0  0  0  0  0  0  0
   10.2536  -15.2913   21.8969 O   0  0  0  0  0  0  0  0  0  0  0  0
   10.4814  -20.7262   22.9817 N   0  0  0  0  0  0  0  0  0  0  0  0
   11.8085  -20.1754   23.2111 C   0  0  0  0  0  0  0  0  0  0  0  0
   12.3894  -20.5511   24.2417 O   0  0  0  0  0  0  0  0  0  0  0  0
   12.3765  -19.2351   22.2593 C   0  0  0  0  0  0  0  0  0  0  0  0
   11.5013  -18.8612   21.1207 C   0  0  0  0  0  0  0  0  0  0  0  0
   11.5019  -17.4036   20.7204 C   0  0  2  0  0  0  0  0  0  0  0  0
   10.0885  -17.0408   20.4032 N   0  0  0  0  0  0  0  0  0  0  0  0
   12.3034  -17.0543   19.5503 C   0  0  0  0  0  0  0  0  0  0  0  0
   11.7560  -16.7610   18.4341 O   0  0  0  0  0  0  0  0  0  0  0  0
   13.6774  -17.0285   19.6091 O   0  0  0  0  0  0  0  0  0  0  0  0
  2  1  1  1
  2 13  1  0
  3  2  1  0
  4  5  2  0
  4  3  1  0
  6  5  1  0
  7 12  2  0
  7  6  1  0
  8  7  1  0
  9 10  1  0
  9  8  2  0
 10 11  2  0
 11 12  1  0
 12  4  1  0
 13 14  2  0
 16 18  1  0
 16 15  1  1
 16 17  1  0
 19 13  1  0
 18 19  1  1
 20 18  1  0
 20 21  2  0
 22 23  1  0
 23 25  1  0
 24 23  2  0
 25 26  1  0
 27 26  1  6
 27 29  1  0
 27 28  1  0
 28 20  1  0
 29 31  1  0
 30 29  2  0
M  END
$$$$
