WVQ.pdb
     RDKit          3D

 31 32  0  0  1  0  0  0  0  0999 V2000
    6.3531  -17.8046   23.7454 N   0  0  0  0  0  0  0  0  0  0  0  0
    6.8085  -16.4531   23.6510 C   0  0  1  0  0  0  0  0  0  0  0  0
    7.5721  -16.0134   24.8589 C   0  0  0  0  0  0  0  0  0  0  0  0
    6.8433  -15.1243   25.7786 C   0  0  0  0  0  0  0  0  0  0  0  0
    5.6905  -15.4471   26.5186 C   0  0  0  0  0  0  0  0  0  0  0  0
    5.3225  -14.3968   27.2655 N   0  0  0  0  0  0  0  0  0  0  0  0
    6.1690  -13.3698   27.0710 C   0  0  0  0  0  0  0  0  0  0  0  0
    6.1956  -12.0960   27.6040 C   0  0  0  0  0  0  0  0  0  0  0  0
    7.1837  -11.2183   27.2231 C   0  0  0  0  0  0  0  0  0  0  0  0
    8.1227  -11.6387   26.3157 C   0  0  0  0  0  0  0  0  0  0  0  0
    8.0797  -12.9135   25.7952 C   0  0  0  0  0  0  0  0  0  0  0  0
    7.1102  -13.8251   26.1481 C   0  0  0  0  0  0  0  0  0  0  0  0
    7.6387  -16.2666   22.4127 C   0  0  0  0  0  0  0  0  0  0  0  0
    8.2205  -17.2824   21.9248 O   0  0  0  0  0  0  0  0  0  0  0  0
    6.9152  -13.0401   19.7999 C   0  0  0  0  0  0  0  0  0  0  0  0
    8.3633  -13.4235   20.0835 C   0  0  2  0  0  0  0  0  0  0  0  0
    9.0970  -13.2930   18.7839 C   0  0  0  0  0  0  0  0  0  0  0  0
    8.4448  -14.8701   20.5501 C   0  0  2  0  0  0  0  0  0  0  0  0
    7.7317  -14.9682   21.8519 N   0  0  0  0  0  0  0  0  0  0  0  0
    9.8764  -15.1459   20.8588 C   0  0  0  0  0  0  0  0  0  0  0  0
   10.3456  -14.6120   21.9350 O   0  0  0  0  0  0  0  0  0  0  0  0
   12.6844  -20.5407   21.2403 N   0  0  0  0  0  0  0  0  0  0  0  0
   12.7204  -19.5480   22.3036 C   0  0  0  0  0  0  0  0  0  0  0  0
   12.5550  -19.9724   23.4582 O   0  0  0  0  0  0  0  0  0  0  0  0
   12.9348  -18.1474   21.9794 C   0  0  0  0  0  0  0  0  0  0  0  0
   12.2885  -17.6672   20.7329 C   0  0  0  0  0  0  0  0  0  0  0  0
   12.1258  -16.1711   20.5913 C   0  0  2  0  0  0  0  0  0  0  0  0
   10.7414  -15.9317   20.0854 N   0  0  0  0  0  0  0  0  0  0  0  0
   13.0382  -15.5059   19.6645 C   0  0  0  0  0  0  0  0  0  0  0  0
   12.7069  -15.2846   18.4509 O   0  0  0  0  0  0  0  0  0  0  0  0
   14.2872  -15.0935   20.0664 O   0  0  0  0  0  0  0  0  0  0  0  0
  2  1  1  1
  2 13  1  0
  3  2  1  0
  4  5  2  0
  4  3  1  0
  6  5  1  0
  7 12  2  0
  7  6  1  0
  8  7  1  0
  9 10  1  0
  9  8  2  0
 10 11  2  0
 11 12  1  0
 12  4  1  0
 13 14  2  0
 16 18  1  0
 16 15  1  6
 16 17  1  0
 19 13  1  0
 18 19  1  1
 20 18  1  0
 20 21  2  0
 22 23  1  0
 23 25  1  0
 24 23  2  0
 25 26  1  0
 27 26  1  6
 27 29  1  0
 27 28  1  0
 28 20  1  0
 29 31  1  0
 30 29  2  0
M  END
$$$$
