VCD.pdb
     RDKit          3D

 22 21  0  0  1  0  0  0  0  0999 V2000
   19.1630  -12.7170  -18.8958 C   0  0  0  0  0  0  0  0  0  0  0  0
   20.5372  -12.1705  -19.1184 C   0  0  2  0  0  0  0  0  0  0  0  0
   21.4741  -13.2740  -19.5580 C   0  0  0  0  0  0  0  0  0  0  0  0
   21.1385  -11.5315  -17.8931 C   0  0  2  0  0  0  0  0  0  0  0  0
   21.3683  -12.5421  -16.8685 N   0  0  0  0  0  0  0  0  0  0  0  0
   20.3364  -10.4523  -17.3244 C   0  0  0  0  0  0  0  0  0  0  0  0
   20.2773   -9.3340  -17.8805 O   0  0  0  0  0  0  0  0  0  0  0  0
   19.5824  -10.6050  -16.1237 N   0  0  0  0  0  0  0  0  0  0  0  0
   18.7762   -9.5438  -15.5554 C   0  0  1  0  0  0  0  0  0  0  0  0
   17.8263  -10.2052  -14.5445 C   0  0  0  0  0  0  0  0  0  0  0  0
   16.4433  -11.0247  -15.3343 S   0  0  0  0  0  0  0  0  0  0  0  0
   19.5768   -8.5357  -14.8009 C   0  0  0  0  0  0  0  0  0  0  0  0
   20.6330   -8.9829  -14.2573 O   0  0  0  0  0  0  0  0  0  0  0  0
   19.2464   -7.1781  -14.6657 N   0  0  0  0  0  0  0  0  0  0  0  0
   20.0360   -6.1145  -14.1132 C   0  0  1  0  0  0  0  0  0  0  0  0
   21.4705   -6.1448  -14.5098 C   0  0  0  0  0  0  0  0  0  0  0  0
   22.2860   -5.0427  -13.9717 C   0  0  0  0  0  0  0  0  0  0  0  0
   22.2236   -4.6920  -12.7936 O   0  0  0  0  0  0  0  0  0  0  0  0
   19.4180   -4.7807  -14.1299 C   0  0  0  0  0  0  0  0  0  0  0  0
   18.5942   -4.4805  -15.0158 O   0  0  0  0  0  0  0  0  0  0  0  0
   23.1358   -4.3932  -14.8535 O   0  0  0  0  0  0  0  0  0  0  0  0
   19.6925   -3.7765  -13.1873 O   0  0  0  0  0  0  0  0  0  0  0  0
  2  3  1  1
  2  4  1  0
  2  1  1  0
  4  5  1  1
  6  4  1  0
  7  6  2  0
  8  6  1  0
  9 12  1  0
  9  8  1  0
  9 10  1  1
 11 10  1  0
 12 14  1  0
 13 12  2  0
 14 15  1  0
 15 19  1  0
 15 16  1  6
 16 17  1  0
 17 21  1  0
 18 17  2  0
 19 20  2  0
 19 22  1  0
M  END
$$$$
