VCD.pdb
     RDKit          3D

 22 21  0  0  1  0  0  0  0  0999 V2000
   24.8835  -13.8164  -16.2338 C   0  0  0  0  0  0  0  0  0  0  0  0
   25.4512  -13.0681  -17.3977 C   0  0  2  0  0  0  0  0  0  0  0  0
   26.9372  -13.3277  -17.5121 C   0  0  0  0  0  0  0  0  0  0  0  0
   25.2609  -11.5758  -17.3068 C   0  0  2  0  0  0  0  0  0  0  0  0
   25.9696  -11.0553  -16.1446 N   0  0  0  0  0  0  0  0  0  0  0  0
   23.8654  -11.1518  -17.2414 C   0  0  0  0  0  0  0  0  0  0  0  0
   23.0960  -11.3224  -18.2120 O   0  0  0  0  0  0  0  0  0  0  0  0
   23.3034  -10.5314  -16.0870 N   0  0  0  0  0  0  0  0  0  0  0  0
   21.9128  -10.1342  -16.0001 C   0  0  1  0  0  0  0  0  0  0  0  0
   21.3385  -10.8116  -14.7459 C   0  0  0  0  0  0  0  0  0  0  0  0
   19.6971  -10.2231  -14.3366 S   0  0  0  0  0  0  0  0  0  0  0  0
   21.7304   -8.6642  -15.8195 C   0  0  0  0  0  0  0  0  0  0  0  0
   22.3921   -8.1518  -14.8653 O   0  0  0  0  0  0  0  0  0  0  0  0
   20.9075   -7.8485  -16.6119 N   0  0  0  0  0  0  0  0  0  0  0  0
   20.6199   -6.4504  -16.4613 C   0  0  1  0  0  0  0  0  0  0  0  0
   20.5754   -5.6915  -17.7411 C   0  0  0  0  0  0  0  0  0  0  0  0
   20.3116   -4.2495  -17.5980 C   0  0  0  0  0  0  0  0  0  0  0  0
   19.2152   -3.7523  -17.8542 O   0  0  0  0  0  0  0  0  0  0  0  0
   19.5553   -6.1133  -15.5053 C   0  0  0  0  0  0  0  0  0  0  0  0
   18.5118   -6.7936  -15.4607 O   0  0  0  0  0  0  0  0  0  0  0  0
   21.3605   -3.4524  -17.1667 O   0  0  0  0  0  0  0  0  0  0  0  0
   19.6236   -5.0420  -14.5999 O   0  0  0  0  0  0  0  0  0  0  0  0
  2  3  1  1
  2  4  1  0
  2  1  1  0
  4  5  1  1
  6  4  1  0
  7  6  2  0
  8  6  1  0
  9 12  1  0
  9  8  1  0
  9 10  1  1
 11 10  1  0
 12 14  1  0
 13 12  2  0
 14 15  1  0
 15 19  1  0
 15 16  1  6
 16 17  1  0
 17 21  1  0
 18 17  2  0
 19 20  2  0
 19 22  1  0
M  END
$$$$
