VCD.pdb
     RDKit          3D

 22 21  0  0  1  0  0  0  0  0999 V2000
   24.6649  -13.1150  -17.9910 C   0  0  0  0  0  0  0  0  0  0  0  0
   23.4770  -12.2252  -17.8068 C   0  0  2  0  0  0  0  0  0  0  0  0
   23.1212  -11.5506  -19.1133 C   0  0  0  0  0  0  0  0  0  0  0  0
   23.6889  -11.1396  -16.7831 C   0  0  2  0  0  0  0  0  0  0  0  0
   24.1356  -11.7243  -15.5252 N   0  0  0  0  0  0  0  0  0  0  0  0
   22.5113  -10.3141  -16.5315 C   0  0  0  0  0  0  0  0  0  0  0  0
   22.1337   -9.4624  -17.3653 O   0  0  0  0  0  0  0  0  0  0  0  0
   21.7318  -10.4282  -15.3429 N   0  0  0  0  0  0  0  0  0  0  0  0
   20.6034   -9.5675  -15.0511 C   0  0  1  0  0  0  0  0  0  0  0  0
   19.7003  -10.3401  -14.0768 C   0  0  0  0  0  0  0  0  0  0  0  0
   19.1131  -11.8870  -14.7625 S   0  0  0  0  0  0  0  0  0  0  0  0
   20.9916   -8.2991  -14.3676 C   0  0  0  0  0  0  0  0  0  0  0  0
   22.0905   -8.3422  -13.7339 O   0  0  0  0  0  0  0  0  0  0  0  0
   20.2460   -7.1099  -14.3865 N   0  0  0  0  0  0  0  0  0  0  0  0
   20.7030   -5.7627  -14.1964 C   0  0  1  0  0  0  0  0  0  0  0  0
   22.0312   -5.4735  -14.8032 C   0  0  0  0  0  0  0  0  0  0  0  0
   22.5122   -4.0943  -14.6143 C   0  0  0  0  0  0  0  0  0  0  0  0
   22.5948   -3.5724  -13.5027 O   0  0  0  0  0  0  0  0  0  0  0  0
   19.6946   -4.7099  -14.3855 C   0  0  0  0  0  0  0  0  0  0  0  0
   18.9011   -4.7644  -15.3451 O   0  0  0  0  0  0  0  0  0  0  0  0
   22.8668   -3.3848  -15.7512 O   0  0  0  0  0  0  0  0  0  0  0  0
   19.5472   -3.6023  -13.5348 O   0  0  0  0  0  0  0  0  0  0  0  0
  2  3  1  6
  2  4  1  0
  2  1  1  0
  4  5  1  1
  6  4  1  0
  7  6  2  0
  8  6  1  0
  9 12  1  0
  9  8  1  0
  9 10  1  1
 11 10  1  0
 12 14  1  0
 13 12  2  0
 14 15  1  0
 15 19  1  0
 15 16  1  6
 16 17  1  0
 17 21  1  0
 18 17  2  0
 19 20  2  0
 19 22  1  0
M  END
$$$$
