VCD.pdb
     RDKit          3D

 22 21  0  0  1  0  0  0  0  0999 V2000
   30.2395  -33.7765   -6.4848 C   0  0  0  0  0  0  0  0  0  0  0  0
   30.7502  -34.6387   -5.3747 C   0  0  2  0  0  0  0  0  0  0  0  0
   30.7940  -33.8550   -4.0814 C   0  0  0  0  0  0  0  0  0  0  0  0
   32.1351  -35.1806   -5.6194 C   0  0  2  0  0  0  0  0  0  0  0  0
   32.1102  -36.1214   -6.7320 N   0  0  0  0  0  0  0  0  0  0  0  0
   32.7380  -35.8317   -4.4601 C   0  0  0  0  0  0  0  0  0  0  0  0
   32.3408  -36.9526   -4.0740 O   0  0  0  0  0  0  0  0  0  0  0  0
   33.7996  -35.2421   -3.7125 N   0  0  0  0  0  0  0  0  0  0  0  0
   34.3099  -35.8092   -2.4807 C   0  0  1  0  0  0  0  0  0  0  0  0
   35.7404  -35.2744   -2.3089 C   0  0  0  0  0  0  0  0  0  0  0  0
   36.5019  -35.8244   -0.7839 S   0  0  0  0  0  0  0  0  0  0  0  0
   33.5416  -35.3844   -1.2742 C   0  0  0  0  0  0  0  0  0  0  0  0
   33.2503  -34.1499   -1.2271 O   0  0  0  0  0  0  0  0  0  0  0  0
   33.1357  -36.2348   -0.2337 N   0  0  0  0  0  0  0  0  0  0  0  0
   32.3652  -35.9166    0.9347 C   0  0  1  0  0  0  0  0  0  0  0  0
   30.9323  -35.6188    0.6627 C   0  0  0  0  0  0  0  0  0  0  0  0
   30.1032  -36.7949    0.3488 C   0  0  0  0  0  0  0  0  0  0  0  0
   30.5819  -37.9210    0.2153 O   0  0  0  0  0  0  0  0  0  0  0  0
   32.6083  -36.7605    2.1135 C   0  0  0  0  0  0  0  0  0  0  0  0
   33.3269  -37.7750    2.0231 O   0  0  0  0  0  0  0  0  0  0  0  0
   28.7411  -36.5883    0.1957 O   0  0  0  0  0  0  0  0  0  0  0  0
   32.0741  -36.5035    3.3866 O   0  0  0  0  0  0  0  0  0  0  0  0
  2  3  1  1
  2  4  1  0
  2  1  1  0
  4  5  1  6
  6  4  1  0
  7  6  2  0
  8  6  1  0
  9 12  1  0
  9  8  1  0
  9 10  1  1
 11 10  1  0
 12 14  1  0
 13 12  2  0
 14 15  1  0
 15 19  1  0
 15 16  1  6
 16 17  1  0
 17 21  1  0
 18 17  2  0
 19 20  2  0
 19 22  1  0
M  END
$$$$
