VCD.pdb
     RDKit          3D

 22 21  0  0  1  0  0  0  0  0999 V2000
   20.4831  -13.0863  -19.8842 C   0  0  0  0  0  0  0  0  0  0  0  0
   21.3112  -13.0095  -18.6412 C   0  0  2  0  0  0  0  0  0  0  0  0
   22.1304  -14.2710  -18.4795 C   0  0  0  0  0  0  0  0  0  0  0  0
   20.4983  -12.8368  -17.3840 C   0  0  2  0  0  0  0  0  0  0  0  0
   19.5442  -13.9309  -17.2560 N   0  0  0  0  0  0  0  0  0  0  0  0
   19.7800  -11.5683  -17.3035 C   0  0  0  0  0  0  0  0  0  0  0  0
   19.3360  -11.0150  -18.3330 O   0  0  0  0  0  0  0  0  0  0  0  0
   19.5419  -10.8964  -16.0685 N   0  0  0  0  0  0  0  0  0  0  0  0
   18.8768   -9.6121  -15.9819 C   0  0  1  0  0  0  0  0  0  0  0  0
   17.5102   -9.8669  -15.3267 C   0  0  0  0  0  0  0  0  0  0  0  0
   16.5467   -8.3686  -15.1400 S   0  0  0  0  0  0  0  0  0  0  0  0
   19.5963   -8.6336  -15.1151 C   0  0  0  0  0  0  0  0  0  0  0  0
   20.4344   -9.1417  -14.3085 O   0  0  0  0  0  0  0  0  0  0  0  0
   19.4113   -7.2423  -15.1406 N   0  0  0  0  0  0  0  0  0  0  0  0
   20.1156   -6.2310  -14.4050 C   0  0  1  0  0  0  0  0  0  0  0  0
   21.5901   -6.4275  -14.3489 C   0  0  0  0  0  0  0  0  0  0  0  0
   22.3294   -5.3730  -13.6342 C   0  0  0  0  0  0  0  0  0  0  0  0
   22.1058   -5.0953  -12.4561 O   0  0  0  0  0  0  0  0  0  0  0  0
   19.6851   -4.8460  -14.6442 C   0  0  0  0  0  0  0  0  0  0  0  0
   20.1970   -3.9086  -14.0018 O   0  0  0  0  0  0  0  0  0  0  0  0
   23.2974   -4.6825  -14.3468 O   0  0  0  0  0  0  0  0  0  0  0  0
   18.7028   -4.4795  -15.5786 O   0  0  0  0  0  0  0  0  0  0  0  0
  2  3  1  1
  2  4  1  0
  2  1  1  0
  4  5  1  6
  6  4  1  0
  7  6  2  0
  8  6  1  0
  9 12  1  0
  9  8  1  0
  9 10  1  1
 11 10  1  0
 12 14  1  0
 13 12  2  0
 14 15  1  0
 15 19  1  0
 15 16  1  6
 16 17  1  0
 17 21  1  0
 18 17  2  0
 19 20  2  0
 19 22  1  0
M  END
$$$$
