VCD.pdb
     RDKit          3D

 22 21  0  0  1  0  0  0  0  0999 V2000
   23.7733  -10.5853  -14.4992 C   0  0  0  0  0  0  0  0  0  0  0  0
   22.4869  -11.0726  -15.0860 C   0  0  2  0  0  0  0  0  0  0  0  0
   22.7545  -12.1605  -16.1026 C   0  0  0  0  0  0  0  0  0  0  0  0
   21.6928   -9.9952  -15.7787 C   0  0  2  0  0  0  0  0  0  0  0  0
   22.4404   -9.4845  -16.9207 N   0  0  0  0  0  0  0  0  0  0  0  0
   21.3195   -8.8772  -14.9171 C   0  0  0  0  0  0  0  0  0  0  0  0
   20.5576   -9.0455  -13.9401 O   0  0  0  0  0  0  0  0  0  0  0  0
   21.7943   -7.5497  -15.1307 N   0  0  0  0  0  0  0  0  0  0  0  0
   21.3138   -6.4072  -14.3802 C   0  0  1  0  0  0  0  0  0  0  0  0
   22.5437   -5.5453  -14.0542 C   0  0  0  0  0  0  0  0  0  0  0  0
   22.1187   -4.0462  -13.1709 S   0  0  0  0  0  0  0  0  0  0  0  0
   20.3752   -5.5453  -15.1566 C   0  0  0  0  0  0  0  0  0  0  0  0
   20.7682   -5.2334  -16.3225 O   0  0  0  0  0  0  0  0  0  0  0  0
   19.1336   -5.0817  -14.6941 N   0  0  0  0  0  0  0  0  0  0  0  0
   18.2124   -4.1908  -15.3404 C   0  0  1  0  0  0  0  0  0  0  0  0
   16.7817   -4.4485  -15.0200 C   0  0  0  0  0  0  0  0  0  0  0  0
   15.8199   -3.6230  -15.7701 C   0  0  0  0  0  0  0  0  0  0  0  0
   15.9418   -3.4010  -16.9746 O   0  0  0  0  0  0  0  0  0  0  0  0
   18.5963   -2.7719  -15.3575 C   0  0  0  0  0  0  0  0  0  0  0  0
   17.9401   -1.9510  -16.0277 O   0  0  0  0  0  0  0  0  0  0  0  0
   14.7572   -3.0851  -15.0610 O   0  0  0  0  0  0  0  0  0  0  0  0
   19.6882   -2.2455  -14.6484 O   0  0  0  0  0  0  0  0  0  0  0  0
  2  3  1  6
  2  4  1  0
  2  1  1  0
  4  5  1  6
  6  4  1  0
  7  6  2  0
  8  6  1  0
  9 12  1  0
  9  8  1  0
  9 10  1  6
 11 10  1  0
 12 14  1  0
 13 12  2  0
 14 15  1  0
 15 19  1  0
 15 16  1  1
 16 17  1  0
 17 21  1  0
 18 17  2  0
 19 20  2  0
 19 22  1  0
M  END
$$$$
