VCD.pdb
     RDKit          3D

 22 21  0  0  1  0  0  0  0  0999 V2000
   19.9460  -13.3631  -16.8695 C   0  0  0  0  0  0  0  0  0  0  0  0
   18.8382  -12.4343  -17.2530 C   0  0  2  0  0  0  0  0  0  0  0  0
   18.1438  -12.9352  -18.5002 C   0  0  0  0  0  0  0  0  0  0  0  0
   19.2993  -11.0264  -17.5295 C   0  0  2  0  0  0  0  0  0  0  0  0
   20.1424  -11.0049  -18.7180 N   0  0  0  0  0  0  0  0  0  0  0  0
   20.0210  -10.4034  -16.4239 C   0  0  0  0  0  0  0  0  0  0  0  0
   19.4998  -10.3030  -15.2919 O   0  0  0  0  0  0  0  0  0  0  0  0
   21.3415   -9.8834  -16.5633 N   0  0  0  0  0  0  0  0  0  0  0  0
   22.0134   -9.1393  -15.5172 C   0  0  1  0  0  0  0  0  0  0  0  0
   23.5157   -9.4261  -15.6678 C   0  0  0  0  0  0  0  0  0  0  0  0
   23.9621  -11.0682  -15.1089 S   0  0  0  0  0  0  0  0  0  0  0  0
   21.8405   -7.6625  -15.6411 C   0  0  0  0  0  0  0  0  0  0  0  0
   21.6356   -7.2403  -16.8205 O   0  0  0  0  0  0  0  0  0  0  0  0
   21.8855   -6.7511  -14.5744 N   0  0  0  0  0  0  0  0  0  0  0  0
   21.6576   -5.3342  -14.5961 C   0  0  1  0  0  0  0  0  0  0  0  0
   20.3740   -4.9285  -15.2316 C   0  0  0  0  0  0  0  0  0  0  0  0
   20.1751   -3.4743  -15.3538 C   0  0  0  0  0  0  0  0  0  0  0  0
   21.0940   -2.7056  -15.6358 O   0  0  0  0  0  0  0  0  0  0  0  0
   21.9913   -4.6112  -13.3604 C   0  0  0  0  0  0  0  0  0  0  0  0
   21.9146   -3.3678  -13.3193 O   0  0  0  0  0  0  0  0  0  0  0  0
   18.8971   -2.9876  -15.1271 O   0  0  0  0  0  0  0  0  0  0  0  0
   22.4058   -5.2360  -12.1730 O   0  0  0  0  0  0  0  0  0  0  0  0
  2  3  1  6
  2  4  1  0
  2  1  1  0
  4  5  1  6
  6  4  1  0
  7  6  2  0
  8  6  1  0
  9 12  1  0
  9  8  1  0
  9 10  1  6
 11 10  1  0
 12 14  1  0
 13 12  2  0
 14 15  1  0
 15 19  1  0
 15 16  1  1
 16 17  1  0
 17 21  1  0
 18 17  2  0
 19 20  2  0
 19 22  1  0
M  END
$$$$
