VCD.pdb
     RDKit          3D

 22 21  0  0  1  0  0  0  0  0999 V2000
   18.3132  -12.8328  -15.8924 C   0  0  0  0  0  0  0  0  0  0  0  0
   18.6241  -12.2954  -17.2530 C   0  0  2  0  0  0  0  0  0  0  0  0
   19.2912  -13.3599  -18.0960 C   0  0  0  0  0  0  0  0  0  0  0  0
   19.5386  -11.0977  -17.2345 C   0  0  2  0  0  0  0  0  0  0  0  0
   20.8426  -11.4773  -16.7061 N   0  0  0  0  0  0  0  0  0  0  0  0
   19.0275   -9.9644  -16.4691 C   0  0  0  0  0  0  0  0  0  0  0  0
   17.9701   -9.3874  -16.8041 O   0  0  0  0  0  0  0  0  0  0  0  0
   19.6886   -9.4569  -15.3120 N   0  0  0  0  0  0  0  0  0  0  0  0
   19.2248   -8.2948  -14.5815 C   0  0  1  0  0  0  0  0  0  0  0  0
   19.6656   -8.4870  -13.1219 C   0  0  0  0  0  0  0  0  0  0  0  0
   18.2910   -8.8369  -12.0284 S   0  0  0  0  0  0  0  0  0  0  0  0
   19.8376   -7.0190  -15.0540 C   0  0  0  0  0  0  0  0  0  0  0  0
   21.0645   -7.0946  -15.3704 O   0  0  0  0  0  0  0  0  0  0  0  0
   19.1643   -5.7925  -15.1679 N   0  0  0  0  0  0  0  0  0  0  0  0
   19.5082   -4.6527  -15.9694 C   0  0  1  0  0  0  0  0  0  0  0  0
   20.1150   -4.9888  -17.2865 C   0  0  0  0  0  0  0  0  0  0  0  0
   20.4294   -3.8293  -18.1384 C   0  0  0  0  0  0  0  0  0  0  0  0
   21.1312   -2.8965  -17.7480 O   0  0  0  0  0  0  0  0  0  0  0  0
   18.5150   -3.5695  -16.0048 C   0  0  0  0  0  0  0  0  0  0  0  0
   18.7707   -2.5009  -16.5932 O   0  0  0  0  0  0  0  0  0  0  0  0
   19.8913   -3.8161  -19.4159 O   0  0  0  0  0  0  0  0  0  0  0  0
   17.2478   -3.6465  -15.4043 O   0  0  0  0  0  0  0  0  0  0  0  0
  2  3  1  6
  2  4  1  0
  2  1  1  0
  4  5  1  1
  6  4  1  0
  7  6  2  0
  8  6  1  0
  9 12  1  0
  9  8  1  0
  9 10  1  1
 11 10  1  0
 12 14  1  0
 13 12  2  0
 14 15  1  0
 15 19  1  0
 15 16  1  6
 16 17  1  0
 17 21  1  0
 18 17  2  0
 19 20  2  0
 19 22  1  0
M  END
$$$$
