PML.pdb
     RDKit          3D

 24 24  0  0  1  0  0  0  0  0999 V2000
   27.1903  -20.8420  -15.0229 N   0  0  0  0  0  0  0  0  0  0  0  0
   27.9563  -20.6693  -16.2685 C   0  0  0  0  0  0  0  0  0  0  0  0
   28.0724  -19.1648  -16.4453 C   0  0  0  0  0  0  0  0  0  0  0  0
   27.5876  -18.5923  -15.1209 C   0  0  0  0  0  0  0  0  0  0  0  0
   27.7952  -19.8017  -14.2072 C   0  0  1  0  0  0  0  0  0  0  0  0
   27.1479  -19.6484  -12.9060 C   0  0  0  0  0  0  0  0  0  0  0  0
   27.5362  -18.7327  -12.1389 O   0  0  0  0  0  0  0  0  0  0  0  0
   20.9762  -21.7265  -11.7293 C   0  0  0  0  0  0  0  0  0  0  0  0
   21.5314  -20.4039  -12.8138 S   0  0  0  0  0  0  0  0  0  0  0  0
   23.2281  -19.9288  -12.5246 C   0  0  0  0  0  0  0  0  0  0  0  0
   23.9287  -20.6151  -11.4061 C   0  0  0  0  0  0  0  0  0  0  0  0
   25.3545  -20.1827  -11.2231 C   0  0  2  0  0  0  0  0  0  0  0  0
   26.0893  -20.4811  -12.4416 N   0  0  0  0  0  0  0  0  0  0  0  0
   25.9511  -20.7241  -10.0065 C   0  0  0  0  0  0  0  0  0  0  0  0
   26.3020  -21.9530   -9.9191 O   0  0  0  0  0  0  0  0  0  0  0  0
   29.4729  -20.6662   -5.7476 C   0  0  0  0  0  0  0  0  0  0  0  0
   28.2744  -19.7484   -5.6853 C   0  0  1  0  0  0  0  0  0  0  0  0
   28.5374  -18.5429   -4.8052 C   0  0  0  0  0  0  0  0  0  0  0  0
   27.6399  -19.4283   -6.9735 C   0  0  0  0  0  0  0  0  0  0  0  0
   26.7812  -20.4730   -7.6266 C   0  0  2  0  0  0  0  0  0  0  0  0
   26.1951  -19.9485   -8.8435 N   0  0  0  0  0  0  0  0  0  0  0  0
   25.7414  -21.0252   -6.7863 C   0  0  0  0  0  0  0  0  0  0  0  0
   26.0119  -21.9026   -5.7436 O   0  0  0  0  0  0  0  0  0  0  0  0
   24.5331  -20.7418   -6.9527 O   0  0  0  0  0  0  0  0  0  0  0  0
  1  2  1  0
  3  2  1  0
  4  5  1  0
  4  3  1  0
  5  1  1  0
  5  6  1  1
  7  6  2  0
  8  9  1  0
  9 10  1  0
 10 11  1  0
 12 11  1  6
 12 13  1  0
 13  6  1  0
 14 15  2  0
 14 12  1  0
 17 16  1  6
 17 18  1  0
 20 19  1  1
 19 17  1  0
 20 21  1  0
 21 14  1  0
 22 23  1  0
 22 20  1  0
 24 22  2  0
M  END
$$$$
