PML.pdb
     RDKit          3D

 24 24  0  0  1  0  0  0  0  0999 V2000
   27.8706  -19.9443  -15.8677 N   0  0  0  0  0  0  0  0  0  0  0  0
   28.9397  -20.0648  -16.8730 C   0  0  0  0  0  0  0  0  0  0  0  0
   29.5770  -21.4165  -16.5993 C   0  0  0  0  0  0  0  0  0  0  0  0
   28.6283  -22.0870  -15.6159 C   0  0  0  0  0  0  0  0  0  0  0  0
   27.3459  -21.2999  -15.8923 C   0  0  1  0  0  0  0  0  0  0  0  0
   26.3107  -21.5292  -14.8867 C   0  0  0  0  0  0  0  0  0  0  0  0
   25.4710  -22.4437  -15.0774 O   0  0  0  0  0  0  0  0  0  0  0  0
   26.9887  -20.4557   -8.4881 C   0  0  0  0  0  0  0  0  0  0  0  0
   25.2317  -20.8243   -8.5904 S   0  0  0  0  0  0  0  0  0  0  0  0
   24.6610  -21.0483  -10.2674 C   0  0  0  0  0  0  0  0  0  0  0  0
   25.6518  -20.7889  -11.3464 C   0  0  0  0  0  0  0  0  0  0  0  0
   25.1179  -21.0145  -12.7312 C   0  0  2  0  0  0  0  0  0  0  0  0
   26.1878  -20.7731  -13.6854 N   0  0  0  0  0  0  0  0  0  0  0  0
   23.8943  -20.2621  -12.9879 C   0  0  0  0  0  0  0  0  0  0  0  0
   23.8829  -18.9813  -13.0011 O   0  0  0  0  0  0  0  0  0  0  0  0
   19.8876  -22.1390  -15.9212 C   0  0  0  0  0  0  0  0  0  0  0  0
   21.2356  -21.4728  -15.7743 C   0  0  1  0  0  0  0  0  0  0  0  0
   22.0161  -21.4955  -17.0734 C   0  0  0  0  0  0  0  0  0  0  0  0
   21.2399  -20.1701  -15.0905 C   0  0  0  0  0  0  0  0  0  0  0  0
   21.4398  -20.1445  -13.6023 C   0  0  2  0  0  0  0  0  0  0  0  0
   22.6403  -20.8738  -13.2471 N   0  0  0  0  0  0  0  0  0  0  0  0
   20.3244  -20.6384  -12.8251 C   0  0  0  0  0  0  0  0  0  0  0  0
   19.0818  -20.0169  -12.8246 O   0  0  0  0  0  0  0  0  0  0  0  0
   20.4169  -21.6591  -12.1057 O   0  0  0  0  0  0  0  0  0  0  0  0
  1  2  1  0
  3  2  1  0
  4  5  1  0
  4  3  1  0
  5  1  1  0
  5  6  1  1
  7  6  2  0
  8  9  1  0
  9 10  1  0
 10 11  1  0
 12 11  1  1
 12 13  1  0
 13  6  1  0
 14 15  2  0
 14 12  1  0
 17 16  1  6
 17 18  1  0
 20 19  1  6
 19 17  1  0
 20 21  1  0
 21 14  1  0
 22 23  1  0
 22 20  1  0
 24 22  2  0
M  END
$$$$
