PML.pdb
     RDKit          3D

 24 24  0  0  1  0  0  0  0  0999 V2000
   27.0596  -21.3005  -14.5237 N   0  0  0  0  0  0  0  0  0  0  0  0
   27.5305  -21.2200  -15.9165 C   0  0  0  0  0  0  0  0  0  0  0  0
   27.1989  -19.8038  -16.3554 C   0  0  0  0  0  0  0  0  0  0  0  0
   26.8032  -19.0945  -15.0681 C   0  0  0  0  0  0  0  0  0  0  0  0
   27.4833  -19.9977  -14.0373 C   0  0  1  0  0  0  0  0  0  0  0  0
   27.0447  -19.7292  -12.6695 C   0  0  0  0  0  0  0  0  0  0  0  0
   27.3328  -18.6246  -12.1453 O   0  0  0  0  0  0  0  0  0  0  0  0
   21.0119  -20.7379  -11.0835 C   0  0  0  0  0  0  0  0  0  0  0  0
   21.7274  -20.6660   -9.4354 S   0  0  0  0  0  0  0  0  0  0  0  0
   23.4673  -20.2650   -9.4457 C   0  0  0  0  0  0  0  0  0  0  0  0
   24.2267  -20.6339  -10.6706 C   0  0  0  0  0  0  0  0  0  0  0  0
   25.6797  -20.2597  -10.6227 C   0  0  2  0  0  0  0  0  0  0  0  0
   26.3006  -20.6508  -11.8778 N   0  0  0  0  0  0  0  0  0  0  0  0
   26.3488  -20.7684   -9.4300 C   0  0  0  0  0  0  0  0  0  0  0  0
   26.6824  -22.0002   -9.3200 O   0  0  0  0  0  0  0  0  0  0  0  0
   30.0567  -18.5612   -4.9789 C   0  0  0  0  0  0  0  0  0  0  0  0
   29.0461  -19.6108   -5.3784 C   0  0  1  0  0  0  0  0  0  0  0  0
   28.1437  -19.9887   -4.2208 C   0  0  0  0  0  0  0  0  0  0  0  0
   28.3357  -19.3729   -6.6447 C   0  0  0  0  0  0  0  0  0  0  0  0
   27.4010  -20.4339   -7.1503 C   0  0  2  0  0  0  0  0  0  0  0  0
   26.6869  -19.9558   -8.3168 N   0  0  0  0  0  0  0  0  0  0  0  0
   26.4573  -20.9350   -6.1754 C   0  0  0  0  0  0  0  0  0  0  0  0
   26.7811  -21.9381   -5.2703 O   0  0  0  0  0  0  0  0  0  0  0  0
   25.2896  -20.4904   -6.0923 O   0  0  0  0  0  0  0  0  0  0  0  0
  1  2  1  0
  3  2  1  0
  4  5  1  0
  4  3  1  0
  5  1  1  0
  5  6  1  1
  7  6  2  0
  8  9  1  0
  9 10  1  0
 10 11  1  0
 12 11  1  6
 12 13  1  0
 13  6  1  0
 14 15  2  0
 14 12  1  0
 17 16  1  1
 17 18  1  0
 20 19  1  1
 19 17  1  0
 20 21  1  0
 21 14  1  0
 22 23  1  0
 22 20  1  0
 24 22  2  0
M  END
$$$$
