PML.pdb
     RDKit          3D

 24 24  0  0  1  0  0  0  0  0999 V2000
   28.0586  -19.4198  -16.9132 N   0  0  0  0  0  0  0  0  0  0  0  0
   28.3345  -19.2018  -18.3431 C   0  0  0  0  0  0  0  0  0  0  0  0
   29.3572  -20.2650  -18.7059 C   0  0  0  0  0  0  0  0  0  0  0  0
   29.3808  -21.1912  -17.4982 C   0  0  0  0  0  0  0  0  0  0  0  0
   28.0173  -20.8726  -16.8818 C   0  0  1  0  0  0  0  0  0  0  0  0
   27.8648  -21.4099  -15.5315 C   0  0  0  0  0  0  0  0  0  0  0  0
   27.5661  -22.6218  -15.3904 O   0  0  0  0  0  0  0  0  0  0  0  0
   32.1645  -22.2312  -11.1691 C   0  0  0  0  0  0  0  0  0  0  0  0
   30.7812  -21.7963  -10.1058 S   0  0  0  0  0  0  0  0  0  0  0  0
   29.2178  -21.7712  -10.9680 C   0  0  0  0  0  0  0  0  0  0  0  0
   29.2126  -21.1413  -12.3157 C   0  0  0  0  0  0  0  0  0  0  0  0
   27.8904  -21.2234  -13.0218 C   0  0  2  0  0  0  0  0  0  0  0  0
   28.0347  -20.6392  -14.3452 N   0  0  0  0  0  0  0  0  0  0  0  0
   26.7981  -20.6686  -12.2291 C   0  0  0  0  0  0  0  0  0  0  0  0
   26.6332  -19.4045  -12.1034 O   0  0  0  0  0  0  0  0  0  0  0  0
   26.5386  -18.9763   -8.0265 C   0  0  0  0  0  0  0  0  0  0  0  0
   26.0229  -20.1517   -8.8234 C   0  0  1  0  0  0  0  0  0  0  0  0
   25.5413  -21.2711   -7.9223 C   0  0  0  0  0  0  0  0  0  0  0  0
   25.1060  -19.8292   -9.9279 C   0  0  0  0  0  0  0  0  0  0  0  0
   24.6870  -20.9339  -10.8548 C   0  0  2  0  0  0  0  0  0  0  0  0
   25.8408  -21.4667  -11.5506 N   0  0  0  0  0  0  0  0  0  0  0  0
   23.6651  -20.5754  -11.8137 C   0  0  0  0  0  0  0  0  0  0  0  0
   22.3644  -20.2647  -11.4371 O   0  0  0  0  0  0  0  0  0  0  0  0
   23.8971  -20.5247  -13.0432 O   0  0  0  0  0  0  0  0  0  0  0  0
  1  2  1  0
  3  2  1  0
  4  5  1  0
  4  3  1  0
  5  1  1  0
  5  6  1  1
  7  6  2  0
  8  9  1  0
  9 10  1  0
 10 11  1  0
 12 11  1  1
 12 13  1  0
 13  6  1  0
 14 15  2  0
 14 12  1  0
 17 16  1  1
 17 18  1  0
 20 19  1  6
 19 17  1  0
 20 21  1  0
 21 14  1  0
 22 23  1  0
 22 20  1  0
 24 22  2  0
M  END
$$$$
