PML.pdb
     RDKit          3D

 24 24  0  0  1  0  0  0  0  0999 V2000
   29.1989  -19.6671  -12.3489 N   0  0  0  0  0  0  0  0  0  0  0  0
   30.4828  -19.7258  -13.0673 C   0  0  0  0  0  0  0  0  0  0  0  0
   31.0110  -21.1252  -12.8011 C   0  0  0  0  0  0  0  0  0  0  0  0
   29.8370  -21.8551  -12.1641 C   0  0  0  0  0  0  0  0  0  0  0  0
   28.6761  -20.9884  -12.6560 C   0  0  1  0  0  0  0  0  0  0  0  0
   27.4196  -21.2787  -11.9687 C   0  0  0  0  0  0  0  0  0  0  0  0
   26.7983  -22.3313  -12.2582 O   0  0  0  0  0  0  0  0  0  0  0  0
   27.6485  -18.7365   -6.2938 C   0  0  0  0  0  0  0  0  0  0  0  0
   26.6260  -20.2116   -6.4025 S   0  0  0  0  0  0  0  0  0  0  0  0
   26.5103  -20.8612   -8.0617 C   0  0  0  0  0  0  0  0  0  0  0  0
   25.5457  -20.1883   -8.9726 C   0  0  0  0  0  0  0  0  0  0  0  0
   25.5526  -20.7275  -10.3736 C   0  0  2  0  0  0  0  0  0  0  0  0
   26.8426  -20.4345  -10.9766 N   0  0  0  0  0  0  0  0  0  0  0  0
   24.4027  -20.2777  -11.1512 C   0  0  0  0  0  0  0  0  0  0  0  0
   24.2855  -19.0616  -11.5360 O   0  0  0  0  0  0  0  0  0  0  0  0
   22.8273  -22.4893  -15.7387 C   0  0  0  0  0  0  0  0  0  0  0  0
   22.9945  -21.4954  -14.6132 C   0  0  1  0  0  0  0  0  0  0  0  0
   23.2069  -20.0885  -15.1355 C   0  0  0  0  0  0  0  0  0  0  0  0
   22.0171  -21.5913  -13.5178 C   0  0  0  0  0  0  0  0  0  0  0  0
   22.1962  -20.7034  -12.3200 C   0  0  2  0  0  0  0  0  0  0  0  0
   23.3424  -21.1345  -11.5456 N   0  0  0  0  0  0  0  0  0  0  0  0
   21.0401  -20.5969  -11.4573 C   0  0  0  0  0  0  0  0  0  0  0  0
   21.0090  -21.1434  -10.1803 O   0  0  0  0  0  0  0  0  0  0  0  0
   19.9974  -20.0029  -11.8150 O   0  0  0  0  0  0  0  0  0  0  0  0
  1  2  1  0
  3  2  1  0
  4  5  1  0
  4  3  1  0
  5  1  1  0
  5  6  1  1
  7  6  2  0
  8  9  1  0
  9 10  1  0
 10 11  1  0
 12 11  1  1
 12 13  1  0
 13  6  1  0
 14 15  2  0
 14 12  1  0
 17 16  1  6
 17 18  1  0
 20 19  1  6
 19 17  1  0
 20 21  1  0
 21 14  1  0
 22 23  1  0
 22 20  1  0
 24 22  2  0
M  END
$$$$
