FLR.pdb
     RDKit          3D

 31 31  0  0  1  0  0  0  0  0999 V2000
    5.3794  -17.5586   24.9458 N   0  0  0  0  0  0  0  0  0  0  0  0
    6.1657  -16.3682   24.9113 C   0  0  1  0  0  0  0  0  0  0  0  0
    6.8253  -16.1793   26.2585 C   0  0  0  0  0  0  0  0  0  0  0  0
    6.8263  -14.7356   26.6059 C   0  0  0  0  0  0  0  0  0  0  0  0
    7.9831  -14.1266   27.0365 C   0  0  0  0  0  0  0  0  0  0  0  0
    7.9694  -12.7870   27.3559 C   0  0  0  0  0  0  0  0  0  0  0  0
    6.7936  -12.0621   27.2420 C   0  0  0  0  0  0  0  0  0  0  0  0
    5.6459  -12.6984   26.8069 C   0  0  0  0  0  0  0  0  0  0  0  0
    5.6344  -14.0442   26.4800 C   0  0  0  0  0  0  0  0  0  0  0  0
    7.2165  -16.3925   23.8576 C   0  0  0  0  0  0  0  0  0  0  0  0
    7.7570  -17.4948   23.5931 O   0  0  0  0  0  0  0  0  0  0  0  0
    8.2263  -12.0571   20.0807 C   0  0  0  0  0  0  0  0  0  0  0  0
    8.2697  -13.5852   20.2668 C   0  0  2  0  0  0  0  0  0  0  0  0
    6.7924  -13.9778   20.3802 C   0  0  0  0  0  0  0  0  0  0  0  0
    8.9502  -13.8866   21.5639 C   0  0  0  0  0  0  0  0  0  0  0  0
    8.6608  -15.1971   22.1812 C   0  0  2  0  0  0  0  0  0  0  0  0
    7.6087  -15.2187   23.1638 N   0  0  0  0  0  0  0  0  0  0  0  0
    9.9218  -15.7828   22.7171 C   0  0  0  0  0  0  0  0  0  0  0  0
    9.9203  -16.5785   23.6860 O   0  0  0  0  0  0  0  0  0  0  0  0
   10.6918  -22.0753   18.4605 N   0  0  0  0  0  0  0  0  0  0  0  0
   11.6266  -22.1574   19.5277 C   0  0  0  0  0  0  0  0  0  0  0  0
   12.0634  -23.3021   19.9246 N   0  0  0  0  0  0  0  0  0  0  0  0
   12.1276  -21.0243   20.2018 N   0  0  0  0  0  0  0  0  0  0  0  0
   11.6857  -19.6820   19.8397 C   0  0  0  0  0  0  0  0  0  0  0  0
   12.3710  -18.6307   20.6136 C   0  0  0  0  0  0  0  0  0  0  0  0
   11.6652  -17.5134   21.2096 C   0  0  0  0  0  0  0  0  0  0  0  0
   12.2749  -16.4656   22.0374 C   0  0  2  0  0  0  0  0  0  0  0  0
   11.1465  -15.4462   22.1343 N   0  0  0  0  0  0  0  0  0  0  0  0
   13.3708  -15.6681   21.5162 C   0  0  0  0  0  0  0  0  0  0  0  0
   13.2149  -14.7673   20.6792 O   0  0  0  0  0  0  0  0  0  0  0  0
   14.7107  -15.8547   21.9234 O   0  0  0  0  0  0  0  0  0  0  0  0
  2  1  1  1
  3  2  1  0
  4  3  1  0
  4  5  2  0
  6  5  1  0
  7  6  2  0
  8  9  2  0
  8  7  1  0
  9  4  1  0
 10  2  1  0
 11 10  2  0
 13 12  1  1
 13 14  1  0
 15 13  1  0
 16 15  1  1
 16 17  1  0
 17 10  1  0
 18 16  1  0
 19 18  2  0
 20 21  1  0
 21 23  1  0
 21 22  2  0
 23 24  1  0
 25 24  1  0
 26 25  1  0
 27 26  1  6
 27 28  1  0
 28 18  1  0
 29 31  1  0
 29 27  1  0
 30 29  2  0
M  END
$$$$
