FLR.pdb
     RDKit          3D

 31 31  0  0  1  0  0  0  0  0999 V2000
    8.8138  -15.7836   21.7573 N   0  0  0  0  0  0  0  0  0  0  0  0
    9.9462  -15.1349   22.3347 C   0  0  1  0  0  0  0  0  0  0  0  0
   10.0033  -13.7110   21.8298 C   0  0  0  0  0  0  0  0  0  0  0  0
    9.0796  -13.5621   20.6768 C   0  0  0  0  0  0  0  0  0  0  0  0
    9.5602  -13.6349   19.3890 C   0  0  0  0  0  0  0  0  0  0  0  0
    8.6923  -13.4944   18.3291 C   0  0  0  0  0  0  0  0  0  0  0  0
    7.3432  -13.2812   18.5650 C   0  0  0  0  0  0  0  0  0  0  0  0
    6.8869  -13.2125   19.8682 C   0  0  0  0  0  0  0  0  0  0  0  0
    7.7399  -13.3505   20.9506 C   0  0  0  0  0  0  0  0  0  0  0  0
    9.9150  -15.1196   23.8226 C   0  0  0  0  0  0  0  0  0  0  0  0
   10.9537  -14.7563   24.4277 O   0  0  0  0  0  0  0  0  0  0  0  0
    7.6236  -12.3617   26.5274 C   0  0  0  0  0  0  0  0  0  0  0  0
    6.8374  -13.5059   25.8607 C   0  0  2  0  0  0  0  0  0  0  0  0
    5.3926  -13.2619   26.3105 C   0  0  0  0  0  0  0  0  0  0  0  0
    7.3090  -14.8037   26.4347 C   0  0  0  0  0  0  0  0  0  0  0  0
    8.6197  -15.3025   25.9706 C   0  0  2  0  0  0  0  0  0  0  0  0
    8.7586  -15.5001   24.5513 N   0  0  0  0  0  0  0  0  0  0  0  0
    8.9814  -16.5312   26.7320 C   0  0  0  0  0  0  0  0  0  0  0  0
    8.8126  -16.6131   27.9716 O   0  0  0  0  0  0  0  0  0  0  0  0
   10.6978  -19.0958   21.1577 N   0  0  0  0  0  0  0  0  0  0  0  0
    9.4007  -19.6756   21.1866 C   0  0  0  0  0  0  0  0  0  0  0  0
    8.5526  -19.4216   20.2512 N   0  0  0  0  0  0  0  0  0  0  0  0
    8.9683  -20.5458   22.2090 N   0  0  0  0  0  0  0  0  0  0  0  0
    9.7874  -20.7726   23.3946 C   0  0  0  0  0  0  0  0  0  0  0  0
    9.5746  -19.7502   24.4355 C   0  0  0  0  0  0  0  0  0  0  0  0
   10.1743  -19.8390   25.7523 C   0  0  0  0  0  0  0  0  0  0  0  0
   10.0199  -18.8502   26.8262 C   0  0  2  0  0  0  0  0  0  0  0  0
    9.5238  -17.6301   26.0602 N   0  0  0  0  0  0  0  0  0  0  0  0
   11.1883  -18.3313   27.5149 C   0  0  0  0  0  0  0  0  0  0  0  0
   11.4590  -18.6079   28.6925 O   0  0  0  0  0  0  0  0  0  0  0  0
   12.1165  -17.4651   26.8954 O   0  0  0  0  0  0  0  0  0  0  0  0
  2  1  1  6
  3  2  1  0
  4  3  1  0
  4  5  2  0
  6  5  1  0
  7  6  2  0
  8  9  2  0
  8  7  1  0
  9  4  1  0
 10  2  1  0
 11 10  2  0
 13 12  1  1
 13 14  1  0
 15 13  1  0
 16 15  1  6
 16 17  1  0
 17 10  1  0
 18 16  1  0
 19 18  2  0
 20 21  1  0
 21 23  1  0
 21 22  2  0
 23 24  1  0
 25 24  1  0
 26 25  1  0
 27 26  1  6
 27 28  1  0
 28 18  1  0
 29 31  1  0
 29 27  1  0
 30 29  2  0
M  END
$$$$
