FLR.pdb
     RDKit          3D

 31 31  0  0  1  0  0  0  0  0999 V2000
    8.5319  -16.1968   20.5211 N   0  0  0  0  0  0  0  0  0  0  0  0
    8.0878  -16.4825   21.8469 C   0  0  1  0  0  0  0  0  0  0  0  0
    8.4713  -17.9029   22.1949 C   0  0  0  0  0  0  0  0  0  0  0  0
    7.7136  -18.8415   21.3289 C   0  0  0  0  0  0  0  0  0  0  0  0
    7.0894  -18.3847   20.1904 C   0  0  0  0  0  0  0  0  0  0  0  0
    6.3896  -19.2662   19.3968 C   0  0  0  0  0  0  0  0  0  0  0  0
    6.3185  -20.6049   19.7486 C   0  0  0  0  0  0  0  0  0  0  0  0
    6.9547  -21.0374   20.8973 C   0  0  0  0  0  0  0  0  0  0  0  0
    7.6643  -20.1703   21.7115 C   0  0  0  0  0  0  0  0  0  0  0  0
    8.6624  -15.5629   22.8663 C   0  0  0  0  0  0  0  0  0  0  0  0
    9.7214  -14.9533   22.5764 O   0  0  0  0  0  0  0  0  0  0  0  0
    6.9132  -11.8834   25.0871 C   0  0  0  0  0  0  0  0  0  0  0  0
    6.4275  -13.2365   25.6392 C   0  0  2  0  0  0  0  0  0  0  0  0
    5.5451  -12.8455   26.8299 C   0  0  0  0  0  0  0  0  0  0  0  0
    7.6122  -13.9959   26.1452 C   0  0  0  0  0  0  0  0  0  0  0  0
    8.5746  -14.4824   25.1357 C   0  0  2  0  0  0  0  0  0  0  0  0
    8.0484  -15.3687   24.1305 N   0  0  0  0  0  0  0  0  0  0  0  0
    9.7573  -15.0746   25.8220 C   0  0  0  0  0  0  0  0  0  0  0  0
   10.3588  -14.4693   26.7405 O   0  0  0  0  0  0  0  0  0  0  0  0
   12.7442  -18.6740   30.6673 N   0  0  0  0  0  0  0  0  0  0  0  0
   11.7702  -19.6806   30.9073 C   0  0  0  0  0  0  0  0  0  0  0  0
   11.8792  -20.4636   31.9239 N   0  0  0  0  0  0  0  0  0  0  0  0
   10.6491  -19.8816   30.0752 N   0  0  0  0  0  0  0  0  0  0  0  0
   10.2209  -18.8518   29.1349 C   0  0  0  0  0  0  0  0  0  0  0  0
   11.2385  -18.5621   28.1081 C   0  0  0  0  0  0  0  0  0  0  0  0
   10.8955  -18.1207   26.7706 C   0  0  0  0  0  0  0  0  0  0  0  0
   11.4569  -16.9464   26.0918 C   0  0  2  0  0  0  0  0  0  0  0  0
   10.2197  -16.3378   25.4432 N   0  0  0  0  0  0  0  0  0  0  0  0
   12.3507  -17.1148   24.9598 C   0  0  0  0  0  0  0  0  0  0  0  0
   11.9799  -17.0076   23.7820 O   0  0  0  0  0  0  0  0  0  0  0  0
   13.7229  -17.4155   25.1098 O   0  0  0  0  0  0  0  0  0  0  0  0
  2  1  1  6
  3  2  1  0
  4  3  1  0
  4  5  2  0
  6  5  1  0
  7  6  2  0
  8  9  2  0
  8  7  1  0
  9  4  1  0
 10  2  1  0
 11 10  2  0
 13 12  1  1
 13 14  1  0
 15 13  1  0
 16 15  1  1
 16 17  1  0
 17 10  1  0
 18 16  1  0
 19 18  2  0
 20 21  1  0
 21 23  1  0
 21 22  2  0
 23 24  1  0
 25 24  1  0
 26 25  1  0
 27 26  1  6
 27 28  1  0
 28 18  1  0
 29 31  1  0
 29 27  1  0
 30 29  2  0
M  END
$$$$
