FLR.pdb
     RDKit          3D

 31 31  0  0  1  0  0  0  0  0999 V2000
    6.7039  -16.8760   26.5125 N   0  0  0  0  0  0  0  0  0  0  0  0
    7.5640  -15.9710   25.8213 C   0  0  1  0  0  0  0  0  0  0  0  0
    8.9934  -16.2487   26.2281 C   0  0  0  0  0  0  0  0  0  0  0  0
    9.5553  -15.0475   26.8962 C   0  0  0  0  0  0  0  0  0  0  0  0
    9.2759  -13.7898   26.4117 C   0  0  0  0  0  0  0  0  0  0  0  0
    9.8043  -12.6846   27.0410 C   0  0  0  0  0  0  0  0  0  0  0  0
   10.6121  -12.8452   28.1556 C   0  0  0  0  0  0  0  0  0  0  0  0
   10.8768  -14.1197   28.6216 C   0  0  0  0  0  0  0  0  0  0  0  0
   10.3573  -15.2464   28.0060 C   0  0  0  0  0  0  0  0  0  0  0  0
    7.4535  -16.0757   24.3408 C   0  0  0  0  0  0  0  0  0  0  0  0
    6.7611  -17.0109   23.8686 O   0  0  0  0  0  0  0  0  0  0  0  0
    8.7755  -12.7926   19.1994 C   0  0  0  0  0  0  0  0  0  0  0  0
    8.4316  -14.1730   19.7894 C   0  0  2  0  0  0  0  0  0  0  0  0
    7.0396  -14.4723   19.2217 C   0  0  0  0  0  0  0  0  0  0  0  0
    8.3288  -14.0421   21.2755 C   0  0  0  0  0  0  0  0  0  0  0  0
    8.0900  -15.2830   22.0404 C   0  0  2  0  0  0  0  0  0  0  0  0
    8.1025  -15.1583   23.4747 N   0  0  0  0  0  0  0  0  0  0  0  0
    9.0297  -16.3417   21.5752 C   0  0  0  0  0  0  0  0  0  0  0  0
    8.8463  -16.9612   20.5008 O   0  0  0  0  0  0  0  0  0  0  0  0
   16.0595  -14.2233   19.1343 N   0  0  0  0  0  0  0  0  0  0  0  0
   14.8726  -14.0441   18.3737 C   0  0  0  0  0  0  0  0  0  0  0  0
   14.8049  -13.1192   17.4800 N   0  0  0  0  0  0  0  0  0  0  0  0
   13.7238  -14.8458   18.5381 N   0  0  0  0  0  0  0  0  0  0  0  0
   13.7120  -15.9500   19.4914 C   0  0  0  0  0  0  0  0  0  0  0  0
   12.4282  -16.0686   20.2067 C   0  0  0  0  0  0  0  0  0  0  0  0
   12.2991  -16.7690   21.4694 C   0  0  0  0  0  0  0  0  0  0  0  0
   11.1900  -17.6561   21.8410 C   0  0  2  0  0  0  0  0  0  0  0  0
   10.1501  -16.6635   22.3460 N   0  0  0  0  0  0  0  0  0  0  0  0
   11.3261  -18.5637   22.9663 C   0  0  0  0  0  0  0  0  0  0  0  0
   10.7735  -18.3749   24.0596 O   0  0  0  0  0  0  0  0  0  0  0  0
   12.1029  -19.7422   22.9059 O   0  0  0  0  0  0  0  0  0  0  0  0
  2  1  1  1
  3  2  1  0
  4  3  1  0
  4  5  2  0
  6  5  1  0
  7  6  2  0
  8  9  2  0
  8  7  1  0
  9  4  1  0
 10  2  1  0
 11 10  2  0
 13 12  1  6
 13 14  1  0
 15 13  1  0
 16 15  1  6
 16 17  1  0
 17 10  1  0
 18 16  1  0
 19 18  2  0
 20 21  1  0
 21 23  1  0
 21 22  2  0
 23 24  1  0
 25 24  1  0
 26 25  1  0
 27 26  1  1
 27 28  1  0
 28 18  1  0
 29 31  1  0
 29 27  1  0
 30 29  2  0
M  END
$$$$
