FLR.pdb
     RDKit          3D

 31 31  0  0  1  0  0  0  0  0999 V2000
    8.6670  -19.2062   26.6187 N   0  0  0  0  0  0  0  0  0  0  0  0
    8.6386  -17.9036   27.2010 C   0  0  1  0  0  0  0  0  0  0  0  0
   10.0068  -17.2760   27.0605 C   0  0  0  0  0  0  0  0  0  0  0  0
   10.1417  -16.1693   28.0414 C   0  0  0  0  0  0  0  0  0  0  0  0
   10.1474  -16.4360   29.3917 C   0  0  0  0  0  0  0  0  0  0  0  0
   10.2726  -15.3998   30.2901 C   0  0  0  0  0  0  0  0  0  0  0  0
   10.3919  -14.0979   29.8302 C   0  0  0  0  0  0  0  0  0  0  0  0
   10.3834  -13.8578   28.4687 C   0  0  0  0  0  0  0  0  0  0  0  0
   10.2586  -14.8828   27.5456 C   0  0  0  0  0  0  0  0  0  0  0  0
    7.6286  -17.0065   26.5766 C   0  0  0  0  0  0  0  0  0  0  0  0
    6.8076  -16.4308   27.3327 O   0  0  0  0  0  0  0  0  0  0  0  0
    6.0775  -13.3160   25.3440 C   0  0  0  0  0  0  0  0  0  0  0  0
    7.2003  -13.7900   26.2854 C   0  0  2  0  0  0  0  0  0  0  0  0
    7.7502  -12.4874   26.8771 C   0  0  0  0  0  0  0  0  0  0  0  0
    8.2692  -14.4354   25.4626 C   0  0  0  0  0  0  0  0  0  0  0  0
    7.8492  -15.5241   24.5569 C   0  0  2  0  0  0  0  0  0  0  0  0
    7.5787  -16.7963   25.1743 N   0  0  0  0  0  0  0  0  0  0  0  0
    8.8338  -15.6536   23.4460 C   0  0  0  0  0  0  0  0  0  0  0  0
    9.2798  -14.6512   22.8392 O   0  0  0  0  0  0  0  0  0  0  0  0
    6.9758  -13.8723   18.0642 N   0  0  0  0  0  0  0  0  0  0  0  0
    8.0700  -13.0057   18.3308 C   0  0  0  0  0  0  0  0  0  0  0  0
    7.9247  -11.7287   18.2493 N   0  0  0  0  0  0  0  0  0  0  0  0
    9.3504  -13.4715   18.6960 N   0  0  0  0  0  0  0  0  0  0  0  0
    9.6688  -14.8945   18.6549 C   0  0  0  0  0  0  0  0  0  0  0  0
   10.2894  -15.3736   19.9036 C   0  0  0  0  0  0  0  0  0  0  0  0
    9.5690  -16.1670   20.8799 C   0  0  0  0  0  0  0  0  0  0  0  0
   10.1794  -17.0945   21.8402 C   0  0  2  0  0  0  0  0  0  0  0  0
    9.2819  -16.9195   23.0591 N   0  0  0  0  0  0  0  0  0  0  0  0
   11.4982  -16.8208   22.3830 C   0  0  0  0  0  0  0  0  0  0  0  0
   11.7120  -15.9463   23.2349 O   0  0  0  0  0  0  0  0  0  0  0  0
   12.6505  -17.5333   21.9825 O   0  0  0  0  0  0  0  0  0  0  0  0
  2  1  1  6
  3  2  1  0
  4  3  1  0
  4  5  2  0
  6  5  1  0
  7  6  2  0
  8  9  2  0
  8  7  1  0
  9  4  1  0
 10  2  1  0
 11 10  2  0
 13 12  1  6
 13 14  1  0
 15 13  1  0
 16 15  1  1
 16 17  1  0
 17 10  1  0
 18 16  1  0
 19 18  2  0
 20 21  1  0
 21 23  1  0
 21 22  2  0
 23 24  1  0
 25 24  1  0
 26 25  1  0
 27 26  1  6
 27 28  1  0
 28 18  1  0
 29 31  1  0
 29 27  1  0
 30 29  2  0
M  END
$$$$
