FLR.pdb
     RDKit          3D

 31 31  0  0  1  0  0  0  0  0999 V2000
   10.6536  -17.0611   21.5195 N   0  0  0  0  0  0  0  0  0  0  0  0
    9.8155  -15.9760   21.9154 C   0  0  1  0  0  0  0  0  0  0  0  0
    8.4497  -16.1621   21.2944 C   0  0  0  0  0  0  0  0  0  0  0  0
    7.9158  -14.8402   20.8788 C   0  0  0  0  0  0  0  0  0  0  0  0
    6.6725  -14.4296   21.3034 C   0  0  0  0  0  0  0  0  0  0  0  0
    6.1896  -13.2014   20.9097 C   0  0  0  0  0  0  0  0  0  0  0  0
    6.9568  -12.3883   20.0904 C   0  0  0  0  0  0  0  0  0  0  0  0
    8.2022  -12.8249   19.6786 C   0  0  0  0  0  0  0  0  0  0  0  0
    8.7095  -14.0557   20.0608 C   0  0  0  0  0  0  0  0  0  0  0  0
    9.6641  -15.8634   23.3917 C   0  0  0  0  0  0  0  0  0  0  0  0
   10.5689  -16.3510   24.1133 O   0  0  0  0  0  0  0  0  0  0  0  0
    8.2775  -11.8244   25.8250 C   0  0  0  0  0  0  0  0  0  0  0  0
    7.1924  -12.7236   25.2038 C   0  0  2  0  0  0  0  0  0  0  0  0
    5.8808  -12.0856   25.6748 C   0  0  0  0  0  0  0  0  0  0  0  0
    7.3071  -14.0891   25.8026 C   0  0  0  0  0  0  0  0  0  0  0  0
    8.4639  -14.9070   25.3841 C   0  0  2  0  0  0  0  0  0  0  0  0
    8.5409  -15.2298   23.9832 N   0  0  0  0  0  0  0  0  0  0  0  0
    8.5403  -16.1297   26.2322 C   0  0  0  0  0  0  0  0  0  0  0  0
    8.5139  -16.0673   27.4842 O   0  0  0  0  0  0  0  0  0  0  0  0
    6.4955  -23.7231   24.5041 N   0  0  0  0  0  0  0  0  0  0  0  0
    5.3909  -22.8390   24.3711 C   0  0  0  0  0  0  0  0  0  0  0  0
    4.3854  -23.1591   23.6327 N   0  0  0  0  0  0  0  0  0  0  0  0
    5.3210  -21.5900   25.0227 N   0  0  0  0  0  0  0  0  0  0  0  0
    6.4598  -21.0731   25.7738 C   0  0  0  0  0  0  0  0  0  0  0  0
    7.3626  -20.2545   24.9439 C   0  0  0  0  0  0  0  0  0  0  0  0
    8.6039  -19.7028   25.4503 C   0  0  0  0  0  0  0  0  0  0  0  0
    8.7152  -18.6550   26.4724 C   0  0  2  0  0  0  0  0  0  0  0  0
    8.6439  -17.3869   25.6307 N   0  0  0  0  0  0  0  0  0  0  0  0
    9.9580  -18.4749   27.2016 C   0  0  0  0  0  0  0  0  0  0  0  0
   10.8839  -17.7579   26.7956 O   0  0  0  0  0  0  0  0  0  0  0  0
   10.2137  -19.1051   28.4399 O   0  0  0  0  0  0  0  0  0  0  0  0
  2  1  1  1
  3  2  1  0
  4  3  1  0
  4  5  2  0
  6  5  1  0
  7  6  2  0
  8  9  2  0
  8  7  1  0
  9  4  1  0
 10  2  1  0
 11 10  2  0
 13 12  1  1
 13 14  1  0
 15 13  1  0
 16 15  1  6
 16 17  1  0
 17 10  1  0
 18 16  1  0
 19 18  2  0
 20 21  1  0
 21 23  1  0
 21 22  2  0
 23 24  1  0
 25 24  1  0
 26 25  1  0
 27 26  1  6
 27 28  1  0
 28 18  1  0
 29 31  1  0
 29 27  1  0
 30 29  2  0
M  END
$$$$
