FLR.pdb
     RDKit          3D

 31 31  0  0  1  0  0  0  0  0999 V2000
    7.7313  -16.9675   26.4857 N   0  0  0  0  0  0  0  0  0  0  0  0
    8.0303  -16.0074   25.4732 C   0  0  1  0  0  0  0  0  0  0  0  0
    9.4911  -15.6308   25.5734 C   0  0  0  0  0  0  0  0  0  0  0  0
    9.6994  -14.7918   26.7808 C   0  0  0  0  0  0  0  0  0  0  0  0
   10.3428  -15.3090   27.8823 C   0  0  0  0  0  0  0  0  0  0  0  0
   10.5286  -14.5198   28.9955 C   0  0  0  0  0  0  0  0  0  0  0  0
   10.0678  -13.2127   28.9998 C   0  0  0  0  0  0  0  0  0  0  0  0
    9.4250  -12.7181   27.8801 C   0  0  0  0  0  0  0  0  0  0  0  0
    9.2261  -13.4921   26.7489 C   0  0  0  0  0  0  0  0  0  0  0  0
    7.7520  -16.5030   24.0977 C   0  0  0  0  0  0  0  0  0  0  0  0
    7.4235  -17.7077   23.9632 O   0  0  0  0  0  0  0  0  0  0  0  0
    8.0173  -13.1191   21.9791 C   0  0  0  0  0  0  0  0  0  0  0  0
    7.9798  -13.8134   20.6049 C   0  0  2  0  0  0  0  0  0  0  0  0
    7.3234  -12.7721   19.6915 C   0  0  0  0  0  0  0  0  0  0  0  0
    7.0827  -15.0061   20.6998 C   0  0  0  0  0  0  0  0  0  0  0  0
    7.4904  -16.0760   21.6331 C   0  0  2  0  0  0  0  0  0  0  0  0
    7.8498  -15.6572   22.9628 N   0  0  0  0  0  0  0  0  0  0  0  0
    8.5662  -16.8964   21.0086 C   0  0  0  0  0  0  0  0  0  0  0  0
    8.4041  -17.4666   19.9038 O   0  0  0  0  0  0  0  0  0  0  0  0
    9.1541  -13.9857   17.6761 N   0  0  0  0  0  0  0  0  0  0  0  0
    9.2488  -14.9508   16.6372 C   0  0  0  0  0  0  0  0  0  0  0  0
    8.3800  -14.9724   15.6868 N   0  0  0  0  0  0  0  0  0  0  0  0
   10.2728  -15.9189   16.5761 N   0  0  0  0  0  0  0  0  0  0  0  0
   11.3754  -15.9031   17.5311 C   0  0  0  0  0  0  0  0  0  0  0  0
   11.2896  -16.9976   18.5153 C   0  0  0  0  0  0  0  0  0  0  0  0
   11.3387  -16.7679   19.9458 C   0  0  0  0  0  0  0  0  0  0  0  0
   10.9638  -17.7424   20.9776 C   0  0  2  0  0  0  0  0  0  0  0  0
    9.7942  -17.0432   21.6594 N   0  0  0  0  0  0  0  0  0  0  0  0
   11.8582  -18.0090   22.0901 C   0  0  0  0  0  0  0  0  0  0  0  0
   12.6387  -18.9716   22.1162 O   0  0  0  0  0  0  0  0  0  0  0  0
   11.9123  -17.1883   23.2387 O   0  0  0  0  0  0  0  0  0  0  0  0
  2  1  1  1
  3  2  1  0
  4  3  1  0
  4  5  2  0
  6  5  1  0
  7  6  2  0
  8  9  2  0
  8  7  1  0
  9  4  1  0
 10  2  1  0
 11 10  2  0
 13 12  1  1
 13 14  1  0
 15 13  1  0
 16 15  1  6
 16 17  1  0
 17 10  1  0
 18 16  1  0
 19 18  2  0
 20 21  1  0
 21 23  1  0
 21 22  2  0
 23 24  1  0
 25 24  1  0
 26 25  1  0
 27 26  1  6
 27 28  1  0
 28 18  1  0
 29 31  1  0
 29 27  1  0
 30 29  2  0
M  END
$$$$
