FLR.pdb
     RDKit          3D

 31 31  0  0  1  0  0  0  0  0999 V2000
    6.0546  -17.8573   25.4678 N   0  0  0  0  0  0  0  0  0  0  0  0
    6.5271  -16.5435   25.1724 C   0  0  1  0  0  0  0  0  0  0  0  0
    7.5631  -16.1541   26.2024 C   0  0  0  0  0  0  0  0  0  0  0  0
    7.6303  -14.6736   26.2949 C   0  0  0  0  0  0  0  0  0  0  0  0
    8.8471  -14.0402   26.4084 C   0  0  0  0  0  0  0  0  0  0  0  0
    8.8945  -12.6665   26.4938 C   0  0  0  0  0  0  0  0  0  0  0  0
    7.7194  -11.9320   26.4650 C   0  0  0  0  0  0  0  0  0  0  0  0
    6.5108  -12.5933   26.3502 C   0  0  0  0  0  0  0  0  0  0  0  0
    6.4372  -13.9736   26.2628 C   0  0  0  0  0  0  0  0  0  0  0  0
    7.1278  -16.4301   23.8155 C   0  0  0  0  0  0  0  0  0  0  0  0
    7.4610  -17.4904   23.2307 O   0  0  0  0  0  0  0  0  0  0  0  0
    8.4374  -11.9940   19.5877 C   0  0  0  0  0  0  0  0  0  0  0  0
    8.1907  -13.4902   19.8565 C   0  0  2  0  0  0  0  0  0  0  0  0
    7.0006  -13.8287   18.9519 C   0  0  0  0  0  0  0  0  0  0  0  0
    7.7742  -13.6540   21.2834 C   0  0  0  0  0  0  0  0  0  0  0  0
    7.7124  -15.0338   21.8070 C   0  0  2  0  0  0  0  0  0  0  0  0
    7.3260  -15.1737   23.1869 N   0  0  0  0  0  0  0  0  0  0  0  0
    8.9998  -15.7296   21.5263 C   0  0  0  0  0  0  0  0  0  0  0  0
    9.3061  -16.1104   20.3717 O   0  0  0  0  0  0  0  0  0  0  0  0
   16.0614  -14.2566   18.4036 N   0  0  0  0  0  0  0  0  0  0  0  0
   14.7256  -14.6219   18.0848 C   0  0  0  0  0  0  0  0  0  0  0  0
   14.4920  -15.5556   17.2291 N   0  0  0  0  0  0  0  0  0  0  0  0
   13.5985  -14.0079   18.6697 N   0  0  0  0  0  0  0  0  0  0  0  0
   13.4900  -13.8675   20.1177 C   0  0  0  0  0  0  0  0  0  0  0  0
   13.0405  -15.1078   20.7761 C   0  0  0  0  0  0  0  0  0  0  0  0
   11.8597  -15.1633   21.6154 C   0  0  0  0  0  0  0  0  0  0  0  0
   11.3434  -16.3664   22.2795 C   0  0  2  0  0  0  0  0  0  0  0  0
    9.9004  -15.9708   22.5674 N   0  0  0  0  0  0  0  0  0  0  0  0
   11.8316  -16.7412   23.5947 C   0  0  0  0  0  0  0  0  0  0  0  0
   12.6886  -17.6185   23.7745 O   0  0  0  0  0  0  0  0  0  0  0  0
   11.3677  -16.1329   24.7823 O   0  0  0  0  0  0  0  0  0  0  0  0
  2  1  1  1
  3  2  1  0
  4  3  1  0
  4  5  2  0
  6  5  1  0
  7  6  2  0
  8  9  2  0
  8  7  1  0
  9  4  1  0
 10  2  1  0
 11 10  2  0
 13 12  1  1
 13 14  1  0
 15 13  1  0
 16 15  1  1
 16 17  1  0
 17 10  1  0
 18 16  1  0
 19 18  2  0
 20 21  1  0
 21 23  1  0
 21 22  2  0
 23 24  1  0
 25 24  1  0
 26 25  1  0
 27 26  1  1
 27 28  1  0
 28 18  1  0
 29 31  1  0
 29 27  1  0
 30 29  2  0
M  END
$$$$
