FLR.pdb
     RDKit          3D

 31 31  0  0  1  0  0  0  0  0999 V2000
    8.6599  -14.9832   20.0637 N   0  0  0  0  0  0  0  0  0  0  0  0
    7.6686  -15.5378   20.9276 C   0  0  1  0  0  0  0  0  0  0  0  0
    7.4374  -16.9814   20.5424 C   0  0  0  0  0  0  0  0  0  0  0  0
    6.2948  -17.5203   21.3229 C   0  0  0  0  0  0  0  0  0  0  0  0
    6.5199  -18.2565   22.4639 C   0  0  0  0  0  0  0  0  0  0  0  0
    5.4508  -18.7506   23.1776 C   0  0  0  0  0  0  0  0  0  0  0  0
    4.1578  -18.5041   22.7436 C   0  0  0  0  0  0  0  0  0  0  0  0
    3.9598  -17.7616   21.5943 C   0  0  0  0  0  0  0  0  0  0  0  0
    5.0185  -17.2542   20.8594 C   0  0  0  0  0  0  0  0  0  0  0  0
    8.0462  -15.4756   22.3658 C   0  0  0  0  0  0  0  0  0  0  0  0
    9.1805  -15.9033   22.6938 O   0  0  0  0  0  0  0  0  0  0  0  0
    8.1508  -12.1738   26.1749 C   0  0  0  0  0  0  0  0  0  0  0  0
    6.8208  -12.5347   25.4875 C   0  0  2  0  0  0  0  0  0  0  0  0
    5.7649  -11.8442   26.3579 C   0  0  0  0  0  0  0  0  0  0  0  0
    6.6266  -14.0148   25.5763 C   0  0  0  0  0  0  0  0  0  0  0  0
    7.5108  -14.8556   24.7437 C   0  0  2  0  0  0  0  0  0  0  0  0
    7.1665  -14.9540   23.3492 N   0  0  0  0  0  0  0  0  0  0  0  0
    7.6498  -16.2010   25.3690 C   0  0  0  0  0  0  0  0  0  0  0  0
    6.6570  -16.9376   25.5775 O   0  0  0  0  0  0  0  0  0  0  0  0
   12.5607  -21.6080   22.9682 N   0  0  0  0  0  0  0  0  0  0  0  0
   11.8565  -22.6219   23.6723 C   0  0  0  0  0  0  0  0  0  0  0  0
   12.2153  -23.8547   23.5710 N   0  0  0  0  0  0  0  0  0  0  0  0
   10.7523  -22.3544   24.5081 N   0  0  0  0  0  0  0  0  0  0  0  0
    9.9591  -21.1424   24.3350 C   0  0  0  0  0  0  0  0  0  0  0  0
   10.4717  -20.0104   25.1284 C   0  0  0  0  0  0  0  0  0  0  0  0
    9.8503  -18.7007   25.1135 C   0  0  0  0  0  0  0  0  0  0  0  0
    9.1093  -18.0976   26.2281 C   0  0  2  0  0  0  0  0  0  0  0  0
    8.9142  -16.6681   25.7379 N   0  0  0  0  0  0  0  0  0  0  0  0
    9.7558  -17.9004   27.5133 C   0  0  0  0  0  0  0  0  0  0  0  0
   10.3694  -16.8654   27.8113 O   0  0  0  0  0  0  0  0  0  0  0  0
    9.7373  -18.8768   28.5341 O   0  0  0  0  0  0  0  0  0  0  0  0
  2  1  1  6
  3  2  1  0
  4  3  1  0
  4  5  2  0
  6  5  1  0
  7  6  2  0
  8  9  2  0
  8  7  1  0
  9  4  1  0
 10  2  1  0
 11 10  2  0
 13 12  1  1
 13 14  1  0
 15 13  1  0
 16 15  1  1
 16 17  1  0
 17 10  1  0
 18 16  1  0
 19 18  2  0
 20 21  1  0
 21 23  1  0
 21 22  2  0
 23 24  1  0
 25 24  1  0
 26 25  1  0
 27 26  1  6
 27 28  1  0
 28 18  1  0
 29 31  1  0
 29 27  1  0
 30 29  2  0
M  END
$$$$
