EDK.pdb
     RDKit          3D

 27 26  0  0  1  0  0  0  0  0999 V2000
   21.8292  -12.1423  -16.8673 N   0  0  0  0  0  0  0  0  0  0  0  0
   21.2287  -11.0055  -17.4715 C   0  0  1  0  0  0  0  0  0  0  0  0
   20.0561  -11.3823  -18.3234 C   0  0  0  0  0  0  0  0  0  0  0  0
   20.4059  -12.2346  -19.4702 C   0  0  0  0  0  0  0  0  0  0  0  0
   20.1066  -11.7078  -20.8073 C   0  0  0  0  0  0  0  0  0  0  0  0
   18.9754  -11.3731  -21.1805 O   0  0  0  0  0  0  0  0  0  0  0  0
   20.7645  -10.0268  -16.4213 C   0  0  0  0  0  0  0  0  0  0  0  0
   19.8054  -10.3768  -15.7188 O   0  0  0  0  0  0  0  0  0  0  0  0
   21.1552  -11.5647  -21.7424 O   0  0  0  0  0  0  0  0  0  0  0  0
   21.4117   -8.8087  -16.2883 N   0  0  0  0  0  0  0  0  0  0  0  0
   21.1883   -7.7770  -15.3310 C   0  0  1  0  0  0  0  0  0  0  0  0
   22.4225   -7.3877  -14.5709 C   0  0  0  0  0  0  0  0  0  0  0  0
   22.0306   -6.4180  -13.5150 C   0  0  0  0  0  0  0  0  0  0  0  0
   22.5227   -5.2474  -13.4164 O   0  0  0  0  0  0  0  0  0  0  0  0
   20.3496   -6.7282  -15.8394 C   0  0  0  0  0  0  0  0  0  0  0  0
   20.6857   -6.1813  -16.9472 O   0  0  0  0  0  0  0  0  0  0  0  0
   21.0784   -6.7508  -12.5534 O   0  0  0  0  0  0  0  0  0  0  0  0
   19.1681   -6.2296  -15.2283 N   0  0  0  0  0  0  0  0  0  0  0  0
   18.3562   -5.2396  -15.9136 C   0  0  1  0  0  0  0  0  0  0  0  0
   16.9032   -5.3779  -15.5707 C   0  0  0  0  0  0  0  0  0  0  0  0
   15.9824   -4.4573  -16.2940 C   0  0  0  0  0  0  0  0  0  0  0  0
   14.5671   -4.7316  -15.8915 C   0  0  0  0  0  0  0  0  0  0  0  0
   13.6584   -3.8723  -16.7518 C   0  0  0  0  0  0  0  0  0  0  0  0
   12.2941   -4.2171  -16.4029 N   0  0  0  0  0  0  0  0  0  0  0  0
   18.8882   -3.8894  -15.6303 C   0  0  0  0  0  0  0  0  0  0  0  0
   19.4753   -3.6774  -14.5422 O   0  0  0  0  0  0  0  0  0  0  0  0
   18.7818   -2.8157  -16.5024 O   0  0  0  0  0  0  0  0  0  0  0  0
  2  7  1  0
  2  1  1  1
  3  2  1  0
  4  5  1  0
  4  3  1  0
  5  6  2  0
  7 10  1  0
  8  7  2  0
  9  5  1  0
 10 11  1  0
 11 12  1  6
 13 14  2  0
 13 12  1  0
 15 16  2  0
 15 11  1  0
 17 13  1  0
 18 15  1  0
 19 18  1  0
 20 21  1  0
 19 20  1  1
 21 22  1  0
 23 24  1  0
 23 22  1  0
 25 19  1  0
 25 27  1  0
 26 25  2  0
M  END
$$$$
