EDK.pdb
     RDKit          3D

 27 26  0  0  1  0  0  0  0  0999 V2000
   21.4406   -9.6322  -15.3379 N   0  0  0  0  0  0  0  0  0  0  0  0
   20.1743   -9.0180  -15.1447 C   0  0  1  0  0  0  0  0  0  0  0  0
   19.0483   -9.9716  -15.4010 C   0  0  0  0  0  0  0  0  0  0  0  0
   18.7457  -10.1618  -16.8279 C   0  0  0  0  0  0  0  0  0  0  0  0
   17.6166  -11.0398  -17.1580 C   0  0  0  0  0  0  0  0  0  0  0  0
   17.2486  -11.2869  -18.3131 O   0  0  0  0  0  0  0  0  0  0  0  0
   20.0467   -8.4918  -13.7364 C   0  0  0  0  0  0  0  0  0  0  0  0
   20.2760   -9.2933  -12.8194 O   0  0  0  0  0  0  0  0  0  0  0  0
   16.8904  -11.6514  -16.1125 O   0  0  0  0  0  0  0  0  0  0  0  0
   19.6879   -7.1692  -13.5307 N   0  0  0  0  0  0  0  0  0  0  0  0
   19.5992   -6.4467  -12.3056 C   0  0  1  0  0  0  0  0  0  0  0  0
   20.4360   -5.2010  -12.2831 C   0  0  0  0  0  0  0  0  0  0  0  0
   21.8634   -5.5988  -12.3978 C   0  0  0  0  0  0  0  0  0  0  0  0
   22.6483   -5.1536  -13.2967 O   0  0  0  0  0  0  0  0  0  0  0  0
   18.2530   -6.3648  -11.8125 C   0  0  0  0  0  0  0  0  0  0  0  0
   17.3899   -5.7560  -12.5360 O   0  0  0  0  0  0  0  0  0  0  0  0
   22.4298   -6.5041  -11.5025 O   0  0  0  0  0  0  0  0  0  0  0  0
   17.7763   -6.8989  -10.5856 N   0  0  0  0  0  0  0  0  0  0  0  0
   16.4005   -6.6735  -10.1792 C   0  0  1  0  0  0  0  0  0  0  0  0
   15.7505   -7.9339   -9.6926 C   0  0  0  0  0  0  0  0  0  0  0  0
   14.3156   -7.8110   -9.3127 C   0  0  0  0  0  0  0  0  0  0  0  0
   13.8027   -9.1296   -8.8240 C   0  0  0  0  0  0  0  0  0  0  0  0
   12.3227   -8.9763   -8.5230 C   0  0  0  0  0  0  0  0  0  0  0  0
   11.8439  -10.2713   -8.0808 N   0  0  0  0  0  0  0  0  0  0  0  0
   16.3571   -5.5821   -9.1826 C   0  0  0  0  0  0  0  0  0  0  0  0
   17.3406   -5.4045   -8.4243 O   0  0  0  0  0  0  0  0  0  0  0  0
   15.2814   -4.7207   -9.0228 O   0  0  0  0  0  0  0  0  0  0  0  0
  2  7  1  0
  2  1  1  1
  3  2  1  0
  4  5  1  0
  4  3  1  0
  5  6  2  0
  7 10  1  0
  8  7  2  0
  9  5  1  0
 10 11  1  0
 11 12  1  6
 13 14  2  0
 13 12  1  0
 15 16  2  0
 15 11  1  0
 17 13  1  0
 18 15  1  0
 19 18  1  0
 20 21  1  0
 19 20  1  1
 21 22  1  0
 23 24  1  0
 23 22  1  0
 25 19  1  0
 25 27  1  0
 26 25  2  0
M  END
$$$$
