EDK.pdb
     RDKit          3D

 27 26  0  0  1  0  0  0  0  0999 V2000
   20.0833  -20.0059  -11.3912 N   0  0  0  0  0  0  0  0  0  0  0  0
   21.1507  -20.4314  -12.2265 C   0  0  1  0  0  0  0  0  0  0  0  0
   21.4414  -21.8908  -12.0580 C   0  0  0  0  0  0  0  0  0  0  0  0
   20.6488  -22.5348  -10.9992 C   0  0  0  0  0  0  0  0  0  0  0  0
   19.2251  -22.7605  -11.2769 C   0  0  0  0  0  0  0  0  0  0  0  0
   18.3794  -22.9919  -10.4040 O   0  0  0  0  0  0  0  0  0  0  0  0
   20.8284  -20.1705  -13.6772 C   0  0  0  0  0  0  0  0  0  0  0  0
   21.7186  -20.4268  -14.5004 O   0  0  0  0  0  0  0  0  0  0  0  0
   18.7679  -22.7161  -12.6123 O   0  0  0  0  0  0  0  0  0  0  0  0
   19.5836  -19.6682  -14.0213 N   0  0  0  0  0  0  0  0  0  0  0  0
   19.0725  -19.3524  -15.3136 C   0  0  1  0  0  0  0  0  0  0  0  0
   17.6086  -19.6456  -15.4667 C   0  0  0  0  0  0  0  0  0  0  0  0
   17.2471  -19.4680  -16.8973 C   0  0  0  0  0  0  0  0  0  0  0  0
   17.8710  -20.0282  -17.8560 O   0  0  0  0  0  0  0  0  0  0  0  0
   19.5650  -18.0971  -15.8072 C   0  0  0  0  0  0  0  0  0  0  0  0
   19.7413  -17.1525  -14.9612 O   0  0  0  0  0  0  0  0  0  0  0  0
   16.1774  -18.6568  -17.2713 O   0  0  0  0  0  0  0  0  0  0  0  0
   19.8805  -17.7939  -17.1587 N   0  0  0  0  0  0  0  0  0  0  0  0
   20.5075  -16.5276  -17.4934 C   0  0  1  0  0  0  0  0  0  0  0  0
   21.7087  -16.7162  -18.3706 C   0  0  0  0  0  0  0  0  0  0  0  0
   22.4583  -15.4743  -18.7085 C   0  0  0  0  0  0  0  0  0  0  0  0
   23.6513  -15.8111  -19.5476 C   0  0  0  0  0  0  0  0  0  0  0  0
   24.3633  -14.5160  -19.8943 C   0  0  0  0  0  0  0  0  0  0  0  0
   25.6217  -14.8778  -20.5165 N   0  0  0  0  0  0  0  0  0  0  0  0
   19.4987  -15.6235  -18.0859 C   0  0  0  0  0  0  0  0  0  0  0  0
   18.6209  -16.0982  -18.8461 O   0  0  0  0  0  0  0  0  0  0  0  0
   19.4529  -14.2562  -17.8559 O   0  0  0  0  0  0  0  0  0  0  0  0
  2  7  1  0
  2  1  1  1
  3  2  1  0
  4  5  1  0
  4  3  1  0
  5  6  2  0
  7 10  1  0
  8  7  2  0
  9  5  1  0
 10 11  1  0
 11 12  1  1
 13 14  2  0
 13 12  1  0
 15 16  2  0
 15 11  1  0
 17 13  1  0
 18 15  1  0
 19 18  1  0
 20 21  1  0
 19 20  1  6
 21 22  1  0
 23 24  1  0
 23 22  1  0
 25 19  1  0
 25 27  1  0
 26 25  2  0
M  END
$$$$
