EDK.pdb
     RDKit          3D

 27 26  0  0  1  0  0  0  0  0999 V2000
   24.9064  -17.4663  -20.8138 N   0  0  0  0  0  0  0  0  0  0  0  0
   25.6395  -17.4668  -19.5969 C   0  0  1  0  0  0  0  0  0  0  0  0
   25.5013  -16.1685  -18.8635 C   0  0  0  0  0  0  0  0  0  0  0  0
   24.2419  -15.4613  -19.1421 C   0  0  0  0  0  0  0  0  0  0  0  0
   24.0399  -14.1713  -18.4714 C   0  0  0  0  0  0  0  0  0  0  0  0
   24.2326  -13.0747  -19.0109 O   0  0  0  0  0  0  0  0  0  0  0  0
   25.1713  -18.5809  -18.6935 C   0  0  0  0  0  0  0  0  0  0  0  0
   24.2393  -19.2826  -19.1116 O   0  0  0  0  0  0  0  0  0  0  0  0
   23.5997  -14.1535  -17.1296 O   0  0  0  0  0  0  0  0  0  0  0  0
   25.7858  -18.7693  -17.4658 N   0  0  0  0  0  0  0  0  0  0  0  0
   25.5452  -19.7807  -16.4911 C   0  0  1  0  0  0  0  0  0  0  0  0
   26.8005  -20.3674  -15.9144 C   0  0  0  0  0  0  0  0  0  0  0  0
   26.5327  -21.7880  -15.5694 C   0  0  0  0  0  0  0  0  0  0  0  0
   26.4638  -22.2211  -14.3736 O   0  0  0  0  0  0  0  0  0  0  0  0
   24.4859  -19.4311  -15.5868 C   0  0  0  0  0  0  0  0  0  0  0  0
   24.8120  -18.9941  -14.4284 O   0  0  0  0  0  0  0  0  0  0  0  0
   26.3382  -22.7435  -16.5651 O   0  0  0  0  0  0  0  0  0  0  0  0
   23.0934  -19.5227  -15.8521 N   0  0  0  0  0  0  0  0  0  0  0  0
   22.2146  -20.1885  -14.9071 C   0  0  1  0  0  0  0  0  0  0  0  0
   21.7235  -21.5030  -15.4350 C   0  0  0  0  0  0  0  0  0  0  0  0
   20.8747  -22.2935  -14.5006 C   0  0  0  0  0  0  0  0  0  0  0  0
   19.4935  -22.4330  -15.0604 C   0  0  0  0  0  0  0  0  0  0  0  0
   18.6945  -23.3225  -14.1250 C   0  0  0  0  0  0  0  0  0  0  0  0
   17.3360  -23.3564  -14.6302 N   0  0  0  0  0  0  0  0  0  0  0  0
   22.9015  -20.3125  -13.6037 C   0  0  0  0  0  0  0  0  0  0  0  0
   24.0149  -20.8880  -13.5495 O   0  0  0  0  0  0  0  0  0  0  0  0
   22.3907  -19.8266  -12.4089 O   0  0  0  0  0  0  0  0  0  0  0  0
  2  7  1  0
  2  1  1  6
  3  2  1  0
  4  5  1  0
  4  3  1  0
  5  6  2  0
  7 10  1  0
  8  7  2  0
  9  5  1  0
 10 11  1  0
 11 12  1  1
 13 14  2  0
 13 12  1  0
 15 16  2  0
 15 11  1  0
 17 13  1  0
 18 15  1  0
 19 18  1  0
 20 21  1  0
 19 20  1  6
 21 22  1  0
 23 24  1  0
 23 22  1  0
 25 19  1  0
 25 27  1  0
 26 25  2  0
M  END
$$$$
