EDK.pdb
     RDKit          3D

 27 26  0  0  1  0  0  0  0  0999 V2000
   25.8517  -21.1332  -12.9640 N   0  0  0  0  0  0  0  0  0  0  0  0
   24.9140  -20.6729  -13.9269 C   0  0  1  0  0  0  0  0  0  0  0  0
   25.0542  -21.3967  -15.2304 C   0  0  0  0  0  0  0  0  0  0  0  0
   25.4144  -22.8155  -15.0850 C   0  0  0  0  0  0  0  0  0  0  0  0
   24.4411  -23.8026  -15.5680 C   0  0  0  0  0  0  0  0  0  0  0  0
   24.2611  -24.9087  -15.0438 O   0  0  0  0  0  0  0  0  0  0  0  0
   23.5027  -20.8554  -13.4257 C   0  0  0  0  0  0  0  0  0  0  0  0
   23.3642  -21.4881  -12.3691 O   0  0  0  0  0  0  0  0  0  0  0  0
   23.6506  -23.4956  -16.6973 O   0  0  0  0  0  0  0  0  0  0  0  0
   22.4467  -20.3225  -14.1476 N   0  0  0  0  0  0  0  0  0  0  0  0
   21.0565  -20.3270  -13.8343 C   0  0  1  0  0  0  0  0  0  0  0  0
   20.2936  -19.2071  -14.4794 C   0  0  0  0  0  0  0  0  0  0  0  0
   18.8976  -19.2431  -13.9705 C   0  0  0  0  0  0  0  0  0  0  0  0
   18.6000  -19.2635  -12.7322 O   0  0  0  0  0  0  0  0  0  0  0  0
   20.4877  -21.6448  -13.8784 C   0  0  0  0  0  0  0  0  0  0  0  0
   20.6105  -22.3100  -14.9654 O   0  0  0  0  0  0  0  0  0  0  0  0
   17.8147  -19.2566  -14.8474 O   0  0  0  0  0  0  0  0  0  0  0  0
   19.7929  -22.2933  -12.8227 N   0  0  0  0  0  0  0  0  0  0  0  0
   19.3287  -23.6592  -12.9878 C   0  0  1  0  0  0  0  0  0  0  0  0
   19.2856  -24.3940  -11.6816 C   0  0  0  0  0  0  0  0  0  0  0  0
   18.8616  -25.8196  -11.7605 C   0  0  0  0  0  0  0  0  0  0  0  0
   18.8279  -26.4183  -10.3890 C   0  0  0  0  0  0  0  0  0  0  0  0
   18.5259  -27.8993  -10.5295 C   0  0  0  0  0  0  0  0  0  0  0  0
   18.4890  -28.4531   -9.1902 N   0  0  0  0  0  0  0  0  0  0  0  0
   18.0259  -23.6522  -13.6870 C   0  0  0  0  0  0  0  0  0  0  0  0
   17.2162  -22.7198  -13.4660 O   0  0  0  0  0  0  0  0  0  0  0  0
   17.6259  -24.6256  -14.5909 O   0  0  0  0  0  0  0  0  0  0  0  0
  2  7  1  0
  2  1  1  1
  3  2  1  0
  4  5  1  0
  4  3  1  0
  5  6  2  0
  7 10  1  0
  8  7  2  0
  9  5  1  0
 10 11  1  0
 11 12  1  6
 13 14  2  0
 13 12  1  0
 15 16  2  0
 15 11  1  0
 17 13  1  0
 18 15  1  0
 19 18  1  0
 20 21  1  0
 19 20  1  1
 21 22  1  0
 23 24  1  0
 23 22  1  0
 25 19  1  0
 25 27  1  0
 26 25  2  0
M  END
$$$$
