EDK.pdb
     RDKit          3D

 27 26  0  0  1  0  0  0  0  0999 V2000
   17.7947  -12.1048  -14.5127 N   0  0  0  0  0  0  0  0  0  0  0  0
   16.7587  -11.1335  -14.4755 C   0  0  1  0  0  0  0  0  0  0  0  0
   15.4307  -11.7483  -14.1569 C   0  0  0  0  0  0  0  0  0  0  0  0
   14.9633  -12.7074  -15.1696 C   0  0  0  0  0  0  0  0  0  0  0  0
   13.6322  -13.2928  -14.9682 C   0  0  0  0  0  0  0  0  0  0  0  0
   13.0978  -14.0811  -15.7579 O   0  0  0  0  0  0  0  0  0  0  0  0
   17.0578  -10.0749  -13.4429 C   0  0  0  0  0  0  0  0  0  0  0  0
   17.2703  -10.4685  -12.2871 O   0  0  0  0  0  0  0  0  0  0  0  0
   12.8970  -12.9516  -13.8117 O   0  0  0  0  0  0  0  0  0  0  0  0
   17.0821   -8.7412  -13.8184 N   0  0  0  0  0  0  0  0  0  0  0  0
   17.3652   -7.5931  -13.0231 C   0  0  1  0  0  0  0  0  0  0  0  0
   18.1490   -6.5396  -13.7499 C   0  0  0  0  0  0  0  0  0  0  0  0
   19.5095   -7.0750  -14.0169 C   0  0  0  0  0  0  0  0  0  0  0  0
   20.2723   -7.5429  -13.1106 O   0  0  0  0  0  0  0  0  0  0  0  0
   16.2362   -7.1751  -12.2404 C   0  0  0  0  0  0  0  0  0  0  0  0
   15.1960   -6.7678  -12.8661 O   0  0  0  0  0  0  0  0  0  0  0  0
   20.0327   -7.0922  -15.3085 O   0  0  0  0  0  0  0  0  0  0  0  0
   16.1563   -7.1680  -10.8221 N   0  0  0  0  0  0  0  0  0  0  0  0
   14.9618   -6.6710  -10.1628 C   0  0  1  0  0  0  0  0  0  0  0  0
   14.3797   -7.6870   -9.2263 C   0  0  0  0  0  0  0  0  0  0  0  0
   13.1417   -7.2672   -8.5125 C   0  0  0  0  0  0  0  0  0  0  0  0
   12.7309   -8.3265   -7.5380 C   0  0  0  0  0  0  0  0  0  0  0  0
   11.4835   -7.8458   -6.8188 C   0  0  0  0  0  0  0  0  0  0  0  0
   11.1843   -8.8228   -5.7903 N   0  0  0  0  0  0  0  0  0  0  0  0
   15.2681   -5.3858   -9.4990 C   0  0  0  0  0  0  0  0  0  0  0  0
   14.3315   -4.7097   -9.0097 O   0  0  0  0  0  0  0  0  0  0  0  0
   16.5469   -4.8623   -9.3759 O   0  0  0  0  0  0  0  0  0  0  0  0
  2  7  1  0
  2  1  1  1
  3  2  1  0
  4  5  1  0
  4  3  1  0
  5  6  2  0
  7 10  1  0
  8  7  2  0
  9  5  1  0
 10 11  1  0
 11 12  1  6
 13 14  2  0
 13 12  1  0
 15 16  2  0
 15 11  1  0
 17 13  1  0
 18 15  1  0
 19 18  1  0
 20 21  1  0
 19 20  1  1
 21 22  1  0
 23 24  1  0
 23 22  1  0
 25 19  1  0
 25 27  1  0
 26 25  2  0
M  END
$$$$
