EDK.pdb
     RDKit          3D

 27 26  0  0  1  0  0  0  0  0999 V2000
   25.8650  -18.7685  -16.3774 N   0  0  0  0  0  0  0  0  0  0  0  0
   25.3870  -19.7938  -15.5181 C   0  0  1  0  0  0  0  0  0  0  0  0
   26.4158  -20.1976  -14.5075 C   0  0  0  0  0  0  0  0  0  0  0  0
   27.5909  -20.8629  -15.0911 C   0  0  0  0  0  0  0  0  0  0  0  0
   27.3545  -22.1178  -15.8152 C   0  0  0  0  0  0  0  0  0  0  0  0
   26.2430  -22.6482  -15.9332 O   0  0  0  0  0  0  0  0  0  0  0  0
   24.1473  -19.3412  -14.7869 C   0  0  0  0  0  0  0  0  0  0  0  0
   24.2616  -18.3424  -14.0622 O   0  0  0  0  0  0  0  0  0  0  0  0
   28.4447  -22.7789  -16.4226 O   0  0  0  0  0  0  0  0  0  0  0  0
   22.9630  -20.0418  -14.9506 N   0  0  0  0  0  0  0  0  0  0  0  0
   21.6673  -19.7400  -14.4398 C   0  0  1  0  0  0  0  0  0  0  0  0
   20.9062  -18.7568  -15.2803 C   0  0  0  0  0  0  0  0  0  0  0  0
   19.7326  -18.2882  -14.4980 C   0  0  0  0  0  0  0  0  0  0  0  0
   19.5695  -18.5329  -13.2587 O   0  0  0  0  0  0  0  0  0  0  0  0
   20.9748  -20.9085  -13.9737 C   0  0  0  0  0  0  0  0  0  0  0  0
   21.0150  -21.9567  -14.7077 O   0  0  0  0  0  0  0  0  0  0  0  0
   18.7242  -17.5367  -15.0984 O   0  0  0  0  0  0  0  0  0  0  0  0
   20.2393  -21.0196  -12.7636 N   0  0  0  0  0  0  0  0  0  0  0  0
   19.6596  -22.2940  -12.3784 C   0  0  1  0  0  0  0  0  0  0  0  0
   19.4856  -22.4000  -10.8930 C   0  0  0  0  0  0  0  0  0  0  0  0
   18.9325  -23.6927  -10.4019 C   0  0  0  0  0  0  0  0  0  0  0  0
   18.8449  -23.6752   -8.9077 C   0  0  0  0  0  0  0  0  0  0  0  0
   18.2075  -24.9776   -8.4585 C   0  0  0  0  0  0  0  0  0  0  0  0
   18.2852  -25.0103   -7.0112 N   0  0  0  0  0  0  0  0  0  0  0  0
   18.3985  -22.5026  -13.1216 C   0  0  0  0  0  0  0  0  0  0  0  0
   17.6685  -21.5156  -13.3802 O   0  0  0  0  0  0  0  0  0  0  0  0
   17.9548  -23.7406  -13.5634 O   0  0  0  0  0  0  0  0  0  0  0  0
  2  7  1  0
  2  1  1  1
  3  2  1  0
  4  5  1  0
  4  3  1  0
  5  6  2  0
  7 10  1  0
  8  7  2  0
  9  5  1  0
 10 11  1  0
 11 12  1  6
 13 14  2  0
 13 12  1  0
 15 16  2  0
 15 11  1  0
 17 13  1  0
 18 15  1  0
 19 18  1  0
 20 21  1  0
 19 20  1  1
 21 22  1  0
 23 24  1  0
 23 22  1  0
 25 19  1  0
 25 27  1  0
 26 25  2  0
M  END
$$$$
