KSE.pdb
     RDKit          3D

 25 24  0  0  1  0  0  0  0  0999 V2000
   10.3506  -18.0314   18.3234 N   0  0  0  0  0  0  0  0  0  0  0  0
   11.3917  -18.6440   19.1953 C   0  0  1  0  0  0  0  0  0  0  0  0
   12.4567  -19.0972   18.2061 C   0  0  0  0  0  0  0  0  0  0  0  0
   12.4001  -20.5340   17.8454 C   0  0  0  0  0  0  0  0  0  0  0  0
   13.4334  -21.0185   16.8773 C   0  0  0  0  0  0  0  0  0  0  0  0
   13.4238  -22.4717   16.5510 C   0  0  0  0  0  0  0  0  0  0  0  0
   14.4620  -22.9078   15.6466 N   0  0  0  0  0  0  0  0  0  0  0  0
   11.9902  -17.5366   20.0202 C   0  0  0  0  0  0  0  0  0  0  0  0
   12.3853  -16.5176   19.4216 O   0  0  0  0  0  0  0  0  0  0  0  0
   11.6569  -17.6922   24.0473 O   0  0  0  0  0  0  0  0  0  0  0  0
   11.7365  -16.4094   23.4665 C   0  0  0  0  0  0  0  0  0  0  0  0
   12.6158  -16.5914   22.2397 C   0  0  2  0  0  0  0  0  0  0  0  0
   12.0950  -17.6653   21.4294 N   0  0  0  0  0  0  0  0  0  0  0  0
   14.0260  -16.9020   22.6626 C   0  0  0  0  0  0  0  0  0  0  0  0
   14.3146  -18.0926   22.9604 O   0  0  0  0  0  0  0  0  0  0  0  0
   15.0462  -15.9322   22.7439 N   0  0  0  0  0  0  0  0  0  0  0  0
   16.3996  -16.1923   23.1503 C   0  0  1  0  0  0  0  0  0  0  0  0
   17.3336  -15.0376   22.8479 C   0  0  0  0  0  0  0  0  0  0  0  0
   18.7724  -15.4080   23.1441 C   0  0  0  0  0  0  0  0  0  0  0  0
   19.6502  -14.2398   22.9290 C   0  0  0  0  0  0  0  0  0  0  0  0
   19.2651  -13.1159   22.5351 O   0  0  0  0  0  0  0  0  0  0  0  0
   16.4911  -16.6079   24.5802 C   0  0  0  0  0  0  0  0  0  0  0  0
   15.7210  -16.1062   25.4221 O   0  0  0  0  0  0  0  0  0  0  0  0
   21.0134  -14.4290   23.1922 O   0  0  0  0  0  0  0  0  0  0  0  0
   17.4199  -17.5520   25.0239 O   0  0  0  0  0  0  0  0  0  0  0  0
  2  1  1  6
  3  2  1  0
  4  3  1  0
  5  6  1  0
  5  4  1  0
  6  7  1  0
  8  2  1  0
  8  9  2  0
 10 11  1  0
 12 11  1  1
 12 13  1  0
 13  8  1  0
 14 12  1  0
 15 14  2  0
 16 14  1  0
 17 22  1  0
 17 16  1  0
 17 18  1  1
 19 18  1  0
 20 21  2  0
 20 19  1  0
 22 25  1  0
 23 22  2  0
 24 20  1  0
M  END
$$$$
