KSE.pdb
     RDKit          3D

 25 24  0  0  1  0  0  0  0  0999 V2000
    7.8467  -12.6204   18.7554 N   0  0  0  0  0  0  0  0  0  0  0  0
    7.7724  -13.9609   19.4011 C   0  0  1  0  0  0  0  0  0  0  0  0
    8.6809  -14.8204   18.5328 C   0  0  0  0  0  0  0  0  0  0  0  0
    8.0931  -15.2343   17.2363 C   0  0  0  0  0  0  0  0  0  0  0  0
    8.9027  -16.1852   16.4117 C   0  0  0  0  0  0  0  0  0  0  0  0
    8.2654  -16.7179   15.1755 C   0  0  0  0  0  0  0  0  0  0  0  0
    9.0602  -17.6672   14.4316 N   0  0  0  0  0  0  0  0  0  0  0  0
    8.4265  -13.8419   20.7513 C   0  0  0  0  0  0  0  0  0  0  0  0
    9.4711  -13.1672   20.8311 O   0  0  0  0  0  0  0  0  0  0  0  0
    6.4868  -15.1757   24.0660 O   0  0  0  0  0  0  0  0  0  0  0  0
    7.4318  -14.1433   24.2406 C   0  0  0  0  0  0  0  0  0  0  0  0
    8.4897  -14.4002   23.1794 C   0  0  2  0  0  0  0  0  0  0  0  0
    7.8611  -14.4835   21.8836 N   0  0  0  0  0  0  0  0  0  0  0  0
    9.2177  -15.6816   23.4825 C   0  0  0  0  0  0  0  0  0  0  0  0
    8.5981  -16.7708   23.3443 O   0  0  0  0  0  0  0  0  0  0  0  0
   10.5593  -15.7320   23.9133 N   0  0  0  0  0  0  0  0  0  0  0  0
   11.2211  -16.9060   24.4116 C   0  0  1  0  0  0  0  0  0  0  0  0
   12.7315  -16.7966   24.3507 C   0  0  0  0  0  0  0  0  0  0  0  0
   13.1954  -16.4220   22.9580 C   0  0  0  0  0  0  0  0  0  0  0  0
   14.6566  -16.2064   22.9522 C   0  0  0  0  0  0  0  0  0  0  0  0
   15.4027  -16.3217   23.9506 O   0  0  0  0  0  0  0  0  0  0  0  0
   10.7559  -17.2805   25.7786 C   0  0  0  0  0  0  0  0  0  0  0  0
   11.1570  -18.3384   26.3019 O   0  0  0  0  0  0  0  0  0  0  0  0
   15.2275  -15.8459   21.7244 O   0  0  0  0  0  0  0  0  0  0  0  0
    9.8738  -16.4823   26.5105 O   0  0  0  0  0  0  0  0  0  0  0  0
  2  1  1  6
  3  2  1  0
  4  3  1  0
  5  6  1  0
  5  4  1  0
  6  7  1  0
  8  2  1  0
  8  9  2  0
 10 11  1  0
 12 11  1  1
 12 13  1  0
 13  8  1  0
 14 12  1  0
 15 14  2  0
 16 14  1  0
 17 22  1  0
 17 16  1  0
 17 18  1  1
 19 18  1  0
 20 21  2  0
 20 19  1  0
 22 25  1  0
 23 22  2  0
 24 20  1  0
M  END
$$$$
