KSE.pdb
     RDKit          3D

 25 24  0  0  1  0  0  0  0  0999 V2000
    7.8932  -12.9263   18.3654 N   0  0  0  0  0  0  0  0  0  0  0  0
    7.7344  -14.1657   19.1767 C   0  0  1  0  0  0  0  0  0  0  0  0
    8.5250  -15.2035   18.3919 C   0  0  0  0  0  0  0  0  0  0  0  0
    7.8563  -15.6978   17.1646 C   0  0  0  0  0  0  0  0  0  0  0  0
    8.5474  -16.8029   16.4292 C   0  0  0  0  0  0  0  0  0  0  0  0
    7.9848  -17.1873   15.1048 C   0  0  0  0  0  0  0  0  0  0  0  0
    8.7156  -18.2133   14.3983 N   0  0  0  0  0  0  0  0  0  0  0  0
    8.4578  -13.9425   20.4774 C   0  0  0  0  0  0  0  0  0  0  0  0
    9.5555  -13.3539   20.4358 O   0  0  0  0  0  0  0  0  0  0  0  0
    6.6137  -14.7930   24.0097 O   0  0  0  0  0  0  0  0  0  0  0  0
    7.6337  -13.8192   24.0353 C   0  0  0  0  0  0  0  0  0  0  0  0
    8.6058  -14.2449   22.9468 C   0  0  2  0  0  0  0  0  0  0  0  0
    7.8964  -14.3945   21.6997 N   0  0  0  0  0  0  0  0  0  0  0  0
    9.2612  -15.5451   23.3262 C   0  0  0  0  0  0  0  0  0  0  0  0
    8.6997  -16.6215   22.9865 O   0  0  0  0  0  0  0  0  0  0  0  0
   10.4731  -15.6266   24.0423 N   0  0  0  0  0  0  0  0  0  0  0  0
   11.1174  -16.8494   24.4348 C   0  0  1  0  0  0  0  0  0  0  0  0
   12.6281  -16.7311   24.4654 C   0  0  0  0  0  0  0  0  0  0  0  0
   13.2232  -16.9903   23.0965 C   0  0  0  0  0  0  0  0  0  0  0  0
   14.6191  -16.5098   23.0523 C   0  0  0  0  0  0  0  0  0  0  0  0
   15.6289  -17.2188   23.2632 O   0  0  0  0  0  0  0  0  0  0  0  0
   10.5856  -17.3809   25.7233 C   0  0  0  0  0  0  0  0  0  0  0  0
    9.8678  -16.6591   26.4426 O   0  0  0  0  0  0  0  0  0  0  0  0
   14.8013  -15.1538   22.7499 O   0  0  0  0  0  0  0  0  0  0  0  0
   10.8630  -18.6762   26.1663 O   0  0  0  0  0  0  0  0  0  0  0  0
  2  1  1  6
  3  2  1  0
  4  3  1  0
  5  6  1  0
  5  4  1  0
  6  7  1  0
  8  2  1  0
  8  9  2  0
 10 11  1  0
 12 11  1  1
 12 13  1  0
 13  8  1  0
 14 12  1  0
 15 14  2  0
 16 14  1  0
 17 22  1  0
 17 16  1  0
 17 18  1  1
 19 18  1  0
 20 21  2  0
 20 19  1  0
 22 25  1  0
 23 22  2  0
 24 20  1  0
M  END
$$$$
