KSE.pdb
     RDKit          3D

 25 24  0  0  1  0  0  0  0  0999 V2000
   11.6445  -18.7064   16.9410 N   0  0  0  0  0  0  0  0  0  0  0  0
   10.9643  -18.9590   18.2421 C   0  0  1  0  0  0  0  0  0  0  0  0
   11.3745  -20.3852   18.5825 C   0  0  0  0  0  0  0  0  0  0  0  0
   11.1353  -21.3754   17.5055 C   0  0  0  0  0  0  0  0  0  0  0  0
   11.4372  -22.8036   17.8355 C   0  0  0  0  0  0  0  0  0  0  0  0
   11.2792  -23.7978   16.7378 C   0  0  0  0  0  0  0  0  0  0  0  0
   11.6963  -25.1428   17.0588 N   0  0  0  0  0  0  0  0  0  0  0  0
   11.6029  -18.0548   19.2617 C   0  0  0  0  0  0  0  0  0  0  0  0
   12.7536  -17.6386   19.0262 O   0  0  0  0  0  0  0  0  0  0  0  0
    9.5678  -17.0880   22.6870 O   0  0  0  0  0  0  0  0  0  0  0  0
   10.3021  -16.0380   22.0975 C   0  0  0  0  0  0  0  0  0  0  0  0
   11.4425  -16.7248   21.3633 C   0  0  2  0  0  0  0  0  0  0  0  0
   10.9057  -17.6998   20.4455 N   0  0  0  0  0  0  0  0  0  0  0  0
   12.3568  -17.3961   22.3519 C   0  0  0  0  0  0  0  0  0  0  0  0
   12.1416  -18.6033   22.6442 O   0  0  0  0  0  0  0  0  0  0  0  0
   13.4451  -16.7477   22.9709 N   0  0  0  0  0  0  0  0  0  0  0  0
   14.2673  -17.3198   24.0010 C   0  0  1  0  0  0  0  0  0  0  0  0
   15.6432  -16.6879   24.0700 C   0  0  0  0  0  0  0  0  0  0  0  0
   16.3098  -16.6831   22.7095 C   0  0  0  0  0  0  0  0  0  0  0  0
   17.6493  -16.0682   22.8046 C   0  0  0  0  0  0  0  0  0  0  0  0
   17.8794  -14.9103   23.2208 O   0  0  0  0  0  0  0  0  0  0  0  0
   13.5949  -17.3094   25.3327 C   0  0  0  0  0  0  0  0  0  0  0  0
   14.1572  -17.8312   26.3152 O   0  0  0  0  0  0  0  0  0  0  0  0
   18.7285  -16.8606   22.3912 O   0  0  0  0  0  0  0  0  0  0  0  0
   12.3394  -16.7299   25.5291 O   0  0  0  0  0  0  0  0  0  0  0  0
  2  1  1  6
  3  2  1  0
  4  3  1  0
  5  6  1  0
  5  4  1  0
  6  7  1  0
  8  2  1  0
  8  9  2  0
 10 11  1  0
 12 11  1  1
 12 13  1  0
 13  8  1  0
 14 12  1  0
 15 14  2  0
 16 14  1  0
 17 22  1  0
 17 16  1  0
 17 18  1  1
 19 18  1  0
 20 21  2  0
 20 19  1  0
 22 25  1  0
 23 22  2  0
 24 20  1  0
M  END
$$$$
