KSE.pdb
     RDKit          3D

 25 24  0  0  1  0  0  0  0  0999 V2000
    7.8608  -17.4258   19.1459 N   0  0  0  0  0  0  0  0  0  0  0  0
    9.1702  -18.0875   19.4048 C   0  0  1  0  0  0  0  0  0  0  0  0
    9.7750  -18.2265   18.0145 C   0  0  0  0  0  0  0  0  0  0  0  0
    9.1654  -19.2841   17.1734 C   0  0  0  0  0  0  0  0  0  0  0  0
    9.7145  -19.4328   15.7892 C   0  0  0  0  0  0  0  0  0  0  0  0
    9.0494  -20.4276   14.9026 C   0  0  0  0  0  0  0  0  0  0  0  0
    9.5207  -20.4498   13.5375 N   0  0  0  0  0  0  0  0  0  0  0  0
   10.0215  -17.1079   20.1667 C   0  0  0  0  0  0  0  0  0  0  0  0
   11.0344  -16.6565   19.5981 O   0  0  0  0  0  0  0  0  0  0  0  0
    9.2454  -16.4149   24.1119 O   0  0  0  0  0  0  0  0  0  0  0  0
    9.7110  -15.2748   23.4243 C   0  0  0  0  0  0  0  0  0  0  0  0
   10.5024  -15.8253   22.2488 C   0  0  2  0  0  0  0  0  0  0  0  0
    9.6698  -16.7237   21.4866 N   0  0  0  0  0  0  0  0  0  0  0  0
   11.7218  -16.5516   22.7484 C   0  0  0  0  0  0  0  0  0  0  0  0
   11.6480  -17.7978   22.9237 O   0  0  0  0  0  0  0  0  0  0  0  0
   12.9469  -15.9135   23.0315 N   0  0  0  0  0  0  0  0  0  0  0  0
   14.1477  -16.5834   23.4484 C   0  0  1  0  0  0  0  0  0  0  0  0
   15.4044  -15.8767   22.9811 C   0  0  0  0  0  0  0  0  0  0  0  0
   16.6466  -16.6065   23.4496 C   0  0  0  0  0  0  0  0  0  0  0  0
   17.8556  -15.9098   22.9655 C   0  0  0  0  0  0  0  0  0  0  0  0
   18.7472  -15.4264   23.6990 O   0  0  0  0  0  0  0  0  0  0  0  0
   14.1759  -16.8310   24.9193 C   0  0  0  0  0  0  0  0  0  0  0  0
   13.5913  -16.0462   25.6914 O   0  0  0  0  0  0  0  0  0  0  0  0
   17.9922  -15.7935   21.5758 O   0  0  0  0  0  0  0  0  0  0  0  0
   14.8417  -17.9242   25.4784 O   0  0  0  0  0  0  0  0  0  0  0  0
  2  1  1  6
  3  2  1  0
  4  3  1  0
  5  6  1  0
  5  4  1  0
  6  7  1  0
  8  2  1  0
  8  9  2  0
 10 11  1  0
 12 11  1  1
 12 13  1  0
 13  8  1  0
 14 12  1  0
 15 14  2  0
 16 14  1  0
 17 22  1  0
 17 16  1  0
 17 18  1  1
 19 18  1  0
 20 21  2  0
 20 19  1  0
 22 25  1  0
 23 22  2  0
 24 20  1  0
M  END
$$$$
