KSE.pdb
     RDKit          3D

 25 24  0  0  1  0  0  0  0  0999 V2000
    8.2373  -12.7903   18.9301 N   0  0  0  0  0  0  0  0  0  0  0  0
    7.4286  -13.6284   19.8591 C   0  0  1  0  0  0  0  0  0  0  0  0
    7.4046  -14.9885   19.1752 C   0  0  0  0  0  0  0  0  0  0  0  0
    8.7389  -15.5382   18.8360 C   0  0  0  0  0  0  0  0  0  0  0  0
    8.7540  -16.8211   18.0657 C   0  0  0  0  0  0  0  0  0  0  0  0
   10.0884  -17.3944   17.7354 C   0  0  0  0  0  0  0  0  0  0  0  0
   10.0611  -18.6340   16.9946 N   0  0  0  0  0  0  0  0  0  0  0  0
    8.2230  -13.7802   21.1282 C   0  0  0  0  0  0  0  0  0  0  0  0
    9.4657  -13.7884   21.0358 O   0  0  0  0  0  0  0  0  0  0  0  0
    6.3155  -14.7523   24.6121 O   0  0  0  0  0  0  0  0  0  0  0  0
    7.4062  -13.8766   24.7926 C   0  0  0  0  0  0  0  0  0  0  0  0
    8.3085  -14.1266   23.5948 C   0  0  2  0  0  0  0  0  0  0  0  0
    7.5641  -13.9102   22.3782 N   0  0  0  0  0  0  0  0  0  0  0  0
    8.8328  -15.5364   23.6346 C   0  0  0  0  0  0  0  0  0  0  0  0
    8.7078  -16.2522   22.6044 O   0  0  0  0  0  0  0  0  0  0  0  0
    9.4589  -16.1029   24.7638 N   0  0  0  0  0  0  0  0  0  0  0  0
   10.5593  -17.0257   24.7194 C   0  0  1  0  0  0  0  0  0  0  0  0
   11.6972  -16.5377   23.8454 C   0  0  0  0  0  0  0  0  0  0  0  0
   12.8288  -17.5444   23.8110 C   0  0  0  0  0  0  0  0  0  0  0  0
   13.9285  -17.0409   22.9632 C   0  0  0  0  0  0  0  0  0  0  0  0
   14.0786  -17.3078   21.7496 O   0  0  0  0  0  0  0  0  0  0  0  0
   11.0393  -17.4000   26.0814 C   0  0  0  0  0  0  0  0  0  0  0  0
   11.2047  -16.5165   26.9449 O   0  0  0  0  0  0  0  0  0  0  0  0
   14.8621  -16.2032   23.5877 O   0  0  0  0  0  0  0  0  0  0  0  0
   11.3165  -18.7220   26.4367 O   0  0  0  0  0  0  0  0  0  0  0  0
  2  1  1  6
  3  2  1  0
  4  3  1  0
  5  6  1  0
  5  4  1  0
  6  7  1  0
  8  2  1  0
  8  9  2  0
 10 11  1  0
 12 11  1  1
 12 13  1  0
 13  8  1  0
 14 12  1  0
 15 14  2  0
 16 14  1  0
 17 22  1  0
 17 16  1  0
 17 18  1  6
 19 18  1  0
 20 21  2  0
 20 19  1  0
 22 25  1  0
 23 22  2  0
 24 20  1  0
M  END
$$$$
