KSE.pdb
     RDKit          3D

 25 24  0  0  1  0  0  0  0  0999 V2000
   11.9530  -18.2901   17.2229 N   0  0  0  0  0  0  0  0  0  0  0  0
   10.9255  -18.6552   18.2380 C   0  0  1  0  0  0  0  0  0  0  0  0
   11.3148  -20.0714   18.6390 C   0  0  0  0  0  0  0  0  0  0  0  0
   12.7713  -20.2940   18.8019 C   0  0  0  0  0  0  0  0  0  0  0  0
   13.1916  -21.6659   19.2272 C   0  0  0  0  0  0  0  0  0  0  0  0
   14.6494  -21.8922   19.4314 C   0  0  0  0  0  0  0  0  0  0  0  0
   15.0072  -23.2009   19.9269 N   0  0  0  0  0  0  0  0  0  0  0  0
   11.1504  -17.7734   19.4367 C   0  0  0  0  0  0  0  0  0  0  0  0
   12.3075  -17.3585   19.6412 O   0  0  0  0  0  0  0  0  0  0  0  0
    8.2886  -17.2795   22.3871 O   0  0  0  0  0  0  0  0  0  0  0  0
    8.8951  -16.0923   21.9266 C   0  0  0  0  0  0  0  0  0  0  0  0
   10.2531  -16.5278   21.4001 C   0  0  2  0  0  0  0  0  0  0  0  0
   10.0716  -17.4374   20.2951 N   0  0  0  0  0  0  0  0  0  0  0  0
   11.0359  -17.1982   22.4963 C   0  0  0  0  0  0  0  0  0  0  0  0
   11.4890  -18.3561   22.2882 O   0  0  0  0  0  0  0  0  0  0  0  0
   11.2923  -16.6009   23.7475 N   0  0  0  0  0  0  0  0  0  0  0  0
   12.5141  -16.7382   24.4911 C   0  0  1  0  0  0  0  0  0  0  0  0
   13.7304  -16.2893   23.7061 C   0  0  0  0  0  0  0  0  0  0  0  0
   14.5517  -17.4766   23.2469 C   0  0  0  0  0  0  0  0  0  0  0  0
   15.7675  -17.0114   22.5490 C   0  0  0  0  0  0  0  0  0  0  0  0
   16.5259  -16.1032   22.9574 O   0  0  0  0  0  0  0  0  0  0  0  0
   12.4452  -16.0670   25.8216 C   0  0  0  0  0  0  0  0  0  0  0  0
   13.4251  -16.1131   26.5907 O   0  0  0  0  0  0  0  0  0  0  0  0
   16.0739  -17.6500   21.3401 O   0  0  0  0  0  0  0  0  0  0  0  0
   11.3091  -15.3769   26.2503 O   0  0  0  0  0  0  0  0  0  0  0  0
  2  1  1  6
  3  2  1  0
  4  3  1  0
  5  6  1  0
  5  4  1  0
  6  7  1  0
  8  2  1  0
  8  9  2  0
 10 11  1  0
 12 11  1  1
 12 13  1  0
 13  8  1  0
 14 12  1  0
 15 14  2  0
 16 14  1  0
 17 22  1  0
 17 16  1  0
 17 18  1  6
 19 18  1  0
 20 21  2  0
 20 19  1  0
 22 25  1  0
 23 22  2  0
 24 20  1  0
M  END
$$$$
