WHI.pdb
     RDKit          3D

 33 35  0  0  1  0  0  0  0  0999 V2000
    6.1601  -17.7449   23.9273 N   0  0  0  0  0  0  0  0  0  0  0  0
    7.1324  -16.7022   24.0179 C   0  0  1  0  0  0  0  0  0  0  0  0
    7.3073  -16.2549   25.4303 C   0  0  0  0  0  0  0  0  0  0  0  0
    6.4449  -15.1002   25.7109 C   0  0  0  0  0  0  0  0  0  0  0  0
    5.1789  -15.1658   26.3126 C   0  0  0  0  0  0  0  0  0  0  0  0
    4.6905  -13.9394   26.4507 N   0  0  0  0  0  0  0  0  0  0  0  0
    5.5791  -13.0549   25.9644 C   0  0  0  0  0  0  0  0  0  0  0  0
    5.5225  -11.6649   25.8790 C   0  0  0  0  0  0  0  0  0  0  0  0
    6.5861  -10.9991   25.3177 C   0  0  0  0  0  0  0  0  0  0  0  0
    7.6835  -11.6866   24.8492 C   0  0  0  0  0  0  0  0  0  0  0  0
    7.7419  -13.0796   24.9346 C   0  0  0  0  0  0  0  0  0  0  0  0
    6.6679  -13.7446   25.5023 C   0  0  0  0  0  0  0  0  0  0  0  0
    8.4063  -17.1892   23.4147 C   0  0  0  0  0  0  0  0  0  0  0  0
    8.6863  -18.4378   23.4119 O   0  0  0  0  0  0  0  0  0  0  0  0
    9.3636  -16.3479   22.8232 N   0  0  0  0  0  0  0  0  0  0  0  0
   10.7772  -16.7553   22.6303 C   0  0  1  0  0  0  0  0  0  0  0  0
   11.2376  -15.9433   21.4634 C   0  0  0  0  0  0  0  0  0  0  0  0
   10.5258  -16.1541   20.1963 C   0  0  0  0  0  0  0  0  0  0  0  0
   10.6441  -17.2314   19.3482 C   0  0  0  0  0  0  0  0  0  0  0  0
    9.8512  -17.0588   18.2606 N   0  0  0  0  0  0  0  0  0  0  0  0
    9.2404  -15.8767   18.4293 C   0  0  0  0  0  0  0  0  0  0  0  0
    9.6380  -15.3266   19.5864 N   0  0  0  0  0  0  0  0  0  0  0  0
   11.4401  -16.4939   23.9118 C   0  0  0  0  0  0  0  0  0  0  0  0
   12.1386  -15.4362   24.0770 O   0  0  0  0  0  0  0  0  0  0  0  0
   11.4264  -13.7160   28.4071 C   0  0  0  0  0  0  0  0  0  0  0  0
   12.1842  -14.9229   27.8416 C   0  0  0  0  0  0  0  0  0  0  0  0
   11.3968  -15.5829   26.7470 C   0  0  2  0  0  0  0  0  0  0  0  0
    9.9696  -15.7204   27.2020 C   0  0  0  0  0  0  0  0  0  0  0  0
   11.9221  -16.9445   26.3524 C   0  0  2  0  0  0  0  0  0  0  0  0
   11.3723  -17.3574   25.0654 N   0  0  0  0  0  0  0  0  0  0  0  0
   11.8118  -17.9620   27.4008 C   0  0  0  0  0  0  0  0  0  0  0  0
   11.0699  -19.1145   27.3191 O   0  0  0  0  0  0  0  0  0  0  0  0
   12.4422  -17.7872   28.4840 O   0  0  0  0  0  0  0  0  0  0  0  0
  2  1  1  1
  3  2  1  0
  4  3  1  0
  5  4  2  0
  6  7  1  0
  6  5  1  0
  7 12  2  0
  8  9  2  0
  8  7  1  0
  9 10  1  0
 10 11  2  0
 12 11  1  0
 12  4  1  0
 13  2  1  0
 13 14  2  0
 15 13  1  0
 16 15  1  0
 16 17  1  6
 18 17  1  0
 19 18  2  0
 20 21  1  0
 20 19  1  0
 21 22  2  0
 22 18  1  0
 23 16  1  0
 24 23  2  0
 26 25  1  0
 27 26  1  0
 27 28  1  1
 29 27  1  0
 29 30  1  6
 30 23  1  0
 31 29  1  0
 32 31  1  0
 33 31  2  0
M  END
$$$$
