WHI.pdb
     RDKit          3D

 33 35  0  0  1  0  0  0  0  0999 V2000
    6.6115  -17.8306   22.2573 N   0  0  0  0  0  0  0  0  0  0  0  0
    7.3482  -16.7660   22.8611 C   0  0  1  0  0  0  0  0  0  0  0  0
    6.5373  -16.0816   23.9096 C   0  0  0  0  0  0  0  0  0  0  0  0
    6.8304  -14.6429   23.9239 C   0  0  0  0  0  0  0  0  0  0  0  0
    7.5274  -13.9514   22.9213 C   0  0  0  0  0  0  0  0  0  0  0  0
    7.5840  -12.6619   23.2308 N   0  0  0  0  0  0  0  0  0  0  0  0
    6.9532  -12.4626   24.4016 C   0  0  0  0  0  0  0  0  0  0  0  0
    6.7525  -11.2961   25.1375 C   0  0  0  0  0  0  0  0  0  0  0  0
    6.0689  -11.3812   26.3270 C   0  0  0  0  0  0  0  0  0  0  0  0
    5.5926  -12.5898   26.7843 C   0  0  0  0  0  0  0  0  0  0  0  0
    5.7926  -13.7597   26.0477 C   0  0  0  0  0  0  0  0  0  0  0  0
    6.4807  -13.6672   24.8494 C   0  0  0  0  0  0  0  0  0  0  0  0
    8.6234  -17.3195   23.4008 C   0  0  0  0  0  0  0  0  0  0  0  0
    8.6282  -18.4231   24.0486 O   0  0  0  0  0  0  0  0  0  0  0  0
    9.8737  -16.6974   23.2461 N   0  0  0  0  0  0  0  0  0  0  0  0
   11.1318  -17.2894   23.7643 C   0  0  1  0  0  0  0  0  0  0  0  0
   12.1455  -16.9770   22.7118 C   0  0  0  0  0  0  0  0  0  0  0  0
   11.9705  -17.6431   21.4148 C   0  0  0  0  0  0  0  0  0  0  0  0
   11.9952  -18.9968   21.1681 C   0  0  0  0  0  0  0  0  0  0  0  0
   11.8272  -19.2331   19.8424 N   0  0  0  0  0  0  0  0  0  0  0  0
   11.6988  -18.0300   19.2635 C   0  0  0  0  0  0  0  0  0  0  0  0
   11.7834  -17.0707   20.1973 N   0  0  0  0  0  0  0  0  0  0  0  0
   11.3429  -16.6754   25.0790 C   0  0  0  0  0  0  0  0  0  0  0  0
   12.2285  -15.7671   25.2362 O   0  0  0  0  0  0  0  0  0  0  0  0
    9.3367  -13.1121   27.7677 C   0  0  0  0  0  0  0  0  0  0  0  0
   10.2473  -14.2141   27.2136 C   0  0  0  0  0  0  0  0  0  0  0  0
   10.2121  -15.4292   28.0946 C   0  0  2  0  0  0  0  0  0  0  0  0
   10.6853  -15.0371   29.4676 C   0  0  0  0  0  0  0  0  0  0  0  0
   11.0594  -16.5747   27.5893 C   0  0  2  0  0  0  0  0  0  0  0  0
   10.6060  -17.0113   26.2728 N   0  0  0  0  0  0  0  0  0  0  0  0
   11.2352  -17.6665   28.5505 C   0  0  0  0  0  0  0  0  0  0  0  0
   12.0929  -17.6550   29.6226 O   0  0  0  0  0  0  0  0  0  0  0  0
   10.5520  -18.7211   28.4016 O   0  0  0  0  0  0  0  0  0  0  0  0
  2  1  1  1
  3  2  1  0
  4  3  1  0
  5  4  2  0
  6  7  1  0
  6  5  1  0
  7 12  2  0
  8  9  2  0
  8  7  1  0
  9 10  1  0
 10 11  2  0
 12 11  1  0
 12  4  1  0
 13  2  1  0
 13 14  2  0
 15 13  1  0
 16 15  1  0
 16 17  1  6
 18 17  1  0
 19 18  2  0
 20 21  1  0
 20 19  1  0
 21 22  2  0
 22 18  1  0
 23 16  1  0
 24 23  2  0
 26 25  1  0
 27 26  1  0
 27 28  1  1
 29 27  1  0
 29 30  1  6
 30 23  1  0
 31 29  1  0
 32 31  1  0
 33 31  2  0
M  END
$$$$
