WHI.pdb
     RDKit          3D

 33 35  0  0  1  0  0  0  0  0999 V2000
    6.1148  -17.9762   25.1083 N   0  0  0  0  0  0  0  0  0  0  0  0
    7.0374  -16.9407   24.7657 C   0  0  1  0  0  0  0  0  0  0  0  0
    7.0442  -15.8662   25.8005 C   0  0  0  0  0  0  0  0  0  0  0  0
    6.3884  -14.6574   25.2860 C   0  0  0  0  0  0  0  0  0  0  0  0
    5.3601  -13.9582   25.9365 C   0  0  0  0  0  0  0  0  0  0  0  0
    5.0223  -12.8963   25.2155 N   0  0  0  0  0  0  0  0  0  0  0  0
    5.7830  -12.8572   24.1072 C   0  0  0  0  0  0  0  0  0  0  0  0
    5.8000  -11.9497   23.0495 C   0  0  0  0  0  0  0  0  0  0  0  0
    6.6895  -12.1573   22.0223 C   0  0  0  0  0  0  0  0  0  0  0  0
    7.5450  -13.2365   22.0345 C   0  0  0  0  0  0  0  0  0  0  0  0
    7.5294  -14.1466   23.0941 C   0  0  0  0  0  0  0  0  0  0  0  0
    6.6320  -13.9312   24.1267 C   0  0  0  0  0  0  0  0  0  0  0  0
    8.3841  -17.5516   24.5727 C   0  0  0  0  0  0  0  0  0  0  0  0
    8.7281  -18.5867   25.2416 O   0  0  0  0  0  0  0  0  0  0  0  0
    9.3453  -17.0583   23.6745 N   0  0  0  0  0  0  0  0  0  0  0  0
   10.7744  -17.4526   23.7354 C   0  0  1  0  0  0  0  0  0  0  0  0
   11.3679  -16.8762   22.4909 C   0  0  0  0  0  0  0  0  0  0  0  0
   12.7579  -17.2462   22.1952 C   0  0  0  0  0  0  0  0  0  0  0  0
   13.8907  -16.7849   22.8259 C   0  0  0  0  0  0  0  0  0  0  0  0
   14.9963  -17.3289   22.2574 N   0  0  0  0  0  0  0  0  0  0  0  0
   14.5544  -18.1270   21.2741 C   0  0  0  0  0  0  0  0  0  0  0  0
   13.2144  -18.0842   21.2286 N   0  0  0  0  0  0  0  0  0  0  0  0
   11.2753  -16.9204   25.0065 C   0  0  0  0  0  0  0  0  0  0  0  0
   12.0357  -15.8931   25.0251 O   0  0  0  0  0  0  0  0  0  0  0  0
   10.1160  -13.4659   28.0284 C   0  0  0  0  0  0  0  0  0  0  0  0
   11.0491  -14.5296   27.4383 C   0  0  0  0  0  0  0  0  0  0  0  0
   10.8625  -15.8480   28.1318 C   0  0  2  0  0  0  0  0  0  0  0  0
   11.2831  -15.6954   29.5680 C   0  0  0  0  0  0  0  0  0  0  0  0
   11.6424  -16.9824   27.5072 C   0  0  2  0  0  0  0  0  0  0  0  0
   10.9731  -17.4698   26.3057 N   0  0  0  0  0  0  0  0  0  0  0  0
   12.0264  -18.0405   28.4452 C   0  0  0  0  0  0  0  0  0  0  0  0
   11.6573  -19.3598   28.3542 O   0  0  0  0  0  0  0  0  0  0  0  0
   12.7582  -17.7389   29.4326 O   0  0  0  0  0  0  0  0  0  0  0  0
  2  1  1  1
  3  2  1  0
  4  3  1  0
  5  4  2  0
  6  7  1  0
  6  5  1  0
  7 12  2  0
  8  9  2  0
  8  7  1  0
  9 10  1  0
 10 11  2  0
 12 11  1  0
 12  4  1  0
 13  2  1  0
 13 14  2  0
 15 13  1  0
 16 15  1  0
 16 17  1  6
 18 17  1  0
 19 18  2  0
 20 21  1  0
 20 19  1  0
 21 22  2  0
 22 18  1  0
 23 16  1  0
 24 23  2  0
 26 25  1  0
 27 26  1  0
 27 28  1  1
 29 27  1  0
 29 30  1  6
 30 23  1  0
 31 29  1  0
 32 31  1  0
 33 31  2  0
M  END
$$$$
