WHI.pdb
     RDKit          3D

 33 35  0  0  1  0  0  0  0  0999 V2000
    5.9821  -18.6023   25.3984 N   0  0  0  0  0  0  0  0  0  0  0  0
    6.6084  -17.3736   25.0257 C   0  0  1  0  0  0  0  0  0  0  0  0
    6.9315  -16.5515   26.2279 C   0  0  0  0  0  0  0  0  0  0  0  0
    6.2779  -15.2396   26.1403 C   0  0  0  0  0  0  0  0  0  0  0  0
    4.9184  -14.9971   26.3897 C   0  0  0  0  0  0  0  0  0  0  0  0
    4.6685  -13.7004   26.2563 N   0  0  0  0  0  0  0  0  0  0  0  0
    5.8068  -13.0649   25.9264 C   0  0  0  0  0  0  0  0  0  0  0  0
    6.0534  -11.7165   25.6746 C   0  0  0  0  0  0  0  0  0  0  0  0
    7.3318  -11.3348   25.3436 C   0  0  0  0  0  0  0  0  0  0  0  0
    8.3476  -12.2610   25.2612 C   0  0  0  0  0  0  0  0  0  0  0  0
    8.1022  -13.6127   25.5137 C   0  0  0  0  0  0  0  0  0  0  0  0
    6.8125  -13.9908   25.8481 C   0  0  0  0  0  0  0  0  0  0  0  0
    7.8173  -17.6868   24.2105 C   0  0  0  0  0  0  0  0  0  0  0  0
    8.4336  -18.7974   24.3656 O   0  0  0  0  0  0  0  0  0  0  0  0
    8.3546  -16.8205   23.2436 N   0  0  0  0  0  0  0  0  0  0  0  0
    9.7452  -16.9456   22.7414 C   0  0  1  0  0  0  0  0  0  0  0  0
    9.7045  -16.3163   21.3866 C   0  0  0  0  0  0  0  0  0  0  0  0
   10.9237  -16.4268   20.5754 C   0  0  0  0  0  0  0  0  0  0  0  0
   12.0861  -17.0826   20.9111 C   0  0  0  0  0  0  0  0  0  0  0  0
   13.0045  -16.9408   19.9222 N   0  0  0  0  0  0  0  0  0  0  0  0
   12.4168  -16.1981   18.9725 C   0  0  0  0  0  0  0  0  0  0  0  0
   11.1697  -15.8849   19.3545 N   0  0  0  0  0  0  0  0  0  0  0  0
   10.5864  -16.2854   23.7445 C   0  0  0  0  0  0  0  0  0  0  0  0
   10.9246  -15.0608   23.6033 O   0  0  0  0  0  0  0  0  0  0  0  0
    9.8586  -14.1595   28.1670 C   0  0  0  0  0  0  0  0  0  0  0  0
   10.5264  -14.5706   26.8496 C   0  0  0  0  0  0  0  0  0  0  0  0
   11.4397  -15.7438   27.0571 C   0  0  2  0  0  0  0  0  0  0  0  0
   12.5209  -15.3420   28.0228 C   0  0  0  0  0  0  0  0  0  0  0  0
   12.0788  -16.2529   25.7851 C   0  0  2  0  0  0  0  0  0  0  0  0
   11.0911  -16.9157   24.9400 N   0  0  0  0  0  0  0  0  0  0  0  0
   13.3026  -17.0312   25.9930 C   0  0  0  0  0  0  0  0  0  0  0  0
   14.5202  -16.5186   26.3668 O   0  0  0  0  0  0  0  0  0  0  0  0
   13.2613  -18.2838   25.8180 O   0  0  0  0  0  0  0  0  0  0  0  0
  2  1  1  1
  3  2  1  0
  4  3  1  0
  5  4  2  0
  6  7  1  0
  6  5  1  0
  7 12  2  0
  8  9  2  0
  8  7  1  0
  9 10  1  0
 10 11  2  0
 12 11  1  0
 12  4  1  0
 13  2  1  0
 13 14  2  0
 15 13  1  0
 16 15  1  0
 16 17  1  6
 18 17  1  0
 19 18  2  0
 20 21  1  0
 20 19  1  0
 21 22  2  0
 22 18  1  0
 23 16  1  0
 24 23  2  0
 26 25  1  0
 27 26  1  0
 27 28  1  1
 29 27  1  0
 29 30  1  1
 30 23  1  0
 31 29  1  0
 32 31  1  0
 33 31  2  0
M  END
$$$$
