WHI.pdb
     RDKit          3D

 33 35  0  0  1  0  0  0  0  0999 V2000
    6.5944  -17.3517   23.5888 N   0  0  0  0  0  0  0  0  0  0  0  0
    7.7092  -16.5268   23.9315 C   0  0  1  0  0  0  0  0  0  0  0  0
    7.6164  -16.0626   25.3462 C   0  0  0  0  0  0  0  0  0  0  0  0
    6.6918  -14.9269   25.4515 C   0  0  0  0  0  0  0  0  0  0  0  0
    5.4189  -14.9746   26.0403 C   0  0  0  0  0  0  0  0  0  0  0  0
    4.8670  -13.7682   25.9992 N   0  0  0  0  0  0  0  0  0  0  0  0
    5.7195  -12.9145   25.4054 C   0  0  0  0  0  0  0  0  0  0  0  0
    5.5950  -11.5548   25.1256 C   0  0  0  0  0  0  0  0  0  0  0  0
    6.6348  -10.9186   24.4903 C   0  0  0  0  0  0  0  0  0  0  0  0
    7.7745  -11.6060   24.1366 C   0  0  0  0  0  0  0  0  0  0  0  0
    7.9010  -12.9686   24.4167 C   0  0  0  0  0  0  0  0  0  0  0  0
    6.8506  -13.6037   25.0581 C   0  0  0  0  0  0  0  0  0  0  0  0
    8.9623  -17.2903   23.6655 C   0  0  0  0  0  0  0  0  0  0  0  0
    8.9735  -18.5671   23.7491 O   0  0  0  0  0  0  0  0  0  0  0  0
   10.1837  -16.6910   23.3144 N   0  0  0  0  0  0  0  0  0  0  0  0
   11.4958  -17.3245   23.5951 C   0  0  1  0  0  0  0  0  0  0  0  0
   12.4179  -16.7226   22.5848 C   0  0  0  0  0  0  0  0  0  0  0  0
   12.0328  -16.8706   21.1754 C   0  0  0  0  0  0  0  0  0  0  0  0
   11.6659  -15.8684   20.3066 C   0  0  0  0  0  0  0  0  0  0  0  0
   11.3493  -16.3927   19.0957 N   0  0  0  0  0  0  0  0  0  0  0  0
   11.5176  -17.7185   19.2089 C   0  0  0  0  0  0  0  0  0  0  0  0
   11.9270  -18.0150   20.4515 N   0  0  0  0  0  0  0  0  0  0  0  0
   11.7829  -17.0276   25.0019 C   0  0  0  0  0  0  0  0  0  0  0  0
   12.8287  -16.3677   25.3255 O   0  0  0  0  0  0  0  0  0  0  0  0
    9.6139  -13.6218   27.8054 C   0  0  0  0  0  0  0  0  0  0  0  0
   10.6514  -14.6504   27.3407 C   0  0  0  0  0  0  0  0  0  0  0  0
   10.4276  -15.9751   28.0106 C   0  0  2  0  0  0  0  0  0  0  0  0
   10.6703  -15.8107   29.4861 C   0  0  0  0  0  0  0  0  0  0  0  0
   11.3128  -17.0824   27.4855 C   0  0  2  0  0  0  0  0  0  0  0  0
   10.9533  -17.4246   26.1134 N   0  0  0  0  0  0  0  0  0  0  0  0
   11.4268  -18.2394   28.3772 C   0  0  0  0  0  0  0  0  0  0  0  0
   12.1467  -18.2782   29.5457 O   0  0  0  0  0  0  0  0  0  0  0  0
   10.8217  -19.3063   28.0661 O   0  0  0  0  0  0  0  0  0  0  0  0
  2  1  1  1
  3  2  1  0
  4  3  1  0
  5  4  2  0
  6  7  1  0
  6  5  1  0
  7 12  2  0
  8  9  2  0
  8  7  1  0
  9 10  1  0
 10 11  2  0
 12 11  1  0
 12  4  1  0
 13  2  1  0
 13 14  2  0
 15 13  1  0
 16 15  1  0
 16 17  1  6
 18 17  1  0
 19 18  2  0
 20 21  1  0
 20 19  1  0
 21 22  2  0
 22 18  1  0
 23 16  1  0
 24 23  2  0
 26 25  1  0
 27 26  1  0
 27 28  1  1
 29 27  1  0
 29 30  1  6
 30 23  1  0
 31 29  1  0
 32 31  1  0
 33 31  2  0
M  END
$$$$
