WHI.pdb
     RDKit          3D

 33 35  0  0  1  0  0  0  0  0999 V2000
    9.3226  -16.4601   21.2640 N   0  0  0  0  0  0  0  0  0  0  0  0
    8.8695  -15.9242   22.5083 C   0  0  1  0  0  0  0  0  0  0  0  0
    7.4263  -15.5534   22.4374 C   0  0  0  0  0  0  0  0  0  0  0  0
    7.2642  -14.1014   22.5837 C   0  0  0  0  0  0  0  0  0  0  0  0
    7.3658  -13.1689   21.5400 C   0  0  0  0  0  0  0  0  0  0  0  0
    7.1293  -11.9506   22.0107 N   0  0  0  0  0  0  0  0  0  0  0  0
    6.8743  -12.0302   23.3286 C   0  0  0  0  0  0  0  0  0  0  0  0
    6.5787  -11.0342   24.2578 C   0  0  0  0  0  0  0  0  0  0  0  0
    6.3671  -11.4003   25.5658 C   0  0  0  0  0  0  0  0  0  0  0  0
    6.4454  -12.7197   25.9527 C   0  0  0  0  0  0  0  0  0  0  0  0
    6.7412  -13.7190   25.0225 C   0  0  0  0  0  0  0  0  0  0  0  0
    6.9518  -13.3441   23.7061 C   0  0  0  0  0  0  0  0  0  0  0  0
    9.1476  -16.9210   23.5821 C   0  0  0  0  0  0  0  0  0  0  0  0
    8.3474  -17.0466   24.5727 O   0  0  0  0  0  0  0  0  0  0  0  0
   10.2672  -17.7697   23.5907 N   0  0  0  0  0  0  0  0  0  0  0  0
   10.5403  -18.7232   24.6944 C   0  0  1  0  0  0  0  0  0  0  0  0
   11.3782  -19.7867   24.0621 C   0  0  0  0  0  0  0  0  0  0  0  0
   10.6649  -20.8065   23.2825 C   0  0  0  0  0  0  0  0  0  0  0  0
    9.3022  -20.9454   23.1495 C   0  0  0  0  0  0  0  0  0  0  0  0
    9.0159  -22.0225   22.3753 N   0  0  0  0  0  0  0  0  0  0  0  0
   10.1968  -22.5546   22.0269 C   0  0  0  0  0  0  0  0  0  0  0  0
   11.1912  -21.8331   22.5656 N   0  0  0  0  0  0  0  0  0  0  0  0
   11.1769  -17.9301   25.7506 C   0  0  0  0  0  0  0  0  0  0  0  0
   12.2962  -17.3496   25.5408 O   0  0  0  0  0  0  0  0  0  0  0  0
    8.8014  -14.4895   29.4648 C   0  0  0  0  0  0  0  0  0  0  0  0
    9.3444  -15.8475   29.0048 C   0  0  0  0  0  0  0  0  0  0  0  0
   10.7295  -15.7065   28.4431 C   0  0  2  0  0  0  0  0  0  0  0  0
   10.6575  -14.8579   27.2032 C   0  0  0  0  0  0  0  0  0  0  0  0
   11.3871  -17.0241   28.1016 C   0  0  2  0  0  0  0  0  0  0  0  0
   10.6310  -17.7271   27.0705 N   0  0  0  0  0  0  0  0  0  0  0  0
   11.7212  -17.8521   29.2634 C   0  0  0  0  0  0  0  0  0  0  0  0
   12.5723  -17.4944   30.2797 O   0  0  0  0  0  0  0  0  0  0  0  0
   11.1957  -18.9991   29.3615 O   0  0  0  0  0  0  0  0  0  0  0  0
  2  1  1  6
  3  2  1  0
  4  3  1  0
  5  4  2  0
  6  7  1  0
  6  5  1  0
  7 12  2  0
  8  9  2  0
  8  7  1  0
  9 10  1  0
 10 11  2  0
 12 11  1  0
 12  4  1  0
 13  2  1  0
 13 14  2  0
 15 13  1  0
 16 15  1  0
 16 17  1  6
 18 17  1  0
 19 18  2  0
 20 21  1  0
 20 19  1  0
 21 22  2  0
 22 18  1  0
 23 16  1  0
 24 23  2  0
 26 25  1  0
 27 26  1  0
 27 28  1  6
 29 27  1  0
 29 30  1  6
 30 23  1  0
 31 29  1  0
 32 31  1  0
 33 31  2  0
M  END
$$$$
