WHI.pdb
     RDKit          3D

 33 35  0  0  1  0  0  0  0  0999 V2000
    8.0678  -17.2142   21.0822 N   0  0  0  0  0  0  0  0  0  0  0  0
    7.2454  -16.2364   21.7212 C   0  0  1  0  0  0  0  0  0  0  0  0
    6.1631  -15.7680   20.8077 C   0  0  0  0  0  0  0  0  0  0  0  0
    6.7397  -15.1323   19.6163 C   0  0  0  0  0  0  0  0  0  0  0  0
    6.4845  -15.5193   18.2918 C   0  0  0  0  0  0  0  0  0  0  0  0
    7.1359  -14.7136   17.4622 N   0  0  0  0  0  0  0  0  0  0  0  0
    7.8180  -13.8028   18.1788 C   0  0  0  0  0  0  0  0  0  0  0  0
    8.6473  -12.7605   17.7681 C   0  0  0  0  0  0  0  0  0  0  0  0
    9.2355  -11.9735   18.7295 C   0  0  0  0  0  0  0  0  0  0  0  0
    9.0131  -12.2071   20.0684 C   0  0  0  0  0  0  0  0  0  0  0  0
    8.1819  -13.2510   20.4814 C   0  0  0  0  0  0  0  0  0  0  0  0
    7.5911  -14.0395   19.5082 C   0  0  0  0  0  0  0  0  0  0  0  0
    6.7091  -16.8213   22.9838 C   0  0  0  0  0  0  0  0  0  0  0  0
    5.7497  -16.2483   23.6072 O   0  0  0  0  0  0  0  0  0  0  0  0
    7.1956  -18.0036   23.5667 N   0  0  0  0  0  0  0  0  0  0  0  0
    7.2948  -18.1898   25.0354 C   0  0  1  0  0  0  0  0  0  0  0  0
    7.9075  -19.5435   25.1935 C   0  0  0  0  0  0  0  0  0  0  0  0
    8.0097  -20.0610   26.5641 C   0  0  0  0  0  0  0  0  0  0  0  0
    7.6240  -19.4242   27.7215 C   0  0  0  0  0  0  0  0  0  0  0  0
    7.9022  -20.2025   28.7977 N   0  0  0  0  0  0  0  0  0  0  0  0
    8.4605  -21.3216   28.3131 C   0  0  0  0  0  0  0  0  0  0  0  0
    8.5294  -21.2465   26.9755 N   0  0  0  0  0  0  0  0  0  0  0  0
    8.0828  -17.0537   25.5235 C   0  0  0  0  0  0  0  0  0  0  0  0
    9.1707  -16.7207   24.9410 O   0  0  0  0  0  0  0  0  0  0  0  0
    5.7321  -12.7388   27.9264 C   0  0  0  0  0  0  0  0  0  0  0  0
    6.6992  -13.5257   27.0342 C   0  0  0  0  0  0  0  0  0  0  0  0
    7.8278  -14.0964   27.8431 C   0  0  2  0  0  0  0  0  0  0  0  0
    8.7588  -12.9765   28.2199 C   0  0  0  0  0  0  0  0  0  0  0  0
    8.6129  -15.1697   27.1240 C   0  0  2  0  0  0  0  0  0  0  0  0
    7.7277  -16.2298   26.6532 N   0  0  0  0  0  0  0  0  0  0  0  0
    9.7851  -15.6549   27.8570 C   0  0  0  0  0  0  0  0  0  0  0  0
   10.9891  -15.0026   27.9580 O   0  0  0  0  0  0  0  0  0  0  0  0
    9.7083  -16.7674   28.4550 O   0  0  0  0  0  0  0  0  0  0  0  0
  2  1  1  6
  3  2  1  0
  4  3  1  0
  5  4  2  0
  6  7  1  0
  6  5  1  0
  7 12  2  0
  8  9  2  0
  8  7  1  0
  9 10  1  0
 10 11  2  0
 12 11  1  0
 12  4  1  0
 13  2  1  0
 13 14  2  0
 15 13  1  0
 16 15  1  0
 16 17  1  6
 18 17  1  0
 19 18  2  0
 20 21  1  0
 20 19  1  0
 21 22  2  0
 22 18  1  0
 23 16  1  0
 24 23  2  0
 26 25  1  0
 27 26  1  0
 27 28  1  6
 29 27  1  0
 29 30  1  1
 30 23  1  0
 31 29  1  0
 32 31  1  0
 33 31  2  0
M  END
$$$$
