WHI.pdb
     RDKit          3D

 33 35  0  0  1  0  0  0  0  0999 V2000
    6.1623  -18.0557   24.0503 N   0  0  0  0  0  0  0  0  0  0  0  0
    7.0472  -16.9450   24.2049 C   0  0  1  0  0  0  0  0  0  0  0  0
    7.0892  -16.4877   25.6242 C   0  0  0  0  0  0  0  0  0  0  0  0
    6.3408  -15.2340   25.7793 C   0  0  0  0  0  0  0  0  0  0  0  0
    5.0273  -15.1328   26.2626 C   0  0  0  0  0  0  0  0  0  0  0  0
    4.6697  -13.8554   26.3079 N   0  0  0  0  0  0  0  0  0  0  0  0
    5.6916  -13.0970   25.8731 C   0  0  0  0  0  0  0  0  0  0  0  0
    5.7995  -11.7149   25.7299 C   0  0  0  0  0  0  0  0  0  0  0  0
    6.9766  -11.1962   25.2452 C   0  0  0  0  0  0  0  0  0  0  0  0
    8.0268  -12.0205   24.9073 C   0  0  0  0  0  0  0  0  0  0  0  0
    7.9203  -13.4059   25.0507 C   0  0  0  0  0  0  0  0  0  0  0  0
    6.7324  -13.9223   25.5409 C   0  0  0  0  0  0  0  0  0  0  0  0
    8.3926  -17.3373   23.6948 C   0  0  0  0  0  0  0  0  0  0  0  0
    8.7168  -18.5718   23.6045 O   0  0  0  0  0  0  0  0  0  0  0  0
    9.3735  -16.4174   23.2876 N   0  0  0  0  0  0  0  0  0  0  0  0
   10.7579  -16.8242   22.9420 C   0  0  1  0  0  0  0  0  0  0  0  0
   11.1217  -15.9463   21.7888 C   0  0  0  0  0  0  0  0  0  0  0  0
   10.2965  -16.0752   20.5808 C   0  0  0  0  0  0  0  0  0  0  0  0
    9.1790  -15.3399   20.2579 C   0  0  0  0  0  0  0  0  0  0  0  0
    8.6656  -15.7652   19.0759 N   0  0  0  0  0  0  0  0  0  0  0  0
    9.4604  -16.7636   18.6629 C   0  0  0  0  0  0  0  0  0  0  0  0
   10.4407  -16.9571   19.5579 N   0  0  0  0  0  0  0  0  0  0  0  0
   11.5381  -16.6472   24.1708 C   0  0  0  0  0  0  0  0  0  0  0  0
   12.8096  -16.7771   24.1564 O   0  0  0  0  0  0  0  0  0  0  0  0
    9.4599  -14.3765   29.0687 C   0  0  0  0  0  0  0  0  0  0  0  0
    9.8914  -15.4559   28.0691 C   0  0  0  0  0  0  0  0  0  0  0  0
   11.3105  -15.2401   27.6293 C   0  0  2  0  0  0  0  0  0  0  0  0
   11.4103  -13.8828   26.9884 C   0  0  0  0  0  0  0  0  0  0  0  0
   11.8141  -16.2828   26.6574 C   0  0  2  0  0  0  0  0  0  0  0  0
   10.9807  -16.3185   25.4601 N   0  0  0  0  0  0  0  0  0  0  0  0
   12.0552  -17.5990   27.2541 C   0  0  0  0  0  0  0  0  0  0  0  0
   11.5111  -18.7830   26.8213 O   0  0  0  0  0  0  0  0  0  0  0  0
   12.8248  -17.6787   28.2555 O   0  0  0  0  0  0  0  0  0  0  0  0
  2  1  1  1
  3  2  1  0
  4  3  1  0
  5  4  2  0
  6  7  1  0
  6  5  1  0
  7 12  2  0
  8  9  2  0
  8  7  1  0
  9 10  1  0
 10 11  2  0
 12 11  1  0
 12  4  1  0
 13  2  1  0
 13 14  2  0
 15 13  1  0
 16 15  1  0
 16 17  1  6
 18 17  1  0
 19 18  2  0
 20 21  1  0
 20 19  1  0
 21 22  2  0
 22 18  1  0
 23 16  1  0
 24 23  2  0
 26 25  1  0
 27 26  1  0
 27 28  1  6
 29 27  1  0
 29 30  1  6
 30 23  1  0
 31 29  1  0
 32 31  1  0
 33 31  2  0
M  END
$$$$
