WHI.pdb
     RDKit          3D

 33 35  0  0  1  0  0  0  0  0999 V2000
    8.9508  -15.9602   21.0936 N   0  0  0  0  0  0  0  0  0  0  0  0
    8.8988  -16.1612   22.5070 C   0  0  1  0  0  0  0  0  0  0  0  0
    7.5175  -15.9460   23.0276 C   0  0  0  0  0  0  0  0  0  0  0  0
    7.1508  -14.5274   22.9320 C   0  0  0  0  0  0  0  0  0  0  0  0
    6.8658  -13.8463   21.7386 C   0  0  0  0  0  0  0  0  0  0  0  0
    6.5372  -12.5901   22.0138 N   0  0  0  0  0  0  0  0  0  0  0  0
    6.5917  -12.4027   23.3443 C   0  0  0  0  0  0  0  0  0  0  0  0
    6.3430  -11.2663   24.1119 C   0  0  0  0  0  0  0  0  0  0  0  0
    6.4850  -11.3532   25.4764 C   0  0  0  0  0  0  0  0  0  0  0  0
    6.8648  -12.5342   26.0744 C   0  0  0  0  0  0  0  0  0  0  0  0
    7.1140  -13.6741   25.3065 C   0  0  0  0  0  0  0  0  0  0  0  0
    6.9678  -13.5806   23.9325 C   0  0  0  0  0  0  0  0  0  0  0  0
    9.4131  -17.5278   22.8099 C   0  0  0  0  0  0  0  0  0  0  0  0
    9.2695  -18.4767   21.9636 O   0  0  0  0  0  0  0  0  0  0  0  0
   10.0722  -17.8689   24.0030 N   0  0  0  0  0  0  0  0  0  0  0  0
   11.5396  -17.7312   24.1743 C   0  0  1  0  0  0  0  0  0  0  0  0
   11.9358  -16.7193   23.1485 C   0  0  0  0  0  0  0  0  0  0  0  0
   12.2877  -17.2361   21.8197 C   0  0  0  0  0  0  0  0  0  0  0  0
   13.1977  -18.2270   21.5299 C   0  0  0  0  0  0  0  0  0  0  0  0
   13.2761  -18.4111   20.1877 N   0  0  0  0  0  0  0  0  0  0  0  0
   12.4179  -17.5368   19.6416 C   0  0  0  0  0  0  0  0  0  0  0  0
   11.8207  -16.8279   20.6114 N   0  0  0  0  0  0  0  0  0  0  0  0
   11.7379  -17.3531   25.5771 C   0  0  0  0  0  0  0  0  0  0  0  0
   12.8838  -16.9636   25.9882 O   0  0  0  0  0  0  0  0  0  0  0  0
    9.0953  -13.6224   27.7710 C   0  0  0  0  0  0  0  0  0  0  0  0
   10.0469  -14.7387   27.3248 C   0  0  0  0  0  0  0  0  0  0  0  0
   10.1510  -15.8041   28.3773 C   0  0  2  0  0  0  0  0  0  0  0  0
   10.7353  -15.1913   29.6206 C   0  0  0  0  0  0  0  0  0  0  0  0
   10.9969  -16.9878   27.9665 C   0  0  2  0  0  0  0  0  0  0  0  0
   10.7101  -17.3747   26.5891 N   0  0  0  0  0  0  0  0  0  0  0  0
   10.9756  -18.1043   28.9151 C   0  0  0  0  0  0  0  0  0  0  0  0
   11.8647  -18.2941   29.9440 O   0  0  0  0  0  0  0  0  0  0  0  0
   10.0725  -18.9829   28.7970 O   0  0  0  0  0  0  0  0  0  0  0  0
  2  1  1  6
  3  2  1  0
  4  3  1  0
  5  4  2  0
  6  7  1  0
  6  5  1  0
  7 12  2  0
  8  9  2  0
  8  7  1  0
  9 10  1  0
 10 11  2  0
 12 11  1  0
 12  4  1  0
 13  2  1  0
 13 14  2  0
 15 13  1  0
 16 15  1  0
 16 17  1  6
 18 17  1  0
 19 18  2  0
 20 21  1  0
 20 19  1  0
 21 22  2  0
 22 18  1  0
 23 16  1  0
 24 23  2  0
 26 25  1  0
 27 26  1  0
 27 28  1  1
 29 27  1  0
 29 30  1  6
 30 23  1  0
 31 29  1  0
 32 31  1  0
 33 31  2  0
M  END
$$$$
