WHI.pdb
     RDKit          3D

 33 35  0  0  1  0  0  0  0  0999 V2000
    6.6600  -18.5366   23.7462 N   0  0  0  0  0  0  0  0  0  0  0  0
    7.4223  -17.8153   22.7770 C   0  0  1  0  0  0  0  0  0  0  0  0
    6.8777  -16.4400   22.5836 C   0  0  0  0  0  0  0  0  0  0  0  0
    6.6154  -15.8071   23.8824 C   0  0  0  0  0  0  0  0  0  0  0  0
    6.0526  -16.4512   24.9948 C   0  0  0  0  0  0  0  0  0  0  0  0
    5.9883  -15.6014   26.0123 N   0  0  0  0  0  0  0  0  0  0  0  0
    6.4849  -14.4132   25.6250 C   0  0  0  0  0  0  0  0  0  0  0  0
    6.6246  -13.2161   26.3250 C   0  0  0  0  0  0  0  0  0  0  0  0
    7.1656  -12.1343   25.6716 C   0  0  0  0  0  0  0  0  0  0  0  0
    7.5607  -12.2278   24.3557 C   0  0  0  0  0  0  0  0  0  0  0  0
    7.4217  -13.4270   23.6530 C   0  0  0  0  0  0  0  0  0  0  0  0
    6.8774  -14.5136   24.3171 C   0  0  0  0  0  0  0  0  0  0  0  0
    8.8495  -17.8051   23.2096 C   0  0  0  0  0  0  0  0  0  0  0  0
    9.3182  -18.7607   23.9199 O   0  0  0  0  0  0  0  0  0  0  0  0
    9.7585  -16.7847   22.8832 N   0  0  0  0  0  0  0  0  0  0  0  0
   11.2288  -16.9657   22.9672 C   0  0  1  0  0  0  0  0  0  0  0  0
   11.7733  -16.0336   21.9339 C   0  0  0  0  0  0  0  0  0  0  0  0
   11.5437  -16.4032   20.5313 C   0  0  0  0  0  0  0  0  0  0  0  0
   10.9933  -17.5740   20.0619 C   0  0  0  0  0  0  0  0  0  0  0  0
   10.9700  -17.5682   18.7051 N   0  0  0  0  0  0  0  0  0  0  0  0
   11.5051  -16.3971   18.3290 C   0  0  0  0  0  0  0  0  0  0  0  0
   11.8522  -15.6919   19.4161 N   0  0  0  0  0  0  0  0  0  0  0  0
   11.5817  -16.6763   24.3606 C   0  0  0  0  0  0  0  0  0  0  0  0
   12.8059  -16.6473   24.7273 O   0  0  0  0  0  0  0  0  0  0  0  0
   10.3084  -13.1943   29.1551 C   0  0  0  0  0  0  0  0  0  0  0  0
   10.9609  -14.4990   28.6835 C   0  0  0  0  0  0  0  0  0  0  0  0
   10.5462  -14.8262   27.2783 C   0  0  2  0  0  0  0  0  0  0  0  0
    9.0433  -14.8352   27.2141 C   0  0  0  0  0  0  0  0  0  0  0  0
   11.0691  -16.1545   26.7807 C   0  0  2  0  0  0  0  0  0  0  0  0
   10.6316  -16.4018   25.4108 N   0  0  0  0  0  0  0  0  0  0  0  0
   10.8333  -17.2769   27.6925 C   0  0  0  0  0  0  0  0  0  0  0  0
   11.4202  -17.4422   28.9227 O   0  0  0  0  0  0  0  0  0  0  0  0
   10.0262  -18.1854   27.3395 O   0  0  0  0  0  0  0  0  0  0  0  0
  2  1  1  1
  3  2  1  0
  4  3  1  0
  5  4  2  0
  6  7  1  0
  6  5  1  0
  7 12  2  0
  8  9  2  0
  8  7  1  0
  9 10  1  0
 10 11  2  0
 12 11  1  0
 12  4  1  0
 13  2  1  0
 13 14  2  0
 15 13  1  0
 16 15  1  0
 16 17  1  6
 18 17  1  0
 19 18  2  0
 20 21  1  0
 20 19  1  0
 21 22  2  0
 22 18  1  0
 23 16  1  0
 24 23  2  0
 26 25  1  0
 27 26  1  0
 27 28  1  1
 29 27  1  0
 29 30  1  6
 30 23  1  0
 31 29  1  0
 32 31  1  0
 33 31  2  0
M  END
$$$$
