EPI.pdb
     RDKit          3D

 25 25  0  0  1  0  0  0  0  0999 V2000
   24.0590  -17.9518  -15.1309 N   0  0  0  0  0  0  0  0  0  0  0  0
   25.3755  -18.2191  -14.7018 C   0  0  1  0  0  0  0  0  0  0  0  0
   26.1697  -17.0386  -14.2100 C   0  0  0  0  0  0  0  0  0  0  0  0
   26.3369  -15.9049  -15.1404 C   0  0  0  0  0  0  0  0  0  0  0  0
   27.1256  -16.1793  -16.3436 C   0  0  0  0  0  0  0  0  0  0  0  0
   26.5005  -16.2407  -17.4558 O   0  0  0  0  0  0  0  0  0  0  0  0
   25.6167  -19.4367  -13.9183 C   0  0  0  0  0  0  0  0  0  0  0  0
   24.5294  -20.0043  -13.4941 O   0  0  0  0  0  0  0  0  0  0  0  0
   28.4879  -16.3798  -16.4161 O   0  0  0  0  0  0  0  0  0  0  0  0
   26.8042  -20.0669  -13.5605 N   0  0  0  0  0  0  0  0  0  0  0  0
   28.1294  -19.5381  -13.5156 C   0  0  0  0  0  0  0  0  0  0  0  0
   29.0171  -20.7446  -13.7360 C   0  0  0  0  0  0  0  0  0  0  0  0
   28.1164  -21.9350  -13.8236 C   0  0  0  0  0  0  0  0  0  0  0  0
   26.8917  -21.4435  -13.1004 C   0  0  1  0  0  0  0  0  0  0  0  0
   27.0968  -21.5244  -11.6413 C   0  0  0  0  0  0  0  0  0  0  0  0
   27.7976  -22.3589  -11.0382 O   0  0  0  0  0  0  0  0  0  0  0  0
   28.0464  -19.6357   -6.5057 C   0  0  0  0  0  0  0  0  0  0  0  0
   26.6778  -19.8170   -7.1377 C   0  0  0  0  0  0  0  0  0  0  0  0
   26.8491  -19.5814   -8.6348 C   0  0  2  0  0  0  0  0  0  0  0  0
   26.1388  -18.2875   -8.9891 C   0  0  0  0  0  0  0  0  0  0  0  0
   26.2673  -20.7518   -9.4149 C   0  0  2  0  0  0  0  0  0  0  0  0
   26.4245  -20.5478  -10.8456 N   0  0  0  0  0  0  0  0  0  0  0  0
   24.7836  -20.7319   -9.1414 C   0  0  0  0  0  0  0  0  0  0  0  0
   23.8797  -20.2991  -10.1007 O   0  0  0  0  0  0  0  0  0  0  0  0
   24.3163  -21.1063   -8.0366 O   0  0  0  0  0  0  0  0  0  0  0  0
  2  7  1  0
  2  1  1  1
  3  2  1  0
  4  3  1  0
  5  9  1  0
  5  4  1  0
  6  5  2  0
  7  8  2  0
 10 14  1  0
 10  7  1  0
 11 10  1  0
 12 11  1  0
 12 13  1  0
 13 14  1  0
 15 22  1  0
 14 15  1  1
 16 15  2  0
 17 18  1  0
 19 18  1  0
 19 20  1  6
 21 22  1  6
 21 19  1  0
 23 21  1  0
 24 23  1  0
 25 23  2  0
M  END
$$$$
