EPI.pdb
     RDKit          3D

 25 25  0  0  1  0  0  0  0  0999 V2000
   22.9675  -21.4243  -15.4313 N   0  0  0  0  0  0  0  0  0  0  0  0
   22.0188  -20.6549  -14.7265 C   0  0  1  0  0  0  0  0  0  0  0  0
   20.9293  -20.0212  -15.5496 C   0  0  0  0  0  0  0  0  0  0  0  0
   19.9058  -20.9200  -16.1181 C   0  0  0  0  0  0  0  0  0  0  0  0
   18.5268  -20.6614  -15.6981 C   0  0  0  0  0  0  0  0  0  0  0  0
   17.9263  -21.5835  -15.0495 O   0  0  0  0  0  0  0  0  0  0  0  0
   21.5393  -21.1580  -13.4336 C   0  0  0  0  0  0  0  0  0  0  0  0
   21.8744  -22.3898  -13.1998 O   0  0  0  0  0  0  0  0  0  0  0  0
   17.7904  -19.5177  -15.9233 O   0  0  0  0  0  0  0  0  0  0  0  0
   20.7925  -20.5374  -12.4373 N   0  0  0  0  0  0  0  0  0  0  0  0
   20.0747  -19.3044  -12.4822 C   0  0  0  0  0  0  0  0  0  0  0  0
   20.0626  -18.8304  -11.0443 C   0  0  0  0  0  0  0  0  0  0  0  0
   20.7331  -19.8923  -10.2325 C   0  0  0  0  0  0  0  0  0  0  0  0
   20.5679  -21.0997  -11.1153 C   0  0  1  0  0  0  0  0  0  0  0  0
   19.2054  -21.6489  -10.9747 C   0  0  0  0  0  0  0  0  0  0  0  0
   18.2399  -21.4343  -11.7316 O   0  0  0  0  0  0  0  0  0  0  0  0
   18.5584  -24.9784   -6.4619 C   0  0  0  0  0  0  0  0  0  0  0  0
   18.3779  -23.8626   -7.4758 C   0  0  0  0  0  0  0  0  0  0  0  0
   18.0608  -24.5277   -8.8111 C   0  0  2  0  0  0  0  0  0  0  0  0
   19.2083  -25.4606   -9.1535 C   0  0  0  0  0  0  0  0  0  0  0  0
   17.8814  -23.4686   -9.8896 C   0  0  2  0  0  0  0  0  0  0  0  0
   18.9752  -22.5116   -9.8604 N   0  0  0  0  0  0  0  0  0  0  0  0
   16.6358  -22.7048   -9.5133 C   0  0  0  0  0  0  0  0  0  0  0  0
   15.3742  -23.2581   -9.6770 O   0  0  0  0  0  0  0  0  0  0  0  0
   16.6983  -21.5426   -9.0394 O   0  0  0  0  0  0  0  0  0  0  0  0
  2  7  1  0
  2  1  1  6
  3  2  1  0
  4  3  1  0
  5  9  1  0
  5  4  1  0
  6  5  2  0
  7  8  2  0
 10 14  1  0
 10  7  1  0
 11 10  1  0
 12 11  1  0
 12 13  1  0
 13 14  1  0
 15 22  1  0
 14 15  1  6
 16 15  2  0
 17 18  1  0
 19 18  1  0
 19 20  1  6
 21 22  1  1
 21 19  1  0
 23 21  1  0
 24 23  1  0
 25 23  2  0
M  END
$$$$
