EPI.pdb
     RDKit          3D

 25 25  0  0  1  0  0  0  0  0999 V2000
   23.5783  -20.2911  -17.1220 N   0  0  0  0  0  0  0  0  0  0  0  0
   24.6534  -19.7516  -16.3859 C   0  0  1  0  0  0  0  0  0  0  0  0
   24.7790  -18.2515  -16.3903 C   0  0  0  0  0  0  0  0  0  0  0  0
   24.7003  -17.5731  -17.6989 C   0  0  0  0  0  0  0  0  0  0  0  0
   24.6922  -16.1091  -17.6579 C   0  0  0  0  0  0  0  0  0  0  0  0
   23.5608  -15.5302  -17.5309 O   0  0  0  0  0  0  0  0  0  0  0  0
   24.9712  -20.3481  -15.0829 C   0  0  0  0  0  0  0  0  0  0  0  0
   23.9666  -20.9586  -14.5331 O   0  0  0  0  0  0  0  0  0  0  0  0
   25.7831  -15.2698  -17.7393 O   0  0  0  0  0  0  0  0  0  0  0  0
   26.1558  -20.3602  -14.3536 N   0  0  0  0  0  0  0  0  0  0  0  0
   27.3654  -19.6378  -14.5835 C   0  0  0  0  0  0  0  0  0  0  0  0
   28.4388  -20.5057  -13.9615 C   0  0  0  0  0  0  0  0  0  0  0  0
   27.7436  -21.6707  -13.3326 C   0  0  0  0  0  0  0  0  0  0  0  0
   26.3555  -21.1249  -13.1331 C   0  0  1  0  0  0  0  0  0  0  0  0
   26.3148  -20.2671  -11.9329 C   0  0  0  0  0  0  0  0  0  0  0  0
   26.7249  -19.0941  -11.8481 O   0  0  0  0  0  0  0  0  0  0  0  0
   22.9532  -22.2181   -7.7979 C   0  0  0  0  0  0  0  0  0  0  0  0
   24.2951  -21.8644   -8.4140 C   0  0  0  0  0  0  0  0  0  0  0  0
   24.1854  -20.4277   -8.9141 C   0  0  2  0  0  0  0  0  0  0  0  0
   23.0217  -20.3583   -9.8864 C   0  0  0  0  0  0  0  0  0  0  0  0
   25.4842  -20.0123   -9.5905 C   0  0  2  0  0  0  0  0  0  0  0  0
   25.7480  -20.8416  -10.7549 N   0  0  0  0  0  0  0  0  0  0  0  0
   26.5795  -20.3107   -8.5969 C   0  0  0  0  0  0  0  0  0  0  0  0
   26.7964  -19.4942   -7.4964 O   0  0  0  0  0  0  0  0  0  0  0  0
   27.3323  -21.3079   -8.7318 O   0  0  0  0  0  0  0  0  0  0  0  0
  2  7  1  0
  2  1  1  1
  3  2  1  0
  4  3  1  0
  5  9  1  0
  5  4  1  0
  6  5  2  0
  7  8  2  0
 10 14  1  0
 10  7  1  0
 11 10  1  0
 12 11  1  0
 12 13  1  0
 13 14  1  0
 15 22  1  0
 14 15  1  1
 16 15  2  0
 17 18  1  0
 19 18  1  0
 19 20  1  6
 21 22  1  6
 21 19  1  0
 23 21  1  0
 24 23  1  0
 25 23  2  0
M  END
$$$$
