EPI.pdb
     RDKit          3D

 25 25  0  0  1  0  0  0  0  0999 V2000
   14.8239  -24.6848    0.5638 N   0  0  0  0  0  0  0  0  0  0  0  0
   15.1835  -23.3214    0.5875 C   0  0  1  0  0  0  0  0  0  0  0  0
   14.5344  -22.4419   -0.4477 C   0  0  0  0  0  0  0  0  0  0  0  0
   14.7129  -22.8231   -1.8625 C   0  0  0  0  0  0  0  0  0  0  0  0
   13.5800  -22.5395   -2.7463 C   0  0  0  0  0  0  0  0  0  0  0  0
   13.2260  -23.4563   -3.5621 O   0  0  0  0  0  0  0  0  0  0  0  0
   15.3218  -22.6624    1.8919 C   0  0  0  0  0  0  0  0  0  0  0  0
   14.5525  -23.1624    2.8097 O   0  0  0  0  0  0  0  0  0  0  0  0
   12.8374  -21.3789   -2.7986 O   0  0  0  0  0  0  0  0  0  0  0  0
   16.1292  -21.6032    2.2939 N   0  0  0  0  0  0  0  0  0  0  0  0
   16.9665  -20.7565    1.5068 C   0  0  0  0  0  0  0  0  0  0  0  0
   18.0452  -20.3051    2.4685 C   0  0  0  0  0  0  0  0  0  0  0  0
   17.7040  -20.8833    3.8046 C   0  0  0  0  0  0  0  0  0  0  0  0
   16.2253  -21.1238    3.6632 C   0  0  1  0  0  0  0  0  0  0  0  0
   15.4847  -19.8624    3.8583 C   0  0  0  0  0  0  0  0  0  0  0  0
   15.2748  -18.9874    2.9972 O   0  0  0  0  0  0  0  0  0  0  0  0
   11.5105  -20.5096    7.5085 C   0  0  0  0  0  0  0  0  0  0  0  0
   12.3185  -20.1898    6.2633 C   0  0  0  0  0  0  0  0  0  0  0  0
   13.0727  -18.8951    6.5480 C   0  0  2  0  0  0  0  0  0  0  0  0
   12.0491  -17.7950    6.7636 C   0  0  0  0  0  0  0  0  0  0  0  0
   13.9912  -18.5614    5.3809 C   0  0  2  0  0  0  0  0  0  0  0  0
   14.9577  -19.6253    5.1641 N   0  0  0  0  0  0  0  0  0  0  0  0
   14.7799  -17.3494    5.8114 C   0  0  0  0  0  0  0  0  0  0  0  0
   14.3418  -16.0650    5.5233 O   0  0  0  0  0  0  0  0  0  0  0  0
   15.8595  -17.4616    6.4448 O   0  0  0  0  0  0  0  0  0  0  0  0
  2  7  1  0
  2  1  1  1
  3  2  1  0
  4  3  1  0
  5  9  1  0
  5  4  1  0
  6  5  2  0
  7  8  2  0
 10 14  1  0
 10  7  1  0
 11 10  1  0
 12 11  1  0
 12 13  1  0
 13 14  1  0
 15 22  1  0
 14 15  1  6
 16 15  2  0
 17 18  1  0
 19 18  1  0
 19 20  1  6
 21 22  1  1
 21 19  1  0
 23 21  1  0
 24 23  1  0
 25 23  2  0
M  END
$$$$
