EPI.pdb
     RDKit          3D

 25 25  0  0  1  0  0  0  0  0999 V2000
   27.5833  -22.6246  -17.7827 N   0  0  0  0  0  0  0  0  0  0  0  0
   26.9226  -21.4364  -17.4080 C   0  0  1  0  0  0  0  0  0  0  0  0
   25.5366  -21.2403  -17.9618 C   0  0  0  0  0  0  0  0  0  0  0  0
   25.2151  -21.9245  -19.2296 C   0  0  0  0  0  0  0  0  0  0  0  0
   23.8621  -22.4761  -19.3305 C   0  0  0  0  0  0  0  0  0  0  0  0
   22.8952  -21.6480  -19.4337 O   0  0  0  0  0  0  0  0  0  0  0  0
   27.0538  -20.9772  -16.0199 C   0  0  0  0  0  0  0  0  0  0  0  0
   27.6613  -21.8256  -15.2483 O   0  0  0  0  0  0  0  0  0  0  0  0
   23.5058  -23.8080  -19.3295 O   0  0  0  0  0  0  0  0  0  0  0  0
   26.6350  -19.7998  -15.4087 N   0  0  0  0  0  0  0  0  0  0  0  0
   25.8102  -18.7567  -15.9277 C   0  0  0  0  0  0  0  0  0  0  0  0
   26.2454  -17.5251  -15.1623 C   0  0  0  0  0  0  0  0  0  0  0  0
   27.2736  -17.9711  -14.1724 C   0  0  0  0  0  0  0  0  0  0  0  0
   26.9508  -19.4347  -14.0372 C   0  0  1  0  0  0  0  0  0  0  0  0
   25.7952  -19.6189  -13.1382 C   0  0  0  0  0  0  0  0  0  0  0  0
   24.5937  -19.6079  -13.4665 O   0  0  0  0  0  0  0  0  0  0  0  0
   26.4292  -19.9413   -7.4604 C   0  0  0  0  0  0  0  0  0  0  0  0
   25.9482  -19.6645   -8.8737 C   0  0  0  0  0  0  0  0  0  0  0  0
   25.9476  -21.0009   -9.6086 C   0  0  2  0  0  0  0  0  0  0  0  0
   27.3822  -21.4901   -9.6914 C   0  0  0  0  0  0  0  0  0  0  0  0
   25.3509  -20.8295  -10.9984 C   0  0  2  0  0  0  0  0  0  0  0  0
   26.0868  -19.8312  -11.7566 N   0  0  0  0  0  0  0  0  0  0  0  0
   23.9664  -20.2689  -10.7857 C   0  0  0  0  0  0  0  0  0  0  0  0
   22.9309  -21.0646  -10.3175 O   0  0  0  0  0  0  0  0  0  0  0  0
   23.7040  -19.0635  -11.0251 O   0  0  0  0  0  0  0  0  0  0  0  0
  2  7  1  0
  2  1  1  1
  3  2  1  0
  4  3  1  0
  5  9  1  0
  5  4  1  0
  6  5  2  0
  7  8  2  0
 10 14  1  0
 10  7  1  0
 11 10  1  0
 12 11  1  0
 12 13  1  0
 13 14  1  0
 15 22  1  0
 14 15  1  1
 16 15  2  0
 17 18  1  0
 19 18  1  0
 19 20  1  6
 21 22  1  6
 21 19  1  0
 23 21  1  0
 24 23  1  0
 25 23  2  0
M  END
$$$$
