EPI.pdb
     RDKit          3D

 25 25  0  0  1  0  0  0  0  0999 V2000
   27.3683  -18.0942  -15.6572 N   0  0  0  0  0  0  0  0  0  0  0  0
   27.3707  -19.3087  -14.9405 C   0  0  1  0  0  0  0  0  0  0  0  0
   28.6701  -20.0686  -14.9195 C   0  0  0  0  0  0  0  0  0  0  0  0
   29.3227  -20.3222  -16.2189 C   0  0  0  0  0  0  0  0  0  0  0  0
   28.7680  -21.4260  -17.0056 C   0  0  0  0  0  0  0  0  0  0  0  0
   28.8930  -22.6062  -16.5335 O   0  0  0  0  0  0  0  0  0  0  0  0
   26.6580  -19.3596  -13.6583 C   0  0  0  0  0  0  0  0  0  0  0  0
   26.9671  -18.3889  -12.8542 O   0  0  0  0  0  0  0  0  0  0  0  0
   28.1133  -21.3367  -18.2158 O   0  0  0  0  0  0  0  0  0  0  0  0
   25.7228  -20.2685  -13.1737 N   0  0  0  0  0  0  0  0  0  0  0  0
   25.3367  -21.5363  -13.7041 C   0  0  0  0  0  0  0  0  0  0  0  0
   23.9155  -21.7240  -13.2169 C   0  0  0  0  0  0  0  0  0  0  0  0
   23.5951  -20.5472  -12.3518 C   0  0  0  0  0  0  0  0  0  0  0  0
   24.9684  -20.0865  -11.9441 C   0  0  1  0  0  0  0  0  0  0  0  0
   25.4844  -20.9332  -10.8511 C   0  0  0  0  0  0  0  0  0  0  0  0
   25.8186  -22.1299  -10.9374 O   0  0  0  0  0  0  0  0  0  0  0  0
   27.5339  -18.3563   -6.2603 C   0  0  0  0  0  0  0  0  0  0  0  0
   26.5178  -18.9775   -7.2023 C   0  0  0  0  0  0  0  0  0  0  0  0
   27.0604  -20.3480   -7.5939 C   0  0  2  0  0  0  0  0  0  0  0  0
   28.3361  -20.1365   -8.3891 C   0  0  0  0  0  0  0  0  0  0  0  0
   26.0251  -21.1007   -8.4177 C   0  0  2  0  0  0  0  0  0  0  0  0
   25.6124  -20.3161   -9.5698 N   0  0  0  0  0  0  0  0  0  0  0  0
   24.8103  -21.2310   -7.5326 C   0  0  0  0  0  0  0  0  0  0  0  0
   23.6452  -20.5270   -7.7997 O   0  0  0  0  0  0  0  0  0  0  0  0
   24.8122  -21.9808   -6.5241 O   0  0  0  0  0  0  0  0  0  0  0  0
  2  7  1  0
  2  1  1  1
  3  2  1  0
  4  3  1  0
  5  9  1  0
  5  4  1  0
  6  5  2  0
  7  8  2  0
 10 14  1  0
 10  7  1  0
 11 10  1  0
 12 11  1  0
 12 13  1  0
 13 14  1  0
 15 22  1  0
 14 15  1  1
 16 15  2  0
 17 18  1  0
 19 18  1  0
 19 20  1  6
 21 22  1  6
 21 19  1  0
 23 21  1  0
 24 23  1  0
 25 23  2  0
M  END
$$$$
