EPI.pdb
     RDKit          3D

 25 25  0  0  1  0  0  0  0  0999 V2000
   19.2236  -14.9587  -19.2721 N   0  0  0  0  0  0  0  0  0  0  0  0
   18.5404  -13.8893  -18.6571 C   0  0  1  0  0  0  0  0  0  0  0  0
   17.7212  -14.2317  -17.4415 C   0  0  0  0  0  0  0  0  0  0  0  0
   16.9337  -15.4792  -17.4898 C   0  0  0  0  0  0  0  0  0  0  0  0
   16.1470  -15.7827  -16.2923 C   0  0  0  0  0  0  0  0  0  0  0  0
   15.4335  -16.8420  -16.3097 O   0  0  0  0  0  0  0  0  0  0  0  0
   19.2336  -12.6011  -18.5350 C   0  0  0  0  0  0  0  0  0  0  0  0
   20.5271  -12.7047  -18.5513 O   0  0  0  0  0  0  0  0  0  0  0  0
   16.0888  -15.0464  -15.1280 O   0  0  0  0  0  0  0  0  0  0  0  0
   18.7343  -11.3094  -18.4031 N   0  0  0  0  0  0  0  0  0  0  0  0
   17.3790  -10.8690  -18.3194 C   0  0  0  0  0  0  0  0  0  0  0  0
   17.4146   -9.4562  -18.8624 C   0  0  0  0  0  0  0  0  0  0  0  0
   18.8455   -9.1440  -19.1642 C   0  0  0  0  0  0  0  0  0  0  0  0
   19.5643  -10.1223  -18.2751 C   0  0  1  0  0  0  0  0  0  0  0  0
   19.5960   -9.6196  -16.8880 C   0  0  0  0  0  0  0  0  0  0  0  0
   18.7381   -9.8223  -16.0082 O   0  0  0  0  0  0  0  0  0  0  0  0
   24.0102  -11.1360  -14.9621 C   0  0  0  0  0  0  0  0  0  0  0  0
   22.5948  -10.6816  -15.2715 C   0  0  0  0  0  0  0  0  0  0  0  0
   22.5132   -9.2062  -14.8937 C   0  0  2  0  0  0  0  0  0  0  0  0
   22.9067   -9.0746  -13.4335 C   0  0  0  0  0  0  0  0  0  0  0  0
   21.1007   -8.6880  -15.1246 C   0  0  2  0  0  0  0  0  0  0  0  0
   20.7232   -8.8232  -16.5219 N   0  0  0  0  0  0  0  0  0  0  0  0
   21.1534   -7.2077  -14.8379 C   0  0  0  0  0  0  0  0  0  0  0  0
   20.7718   -6.6984  -13.6052 O   0  0  0  0  0  0  0  0  0  0  0  0
   21.5442   -6.3862  -15.7049 O   0  0  0  0  0  0  0  0  0  0  0  0
  2  7  1  0
  2  1  1  1
  3  2  1  0
  4  3  1  0
  5  9  1  0
  5  4  1  0
  6  5  2  0
  7  8  2  0
 10 14  1  0
 10  7  1  0
 11 10  1  0
 12 11  1  0
 12 13  1  0
 13 14  1  0
 15 22  1  0
 14 15  1  1
 16 15  2  0
 17 18  1  0
 19 18  1  0
 19 20  1  1
 21 22  1  6
 21 19  1  0
 23 21  1  0
 24 23  1  0
 25 23  2  0
M  END
$$$$
