DRF.pdb
     RDKit          3D

 31 31  0  0  1  0  0  0  0  0999 V2000
   21.9433  -21.2951  -12.8684 N   0  0  0  0  0  0  0  0  0  0  0  0
   21.7010  -20.3766  -13.9514 C   0  0  1  0  0  0  0  0  0  0  0  0
   20.7982  -19.2335  -13.5438 C   0  0  0  0  0  0  0  0  0  0  0  0
   19.4828  -19.7580  -13.1203 C   0  0  0  0  0  0  0  0  0  0  0  0
   19.1193  -20.9188  -13.4050 O   0  0  0  0  0  0  0  0  0  0  0  0
   23.0201  -19.8529  -14.3932 C   0  0  0  0  0  0  0  0  0  0  0  0
   23.8920  -19.4474  -13.5875 O   0  0  0  0  0  0  0  0  0  0  0  0
   18.6335  -18.9492  -12.3933 O   0  0  0  0  0  0  0  0  0  0  0  0
   28.1851  -22.8878  -16.1637 N   0  0  0  0  0  0  0  0  0  0  0  0
   27.3988  -23.8267  -16.8768 C   0  0  0  0  0  0  0  0  0  0  0  0
   27.2991  -25.0366  -16.4709 N   0  0  0  0  0  0  0  0  0  0  0  0
   26.7324  -23.3752  -18.0486 N   0  0  0  0  0  0  0  0  0  0  0  0
   26.3991  -21.9872  -18.2260 C   0  0  0  0  0  0  0  0  0  0  0  0
   25.2755  -21.6062  -17.2817 C   0  0  0  0  0  0  0  0  0  0  0  0
   24.9196  -20.1642  -17.5944 C   0  0  0  0  0  0  0  0  0  0  0  0
   24.6213  -19.4167  -16.2861 C   0  0  2  0  0  0  0  0  0  0  0  0
   23.3305  -19.7988  -15.7714 N   0  0  0  0  0  0  0  0  0  0  0  0
   24.7418  -17.9883  -16.5720 C   0  0  0  0  0  0  0  0  0  0  0  0
   23.7852  -17.3243  -17.0310 O   0  0  0  0  0  0  0  0  0  0  0  0
   26.7341  -25.7256  -16.9989 N   0  0  0  0  0  0  0  0  0  0  0  0
   25.9658  -17.3209  -16.3300 C   0  0  2  0  0  0  0  0  0  0  0  0
   26.1227  -15.9099  -16.5892 C   0  0  0  0  0  0  0  0  0  0  0  0
   26.7743  -15.3060  -15.3830 C   0  0  0  0  0  0  0  0  0  0  0  0
   27.1680  -13.9022  -15.5447 C   0  0  0  0  0  0  0  0  0  0  0  0
   28.3952  -13.6218  -16.1206 C   0  0  0  0  0  0  0  0  0  0  0  0
   28.7813  -12.3161  -16.2831 C   0  0  0  0  0  0  0  0  0  0  0  0
   27.9630  -11.3054  -15.8807 C   0  0  0  0  0  0  0  0  0  0  0  0
   26.7340  -11.5961  -15.3040 C   0  0  0  0  0  0  0  0  0  0  0  0
   26.3210  -12.8971  -15.1288 C   0  0  0  0  0  0  0  0  0  0  0  0
   26.8476  -15.6991  -17.8513 O   0  0  0  0  0  0  0  0  0  0  0  0
   27.6591  -16.5694  -18.2481 O   0  0  0  0  0  0  0  0  0  0  0  0
  2  1  1  1
  3  2  1  0
  3  4  1  0
  4  5  2  0
  6  7  2  0
  6  2  1  0
  8  4  1  0
 10  9  1  0
 11 10  2  0
 12 13  1  0
 12 10  1  0
 13 14  1  0
 14 15  1  0
 16 15  1  6
 16 18  1  0
 16 17  1  0
 17  6  1  0
 18 20  1  0
 19 18  2  0
 20 21  1  0
 21 29  1  0
 22 23  1  0
 21 22  1  1
 23 24  2  0
 24 25  1  0
 26 25  2  0
 27 26  1  0
 28 27  2  0
 28 23  1  0
 29 30  2  0
 29 31  1  0
M  END
$$$$
