DRF.pdb
     RDKit          3D

 31 31  0  0  1  0  0  0  0  0999 V2000
   20.3519  -20.4733  -11.0191 N   0  0  0  0  0  0  0  0  0  0  0  0
   21.1992  -21.3510  -11.7851 C   0  0  1  0  0  0  0  0  0  0  0  0
   20.4746  -21.9659  -12.9619 C   0  0  0  0  0  0  0  0  0  0  0  0
   19.0529  -22.1818  -12.6199 C   0  0  0  0  0  0  0  0  0  0  0  0
   18.5928  -21.8604  -11.5038 O   0  0  0  0  0  0  0  0  0  0  0  0
   22.3561  -20.5480  -12.2608 C   0  0  0  0  0  0  0  0  0  0  0  0
   22.2385  -19.3687  -12.6719 O   0  0  0  0  0  0  0  0  0  0  0  0
   18.2110  -22.7515  -13.5531 O   0  0  0  0  0  0  0  0  0  0  0  0
   30.3012  -20.6777   -9.8968 N   0  0  0  0  0  0  0  0  0  0  0  0
   29.8765  -21.7210  -10.7568 C   0  0  0  0  0  0  0  0  0  0  0  0
   30.7219  -22.5475  -11.2474 N   0  0  0  0  0  0  0  0  0  0  0  0
   28.4882  -21.8115  -11.0493 N   0  0  0  0  0  0  0  0  0  0  0  0
   27.5364  -20.9395  -10.4147 C   0  0  0  0  0  0  0  0  0  0  0  0
   26.1319  -21.3145  -10.8461 C   0  0  0  0  0  0  0  0  0  0  0  0
   26.0954  -21.1828  -12.3577 C   0  0  0  0  0  0  0  0  0  0  0  0
   24.8181  -20.4383  -12.7746 C   0  0  2  0  0  0  0  0  0  0  0  0
   23.6525  -21.1122  -12.2603 N   0  0  0  0  0  0  0  0  0  0  0  0
   24.8411  -20.3315  -14.2322 C   0  0  0  0  0  0  0  0  0  0  0  0
   24.4419  -21.2617  -14.9684 O   0  0  0  0  0  0  0  0  0  0  0  0
   30.4160  -23.2891  -11.9025 N   0  0  0  0  0  0  0  0  0  0  0  0
   25.3248  -19.1518  -14.8458 C   0  0  1  0  0  0  0  0  0  0  0  0
   25.2329  -18.9479  -16.2715 C   0  0  0  0  0  0  0  0  0  0  0  0
   23.9283  -18.2617  -16.5393 C   0  0  0  0  0  0  0  0  0  0  0  0
   23.7136  -17.8925  -17.9427 C   0  0  0  0  0  0  0  0  0  0  0  0
   24.0664  -16.6182  -18.3524 C   0  0  0  0  0  0  0  0  0  0  0  0
   23.8762  -16.2537  -19.6605 C   0  0  0  0  0  0  0  0  0  0  0  0
   23.3445  -17.1391  -20.5474 C   0  0  0  0  0  0  0  0  0  0  0  0
   22.9935  -18.4150  -20.1273 C   0  0  0  0  0  0  0  0  0  0  0  0
   23.1734  -18.8078  -18.8207 C   0  0  0  0  0  0  0  0  0  0  0  0
   26.4186  -18.2300  -16.7632 O   0  0  0  0  0  0  0  0  0  0  0  0
   26.9860  -17.3955  -16.0182 O   0  0  0  0  0  0  0  0  0  0  0  0
  2  1  1  6
  3  2  1  0
  3  4  1  0
  4  5  2  0
  6  7  2  0
  6  2  1  0
  8  4  1  0
 10  9  1  0
 11 10  2  0
 12 13  1  0
 12 10  1  0
 13 14  1  0
 14 15  1  0
 16 15  1  6
 16 18  1  0
 16 17  1  0
 17  6  1  0
 18 20  1  0
 19 18  2  0
 20 21  1  0
 21 29  1  0
 22 23  1  0
 21 22  1  6
 23 24  2  0
 24 25  1  0
 26 25  2  0
 27 26  1  0
 28 27  2  0
 28 23  1  0
 29 30  2  0
 29 31  1  0
M  END
$$$$
