DRF.pdb
     RDKit          3D

 31 31  0  0  1  0  0  0  0  0999 V2000
   24.2277  -16.3542  -20.3705 N   0  0  0  0  0  0  0  0  0  0  0  0
   24.5128  -16.0173  -18.9992 C   0  0  1  0  0  0  0  0  0  0  0  0
   23.7456  -14.7990  -18.5357 C   0  0  0  0  0  0  0  0  0  0  0  0
   24.4407  -13.5703  -18.9738 C   0  0  0  0  0  0  0  0  0  0  0  0
   25.5192  -13.6181  -19.6027 O   0  0  0  0  0  0  0  0  0  0  0  0
   24.1509  -17.1953  -18.1680 C   0  0  0  0  0  0  0  0  0  0  0  0
   23.0675  -17.8129  -18.3040 O   0  0  0  0  0  0  0  0  0  0  0  0
   23.8884  -12.3396  -18.6832 O   0  0  0  0  0  0  0  0  0  0  0  0
   25.4453  -24.0036  -15.6829 N   0  0  0  0  0  0  0  0  0  0  0  0
   25.0399  -23.6780  -14.3646 C   0  0  0  0  0  0  0  0  0  0  0  0
   24.6237  -24.5877  -13.5662 N   0  0  0  0  0  0  0  0  0  0  0  0
   25.1133  -22.3144  -13.9691 N   0  0  0  0  0  0  0  0  0  0  0  0
   25.5169  -21.2920  -14.8970 C   0  0  0  0  0  0  0  0  0  0  0  0
   25.4965  -19.9405  -14.2098 C   0  0  0  0  0  0  0  0  0  0  0  0
   25.8937  -18.9174  -15.2582 C   0  0  0  0  0  0  0  0  0  0  0  0
   24.6861  -18.6122  -16.1571 C   0  0  2  0  0  0  0  0  0  0  0  0
   25.0460  -17.6594  -17.1768 N   0  0  0  0  0  0  0  0  0  0  0  0
   23.6054  -18.1593  -15.2834 C   0  0  0  0  0  0  0  0  0  0  0  0
   23.6866  -17.0940  -14.6314 O   0  0  0  0  0  0  0  0  0  0  0  0
   24.2871  -24.3439  -12.6174 N   0  0  0  0  0  0  0  0  0  0  0  0
   22.4277  -18.9335  -15.1582 C   0  0  1  0  0  0  0  0  0  0  0  0
   21.3643  -18.5538  -14.2594 C   0  0  0  0  0  0  0  0  0  0  0  0
   20.5992  -17.4470  -14.9183 C   0  0  0  0  0  0  0  0  0  0  0  0
   19.4309  -16.9829  -14.1623 C   0  0  0  0  0  0  0  0  0  0  0  0
   18.1856  -17.4888  -14.4934 C   0  0  0  0  0  0  0  0  0  0  0  0
   17.0808  -17.0700  -13.7974 C   0  0  0  0  0  0  0  0  0  0  0  0
   17.2098  -16.1640  -12.7896 C   0  0  0  0  0  0  0  0  0  0  0  0
   18.4628  -15.6620  -12.4646 C   0  0  0  0  0  0  0  0  0  0  0  0
   19.5885  -16.0647  -13.1461 C   0  0  0  0  0  0  0  0  0  0  0  0
   20.5577  -19.7285  -13.8959 O   0  0  0  0  0  0  0  0  0  0  0  0
   19.6911  -19.6255  -12.9948 O   0  0  0  0  0  0  0  0  0  0  0  0
  2  1  1  6
  3  2  1  0
  3  4  1  0
  4  5  2  0
  6  7  2  0
  6  2  1  0
  8  4  1  0
 10  9  1  0
 11 10  2  0
 12 13  1  0
 12 10  1  0
 13 14  1  0
 14 15  1  0
 16 15  1  1
 16 18  1  0
 16 17  1  0
 17  6  1  0
 18 20  1  0
 19 18  2  0
 20 21  1  0
 21 29  1  0
 22 23  1  0
 21 22  1  6
 23 24  2  0
 24 25  1  0
 26 25  2  0
 27 26  1  0
 28 27  2  0
 28 23  1  0
 29 30  2  0
 29 31  1  0
M  END
$$$$
