DRF.pdb
     RDKit          3D

 31 31  0  0  1  0  0  0  0  0999 V2000
   22.0963  -14.9578  -19.3055 N   0  0  0  0  0  0  0  0  0  0  0  0
   21.0007  -14.8485  -18.3766 C   0  0  1  0  0  0  0  0  0  0  0  0
   21.3777  -15.3115  -16.9869 C   0  0  0  0  0  0  0  0  0  0  0  0
   21.2381  -16.7798  -16.8910 C   0  0  0  0  0  0  0  0  0  0  0  0
   20.8549  -17.4650  -17.8628 O   0  0  0  0  0  0  0  0  0  0  0  0
   20.5864  -13.4212  -18.3444 C   0  0  0  0  0  0  0  0  0  0  0  0
   21.4072  -12.4760  -18.4244 O   0  0  0  0  0  0  0  0  0  0  0  0
   21.5370  -17.4122  -15.7015 O   0  0  0  0  0  0  0  0  0  0  0  0
   12.4895   -9.9378  -19.2498 N   0  0  0  0  0  0  0  0  0  0  0  0
   13.2995   -8.7989  -19.0147 C   0  0  0  0  0  0  0  0  0  0  0  0
   12.7964   -7.6224  -19.0462 N   0  0  0  0  0  0  0  0  0  0  0  0
   14.6788   -9.0139  -18.7453 N   0  0  0  0  0  0  0  0  0  0  0  0
   15.2046  -10.3419  -18.5746 C   0  0  0  0  0  0  0  0  0  0  0  0
   16.7150  -10.2824  -18.4540 C   0  0  0  0  0  0  0  0  0  0  0  0
   17.1959  -11.7179  -18.3458 C   0  0  0  0  0  0  0  0  0  0  0  0
   18.7241  -11.7342  -18.1917 C   0  0  2  0  0  0  0  0  0  0  0  0
   19.2182  -13.0879  -18.2195 N   0  0  0  0  0  0  0  0  0  0  0  0
   19.0376  -11.0185  -16.9564 C   0  0  0  0  0  0  0  0  0  0  0  0
   18.9675  -11.5730  -15.8365 O   0  0  0  0  0  0  0  0  0  0  0  0
   13.3857   -6.7911  -18.8607 N   0  0  0  0  0  0  0  0  0  0  0  0
   19.4326   -9.6607  -17.0083 C   0  0  2  0  0  0  0  0  0  0  0  0
   19.6643   -8.8935  -15.8082 C   0  0  0  0  0  0  0  0  0  0  0  0
   21.0998   -9.0881  -15.4262 C   0  0  0  0  0  0  0  0  0  0  0  0
   21.5405   -8.2749  -14.2877 C   0  0  0  0  0  0  0  0  0  0  0  0
   21.4756   -8.8240  -13.0186 C   0  0  0  0  0  0  0  0  0  0  0  0
   21.8850   -8.0816  -11.9409 C   0  0  0  0  0  0  0  0  0  0  0  0
   22.3511   -6.8151  -12.1197 C   0  0  0  0  0  0  0  0  0  0  0  0
   22.4125   -6.2726  -13.3962 C   0  0  0  0  0  0  0  0  0  0  0  0
   22.0084   -6.9949  -14.4956 C   0  0  0  0  0  0  0  0  0  0  0  0
   19.2656   -7.4926  -16.0115 O   0  0  0  0  0  0  0  0  0  0  0  0
   19.2625   -7.0155  -17.1716 O   0  0  0  0  0  0  0  0  0  0  0  0
  2  1  1  6
  3  2  1  0
  3  4  1  0
  4  5  2  0
  6  7  2  0
  6  2  1  0
  8  4  1  0
 10  9  1  0
 11 10  2  0
 12 13  1  0
 12 10  1  0
 13 14  1  0
 14 15  1  0
 16 15  1  1
 16 18  1  0
 16 17  1  0
 17  6  1  0
 18 20  1  0
 19 18  2  0
 20 21  1  0
 21 29  1  0
 22 23  1  0
 21 22  1  6
 23 24  2  0
 24 25  1  0
 26 25  2  0
 27 26  1  0
 28 27  2  0
 28 23  1  0
 29 30  2  0
 29 31  1  0
M  END
$$$$
