DRF.pdb
     RDKit          3D

 31 31  0  0  1  0  0  0  0  0999 V2000
   20.1761  -35.4820   -8.5765 N   0  0  0  0  0  0  0  0  0  0  0  0
   20.6621  -34.3523   -7.8264 C   0  0  1  0  0  0  0  0  0  0  0  0
   19.5870  -33.7311   -6.9625 C   0  0  0  0  0  0  0  0  0  0  0  0
   19.1410  -32.4531   -7.5561 C   0  0  0  0  0  0  0  0  0  0  0  0
   19.6357  -32.0172   -8.6173 O   0  0  0  0  0  0  0  0  0  0  0  0
   21.7848  -34.8320   -6.9783 C   0  0  0  0  0  0  0  0  0  0  0  0
   21.7401  -35.9133   -6.3439 O   0  0  0  0  0  0  0  0  0  0  0  0
   18.1551  -31.7214   -6.9262 O   0  0  0  0  0  0  0  0  0  0  0  0
   27.8750  -33.7908   -3.3588 N   0  0  0  0  0  0  0  0  0  0  0  0
   28.9827  -34.1809   -4.1522 C   0  0  0  0  0  0  0  0  0  0  0  0
   29.9886  -34.7704   -3.6239 N   0  0  0  0  0  0  0  0  0  0  0  0
   28.9319  -33.8940   -5.5436 N   0  0  0  0  0  0  0  0  0  0  0  0
   27.7349  -33.3794   -6.1533 C   0  0  0  0  0  0  0  0  0  0  0  0
   26.5490  -34.2365   -5.7552 C   0  0  0  0  0  0  0  0  0  0  0  0
   25.3354  -33.6406   -6.4449 C   0  0  0  0  0  0  0  0  0  0  0  0
   24.0776  -34.4164   -6.0257 C   0  0  2  0  0  0  0  0  0  0  0  0
   22.9622  -34.0575   -6.8648 N   0  0  0  0  0  0  0  0  0  0  0  0
   23.8587  -34.1428   -4.6067 C   0  0  0  0  0  0  0  0  0  0  0  0
   23.6398  -32.9852   -4.1840 O   0  0  0  0  0  0  0  0  0  0  0  0
   30.7669  -35.1166   -4.2130 N   0  0  0  0  0  0  0  0  0  0  0  0
   23.8920  -35.2030   -3.6702 C   0  0  2  0  0  0  0  0  0  0  0  0
   23.6989  -34.9725   -2.2587 C   0  0  0  0  0  0  0  0  0  0  0  0
   22.5819  -35.8649   -1.8112 C   0  0  0  0  0  0  0  0  0  0  0  0
   21.2395  -35.3470   -2.0971 C   0  0  0  0  0  0  0  0  0  0  0  0
   20.6922  -34.4153   -1.2318 C   0  0  0  0  0  0  0  0  0  0  0  0
   19.4396  -33.9168   -1.4822 C   0  0  0  0  0  0  0  0  0  0  0  0
   18.7417  -34.3359   -2.5732 C   0  0  0  0  0  0  0  0  0  0  0  0
   19.2986  -35.2708   -3.4355 C   0  0  0  0  0  0  0  0  0  0  0  0
   20.5536  -35.7879   -3.2087 C   0  0  0  0  0  0  0  0  0  0  0  0
   24.9640  -35.1579   -1.5322 O   0  0  0  0  0  0  0  0  0  0  0  0
   24.9976  -34.9608   -0.2939 O   0  0  0  0  0  0  0  0  0  0  0  0
  2  1  1  1
  3  2  1  0
  3  4  1  0
  4  5  2  0
  6  7  2  0
  6  2  1  0
  8  4  1  0
 10  9  1  0
 11 10  2  0
 12 13  1  0
 12 10  1  0
 13 14  1  0
 14 15  1  0
 16 15  1  6
 16 18  1  0
 16 17  1  0
 17  6  1  0
 18 20  1  0
 19 18  2  0
 20 21  1  0
 21 29  1  0
 22 23  1  0
 21 22  1  6
 23 24  2  0
 24 25  1  0
 26 25  2  0
 27 26  1  0
 28 27  2  0
 28 23  1  0
 29 30  2  0
 29 31  1  0
M  END
$$$$
