DRF.pdb
     RDKit          3D

 31 31  0  0  1  0  0  0  0  0999 V2000
   21.2785  -21.5110  -13.0446 N   0  0  0  0  0  0  0  0  0  0  0  0
   21.9549  -20.3066  -12.6361 C   0  0  1  0  0  0  0  0  0  0  0  0
   21.3525  -19.7054  -11.3857 C   0  0  0  0  0  0  0  0  0  0  0  0
   19.9767  -19.2420  -11.6631 C   0  0  0  0  0  0  0  0  0  0  0  0
   19.0271  -19.5190  -10.9000 O   0  0  0  0  0  0  0  0  0  0  0  0
   23.3802  -20.6561  -12.3991 C   0  0  0  0  0  0  0  0  0  0  0  0
   23.7296  -21.6246  -11.6824 O   0  0  0  0  0  0  0  0  0  0  0  0
   19.7314  -18.4854  -12.7907 O   0  0  0  0  0  0  0  0  0  0  0  0
   28.4220  -23.6450  -15.6901 N   0  0  0  0  0  0  0  0  0  0  0  0
   28.2087  -22.4559  -16.4311 C   0  0  0  0  0  0  0  0  0  0  0  0
   28.1010  -22.4918  -17.7061 N   0  0  0  0  0  0  0  0  0  0  0  0
   28.1202  -21.2347  -15.7087 N   0  0  0  0  0  0  0  0  0  0  0  0
   28.0722  -21.2233  -14.2711 C   0  0  0  0  0  0  0  0  0  0  0  0
   28.0813  -19.7920  -13.7703 C   0  0  0  0  0  0  0  0  0  0  0  0
   26.6408  -19.3149  -13.8019 C   0  0  0  0  0  0  0  0  0  0  0  0
   25.8095  -20.1343  -12.8034 C   0  0  2  0  0  0  0  0  0  0  0  0
   24.4032  -19.8823  -12.9936 N   0  0  0  0  0  0  0  0  0  0  0  0
   26.2923  -19.7970  -11.4657 C   0  0  0  0  0  0  0  0  0  0  0  0
   25.8928  -18.7788  -10.8573 O   0  0  0  0  0  0  0  0  0  0  0  0
   27.9763  -21.6193  -18.2501 N   0  0  0  0  0  0  0  0  0  0  0  0
   27.2378  -20.6324  -10.8253 C   0  0  2  0  0  0  0  0  0  0  0  0
   27.8236  -20.2776   -9.5549 C   0  0  0  0  0  0  0  0  0  0  0  0
   26.7233  -20.2926   -8.5383 C   0  0  0  0  0  0  0  0  0  0  0  0
   27.1555  -19.9811   -7.1715 C   0  0  0  0  0  0  0  0  0  0  0  0
   27.2566  -18.6523   -6.7968 C   0  0  0  0  0  0  0  0  0  0  0  0
   27.6565  -18.3395   -5.5230 C   0  0  0  0  0  0  0  0  0  0  0  0
   27.9513  -19.3290   -4.6358 C   0  0  0  0  0  0  0  0  0  0  0  0
   27.8471  -20.6589   -5.0206 C   0  0  0  0  0  0  0  0  0  0  0  0
   27.4482  -21.0018   -6.2923 C   0  0  0  0  0  0  0  0  0  0  0  0
   28.9570  -21.1633   -9.2488 O   0  0  0  0  0  0  0  0  0  0  0  0
   29.1440  -22.1880   -9.9478 O   0  0  0  0  0  0  0  0  0  0  0  0
  2  1  1  1
  3  2  1  0
  3  4  1  0
  4  5  2  0
  6  7  2  0
  6  2  1  0
  8  4  1  0
 10  9  1  0
 11 10  2  0
 12 13  1  0
 12 10  1  0
 13 14  1  0
 14 15  1  0
 16 15  1  6
 16 18  1  0
 16 17  1  0
 17  6  1  0
 18 20  1  0
 19 18  2  0
 20 21  1  0
 21 29  1  0
 22 23  1  0
 21 22  1  6
 23 24  2  0
 24 25  1  0
 26 25  2  0
 27 26  1  0
 28 27  2  0
 28 23  1  0
 29 30  2  0
 29 31  1  0
M  END
$$$$
