DRF.pdb
     RDKit          3D

 31 31  0  0  1  0  0  0  0  0999 V2000
   21.5949  -21.4526  -13.2139 N   0  0  0  0  0  0  0  0  0  0  0  0
   22.1063  -20.3157  -12.4922 C   0  0  1  0  0  0  0  0  0  0  0  0
   21.0538  -19.6687  -11.6194 C   0  0  0  0  0  0  0  0  0  0  0  0
   20.0346  -19.0115  -12.4643 C   0  0  0  0  0  0  0  0  0  0  0  0
   20.3167  -18.5525  -13.5915 O   0  0  0  0  0  0  0  0  0  0  0  0
   23.2395  -20.7929  -11.6568 C   0  0  0  0  0  0  0  0  0  0  0  0
   23.0802  -21.5453  -10.6658 O   0  0  0  0  0  0  0  0  0  0  0  0
   18.7397  -18.9005  -12.0005 O   0  0  0  0  0  0  0  0  0  0  0  0
   29.7085  -22.1956  -14.0487 N   0  0  0  0  0  0  0  0  0  0  0  0
   28.8419  -22.2184  -15.1698 C   0  0  0  0  0  0  0  0  0  0  0  0
   28.8829  -23.1860  -16.0068 N   0  0  0  0  0  0  0  0  0  0  0  0
   27.9349  -21.1348  -15.3255 N   0  0  0  0  0  0  0  0  0  0  0  0
   27.8428  -20.0946  -14.3362 C   0  0  0  0  0  0  0  0  0  0  0  0
   26.5636  -20.2590  -13.5386 C   0  0  0  0  0  0  0  0  0  0  0  0
   26.9740  -20.7447  -12.1605 C   0  0  0  0  0  0  0  0  0  0  0  0
   25.7262  -20.8832  -11.2754 C   0  0  2  0  0  0  0  0  0  0  0  0
   24.5604  -20.3979  -11.9701 N   0  0  0  0  0  0  0  0  0  0  0  0
   26.0053  -20.1748  -10.0278 C   0  0  0  0  0  0  0  0  0  0  0  0
   25.7669  -18.9533   -9.8949 O   0  0  0  0  0  0  0  0  0  0  0  0
   28.2309  -23.2162  -16.8111 N   0  0  0  0  0  0  0  0  0  0  0  0
   26.5609  -20.8725   -8.9292 C   0  0  2  0  0  0  0  0  0  0  0  0
   27.3954  -20.2103   -7.9557 C   0  0  0  0  0  0  0  0  0  0  0  0
   26.7940  -20.4653   -6.6075 C   0  0  0  0  0  0  0  0  0  0  0  0
   27.6092  -19.9983   -5.4810 C   0  0  0  0  0  0  0  0  0  0  0  0
   27.7023  -18.6362   -5.2522 C   0  0  0  0  0  0  0  0  0  0  0  0
   28.4573  -18.1787   -4.2029 C   0  0  0  0  0  0  0  0  0  0  0  0
   29.1092  -19.0584   -3.3941 C   0  0  0  0  0  0  0  0  0  0  0  0
   29.0101  -20.4228   -3.6312 C   0  0  0  0  0  0  0  0  0  0  0  0
   28.2595  -20.9098   -4.6768 C   0  0  0  0  0  0  0  0  0  0  0  0
   28.7928  -20.6456   -8.0990 O   0  0  0  0  0  0  0  0  0  0  0  0
   29.0410  -21.7542   -8.6308 O   0  0  0  0  0  0  0  0  0  0  0  0
  2  1  1  1
  3  2  1  0
  3  4  1  0
  4  5  2  0
  6  7  2  0
  6  2  1  0
  8  4  1  0
 10  9  1  0
 11 10  2  0
 12 13  1  0
 12 10  1  0
 13 14  1  0
 14 15  1  0
 16 15  1  6
 16 18  1  0
 16 17  1  0
 17  6  1  0
 18 20  1  0
 19 18  2  0
 20 21  1  0
 21 29  1  0
 22 23  1  0
 21 22  1  1
 23 24  2  0
 24 25  1  0
 26 25  2  0
 27 26  1  0
 28 27  2  0
 28 23  1  0
 29 30  2  0
 29 31  1  0
M  END
$$$$
