DRF.pdb
     RDKit          3D

 31 31  0  0  1  0  0  0  0  0999 V2000
   34.1265  -31.8424  -17.4555 N   0  0  0  0  0  0  0  0  0  0  0  0
   33.8683  -32.8377  -18.4644 C   0  0  1  0  0  0  0  0  0  0  0  0
   34.7541  -34.0541  -18.3110 C   0  0  0  0  0  0  0  0  0  0  0  0
   35.9937  -33.8756  -19.0961 C   0  0  0  0  0  0  0  0  0  0  0  0
   36.0079  -33.2102  -20.1534 O   0  0  0  0  0  0  0  0  0  0  0  0
   32.4390  -33.2289  -18.3470 C   0  0  0  0  0  0  0  0  0  0  0  0
   31.9048  -34.0764  -19.1019 O   0  0  0  0  0  0  0  0  0  0  0  0
   37.1648  -34.4562  -18.6540 O   0  0  0  0  0  0  0  0  0  0  0  0
   26.3056  -32.7879  -13.2463 N   0  0  0  0  0  0  0  0  0  0  0  0
   25.8888  -33.7121  -14.2365 C   0  0  0  0  0  0  0  0  0  0  0  0
   24.6528  -33.8173  -14.5521 N   0  0  0  0  0  0  0  0  0  0  0  0
   26.8883  -34.5090  -14.8584 N   0  0  0  0  0  0  0  0  0  0  0  0
   28.2373  -34.0307  -15.0025 C   0  0  0  0  0  0  0  0  0  0  0  0
   28.2323  -32.6942  -15.7189 C   0  0  0  0  0  0  0  0  0  0  0  0
   29.6859  -32.2982  -15.9031 C   0  0  0  0  0  0  0  0  0  0  0  0
   30.2148  -32.8936  -17.2166 C   0  0  2  0  0  0  0  0  0  0  0  0
   31.6265  -32.6373  -17.3526 N   0  0  0  0  0  0  0  0  0  0  0  0
   29.4076  -32.3310  -18.2975 C   0  0  0  0  0  0  0  0  0  0  0  0
   29.4898  -31.1254  -18.6237 O   0  0  0  0  0  0  0  0  0  0  0  0
   24.3479  -34.4958  -15.2729 N   0  0  0  0  0  0  0  0  0  0  0  0
   28.5025  -33.1566  -19.0056 C   0  0  2  0  0  0  0  0  0  0  0  0
   27.6246  -32.6223  -20.0188 C   0  0  0  0  0  0  0  0  0  0  0  0
   28.4882  -32.1149  -21.1329 C   0  0  0  0  0  0  0  0  0  0  0  0
   27.7510  -31.6971  -22.3303 C   0  0  0  0  0  0  0  0  0  0  0  0
   27.3355  -30.3801  -22.4248 C   0  0  0  0  0  0  0  0  0  0  0  0
   26.6471  -29.9684  -23.5370 C   0  0  0  0  0  0  0  0  0  0  0  0
   26.3754  -30.8492  -24.5387 C   0  0  0  0  0  0  0  0  0  0  0  0
   26.7960  -32.1683  -24.4351 C   0  0  0  0  0  0  0  0  0  0  0  0
   27.4887  -32.6088  -23.3306 C   0  0  0  0  0  0  0  0  0  0  0  0
   26.6321  -33.6309  -20.4194 O   0  0  0  0  0  0  0  0  0  0  0  0
   26.8656  -34.8443  -20.2036 O   0  0  0  0  0  0  0  0  0  0  0  0
  2  1  1  1
  3  2  1  0
  3  4  1  0
  4  5  2  0
  6  7  2  0
  6  2  1  0
  8  4  1  0
 10  9  1  0
 11 10  2  0
 12 13  1  0
 12 10  1  0
 13 14  1  0
 14 15  1  0
 16 15  1  1
 16 18  1  0
 16 17  1  0
 17  6  1  0
 18 20  1  0
 19 18  2  0
 20 21  1  0
 21 29  1  0
 22 23  1  0
 21 22  1  6
 23 24  2  0
 24 25  1  0
 26 25  2  0
 27 26  1  0
 28 27  2  0
 28 23  1  0
 29 30  2  0
 29 31  1  0
M  END
$$$$
