TMF.pdb
     RDKit          3D

 27 27  0  0  1  0  0  0  0  0999 V2000
   16.3948  -11.5209  -16.3252 C   0  0  0  0  0  0  0  0  0  0  0  0
   17.1296  -12.8167  -16.0503 C   0  0  1  0  0  0  0  0  0  0  0  0
   16.3128  -13.9190  -16.2061 O   0  0  0  0  0  0  0  0  0  0  0  0
   18.3778  -12.8981  -16.9332 C   0  0  2  0  0  0  0  0  0  0  0  0
   18.9563  -14.1823  -16.7237 N   0  0  0  0  0  0  0  0  0  0  0  0
   19.2934  -11.7576  -16.6359 C   0  0  0  0  0  0  0  0  0  0  0  0
   19.8295  -11.7009  -15.5182 O   0  0  0  0  0  0  0  0  0  0  0  0
   20.1304   -7.0651  -21.2849 C   0  0  0  0  0  0  0  0  0  0  0  0
   21.6460   -6.9059  -20.3418 S   0  0  0  0  0  0  0  0  0  0  0  0
   21.5152   -7.7347  -18.7148 C   0  0  0  0  0  0  0  0  0  0  0  0
   20.5129   -8.8367  -18.8137 C   0  0  0  0  0  0  0  0  0  0  0  0
   20.3659   -9.6079  -17.4945 C   0  0  2  0  0  0  0  0  0  0  0  0
   19.5547  -10.7571  -17.5929 N   0  0  0  0  0  0  0  0  0  0  0  0
   20.0983   -8.6684  -16.4170 C   0  0  0  0  0  0  0  0  0  0  0  0
   18.9234   -8.2418  -16.2756 O   0  0  0  0  0  0  0  0  0  0  0  0
   21.0626   -8.1826  -15.4957 N   0  0  0  0  0  0  0  0  0  0  0  0
   20.7076   -7.3318  -14.3460 C   0  0  1  0  0  0  0  0  0  0  0  0
   21.9168   -6.9666  -13.5632 C   0  0  0  0  0  0  0  0  0  0  0  0
   22.8374   -6.1574  -14.3868 C   0  0  0  0  0  0  0  0  0  0  0  0
   23.8004   -6.7260  -15.2097 C   0  0  0  0  0  0  0  0  0  0  0  0
   24.6394   -5.9430  -15.9679 C   0  0  0  0  0  0  0  0  0  0  0  0
   24.5752   -4.5695  -15.9559 C   0  0  0  0  0  0  0  0  0  0  0  0
   23.6289   -3.9938  -15.1475 C   0  0  0  0  0  0  0  0  0  0  0  0
   22.7803   -4.7597  -14.3817 C   0  0  0  0  0  0  0  0  0  0  0  0
   20.0117   -6.1600  -14.8666 C   0  0  0  0  0  0  0  0  0  0  0  0
   19.2407   -5.3542  -14.0583 O   0  0  0  0  0  0  0  0  0  0  0  0
   20.0953   -5.8523  -16.0788 O   0  0  0  0  0  0  0  0  0  0  0  0
  2  1  1  6
  2  4  1  0
  3  2  1  0
  4  6  1  0
  4  5  1  1
  6  7  2  0
  9  8  1  0
 10  9  1  0
 11 10  1  0
 12 11  1  6
 13  6  1  0
 13 12  1  0
 14 12  1  0
 14 15  2  0
 16 14  1  0
 17 16  1  0
 17 25  1  0
 17 18  1  6
 19 24  2  0
 19 18  1  0
 20 19  1  0
 21 22  1  0
 21 20  2  0
 22 23  2  0
 23 24  1  0
 25 27  2  0
 25 26  1  0
M  END
$$$$
