TMF.pdb
     RDKit          3D

 27 27  0  0  1  0  0  0  0  0999 V2000
   32.5235    4.7396  -12.8506 C   0  0  0  0  0  0  0  0  0  0  0  0
   31.2941    4.3113  -12.0763 C   0  0  1  0  0  0  0  0  0  0  0  0
   31.1265    2.9408  -12.0862 O   0  0  0  0  0  0  0  0  0  0  0  0
   31.3612    4.8709  -10.6528 C   0  0  2  0  0  0  0  0  0  0  0  0
   32.4780    4.2600  -10.0146 N   0  0  0  0  0  0  0  0  0  0  0  0
   30.0610    4.6537   -9.9530 C   0  0  0  0  0  0  0  0  0  0  0  0
   29.9888    3.7588   -9.0964 O   0  0  0  0  0  0  0  0  0  0  0  0
   26.2190    9.4948   -7.9369 C   0  0  0  0  0  0  0  0  0  0  0  0
   24.9969    8.3548   -8.5840 S   0  0  0  0  0  0  0  0  0  0  0  0
   25.6839    6.6684   -8.7715 C   0  0  0  0  0  0  0  0  0  0  0  0
   26.9543    6.7488   -9.5516 C   0  0  0  0  0  0  0  0  0  0  0  0
   27.6270    5.3778   -9.7084 C   0  0  2  0  0  0  0  0  0  0  0  0
   28.9288    5.4394  -10.2465 N   0  0  0  0  0  0  0  0  0  0  0  0
   26.6818    4.4450  -10.3018 C   0  0  0  0  0  0  0  0  0  0  0  0
   26.5780    4.4174  -11.5551 O   0  0  0  0  0  0  0  0  0  0  0  0
   25.8527    3.5482   -9.5787 N   0  0  0  0  0  0  0  0  0  0  0  0
   25.0460    2.5043  -10.2353 C   0  0  1  0  0  0  0  0  0  0  0  0
   25.4693    1.1503   -9.7929 C   0  0  0  0  0  0  0  0  0  0  0  0
   25.5437    1.0908   -8.3193 C   0  0  0  0  0  0  0  0  0  0  0  0
   24.4364    0.8255   -7.5248 C   0  0  0  0  0  0  0  0  0  0  0  0
   24.5414    0.7725   -6.1544 C   0  0  0  0  0  0  0  0  0  0  0  0
   25.7327    0.9764   -5.4989 C   0  0  0  0  0  0  0  0  0  0  0  0
   26.8352    1.2397   -6.2708 C   0  0  0  0  0  0  0  0  0  0  0  0
   26.7508    1.2968   -7.6430 C   0  0  0  0  0  0  0  0  0  0  0  0
   23.6458    2.7738   -9.9265 C   0  0  0  0  0  0  0  0  0  0  0  0
   23.2726    3.7844   -9.0684 O   0  0  0  0  0  0  0  0  0  0  0  0
   22.7334    2.0829  -10.4377 O   0  0  0  0  0  0  0  0  0  0  0  0
  2  1  1  1
  2  4  1  0
  3  2  1  0
  4  6  1  0
  4  5  1  1
  6  7  2  0
  9  8  1  0
 10  9  1  0
 11 10  1  0
 12 11  1  6
 13  6  1  0
 13 12  1  0
 14 12  1  0
 14 15  2  0
 16 14  1  0
 17 16  1  0
 17 25  1  0
 17 18  1  1
 19 24  2  0
 19 18  1  0
 20 19  1  0
 21 22  1  0
 21 20  2  0
 22 23  2  0
 23 24  1  0
 25 27  2  0
 25 26  1  0
M  END
$$$$
