TMF.pdb
     RDKit          3D

 27 27  0  0  1  0  0  0  0  0999 V2000
   27.7189  -23.6637  -19.4673 C   0  0  0  0  0  0  0  0  0  0  0  0
   27.3938  -23.1785  -18.0697 C   0  0  1  0  0  0  0  0  0  0  0  0
   27.1161  -24.2226  -17.2099 O   0  0  0  0  0  0  0  0  0  0  0  0
   28.5337  -22.2970  -17.5525 C   0  0  2  0  0  0  0  0  0  0  0  0
   29.7139  -23.0939  -17.5546 N   0  0  0  0  0  0  0  0  0  0  0  0
   28.1801  -21.7291  -16.2184 C   0  0  0  0  0  0  0  0  0  0  0  0
   28.5091  -22.3557  -15.1991 O   0  0  0  0  0  0  0  0  0  0  0  0
   26.2331  -15.3145  -14.6329 C   0  0  0  0  0  0  0  0  0  0  0  0
   27.4903  -15.8453  -15.7946 S   0  0  0  0  0  0  0  0  0  0  0  0
   27.9404  -17.6016  -15.5415 C   0  0  0  0  0  0  0  0  0  0  0  0
   26.7161  -18.3624  -15.1527 C   0  0  0  0  0  0  0  0  0  0  0  0
   27.0019  -19.8568  -14.9478 C   0  0  2  0  0  0  0  0  0  0  0  0
   27.4873  -20.5079  -16.1004 N   0  0  0  0  0  0  0  0  0  0  0  0
   25.8904  -20.4637  -14.2325 C   0  0  0  0  0  0  0  0  0  0  0  0
   24.8972  -20.8573  -14.8968 O   0  0  0  0  0  0  0  0  0  0  0  0
   25.8271  -20.6544  -12.8274 N   0  0  0  0  0  0  0  0  0  0  0  0
   24.6659  -21.2675  -12.1586 C   0  0  1  0  0  0  0  0  0  0  0  0
   25.0992  -22.1301  -11.0288 C   0  0  0  0  0  0  0  0  0  0  0  0
   25.9064  -21.3518  -10.0678 C   0  0  0  0  0  0  0  0  0  0  0  0
   25.3399  -20.4694   -9.1577 C   0  0  0  0  0  0  0  0  0  0  0  0
   26.1206  -19.7631   -8.2726 C   0  0  0  0  0  0  0  0  0  0  0  0
   27.4895  -19.8871   -8.2370 C   0  0  0  0  0  0  0  0  0  0  0  0
   28.0632  -20.7550   -9.1305 C   0  0  0  0  0  0  0  0  0  0  0  0
   27.2995  -21.4707  -10.0237 C   0  0  0  0  0  0  0  0  0  0  0  0
   23.7896  -20.1854  -11.7229 C   0  0  0  0  0  0  0  0  0  0  0  0
   22.4697  -20.4061  -11.3970 O   0  0  0  0  0  0  0  0  0  0  0  0
   24.2184  -19.0109  -11.6350 O   0  0  0  0  0  0  0  0  0  0  0  0
  2  1  1  6
  2  4  1  0
  3  2  1  0
  4  6  1  0
  4  5  1  1
  6  7  2  0
  9  8  1  0
 10  9  1  0
 11 10  1  0
 12 11  1  6
 13  6  1  0
 13 12  1  0
 14 12  1  0
 14 15  2  0
 16 14  1  0
 17 16  1  0
 17 25  1  0
 17 18  1  1
 19 24  2  0
 19 18  1  0
 20 19  1  0
 21 22  1  0
 21 20  2  0
 22 23  2  0
 23 24  1  0
 25 27  2  0
 25 26  1  0
M  END
$$$$
