TMF.pdb
     RDKit          3D

 27 27  0  0  1  0  0  0  0  0999 V2000
   14.3049  -10.4321  -15.1669 C   0  0  0  0  0  0  0  0  0  0  0  0
   15.7006  -10.0754  -15.6352 C   0  0  1  0  0  0  0  0  0  0  0  0
   16.5196  -11.1841  -15.7160 O   0  0  0  0  0  0  0  0  0  0  0  0
   15.6205   -9.3230  -16.9662 C   0  0  2  0  0  0  0  0  0  0  0  0
   15.1293  -10.2410  -17.9377 N   0  0  0  0  0  0  0  0  0  0  0  0
   16.9475   -8.7279  -17.3013 C   0  0  0  0  0  0  0  0  0  0  0  0
   17.6612   -9.2997  -18.1400 O   0  0  0  0  0  0  0  0  0  0  0  0
   18.4764   -2.4661  -15.2676 C   0  0  0  0  0  0  0  0  0  0  0  0
   19.3597   -2.7549  -16.8001 S   0  0  0  0  0  0  0  0  0  0  0  0
   19.6501   -4.5402  -17.0820 C   0  0  0  0  0  0  0  0  0  0  0  0
   18.4228   -5.2962  -16.6931 C   0  0  0  0  0  0  0  0  0  0  0  0
   18.5807   -6.8083  -16.9056 C   0  0  2  0  0  0  0  0  0  0  0  0
   17.3963   -7.5417  -16.6874 N   0  0  0  0  0  0  0  0  0  0  0  0
   19.7987   -7.2599  -16.2514 C   0  0  0  0  0  0  0  0  0  0  0  0
   19.7731   -7.4486  -15.0079 O   0  0  0  0  0  0  0  0  0  0  0  0
   21.0341   -7.5106  -16.9037 N   0  0  0  0  0  0  0  0  0  0  0  0
   22.2424   -7.9453  -16.1809 C   0  0  1  0  0  0  0  0  0  0  0  0
   23.0467   -8.8822  -17.0077 C   0  0  0  0  0  0  0  0  0  0  0  0
   24.3083   -9.2221  -16.3195 C   0  0  0  0  0  0  0  0  0  0  0  0
   24.3668  -10.1301  -15.2707 C   0  0  0  0  0  0  0  0  0  0  0  0
   25.5598  -10.4279  -14.6543 C   0  0  0  0  0  0  0  0  0  0  0  0
   26.7489   -9.8517  -15.0347 C   0  0  0  0  0  0  0  0  0  0  0  0
   26.7065   -8.9525  -16.0692 C   0  0  0  0  0  0  0  0  0  0  0  0
   25.5231   -8.6415  -16.6988 C   0  0  0  0  0  0  0  0  0  0  0  0
   22.9909   -6.7466  -15.8182 C   0  0  0  0  0  0  0  0  0  0  0  0
   23.5299   -6.5790  -14.5618 O   0  0  0  0  0  0  0  0  0  0  0  0
   23.1635   -5.8242  -16.6492 O   0  0  0  0  0  0  0  0  0  0  0  0
  2  1  1  6
  2  4  1  0
  3  2  1  0
  4  6  1  0
  4  5  1  6
  6  7  2  0
  9  8  1  0
 10  9  1  0
 11 10  1  0
 12 11  1  1
 13  6  1  0
 13 12  1  0
 14 12  1  0
 14 15  2  0
 16 14  1  0
 17 16  1  0
 17 25  1  0
 17 18  1  6
 19 24  2  0
 19 18  1  0
 20 19  1  0
 21 22  1  0
 21 20  2  0
 22 23  2  0
 23 24  1  0
 25 27  2  0
 25 26  1  0
M  END
$$$$
