TMF.pdb
     RDKit          3D

 27 27  0  0  1  0  0  0  0  0999 V2000
   24.7057  -22.2847  -17.1227 C   0  0  0  0  0  0  0  0  0  0  0  0
   24.1284  -21.1234  -16.3401 C   0  0  1  0  0  0  0  0  0  0  0  0
   23.3801  -21.5472  -15.2598 O   0  0  0  0  0  0  0  0  0  0  0  0
   25.2543  -20.1743  -15.9211 C   0  0  2  0  0  0  0  0  0  0  0  0
   26.2098  -20.9486  -15.2032 N   0  0  0  0  0  0  0  0  0  0  0  0
   24.6970  -19.0226  -15.1527 C   0  0  0  0  0  0  0  0  0  0  0  0
   24.5476  -19.1421  -13.9267 O   0  0  0  0  0  0  0  0  0  0  0  0
   26.5627  -13.5994  -17.4839 C   0  0  0  0  0  0  0  0  0  0  0  0
   26.4908  -13.5631  -15.6935 S   0  0  0  0  0  0  0  0  0  0  0  0
   25.7435  -15.0925  -15.0200 C   0  0  0  0  0  0  0  0  0  0  0  0
   24.4541  -15.3515  -15.7267 C   0  0  0  0  0  0  0  0  0  0  0  0
   23.7789  -16.6442  -15.2475 C   0  0  2  0  0  0  0  0  0  0  0  0
   24.3425  -17.8172  -15.7903 N   0  0  0  0  0  0  0  0  0  0  0  0
   22.3348  -16.4829  -15.3111 C   0  0  0  0  0  0  0  0  0  0  0  0
   21.7191  -16.9986  -16.2793 O   0  0  0  0  0  0  0  0  0  0  0  0
   21.5463  -15.7832  -14.3607 N   0  0  0  0  0  0  0  0  0  0  0  0
   20.0867  -15.6307  -14.4947 C   0  0  1  0  0  0  0  0  0  0  0  0
   19.4096  -15.8397  -13.1885 C   0  0  0  0  0  0  0  0  0  0  0  0
   19.3356  -17.2802  -12.8724 C   0  0  0  0  0  0  0  0  0  0  0  0
   18.2247  -18.0562  -13.1753 C   0  0  0  0  0  0  0  0  0  0  0  0
   18.1903  -19.3971  -12.8712 C   0  0  0  0  0  0  0  0  0  0  0  0
   19.2394  -20.0400  -12.2576 C   0  0  0  0  0  0  0  0  0  0  0  0
   20.3435  -19.2862  -11.9522 C   0  0  0  0  0  0  0  0  0  0  0  0
   20.3974  -17.9435  -12.2483 C   0  0  0  0  0  0  0  0  0  0  0  0
   19.8336  -14.3022  -15.0419 C   0  0  0  0  0  0  0  0  0  0  0  0
   20.8509  -13.3988  -15.2564 O   0  0  0  0  0  0  0  0  0  0  0  0
   18.6690  -13.9413  -15.3328 O   0  0  0  0  0  0  0  0  0  0  0  0
  2  1  1  1
  2  4  1  0
  3  2  1  0
  4  6  1  0
  4  5  1  1
  6  7  2  0
  9  8  1  0
 10  9  1  0
 11 10  1  0
 12 11  1  6
 13  6  1  0
 13 12  1  0
 14 12  1  0
 14 15  2  0
 16 14  1  0
 17 16  1  0
 17 25  1  0
 17 18  1  1
 19 24  2  0
 19 18  1  0
 20 19  1  0
 21 22  1  0
 21 20  2  0
 22 23  2  0
 23 24  1  0
 25 27  2  0
 25 26  1  0
M  END
$$$$
