TMF.pdb
     RDKit          3D

 27 27  0  0  1  0  0  0  0  0999 V2000
   25.9664  -20.6218  -17.9257 C   0  0  0  0  0  0  0  0  0  0  0  0
   27.0145  -19.8800  -17.1222 C   0  0  1  0  0  0  0  0  0  0  0  0
   26.5201  -18.7106  -16.5796 O   0  0  0  0  0  0  0  0  0  0  0  0
   27.5953  -20.8083  -16.0522 C   0  0  2  0  0  0  0  0  0  0  0  0
   28.2521  -21.8729  -16.7326 N   0  0  0  0  0  0  0  0  0  0  0  0
   26.5203  -21.2501  -15.1159 C   0  0  0  0  0  0  0  0  0  0  0  0
   25.6010  -21.9573  -15.5570 O   0  0  0  0  0  0  0  0  0  0  0  0
   24.6823  -21.3535   -7.3310 C   0  0  0  0  0  0  0  0  0  0  0  0
   25.7134  -20.7138   -8.6498 S   0  0  0  0  0  0  0  0  0  0  0  0
   25.0579  -21.1704  -10.2969 C   0  0  0  0  0  0  0  0  0  0  0  0
   26.0402  -20.7521  -11.3403 C   0  0  0  0  0  0  0  0  0  0  0  0
   25.5578  -21.0859  -12.7590 C   0  0  2  0  0  0  0  0  0  0  0  0
   26.5334  -20.8810  -13.7562 N   0  0  0  0  0  0  0  0  0  0  0  0
   24.2362  -20.5138  -12.9630 C   0  0  0  0  0  0  0  0  0  0  0  0
   24.1237  -19.2609  -12.9728 O   0  0  0  0  0  0  0  0  0  0  0  0
   23.0426  -21.2574  -13.1554 N   0  0  0  0  0  0  0  0  0  0  0  0
   21.7355  -20.6186  -13.3897 C   0  0  1  0  0  0  0  0  0  0  0  0
   21.4984  -20.4135  -14.8423 C   0  0  0  0  0  0  0  0  0  0  0  0
   20.7650  -21.5623  -15.4107 C   0  0  0  0  0  0  0  0  0  0  0  0
   21.4073  -22.6333  -16.0175 C   0  0  0  0  0  0  0  0  0  0  0  0
   20.6940  -23.6903  -16.5328 C   0  0  0  0  0  0  0  0  0  0  0  0
   19.3212  -23.7484  -16.4786 C   0  0  0  0  0  0  0  0  0  0  0  0
   18.6731  -22.6973  -15.8822 C   0  0  0  0  0  0  0  0  0  0  0  0
   19.3687  -21.6308  -15.3606 C   0  0  0  0  0  0  0  0  0  0  0  0
   20.7178  -21.4664  -12.7780 C   0  0  0  0  0  0  0  0  0  0  0  0
   21.0079  -22.7304  -12.3144 O   0  0  0  0  0  0  0  0  0  0  0  0
   19.5368  -21.0636  -12.6588 O   0  0  0  0  0  0  0  0  0  0  0  0
  2  1  1  1
  2  4  1  0
  3  2  1  0
  4  6  1  0
  4  5  1  6
  6  7  2  0
  9  8  1  0
 10  9  1  0
 11 10  1  0
 12 11  1  1
 13  6  1  0
 13 12  1  0
 14 12  1  0
 14 15  2  0
 16 14  1  0
 17 16  1  0
 17 25  1  0
 17 18  1  6
 19 24  2  0
 19 18  1  0
 20 19  1  0
 21 22  1  0
 21 20  2  0
 22 23  2  0
 23 24  1  0
 25 27  2  0
 25 26  1  0
M  END
$$$$
