TMF.pdb
     RDKit          3D

 27 27  0  0  1  0  0  0  0  0999 V2000
   27.2059  -17.7144  -14.6627 C   0  0  0  0  0  0  0  0  0  0  0  0
   27.3680  -18.6645  -15.8312 C   0  0  1  0  0  0  0  0  0  0  0  0
   28.0057  -18.0673  -16.9004 O   0  0  0  0  0  0  0  0  0  0  0  0
   28.0902  -19.9323  -15.3676 C   0  0  2  0  0  0  0  0  0  0  0  0
   28.5030  -20.6311  -16.5377 N   0  0  0  0  0  0  0  0  0  0  0  0
   27.2086  -20.7239  -14.4601 C   0  0  0  0  0  0  0  0  0  0  0  0
   26.5046  -21.6214  -14.9487 O   0  0  0  0  0  0  0  0  0  0  0  0
   26.8180  -19.4006   -7.6778 C   0  0  0  0  0  0  0  0  0  0  0  0
   26.5733  -21.1504   -7.9783 S   0  0  0  0  0  0  0  0  0  0  0  0
   25.9070  -21.4574   -9.6554 C   0  0  0  0  0  0  0  0  0  0  0  0
   26.7821  -20.7760  -10.6547 C   0  0  0  0  0  0  0  0  0  0  0  0
   26.2904  -20.9834  -12.0941 C   0  0  2  0  0  0  0  0  0  0  0  0
   27.1641  -20.4705  -13.0748 N   0  0  0  0  0  0  0  0  0  0  0  0
   24.8822  -20.6286  -12.1755 C   0  0  0  0  0  0  0  0  0  0  0  0
   24.5613  -19.4218  -12.0238 O   0  0  0  0  0  0  0  0  0  0  0  0
   23.8206  -21.5399  -12.4151 N   0  0  0  0  0  0  0  0  0  0  0  0
   22.4045  -21.1816  -12.2206 C   0  0  1  0  0  0  0  0  0  0  0  0
   22.1994  -20.5276  -10.9020 C   0  0  0  0  0  0  0  0  0  0  0  0
   21.3529  -21.3721  -10.0354 C   0  0  0  0  0  0  0  0  0  0  0  0
   21.2267  -21.1523   -8.6703 C   0  0  0  0  0  0  0  0  0  0  0  0
   20.4256  -21.9553   -7.8923 C   0  0  0  0  0  0  0  0  0  0  0  0
   19.7123  -23.0091   -8.4130 C   0  0  0  0  0  0  0  0  0  0  0  0
   19.8274  -23.2385   -9.7601 C   0  0  0  0  0  0  0  0  0  0  0  0
   20.6234  -22.4465  -10.5553 C   0  0  0  0  0  0  0  0  0  0  0  0
   22.0141  -20.3200  -13.3313 C   0  0  0  0  0  0  0  0  0  0  0  0
   20.7173  -20.2727  -13.7931 O   0  0  0  0  0  0  0  0  0  0  0  0
   22.8588  -19.5925  -13.9043 O   0  0  0  0  0  0  0  0  0  0  0  0
  2  1  1  1
  2  4  1  0
  3  2  1  0
  4  6  1  0
  4  5  1  6
  6  7  2  0
  9  8  1  0
 10  9  1  0
 11 10  1  0
 12 11  1  1
 13  6  1  0
 13 12  1  0
 14 12  1  0
 14 15  2  0
 16 14  1  0
 17 16  1  0
 17 25  1  0
 17 18  1  1
 19 24  2  0
 19 18  1  0
 20 19  1  0
 21 22  1  0
 21 20  2  0
 22 23  2  0
 23 24  1  0
 25 27  2  0
 25 26  1  0
M  END
$$$$
