TMF.pdb
     RDKit          3D

 27 27  0  0  1  0  0  0  0  0999 V2000
   19.6969  -12.5173  -14.9600 C   0  0  0  0  0  0  0  0  0  0  0  0
   19.0227  -11.2281  -14.5383 C   0  0  1  0  0  0  0  0  0  0  0  0
   19.1939  -10.2244  -15.4708 O   0  0  0  0  0  0  0  0  0  0  0  0
   17.5434  -11.4926  -14.2451 C   0  0  2  0  0  0  0  0  0  0  0  0
   16.9335  -11.8710  -15.4750 N   0  0  0  0  0  0  0  0  0  0  0  0
   16.9261  -10.2985  -13.5968 C   0  0  0  0  0  0  0  0  0  0  0  0
   16.3891   -9.4420  -14.3164 O   0  0  0  0  0  0  0  0  0  0  0  0
   12.5169  -10.2787   -9.4983 C   0  0  0  0  0  0  0  0  0  0  0  0
   13.3412   -8.9014   -8.7011 S   0  0  0  0  0  0  0  0  0  0  0  0
   14.7924   -8.3381   -9.6643 C   0  0  0  0  0  0  0  0  0  0  0  0
   15.3455   -9.4969  -10.4260 C   0  0  0  0  0  0  0  0  0  0  0  0
   16.4431   -9.0729  -11.4120 C   0  0  2  0  0  0  0  0  0  0  0  0
   16.9437  -10.1312  -12.1979 N   0  0  0  0  0  0  0  0  0  0  0  0
   17.3970   -8.2145  -10.7276 C   0  0  0  0  0  0  0  0  0  0  0  0
   18.0557   -8.6984   -9.7712 O   0  0  0  0  0  0  0  0  0  0  0  0
   17.6545   -6.8563  -11.0494 N   0  0  0  0  0  0  0  0  0  0  0  0
   18.5665   -6.0099  -10.2598 C   0  0  1  0  0  0  0  0  0  0  0  0
   19.7499   -5.6107  -11.0650 C   0  0  0  0  0  0  0  0  0  0  0  0
   20.5737   -6.7927  -11.3890 C   0  0  0  0  0  0  0  0  0  0  0  0
   21.3570   -7.4404  -10.4430 C   0  0  0  0  0  0  0  0  0  0  0  0
   22.1092   -8.5423  -10.7773 C   0  0  0  0  0  0  0  0  0  0  0  0
   22.1300   -9.0607  -12.0506 C   0  0  0  0  0  0  0  0  0  0  0  0
   21.3613   -8.4312  -12.9958 C   0  0  0  0  0  0  0  0  0  0  0  0
   20.6018   -7.3277  -12.6812 C   0  0  0  0  0  0  0  0  0  0  0  0
   17.8017   -4.8583   -9.7933 C   0  0  0  0  0  0  0  0  0  0  0  0
   18.2822   -4.0144   -8.8166 O   0  0  0  0  0  0  0  0  0  0  0  0
   16.6717   -4.6041  -10.2725 O   0  0  0  0  0  0  0  0  0  0  0  0
  2  1  1  6
  2  4  1  0
  3  2  1  0
  4  6  1  0
  4  5  1  6
  6  7  2  0
  9  8  1  0
 10  9  1  0
 11 10  1  0
 12 11  1  1
 13  6  1  0
 13 12  1  0
 14 12  1  0
 14 15  2  0
 16 14  1  0
 17 16  1  0
 17 25  1  0
 17 18  1  6
 19 24  2  0
 19 18  1  0
 20 19  1  0
 21 22  1  0
 21 20  2  0
 22 23  2  0
 23 24  1  0
 25 27  2  0
 25 26  1  0
M  END
$$$$
