NIL.pdb
     RDKit          3D

 25 24  0  0  1  0  0  0  0  0999 V2000
   28.5499  -17.3052  -17.1483 N   0  0  0  0  0  0  0  0  0  0  0  0
   27.9156  -17.5684  -15.9117 C   0  0  0  0  0  0  0  0  0  0  0  0
   27.9633  -16.7027  -15.0207 O   0  0  0  0  0  0  0  0  0  0  0  0
   27.1970  -18.8406  -15.6440 C   0  0  0  0  0  0  0  0  0  0  0  0
   27.9408  -19.6697  -14.6178 C   0  0  2  0  0  0  0  0  0  0  0  0
   28.8535  -20.5345  -15.3283 N   0  0  0  0  0  0  0  0  0  0  0  0
   26.9971  -20.4901  -13.7989 C   0  0  0  0  0  0  0  0  0  0  0  0
   26.5086  -21.5607  -14.2361 O   0  0  0  0  0  0  0  0  0  0  0  0
   26.8619  -20.0875   -8.1330 C   0  0  0  0  0  0  0  0  0  0  0  0
   26.7849  -20.7627   -9.4693 C   0  0  0  0  0  0  0  0  0  0  0  0
   25.5743  -20.5337  -10.2875 C   0  0  2  0  0  0  0  0  0  0  0  0
   24.3093  -21.0624   -9.5931 C   0  0  0  0  0  0  0  0  0  0  0  0
   25.5952  -20.8119  -11.7236 C   0  0  2  0  0  0  0  0  0  0  0  0
   26.5958  -20.1230  -12.4963 N   0  0  0  0  0  0  0  0  0  0  0  0
   24.2902  -20.5305  -12.3495 C   0  0  0  0  0  0  0  0  0  0  0  0
   24.0174  -19.3268  -12.6403 O   0  0  0  0  0  0  0  0  0  0  0  0
   21.7455  -19.5686  -15.8740 C   0  0  0  0  0  0  0  0  0  0  0  0
   22.6853  -20.7876  -15.7810 C   0  0  2  0  0  0  0  0  0  0  0  0
   22.8443  -21.3835  -17.1393 C   0  0  0  0  0  0  0  0  0  0  0  0
   22.1749  -21.7471  -14.7651 C   0  0  0  0  0  0  0  0  0  0  0  0
   22.1277  -21.0585  -13.3980 C   0  0  2  0  0  0  0  0  0  0  0  0
   23.3241  -21.5208  -12.6518 N   0  0  0  0  0  0  0  0  0  0  0  0
   20.9531  -21.4813  -12.6402 C   0  0  0  0  0  0  0  0  0  0  0  0
   21.0580  -22.4065  -11.6253 O   0  0  0  0  0  0  0  0  0  0  0  0
   19.8208  -21.0191  -12.8918 O   0  0  0  0  0  0  0  0  0  0  0  0
  1  2  1  0
  2  4  1  0
  3  2  2  0
  4  5  1  0
  5  6  1  6
  7  5  1  0
  8  7  2  0
  9 10  1  0
 11 10  1  0
 11 13  1  0
 11 12  1  1
 13 15  1  0
 13 14  1  6
 14  7  1  0
 15 16  2  0
 18 17  1  6
 18 20  1  0
 19 18  1  0
 21 20  1  6
 22 21  1  0
 22 15  1  0
 23 24  1  0
 23 21  1  0
 25 23  2  0
M  END
$$$$
