NIL.pdb
     RDKit          3D

 25 24  0  0  1  0  0  0  0  0999 V2000
   29.2365  -19.9715  -17.6378 N   0  0  0  0  0  0  0  0  0  0  0  0
   27.8951  -19.5232  -17.6675 C   0  0  0  0  0  0  0  0  0  0  0  0
   27.5843  -18.6242  -18.4679 O   0  0  0  0  0  0  0  0  0  0  0  0
   26.8498  -20.0896  -16.7769 C   0  0  0  0  0  0  0  0  0  0  0  0
   27.4222  -21.1968  -15.9165 C   0  0  2  0  0  0  0  0  0  0  0  0
   27.7067  -22.3210  -16.7773 N   0  0  0  0  0  0  0  0  0  0  0  0
   26.4585  -21.6051  -14.8493 C   0  0  0  0  0  0  0  0  0  0  0  0
   25.6035  -22.5031  -15.0456 O   0  0  0  0  0  0  0  0  0  0  0  0
   25.2814  -20.6982   -8.6973 C   0  0  0  0  0  0  0  0  0  0  0  0
   24.9137  -21.2137  -10.0561 C   0  0  0  0  0  0  0  0  0  0  0  0
   25.8208  -20.8978  -11.1808 C   0  0  2  0  0  0  0  0  0  0  0  0
   26.3307  -19.4496  -11.1115 C   0  0  0  0  0  0  0  0  0  0  0  0
   25.4792  -21.3178  -12.5399 C   0  0  2  0  0  0  0  0  0  0  0  0
   26.4434  -21.0177  -13.5659 N   0  0  0  0  0  0  0  0  0  0  0  0
   24.1890  -20.7513  -12.9743 C   0  0  0  0  0  0  0  0  0  0  0  0
   24.1736  -19.5501  -13.3800 O   0  0  0  0  0  0  0  0  0  0  0  0
   19.6617  -21.7992  -16.5408 C   0  0  0  0  0  0  0  0  0  0  0  0
   20.3235  -20.8332  -15.5374 C   0  0  2  0  0  0  0  0  0  0  0  0
   20.6893  -19.5723  -16.2456 C   0  0  0  0  0  0  0  0  0  0  0  0
   21.4759  -21.5001  -14.8739 C   0  0  0  0  0  0  0  0  0  0  0  0
   21.8015  -20.7672  -13.5692 C   0  0  2  0  0  0  0  0  0  0  0  0
   22.9667  -21.4662  -12.9727 N   0  0  0  0  0  0  0  0  0  0  0  0
   20.6974  -20.8754  -12.6195 C   0  0  0  0  0  0  0  0  0  0  0  0
   19.7733  -19.8628  -12.4865 O   0  0  0  0  0  0  0  0  0  0  0  0
   20.5608  -21.8863  -11.8995 O   0  0  0  0  0  0  0  0  0  0  0  0
  1  2  1  0
  2  4  1  0
  3  2  2  0
  4  5  1  0
  5  6  1  6
  7  5  1  0
  8  7  2  0
  9 10  1  0
 11 10  1  0
 11 13  1  0
 11 12  1  6
 13 15  1  0
 13 14  1  6
 14  7  1  0
 15 16  2  0
 18 17  1  6
 18 20  1  0
 19 18  1  0
 21 20  1  6
 22 21  1  0
 22 15  1  0
 23 24  1  0
 23 21  1  0
 25 23  2  0
M  END
$$$$
