NIL.pdb
     RDKit          3D

 25 24  0  0  1  0  0  0  0  0999 V2000
   17.4990  -21.2516  -14.5322 N   0  0  0  0  0  0  0  0  0  0  0  0
   18.8383  -21.7015  -14.4616 C   0  0  0  0  0  0  0  0  0  0  0  0
   19.0571  -22.9253  -14.4618 O   0  0  0  0  0  0  0  0  0  0  0  0
   19.9873  -20.7629  -14.3873 C   0  0  0  0  0  0  0  0  0  0  0  0
   20.9822  -21.2167  -13.3395 C   0  0  2  0  0  0  0  0  0  0  0  0
   20.3354  -21.1297  -12.0512 N   0  0  0  0  0  0  0  0  0  0  0  0
   22.2078  -20.3611  -13.3515 C   0  0  0  0  0  0  0  0  0  0  0  0
   22.1889  -19.1812  -12.9235 O   0  0  0  0  0  0  0  0  0  0  0  0
   26.6360  -21.9928  -11.0043 C   0  0  0  0  0  0  0  0  0  0  0  0
   25.5224  -21.2368  -11.6643 C   0  0  0  0  0  0  0  0  0  0  0  0
   25.7737  -20.6762  -13.0097 C   0  0  2  0  0  0  0  0  0  0  0  0
   27.0663  -19.8457  -13.0482 C   0  0  0  0  0  0  0  0  0  0  0  0
   24.6808  -20.0659  -13.7668 C   0  0  2  0  0  0  0  0  0  0  0  0
   23.4530  -20.8142  -13.8380 N   0  0  0  0  0  0  0  0  0  0  0  0
   25.0855  -19.7585  -15.1509 C   0  0  0  0  0  0  0  0  0  0  0  0
   25.4289  -20.7237  -15.8982 O   0  0  0  0  0  0  0  0  0  0  0  0
   23.7387  -16.0444  -19.7194 C   0  0  0  0  0  0  0  0  0  0  0  0
   24.6212  -17.1884  -19.1805 C   0  0  2  0  0  0  0  0  0  0  0  0
   24.4262  -18.3962  -20.0340 C   0  0  0  0  0  0  0  0  0  0  0  0
   24.3277  -17.4222  -17.7409 C   0  0  0  0  0  0  0  0  0  0  0  0
   25.3843  -18.3639  -17.1560 C   0  0  2  0  0  0  0  0  0  0  0  0
   25.1093  -18.4537  -15.7005 N   0  0  0  0  0  0  0  0  0  0  0  0
   26.7249  -17.8058  -17.3109 C   0  0  0  0  0  0  0  0  0  0  0  0
   27.5860  -18.2835  -18.2739 O   0  0  0  0  0  0  0  0  0  0  0  0
   27.1299  -16.8827  -16.5741 O   0  0  0  0  0  0  0  0  0  0  0  0
  1  2  1  0
  2  4  1  0
  3  2  2  0
  4  5  1  0
  5  6  1  1
  7  5  1  0
  8  7  2  0
  9 10  1  0
 11 10  1  0
 11 13  1  0
 11 12  1  1
 13 15  1  0
 13 14  1  6
 14  7  1  0
 15 16  2  0
 18 17  1  6
 18 20  1  0
 19 18  1  0
 21 20  1  6
 22 21  1  0
 22 15  1  0
 23 24  1  0
 23 21  1  0
 25 23  2  0
M  END
$$$$
