NIL.pdb
     RDKit          3D

 25 24  0  0  1  0  0  0  0  0999 V2000
   26.4808  -27.1893  -17.1152 N   0  0  0  0  0  0  0  0  0  0  0  0
   26.3393  -25.7982  -17.3293 C   0  0  0  0  0  0  0  0  0  0  0  0
   25.8601  -25.4063  -18.4074 O   0  0  0  0  0  0  0  0  0  0  0  0
   26.7430  -24.7942  -16.3116 C   0  0  0  0  0  0  0  0  0  0  0  0
   27.6210  -23.7270  -16.9315 C   0  0  2  0  0  0  0  0  0  0  0  0
   28.9280  -24.3024  -17.1467 N   0  0  0  0  0  0  0  0  0  0  0  0
   27.7321  -22.5330  -16.0393 C   0  0  0  0  0  0  0  0  0  0  0  0
   28.6885  -22.3997  -15.2372 O   0  0  0  0  0  0  0  0  0  0  0  0
   27.8360  -17.4762  -17.6061 C   0  0  0  0  0  0  0  0  0  0  0  0
   27.9336  -18.7589  -16.8364 C   0  0  0  0  0  0  0  0  0  0  0  0
   26.8950  -19.0323  -15.8195 C   0  0  2  0  0  0  0  0  0  0  0  0
   26.7427  -17.8640  -14.8327 C   0  0  0  0  0  0  0  0  0  0  0  0
   26.8312  -20.3408  -15.1686 C   0  0  2  0  0  0  0  0  0  0  0  0
   26.7831  -21.4881  -16.0369 N   0  0  0  0  0  0  0  0  0  0  0  0
   25.6778  -20.4363  -14.2550 C   0  0  0  0  0  0  0  0  0  0  0  0
   24.6043  -20.9408  -14.7033 O   0  0  0  0  0  0  0  0  0  0  0  0
   25.4281  -22.0328   -9.9277 C   0  0  0  0  0  0  0  0  0  0  0  0
   25.8586  -20.5637  -10.1130 C   0  0  2  0  0  0  0  0  0  0  0  0
   26.3453  -20.0314   -8.8072 C   0  0  0  0  0  0  0  0  0  0  0  0
   24.7405  -19.7760  -10.6983 C   0  0  0  0  0  0  0  0  0  0  0  0
   24.4640  -20.2708  -12.1210 C   0  0  2  0  0  0  0  0  0  0  0  0
   25.6949  -20.0053  -12.9062 N   0  0  0  0  0  0  0  0  0  0  0  0
   23.3822  -19.5085  -12.7384 C   0  0  0  0  0  0  0  0  0  0  0  0
   22.0663  -19.8778  -12.5684 O   0  0  0  0  0  0  0  0  0  0  0  0
   23.6186  -18.5028  -13.4396 O   0  0  0  0  0  0  0  0  0  0  0  0
  1  2  1  0
  2  4  1  0
  3  2  2  0
  4  5  1  0
  5  6  1  1
  7  5  1  0
  8  7  2  0
  9 10  1  0
 11 10  1  0
 11 13  1  0
 11 12  1  1
 13 15  1  0
 13 14  1  6
 14  7  1  0
 15 16  2  0
 18 17  1  1
 18 20  1  0
 19 18  1  0
 21 20  1  1
 22 21  1  0
 22 15  1  0
 23 24  1  0
 23 21  1  0
 25 23  2  0
M  END
$$$$
