NIL.pdb
     RDKit          3D

 25 24  0  0  1  0  0  0  0  0999 V2000
   20.9610  -23.0975  -17.1066 N   0  0  0  0  0  0  0  0  0  0  0  0
   21.5758  -23.2394  -15.8405 C   0  0  0  0  0  0  0  0  0  0  0  0
   21.5684  -24.3570  -15.2959 O   0  0  0  0  0  0  0  0  0  0  0  0
   22.2274  -22.1011  -15.1433 C   0  0  0  0  0  0  0  0  0  0  0  0
   21.8225  -22.0645  -13.6844 C   0  0  2  0  0  0  0  0  0  0  0  0
   20.4011  -21.8154  -13.6281 N   0  0  0  0  0  0  0  0  0  0  0  0
   22.5560  -20.9912  -12.9466 C   0  0  0  0  0  0  0  0  0  0  0  0
   22.2342  -19.7826  -13.0549 O   0  0  0  0  0  0  0  0  0  0  0  0
   24.3293  -21.2487   -7.6449 C   0  0  0  0  0  0  0  0  0  0  0  0
   23.8346  -20.8929   -9.0146 C   0  0  0  0  0  0  0  0  0  0  0  0
   24.8419  -20.5634  -10.0463 C   0  0  2  0  0  0  0  0  0  0  0  0
   25.9073  -19.5931   -9.5123 C   0  0  0  0  0  0  0  0  0  0  0  0
   24.4195  -20.2518  -11.4117 C   0  0  2  0  0  0  0  0  0  0  0  0
   23.6454  -21.2585  -12.0898 N   0  0  0  0  0  0  0  0  0  0  0  0
   25.5707  -19.9311  -12.2755 C   0  0  0  0  0  0  0  0  0  0  0  0
   26.1402  -18.8096  -12.1151 O   0  0  0  0  0  0  0  0  0  0  0  0
   29.1709  -19.0951  -12.2774 C   0  0  0  0  0  0  0  0  0  0  0  0
   28.8554  -20.6045  -12.2757 C   0  0  2  0  0  0  0  0  0  0  0  0
   30.0277  -21.3456  -11.7265 C   0  0  0  0  0  0  0  0  0  0  0  0
   28.4595  -21.0429  -13.6411 C   0  0  0  0  0  0  0  0  0  0  0  0
   27.2110  -20.2710  -14.0779 C   0  0  2  0  0  0  0  0  0  0  0  0
   26.0845  -20.7993  -13.2692 N   0  0  0  0  0  0  0  0  0  0  0  0
   26.8989  -20.5324  -15.4803 C   0  0  0  0  0  0  0  0  0  0  0  0
   25.7443  -21.1914  -15.8400 O   0  0  0  0  0  0  0  0  0  0  0  0
   27.6701  -20.1692  -16.3927 O   0  0  0  0  0  0  0  0  0  0  0  0
  1  2  1  0
  2  4  1  0
  3  2  2  0
  4  5  1  0
  5  6  1  6
  7  5  1  0
  8  7  2  0
  9 10  1  0
 11 10  1  0
 11 13  1  0
 11 12  1  1
 13 15  1  0
 13 14  1  6
 14  7  1  0
 15 16  2  0
 18 17  1  6
 18 20  1  0
 19 18  1  0
 21 20  1  1
 22 21  1  0
 22 15  1  0
 23 24  1  0
 23 21  1  0
 25 23  2  0
M  END
$$$$
