NIL.pdb
     RDKit          3D

 25 24  0  0  1  0  0  0  0  0999 V2000
   35.2488  -35.3440  -19.2351 N   0  0  0  0  0  0  0  0  0  0  0  0
   34.3260  -35.7935  -18.2617 C   0  0  0  0  0  0  0  0  0  0  0  0
   34.0294  -37.0005  -18.2337 O   0  0  0  0  0  0  0  0  0  0  0  0
   33.7022  -34.8740  -17.2759 C   0  0  0  0  0  0  0  0  0  0  0  0
   34.2216  -33.4629  -17.4570 C   0  0  2  0  0  0  0  0  0  0  0  0
   35.3332  -33.2834  -16.5526 N   0  0  0  0  0  0  0  0  0  0  0  0
   33.1589  -32.4538  -17.1626 C   0  0  0  0  0  0  0  0  0  0  0  0
   32.9076  -32.0889  -15.9881 O   0  0  0  0  0  0  0  0  0  0  0  0
   33.1094  -28.0868  -17.9988 C   0  0  0  0  0  0  0  0  0  0  0  0
   32.5869  -28.9049  -19.1412 C   0  0  0  0  0  0  0  0  0  0  0  0
   31.3743  -29.7187  -18.9072 C   0  0  2  0  0  0  0  0  0  0  0  0
   30.1164  -28.8440  -18.7857 C   0  0  0  0  0  0  0  0  0  0  0  0
   31.4016  -30.8159  -17.9400 C   0  0  2  0  0  0  0  0  0  0  0  0
   32.3760  -31.8503  -18.1702 N   0  0  0  0  0  0  0  0  0  0  0  0
   30.0863  -31.4725  -17.8276 C   0  0  0  0  0  0  0  0  0  0  0  0
   29.6600  -32.1249  -18.8278 O   0  0  0  0  0  0  0  0  0  0  0  0
   25.1800  -32.3916  -16.0229 C   0  0  0  0  0  0  0  0  0  0  0  0
   26.2766  -33.1507  -15.2488 C   0  0  2  0  0  0  0  0  0  0  0  0
   25.7824  -33.4496  -13.8734 C   0  0  0  0  0  0  0  0  0  0  0  0
   27.5451  -32.3737  -15.2707 C   0  0  0  0  0  0  0  0  0  0  0  0
   28.0244  -32.2289  -16.7179 C   0  0  2  0  0  0  0  0  0  0  0  0
   29.2712  -31.4255  -16.6706 N   0  0  0  0  0  0  0  0  0  0  0  0
   27.0566  -31.4819  -17.5167 C   0  0  0  0  0  0  0  0  0  0  0  0
   26.8513  -30.1361  -17.3077 O   0  0  0  0  0  0  0  0  0  0  0  0
   26.3860  -32.0413  -18.4091 O   0  0  0  0  0  0  0  0  0  0  0  0
  1  2  1  0
  2  4  1  0
  3  2  2  0
  4  5  1  0
  5  6  1  1
  7  5  1  0
  8  7  2  0
  9 10  1  0
 11 10  1  0
 11 13  1  0
 11 12  1  1
 13 15  1  0
 13 14  1  6
 14  7  1  0
 15 16  2  0
 18 17  1  6
 18 20  1  0
 19 18  1  0
 21 20  1  1
 22 21  1  0
 22 15  1  0
 23 24  1  0
 23 21  1  0
 25 23  2  0
M  END
$$$$
