HKQ.pdb
     RDKit          3D

 29 29  0  0  1  0  0  0  0  0999 V2000
   30.7407  -24.5414  -16.3826 N   0  0  0  0  0  0  0  0  0  0  0  0
   29.6339  -23.8778  -17.0415 C   0  0  1  0  0  0  0  0  0  0  0  0
   28.6385  -24.9433  -17.4275 C   0  0  0  0  0  0  0  0  0  0  0  0
   29.2316  -25.7396  -18.5414 C   0  0  0  0  0  0  0  0  0  0  0  0
   29.4275  -27.0955  -18.6107 C   0  0  0  0  0  0  0  0  0  0  0  0
   29.9893  -27.3824  -19.7935 N   0  0  0  0  0  0  0  0  0  0  0  0
   30.1537  -26.2281  -20.4779 C   0  0  0  0  0  0  0  0  0  0  0  0
   29.6908  -25.2392  -19.7090 N   0  0  0  0  0  0  0  0  0  0  0  0
   28.9881  -22.8809  -16.1349 C   0  0  0  0  0  0  0  0  0  0  0  0
   28.8813  -23.1350  -14.9303 O   0  0  0  0  0  0  0  0  0  0  0  0
   28.5021  -21.6667  -16.6215 N   0  0  0  0  0  0  0  0  0  0  0  0
   27.8973  -20.5848  -15.9665 C   0  0  1  0  0  0  0  0  0  0  0  0
   27.8805  -19.2338  -16.6200 C   0  0  0  0  0  0  0  0  0  0  0  0
   27.0318  -18.2297  -15.8731 C   0  0  0  0  0  0  0  0  0  0  0  0
   27.1058  -16.8365  -16.3915 C   0  0  0  0  0  0  0  0  0  0  0  0
   27.0485  -15.7383  -15.4055 C   0  0  0  0  0  0  0  0  0  0  0  0
   27.1631  -14.4638  -16.0342 N   0  0  0  0  0  0  0  0  0  0  0  0
   26.5847  -20.9035  -15.4257 C   0  0  0  0  0  0  0  0  0  0  0  0
   25.7312  -21.4125  -16.2375 O   0  0  0  0  0  0  0  0  0  0  0  0
   24.1186  -20.7341   -9.6418 N   0  0  0  0  0  0  0  0  0  0  0  0
   25.4706  -20.4205  -10.0398 C   0  0  0  0  0  0  0  0  0  0  0  0
   26.1689  -19.7549   -9.2481 O   0  0  0  0  0  0  0  0  0  0  0  0
   25.9560  -20.8826  -11.3325 C   0  0  0  0  0  0  0  0  0  0  0  0
   25.0689  -21.7251  -12.1817 C   0  0  0  0  0  0  0  0  0  0  0  0
   24.8712  -21.3169  -13.5973 C   0  0  2  0  0  0  0  0  0  0  0  0
   26.1292  -20.7235  -14.1151 N   0  0  0  0  0  0  0  0  0  0  0  0
   23.8498  -20.2749  -13.7916 C   0  0  0  0  0  0  0  0  0  0  0  0
   22.5974  -20.4892  -13.7710 O   0  0  0  0  0  0  0  0  0  0  0  0
   24.2225  -18.9287  -14.0117 O   0  0  0  0  0  0  0  0  0  0  0  0
  2  1  1  1
  3  4  1  0
  3  2  1  0
  4  5  2  0
  5  6  1  0
  7  6  1  0
  8  4  1  0
  8  7  2  0
  9  2  1  0
  9 10  2  0
 11  9  1  0
 12 11  1  0
 13 14  1  0
 12 13  1  6
 14 15  1  0
 15 16  1  0
 16 17  1  0
 18 19  2  0
 18 12  1  0
 20 21  1  0
 21 22  2  0
 23 21  1  0
 23 24  1  0
 25 24  1  1
 25 27  1  0
 25 26  1  0
 26 18  1  0
 27 29  1  0
 28 27  2  0
M  END
$$$$
