HKQ.pdb
     RDKit          3D

 29 29  0  0  1  0  0  0  0  0999 V2000
   32.2906  -37.2627   -4.9064 N   0  0  0  0  0  0  0  0  0  0  0  0
   32.2501  -36.2277   -3.8932 C   0  0  1  0  0  0  0  0  0  0  0  0
   30.8437  -35.6831   -3.8653 C   0  0  0  0  0  0  0  0  0  0  0  0
   30.6373  -34.8888   -5.1115 C   0  0  0  0  0  0  0  0  0  0  0  0
   29.7861  -35.1457   -6.1559 C   0  0  0  0  0  0  0  0  0  0  0  0
   29.9254  -34.1712   -7.0657 N   0  0  0  0  0  0  0  0  0  0  0  0
   30.8535  -33.2975   -6.6148 C   0  0  0  0  0  0  0  0  0  0  0  0
   31.2779  -33.7428   -5.4295 N   0  0  0  0  0  0  0  0  0  0  0  0
   32.6118  -36.7750   -2.5507 C   0  0  0  0  0  0  0  0  0  0  0  0
   32.0919  -37.8270   -2.1634 O   0  0  0  0  0  0  0  0  0  0  0  0
   33.5263  -36.1214   -1.7237 N   0  0  0  0  0  0  0  0  0  0  0  0
   34.0137  -36.4438   -0.4495 C   0  0  1  0  0  0  0  0  0  0  0  0
   35.3085  -35.8505    0.0243 C   0  0  0  0  0  0  0  0  0  0  0  0
   36.4921  -36.2753   -0.8153 C   0  0  0  0  0  0  0  0  0  0  0  0
   37.7856  -35.6397   -0.4436 C   0  0  0  0  0  0  0  0  0  0  0  0
   38.9824  -36.0259   -1.2183 C   0  0  0  0  0  0  0  0  0  0  0  0
   40.1110  -35.2269   -0.8711 N   0  0  0  0  0  0  0  0  0  0  0  0
   33.0017  -36.3509    0.5916 C   0  0  0  0  0  0  0  0  0  0  0  0
   32.1769  -35.3710    0.5126 O   0  0  0  0  0  0  0  0  0  0  0  0
   30.4827  -41.0717    4.0433 N   0  0  0  0  0  0  0  0  0  0  0  0
   29.8910  -39.9024    4.6495 C   0  0  0  0  0  0  0  0  0  0  0  0
   29.0692  -40.0799    5.5718 O   0  0  0  0  0  0  0  0  0  0  0  0
   30.2680  -38.5825    4.1637 C   0  0  0  0  0  0  0  0  0  0  0  0
   31.3681  -38.4631    3.1669 C   0  0  0  0  0  0  0  0  0  0  0  0
   31.6450  -37.1187    2.5965 C   0  0  2  0  0  0  0  0  0  0  0  0
   32.8107  -37.2063    1.6823 N   0  0  0  0  0  0  0  0  0  0  0  0
   32.0175  -36.1015    3.5932 C   0  0  0  0  0  0  0  0  0  0  0  0
   31.1831  -35.4561    4.3019 O   0  0  0  0  0  0  0  0  0  0  0  0
   33.3749  -35.7828    3.8289 O   0  0  0  0  0  0  0  0  0  0  0  0
  2  1  1  6
  3  4  1  0
  3  2  1  0
  4  5  2  0
  5  6  1  0
  7  6  1  0
  8  4  1  0
  8  7  2  0
  9  2  1  0
  9 10  2  0
 11  9  1  0
 12 11  1  0
 13 14  1  0
 12 13  1  1
 14 15  1  0
 15 16  1  0
 16 17  1  0
 18 19  2  0
 18 12  1  0
 20 21  1  0
 21 22  2  0
 23 21  1  0
 23 24  1  0
 25 24  1  1
 25 27  1  0
 25 26  1  0
 26 18  1  0
 27 29  1  0
 28 27  2  0
M  END
$$$$
