HKQ.pdb
     RDKit          3D

 29 29  0  0  1  0  0  0  0  0999 V2000
   24.1814  -33.3745   -8.8647 N   0  0  0  0  0  0  0  0  0  0  0  0
   23.5675  -32.3935   -9.7365 C   0  0  1  0  0  0  0  0  0  0  0  0
   23.8464  -32.8192  -11.1564 C   0  0  0  0  0  0  0  0  0  0  0  0
   25.3169  -32.7093  -11.3851 C   0  0  0  0  0  0  0  0  0  0  0  0
   26.2829  -32.2561  -10.5232 C   0  0  0  0  0  0  0  0  0  0  0  0
   27.4703  -32.3304  -11.1407 N   0  0  0  0  0  0  0  0  0  0  0  0
   27.2735  -32.8247  -12.3836 C   0  0  0  0  0  0  0  0  0  0  0  0
   25.9645  -33.0506  -12.5203 N   0  0  0  0  0  0  0  0  0  0  0  0
   22.0929  -32.3182   -9.5070 C   0  0  0  0  0  0  0  0  0  0  0  0
   21.4039  -31.5812  -10.2206 O   0  0  0  0  0  0  0  0  0  0  0  0
   21.4767  -33.0643   -8.5015 N   0  0  0  0  0  0  0  0  0  0  0  0
   20.1399  -33.1246   -8.0837 C   0  0  1  0  0  0  0  0  0  0  0  0
   19.3187  -34.3431   -8.3894 C   0  0  0  0  0  0  0  0  0  0  0  0
   17.8521  -34.1592   -8.0702 C   0  0  0  0  0  0  0  0  0  0  0  0
   16.9931  -35.3384   -8.3648 C   0  0  0  0  0  0  0  0  0  0  0  0
   15.5449  -35.2088   -8.1046 C   0  0  0  0  0  0  0  0  0  0  0  0
   14.8330  -36.3738   -8.5153 N   0  0  0  0  0  0  0  0  0  0  0  0
   19.9539  -32.7214   -6.6982 C   0  0  0  0  0  0  0  0  0  0  0  0
   20.8474  -33.1008   -5.8590 O   0  0  0  0  0  0  0  0  0  0  0  0
   19.0394  -27.2404   -4.2640 N   0  0  0  0  0  0  0  0  0  0  0  0
   18.7521  -28.0550   -3.1069 C   0  0  0  0  0  0  0  0  0  0  0  0
   18.6184  -27.4768   -2.0091 O   0  0  0  0  0  0  0  0  0  0  0  0
   18.6368  -29.4979   -3.2648 C   0  0  0  0  0  0  0  0  0  0  0  0
   18.7903  -30.0940   -4.6209 C   0  0  0  0  0  0  0  0  0  0  0  0
   18.8356  -31.5760   -4.7265 C   0  0  2  0  0  0  0  0  0  0  0  0
   18.9105  -31.9620   -6.1576 N   0  0  0  0  0  0  0  0  0  0  0  0
   17.6380  -32.2582   -4.2097 C   0  0  0  0  0  0  0  0  0  0  0  0
   16.4468  -31.9502   -4.5280 O   0  0  0  0  0  0  0  0  0  0  0  0
   17.7547  -33.3378   -3.3040 O   0  0  0  0  0  0  0  0  0  0  0  0
  2  1  1  1
  3  4  1  0
  3  2  1  0
  4  5  2  0
  5  6  1  0
  7  6  1  0
  8  4  1  0
  8  7  2  0
  9  2  1  0
  9 10  2  0
 11  9  1  0
 12 11  1  0
 13 14  1  0
 12 13  1  1
 14 15  1  0
 15 16  1  0
 16 17  1  0
 18 19  2  0
 18 12  1  0
 20 21  1  0
 21 22  2  0
 23 21  1  0
 23 24  1  0
 25 24  1  6
 25 27  1  0
 25 26  1  0
 26 18  1  0
 27 29  1  0
 28 27  2  0
M  END
$$$$
