HKQ.pdb
     RDKit          3D

 29 29  0  0  1  0  0  0  0  0999 V2000
   27.8961  -21.6869  -16.7383 N   0  0  0  0  0  0  0  0  0  0  0  0
   27.3165  -20.6500  -15.9088 C   0  0  1  0  0  0  0  0  0  0  0  0
   26.7179  -19.6193  -16.8331 C   0  0  0  0  0  0  0  0  0  0  0  0
   27.8409  -18.8926  -17.4945 C   0  0  0  0  0  0  0  0  0  0  0  0
   29.1900  -19.0924  -17.3482 C   0  0  0  0  0  0  0  0  0  0  0  0
   29.8354  -18.2160  -18.1307 N   0  0  0  0  0  0  0  0  0  0  0  0
   28.9158  -17.4613  -18.7730 C   0  0  0  0  0  0  0  0  0  0  0  0
   27.7105  -17.8804  -18.3795 N   0  0  0  0  0  0  0  0  0  0  0  0
   26.2584  -21.2071  -15.0126 C   0  0  0  0  0  0  0  0  0  0  0  0
   25.5881  -22.1735  -15.3919 O   0  0  0  0  0  0  0  0  0  0  0  0
   26.0113  -20.6575  -13.7539 N   0  0  0  0  0  0  0  0  0  0  0  0
   25.0124  -20.9276  -12.8082 C   0  0  1  0  0  0  0  0  0  0  0  0
   25.2353  -20.5708  -11.3674 C   0  0  0  0  0  0  0  0  0  0  0  0
   24.1530  -21.1033  -10.4555 C   0  0  0  0  0  0  0  0  0  0  0  0
   24.3244  -20.7678   -9.0156 C   0  0  0  0  0  0  0  0  0  0  0  0
   23.3460  -21.3310   -8.0632 C   0  0  0  0  0  0  0  0  0  0  0  0
   23.6383  -20.9443   -6.7224 N   0  0  0  0  0  0  0  0  0  0  0  0
   23.6880  -20.5047  -13.2369 C   0  0  0  0  0  0  0  0  0  0  0  0
   23.5219  -19.2511  -13.4548 O   0  0  0  0  0  0  0  0  0  0  0  0
   23.0853  -20.0537  -16.8742 N   0  0  0  0  0  0  0  0  0  0  0  0
   21.7143  -19.6832  -17.1350 C   0  0  0  0  0  0  0  0  0  0  0  0
   21.5028  -18.8254  -18.0164 O   0  0  0  0  0  0  0  0  0  0  0  0
   20.6497  -20.3127  -16.3665 C   0  0  0  0  0  0  0  0  0  0  0  0
   21.0046  -21.2936  -15.3036 C   0  0  0  0  0  0  0  0  0  0  0  0
   21.2609  -20.7721  -13.9354 C   0  0  2  0  0  0  0  0  0  0  0  0
   22.5575  -21.3024  -13.4452 N   0  0  0  0  0  0  0  0  0  0  0  0
   20.2718  -21.1935  -12.9300 C   0  0  0  0  0  0  0  0  0  0  0  0
   20.4278  -22.1795  -12.1436 O   0  0  0  0  0  0  0  0  0  0  0  0
   19.0537  -20.4922  -12.7754 O   0  0  0  0  0  0  0  0  0  0  0  0
  2  1  1  6
  3  4  1  0
  3  2  1  0
  4  5  2  0
  5  6  1  0
  7  6  1  0
  8  4  1  0
  8  7  2  0
  9  2  1  0
  9 10  2  0
 11  9  1  0
 12 11  1  0
 13 14  1  0
 12 13  1  1
 14 15  1  0
 15 16  1  0
 16 17  1  0
 18 19  2  0
 18 12  1  0
 20 21  1  0
 21 22  2  0
 23 21  1  0
 23 24  1  0
 25 24  1  6
 25 27  1  0
 25 26  1  0
 26 18  1  0
 27 29  1  0
 28 27  2  0
M  END
$$$$
