HKQ.pdb
     RDKit          3D

 29 29  0  0  1  0  0  0  0  0999 V2000
   25.5493  -20.8912  -17.2364 N   0  0  0  0  0  0  0  0  0  0  0  0
   24.5903  -20.0337  -17.9030 C   0  0  1  0  0  0  0  0  0  0  0  0
   24.0535  -20.7980  -19.0875 C   0  0  0  0  0  0  0  0  0  0  0  0
   25.1879  -21.0401  -20.0262 C   0  0  0  0  0  0  0  0  0  0  0  0
   25.7158  -22.2381  -20.4356 C   0  0  0  0  0  0  0  0  0  0  0  0
   26.7247  -21.9892  -21.2824 N   0  0  0  0  0  0  0  0  0  0  0  0
   26.8463  -20.6495  -21.4176 C   0  0  0  0  0  0  0  0  0  0  0  0
   25.9096  -20.0846  -20.6516 N   0  0  0  0  0  0  0  0  0  0  0  0
   23.4708  -19.6636  -16.9851 C   0  0  0  0  0  0  0  0  0  0  0  0
   23.1550  -20.4330  -16.0712 O   0  0  0  0  0  0  0  0  0  0  0  0
   22.7733  -18.4648  -17.1390 N   0  0  0  0  0  0  0  0  0  0  0  0
   21.6865  -17.9313  -16.4324 C   0  0  1  0  0  0  0  0  0  0  0  0
   21.4334  -16.4522  -16.4613 C   0  0  0  0  0  0  0  0  0  0  0  0
   20.2400  -16.0432  -15.6275 C   0  0  0  0  0  0  0  0  0  0  0  0
   19.9160  -14.5911  -15.6654 C   0  0  0  0  0  0  0  0  0  0  0  0
   18.7638  -14.1287  -14.8653 C   0  0  0  0  0  0  0  0  0  0  0  0
   18.4897  -12.7480  -15.0918 N   0  0  0  0  0  0  0  0  0  0  0  0
   20.4475  -18.6627  -16.6490 C   0  0  0  0  0  0  0  0  0  0  0  0
   19.9559  -18.6322  -17.8340 O   0  0  0  0  0  0  0  0  0  0  0  0
   21.1440  -22.0423  -14.8466 N   0  0  0  0  0  0  0  0  0  0  0  0
   20.3869  -22.8887  -15.7383 C   0  0  0  0  0  0  0  0  0  0  0  0
   20.9672  -23.8767  -16.2327 O   0  0  0  0  0  0  0  0  0  0  0  0
   18.9983  -22.5570  -16.0245 C   0  0  0  0  0  0  0  0  0  0  0  0
   18.3759  -21.3885  -15.3423 C   0  0  0  0  0  0  0  0  0  0  0  0
   18.4275  -20.0732  -16.0329 C   0  0  2  0  0  0  0  0  0  0  0  0
   19.7147  -19.4054  -15.7169 N   0  0  0  0  0  0  0  0  0  0  0  0
   17.3891  -19.1218  -15.6049 C   0  0  0  0  0  0  0  0  0  0  0  0
   17.5761  -18.1932  -14.7577 O   0  0  0  0  0  0  0  0  0  0  0  0
   16.0818  -19.1887  -16.1399 O   0  0  0  0  0  0  0  0  0  0  0  0
  2  1  1  1
  3  4  1  0
  3  2  1  0
  4  5  2  0
  5  6  1  0
  7  6  1  0
  8  4  1  0
  8  7  2  0
  9  2  1  0
  9 10  2  0
 11  9  1  0
 12 11  1  0
 13 14  1  0
 12 13  1  6
 14 15  1  0
 15 16  1  0
 16 17  1  0
 18 19  2  0
 18 12  1  0
 20 21  1  0
 21 22  2  0
 23 21  1  0
 23 24  1  0
 25 24  1  1
 25 27  1  0
 25 26  1  0
 26 18  1  0
 27 29  1  0
 28 27  2  0
M  END
$$$$
