HKQ.pdb
     RDKit          3D

 29 29  0  0  1  0  0  0  0  0999 V2000
   28.4805  -19.1072  -18.8412 N   0  0  0  0  0  0  0  0  0  0  0  0
   27.1095  -19.5644  -18.7385 C   0  0  1  0  0  0  0  0  0  0  0  0
   27.0965  -21.0274  -19.1053 C   0  0  0  0  0  0  0  0  0  0  0  0
   26.9758  -21.1245  -20.5894 C   0  0  0  0  0  0  0  0  0  0  0  0
   25.8370  -21.1360  -21.3539 C   0  0  0  0  0  0  0  0  0  0  0  0
   26.1927  -21.2369  -22.6423 N   0  0  0  0  0  0  0  0  0  0  0  0
   27.5420  -21.2898  -22.7085 C   0  0  0  0  0  0  0  0  0  0  0  0
   28.0057  -21.2209  -21.4581 N   0  0  0  0  0  0  0  0  0  0  0  0
   26.5842  -19.3816  -17.3515 C   0  0  0  0  0  0  0  0  0  0  0  0
   27.2427  -19.7990  -16.3927 O   0  0  0  0  0  0  0  0  0  0  0  0
   25.3633  -18.7482  -17.1163 N   0  0  0  0  0  0  0  0  0  0  0  0
   24.7204  -18.3965  -15.9212 C   0  0  1  0  0  0  0  0  0  0  0  0
   23.8525  -17.1729  -15.8749 C   0  0  0  0  0  0  0  0  0  0  0  0
   24.6467  -15.8867  -15.9128 C   0  0  0  0  0  0  0  0  0  0  0  0
   23.8298  -14.6479  -16.0285 C   0  0  0  0  0  0  0  0  0  0  0  0
   24.5505  -13.3689  -16.1910 C   0  0  0  0  0  0  0  0  0  0  0  0
   23.6533  -12.2609  -16.2062 N   0  0  0  0  0  0  0  0  0  0  0  0
   24.0519  -19.5177  -15.2787 C   0  0  0  0  0  0  0  0  0  0  0  0
   23.2611  -20.2168  -16.0085 O   0  0  0  0  0  0  0  0  0  0  0  0
   26.9656  -21.9718  -10.6235 N   0  0  0  0  0  0  0  0  0  0  0  0
   25.6507  -21.5059  -10.2511 C   0  0  0  0  0  0  0  0  0  0  0  0
   25.2957  -21.6581   -9.0644 O   0  0  0  0  0  0  0  0  0  0  0  0
   24.8022  -20.8909  -11.2620 C   0  0  0  0  0  0  0  0  0  0  0  0
   24.2193  -21.7424  -12.3359 C   0  0  0  0  0  0  0  0  0  0  0  0
   23.4003  -21.0761  -13.3822 C   0  0  2  0  0  0  0  0  0  0  0  0
   24.1639  -19.9363  -13.9484 N   0  0  0  0  0  0  0  0  0  0  0  0
   22.1458  -20.4863  -12.8870 C   0  0  0  0  0  0  0  0  0  0  0  0
   21.9777  -19.2463  -12.6657 O   0  0  0  0  0  0  0  0  0  0  0  0
   21.0170  -21.2981  -12.6294 O   0  0  0  0  0  0  0  0  0  0  0  0
  2  1  1  1
  3  4  1  0
  3  2  1  0
  4  5  2  0
  5  6  1  0
  7  6  1  0
  8  4  1  0
  8  7  2  0
  9  2  1  0
  9 10  2  0
 11  9  1  0
 12 11  1  0
 13 14  1  0
 12 13  1  6
 14 15  1  0
 15 16  1  0
 16 17  1  0
 18 19  2  0
 18 12  1  0
 20 21  1  0
 21 22  2  0
 23 21  1  0
 23 24  1  0
 25 24  1  1
 25 27  1  0
 25 26  1  0
 26 18  1  0
 27 29  1  0
 28 27  2  0
M  END
$$$$
