DQV.pdb
     RDKit          3D

 25 24  0  0  1  0  0  0  0  0999 V2000
    9.3011  -15.0427   19.4738 N   0  0  0  0  0  0  0  0  0  0  0  0
    8.3668  -14.0811   20.0215 C   0  0  1  0  0  0  0  0  0  0  0  0
    7.2149  -13.8703   19.0511 C   0  0  0  0  0  0  0  0  0  0  0  0
    7.7341  -14.1325   17.6845 C   0  0  0  0  0  0  0  0  0  0  0  0
    7.3695  -15.1729   17.0691 O   0  0  0  0  0  0  0  0  0  0  0  0
    7.8781  -14.4906   21.3634 C   0  0  0  0  0  0  0  0  0  0  0  0
    7.0232  -13.7207   21.8987 O   0  0  0  0  0  0  0  0  0  0  0  0
    8.6143  -13.2850   17.0293 O   0  0  0  0  0  0  0  0  0  0  0  0
    6.5496  -19.6533   24.0189 N   0  0  0  0  0  0  0  0  0  0  0  0
    6.7348  -18.8795   25.1836 C   0  0  0  0  0  0  0  0  0  0  0  0
    6.1908  -19.2316   26.2467 O   0  0  0  0  0  0  0  0  0  0  0  0
    7.5633  -17.6611   25.1567 C   0  0  0  0  0  0  0  0  0  0  0  0
    8.0489  -17.3877   23.7547 C   0  0  0  0  0  0  0  0  0  0  0  0
    7.8327  -15.9656   23.3257 C   0  0  2  0  0  0  0  0  0  0  0  0
    8.3170  -15.6576   22.0294 N   0  0  0  0  0  0  0  0  0  0  0  0
    8.4837  -15.0812   24.3265 C   0  0  0  0  0  0  0  0  0  0  0  0
    9.7294  -14.9107   24.3029 O   0  0  0  0  0  0  0  0  0  0  0  0
    6.0885  -12.8469   26.9992 C   0  0  0  0  0  0  0  0  0  0  0  0
    7.5099  -12.4105   26.6659 C   0  0  2  0  0  0  0  0  0  0  0  0
    7.4175  -11.5740   25.3971 C   0  0  0  0  0  0  0  0  0  0  0  0
    8.3193  -13.6445   26.3803 C   0  0  2  0  0  0  0  0  0  0  0  0
    7.7188  -14.4208   25.3153 N   0  0  0  0  0  0  0  0  0  0  0  0
    8.3841  -14.4569   27.6092 C   0  0  0  0  0  0  0  0  0  0  0  0
    7.7994  -15.5684   27.6551 O   0  0  0  0  0  0  0  0  0  0  0  0
    9.0770  -14.0291   28.7282 O   0  0  0  0  0  0  0  0  0  0  0  0
  2  3  1  0
  2  1  1  6
  3  4  1  0
  4  5  2  0
  6  2  1  0
  7  6  2  0
  8  4  1  0
  9 10  1  0
 10 12  1  0
 11 10  2  0
 13 12  1  0
 14 13  1  1
 14 15  1  0
 15  6  1  0
 16 14  1  0
 16 17  2  0
 19 18  1  6
 20 19  1  0
 21 22  1  6
 21 19  1  0
 22 16  1  0
 23 21  1  0
 24 23  2  0
 25 23  1  0
M  END
$$$$
