DQV.pdb
     RDKit          3D

 25 24  0  0  1  0  0  0  0  0999 V2000
    6.2564  -16.4382   19.4298 N   0  0  0  0  0  0  0  0  0  0  0  0
    7.3272  -15.7872   20.1559 C   0  0  1  0  0  0  0  0  0  0  0  0
    7.4339  -14.3329   19.7238 C   0  0  0  0  0  0  0  0  0  0  0  0
    7.9758  -14.3208   18.3410 C   0  0  0  0  0  0  0  0  0  0  0  0
    8.4067  -15.3928   17.8319 O   0  0  0  0  0  0  0  0  0  0  0  0
    7.1471  -15.9050   21.6258 C   0  0  0  0  0  0  0  0  0  0  0  0
    5.9543  -15.8013   22.0463 O   0  0  0  0  0  0  0  0  0  0  0  0
    8.0384  -13.1781   17.5582 O   0  0  0  0  0  0  0  0  0  0  0  0
    6.7376  -19.7019   25.0066 N   0  0  0  0  0  0  0  0  0  0  0  0
    7.2309  -18.9433   26.0886 C   0  0  0  0  0  0  0  0  0  0  0  0
    6.8056  -19.1654   27.2375 O   0  0  0  0  0  0  0  0  0  0  0  0
    8.2420  -17.8927   25.8754 C   0  0  0  0  0  0  0  0  0  0  0  0
    8.4824  -17.6877   24.4002 C   0  0  0  0  0  0  0  0  0  0  0  0
    7.9541  -16.3761   23.8963 C   0  0  2  0  0  0  0  0  0  0  0  0
    8.2150  -16.1190   22.5268 N   0  0  0  0  0  0  0  0  0  0  0  0
    8.5416  -15.2952   24.7293 C   0  0  0  0  0  0  0  0  0  0  0  0
    9.7588  -15.0006   24.6148 O   0  0  0  0  0  0  0  0  0  0  0  0
    6.0594  -13.1630   27.4600 C   0  0  0  0  0  0  0  0  0  0  0  0
    7.2694  -12.4997   26.8137 C   0  0  2  0  0  0  0  0  0  0  0  0
    6.7873  -11.9182   25.4917 C   0  0  0  0  0  0  0  0  0  0  0  0
    8.2902  -13.5673   26.5350 C   0  0  2  0  0  0  0  0  0  0  0  0
    7.7475  -14.5843   25.6582 N   0  0  0  0  0  0  0  0  0  0  0  0
    8.6892  -14.1795   27.8158 C   0  0  0  0  0  0  0  0  0  0  0  0
    8.3803  -15.3727   28.0612 O   0  0  0  0  0  0  0  0  0  0  0  0
    9.4021  -13.4731   28.7687 O   0  0  0  0  0  0  0  0  0  0  0  0
  2  3  1  0
  2  1  1  6
  3  4  1  0
  4  5  2  0
  6  2  1  0
  7  6  2  0
  8  4  1  0
  9 10  1  0
 10 12  1  0
 11 10  2  0
 13 12  1  0
 14 13  1  1
 14 15  1  0
 15  6  1  0
 16 14  1  0
 16 17  2  0
 19 18  1  6
 20 19  1  0
 21 22  1  6
 21 19  1  0
 22 16  1  0
 23 21  1  0
 24 23  2  0
 25 23  1  0
M  END
$$$$
