DQV.pdb
     RDKit          3D

 25 24  0  0  1  0  0  0  0  0999 V2000
   10.3857  -18.3932   21.0294 N   0  0  0  0  0  0  0  0  0  0  0  0
   10.8911  -17.0755   21.3547 C   0  0  1  0  0  0  0  0  0  0  0  0
   10.7098  -16.1452   20.1654 C   0  0  0  0  0  0  0  0  0  0  0  0
   11.7721  -16.4736   19.1807 C   0  0  0  0  0  0  0  0  0  0  0  0
   12.1941  -17.6603   19.0929 O   0  0  0  0  0  0  0  0  0  0  0  0
   10.2497  -16.5258   22.5768 C   0  0  0  0  0  0  0  0  0  0  0  0
   10.6116  -15.3568   22.9125 O   0  0  0  0  0  0  0  0  0  0  0  0
   12.3407  -15.5350   18.3334 O   0  0  0  0  0  0  0  0  0  0  0  0
    7.0204  -20.0109   25.0265 N   0  0  0  0  0  0  0  0  0  0  0  0
    6.3604  -19.2774   24.0186 C   0  0  0  0  0  0  0  0  0  0  0  0
    5.5770  -19.8624   23.2478 O   0  0  0  0  0  0  0  0  0  0  0  0
    6.5869  -17.8291   23.8675 C   0  0  0  0  0  0  0  0  0  0  0  0
    7.4657  -17.3166   24.9817 C   0  0  0  0  0  0  0  0  0  0  0  0
    8.7070  -16.6352   24.4838 C   0  0  2  0  0  0  0  0  0  0  0  0
    9.2934  -17.2335   23.3401 N   0  0  0  0  0  0  0  0  0  0  0  0
    9.6923  -16.6086   25.5955 C   0  0  0  0  0  0  0  0  0  0  0  0
   10.6685  -17.4013   25.5931 O   0  0  0  0  0  0  0  0  0  0  0  0
    8.9960  -14.2482   29.0882 C   0  0  0  0  0  0  0  0  0  0  0  0
   10.3757  -14.2555   28.4415 C   0  0  2  0  0  0  0  0  0  0  0  0
   10.3823  -13.1198   27.4274 C   0  0  0  0  0  0  0  0  0  0  0  0
   10.5409  -15.5609   27.7149 C   0  0  2  0  0  0  0  0  0  0  0  0
    9.5501  -15.6977   26.6674 N   0  0  0  0  0  0  0  0  0  0  0  0
   10.3893  -16.6600   28.6863 C   0  0  0  0  0  0  0  0  0  0  0  0
    9.3867  -17.4150   28.6242 O   0  0  0  0  0  0  0  0  0  0  0  0
   11.3280  -16.8896   29.6769 O   0  0  0  0  0  0  0  0  0  0  0  0
  2  3  1  0
  2  1  1  6
  3  4  1  0
  4  5  2  0
  6  2  1  0
  7  6  2  0
  8  4  1  0
  9 10  1  0
 10 12  1  0
 11 10  2  0
 13 12  1  0
 14 13  1  1
 14 15  1  0
 15  6  1  0
 16 14  1  0
 16 17  2  0
 19 18  1  6
 20 19  1  0
 21 22  1  6
 21 19  1  0
 22 16  1  0
 23 21  1  0
 24 23  2  0
 25 23  1  0
M  END
$$$$
