DQV.pdb
     RDKit          3D

 25 24  0  0  1  0  0  0  0  0999 V2000
    9.2177  -17.8651   20.5915 N   0  0  0  0  0  0  0  0  0  0  0  0
    8.3462  -16.7343   20.3479 C   0  0  1  0  0  0  0  0  0  0  0  0
    7.3837  -17.0590   19.2161 C   0  0  0  0  0  0  0  0  0  0  0  0
    8.1946  -17.2479   17.9861 C   0  0  0  0  0  0  0  0  0  0  0  0
    8.4463  -18.4165   17.5800 O   0  0  0  0  0  0  0  0  0  0  0  0
    7.6199  -16.3237   21.5772 C   0  0  0  0  0  0  0  0  0  0  0  0
    6.8074  -15.3584   21.4424 O   0  0  0  0  0  0  0  0  0  0  0  0
    8.7028  -16.1952   17.2407 O   0  0  0  0  0  0  0  0  0  0  0  0
    6.2773  -19.8529   26.3718 N   0  0  0  0  0  0  0  0  0  0  0  0
    7.6072  -19.3830   26.3609 C   0  0  0  0  0  0  0  0  0  0  0  0
    8.4771  -19.9893   27.0136 O   0  0  0  0  0  0  0  0  0  0  0  0
    7.9785  -18.1850   25.5873 C   0  0  0  0  0  0  0  0  0  0  0  0
    6.7524  -17.5575   24.9715 C   0  0  0  0  0  0  0  0  0  0  0  0
    7.0805  -16.4919   23.9666 C   0  0  2  0  0  0  0  0  0  0  0  0
    7.7994  -16.9475   22.8329 N   0  0  0  0  0  0  0  0  0  0  0  0
    7.8580  -15.4323   24.6597 C   0  0  0  0  0  0  0  0  0  0  0  0
    9.1149  -15.4709   24.6621 O   0  0  0  0  0  0  0  0  0  0  0  0
    5.7438  -12.5108   26.7976 C   0  0  0  0  0  0  0  0  0  0  0  0
    7.0613  -12.0912   26.1575 C   0  0  2  0  0  0  0  0  0  0  0  0
    6.7179  -11.5612   24.7721 C   0  0  0  0  0  0  0  0  0  0  0  0
    7.9187  -13.3173   26.0134 C   0  0  2  0  0  0  0  0  0  0  0  0
    7.2023  -14.3701   25.3234 N   0  0  0  0  0  0  0  0  0  0  0  0
    8.3036  -13.7804   27.3594 C   0  0  0  0  0  0  0  0  0  0  0  0
    8.9836  -13.0331   28.1067 O   0  0  0  0  0  0  0  0  0  0  0  0
    7.9353  -15.0278   27.8324 O   0  0  0  0  0  0  0  0  0  0  0  0
  2  3  1  0
  2  1  1  1
  3  4  1  0
  4  5  2  0
  6  2  1  0
  7  6  2  0
  8  4  1  0
  9 10  1  0
 10 12  1  0
 11 10  2  0
 13 12  1  0
 14 13  1  1
 14 15  1  0
 15  6  1  0
 16 14  1  0
 16 17  2  0
 19 18  1  6
 20 19  1  0
 21 22  1  1
 21 19  1  0
 22 16  1  0
 23 21  1  0
 24 23  2  0
 25 23  1  0
M  END
$$$$
