DQV.pdb
     RDKit          3D

 25 24  0  0  1  0  0  0  0  0999 V2000
    7.7288  -16.2755   19.1798 N   0  0  0  0  0  0  0  0  0  0  0  0
    8.2446  -15.1696   19.9600 C   0  0  1  0  0  0  0  0  0  0  0  0
    7.6425  -13.8637   19.4648 C   0  0  0  0  0  0  0  0  0  0  0  0
    8.1062  -13.6643   18.0680 C   0  0  0  0  0  0  0  0  0  0  0  0
    8.8666  -14.5205   17.5363 O   0  0  0  0  0  0  0  0  0  0  0  0
    8.0043  -15.3615   21.4135 C   0  0  0  0  0  0  0  0  0  0  0  0
    6.8075  -15.1974   21.8019 O   0  0  0  0  0  0  0  0  0  0  0  0
    7.7464  -12.5705   17.2957 O   0  0  0  0  0  0  0  0  0  0  0  0
   11.3093  -19.2472   24.0169 N   0  0  0  0  0  0  0  0  0  0  0  0
   10.2748  -19.4046   23.0711 C   0  0  0  0  0  0  0  0  0  0  0  0
   10.3530  -20.3118   22.2221 O   0  0  0  0  0  0  0  0  0  0  0  0
    9.1044  -18.5092   23.0762 C   0  0  0  0  0  0  0  0  0  0  0  0
    9.2929  -17.4052   24.0871 C   0  0  0  0  0  0  0  0  0  0  0  0
    8.6888  -16.1018   23.6521 C   0  0  2  0  0  0  0  0  0  0  0  0
    9.0218  -15.7054   22.3324 N   0  0  0  0  0  0  0  0  0  0  0  0
    9.1196  -15.0538   24.6133 C   0  0  0  0  0  0  0  0  0  0  0  0
   10.3211  -14.6841   24.6477 O   0  0  0  0  0  0  0  0  0  0  0  0
    6.2139  -13.2569   27.0768 C   0  0  0  0  0  0  0  0  0  0  0  0
    7.5042  -12.5056   26.7724 C   0  0  2  0  0  0  0  0  0  0  0  0
    7.2571  -11.7282   25.4868 C   0  0  0  0  0  0  0  0  0  0  0  0
    8.5861  -13.5205   26.5300 C   0  0  2  0  0  0  0  0  0  0  0  0
    8.1924  -14.4586   25.4992 N   0  0  0  0  0  0  0  0  0  0  0  0
    8.8386  -14.2456   27.7889 C   0  0  0  0  0  0  0  0  0  0  0  0
    8.5220  -15.4579   27.8862 O   0  0  0  0  0  0  0  0  0  0  0  0
    9.4205  -13.6260   28.8810 O   0  0  0  0  0  0  0  0  0  0  0  0
  2  3  1  0
  2  1  1  6
  3  4  1  0
  4  5  2  0
  6  2  1  0
  7  6  2  0
  8  4  1  0
  9 10  1  0
 10 12  1  0
 11 10  2  0
 13 12  1  0
 14 13  1  1
 14 15  1  0
 15  6  1  0
 16 14  1  0
 16 17  2  0
 19 18  1  6
 20 19  1  0
 21 22  1  6
 21 19  1  0
 22 16  1  0
 23 21  1  0
 24 23  2  0
 25 23  1  0
M  END
$$$$
