DQV.pdb
     RDKit          3D

 25 24  0  0  1  0  0  0  0  0999 V2000
    7.7584  -19.0731   19.9628 N   0  0  0  0  0  0  0  0  0  0  0  0
    7.9224  -17.6430   20.1229 C   0  0  1  0  0  0  0  0  0  0  0  0
    7.4121  -16.9232   18.8842 C   0  0  0  0  0  0  0  0  0  0  0  0
    8.2651  -17.3458   17.7441 C   0  0  0  0  0  0  0  0  0  0  0  0
    8.3010  -16.6394   16.6983 O   0  0  0  0  0  0  0  0  0  0  0  0
    7.2541  -17.1463   21.3534 C   0  0  0  0  0  0  0  0  0  0  0  0
    6.0146  -16.8966   21.2464 O   0  0  0  0  0  0  0  0  0  0  0  0
    9.0413  -18.4945   17.7593 O   0  0  0  0  0  0  0  0  0  0  0  0
    6.6940  -19.6458   26.5513 N   0  0  0  0  0  0  0  0  0  0  0  0
    8.0022  -19.4211   26.0741 C   0  0  0  0  0  0  0  0  0  0  0  0
    8.9393  -20.1208   26.5012 O   0  0  0  0  0  0  0  0  0  0  0  0
    8.2722  -18.3697   25.0776 C   0  0  0  0  0  0  0  0  0  0  0  0
    7.0094  -17.6052   24.7663 C   0  0  0  0  0  0  0  0  0  0  0  0
    7.2102  -16.5367   23.7313 C   0  0  2  0  0  0  0  0  0  0  0  0
    7.9271  -16.9529   22.5813 N   0  0  0  0  0  0  0  0  0  0  0  0
    7.9164  -15.4003   24.3773 C   0  0  0  0  0  0  0  0  0  0  0  0
    9.1667  -15.3003   24.2867 O   0  0  0  0  0  0  0  0  0  0  0  0
    7.5893  -11.0242   26.6415 C   0  0  0  0  0  0  0  0  0  0  0  0
    6.8533  -12.1728   25.9626 C   0  0  2  0  0  0  0  0  0  0  0  0
    5.8027  -12.6565   26.9528 C   0  0  0  0  0  0  0  0  0  0  0  0
    7.8421  -13.2786   25.7197 C   0  0  2  0  0  0  0  0  0  0  0  0
    7.1996  -14.4188   25.0995 N   0  0  0  0  0  0  0  0  0  0  0  0
    8.4221  -13.6809   27.0144 C   0  0  0  0  0  0  0  0  0  0  0  0
    8.0605  -14.7567   27.5538 O   0  0  0  0  0  0  0  0  0  0  0  0
    9.3642  -12.9016   27.6628 O   0  0  0  0  0  0  0  0  0  0  0  0
  2  3  1  0
  2  1  1  6
  3  4  1  0
  4  5  2  0
  6  2  1  0
  7  6  2  0
  8  4  1  0
  9 10  1  0
 10 12  1  0
 11 10  2  0
 13 12  1  0
 14 13  1  1
 14 15  1  0
 15  6  1  0
 16 14  1  0
 16 17  2  0
 19 18  1  1
 20 19  1  0
 21 22  1  1
 21 19  1  0
 22 16  1  0
 23 21  1  0
 24 23  2  0
 25 23  1  0
M  END
$$$$
