DQV.pdb
     RDKit          3D

 25 24  0  0  1  0  0  0  0  0999 V2000
    9.2008  -15.2029   19.5050 N   0  0  0  0  0  0  0  0  0  0  0  0
    8.6088  -14.0323   20.1189 C   0  0  1  0  0  0  0  0  0  0  0  0
    7.5875  -13.4157   19.1758 C   0  0  0  0  0  0  0  0  0  0  0  0
    7.8685  -13.9404   17.8150 C   0  0  0  0  0  0  0  0  0  0  0  0
    8.7643  -14.8161   17.6583 O   0  0  0  0  0  0  0  0  0  0  0  0
    8.0067  -14.3481   21.4399 C   0  0  0  0  0  0  0  0  0  0  0  0
    7.3629  -13.4049   21.9932 O   0  0  0  0  0  0  0  0  0  0  0  0
    7.1914  -13.5173   16.6815 O   0  0  0  0  0  0  0  0  0  0  0  0
    7.5292  -19.8555   24.6663 N   0  0  0  0  0  0  0  0  0  0  0  0
    6.8089  -18.9210   25.4393 C   0  0  0  0  0  0  0  0  0  0  0  0
    6.1873  -19.3077   26.4464 O   0  0  0  0  0  0  0  0  0  0  0  0
    6.7835  -17.4948   25.0694 C   0  0  0  0  0  0  0  0  0  0  0  0
    7.4981  -17.2803   23.7581 C   0  0  0  0  0  0  0  0  0  0  0  0
    7.5013  -15.8447   23.3195 C   0  0  2  0  0  0  0  0  0  0  0  0
    8.1246  -15.6088   22.0682 N   0  0  0  0  0  0  0  0  0  0  0  0
    8.1767  -15.0450   24.3739 C   0  0  0  0  0  0  0  0  0  0  0  0
    9.4281  -15.0842   24.4917 O   0  0  0  0  0  0  0  0  0  0  0  0
    5.7876  -12.9097   27.1105 C   0  0  0  0  0  0  0  0  0  0  0  0
    7.1554  -12.3390   26.7566 C   0  0  2  0  0  0  0  0  0  0  0  0
    6.9409  -11.4108   25.5689 C   0  0  0  0  0  0  0  0  0  0  0  0
    8.0385  -13.4791   26.3330 C   0  0  2  0  0  0  0  0  0  0  0  0
    7.4290  -14.2321   25.2564 N   0  0  0  0  0  0  0  0  0  0  0  0
    8.2532  -14.3618   27.4947 C   0  0  0  0  0  0  0  0  0  0  0  0
    7.7723  -15.5228   27.4946 O   0  0  0  0  0  0  0  0  0  0  0  0
    8.9766  -13.9472   28.5992 O   0  0  0  0  0  0  0  0  0  0  0  0
  2  3  1  0
  2  1  1  6
  3  4  1  0
  4  5  2  0
  6  2  1  0
  7  6  2  0
  8  4  1  0
  9 10  1  0
 10 12  1  0
 11 10  2  0
 13 12  1  0
 14 13  1  1
 14 15  1  0
 15  6  1  0
 16 14  1  0
 16 17  2  0
 19 18  1  6
 20 19  1  0
 21 22  1  6
 21 19  1  0
 22 16  1  0
 23 21  1  0
 24 23  2  0
 25 23  1  0
M  END
$$$$
