DQV.pdb
     RDKit          3D

 25 24  0  0  1  0  0  0  0  0999 V2000
    9.3257  -17.6582   20.4413 N   0  0  0  0  0  0  0  0  0  0  0  0
    8.3601  -16.6014   20.2213 C   0  0  1  0  0  0  0  0  0  0  0  0
    7.3985  -17.0034   19.1137 C   0  0  0  0  0  0  0  0  0  0  0  0
    8.2067  -17.2393   17.8902 C   0  0  0  0  0  0  0  0  0  0  0  0
    9.4559  -17.3935   17.9894 O   0  0  0  0  0  0  0  0  0  0  0  0
    7.6345  -16.2497   21.4691 C   0  0  0  0  0  0  0  0  0  0  0  0
    6.7558  -15.3408   21.3597 O   0  0  0  0  0  0  0  0  0  0  0  0
    7.6601  -17.3020   16.6175 O   0  0  0  0  0  0  0  0  0  0  0  0
    6.3859  -19.6754   26.5195 N   0  0  0  0  0  0  0  0  0  0  0  0
    7.7327  -19.2939   26.3460 C   0  0  0  0  0  0  0  0  0  0  0  0
    8.6239  -19.8815   26.9868 O   0  0  0  0  0  0  0  0  0  0  0  0
    8.0966  -18.2096   25.4167 C   0  0  0  0  0  0  0  0  0  0  0  0
    6.8558  -17.5817   24.8317 C   0  0  0  0  0  0  0  0  0  0  0  0
    7.1585  -16.4718   23.8675 C   0  0  2  0  0  0  0  0  0  0  0  0
    7.8828  -16.8688   22.7153 N   0  0  0  0  0  0  0  0  0  0  0  0
    7.9165  -15.4237   24.5987 C   0  0  0  0  0  0  0  0  0  0  0  0
    9.1718  -15.3904   24.5325 O   0  0  0  0  0  0  0  0  0  0  0  0
    5.7927  -12.6209   26.9817 C   0  0  0  0  0  0  0  0  0  0  0  0
    7.1099  -12.2206   26.3286 C   0  0  2  0  0  0  0  0  0  0  0  0
    6.7596  -11.6750   24.9510 C   0  0  0  0  0  0  0  0  0  0  0  0
    7.9432  -13.4610   26.1660 C   0  0  2  0  0  0  0  0  0  0  0  0
    7.2437  -14.4529   25.3757 N   0  0  0  0  0  0  0  0  0  0  0  0
    8.2335  -14.0088   27.5039 C   0  0  0  0  0  0  0  0  0  0  0  0
    7.7413  -15.1129   27.8474 O   0  0  0  0  0  0  0  0  0  0  0  0
    9.0411  -13.3374   28.4051 O   0  0  0  0  0  0  0  0  0  0  0  0
  2  3  1  0
  2  1  1  1
  3  4  1  0
  4  5  2  0
  6  2  1  0
  7  6  2  0
  8  4  1  0
  9 10  1  0
 10 12  1  0
 11 10  2  0
 13 12  1  0
 14 13  1  1
 14 15  1  0
 15  6  1  0
 16 14  1  0
 16 17  2  0
 19 18  1  6
 20 19  1  0
 21 22  1  6
 21 19  1  0
 22 16  1  0
 23 21  1  0
 24 23  2  0
 25 23  1  0
M  END
$$$$
