WWV.pdb
     RDKit          3D

 36 39  0  0  1  0  0  0  0  0999 V2000
    7.7747  -18.1378   21.4118 N   0  0  0  0  0  0  0  0  0  0  0  0
    8.0664  -16.7414   21.7380 C   0  0  1  0  0  0  0  0  0  0  0  0
    6.7769  -15.9862   21.4136 C   0  0  0  0  0  0  0  0  0  0  0  0
    6.9830  -15.0857   20.2450 C   0  0  0  0  0  0  0  0  0  0  0  0
    6.6238  -15.3630   18.9209 C   0  0  0  0  0  0  0  0  0  0  0  0
    6.9705  -14.3130   18.1559 N   0  0  0  0  0  0  0  0  0  0  0  0
    7.5431  -13.3549   18.9275 C   0  0  0  0  0  0  0  0  0  0  0  0
    8.0632  -12.0959   18.6244 C   0  0  0  0  0  0  0  0  0  0  0  0
    8.6022  -11.2896   19.6108 C   0  0  0  0  0  0  0  0  0  0  0  0
    8.6041  -11.7810   20.8993 C   0  0  0  0  0  0  0  0  0  0  0  0
    8.0921  -13.0192   21.1975 C   0  0  0  0  0  0  0  0  0  0  0  0
    7.5488  -13.8351   20.2106 C   0  0  0  0  0  0  0  0  0  0  0  0
    8.2743  -16.6331   23.2098 C   0  0  0  0  0  0  0  0  0  0  0  0
    7.7085  -15.7522   23.9174 O   0  0  0  0  0  0  0  0  0  0  0  0
    9.1321  -17.5509   23.8501 N   0  0  0  0  0  0  0  0  0  0  0  0
    9.6354  -17.3460   25.2082 C   0  0  1  0  0  0  0  0  0  0  0  0
    8.4291  -17.2658   26.0845 C   0  0  0  0  0  0  0  0  0  0  0  0
    7.5814  -16.0815   25.8871 C   0  0  0  0  0  0  0  0  0  0  0  0
    6.3212  -15.9292   25.3443 C   0  0  0  0  0  0  0  0  0  0  0  0
    5.9689  -14.6327   25.3904 N   0  0  0  0  0  0  0  0  0  0  0  0
    6.9496  -13.8911   25.9492 C   0  0  0  0  0  0  0  0  0  0  0  0
    7.0687  -12.5460   26.2194 C   0  0  0  0  0  0  0  0  0  0  0  0
    8.2003  -12.0530   26.8111 C   0  0  0  0  0  0  0  0  0  0  0  0
    9.2285  -12.9192   27.1367 C   0  0  0  0  0  0  0  0  0  0  0  0
    9.0947  -14.2590   26.8599 C   0  0  0  0  0  0  0  0  0  0  0  0
    7.9671  -14.7908   26.2641 C   0  0  0  0  0  0  0  0  0  0  0  0
   10.6148  -18.3856   25.5791 C   0  0  0  0  0  0  0  0  0  0  0  0
   10.4370  -19.6087   25.4268 O   0  0  0  0  0  0  0  0  0  0  0  0
   14.6762  -18.4415   23.7009 C   0  0  0  0  0  0  0  0  0  0  0  0
   13.3434  -18.0101   24.2734 C   0  0  1  0  0  0  0  0  0  0  0  0
   12.2996  -18.7233   23.3885 C   0  0  0  0  0  0  0  0  0  0  0  0
   13.1529  -18.3599   25.6905 C   0  0  2  0  0  0  0  0  0  0  0  0
   11.8493  -17.9827   26.1530 N   0  0  0  0  0  0  0  0  0  0  0  0
   14.2250  -17.8420   26.5991 C   0  0  0  0  0  0  0  0  0  0  0  0
   14.2992  -16.6331   26.8977 O   0  0  0  0  0  0  0  0  0  0  0  0
   15.1789  -18.6948   27.1410 O   0  0  0  0  0  0  0  0  0  0  0  0
  2  1  1  1
  2  3  1  0
  3  4  1  0
  4  5  2  0
  5  6  1  0
  7  8  2  0
  7  6  1  0
  9  8  1  0
 10  9  2  0
 11 10  1  0
 11 12  2  0
 12  4  1  0
 12  7  1  0
 13  2  1  0
 14 13  2  0
 15 13  1  0
 16 17  1  1
 16 15  1  0
 18 17  1  0
 19 18  2  0
 20 21  1  0
 20 19  1  0
 21 26  2  0
 22 21  1  0
 22 23  2  0
 23 24  1  0
 24 25  2  0
 26 18  1  0
 26 25  1  0
 27 16  1  0
 28 27  2  0
 30 29  1  6
 31 30  1  0
 32 30  1  0
 32 33  1  1
 33 27  1  0
 34 32  1  0
 34 36  1  0
 35 34  2  0
M  END
$$$$
