WWV.pdb
     RDKit          3D

 36 39  0  0  1  0  0  0  0  0999 V2000
    7.4550  -18.2645   21.8717 N   0  0  0  0  0  0  0  0  0  0  0  0
    7.9749  -16.9726   21.4221 C   0  0  1  0  0  0  0  0  0  0  0  0
    6.7593  -16.2368   20.8571 C   0  0  0  0  0  0  0  0  0  0  0  0
    7.1645  -15.3596   19.7234 C   0  0  0  0  0  0  0  0  0  0  0  0
    7.1301  -15.7022   18.3667 C   0  0  0  0  0  0  0  0  0  0  0  0
    7.5720  -14.6536   17.6504 N   0  0  0  0  0  0  0  0  0  0  0  0
    7.8945  -13.6336   18.4851 C   0  0  0  0  0  0  0  0  0  0  0  0
    8.3879  -12.3501   18.2476 C   0  0  0  0  0  0  0  0  0  0  0  0
    8.6393  -11.4772   19.2910 C   0  0  0  0  0  0  0  0  0  0  0  0
    8.3832  -11.9279   20.5690 C   0  0  0  0  0  0  0  0  0  0  0  0
    7.8974  -13.1903   20.8026 C   0  0  0  0  0  0  0  0  0  0  0  0
    7.6426  -14.0729   19.7581 C   0  0  0  0  0  0  0  0  0  0  0  0
    8.4309  -16.2051   22.6155 C   0  0  0  0  0  0  0  0  0  0  0  0
    8.6350  -14.9584   22.5897 O   0  0  0  0  0  0  0  0  0  0  0  0
    8.6407  -16.8886   23.8309 N   0  0  0  0  0  0  0  0  0  0  0  0
    9.6933  -16.5150   24.7753 C   0  0  1  0  0  0  0  0  0  0  0  0
    9.0291  -16.4090   26.1084 C   0  0  0  0  0  0  0  0  0  0  0  0
    7.8180  -15.5770   26.1473 C   0  0  0  0  0  0  0  0  0  0  0  0
    6.4908  -15.8679   25.9032 C   0  0  0  0  0  0  0  0  0  0  0  0
    5.7518  -14.7581   26.0739 N   0  0  0  0  0  0  0  0  0  0  0  0
    6.5324  -13.7146   26.4285 C   0  0  0  0  0  0  0  0  0  0  0  0
    6.2598  -12.3955   26.7150 C   0  0  0  0  0  0  0  0  0  0  0  0
    7.2680  -11.5358   27.0592 C   0  0  0  0  0  0  0  0  0  0  0  0
    8.5686  -12.0034   27.1168 C   0  0  0  0  0  0  0  0  0  0  0  0
    8.8244  -13.3225   26.8274 C   0  0  0  0  0  0  0  0  0  0  0  0
    7.8318  -14.2177   26.4769 C   0  0  0  0  0  0  0  0  0  0  0  0
   10.8290  -17.4550   24.7110 C   0  0  0  0  0  0  0  0  0  0  0  0
   10.7186  -18.6954   24.7035 O   0  0  0  0  0  0  0  0  0  0  0  0
   15.6415  -17.8158   23.5557 C   0  0  0  0  0  0  0  0  0  0  0  0
   14.3416  -17.0528   23.6923 C   0  0  1  0  0  0  0  0  0  0  0  0
   13.8026  -16.9569   22.2496 C   0  0  0  0  0  0  0  0  0  0  0  0
   13.3549  -17.6938   24.5768 C   0  0  2  0  0  0  0  0  0  0  0  0
   12.1459  -16.9272   24.6562 N   0  0  0  0  0  0  0  0  0  0  0  0
   13.8792  -18.0281   25.9394 C   0  0  0  0  0  0  0  0  0  0  0  0
   13.6933  -17.2715   26.9135 O   0  0  0  0  0  0  0  0  0  0  0  0
   14.5957  -19.1973   26.1646 O   0  0  0  0  0  0  0  0  0  0  0  0
  2  1  1  1
  2  3  1  0
  3  4  1  0
  4  5  2  0
  5  6  1  0
  7  8  2  0
  7  6  1  0
  9  8  1  0
 10  9  2  0
 11 10  1  0
 11 12  2  0
 12  4  1  0
 12  7  1  0
 13  2  1  0
 14 13  2  0
 15 13  1  0
 16 17  1  1
 16 15  1  0
 18 17  1  0
 19 18  2  0
 20 21  1  0
 20 19  1  0
 21 26  2  0
 22 21  1  0
 22 23  2  0
 23 24  1  0
 24 25  2  0
 26 18  1  0
 26 25  1  0
 27 16  1  0
 28 27  2  0
 30 29  1  6
 31 30  1  0
 32 30  1  0
 32 33  1  1
 33 27  1  0
 34 32  1  0
 34 36  1  0
 35 34  2  0
M  END
$$$$
