WWV.pdb
     RDKit          3D

 36 39  0  0  1  0  0  0  0  0999 V2000
    7.9063  -21.7991   25.1607 N   0  0  0  0  0  0  0  0  0  0  0  0
    8.0481  -20.5258   25.8677 C   0  0  1  0  0  0  0  0  0  0  0  0
    9.3611  -20.6519   26.6413 C   0  0  0  0  0  0  0  0  0  0  0  0
    9.1905  -20.1598   28.0368 C   0  0  0  0  0  0  0  0  0  0  0  0
    8.6065  -20.8695   29.0925 C   0  0  0  0  0  0  0  0  0  0  0  0
    8.6324  -20.0965   30.1923 N   0  0  0  0  0  0  0  0  0  0  0  0
    9.2129  -18.9054   29.9000 C   0  0  0  0  0  0  0  0  0  0  0  0
    9.4785  -17.7776   30.6777 C   0  0  0  0  0  0  0  0  0  0  0  0
   10.0957  -16.6649   30.1348 C   0  0  0  0  0  0  0  0  0  0  0  0
   10.4348  -16.7177   28.7991 C   0  0  0  0  0  0  0  0  0  0  0  0
   10.1740  -17.8273   28.0342 C   0  0  0  0  0  0  0  0  0  0  0  0
    9.5537  -18.9493   28.5737 C   0  0  0  0  0  0  0  0  0  0  0  0
    8.2399  -19.4443   24.8604 C   0  0  0  0  0  0  0  0  0  0  0  0
    9.0728  -19.5310   23.9142 O   0  0  0  0  0  0  0  0  0  0  0  0
    7.4598  -18.2735   24.9549 N   0  0  0  0  0  0  0  0  0  0  0  0
    7.7189  -17.0845   24.1433 C   0  0  1  0  0  0  0  0  0  0  0  0
    6.5387  -16.1905   24.3376 C   0  0  0  0  0  0  0  0  0  0  0  0
    6.6371  -14.8669   23.7064 C   0  0  0  0  0  0  0  0  0  0  0  0
    6.8697  -14.4823   22.4011 C   0  0  0  0  0  0  0  0  0  0  0  0
    6.8639  -13.1403   22.3232 N   0  0  0  0  0  0  0  0  0  0  0  0
    6.6336  -12.5927   23.5362 C   0  0  0  0  0  0  0  0  0  0  0  0
    6.5307  -11.2904   23.9719 C   0  0  0  0  0  0  0  0  0  0  0  0
    6.2814  -11.0155   25.2895 C   0  0  0  0  0  0  0  0  0  0  0  0
    6.1337  -12.0598   26.1846 C   0  0  0  0  0  0  0  0  0  0  0  0
    6.2399  -13.3541   25.7342 C   0  0  0  0  0  0  0  0  0  0  0  0
    6.4904  -13.6680   24.4121 C   0  0  0  0  0  0  0  0  0  0  0  0
    9.0251  -16.4835   24.4753 C   0  0  0  0  0  0  0  0  0  0  0  0
    9.7646  -15.9061   23.6563 O   0  0  0  0  0  0  0  0  0  0  0  0
   11.0112  -14.2523   28.3710 C   0  0  0  0  0  0  0  0  0  0  0  0
    9.9634  -15.0120   27.5867 C   0  0  1  0  0  0  0  0  0  0  0  0
    8.9441  -13.9321   27.1670 C   0  0  0  0  0  0  0  0  0  0  0  0
   10.4874  -15.7215   26.4082 C   0  0  2  0  0  0  0  0  0  0  0  0
    9.4885  -16.5617   25.8150 N   0  0  0  0  0  0  0  0  0  0  0  0
   11.7555  -16.4772   26.6614 C   0  0  0  0  0  0  0  0  0  0  0  0
   11.7879  -17.7239   26.6364 O   0  0  0  0  0  0  0  0  0  0  0  0
   12.9439  -15.8113   26.9361 O   0  0  0  0  0  0  0  0  0  0  0  0
  2  1  1  6
  2  3  1  0
  3  4  1  0
  4  5  2  0
  5  6  1  0
  7  8  2  0
  7  6  1  0
  9  8  1  0
 10  9  2  0
 11 10  1  0
 11 12  2  0
 12  4  1  0
 12  7  1  0
 13  2  1  0
 14 13  2  0
 15 13  1  0
 16 17  1  1
 16 15  1  0
 18 17  1  0
 19 18  2  0
 20 21  1  0
 20 19  1  0
 21 26  2  0
 22 21  1  0
 22 23  2  0
 23 24  1  0
 24 25  2  0
 26 18  1  0
 26 25  1  0
 27 16  1  0
 28 27  2  0
 30 29  1  6
 31 30  1  0
 32 30  1  0
 32 33  1  1
 33 27  1  0
 34 32  1  0
 34 36  1  0
 35 34  2  0
M  END
$$$$
