WWV.pdb
     RDKit          3D

 36 39  0  0  1  0  0  0  0  0999 V2000
    8.0430  -18.5698   22.2104 N   0  0  0  0  0  0  0  0  0  0  0  0
    8.5622  -17.2049   22.1170 C   0  0  1  0  0  0  0  0  0  0  0  0
    7.3247  -16.3280   21.9224 C   0  0  0  0  0  0  0  0  0  0  0  0
    7.5244  -15.3953   20.7782 C   0  0  0  0  0  0  0  0  0  0  0  0
    7.2923  -15.6882   19.4294 C   0  0  0  0  0  0  0  0  0  0  0  0
    7.5872  -14.5985   18.6991 N   0  0  0  0  0  0  0  0  0  0  0  0
    8.0034  -13.5992   19.5173 C   0  0  0  0  0  0  0  0  0  0  0  0
    8.4157  -12.2907   19.2619 C   0  0  0  0  0  0  0  0  0  0  0  0
    8.7981  -11.4487   20.2908 C   0  0  0  0  0  0  0  0  0  0  0  0
    8.7550  -11.9555   21.5726 C   0  0  0  0  0  0  0  0  0  0  0  0
    8.3490  -13.2424   21.8239 C   0  0  0  0  0  0  0  0  0  0  0  0
    7.9634  -14.0943   20.7941 C   0  0  0  0  0  0  0  0  0  0  0  0
    9.1550  -16.8334   23.4329 C   0  0  0  0  0  0  0  0  0  0  0  0
    9.9050  -15.8279   23.5856 O   0  0  0  0  0  0  0  0  0  0  0  0
    8.8683  -17.6273   24.5624 N   0  0  0  0  0  0  0  0  0  0  0  0
    9.3966  -17.3272   25.8930 C   0  0  1  0  0  0  0  0  0  0  0  0
    8.2084  -17.0385   26.7501 C   0  0  0  0  0  0  0  0  0  0  0  0
    7.3416  -15.9473   26.2829 C   0  0  0  0  0  0  0  0  0  0  0  0
    6.0981  -15.9493   25.6833 C   0  0  0  0  0  0  0  0  0  0  0  0
    5.7152  -14.6829   25.4452 N   0  0  0  0  0  0  0  0  0  0  0  0
    6.6587  -13.8121   25.8643 C   0  0  0  0  0  0  0  0  0  0  0  0
    6.7379  -12.4373   25.8489 C   0  0  0  0  0  0  0  0  0  0  0  0
    7.8366  -11.7982   26.3568 C   0  0  0  0  0  0  0  0  0  0  0  0
    8.8720  -12.5463   26.8876 C   0  0  0  0  0  0  0  0  0  0  0  0
    8.7783  -13.9177   26.8950 C   0  0  0  0  0  0  0  0  0  0  0  0
    7.6846  -14.5955   26.3913 C   0  0  0  0  0  0  0  0  0  0  0  0
   10.2741  -18.4100   26.3777 C   0  0  0  0  0  0  0  0  0  0  0  0
    9.9202  -19.3038   27.1694 O   0  0  0  0  0  0  0  0  0  0  0  0
   14.9720  -20.1652   25.9871 C   0  0  0  0  0  0  0  0  0  0  0  0
   13.9063  -19.1367   25.6758 C   0  0  1  0  0  0  0  0  0  0  0  0
   13.7084  -19.2430   24.1490 C   0  0  0  0  0  0  0  0  0  0  0  0
   12.6337  -19.3522   26.3835 C   0  0  2  0  0  0  0  0  0  0  0  0
   11.6186  -18.4502   25.9234 N   0  0  0  0  0  0  0  0  0  0  0  0
   12.7505  -19.3262   27.8764 C   0  0  0  0  0  0  0  0  0  0  0  0
   12.6984  -20.3727   28.5531 O   0  0  0  0  0  0  0  0  0  0  0  0
   12.9196  -18.1288   28.5612 O   0  0  0  0  0  0  0  0  0  0  0  0
  2  1  1  1
  2  3  1  0
  3  4  1  0
  4  5  2  0
  5  6  1  0
  7  8  2  0
  7  6  1  0
  9  8  1  0
 10  9  2  0
 11 10  1  0
 11 12  2  0
 12  4  1  0
 12  7  1  0
 13  2  1  0
 14 13  2  0
 15 13  1  0
 16 17  1  1
 16 15  1  0
 18 17  1  0
 19 18  2  0
 20 21  1  0
 20 19  1  0
 21 26  2  0
 22 21  1  0
 22 23  2  0
 23 24  1  0
 24 25  2  0
 26 18  1  0
 26 25  1  0
 27 16  1  0
 28 27  2  0
 30 29  1  1
 31 30  1  0
 32 30  1  0
 32 33  1  6
 33 27  1  0
 34 32  1  0
 34 36  1  0
 35 34  2  0
M  END
$$$$
