WWV.pdb
     RDKit          3D

 36 39  0  0  1  0  0  0  0  0999 V2000
   11.9717  -16.8192   20.1309 N   0  0  0  0  0  0  0  0  0  0  0  0
   10.7616  -16.2379   20.7133 C   0  0  1  0  0  0  0  0  0  0  0  0
    9.6099  -16.8531   19.9176 C   0  0  0  0  0  0  0  0  0  0  0  0
    8.3172  -16.2211   20.3029 C   0  0  0  0  0  0  0  0  0  0  0  0
    7.1674  -16.8962   20.7287 C   0  0  0  0  0  0  0  0  0  0  0  0
    6.2091  -15.9882   20.9834 N   0  0  0  0  0  0  0  0  0  0  0  0
    6.6859  -14.7409   20.7424 C   0  0  0  0  0  0  0  0  0  0  0  0
    6.1022  -13.4781   20.8525 C   0  0  0  0  0  0  0  0  0  0  0  0
    6.8138  -12.3330   20.5425 C   0  0  0  0  0  0  0  0  0  0  0  0
    8.1174  -12.4922   20.1219 C   0  0  0  0  0  0  0  0  0  0  0  0
    8.6917  -13.7343   20.0141 C   0  0  0  0  0  0  0  0  0  0  0  0
    7.9819  -14.8897   20.3240 C   0  0  0  0  0  0  0  0  0  0  0  0
   10.6301  -16.7259   22.1153 C   0  0  0  0  0  0  0  0  0  0  0  0
   11.3641  -17.6362   22.5942 O   0  0  0  0  0  0  0  0  0  0  0  0
    9.6525  -16.1501   22.9526 N   0  0  0  0  0  0  0  0  0  0  0  0
    9.5619  -16.4486   24.3817 C   0  0  1  0  0  0  0  0  0  0  0  0
    8.1585  -16.1290   24.7789 C   0  0  0  0  0  0  0  0  0  0  0  0
    7.9660  -14.8238   25.4267 C   0  0  0  0  0  0  0  0  0  0  0  0
    7.1283  -13.7652   25.1377 C   0  0  0  0  0  0  0  0  0  0  0  0
    7.3229  -12.7839   26.0357 N   0  0  0  0  0  0  0  0  0  0  0  0
    8.2687  -13.1380   26.9324 C   0  0  0  0  0  0  0  0  0  0  0  0
    8.8113  -12.4975   28.0241 C   0  0  0  0  0  0  0  0  0  0  0  0
    9.7772  -13.1068   28.7788 C   0  0  0  0  0  0  0  0  0  0  0  0
   10.2070  -14.3760   28.4353 C   0  0  0  0  0  0  0  0  0  0  0  0
    9.6561  -15.0017   27.3424 C   0  0  0  0  0  0  0  0  0  0  0  0
    8.6797  -14.4169   26.5588 C   0  0  0  0  0  0  0  0  0  0  0  0
    9.9988  -17.8283   24.6694 C   0  0  0  0  0  0  0  0  0  0  0  0
    9.5012  -18.8476   24.1553 O   0  0  0  0  0  0  0  0  0  0  0  0
   13.4730  -20.7487   26.5817 C   0  0  0  0  0  0  0  0  0  0  0  0
   12.9512  -19.4254   26.0649 C   0  0  1  0  0  0  0  0  0  0  0  0
   13.4521  -19.3615   24.6067 C   0  0  0  0  0  0  0  0  0  0  0  0
   11.4864  -19.2906   26.1201 C   0  0  2  0  0  0  0  0  0  0  0  0
   11.0561  -18.0273   25.5960 N   0  0  0  0  0  0  0  0  0  0  0  0
   10.8977  -19.5488   27.4729 C   0  0  0  0  0  0  0  0  0  0  0  0
   10.7911  -18.6412   28.3219 O   0  0  0  0  0  0  0  0  0  0  0  0
   10.4501  -20.8150   27.8298 O   0  0  0  0  0  0  0  0  0  0  0  0
  2  1  1  6
  2  3  1  0
  3  4  1  0
  4  5  2  0
  5  6  1  0
  7  8  2  0
  7  6  1  0
  9  8  1  0
 10  9  2  0
 11 10  1  0
 11 12  2  0
 12  4  1  0
 12  7  1  0
 13  2  1  0
 14 13  2  0
 15 13  1  0
 16 17  1  6
 16 15  1  0
 18 17  1  0
 19 18  2  0
 20 21  1  0
 20 19  1  0
 21 26  2  0
 22 21  1  0
 22 23  2  0
 23 24  1  0
 24 25  2  0
 26 18  1  0
 26 25  1  0
 27 16  1  0
 28 27  2  0
 30 29  1  6
 31 30  1  0
 32 30  1  0
 32 33  1  1
 33 27  1  0
 34 32  1  0
 34 36  1  0
 35 34  2  0
M  END
$$$$
