WWV.pdb
     RDKit          3D

 36 39  0  0  1  0  0  0  0  0999 V2000
    8.3741  -16.9811   21.7739 N   0  0  0  0  0  0  0  0  0  0  0  0
    9.7341  -16.4888   21.9954 C   0  0  1  0  0  0  0  0  0  0  0  0
    9.7148  -15.0453   21.4911 C   0  0  0  0  0  0  0  0  0  0  0  0
    9.0447  -14.9686   20.1630 C   0  0  0  0  0  0  0  0  0  0  0  0
    9.0807  -15.9510   19.1667 C   0  0  0  0  0  0  0  0  0  0  0  0
    8.3605  -15.5201   18.1162 N   0  0  0  0  0  0  0  0  0  0  0  0
    7.8509  -14.2915   18.3849 C   0  0  0  0  0  0  0  0  0  0  0  0
    7.0476  -13.4278   17.6391 C   0  0  0  0  0  0  0  0  0  0  0  0
    6.6517  -12.2036   18.1472 C   0  0  0  0  0  0  0  0  0  0  0  0
    7.0832  -11.8749   19.4151 C   0  0  0  0  0  0  0  0  0  0  0  0
    7.8731  -12.7247   20.1488 C   0  0  0  0  0  0  0  0  0  0  0  0
    8.2748  -13.9570   19.6440 C   0  0  0  0  0  0  0  0  0  0  0  0
    9.9833  -16.4323   23.4637 C   0  0  0  0  0  0  0  0  0  0  0  0
   10.7105  -15.5494   24.0005 O   0  0  0  0  0  0  0  0  0  0  0  0
    9.3822  -17.3968   24.2985 N   0  0  0  0  0  0  0  0  0  0  0  0
    9.6393  -17.4666   25.7367 C   0  0  1  0  0  0  0  0  0  0  0  0
    8.3103  -17.3088   26.3988 C   0  0  0  0  0  0  0  0  0  0  0  0
    7.5534  -16.1073   26.0197 C   0  0  0  0  0  0  0  0  0  0  0  0
    6.4459  -15.9306   25.2147 C   0  0  0  0  0  0  0  0  0  0  0  0
    6.1217  -14.6264   25.1814 N   0  0  0  0  0  0  0  0  0  0  0  0
    6.9734  -13.9032   25.9402 C   0  0  0  0  0  0  0  0  0  0  0  0
    7.0613  -12.5595   26.2285 C   0  0  0  0  0  0  0  0  0  0  0  0
    8.0474  -12.0880   27.0526 C   0  0  0  0  0  0  0  0  0  0  0  0
    8.9596  -12.9747   27.5958 C   0  0  0  0  0  0  0  0  0  0  0  0
    8.8589  -14.3128   27.2978 C   0  0  0  0  0  0  0  0  0  0  0  0
    7.8768  -14.8233   26.4706 C   0  0  0  0  0  0  0  0  0  0  0  0
   10.3766  -18.6950   26.0900 C   0  0  0  0  0  0  0  0  0  0  0  0
    9.9646  -19.8509   25.8776 O   0  0  0  0  0  0  0  0  0  0  0  0
   14.8141  -20.4203   27.5747 C   0  0  0  0  0  0  0  0  0  0  0  0
   13.8850  -19.2874   27.1957 C   0  0  1  0  0  0  0  0  0  0  0  0
   14.3521  -18.8667   25.7864 C   0  0  0  0  0  0  0  0  0  0  0  0
   12.4592  -19.6531   27.1858 C   0  0  2  0  0  0  0  0  0  0  0  0
   11.6435  -18.5703   26.7188 N   0  0  0  0  0  0  0  0  0  0  0  0
   11.9556  -20.1926   28.4891 C   0  0  0  0  0  0  0  0  0  0  0  0
   11.3120  -19.4798   29.2850 O   0  0  0  0  0  0  0  0  0  0  0  0
   12.1917  -21.5114   28.8579 O   0  0  0  0  0  0  0  0  0  0  0  0
  2  1  1  1
  2  3  1  0
  3  4  1  0
  4  5  2  0
  5  6  1  0
  7  8  2  0
  7  6  1  0
  9  8  1  0
 10  9  2  0
 11 10  1  0
 11 12  2  0
 12  4  1  0
 12  7  1  0
 13  2  1  0
 14 13  2  0
 15 13  1  0
 16 17  1  1
 16 15  1  0
 18 17  1  0
 19 18  2  0
 20 21  1  0
 20 19  1  0
 21 26  2  0
 22 21  1  0
 22 23  2  0
 23 24  1  0
 24 25  2  0
 26 18  1  0
 26 25  1  0
 27 16  1  0
 28 27  2  0
 30 29  1  6
 31 30  1  0
 32 30  1  0
 32 33  1  1
 33 27  1  0
 34 32  1  0
 34 36  1  0
 35 34  2  0
M  END
$$$$
