WWV.pdb
     RDKit          3D

 36 39  0  0  1  0  0  0  0  0999 V2000
   11.2672  -17.1227   19.4119 N   0  0  0  0  0  0  0  0  0  0  0  0
   11.3049  -17.6871   20.7614 C   0  0  1  0  0  0  0  0  0  0  0  0
   12.7927  -17.8307   21.0841 C   0  0  0  0  0  0  0  0  0  0  0  0
   13.3391  -19.0733   20.4706 C   0  0  0  0  0  0  0  0  0  0  0  0
   14.3851  -19.1401   19.5429 C   0  0  0  0  0  0  0  0  0  0  0  0
   14.5900  -20.4299   19.2230 N   0  0  0  0  0  0  0  0  0  0  0  0
   13.7188  -21.2141   19.9066 C   0  0  0  0  0  0  0  0  0  0  0  0
   13.5245  -22.5958   19.9321 C   0  0  0  0  0  0  0  0  0  0  0  0
   12.5500  -23.1652   20.7319 C   0  0  0  0  0  0  0  0  0  0  0  0
   11.7825  -22.3134   21.4982 C   0  0  0  0  0  0  0  0  0  0  0  0
   11.9739  -20.9544   21.4735 C   0  0  0  0  0  0  0  0  0  0  0  0
   12.9519  -20.3753   20.6716 C   0  0  0  0  0  0  0  0  0  0  0  0
   10.7501  -16.6808   21.7105 C   0  0  0  0  0  0  0  0  0  0  0  0
   11.0610  -15.4568   21.6683 O   0  0  0  0  0  0  0  0  0  0  0  0
    9.8345  -17.1011   22.6971 N   0  0  0  0  0  0  0  0  0  0  0  0
    9.2890  -16.1932   23.7060 C   0  0  1  0  0  0  0  0  0  0  0  0
    7.8039  -16.2894   23.5837 C   0  0  0  0  0  0  0  0  0  0  0  0
    7.0366  -15.4898   24.5491 C   0  0  0  0  0  0  0  0  0  0  0  0
    6.2141  -15.8496   25.5978 C   0  0  0  0  0  0  0  0  0  0  0  0
    5.7393  -14.7418   26.1933 N   0  0  0  0  0  0  0  0  0  0  0  0
    6.2121  -13.6328   25.5847 C   0  0  0  0  0  0  0  0  0  0  0  0
    6.0285  -12.2874   25.8146 C   0  0  0  0  0  0  0  0  0  0  0  0
    6.6487  -11.3561   25.0262 C   0  0  0  0  0  0  0  0  0  0  0  0
    7.4645  -11.7776   23.9916 C   0  0  0  0  0  0  0  0  0  0  0  0
    7.6371  -13.1239   23.7745 C   0  0  0  0  0  0  0  0  0  0  0  0
    7.0272  -14.0910   24.5505 C   0  0  0  0  0  0  0  0  0  0  0  0
    9.8310  -16.4929   25.0453 C   0  0  0  0  0  0  0  0  0  0  0  0
   10.2314  -17.6145   25.4096 O   0  0  0  0  0  0  0  0  0  0  0  0
   10.4178  -14.4986   29.6114 C   0  0  0  0  0  0  0  0  0  0  0  0
    9.8552  -14.5007   28.2065 C   0  0  1  0  0  0  0  0  0  0  0  0
   10.2134  -13.1066   27.6504 C   0  0  0  0  0  0  0  0  0  0  0  0
   10.3948  -15.5624   27.3413 C   0  0  2  0  0  0  0  0  0  0  0  0
    9.9062  -15.4435   25.9986 N   0  0  0  0  0  0  0  0  0  0  0  0
   10.1946  -16.9479   27.8738 C   0  0  0  0  0  0  0  0  0  0  0  0
    9.1050  -17.5426   27.7514 O   0  0  0  0  0  0  0  0  0  0  0  0
   11.2206  -17.6198   28.5271 O   0  0  0  0  0  0  0  0  0  0  0  0
  2  1  1  6
  2  3  1  0
  3  4  1  0
  4  5  2  0
  5  6  1  0
  7  8  2  0
  7  6  1  0
  9  8  1  0
 10  9  2  0
 11 10  1  0
 11 12  2  0
 12  4  1  0
 12  7  1  0
 13  2  1  0
 14 13  2  0
 15 13  1  0
 16 17  1  1
 16 15  1  0
 18 17  1  0
 19 18  2  0
 20 21  1  0
 20 19  1  0
 21 26  2  0
 22 21  1  0
 22 23  2  0
 23 24  1  0
 24 25  2  0
 26 18  1  0
 26 25  1  0
 27 16  1  0
 28 27  2  0
 30 29  1  1
 31 30  1  0
 32 30  1  0
 32 33  1  6
 33 27  1  0
 34 32  1  0
 34 36  1  0
 35 34  2  0
M  END
$$$$
