WWV.pdb
     RDKit          3D

 36 39  0  0  1  0  0  0  0  0999 V2000
    9.2069  -17.0314   20.0206 N   0  0  0  0  0  0  0  0  0  0  0  0
    9.4511  -17.8933   21.1777 C   0  0  1  0  0  0  0  0  0  0  0  0
   10.8051  -18.5473   20.8998 C   0  0  0  0  0  0  0  0  0  0  0  0
   10.6841  -19.5432   19.7987 C   0  0  0  0  0  0  0  0  0  0  0  0
   11.1655  -19.3875   18.4937 C   0  0  0  0  0  0  0  0  0  0  0  0
   10.8652  -20.4952   17.7931 N   0  0  0  0  0  0  0  0  0  0  0  0
   10.2055  -21.3742   18.5889 C   0  0  0  0  0  0  0  0  0  0  0  0
    9.6870  -22.6474   18.3489 C   0  0  0  0  0  0  0  0  0  0  0  0
    9.0450  -23.3570   19.3479 C   0  0  0  0  0  0  0  0  0  0  0  0
    8.9394  -22.7552   20.5842 C   0  0  0  0  0  0  0  0  0  0  0  0
    9.4498  -21.5030   20.8204 C   0  0  0  0  0  0  0  0  0  0  0  0
   10.0964  -20.7840   19.8205 C   0  0  0  0  0  0  0  0  0  0  0  0
    9.6242  -17.0314   22.3812 C   0  0  0  0  0  0  0  0  0  0  0  0
   10.1537  -15.8852   22.3310 O   0  0  0  0  0  0  0  0  0  0  0  0
    9.1762  -17.5032   23.6322 N   0  0  0  0  0  0  0  0  0  0  0  0
    9.1666  -16.6685   24.8334 C   0  0  1  0  0  0  0  0  0  0  0  0
    7.7497  -16.6437   25.3038 C   0  0  0  0  0  0  0  0  0  0  0  0
    7.0700  -15.3449   25.1962 C   0  0  0  0  0  0  0  0  0  0  0  0
    5.9996  -14.9245   24.4324 C   0  0  0  0  0  0  0  0  0  0  0  0
    5.7463  -13.6302   24.6929 N   0  0  0  0  0  0  0  0  0  0  0  0
    6.6107  -13.1504   25.6131 C   0  0  0  0  0  0  0  0  0  0  0  0
    6.7606  -11.9153   26.2034 C   0  0  0  0  0  0  0  0  0  0  0  0
    7.7436  -11.7029   27.1320 C   0  0  0  0  0  0  0  0  0  0  0  0
    8.5898  -12.7423   27.4745 C   0  0  0  0  0  0  0  0  0  0  0  0
    8.4278  -13.9690   26.8759 C   0  0  0  0  0  0  0  0  0  0  0  0
    7.4467  -14.2187   25.9354 C   0  0  0  0  0  0  0  0  0  0  0  0
   10.1506  -17.1448   25.8246 C   0  0  0  0  0  0  0  0  0  0  0  0
   10.2874  -16.6695   26.9675 O   0  0  0  0  0  0  0  0  0  0  0  0
   14.5275  -18.9869   26.5599 C   0  0  0  0  0  0  0  0  0  0  0  0
   13.3695  -18.2538   25.9179 C   0  0  1  0  0  0  0  0  0  0  0  0
   13.6124  -18.4109   24.4021 C   0  0  0  0  0  0  0  0  0  0  0  0
   12.0439  -18.7737   26.2910 C   0  0  2  0  0  0  0  0  0  0  0  0
   11.0112  -18.2161   25.4674 N   0  0  0  0  0  0  0  0  0  0  0  0
   11.7172  -18.6322   27.7458 C   0  0  0  0  0  0  0  0  0  0  0  0
   10.7957  -17.8887   28.1381 O   0  0  0  0  0  0  0  0  0  0  0  0
   12.4349  -19.3264   28.7122 O   0  0  0  0  0  0  0  0  0  0  0  0
  2  1  1  6
  2  3  1  0
  3  4  1  0
  4  5  2  0
  5  6  1  0
  7  8  2  0
  7  6  1  0
  9  8  1  0
 10  9  2  0
 11 10  1  0
 11 12  2  0
 12  4  1  0
 12  7  1  0
 13  2  1  0
 14 13  2  0
 15 13  1  0
 16 17  1  1
 16 15  1  0
 18 17  1  0
 19 18  2  0
 20 21  1  0
 20 19  1  0
 21 26  2  0
 22 21  1  0
 22 23  2  0
 23 24  1  0
 24 25  2  0
 26 18  1  0
 26 25  1  0
 27 16  1  0
 28 27  2  0
 30 29  1  1
 31 30  1  0
 32 30  1  0
 32 33  1  6
 33 27  1  0
 34 32  1  0
 34 36  1  0
 35 34  2  0
M  END
$$$$
