KQR.pdb
     RDKit          3D

 30 29  0  0  1  0  0  0  0  0999 V2000
   10.9232  -16.0868   14.5374 N   0  0  0  0  0  0  0  0  0  0  0  0
   10.8866  -16.8542   15.7501 C   0  0  1  0  0  0  0  0  0  0  0  0
   11.8491  -17.9777   15.7665 C   0  0  0  0  0  0  0  0  0  0  0  0
   11.7504  -18.8638   14.5809 C   0  0  0  0  0  0  0  0  0  0  0  0
   12.6848  -20.0223   14.6216 C   0  0  0  0  0  0  0  0  0  0  0  0
   12.4786  -20.7667   13.2808 C   0  0  0  0  0  0  0  0  0  0  0  0
   13.3830  -21.8851   13.2048 N   0  0  0  0  0  0  0  0  0  0  0  0
   11.1899  -15.9471   16.9027 C   0  0  0  0  0  0  0  0  0  0  0  0
   12.1231  -15.1134   16.8599 O   0  0  0  0  0  0  0  0  0  0  0  0
    7.0358  -11.8230   19.5642 N   0  0  0  0  0  0  0  0  0  0  0  0
    7.2493  -13.2289   19.5786 C   0  0  0  0  0  0  0  0  0  0  0  0
    6.3698  -13.9435   20.1095 O   0  0  0  0  0  0  0  0  0  0  0  0
    8.5034  -13.7212   18.9598 C   0  0  0  0  0  0  0  0  0  0  0  0
    9.2096  -14.7823   19.7393 C   0  0  0  0  0  0  0  0  0  0  0  0
   10.5588  -15.0954   19.1959 C   0  0  2  0  0  0  0  0  0  0  0  0
   10.4101  -16.0343   18.0565 N   0  0  0  0  0  0  0  0  0  0  0  0
   11.3541  -15.8441   20.1881 C   0  0  0  0  0  0  0  0  0  0  0  0
   11.0924  -17.0831   20.3829 O   0  0  0  0  0  0  0  0  0  0  0  0
   16.4060  -13.2298   18.7661 N   0  0  0  0  0  0  0  0  0  0  0  0
   15.8037  -14.4760   18.4526 C   0  0  0  0  0  0  0  0  0  0  0  0
   14.8540  -14.5245   17.6040 N   0  0  0  0  0  0  0  0  0  0  0  0
   16.2741  -15.6426   19.0932 N   0  0  0  0  0  0  0  0  0  0  0  0
   15.5403  -16.2026   20.2067 C   0  0  0  0  0  0  0  0  0  0  0  0
   15.2704  -15.0879   21.1908 C   0  0  0  0  0  0  0  0  0  0  0  0
   14.4191  -15.5201   22.3410 C   0  0  0  0  0  0  0  0  0  0  0  0
   13.1075  -16.1619   21.9297 C   0  0  2  0  0  0  0  0  0  0  0  0
   12.4105  -15.3208   20.9646 N   0  0  0  0  0  0  0  0  0  0  0  0
   12.2169  -16.3689   23.0950 C   0  0  0  0  0  0  0  0  0  0  0  0
   11.1023  -15.7998   23.2123 O   0  0  0  0  0  0  0  0  0  0  0  0
   12.5982  -17.2207   24.1175 O   0  0  0  0  0  0  0  0  0  0  0  0
  2  1  1  6
  2  3  1  0
  4  3  1  0
  5  4  1  0
  6  5  1  0
  7  6  1  0
  8  9  2  0
  8  2  1  0
 10 11  1  0
 11 12  2  0
 11 13  1  0
 13 14  1  0
 15 14  1  1
 15 16  1  0
 16  8  1  0
 17 15  1  0
 17 27  1  0
 18 17  2  0
 19 20  1  0
 20 22  1  0
 21 20  2  0
 22 23  1  0
 23 24  1  0
 24 25  1  0
 26 25  1  1
 26 27  1  0
 26 28  1  0
 28 29  2  0
 28 30  1  0
M  END
$$$$
