KQR.pdb
     RDKit          3D

 30 29  0  0  1  0  0  0  0  0999 V2000
    9.0801  -21.9085   15.8145 N   0  0  0  0  0  0  0  0  0  0  0  0
   10.1959  -21.2163   16.3948 C   0  0  1  0  0  0  0  0  0  0  0  0
   10.3451  -19.8267   15.9095 C   0  0  0  0  0  0  0  0  0  0  0  0
   10.7122  -19.7328   14.4753 C   0  0  0  0  0  0  0  0  0  0  0  0
   11.0123  -18.3457   14.0250 C   0  0  0  0  0  0  0  0  0  0  0  0
   11.3752  -18.4673   12.5258 C   0  0  0  0  0  0  0  0  0  0  0  0
   11.7697  -17.1787   12.0178 N   0  0  0  0  0  0  0  0  0  0  0  0
   10.0240  -21.1881   17.8823 C   0  0  0  0  0  0  0  0  0  0  0  0
    8.9382  -20.8657   18.4161 O   0  0  0  0  0  0  0  0  0  0  0  0
   14.2578  -22.5435   23.5145 N   0  0  0  0  0  0  0  0  0  0  0  0
   13.1882  -23.1899   22.8359 C   0  0  0  0  0  0  0  0  0  0  0  0
   13.1975  -24.4407   22.7978 O   0  0  0  0  0  0  0  0  0  0  0  0
   12.1545  -22.3159   22.2312 C   0  0  0  0  0  0  0  0  0  0  0  0
   12.1217  -22.3289   20.7375 C   0  0  0  0  0  0  0  0  0  0  0  0
   11.0416  -21.4729   20.1771 C   0  0  2  0  0  0  0  0  0  0  0  0
   11.1047  -21.5308   18.6956 N   0  0  0  0  0  0  0  0  0  0  0  0
   11.2869  -20.0542   20.5003 C   0  0  0  0  0  0  0  0  0  0  0  0
   12.1308  -19.3962   19.7959 O   0  0  0  0  0  0  0  0  0  0  0  0
    7.0872  -12.5079   20.4958 N   0  0  0  0  0  0  0  0  0  0  0  0
    7.9056  -13.2067   19.5706 C   0  0  0  0  0  0  0  0  0  0  0  0
    7.7431  -13.0260   18.3194 N   0  0  0  0  0  0  0  0  0  0  0  0
    8.8886  -14.0930   20.0612 N   0  0  0  0  0  0  0  0  0  0  0  0
    8.6682  -14.8031   21.3018 C   0  0  0  0  0  0  0  0  0  0  0  0
    9.9130  -15.6050   21.6037 C   0  0  0  0  0  0  0  0  0  0  0  0
    9.6953  -17.0801   21.4972 C   0  0  0  0  0  0  0  0  0  0  0  0
   10.9495  -17.9053   21.7155 C   0  0  2  0  0  0  0  0  0  0  0  0
   10.6635  -19.3230   21.5345 N   0  0  0  0  0  0  0  0  0  0  0  0
   11.4948  -17.7112   23.0790 C   0  0  0  0  0  0  0  0  0  0  0  0
   11.4886  -18.6154   23.9520 O   0  0  0  0  0  0  0  0  0  0  0  0
   12.0434  -16.4925   23.4403 O   0  0  0  0  0  0  0  0  0  0  0  0
  2  1  1  6
  2  3  1  0
  4  3  1  0
  5  4  1  0
  6  5  1  0
  7  6  1  0
  8  9  2  0
  8  2  1  0
 10 11  1  0
 11 12  2  0
 11 13  1  0
 13 14  1  0
 15 14  1  1
 15 16  1  0
 16  8  1  0
 17 15  1  0
 17 27  1  0
 18 17  2  0
 19 20  1  0
 20 22  1  0
 21 20  2  0
 22 23  1  0
 23 24  1  0
 24 25  1  0
 26 25  1  1
 26 27  1  0
 26 28  1  0
 28 29  2  0
 28 30  1  0
M  END
$$$$
