KQR.pdb
     RDKit          3D

 30 29  0  0  1  0  0  0  0  0999 V2000
    3.6240  -19.9624   21.1405 N   0  0  0  0  0  0  0  0  0  0  0  0
    5.0337  -19.8142   21.3683 C   0  0  1  0  0  0  0  0  0  0  0  0
    5.7307  -19.0763   20.2919 C   0  0  0  0  0  0  0  0  0  0  0  0
    5.7413  -19.7895   18.9912 C   0  0  0  0  0  0  0  0  0  0  0  0
    6.4146  -19.0322   17.9002 C   0  0  0  0  0  0  0  0  0  0  0  0
    6.2921  -19.9240   16.6417 C   0  0  0  0  0  0  0  0  0  0  0  0
    6.9856  -19.3053   15.5414 N   0  0  0  0  0  0  0  0  0  0  0  0
    5.2383  -19.0837   22.6596 C   0  0  0  0  0  0  0  0  0  0  0  0
    4.4407  -18.2028   23.0542 O   0  0  0  0  0  0  0  0  0  0  0  0
    7.5168  -21.6536   27.7108 N   0  0  0  0  0  0  0  0  0  0  0  0
    7.6850  -20.2934   28.0903 C   0  0  0  0  0  0  0  0  0  0  0  0
    8.1046  -20.0617   29.2462 O   0  0  0  0  0  0  0  0  0  0  0  0
    7.3441  -19.2687   27.0745 C   0  0  0  0  0  0  0  0  0  0  0  0
    6.8887  -19.8181   25.7619 C   0  0  0  0  0  0  0  0  0  0  0  0
    6.6035  -18.7558   24.7599 C   0  0  2  0  0  0  0  0  0  0  0  0
    6.3494  -19.3940   23.4446 N   0  0  0  0  0  0  0  0  0  0  0  0
    7.7994  -17.9204   24.5385 C   0  0  0  0  0  0  0  0  0  0  0  0
    8.8347  -18.4519   24.0026 O   0  0  0  0  0  0  0  0  0  0  0  0
    7.5695  -11.5834   19.7767 N   0  0  0  0  0  0  0  0  0  0  0  0
    7.8317  -12.9334   19.4264 C   0  0  0  0  0  0  0  0  0  0  0  0
    7.4647  -13.3750   18.2886 N   0  0  0  0  0  0  0  0  0  0  0  0
    8.4983  -13.7629   20.3539 N   0  0  0  0  0  0  0  0  0  0  0  0
    8.2227  -13.6346   21.7680 C   0  0  0  0  0  0  0  0  0  0  0  0
    9.1611  -14.5595   22.5083 C   0  0  0  0  0  0  0  0  0  0  0  0
    8.9666  -14.5220   23.9900 C   0  0  0  0  0  0  0  0  0  0  0  0
    9.1899  -15.8573   24.6746 C   0  0  2  0  0  0  0  0  0  0  0  0
    7.9219  -16.5515   24.8609 N   0  0  0  0  0  0  0  0  0  0  0  0
    9.8259  -15.6860   26.0013 C   0  0  0  0  0  0  0  0  0  0  0  0
    9.1997  -15.8265   27.0820 O   0  0  0  0  0  0  0  0  0  0  0  0
   11.1678  -15.3573   26.0907 O   0  0  0  0  0  0  0  0  0  0  0  0
  2  1  1  6
  2  3  1  0
  4  3  1  0
  5  4  1  0
  6  5  1  0
  7  6  1  0
  8  9  2  0
  8  2  1  0
 10 11  1  0
 11 12  2  0
 11 13  1  0
 13 14  1  0
 15 14  1  1
 15 16  1  0
 16  8  1  0
 17 15  1  0
 17 27  1  0
 18 17  2  0
 19 20  1  0
 20 22  1  0
 21 20  2  0
 22 23  1  0
 23 24  1  0
 24 25  1  0
 26 25  1  1
 26 27  1  0
 26 28  1  0
 28 29  2  0
 28 30  1  0
M  END
$$$$
