KQR.pdb
     RDKit          3D

 30 29  0  0  1  0  0  0  0  0999 V2000
    7.2795  -19.9130   18.4792 N   0  0  0  0  0  0  0  0  0  0  0  0
    8.5880  -19.4545   18.8513 C   0  0  1  0  0  0  0  0  0  0  0  0
    8.9651  -18.1711   18.2192 C   0  0  0  0  0  0  0  0  0  0  0  0
    9.0354  -18.2343   16.7388 C   0  0  0  0  0  0  0  0  0  0  0  0
    9.6156  -17.0128   16.1157 C   0  0  0  0  0  0  0  0  0  0  0  0
    9.6550  -17.3030   14.5963 C   0  0  0  0  0  0  0  0  0  0  0  0
   10.2916  -16.2076   13.9113 N   0  0  0  0  0  0  0  0  0  0  0  0
    8.6342  -19.2873   20.3390 C   0  0  0  0  0  0  0  0  0  0  0  0
    7.6167  -18.9815   21.0016 O   0  0  0  0  0  0  0  0  0  0  0  0
   13.4009  -21.5124   23.8152 N   0  0  0  0  0  0  0  0  0  0  0  0
   12.5429  -21.0034   24.8287 C   0  0  0  0  0  0  0  0  0  0  0  0
   12.8758  -21.1940   26.0198 O   0  0  0  0  0  0  0  0  0  0  0  0
   11.3242  -20.2899   24.3770 C   0  0  0  0  0  0  0  0  0  0  0  0
   11.1322  -20.2582   22.8957 C   0  0  0  0  0  0  0  0  0  0  0  0
    9.9612  -19.4382   22.4834 C   0  0  2  0  0  0  0  0  0  0  0  0
    9.8456  -19.4778   21.0046 N   0  0  0  0  0  0  0  0  0  0  0  0
   10.1917  -18.0148   22.7964 C   0  0  0  0  0  0  0  0  0  0  0  0
   11.0130  -17.3477   22.0739 O   0  0  0  0  0  0  0  0  0  0  0  0
    7.5559  -12.9644   17.9680 N   0  0  0  0  0  0  0  0  0  0  0  0
    7.6273  -12.8057   19.3764 C   0  0  0  0  0  0  0  0  0  0  0  0
    7.7875  -11.6438   19.8752 N   0  0  0  0  0  0  0  0  0  0  0  0
    7.5185  -13.9475   20.1992 N   0  0  0  0  0  0  0  0  0  0  0  0
    7.6367  -13.8187   21.6350 C   0  0  0  0  0  0  0  0  0  0  0  0
    8.7752  -14.7039   22.0870 C   0  0  0  0  0  0  0  0  0  0  0  0
    8.7245  -15.0171   23.5478 C   0  0  0  0  0  0  0  0  0  0  0  0
    9.8770  -15.8753   24.0342 C   0  0  2  0  0  0  0  0  0  0  0  0
    9.5768  -17.2882   23.8388 N   0  0  0  0  0  0  0  0  0  0  0  0
   10.1488  -15.6521   25.4730 C   0  0  0  0  0  0  0  0  0  0  0  0
    9.8618  -16.4943   26.3608 O   0  0  0  0  0  0  0  0  0  0  0  0
   10.7449  -14.4751   25.8925 O   0  0  0  0  0  0  0  0  0  0  0  0
  2  1  1  6
  2  3  1  0
  4  3  1  0
  5  4  1  0
  6  5  1  0
  7  6  1  0
  8  9  2  0
  8  2  1  0
 10 11  1  0
 11 12  2  0
 11 13  1  0
 13 14  1  0
 15 14  1  6
 15 16  1  0
 16  8  1  0
 17 15  1  0
 17 27  1  0
 18 17  2  0
 19 20  1  0
 20 22  1  0
 21 20  2  0
 22 23  1  0
 23 24  1  0
 24 25  1  0
 26 25  1  1
 26 27  1  0
 26 28  1  0
 28 29  2  0
 28 30  1  0
M  END
$$$$
