KQR.pdb
     RDKit          3D

 30 29  0  0  1  0  0  0  0  0999 V2000
    3.4992  -18.8341   20.2301 N   0  0  0  0  0  0  0  0  0  0  0  0
    3.7389  -18.0967   21.4383 C   0  0  1  0  0  0  0  0  0  0  0  0
    3.5206  -18.8909   22.6672 C   0  0  0  0  0  0  0  0  0  0  0  0
    2.3442  -19.7915   22.5932 C   0  0  0  0  0  0  0  0  0  0  0  0
    2.5760  -21.1285   23.2061 C   0  0  0  0  0  0  0  0  0  0  0  0
    1.1948  -21.8261   23.2106 C   0  0  0  0  0  0  0  0  0  0  0  0
    1.3477  -23.1986   23.6196 N   0  0  0  0  0  0  0  0  0  0  0  0
    5.1540  -17.6064   21.4301 C   0  0  0  0  0  0  0  0  0  0  0  0
    6.1241  -18.3850   21.5738 O   0  0  0  0  0  0  0  0  0  0  0  0
    7.3301  -13.0390   18.3952 N   0  0  0  0  0  0  0  0  0  0  0  0
    8.3634  -13.0470   19.3723 C   0  0  0  0  0  0  0  0  0  0  0  0
    9.4838  -12.6032   19.0350 O   0  0  0  0  0  0  0  0  0  0  0  0
    8.0154  -13.5853   20.7092 C   0  0  0  0  0  0  0  0  0  0  0  0
    6.6793  -14.2494   20.7864 C   0  0  0  0  0  0  0  0  0  0  0  0
    6.7676  -15.6764   21.1981 C   0  0  2  0  0  0  0  0  0  0  0  0
    5.3976  -16.2435   21.2574 N   0  0  0  0  0  0  0  0  0  0  0  0
    7.2707  -15.7847   22.5810 C   0  0  0  0  0  0  0  0  0  0  0  0
    6.5536  -15.3246   23.5379 O   0  0  0  0  0  0  0  0  0  0  0  0
   11.0220  -22.0352   26.6468 N   0  0  0  0  0  0  0  0  0  0  0  0
   11.3919  -21.2288   25.5391 C   0  0  0  0  0  0  0  0  0  0  0  0
   12.1963  -21.6870   24.6631 N   0  0  0  0  0  0  0  0  0  0  0  0
   10.8561  -19.9272   25.4322 N   0  0  0  0  0  0  0  0  0  0  0  0
   10.1680  -19.3334   26.5573 C   0  0  0  0  0  0  0  0  0  0  0  0
    9.7939  -17.9194   26.1772 C   0  0  0  0  0  0  0  0  0  0  0  0
    9.2485  -17.8145   24.7893 C   0  0  0  0  0  0  0  0  0  0  0  0
    8.8866  -16.4008   24.3748 C   0  0  2  0  0  0  0  0  0  0  0  0
    8.4963  -16.3666   22.9709 N   0  0  0  0  0  0  0  0  0  0  0  0
   10.0254  -15.4727   24.5638 C   0  0  0  0  0  0  0  0  0  0  0  0
   10.8228  -15.1732   23.6396 O   0  0  0  0  0  0  0  0  0  0  0  0
   10.2495  -14.8915   25.8002 O   0  0  0  0  0  0  0  0  0  0  0  0
  2  1  1  6
  2  3  1  0
  4  3  1  0
  5  4  1  0
  6  5  1  0
  7  6  1  0
  8  9  2  0
  8  2  1  0
 10 11  1  0
 11 12  2  0
 11 13  1  0
 13 14  1  0
 15 14  1  1
 15 16  1  0
 16  8  1  0
 17 15  1  0
 17 27  1  0
 18 17  2  0
 19 20  1  0
 20 22  1  0
 21 20  2  0
 22 23  1  0
 23 24  1  0
 24 25  1  0
 26 25  1  6
 26 27  1  0
 26 28  1  0
 28 29  2  0
 28 30  1  0
M  END
$$$$
