KQR.pdb
     RDKit          3D

 30 29  0  0  1  0  0  0  0  0999 V2000
    6.7746  -22.5107   23.5662 N   0  0  0  0  0  0  0  0  0  0  0  0
    5.6663  -21.7430   23.0728 C   0  0  1  0  0  0  0  0  0  0  0  0
    4.3617  -22.4230   23.2291 C   0  0  0  0  0  0  0  0  0  0  0  0
    4.3353  -23.4147   24.3320 C   0  0  0  0  0  0  0  0  0  0  0  0
    3.2694  -23.1592   25.3397 C   0  0  0  0  0  0  0  0  0  0  0  0
    3.3822  -24.3147   26.3626 C   0  0  0  0  0  0  0  0  0  0  0  0
    2.4943  -24.0689   27.4695 N   0  0  0  0  0  0  0  0  0  0  0  0
    5.6182  -20.4396   23.8088 C   0  0  0  0  0  0  0  0  0  0  0  0
    4.7180  -19.5949   23.5990 O   0  0  0  0  0  0  0  0  0  0  0  0
    7.9183  -19.4706   29.4662 N   0  0  0  0  0  0  0  0  0  0  0  0
    8.9517  -19.4210   28.4905 C   0  0  0  0  0  0  0  0  0  0  0  0
   10.1332  -19.5148   28.8920 O   0  0  0  0  0  0  0  0  0  0  0  0
    8.5307  -19.2604   27.0780 C   0  0  0  0  0  0  0  0  0  0  0  0
    7.0585  -19.1008   26.8796 C   0  0  0  0  0  0  0  0  0  0  0  0
    6.6914  -18.8557   25.4587 C   0  0  2  0  0  0  0  0  0  0  0  0
    6.6048  -20.1592   24.7548 N   0  0  0  0  0  0  0  0  0  0  0  0
    7.7737  -18.1333   24.7630 C   0  0  0  0  0  0  0  0  0  0  0  0
    8.7415  -18.8048   24.2592 O   0  0  0  0  0  0  0  0  0  0  0  0
    8.1443  -11.5538   19.5707 N   0  0  0  0  0  0  0  0  0  0  0  0
    8.2685  -12.7876   18.8805 C   0  0  0  0  0  0  0  0  0  0  0  0
    8.6600  -12.7979   17.6677 N   0  0  0  0  0  0  0  0  0  0  0  0
    7.9530  -13.9848   19.5587 N   0  0  0  0  0  0  0  0  0  0  0  0
    7.6573  -13.9581   20.9743 C   0  0  0  0  0  0  0  0  0  0  0  0
    8.6612  -14.8450   21.6738 C   0  0  0  0  0  0  0  0  0  0  0  0
    8.4920  -14.8572   23.1590 C   0  0  0  0  0  0  0  0  0  0  0  0
    8.9437  -16.1458   23.8199 C   0  0  2  0  0  0  0  0  0  0  0  0
    7.8517  -16.7351   24.5846 N   0  0  0  0  0  0  0  0  0  0  0  0
   10.0823  -15.9132   24.7384 C   0  0  0  0  0  0  0  0  0  0  0  0
    9.9806  -16.0018   25.9880 O   0  0  0  0  0  0  0  0  0  0  0  0
   11.3272  -15.5825   24.2310 O   0  0  0  0  0  0  0  0  0  0  0  0
  2  1  1  1
  2  3  1  0
  4  3  1  0
  5  4  1  0
  6  5  1  0
  7  6  1  0
  8  9  2  0
  8  2  1  0
 10 11  1  0
 11 12  2  0
 11 13  1  0
 13 14  1  0
 15 14  1  1
 15 16  1  0
 16  8  1  0
 17 15  1  0
 17 27  1  0
 18 17  2  0
 19 20  1  0
 20 22  1  0
 21 20  2  0
 22 23  1  0
 23 24  1  0
 24 25  1  0
 26 25  1  1
 26 27  1  0
 26 28  1  0
 28 29  2  0
 28 30  1  0
M  END
$$$$
