KQR.pdb
     RDKit          3D

 30 29  0  0  1  0  0  0  0  0999 V2000
    9.2430  -18.6468   17.8933 N   0  0  0  0  0  0  0  0  0  0  0  0
   10.2319  -17.7838   17.3116 C   0  0  1  0  0  0  0  0  0  0  0  0
    9.8949  -17.3402   15.9411 C   0  0  0  0  0  0  0  0  0  0  0  0
   11.0561  -17.3227   15.0182 C   0  0  0  0  0  0  0  0  0  0  0  0
   10.7337  -16.7990   13.6622 C   0  0  0  0  0  0  0  0  0  0  0  0
   12.0312  -16.9655   12.8357 C   0  0  0  0  0  0  0  0  0  0  0  0
   11.8144  -16.4882   11.4942 N   0  0  0  0  0  0  0  0  0  0  0  0
   10.3870  -16.5747   18.1818 C   0  0  0  0  0  0  0  0  0  0  0  0
   11.2053  -15.6663   17.9112 O   0  0  0  0  0  0  0  0  0  0  0  0
    8.3161  -12.4426   19.4447 N   0  0  0  0  0  0  0  0  0  0  0  0
    7.6463  -13.5135   18.7914 C   0  0  0  0  0  0  0  0  0  0  0  0
    7.3695  -13.3709   17.5794 O   0  0  0  0  0  0  0  0  0  0  0  0
    7.3348  -14.7079   19.6128 C   0  0  0  0  0  0  0  0  0  0  0  0
    8.3002  -14.9717   20.7221 C   0  0  0  0  0  0  0  0  0  0  0  0
    9.6697  -15.2853   20.2324 C   0  0  2  0  0  0  0  0  0  0  0  0
    9.5973  -16.4580   19.3261 N   0  0  0  0  0  0  0  0  0  0  0  0
   10.5264  -15.7341   21.3468 C   0  0  0  0  0  0  0  0  0  0  0  0
   10.6132  -16.9882   21.5940 O   0  0  0  0  0  0  0  0  0  0  0  0
   10.4621  -17.8366   28.7077 N   0  0  0  0  0  0  0  0  0  0  0  0
   11.1206  -16.5919   28.8844 C   0  0  0  0  0  0  0  0  0  0  0  0
   11.4510  -16.2112   30.0550 N   0  0  0  0  0  0  0  0  0  0  0  0
   11.3967  -15.7978   27.7505 N   0  0  0  0  0  0  0  0  0  0  0  0
   10.3454  -15.4983   26.8035 C   0  0  0  0  0  0  0  0  0  0  0  0
   10.5501  -16.3770   25.5912 C   0  0  0  0  0  0  0  0  0  0  0  0
   10.3205  -15.6544   24.3029 C   0  0  0  0  0  0  0  0  0  0  0  0
   11.5945  -15.3055   23.5568 C   0  0  2  0  0  0  0  0  0  0  0  0
   11.2886  -14.8981   22.1911 N   0  0  0  0  0  0  0  0  0  0  0  0
   12.5227  -16.4584   23.5015 C   0  0  0  0  0  0  0  0  0  0  0  0
   13.4915  -16.5936   24.2908 O   0  0  0  0  0  0  0  0  0  0  0  0
   12.3436  -17.4490   22.5510 O   0  0  0  0  0  0  0  0  0  0  0  0
  2  1  1  1
  2  3  1  0
  4  3  1  0
  5  4  1  0
  6  5  1  0
  7  6  1  0
  8  9  2  0
  8  2  1  0
 10 11  1  0
 11 12  2  0
 11 13  1  0
 13 14  1  0
 15 14  1  1
 15 16  1  0
 16  8  1  0
 17 15  1  0
 17 27  1  0
 18 17  2  0
 19 20  1  0
 20 22  1  0
 21 20  2  0
 22 23  1  0
 23 24  1  0
 24 25  1  0
 26 25  1  6
 26 27  1  0
 26 28  1  0
 28 29  2  0
 28 30  1  0
M  END
$$$$
