KQR.pdb
     RDKit          3D

 30 29  0  0  1  0  0  0  0  0999 V2000
   13.6829  -15.6342   17.1245 N   0  0  0  0  0  0  0  0  0  0  0  0
   14.2949  -14.9386   18.2212 C   0  0  1  0  0  0  0  0  0  0  0  0
   14.9702  -13.6845   17.8209 C   0  0  0  0  0  0  0  0  0  0  0  0
   16.0120  -13.8743   16.7822 C   0  0  0  0  0  0  0  0  0  0  0  0
   15.4632  -14.2188   15.4417 C   0  0  0  0  0  0  0  0  0  0  0  0
   16.6852  -14.2623   14.4935 C   0  0  0  0  0  0  0  0  0  0  0  0
   16.2545  -14.6161   13.1655 N   0  0  0  0  0  0  0  0  0  0  0  0
   13.2399  -14.6125   19.2330 C   0  0  0  0  0  0  0  0  0  0  0  0
   13.4896  -13.9274   20.2509 O   0  0  0  0  0  0  0  0  0  0  0  0
    7.1085  -13.9124   19.6782 N   0  0  0  0  0  0  0  0  0  0  0  0
    7.8699  -13.4493   18.5699 C   0  0  0  0  0  0  0  0  0  0  0  0
    7.4068  -12.4945   17.9068 O   0  0  0  0  0  0  0  0  0  0  0  0
    9.1504  -14.1462   18.3004 C   0  0  0  0  0  0  0  0  0  0  0  0
    9.5451  -15.1493   19.3349 C   0  0  0  0  0  0  0  0  0  0  0  0
   10.8393  -14.8215   19.9917 C   0  0  2  0  0  0  0  0  0  0  0  0
   11.9424  -15.0859   19.0351 N   0  0  0  0  0  0  0  0  0  0  0  0
   11.0969  -15.7439   21.1142 C   0  0  0  0  0  0  0  0  0  0  0  0
   11.2479  -16.9919   20.8671 O   0  0  0  0  0  0  0  0  0  0  0  0
   17.9894  -15.8726   24.3594 N   0  0  0  0  0  0  0  0  0  0  0  0
   16.9629  -15.9654   23.3838 C   0  0  0  0  0  0  0  0  0  0  0  0
   16.8501  -15.0587   22.4953 N   0  0  0  0  0  0  0  0  0  0  0  0
   16.0832  -17.0688   23.4204 N   0  0  0  0  0  0  0  0  0  0  0  0
   14.8118  -17.0036   22.7339 C   0  0  0  0  0  0  0  0  0  0  0  0
   13.7342  -17.3994   23.7167 C   0  0  0  0  0  0  0  0  0  0  0  0
   12.8255  -16.2667   24.0717 C   0  0  0  0  0  0  0  0  0  0  0  0
   11.4276  -16.3949   23.4965 C   0  0  2  0  0  0  0  0  0  0  0  0
   11.2033  -15.3805   22.4741 N   0  0  0  0  0  0  0  0  0  0  0  0
   10.3938  -16.2350   24.5452 C   0  0  0  0  0  0  0  0  0  0  0  0
    9.5434  -15.3095   24.5303 O   0  0  0  0  0  0  0  0  0  0  0  0
   10.3331  -17.1271   25.6021 O   0  0  0  0  0  0  0  0  0  0  0  0
  2  1  1  6
  2  3  1  0
  4  3  1  0
  5  4  1  0
  6  5  1  0
  7  6  1  0
  8  9  2  0
  8  2  1  0
 10 11  1  0
 11 12  2  0
 11 13  1  0
 13 14  1  0
 15 14  1  6
 15 16  1  0
 16  8  1  0
 17 15  1  0
 17 27  1  0
 18 17  2  0
 19 20  1  0
 20 22  1  0
 21 20  2  0
 22 23  1  0
 23 24  1  0
 24 25  1  0
 26 25  1  1
 26 27  1  0
 26 28  1  0
 28 29  2  0
 28 30  1  0
M  END
$$$$
