KQR.pdb
     RDKit          3D

 30 29  0  0  1  0  0  0  0  0999 V2000
    4.8983  -20.5057   21.0314 N   0  0  0  0  0  0  0  0  0  0  0  0
    6.2114  -20.0165   21.3437 C   0  0  1  0  0  0  0  0  0  0  0  0
    6.7424  -19.0693   20.3388 C   0  0  0  0  0  0  0  0  0  0  0  0
    6.7127  -19.5940   18.9517 C   0  0  0  0  0  0  0  0  0  0  0  0
    7.2430  -18.6387   17.9402 C   0  0  0  0  0  0  0  0  0  0  0  0
    7.0635  -19.3418   16.5736 C   0  0  0  0  0  0  0  0  0  0  0  0
    7.6233  -18.5215   15.5306 N   0  0  0  0  0  0  0  0  0  0  0  0
    6.1648  -19.3281   22.6730 C   0  0  0  0  0  0  0  0  0  0  0  0
    5.5963  -18.2230   22.8254 O   0  0  0  0  0  0  0  0  0  0  0  0
    8.1819  -22.0257   28.0599 N   0  0  0  0  0  0  0  0  0  0  0  0
    7.8310  -20.7248   28.5147 C   0  0  0  0  0  0  0  0  0  0  0  0
    7.8981  -20.5028   29.7444 O   0  0  0  0  0  0  0  0  0  0  0  0
    7.4143  -19.7454   27.4826 C   0  0  0  0  0  0  0  0  0  0  0  0
    7.2754  -20.3097   26.1063 C   0  0  0  0  0  0  0  0  0  0  0  0
    6.8246  -19.2993   25.1115 C   0  0  2  0  0  0  0  0  0  0  0  0
    6.7726  -19.9359   23.7721 N   0  0  0  0  0  0  0  0  0  0  0  0
    7.8303  -18.2287   24.9710 C   0  0  0  0  0  0  0  0  0  0  0  0
    8.9844  -18.5223   24.4984 O   0  0  0  0  0  0  0  0  0  0  0  0
    7.6014  -14.0843   19.3788 N   0  0  0  0  0  0  0  0  0  0  0  0
    7.8002  -12.8466   20.0440 C   0  0  0  0  0  0  0  0  0  0  0  0
    7.7353  -11.7568   19.3863 N   0  0  0  0  0  0  0  0  0  0  0  0
    8.0676  -12.8509   21.4301 N   0  0  0  0  0  0  0  0  0  0  0  0
    7.5301  -13.9007   22.2674 C   0  0  0  0  0  0  0  0  0  0  0  0
    8.6507  -14.4155   23.1409 C   0  0  0  0  0  0  0  0  0  0  0  0
    8.2339  -14.6207   24.5618 C   0  0  0  0  0  0  0  0  0  0  0  0
    8.7366  -15.9163   25.1702 C   0  0  2  0  0  0  0  0  0  0  0  0
    7.6438  -16.8708   25.3086 N   0  0  0  0  0  0  0  0  0  0  0  0
    9.3302  -15.6915   26.5086 C   0  0  0  0  0  0  0  0  0  0  0  0
    8.7828  -16.0778   27.5720 O   0  0  0  0  0  0  0  0  0  0  0  0
   10.5408  -15.0307   26.6290 O   0  0  0  0  0  0  0  0  0  0  0  0
  2  1  1  6
  2  3  1  0
  4  3  1  0
  5  4  1  0
  6  5  1  0
  7  6  1  0
  8  9  2  0
  8  2  1  0
 10 11  1  0
 11 12  2  0
 11 13  1  0
 13 14  1  0
 15 14  1  1
 15 16  1  0
 16  8  1  0
 17 15  1  0
 17 27  1  0
 18 17  2  0
 19 20  1  0
 20 22  1  0
 21 20  2  0
 22 23  1  0
 23 24  1  0
 24 25  1  0
 26 25  1  1
 26 27  1  0
 26 28  1  0
 28 29  2  0
 28 30  1  0
M  END
$$$$
