YWE.pdb
     RDKit          3D

 36 38  0  0  1  0  0  0  0  0999 V2000
   12.0137  -20.3939   16.3513 O   0  0  0  0  0  0  0  0  0  0  0  0
   11.9967  -19.7140   17.5655 C   0  0  0  0  0  0  0  0  0  0  0  0
   10.9898  -20.0303   18.4940 C   0  0  0  0  0  0  0  0  0  0  0  0
   10.9713  -19.3576   19.6971 C   0  0  0  0  0  0  0  0  0  0  0  0
   11.9130  -18.3793   20.0222 C   0  0  0  0  0  0  0  0  0  0  0  0
   11.8197  -17.6987   21.3122 C   0  0  0  0  0  0  0  0  0  0  0  0
   10.5513  -16.8525   21.3539 C   0  0  2  0  0  0  0  0  0  0  0  0
   10.6690  -15.9251   20.2572 N   0  0  0  0  0  0  0  0  0  0  0  0
   10.4506  -16.1118   22.6194 C   0  0  0  0  0  0  0  0  0  0  0  0
   11.1549  -15.0796   22.7923 O   0  0  0  0  0  0  0  0  0  0  0  0
   12.8863  -18.0912   19.0937 C   0  0  0  0  0  0  0  0  0  0  0  0
   12.9351  -18.7541   17.8624 C   0  0  0  0  0  0  0  0  0  0  0  0
    9.5957  -16.4635   23.7116 N   0  0  0  0  0  0  0  0  0  0  0  0
    9.8142  -15.9660   25.0461 C   0  0  1  0  0  0  0  0  0  0  0  0
    8.5518  -15.5593   25.7324 C   0  0  0  0  0  0  0  0  0  0  0  0
    7.6772  -14.6387   25.0108 C   0  0  0  0  0  0  0  0  0  0  0  0
    6.9973  -14.7780   23.8228 C   0  0  0  0  0  0  0  0  0  0  0  0
    6.3382  -13.6295   23.5934 N   0  0  0  0  0  0  0  0  0  0  0  0
    6.5731  -12.7568   24.5963 C   0  0  0  0  0  0  0  0  0  0  0  0
    6.1448  -11.4539   24.8454 C   0  0  0  0  0  0  0  0  0  0  0  0
    6.5414  -10.7636   25.9739 C   0  0  0  0  0  0  0  0  0  0  0  0
    7.3909  -11.4201   26.8613 C   0  0  0  0  0  0  0  0  0  0  0  0
    7.8233  -12.6946   26.6405 C   0  0  0  0  0  0  0  0  0  0  0  0
    7.4101  -13.3553   25.5072 C   0  0  0  0  0  0  0  0  0  0  0  0
   10.6926  -16.8458   25.8421 C   0  0  0  0  0  0  0  0  0  0  0  0
   11.0516  -16.4622   27.0077 O   0  0  0  0  0  0  0  0  0  0  0  0
   11.1604  -18.0951   25.3894 N   0  0  0  0  0  0  0  0  0  0  0  0
   11.9440  -18.9580   26.2835 C   0  0  1  0  0  0  0  0  0  0  0  0
   11.2121  -20.2238   26.5656 C   0  0  0  0  0  0  0  0  0  0  0  0
   12.0480  -21.1764   27.3653 C   0  0  0  0  0  0  0  0  0  0  0  0
   11.1970  -21.7511   28.4851 C   0  0  0  0  0  0  0  0  0  0  0  0
   11.4157  -21.3221   29.6392 O   0  0  0  0  0  0  0  0  0  0  0  0
   13.2903  -19.1578   25.7529 C   0  0  0  0  0  0  0  0  0  0  0  0
   13.5388  -19.3643   24.5509 O   0  0  0  0  0  0  0  0  0  0  0  0
   10.2408  -22.7016   28.1871 O   0  0  0  0  0  0  0  0  0  0  0  0
   14.4297  -19.1299   26.5918 O   0  0  0  0  0  0  0  0  0  0  0  0
  2 12  2  0
  2  1  1  0
  3  2  1  0
  4  5  1  0
  4  3  2  0
  5 11  2  0
  6  7  1  0
  6  5  1  0
  7  8  1  6
  9  7  1  0
  9 13  1  0
 10  9  2  0
 11 12  1  0
 14 13  1  0
 14 15  1  1
 15 16  1  0
 16 17  2  0
 18 17  1  0
 19 18  1  0
 20 19  2  0
 21 20  1  0
 22 21  2  0
 22 23  1  0
 23 24  2  0
 24 19  1  0
 24 16  1  0
 25 14  1  0
 25 26  2  0
 27 25  1  0
 28 27  1  0
 28 33  1  0
 28 29  1  6
 30 29  1  0
 30 31  1  0
 31 32  2  0
 31 35  1  0
 33 34  2  0
 33 36  1  0
M  END
$$$$
