YWE.pdb
     RDKit          3D

 36 38  0  0  1  0  0  0  0  0999 V2000
    7.2228  -14.5701   13.7868 O   0  0  0  0  0  0  0  0  0  0  0  0
    7.4458  -14.3795   15.1472 C   0  0  0  0  0  0  0  0  0  0  0  0
    8.6309  -13.7373   15.5462 C   0  0  0  0  0  0  0  0  0  0  0  0
    8.8535  -13.5479   16.8934 C   0  0  0  0  0  0  0  0  0  0  0  0
    7.9473  -13.9697   17.8683 C   0  0  0  0  0  0  0  0  0  0  0  0
    8.2601  -13.7465   19.2784 C   0  0  0  0  0  0  0  0  0  0  0  0
    8.9960  -14.9598   19.8377 C   0  0  2  0  0  0  0  0  0  0  0  0
    8.2366  -16.1058   19.4055 N   0  0  0  0  0  0  0  0  0  0  0  0
    9.0404  -14.9212   21.3063 C   0  0  0  0  0  0  0  0  0  0  0  0
    9.7770  -14.0749   21.8832 O   0  0  0  0  0  0  0  0  0  0  0  0
    6.7966  -14.5952   17.4477 C   0  0  0  0  0  0  0  0  0  0  0  0
    6.5382  -14.8043   16.0885 C   0  0  0  0  0  0  0  0  0  0  0  0
    8.2975  -15.7832   22.1739 N   0  0  0  0  0  0  0  0  0  0  0  0
    8.4232  -15.7195   23.6078 C   0  0  1  0  0  0  0  0  0  0  0  0
    7.1297  -15.4303   24.2958 C   0  0  0  0  0  0  0  0  0  0  0  0
    7.2077  -14.9851   25.6846 C   0  0  0  0  0  0  0  0  0  0  0  0
    7.3391  -15.6927   26.8571 C   0  0  0  0  0  0  0  0  0  0  0  0
    7.3526  -14.8074   27.8681 N   0  0  0  0  0  0  0  0  0  0  0  0
    7.2340  -13.5535   27.3823 C   0  0  0  0  0  0  0  0  0  0  0  0
    7.1926  -12.2977   27.9860 C   0  0  0  0  0  0  0  0  0  0  0  0
    7.0610  -11.1404   27.2439 C   0  0  0  0  0  0  0  0  0  0  0  0
    6.9705  -11.2731   25.8603 C   0  0  0  0  0  0  0  0  0  0  0  0
    7.0092  -12.4901   25.2458 C   0  0  0  0  0  0  0  0  0  0  0  0
    7.1413  -13.6240   26.0130 C   0  0  0  0  0  0  0  0  0  0  0  0
    9.1739  -16.8634   24.1622 C   0  0  0  0  0  0  0  0  0  0  0  0
    8.6472  -18.0271   24.1077 O   0  0  0  0  0  0  0  0  0  0  0  0
   10.4485  -16.7468   24.7506 N   0  0  0  0  0  0  0  0  0  0  0  0
   11.1035  -17.9261   25.3324 C   0  0  1  0  0  0  0  0  0  0  0  0
   12.4276  -18.1602   24.6922 C   0  0  0  0  0  0  0  0  0  0  0  0
   13.3728  -17.0269   24.9526 C   0  0  0  0  0  0  0  0  0  0  0  0
   14.1913  -16.7756   23.6975 C   0  0  0  0  0  0  0  0  0  0  0  0
   13.9622  -17.5146   22.7150 O   0  0  0  0  0  0  0  0  0  0  0  0
   11.1607  -17.8148   26.7878 C   0  0  0  0  0  0  0  0  0  0  0  0
   10.7725  -16.8176   27.4232 O   0  0  0  0  0  0  0  0  0  0  0  0
   15.1324  -15.7652   23.6958 O   0  0  0  0  0  0  0  0  0  0  0  0
   11.6751  -18.8598   27.5917 O   0  0  0  0  0  0  0  0  0  0  0  0
  2 12  2  0
  2  1  1  0
  3  2  1  0
  4  5  1  0
  4  3  2  0
  5 11  2  0
  6  7  1  0
  6  5  1  0
  7  8  1  1
  9  7  1  0
  9 13  1  0
 10  9  2  0
 11 12  1  0
 14 13  1  0
 14 15  1  1
 15 16  1  0
 16 17  2  0
 18 17  1  0
 19 18  1  0
 20 19  2  0
 21 20  1  0
 22 21  2  0
 22 23  1  0
 23 24  2  0
 24 19  1  0
 24 16  1  0
 25 14  1  0
 25 26  2  0
 27 25  1  0
 28 27  1  0
 28 33  1  0
 28 29  1  6
 30 29  1  0
 30 31  1  0
 31 32  2  0
 31 35  1  0
 33 34  2  0
 33 36  1  0
M  END
$$$$
