YWE.pdb
     RDKit          3D

 36 38  0  0  1  0  0  0  0  0999 V2000
    7.7786  -13.7309   14.3602 O   0  0  0  0  0  0  0  0  0  0  0  0
    8.0171  -14.2323   15.6364 C   0  0  0  0  0  0  0  0  0  0  0  0
    8.7493  -15.4261   15.7589 C   0  0  0  0  0  0  0  0  0  0  0  0
    8.9862  -15.9243   17.0221 C   0  0  0  0  0  0  0  0  0  0  0  0
    8.5264  -15.2872   18.1763 C   0  0  0  0  0  0  0  0  0  0  0  0
    8.8048  -15.8845   19.4809 C   0  0  0  0  0  0  0  0  0  0  0  0
    9.2546  -14.8002   20.4548 C   0  0  2  0  0  0  0  0  0  0  0  0
   10.4920  -14.2898   19.9207 N   0  0  0  0  0  0  0  0  0  0  0  0
    9.4866  -15.3561   21.7955 C   0  0  0  0  0  0  0  0  0  0  0  0
   10.6676  -15.5765   22.1804 O   0  0  0  0  0  0  0  0  0  0  0  0
    7.8127  -14.1209   18.0250 C   0  0  0  0  0  0  0  0  0  0  0  0
    7.5534  -13.5867   16.7581 C   0  0  0  0  0  0  0  0  0  0  0  0
    8.4612  -15.6798   22.7396 N   0  0  0  0  0  0  0  0  0  0  0  0
    8.7632  -16.0965   24.0854 C   0  0  1  0  0  0  0  0  0  0  0  0
    7.5951  -15.9823   25.0088 C   0  0  0  0  0  0  0  0  0  0  0  0
    6.9871  -14.6609   25.1410 C   0  0  0  0  0  0  0  0  0  0  0  0
    5.9798  -14.0514   24.4292 C   0  0  0  0  0  0  0  0  0  0  0  0
    5.8001  -12.8242   24.9466 N   0  0  0  0  0  0  0  0  0  0  0  0
    6.6599  -12.6260   25.9683 C   0  0  0  0  0  0  0  0  0  0  0  0
    6.8881  -11.5517   26.8268 C   0  0  0  0  0  0  0  0  0  0  0  0
    7.8531  -11.6043   27.8134 C   0  0  0  0  0  0  0  0  0  0  0  0
    8.5961  -12.7776   27.9214 C   0  0  0  0  0  0  0  0  0  0  0  0
    8.3915  -13.8425   27.0942 C   0  0  0  0  0  0  0  0  0  0  0  0
    7.4225  -13.7589   26.1217 C   0  0  0  0  0  0  0  0  0  0  0  0
    9.4617  -17.3961   24.1329 C   0  0  0  0  0  0  0  0  0  0  0  0
    9.0046  -18.3642   23.4339 O   0  0  0  0  0  0  0  0  0  0  0  0
   10.6136  -17.6333   24.9084 N   0  0  0  0  0  0  0  0  0  0  0  0
   11.1712  -18.9888   25.0063 C   0  0  1  0  0  0  0  0  0  0  0  0
   12.4136  -19.1052   24.1935 C   0  0  0  0  0  0  0  0  0  0  0  0
   13.5520  -18.3571   24.8180 C   0  0  0  0  0  0  0  0  0  0  0  0
   14.5132  -17.9274   23.7226 C   0  0  0  0  0  0  0  0  0  0  0  0
   14.9296  -18.8205   22.9527 O   0  0  0  0  0  0  0  0  0  0  0  0
   11.3405  -19.3736   26.4053 C   0  0  0  0  0  0  0  0  0  0  0  0
   11.7865  -20.4760   26.7726 O   0  0  0  0  0  0  0  0  0  0  0  0
   14.8782  -16.5991   23.6271 O   0  0  0  0  0  0  0  0  0  0  0  0
   10.9993  -18.4964   27.4621 O   0  0  0  0  0  0  0  0  0  0  0  0
  2 12  2  0
  2  1  1  0
  3  2  1  0
  4  5  1  0
  4  3  2  0
  5 11  2  0
  6  7  1  0
  6  5  1  0
  7  8  1  6
  9  7  1  0
  9 13  1  0
 10  9  2  0
 11 12  1  0
 14 13  1  0
 14 15  1  1
 15 16  1  0
 16 17  2  0
 18 17  1  0
 19 18  1  0
 20 19  2  0
 21 20  1  0
 22 21  2  0
 22 23  1  0
 23 24  2  0
 24 19  1  0
 24 16  1  0
 25 14  1  0
 25 26  2  0
 27 25  1  0
 28 27  1  0
 28 33  1  0
 28 29  1  6
 30 29  1  0
 30 31  1  0
 31 32  2  0
 31 35  1  0
 33 34  2  0
 33 36  1  0
M  END
$$$$
