YWE.pdb
     RDKit          3D

 36 38  0  0  1  0  0  0  0  0999 V2000
    7.9670  -13.4560   15.6248 O   0  0  0  0  0  0  0  0  0  0  0  0
    7.7768  -13.6866   16.9840 C   0  0  0  0  0  0  0  0  0  0  0  0
    7.0585  -14.8306   17.3733 C   0  0  0  0  0  0  0  0  0  0  0  0
    6.8690  -15.0604   18.7192 C   0  0  0  0  0  0  0  0  0  0  0  0
    7.3633  -14.2008   19.7021 C   0  0  0  0  0  0  0  0  0  0  0  0
    7.1091  -14.5036   21.1092 C   0  0  0  0  0  0  0  0  0  0  0  0
    8.0814  -15.5780   21.5853 C   0  0  2  0  0  0  0  0  0  0  0  0
    7.7930  -16.7420   20.7862 N   0  0  0  0  0  0  0  0  0  0  0  0
    7.8717  -15.8894   23.0064 C   0  0  0  0  0  0  0  0  0  0  0  0
    6.7475  -15.6632   23.5322 O   0  0  0  0  0  0  0  0  0  0  0  0
    8.0621  -13.0895   19.2910 C   0  0  0  0  0  0  0  0  0  0  0  0
    8.2732  -12.8249   17.9333 C   0  0  0  0  0  0  0  0  0  0  0  0
    8.8584  -16.4476   23.8796 N   0  0  0  0  0  0  0  0  0  0  0  0
    9.6418  -15.6308   24.7714 C   0  0  1  0  0  0  0  0  0  0  0  0
    9.0770  -15.5654   26.1522 C   0  0  0  0  0  0  0  0  0  0  0  0
    7.7502  -14.9717   26.2935 C   0  0  0  0  0  0  0  0  0  0  0  0
    6.4972  -15.5397   26.2813 C   0  0  0  0  0  0  0  0  0  0  0  0
    5.6003  -14.5519   26.4430 N   0  0  0  0  0  0  0  0  0  0  0  0
    6.2375  -13.3673   26.5586 C   0  0  0  0  0  0  0  0  0  0  0  0
    5.7913  -12.0589   26.7379 C   0  0  0  0  0  0  0  0  0  0  0  0
    6.6715  -10.9984   26.8262 C   0  0  0  0  0  0  0  0  0  0  0  0
    8.0312  -11.2842   26.7291 C   0  0  0  0  0  0  0  0  0  0  0  0
    8.4929  -12.5556   26.5542 C   0  0  0  0  0  0  0  0  0  0  0  0
    7.5906  -13.5903   26.4704 C   0  0  0  0  0  0  0  0  0  0  0  0
   11.0828  -15.9452   24.7090 C   0  0  0  0  0  0  0  0  0  0  0  0
   11.8100  -15.6952   25.7305 O   0  0  0  0  0  0  0  0  0  0  0  0
   11.7082  -16.5117   23.5810 N   0  0  0  0  0  0  0  0  0  0  0  0
   13.1273  -16.8878   23.6350 C   0  0  1  0  0  0  0  0  0  0  0  0
   13.3511  -17.9465   24.6581 C   0  0  0  0  0  0  0  0  0  0  0  0
   12.6242  -19.2101   24.3107 C   0  0  0  0  0  0  0  0  0  0  0  0
   13.1726  -20.3397   25.1661 C   0  0  0  0  0  0  0  0  0  0  0  0
   14.2159  -20.1039   25.8138 O   0  0  0  0  0  0  0  0  0  0  0  0
   13.6157  -17.2382   22.3036 C   0  0  0  0  0  0  0  0  0  0  0  0
   14.8090  -17.4766   22.0427 O   0  0  0  0  0  0  0  0  0  0  0  0
   12.5105  -21.5512   25.1903 O   0  0  0  0  0  0  0  0  0  0  0  0
   12.7420  -17.3312   21.1940 O   0  0  0  0  0  0  0  0  0  0  0  0
  2 12  2  0
  2  1  1  0
  3  2  1  0
  4  5  1  0
  4  3  2  0
  5 11  2  0
  6  7  1  0
  6  5  1  0
  7  8  1  6
  9  7  1  0
  9 13  1  0
 10  9  2  0
 11 12  1  0
 14 13  1  0
 14 15  1  1
 15 16  1  0
 16 17  2  0
 18 17  1  0
 19 18  1  0
 20 19  2  0
 21 20  1  0
 22 21  2  0
 22 23  1  0
 23 24  2  0
 24 19  1  0
 24 16  1  0
 25 14  1  0
 25 26  2  0
 27 25  1  0
 28 27  1  0
 28 33  1  0
 28 29  1  1
 30 29  1  0
 30 31  1  0
 31 32  2  0
 31 35  1  0
 33 34  2  0
 33 36  1  0
M  END
$$$$
