YWE.pdb
     RDKit          3D

 36 38  0  0  1  0  0  0  0  0999 V2000
    6.8699  -21.1066   14.7806 O   0  0  0  0  0  0  0  0  0  0  0  0
    7.1209  -20.4929   16.0042 C   0  0  0  0  0  0  0  0  0  0  0  0
    6.5772  -21.0702   17.1650 C   0  0  0  0  0  0  0  0  0  0  0  0
    6.8246  -20.4635   18.3778 C   0  0  0  0  0  0  0  0  0  0  0  0
    7.5920  -19.3025   18.4911 C   0  0  0  0  0  0  0  0  0  0  0  0
    7.7983  -18.7088   19.8106 C   0  0  0  0  0  0  0  0  0  0  0  0
    8.5186  -17.3723   19.6636 C   0  0  2  0  0  0  0  0  0  0  0  0
    9.6610  -17.6388   18.8266 N   0  0  0  0  0  0  0  0  0  0  0  0
    8.9686  -16.8673   20.9685 C   0  0  0  0  0  0  0  0  0  0  0  0
   10.0936  -17.2209   21.4167 O   0  0  0  0  0  0  0  0  0  0  0  0
    8.1107  -18.7605   17.3381 C   0  0  0  0  0  0  0  0  0  0  0  0
    7.8796  -19.3496   16.0901 C   0  0  0  0  0  0  0  0  0  0  0  0
    8.2241  -15.9781   21.8066 N   0  0  0  0  0  0  0  0  0  0  0  0
    8.6906  -15.5858   23.1123 C   0  0  1  0  0  0  0  0  0  0  0  0
    8.0733  -14.3151   23.5962 C   0  0  0  0  0  0  0  0  0  0  0  0
    8.3591  -13.9277   24.9752 C   0  0  0  0  0  0  0  0  0  0  0  0
    9.3529  -14.3235   25.8403 C   0  0  0  0  0  0  0  0  0  0  0  0
    9.1650  -13.6738   27.0016 N   0  0  0  0  0  0  0  0  0  0  0  0
    8.0820  -12.8730   26.9099 C   0  0  0  0  0  0  0  0  0  0  0  0
    7.4612  -12.0038   27.8055 C   0  0  0  0  0  0  0  0  0  0  0  0
    6.3358  -11.2839   27.4552 C   0  0  0  0  0  0  0  0  0  0  0  0
    5.8392  -11.4581   26.1656 C   0  0  0  0  0  0  0  0  0  0  0  0
    6.4288  -12.3019   25.2708 C   0  0  0  0  0  0  0  0  0  0  0  0
    7.5486  -13.0046   25.6502 C   0  0  0  0  0  0  0  0  0  0  0  0
    8.6562  -16.6969   24.0837 C   0  0  0  0  0  0  0  0  0  0  0  0
    7.7218  -17.5647   23.9903 O   0  0  0  0  0  0  0  0  0  0  0  0
    9.6020  -16.8594   25.1149 N   0  0  0  0  0  0  0  0  0  0  0  0
   10.2336  -18.1669   25.3377 C   0  0  1  0  0  0  0  0  0  0  0  0
   10.8059  -18.6964   24.0689 C   0  0  0  0  0  0  0  0  0  0  0  0
   11.4245  -20.0470   24.2656 C   0  0  0  0  0  0  0  0  0  0  0  0
   11.9972  -20.5194   22.9399 C   0  0  0  0  0  0  0  0  0  0  0  0
   11.2775  -21.2733   22.2490 O   0  0  0  0  0  0  0  0  0  0  0  0
   11.1951  -18.0913   26.4349 C   0  0  0  0  0  0  0  0  0  0  0  0
   11.1973  -18.8646   27.4101 O   0  0  0  0  0  0  0  0  0  0  0  0
   13.2598  -20.1058   22.5640 O   0  0  0  0  0  0  0  0  0  0  0  0
   12.2129  -17.1083   26.4625 O   0  0  0  0  0  0  0  0  0  0  0  0
  2 12  2  0
  2  1  1  0
  3  2  1  0
  4  5  1  0
  4  3  2  0
  5 11  2  0
  6  7  1  0
  6  5  1  0
  7  8  1  6
  9  7  1  0
  9 13  1  0
 10  9  2  0
 11 12  1  0
 14 13  1  0
 14 15  1  1
 15 16  1  0
 16 17  2  0
 18 17  1  0
 19 18  1  0
 20 19  2  0
 21 20  1  0
 22 21  2  0
 22 23  1  0
 23 24  2  0
 24 19  1  0
 24 16  1  0
 25 14  1  0
 25 26  2  0
 27 25  1  0
 28 27  1  0
 28 33  1  0
 28 29  1  6
 30 29  1  0
 30 31  1  0
 31 32  2  0
 31 35  1  0
 33 34  2  0
 33 36  1  0
M  END
$$$$
