YWE.pdb
     RDKit          3D

 36 38  0  0  1  0  0  0  0  0999 V2000
    7.5772  -13.9585   14.3607 O   0  0  0  0  0  0  0  0  0  0  0  0
    8.0227  -14.4375   15.5891 C   0  0  0  0  0  0  0  0  0  0  0  0
    8.1829  -13.5227   16.6444 C   0  0  0  0  0  0  0  0  0  0  0  0
    8.6244  -13.9953   17.8617 C   0  0  0  0  0  0  0  0  0  0  0  0
    8.9157  -15.3433   18.0802 C   0  0  0  0  0  0  0  0  0  0  0  0
    9.3936  -15.7667   19.3949 C   0  0  0  0  0  0  0  0  0  0  0  0
    9.3152  -14.5960   20.3695 C   0  0  2  0  0  0  0  0  0  0  0  0
   10.3628  -13.6902   19.9709 N   0  0  0  0  0  0  0  0  0  0  0  0
    9.5456  -15.0412   21.7512 C   0  0  0  0  0  0  0  0  0  0  0  0
   10.6323  -14.7527   22.3234 O   0  0  0  0  0  0  0  0  0  0  0  0
    8.7495  -16.2148   17.0289 C   0  0  0  0  0  0  0  0  0  0  0  0
    8.3035  -15.7698   15.7796 C   0  0  0  0  0  0  0  0  0  0  0  0
    8.6180  -15.7962   22.5367 N   0  0  0  0  0  0  0  0  0  0  0  0
    8.8449  -16.0746   23.9321 C   0  0  1  0  0  0  0  0  0  0  0  0
    7.6175  -15.9139   24.7674 C   0  0  0  0  0  0  0  0  0  0  0  0
    6.9888  -14.5956   24.7671 C   0  0  0  0  0  0  0  0  0  0  0  0
    6.0484  -14.0402   23.9305 C   0  0  0  0  0  0  0  0  0  0  0  0
    5.8104  -12.7887   24.3586 N   0  0  0  0  0  0  0  0  0  0  0  0
    6.5682  -12.5225   25.4437 C   0  0  0  0  0  0  0  0  0  0  0  0
    6.7054  -11.3993   26.2577 C   0  0  0  0  0  0  0  0  0  0  0  0
    7.5732  -11.3839   27.3319 C   0  0  0  0  0  0  0  0  0  0  0  0
    8.3123  -12.5392   27.5753 C   0  0  0  0  0  0  0  0  0  0  0  0
    8.1956  -13.6511   26.7941 C   0  0  0  0  0  0  0  0  0  0  0  0
    7.3222  -13.6347   25.7318 C   0  0  0  0  0  0  0  0  0  0  0  0
    9.5749  -17.3397   24.1461 C   0  0  0  0  0  0  0  0  0  0  0  0
    9.0553  -18.4274   23.7199 O   0  0  0  0  0  0  0  0  0  0  0  0
   10.8222  -17.4189   24.7961 N   0  0  0  0  0  0  0  0  0  0  0  0
   11.3743  -18.7258   25.1770 C   0  0  1  0  0  0  0  0  0  0  0  0
   12.7975  -18.8380   24.7532 C   0  0  0  0  0  0  0  0  0  0  0  0
   13.2150  -17.6702   23.9120 C   0  0  0  0  0  0  0  0  0  0  0  0
   14.6729  -17.8459   23.5219 C   0  0  0  0  0  0  0  0  0  0  0  0
   15.5070  -17.1229   24.1095 O   0  0  0  0  0  0  0  0  0  0  0  0
   11.1583  -18.9786   26.5994 C   0  0  0  0  0  0  0  0  0  0  0  0
   10.6487  -18.1549   27.3810 O   0  0  0  0  0  0  0  0  0  0  0  0
   15.0065  -18.7749   22.5564 O   0  0  0  0  0  0  0  0  0  0  0  0
   11.5243  -20.2076   27.1981 O   0  0  0  0  0  0  0  0  0  0  0  0
  2 12  2  0
  2  1  1  0
  3  2  1  0
  4  5  1  0
  4  3  2  0
  5 11  2  0
  6  7  1  0
  6  5  1  0
  7  8  1  6
  9  7  1  0
  9 13  1  0
 10  9  2  0
 11 12  1  0
 14 13  1  0
 14 15  1  1
 15 16  1  0
 16 17  2  0
 18 17  1  0
 19 18  1  0
 20 19  2  0
 21 20  1  0
 22 21  2  0
 22 23  1  0
 23 24  2  0
 24 19  1  0
 24 16  1  0
 25 14  1  0
 25 26  2  0
 27 25  1  0
 28 27  1  0
 28 33  1  0
 28 29  1  1
 30 29  1  0
 30 31  1  0
 31 32  2  0
 31 35  1  0
 33 34  2  0
 33 36  1  0
M  END
$$$$
