YWE.pdb
     RDKit          3D

 36 38  0  0  1  0  0  0  0  0999 V2000
    7.3148  -13.9931   15.6244 O   0  0  0  0  0  0  0  0  0  0  0  0
    7.6581  -13.9687   16.9729 C   0  0  0  0  0  0  0  0  0  0  0  0
    8.7036  -14.8000   17.4111 C   0  0  0  0  0  0  0  0  0  0  0  0
    9.0448  -14.7773   18.7465 C   0  0  0  0  0  0  0  0  0  0  0  0
    8.3911  -13.9616   19.6722 C   0  0  0  0  0  0  0  0  0  0  0  0
    8.7999  -14.0034   21.0748 C   0  0  0  0  0  0  0  0  0  0  0  0
    9.2207  -15.4224   21.4433 C   0  0  2  0  0  0  0  0  0  0  0  0
    8.0533  -16.2399   21.2292 N   0  0  0  0  0  0  0  0  0  0  0  0
    9.6300  -15.5040   22.8526 C   0  0  0  0  0  0  0  0  0  0  0  0
   10.5956  -14.8020   23.2603 O   0  0  0  0  0  0  0  0  0  0  0  0
    7.3721  -13.1591   19.2140 C   0  0  0  0  0  0  0  0  0  0  0  0
    6.9991  -13.1568   17.8654 C   0  0  0  0  0  0  0  0  0  0  0  0
    9.0115  -16.3332   23.8412 N   0  0  0  0  0  0  0  0  0  0  0  0
    9.4850  -16.3868   25.2010 C   0  0  1  0  0  0  0  0  0  0  0  0
    8.3802  -16.3774   26.2056 C   0  0  0  0  0  0  0  0  0  0  0  0
    7.2772  -15.4514   25.9626 C   0  0  0  0  0  0  0  0  0  0  0  0
    6.0441  -15.6427   25.3832 C   0  0  0  0  0  0  0  0  0  0  0  0
    5.4020  -14.4622   25.3922 N   0  0  0  0  0  0  0  0  0  0  0  0
    6.1834  -13.5185   25.9591 C   0  0  0  0  0  0  0  0  0  0  0  0
    6.0051  -12.1591   26.2110 C   0  0  0  0  0  0  0  0  0  0  0  0
    6.9857  -11.3995   26.8182 C   0  0  0  0  0  0  0  0  0  0  0  0
    8.1684  -12.0443   27.1727 C   0  0  0  0  0  0  0  0  0  0  0  0
    8.3668  -13.3731   26.9376 C   0  0  0  0  0  0  0  0  0  0  0  0
    7.3705  -14.1022   26.3315 C   0  0  0  0  0  0  0  0  0  0  0  0
   10.4969  -17.4416   25.4075 C   0  0  0  0  0  0  0  0  0  0  0  0
   10.2757  -18.6061   24.9282 O   0  0  0  0  0  0  0  0  0  0  0  0
   11.7033  -17.2376   26.1057 N   0  0  0  0  0  0  0  0  0  0  0  0
   12.6088  -18.3661   26.3600 C   0  0  1  0  0  0  0  0  0  0  0  0
   13.9762  -18.0664   25.8521 C   0  0  0  0  0  0  0  0  0  0  0  0
   13.9828  -17.8816   24.3650 C   0  0  0  0  0  0  0  0  0  0  0  0
   15.3629  -17.4114   23.9375 C   0  0  0  0  0  0  0  0  0  0  0  0
   16.2179  -17.2724   24.8394 O   0  0  0  0  0  0  0  0  0  0  0  0
   12.5708  -18.7460   27.7700 C   0  0  0  0  0  0  0  0  0  0  0  0
   13.2538  -19.6639   28.2599 O   0  0  0  0  0  0  0  0  0  0  0  0
   15.6079  -17.1628   22.6016 O   0  0  0  0  0  0  0  0  0  0  0  0
   11.7330  -18.0791   28.6954 O   0  0  0  0  0  0  0  0  0  0  0  0
  2 12  2  0
  2  1  1  0
  3  2  1  0
  4  5  1  0
  4  3  2  0
  5 11  2  0
  6  7  1  0
  6  5  1  0
  7  8  1  1
  9  7  1  0
  9 13  1  0
 10  9  2  0
 11 12  1  0
 14 13  1  0
 14 15  1  1
 15 16  1  0
 16 17  2  0
 18 17  1  0
 19 18  1  0
 20 19  2  0
 21 20  1  0
 22 21  2  0
 22 23  1  0
 23 24  2  0
 24 19  1  0
 24 16  1  0
 25 14  1  0
 25 26  2  0
 27 25  1  0
 28 27  1  0
 28 33  1  0
 28 29  1  1
 30 29  1  0
 30 31  1  0
 31 32  2  0
 31 35  1  0
 33 34  2  0
 33 36  1  0
M  END
$$$$
