YWE.pdb
     RDKit          3D

 36 38  0  0  1  0  0  0  0  0999 V2000
    8.3116  -21.9625   15.7822 O   0  0  0  0  0  0  0  0  0  0  0  0
    8.8481  -21.1632   16.7873 C   0  0  0  0  0  0  0  0  0  0  0  0
    8.2590  -21.2090   18.0628 C   0  0  0  0  0  0  0  0  0  0  0  0
    8.7889  -20.4178   19.0596 C   0  0  0  0  0  0  0  0  0  0  0  0
    9.8840  -19.5782   18.8460 C   0  0  0  0  0  0  0  0  0  0  0  0
   10.3806  -18.7577   19.9489 C   0  0  0  0  0  0  0  0  0  0  0  0
   10.0003  -17.2994   19.7134 C   0  0  2  0  0  0  0  0  0  0  0  0
   11.0876  -16.7339   18.9552 N   0  0  0  0  0  0  0  0  0  0  0  0
    9.8568  -16.5779   20.9858 C   0  0  0  0  0  0  0  0  0  0  0  0
   10.8883  -16.1844   21.5963 O   0  0  0  0  0  0  0  0  0  0  0  0
   10.4392  -19.5546   17.5877 C   0  0  0  0  0  0  0  0  0  0  0  0
    9.9269  -20.3441   16.5523 C   0  0  0  0  0  0  0  0  0  0  0  0
    8.6114  -16.2667   21.6180 N   0  0  0  0  0  0  0  0  0  0  0  0
    8.5430  -15.7400   22.9575 C   0  0  1  0  0  0  0  0  0  0  0  0
    7.1669  -15.3109   23.3474 C   0  0  0  0  0  0  0  0  0  0  0  0
    6.9682  -14.9239   24.7417 C   0  0  0  0  0  0  0  0  0  0  0  0
    6.6171  -15.6646   25.8466 C   0  0  0  0  0  0  0  0  0  0  0  0
    6.5586  -14.8277   26.8965 N   0  0  0  0  0  0  0  0  0  0  0  0
    6.8608  -13.5728   26.5011 C   0  0  0  0  0  0  0  0  0  0  0  0
    6.9437  -12.3554   27.1750 C   0  0  0  0  0  0  0  0  0  0  0  0
    7.2807  -11.1863   26.5215 C   0  0  0  0  0  0  0  0  0  0  0  0
    7.5369  -11.2671   25.1547 C   0  0  0  0  0  0  0  0  0  0  0  0
    7.4631  -12.4460   24.4729 C   0  0  0  0  0  0  0  0  0  0  0  0
    7.1252  -13.5930   25.1526 C   0  0  0  0  0  0  0  0  0  0  0  0
    9.2208  -16.6061   23.9422 C   0  0  0  0  0  0  0  0  0  0  0  0
    8.8031  -17.8049   24.0950 O   0  0  0  0  0  0  0  0  0  0  0  0
   10.3117  -16.1861   24.7283 N   0  0  0  0  0  0  0  0  0  0  0  0
   10.9376  -17.1151   25.6787 C   0  0  1  0  0  0  0  0  0  0  0  0
   12.4219  -17.0465   25.5794 C   0  0  0  0  0  0  0  0  0  0  0  0
   12.8925  -17.3044   24.1802 C   0  0  0  0  0  0  0  0  0  0  0  0
   14.2393  -16.6285   23.9857 C   0  0  0  0  0  0  0  0  0  0  0  0
   15.1527  -16.9484   24.7776 O   0  0  0  0  0  0  0  0  0  0  0  0
   10.4234  -16.8921   27.0276 C   0  0  0  0  0  0  0  0  0  0  0  0
   10.7990  -17.5306   28.0278 O   0  0  0  0  0  0  0  0  0  0  0  0
   14.3929  -15.7100   22.9662 O   0  0  0  0  0  0  0  0  0  0  0  0
    9.4385  -15.9110   27.2929 O   0  0  0  0  0  0  0  0  0  0  0  0
  2 12  2  0
  2  1  1  0
  3  2  1  0
  4  5  1  0
  4  3  2  0
  5 11  2  0
  6  7  1  0
  6  5  1  0
  7  8  1  6
  9  7  1  0
  9 13  1  0
 10  9  2  0
 11 12  1  0
 14 13  1  0
 14 15  1  1
 15 16  1  0
 16 17  2  0
 18 17  1  0
 19 18  1  0
 20 19  2  0
 21 20  1  0
 22 21  2  0
 22 23  1  0
 23 24  2  0
 24 19  1  0
 24 16  1  0
 25 14  1  0
 25 26  2  0
 27 25  1  0
 28 27  1  0
 28 33  1  0
 28 29  1  1
 30 29  1  0
 30 31  1  0
 31 32  2  0
 31 35  1  0
 33 34  2  0
 33 36  1  0
M  END
$$$$
