YWE.pdb
     RDKit          3D

 36 38  0  0  1  0  0  0  0  0999 V2000
    7.2749  -13.6824   15.8102 O   0  0  0  0  0  0  0  0  0  0  0  0
    7.6251  -13.7500   17.1554 C   0  0  0  0  0  0  0  0  0  0  0  0
    6.5960  -13.8018   18.1117 C   0  0  0  0  0  0  0  0  0  0  0  0
    6.9410  -13.8685   19.4446 C   0  0  0  0  0  0  0  0  0  0  0  0
    8.2695  -13.8864   19.8738 C   0  0  0  0  0  0  0  0  0  0  0  0
    8.5568  -13.9434   21.3057 C   0  0  0  0  0  0  0  0  0  0  0  0
    9.2863  -15.2431   21.6301 C   0  0  2  0  0  0  0  0  0  0  0  0
    8.3945  -16.2992   21.2223 N   0  0  0  0  0  0  0  0  0  0  0  0
    9.5568  -15.3529   23.0706 C   0  0  0  0  0  0  0  0  0  0  0  0
   10.2977  -14.4987   23.6301 O   0  0  0  0  0  0  0  0  0  0  0  0
    9.2548  -13.8345   18.9152 C   0  0  0  0  0  0  0  0  0  0  0  0
    8.9409  -13.7659   17.5533 C   0  0  0  0  0  0  0  0  0  0  0  0
    9.0375  -16.3733   23.9288 N   0  0  0  0  0  0  0  0  0  0  0  0
    9.4020  -16.4627   25.3199 C   0  0  1  0  0  0  0  0  0  0  0  0
    8.2240  -16.4198   26.2368 C   0  0  0  0  0  0  0  0  0  0  0  0
    7.2238  -15.3880   25.9759 C   0  0  0  0  0  0  0  0  0  0  0  0
    5.9720  -15.4619   25.4098 C   0  0  0  0  0  0  0  0  0  0  0  0
    5.4594  -14.2197   25.3908 N   0  0  0  0  0  0  0  0  0  0  0  0
    6.3422  -13.3502   25.9267 C   0  0  0  0  0  0  0  0  0  0  0  0
    6.3121  -11.9734   26.1427 C   0  0  0  0  0  0  0  0  0  0  0  0
    7.3737  -11.3071   26.7226 C   0  0  0  0  0  0  0  0  0  0  0  0
    8.4841  -12.0649   27.0870 C   0  0  0  0  0  0  0  0  0  0  0  0
    8.5376  -13.4130   26.8869 C   0  0  0  0  0  0  0  0  0  0  0  0
    7.4637  -14.0473   26.3072 C   0  0  0  0  0  0  0  0  0  0  0  0
   10.3516  -17.5607   25.5875 C   0  0  0  0  0  0  0  0  0  0  0  0
    9.9713  -18.7642   25.3831 O   0  0  0  0  0  0  0  0  0  0  0  0
   11.6644  -17.3581   26.0567 N   0  0  0  0  0  0  0  0  0  0  0  0
   12.5432  -18.5077   26.3102 C   0  0  1  0  0  0  0  0  0  0  0  0
   13.9144  -18.2441   25.7924 C   0  0  0  0  0  0  0  0  0  0  0  0
   13.8777  -17.6020   24.4389 C   0  0  0  0  0  0  0  0  0  0  0  0
   15.2698  -17.0956   24.1009 C   0  0  0  0  0  0  0  0  0  0  0  0
   16.1767  -17.3395   24.9266 O   0  0  0  0  0  0  0  0  0  0  0  0
   12.5048  -18.8807   27.7220 C   0  0  0  0  0  0  0  0  0  0  0  0
   13.1311  -19.8429   28.2027 O   0  0  0  0  0  0  0  0  0  0  0  0
   15.4690  -16.4027   22.9232 O   0  0  0  0  0  0  0  0  0  0  0  0
   11.7328  -18.1548   28.6600 O   0  0  0  0  0  0  0  0  0  0  0  0
  2 12  2  0
  2  1  1  0
  3  2  1  0
  4  5  1  0
  4  3  2  0
  5 11  2  0
  6  7  1  0
  6  5  1  0
  7  8  1  1
  9  7  1  0
  9 13  1  0
 10  9  2  0
 11 12  1  0
 14 13  1  0
 14 15  1  1
 15 16  1  0
 16 17  2  0
 18 17  1  0
 19 18  1  0
 20 19  2  0
 21 20  1  0
 22 21  2  0
 22 23  1  0
 23 24  2  0
 24 19  1  0
 24 16  1  0
 25 14  1  0
 25 26  2  0
 27 25  1  0
 28 27  1  0
 28 33  1  0
 28 29  1  1
 30 29  1  0
 30 31  1  0
 31 32  2  0
 31 35  1  0
 33 34  2  0
 33 36  1  0
M  END
$$$$
