YWE.pdb
     RDKit          3D

 36 38  0  0  1  0  0  0  0  0999 V2000
    7.2135  -14.2870   13.6804 O   0  0  0  0  0  0  0  0  0  0  0  0
    7.7110  -14.1905   14.9766 C   0  0  0  0  0  0  0  0  0  0  0  0
    6.8784  -13.6524   15.9732 C   0  0  0  0  0  0  0  0  0  0  0  0
    7.3696  -13.5559   17.2577 C   0  0  0  0  0  0  0  0  0  0  0  0
    8.6578  -13.9721   17.5995 C   0  0  0  0  0  0  0  0  0  0  0  0
    9.1133  -13.8243   18.9804 C   0  0  0  0  0  0  0  0  0  0  0  0
    9.4120  -15.1986   19.5707 C   0  0  2  0  0  0  0  0  0  0  0  0
    8.3494  -16.0565   19.1104 N   0  0  0  0  0  0  0  0  0  0  0  0
    9.4112  -15.1551   21.0399 C   0  0  0  0  0  0  0  0  0  0  0  0
   10.3807  -14.6218   21.6458 O   0  0  0  0  0  0  0  0  0  0  0  0
    9.4495  -14.4945   16.6031 C   0  0  0  0  0  0  0  0  0  0  0  0
    8.9836  -14.6070   15.2885 C   0  0  0  0  0  0  0  0  0  0  0  0
    8.3749  -15.6778   21.8769 N   0  0  0  0  0  0  0  0  0  0  0  0
    8.3883  -15.5095   23.3078 C   0  0  1  0  0  0  0  0  0  0  0  0
    7.0293  -15.2779   23.8820 C   0  0  0  0  0  0  0  0  0  0  0  0
    6.9579  -15.0039   25.3148 C   0  0  0  0  0  0  0  0  0  0  0  0
    6.7742  -15.8425   26.3898 C   0  0  0  0  0  0  0  0  0  0  0  0
    6.7769  -15.0870   27.5012 N   0  0  0  0  0  0  0  0  0  0  0  0
    6.9565  -13.7896   27.1743 C   0  0  0  0  0  0  0  0  0  0  0  0
    7.0356  -12.6193   27.9275 C   0  0  0  0  0  0  0  0  0  0  0  0
    7.2273  -11.3869   27.3345 C   0  0  0  0  0  0  0  0  0  0  0  0
    7.3397  -11.3541   25.9465 C   0  0  0  0  0  0  0  0  0  0  0  0
    7.2664  -12.4849   25.1875 C   0  0  0  0  0  0  0  0  0  0  0  0
    7.0753  -13.6972   25.8083 C   0  0  0  0  0  0  0  0  0  0  0  0
    9.1778  -16.5514   23.9935 C   0  0  0  0  0  0  0  0  0  0  0  0
    8.8304  -17.7742   23.8562 O   0  0  0  0  0  0  0  0  0  0  0  0
   10.3026  -16.2749   24.7954 N   0  0  0  0  0  0  0  0  0  0  0  0
   11.0647  -17.3744   25.4023 C   0  0  1  0  0  0  0  0  0  0  0  0
   12.5177  -17.2300   25.1096 C   0  0  0  0  0  0  0  0  0  0  0  0
   12.7535  -16.7904   23.6965 C   0  0  0  0  0  0  0  0  0  0  0  0
   14.2475  -16.6159   23.4823 C   0  0  0  0  0  0  0  0  0  0  0  0
   14.7481  -15.5289   23.8452 O   0  0  0  0  0  0  0  0  0  0  0  0
   10.7557  -17.4878   26.8255 C   0  0  0  0  0  0  0  0  0  0  0  0
   10.0130  -16.6999   27.4392 O   0  0  0  0  0  0  0  0  0  0  0  0
   14.9719  -17.6418   22.9084 O   0  0  0  0  0  0  0  0  0  0  0  0
   11.2946  -18.5271   27.6207 O   0  0  0  0  0  0  0  0  0  0  0  0
  2 12  2  0
  2  1  1  0
  3  2  1  0
  4  5  1  0
  4  3  2  0
  5 11  2  0
  6  7  1  0
  6  5  1  0
  7  8  1  1
  9  7  1  0
  9 13  1  0
 10  9  2  0
 11 12  1  0
 14 13  1  0
 14 15  1  1
 15 16  1  0
 16 17  2  0
 18 17  1  0
 19 18  1  0
 20 19  2  0
 21 20  1  0
 22 21  2  0
 22 23  1  0
 23 24  2  0
 24 19  1  0
 24 16  1  0
 25 14  1  0
 25 26  2  0
 27 25  1  0
 28 27  1  0
 28 33  1  0
 28 29  1  1
 30 29  1  0
 30 31  1  0
 31 32  2  0
 31 35  1  0
 33 34  2  0
 33 36  1  0
M  END
$$$$
