YWE.pdb
     RDKit          3D

 36 38  0  0  1  0  0  0  0  0999 V2000
    7.4847  -13.0323   16.2824 O   0  0  0  0  0  0  0  0  0  0  0  0
    7.6662  -13.2532   17.6445 C   0  0  0  0  0  0  0  0  0  0  0  0
    8.8741  -12.8396   18.2330 C   0  0  0  0  0  0  0  0  0  0  0  0
    9.0557  -13.0577   19.5819 C   0  0  0  0  0  0  0  0  0  0  0  0
    8.0866  -13.6714   20.3780 C   0  0  0  0  0  0  0  0  0  0  0  0
    8.3578  -13.8818   21.7987 C   0  0  0  0  0  0  0  0  0  0  0  0
    9.3503  -15.0278   21.9661 C   0  0  2  0  0  0  0  0  0  0  0  0
    8.6963  -16.1890   21.4177 N   0  0  0  0  0  0  0  0  0  0  0  0
    9.6590  -15.2577   23.3846 C   0  0  0  0  0  0  0  0  0  0  0  0
   10.3726  -14.4246   24.0077 O   0  0  0  0  0  0  0  0  0  0  0  0
    6.9149  -14.0654   19.7742 C   0  0  0  0  0  0  0  0  0  0  0  0
    6.6969  -13.8600   18.4074 C   0  0  0  0  0  0  0  0  0  0  0  0
    9.2071  -16.3771   24.1529 N   0  0  0  0  0  0  0  0  0  0  0  0
    9.5260  -16.5257   25.5502 C   0  0  1  0  0  0  0  0  0  0  0  0
    8.3158  -16.5800   26.4234 C   0  0  0  0  0  0  0  0  0  0  0  0
    7.2430  -15.6360   26.1214 C   0  0  0  0  0  0  0  0  0  0  0  0
    5.9935  -15.8276   25.5785 C   0  0  0  0  0  0  0  0  0  0  0  0
    5.3950  -14.6268   25.4995 N   0  0  0  0  0  0  0  0  0  0  0  0
    6.2204  -13.6700   25.9745 C   0  0  0  0  0  0  0  0  0  0  0  0
    6.0963  -12.2888   26.1159 C   0  0  0  0  0  0  0  0  0  0  0  0
    7.1148  -11.5195   26.6432 C   0  0  0  0  0  0  0  0  0  0  0  0
    8.2794  -12.1773   27.0320 C   0  0  0  0  0  0  0  0  0  0  0  0
    8.4251  -13.5274   26.9046 C   0  0  0  0  0  0  0  0  0  0  0  0
    7.3920  -14.2657   26.3759 C   0  0  0  0  0  0  0  0  0  0  0  0
   10.5117  -17.5967   25.7957 C   0  0  0  0  0  0  0  0  0  0  0  0
   10.5533  -18.1387   26.9530 O   0  0  0  0  0  0  0  0  0  0  0  0
   11.4155  -18.0620   24.8203 N   0  0  0  0  0  0  0  0  0  0  0  0
   12.3608  -19.1389   25.1439 C   0  0  1  0  0  0  0  0  0  0  0  0
   13.2343  -19.4390   23.9757 C   0  0  0  0  0  0  0  0  0  0  0  0
   12.5630  -19.0894   22.6823 C   0  0  0  0  0  0  0  0  0  0  0  0
   13.4424  -19.5554   21.5343 C   0  0  0  0  0  0  0  0  0  0  0  0
   13.5182  -18.8033   20.5381 O   0  0  0  0  0  0  0  0  0  0  0  0
   13.0950  -18.8259   26.3674 C   0  0  0  0  0  0  0  0  0  0  0  0
   13.5300  -17.6934   26.6452 O   0  0  0  0  0  0  0  0  0  0  0  0
   14.1047  -20.7625   21.6377 O   0  0  0  0  0  0  0  0  0  0  0  0
   13.3677  -19.8152   27.3420 O   0  0  0  0  0  0  0  0  0  0  0  0
  2 12  2  0
  2  1  1  0
  3  2  1  0
  4  5  1  0
  4  3  2  0
  5 11  2  0
  6  7  1  0
  6  5  1  0
  7  8  1  1
  9  7  1  0
  9 13  1  0
 10  9  2  0
 11 12  1  0
 14 13  1  0
 14 15  1  1
 15 16  1  0
 16 17  2  0
 18 17  1  0
 19 18  1  0
 20 19  2  0
 21 20  1  0
 22 21  2  0
 22 23  1  0
 23 24  2  0
 24 19  1  0
 24 16  1  0
 25 14  1  0
 25 26  2  0
 27 25  1  0
 28 27  1  0
 28 33  1  0
 28 29  1  6
 30 29  1  0
 30 31  1  0
 31 32  2  0
 31 35  1  0
 33 34  2  0
 33 36  1  0
M  END
$$$$
