HHR.pdb
     RDKit          3D

 32 33  0  0  1  0  0  0  0  0999 V2000
   26.1572  -13.6221  -21.3759 N   0  0  0  0  0  0  0  0  0  0  0  0
   25.7983  -12.2490  -21.6360 C   0  0  1  0  0  0  0  0  0  0  0  0
   24.4233  -12.1573  -22.2627 C   0  0  0  0  0  0  0  0  0  0  0  0
   24.4256  -12.7428  -23.6339 C   0  0  0  0  0  0  0  0  0  0  0  0
   24.5732  -12.0851  -24.8343 C   0  0  0  0  0  0  0  0  0  0  0  0
   24.5181  -12.9715  -25.8397 N   0  0  0  0  0  0  0  0  0  0  0  0
   24.3363  -14.1786  -25.2637 C   0  0  0  0  0  0  0  0  0  0  0  0
   24.2800  -14.0415  -23.9245 N   0  0  0  0  0  0  0  0  0  0  0  0
   25.7557  -11.4739  -20.3761 C   0  0  0  0  0  0  0  0  0  0  0  0
   24.9351  -11.7942  -19.4883 O   0  0  0  0  0  0  0  0  0  0  0  0
   26.6414  -10.3853  -20.1951 N   0  0  0  0  0  0  0  0  0  0  0  0
   26.7679   -9.6876  -18.9379 C   0  0  1  0  0  0  0  0  0  0  0  0
   28.1369   -9.1202  -18.7232 C   0  0  0  0  0  0  0  0  0  0  0  0
   29.1486  -10.1773  -18.4291 C   0  0  0  0  0  0  0  0  0  0  0  0
   28.8403  -11.4989  -18.2261 C   0  0  0  0  0  0  0  0  0  0  0  0
   29.9798  -12.1447  -17.9889 N   0  0  0  0  0  0  0  0  0  0  0  0
   30.9860  -11.2618  -18.0387 C   0  0  0  0  0  0  0  0  0  0  0  0
   30.4747  -10.0539  -18.3092 N   0  0  0  0  0  0  0  0  0  0  0  0
   25.7304   -8.6358  -18.8446 C   0  0  0  0  0  0  0  0  0  0  0  0
   25.6051   -7.7887  -19.7946 O   0  0  0  0  0  0  0  0  0  0  0  0
   17.4110   -8.8691  -15.9528 N   0  0  0  0  0  0  0  0  0  0  0  0
   17.6816   -7.5119  -16.2780 C   0  0  0  0  0  0  0  0  0  0  0  0
   16.7505   -6.6137  -16.2543 N   0  0  0  0  0  0  0  0  0  0  0  0
   18.9917   -7.0654  -16.6479 N   0  0  0  0  0  0  0  0  0  0  0  0
   20.1127   -7.9764  -16.7686 C   0  0  0  0  0  0  0  0  0  0  0  0
   21.3660   -7.2523  -17.2230 C   0  0  0  0  0  0  0  0  0  0  0  0
   22.4883   -8.2229  -17.3526 C   0  0  0  0  0  0  0  0  0  0  0  0
   23.7747   -7.5467  -17.7147 C   0  0  2  0  0  0  0  0  0  0  0  0
   24.8685   -8.5333  -17.7385 N   0  0  0  0  0  0  0  0  0  0  0  0
   24.1539   -6.4162  -16.8478 C   0  0  0  0  0  0  0  0  0  0  0  0
   23.8477   -5.2303  -17.0867 O   0  0  0  0  0  0  0  0  0  0  0  0
   24.9016   -6.6171  -15.6716 O   0  0  0  0  0  0  0  0  0  0  0  0
  2  1  1  1
  2  3  1  0
  3  4  1  0
  4  5  2  0
  6  5  1  0
  7  6  1  0
  8  7  2  0
  8  4  1  0
  9  2  1  0
  9 10  2  0
 11  9  1  0
 12 11  1  0
 12 13  1  6
 13 14  1  0
 14 18  1  0
 15 14  2  0
 15 16  1  0
 16 17  1  0
 18 17  2  0
 19 12  1  0
 20 19  2  0
 22 24  1  0
 22 21  1  0
 23 22  2  0
 25 24  1  0
 26 25  1  0
 27 26  1  0
 28 27  1  1
 28 29  1  0
 29 19  1  0
 30 28  1  0
 30 32  1  0
 31 30  2  0
M  END
$$$$
