HHR.pdb
     RDKit          3D

 32 33  0  0  1  0  0  0  0  0999 V2000
   27.3702  -21.3193  -18.2021 N   0  0  0  0  0  0  0  0  0  0  0  0
   27.4199  -20.3012  -17.1809 C   0  0  1  0  0  0  0  0  0  0  0  0
   26.8708  -18.9882  -17.6971 C   0  0  0  0  0  0  0  0  0  0  0  0
   27.8263  -18.3514  -18.6483 C   0  0  0  0  0  0  0  0  0  0  0  0
   28.7526  -17.3675  -18.3851 C   0  0  0  0  0  0  0  0  0  0  0  0
   29.4181  -17.0673  -19.5105 N   0  0  0  0  0  0  0  0  0  0  0  0
   28.9052  -17.8643  -20.4715 C   0  0  0  0  0  0  0  0  0  0  0  0
   27.9387  -18.6446  -19.9497 N   0  0  0  0  0  0  0  0  0  0  0  0
   26.5946  -20.6909  -16.0159 C   0  0  0  0  0  0  0  0  0  0  0  0
   25.4722  -21.2086  -16.2071 O   0  0  0  0  0  0  0  0  0  0  0  0
   27.0861  -20.4727  -14.7070 N   0  0  0  0  0  0  0  0  0  0  0  0
   26.3247  -20.8035  -13.5263 C   0  0  1  0  0  0  0  0  0  0  0  0
   27.1346  -20.7186  -12.2697 C   0  0  0  0  0  0  0  0  0  0  0  0
   26.3089  -20.9450  -11.0472 C   0  0  0  0  0  0  0  0  0  0  0  0
   25.5140  -22.0462  -10.8516 C   0  0  0  0  0  0  0  0  0  0  0  0
   24.9283  -21.9122   -9.6639 N   0  0  0  0  0  0  0  0  0  0  0  0
   25.3367  -20.7595   -9.1172 C   0  0  0  0  0  0  0  0  0  0  0  0
   26.1846  -20.1662   -9.9674 N   0  0  0  0  0  0  0  0  0  0  0  0
   25.1234  -19.9418  -13.4498 C   0  0  0  0  0  0  0  0  0  0  0  0
   25.2376  -18.6832  -13.6465 O   0  0  0  0  0  0  0  0  0  0  0  0
   21.3433  -21.2794  -19.2564 N   0  0  0  0  0  0  0  0  0  0  0  0
   20.2892  -20.6657  -18.5261 C   0  0  0  0  0  0  0  0  0  0  0  0
   19.0504  -20.8314  -18.8612 N   0  0  0  0  0  0  0  0  0  0  0  0
   20.5377  -19.8349  -17.3858 N   0  0  0  0  0  0  0  0  0  0  0  0
   21.8767  -19.5807  -16.8923 C   0  0  0  0  0  0  0  0  0  0  0  0
   22.0732  -20.1616  -15.5046 C   0  0  0  0  0  0  0  0  0  0  0  0
   22.4084  -19.0718  -14.5464 C   0  0  0  0  0  0  0  0  0  0  0  0
   22.6561  -19.5964  -13.1657 C   0  0  2  0  0  0  0  0  0  0  0  0
   23.8484  -20.4619  -13.1663 N   0  0  0  0  0  0  0  0  0  0  0  0
   21.5252  -20.3214  -12.5586 C   0  0  0  0  0  0  0  0  0  0  0  0
   21.5271  -21.5514  -12.3478 O   0  0  0  0  0  0  0  0  0  0  0  0
   20.3498  -19.6489  -12.1725 O   0  0  0  0  0  0  0  0  0  0  0  0
  2  1  1  6
  2  3  1  0
  3  4  1  0
  4  5  2  0
  6  5  1  0
  7  6  1  0
  8  7  2  0
  8  4  1  0
  9  2  1  0
  9 10  2  0
 11  9  1  0
 12 11  1  0
 12 13  1  1
 13 14  1  0
 14 18  1  0
 15 14  2  0
 15 16  1  0
 16 17  1  0
 18 17  2  0
 19 12  1  0
 20 19  2  0
 22 24  1  0
 22 21  1  0
 23 22  2  0
 25 24  1  0
 26 25  1  0
 27 26  1  0
 28 27  1  6
 28 29  1  0
 29 19  1  0
 30 28  1  0
 30 32  1  0
 31 30  2  0
M  END
$$$$
