HHR.pdb
     RDKit          3D

 32 33  0  0  1  0  0  0  0  0999 V2000
   19.8852  -15.5096  -17.7228 N   0  0  0  0  0  0  0  0  0  0  0  0
   19.1503  -14.5309  -16.9586 C   0  0  1  0  0  0  0  0  0  0  0  0
   19.3168  -14.7669  -15.4725 C   0  0  0  0  0  0  0  0  0  0  0  0
   18.6848  -16.0547  -15.0662 C   0  0  0  0  0  0  0  0  0  0  0  0
   19.3066  -17.2501  -14.7836 C   0  0  0  0  0  0  0  0  0  0  0  0
   18.3842  -18.1678  -14.4569 N   0  0  0  0  0  0  0  0  0  0  0  0
   17.1907  -17.5424  -14.5369 C   0  0  0  0  0  0  0  0  0  0  0  0
   17.3714  -16.2595  -14.9065 N   0  0  0  0  0  0  0  0  0  0  0  0
   19.6491  -13.1667  -17.2420 C   0  0  0  0  0  0  0  0  0  0  0  0
   20.8822  -12.9591  -17.2664 O   0  0  0  0  0  0  0  0  0  0  0  0
   18.7263  -12.1208  -17.4803 N   0  0  0  0  0  0  0  0  0  0  0  0
   19.1417  -10.7808  -17.8193 C   0  0  1  0  0  0  0  0  0  0  0  0
   18.6386  -10.3373  -19.1580 C   0  0  0  0  0  0  0  0  0  0  0  0
   19.2079  -11.1482  -20.2742 C   0  0  0  0  0  0  0  0  0  0  0  0
   18.5688  -12.2181  -20.8485 C   0  0  0  0  0  0  0  0  0  0  0  0
   19.3656  -12.6972  -21.8010 N   0  0  0  0  0  0  0  0  0  0  0  0
   20.4807  -11.9555  -21.8340 C   0  0  0  0  0  0  0  0  0  0  0  0
   20.3829  -11.0044  -20.8961 N   0  0  0  0  0  0  0  0  0  0  0  0
   18.7240   -9.8440  -16.7518 C   0  0  0  0  0  0  0  0  0  0  0  0
   17.6665  -10.0906  -16.0759 O   0  0  0  0  0  0  0  0  0  0  0  0
   22.3300   -7.6085   -9.4108 N   0  0  0  0  0  0  0  0  0  0  0  0
   21.2856   -6.6564   -9.5652 C   0  0  0  0  0  0  0  0  0  0  0  0
   20.9670   -5.8434   -8.6103 N   0  0  0  0  0  0  0  0  0  0  0  0
   20.5322   -6.5446  -10.7786 N   0  0  0  0  0  0  0  0  0  0  0  0
   20.7778   -7.4010  -11.9220 C   0  0  0  0  0  0  0  0  0  0  0  0
   19.8126   -7.1014  -13.0535 C   0  0  0  0  0  0  0  0  0  0  0  0
   20.0556   -8.0408  -14.1834 C   0  0  0  0  0  0  0  0  0  0  0  0
   19.0891   -7.8271  -15.3073 C   0  0  2  0  0  0  0  0  0  0  0  0
   19.4549   -8.6815  -16.4505 N   0  0  0  0  0  0  0  0  0  0  0  0
   18.9558   -6.4312  -15.7623 C   0  0  0  0  0  0  0  0  0  0  0  0
   18.3610   -5.5473  -15.1126 O   0  0  0  0  0  0  0  0  0  0  0  0
   19.5069   -6.0067  -16.9866 O   0  0  0  0  0  0  0  0  0  0  0  0
  2  1  1  6
  2  3  1  0
  3  4  1  0
  4  5  2  0
  6  5  1  0
  7  6  1  0
  8  7  2  0
  8  4  1  0
  9  2  1  0
  9 10  2  0
 11  9  1  0
 12 11  1  0
 12 13  1  6
 13 14  1  0
 14 18  1  0
 15 14  2  0
 15 16  1  0
 16 17  1  0
 18 17  2  0
 19 12  1  0
 20 19  2  0
 22 24  1  0
 22 21  1  0
 23 22  2  0
 25 24  1  0
 26 25  1  0
 27 26  1  0
 28 27  1  1
 28 29  1  0
 29 19  1  0
 30 28  1  0
 30 32  1  0
 31 30  2  0
M  END
$$$$
