HHR.pdb
     RDKit          3D

 32 33  0  0  1  0  0  0  0  0999 V2000
   27.3662  -10.8677  -16.6776 N   0  0  0  0  0  0  0  0  0  0  0  0
   26.5848  -10.1136  -17.6277 C   0  0  1  0  0  0  0  0  0  0  0  0
   25.3326  -10.8684  -18.0203 C   0  0  0  0  0  0  0  0  0  0  0  0
   25.6770  -12.1391  -18.7200 C   0  0  0  0  0  0  0  0  0  0  0  0
   25.6873  -13.4144  -18.2014 C   0  0  0  0  0  0  0  0  0  0  0  0
   26.0535  -14.2825  -19.1563 N   0  0  0  0  0  0  0  0  0  0  0  0
   26.2704  -13.5465  -20.2668 C   0  0  0  0  0  0  0  0  0  0  0  0
   26.0422  -12.2450  -20.0036 N   0  0  0  0  0  0  0  0  0  0  0  0
   26.1517   -8.8259  -17.0408 C   0  0  0  0  0  0  0  0  0  0  0  0
   25.9058   -8.7638  -15.8161 O   0  0  0  0  0  0  0  0  0  0  0  0
   26.0227   -7.6876  -17.8715 N   0  0  0  0  0  0  0  0  0  0  0  0
   25.6003   -6.4026  -17.3681 C   0  0  1  0  0  0  0  0  0  0  0  0
   26.1352   -5.2586  -18.1726 C   0  0  0  0  0  0  0  0  0  0  0  0
   25.6956   -3.9361  -17.6388 C   0  0  0  0  0  0  0  0  0  0  0  0
   24.6546   -3.2075  -18.1567 C   0  0  0  0  0  0  0  0  0  0  0  0
   24.5505   -2.0910  -17.4394 N   0  0  0  0  0  0  0  0  0  0  0  0
   25.4970   -2.1060  -16.4916 C   0  0  0  0  0  0  0  0  0  0  0  0
   26.1998   -3.2394  -16.6148 N   0  0  0  0  0  0  0  0  0  0  0  0
   24.1227   -6.3589  -17.2896 C   0  0  0  0  0  0  0  0  0  0  0  0
   23.4289   -6.6053  -18.3354 O   0  0  0  0  0  0  0  0  0  0  0  0
   19.4730  -11.7997  -14.7758 N   0  0  0  0  0  0  0  0  0  0  0  0
   18.9831  -10.6123  -15.3848 C   0  0  0  0  0  0  0  0  0  0  0  0
   17.7214  -10.4444  -15.6176 N   0  0  0  0  0  0  0  0  0  0  0  0
   19.8530   -9.5421  -15.7725 N   0  0  0  0  0  0  0  0  0  0  0  0
   21.2911   -9.6171  -15.6070 C   0  0  0  0  0  0  0  0  0  0  0  0
   21.9746   -8.3756  -16.1484 C   0  0  0  0  0  0  0  0  0  0  0  0
   21.3500   -7.1597  -15.5571 C   0  0  0  0  0  0  0  0  0  0  0  0
   21.9821   -5.9011  -16.0665 C   0  0  2  0  0  0  0  0  0  0  0  0
   23.4471   -6.0535  -16.0950 N   0  0  0  0  0  0  0  0  0  0  0  0
   21.6316   -4.6780  -15.3218 C   0  0  0  0  0  0  0  0  0  0  0  0
   22.3867   -4.1368  -14.4887 O   0  0  0  0  0  0  0  0  0  0  0  0
   20.3933   -4.0357  -15.5146 O   0  0  0  0  0  0  0  0  0  0  0  0
  2  1  1  1
  2  3  1  0
  3  4  1  0
  4  5  2  0
  6  5  1  0
  7  6  1  0
  8  7  2  0
  8  4  1  0
  9  2  1  0
  9 10  2  0
 11  9  1  0
 12 11  1  0
 12 13  1  6
 13 14  1  0
 14 18  1  0
 15 14  2  0
 15 16  1  0
 16 17  1  0
 18 17  2  0
 19 12  1  0
 20 19  2  0
 22 24  1  0
 22 21  1  0
 23 22  2  0
 25 24  1  0
 26 25  1  0
 27 26  1  0
 28 27  1  1
 28 29  1  0
 29 19  1  0
 30 28  1  0
 30 32  1  0
 31 30  2  0
M  END
$$$$
