EAP.pdb
     RDKit          3D

 22 22  0  0  1  0  0  0  0  0999 V2000
   16.3252  -10.8354  -14.9020 N   0  0  0  0  0  0  0  0  0  0  0  0
   17.7054  -11.2446  -14.9171 C   0  0  1  0  0  0  0  0  0  0  0  0
   17.8380  -12.3803  -15.8757 C   0  0  0  0  0  0  0  0  0  0  0  0
   17.1394  -13.5933  -15.3188 C   0  0  0  0  0  0  0  0  0  0  0  0
   17.1708  -14.6651  -16.3300 C   0  0  0  0  0  0  0  0  0  0  0  0
   17.7944  -15.7330  -16.0942 O   0  0  0  0  0  0  0  0  0  0  0  0
   18.5594  -10.0987  -15.2958 C   0  0  0  0  0  0  0  0  0  0  0  0
   19.8060  -10.1800  -15.4206 O   0  0  0  0  0  0  0  0  0  0  0  0
   16.5245  -14.5403  -17.5615 O   0  0  0  0  0  0  0  0  0  0  0  0
   17.8533   -6.5847  -16.3742 C   0  0  0  0  0  0  0  0  0  0  0  0
   18.7505   -7.7017  -15.9398 C   0  0  2  0  0  0  0  0  0  0  0  0
   17.9629   -8.8394  -15.5339 N   0  0  0  0  0  0  0  0  0  0  0  0
   19.7142   -7.2977  -14.8843 C   0  0  0  0  0  0  0  0  0  0  0  0
   19.4297   -7.5966  -13.7003 O   0  0  0  0  0  0  0  0  0  0  0  0
   20.9119   -6.6056  -15.1548 N   0  0  0  0  0  0  0  0  0  0  0  0
   21.4347   -6.2861  -16.4514 C   0  0  0  0  0  0  0  0  0  0  0  0
   22.8822   -5.8895  -16.2584 C   0  0  0  0  0  0  0  0  0  0  0  0
   23.1790   -6.3484  -14.8411 C   0  0  0  0  0  0  0  0  0  0  0  0
   21.8293   -6.0931  -14.1744 C   0  0  1  0  0  0  0  0  0  0  0  0
   21.6203   -4.6493  -13.9001 C   0  0  0  0  0  0  0  0  0  0  0  0
   22.1730   -4.0336  -12.9562 O   0  0  0  0  0  0  0  0  0  0  0  0
   20.7723   -3.9115  -14.7148 O   0  0  0  0  0  0  0  0  0  0  0  0
  2  1  1  6
  2  7  1  0
  3  2  1  0
  4  3  1  0
  5  4  1  0
  6  5  2  0
  7 12  1  0
  8  7  2  0
  9  5  1  0
 11 10  1  1
 11 13  1  0
 12 11  1  0
 13 14  2  0
 13 15  1  0
 15 16  1  0
 16 17  1  0
 18 17  1  0
 19 15  1  0
 19 18  1  0
 19 20  1  6
 21 20  2  0
 22 20  1  0
M  END
$$$$
