EAP.pdb
     RDKit          3D

 22 22  0  0  1  0  0  0  0  0999 V2000
   25.1227  -20.3786  -12.3882 N   0  0  0  0  0  0  0  0  0  0  0  0
   25.8773  -21.1958  -11.4743 C   0  0  1  0  0  0  0  0  0  0  0  0
   27.1418  -21.6001  -12.1554 C   0  0  0  0  0  0  0  0  0  0  0  0
   27.6569  -20.4519  -12.9836 C   0  0  0  0  0  0  0  0  0  0  0  0
   27.5080  -20.7913  -14.4101 C   0  0  0  0  0  0  0  0  0  0  0  0
   26.8269  -21.7941  -14.7494 O   0  0  0  0  0  0  0  0  0  0  0  0
   26.1365  -20.4406  -10.2300 C   0  0  0  0  0  0  0  0  0  0  0  0
   26.7052  -19.3216  -10.2089 O   0  0  0  0  0  0  0  0  0  0  0  0
   28.1037  -20.0303  -15.4182 O   0  0  0  0  0  0  0  0  0  0  0  0
   24.8356  -20.5760   -6.7935 C   0  0  0  0  0  0  0  0  0  0  0  0
   25.9457  -20.2794   -7.7533 C   0  0  2  0  0  0  0  0  0  0  0  0
   25.7320  -20.9878   -8.9909 N   0  0  0  0  0  0  0  0  0  0  0  0
   27.2921  -20.5548   -7.1896 C   0  0  0  0  0  0  0  0  0  0  0  0
   27.8993  -21.5650   -7.6171 O   0  0  0  0  0  0  0  0  0  0  0  0
   27.9023  -19.7421   -6.2129 N   0  0  0  0  0  0  0  0  0  0  0  0
   27.4064  -18.4911   -5.7174 C   0  0  0  0  0  0  0  0  0  0  0  0
   28.5495  -17.8216   -4.9861 C   0  0  0  0  0  0  0  0  0  0  0  0
   29.7584  -18.6325   -5.4204 C   0  0  0  0  0  0  0  0  0  0  0  0
   29.1378  -20.0229   -5.5347 C   0  0  1  0  0  0  0  0  0  0  0  0
   28.9269  -20.6380   -4.2002 C   0  0  0  0  0  0  0  0  0  0  0  0
   27.8013  -20.7498   -3.6561 O   0  0  0  0  0  0  0  0  0  0  0  0
   30.0149  -21.1260   -3.4896 O   0  0  0  0  0  0  0  0  0  0  0  0
  2  1  1  6
  2  7  1  0
  3  2  1  0
  4  3  1  0
  5  4  1  0
  6  5  2  0
  7 12  1  0
  8  7  2  0
  9  5  1  0
 11 10  1  1
 11 13  1  0
 12 11  1  0
 13 14  2  0
 13 15  1  0
 15 16  1  0
 16 17  1  0
 18 17  1  0
 19 15  1  0
 19 18  1  0
 19 20  1  1
 21 20  2  0
 22 20  1  0
M  END
$$$$
