EAP.pdb
     RDKit          3D

 22 22  0  0  1  0  0  0  0  0999 V2000
   29.3527  -23.3886  -17.3452 N   0  0  0  0  0  0  0  0  0  0  0  0
   28.6834  -22.1168  -17.4294 C   0  0  1  0  0  0  0  0  0  0  0  0
   27.5006  -22.2779  -18.3246 C   0  0  0  0  0  0  0  0  0  0  0  0
   27.9667  -22.5785  -19.7254 C   0  0  0  0  0  0  0  0  0  0  0  0
   27.5164  -23.9323  -20.0952 C   0  0  0  0  0  0  0  0  0  0  0  0
   26.9476  -24.6605  -19.2402 O   0  0  0  0  0  0  0  0  0  0  0  0
   28.2949  -21.6690  -16.0751 C   0  0  0  0  0  0  0  0  0  0  0  0
   28.3511  -22.4085  -15.0621 O   0  0  0  0  0  0  0  0  0  0  0  0
   27.6991  -24.4481  -21.3799 O   0  0  0  0  0  0  0  0  0  0  0  0
   27.2480  -18.3787  -14.6281 C   0  0  0  0  0  0  0  0  0  0  0  0
   27.4513  -19.8614  -14.5859 C   0  0  2  0  0  0  0  0  0  0  0  0
   27.8341  -20.3454  -15.8891 N   0  0  0  0  0  0  0  0  0  0  0  0
   26.2753  -20.5954  -14.0524 C   0  0  0  0  0  0  0  0  0  0  0  0
   25.6004  -21.2699  -14.8657 O   0  0  0  0  0  0  0  0  0  0  0  0
   25.8953  -20.5646  -12.6954 N   0  0  0  0  0  0  0  0  0  0  0  0
   26.4692  -19.7421  -11.6704 C   0  0  0  0  0  0  0  0  0  0  0  0
   26.0158  -20.3100  -10.3431 C   0  0  0  0  0  0  0  0  0  0  0  0
   25.4577  -21.6708  -10.7232 C   0  0  0  0  0  0  0  0  0  0  0  0
   24.8587  -21.3565  -12.0921 C   0  0  1  0  0  0  0  0  0  0  0  0
   23.5768  -20.6180  -11.9706 C   0  0  0  0  0  0  0  0  0  0  0  0
   23.4750  -19.3745  -12.1079 O   0  0  0  0  0  0  0  0  0  0  0  0
   22.4082  -21.3128  -11.6901 O   0  0  0  0  0  0  0  0  0  0  0  0
  2  1  1  1
  2  7  1  0
  3  2  1  0
  4  3  1  0
  5  4  1  0
  6  5  2  0
  7 12  1  0
  8  7  2  0
  9  5  1  0
 11 10  1  6
 11 13  1  0
 12 11  1  0
 13 14  2  0
 13 15  1  0
 15 16  1  0
 16 17  1  0
 18 17  1  0
 19 15  1  0
 19 18  1  0
 19 20  1  1
 21 20  2  0
 22 20  1  0
M  END
$$$$
