EAP.pdb
     RDKit          3D

 22 22  0  0  1  0  0  0  0  0999 V2000
   18.5339  -15.5443  -16.2959 N   0  0  0  0  0  0  0  0  0  0  0  0
   17.2245  -15.0306  -15.9888 C   0  0  1  0  0  0  0  0  0  0  0  0
   16.6285  -15.8947  -14.9285 C   0  0  0  0  0  0  0  0  0  0  0  0
   17.6586  -16.1680  -13.8637 C   0  0  0  0  0  0  0  0  0  0  0  0
   17.0663  -17.0555  -12.8469 C   0  0  0  0  0  0  0  0  0  0  0  0
   17.7111  -17.3311  -11.8014 O   0  0  0  0  0  0  0  0  0  0  0  0
   17.3323  -13.6207  -15.5574 C   0  0  0  0  0  0  0  0  0  0  0  0
   18.3876  -13.1194  -15.0977 O   0  0  0  0  0  0  0  0  0  0  0  0
   15.7950  -17.6125  -13.0005 O   0  0  0  0  0  0  0  0  0  0  0  0
   14.9508  -10.7227  -15.5387 C   0  0  0  0  0  0  0  0  0  0  0  0
   16.2766  -11.3798  -15.3107 C   0  0  2  0  0  0  0  0  0  0  0  0
   16.2024  -12.7771  -15.6589 N   0  0  0  0  0  0  0  0  0  0  0  0
   16.7934  -11.1854  -13.9318 C   0  0  0  0  0  0  0  0  0  0  0  0
   16.8491  -12.1949  -13.1904 O   0  0  0  0  0  0  0  0  0  0  0  0
   17.2154   -9.9363  -13.4333 N   0  0  0  0  0  0  0  0  0  0  0  0
   17.1474   -8.6797  -14.1210 C   0  0  0  0  0  0  0  0  0  0  0  0
   18.0368   -7.7151  -13.3672 C   0  0  0  0  0  0  0  0  0  0  0  0
   18.8366   -8.6270  -12.4526 C   0  0  0  0  0  0  0  0  0  0  0  0
   17.7929   -9.6965  -12.1393 C   0  0  1  0  0  0  0  0  0  0  0  0
   16.7952   -9.2132  -11.1522 C   0  0  0  0  0  0  0  0  0  0  0  0
   15.6609   -8.7771  -11.4663 O   0  0  0  0  0  0  0  0  0  0  0  0
   17.1040   -9.2317   -9.7989 O   0  0  0  0  0  0  0  0  0  0  0  0
  2  1  1  1
  2  7  1  0
  3  2  1  0
  4  3  1  0
  5  4  1  0
  6  5  2  0
  7 12  1  0
  8  7  2  0
  9  5  1  0
 11 10  1  1
 11 13  1  0
 12 11  1  0
 13 14  2  0
 13 15  1  0
 15 16  1  0
 16 17  1  0
 18 17  1  0
 19 15  1  0
 19 18  1  0
 19 20  1  1
 21 20  2  0
 22 20  1  0
M  END
$$$$
