EAP.pdb
     RDKit          3D

 22 22  0  0  1  0  0  0  0  0999 V2000
   20.5750  -21.9943  -15.0063 N   0  0  0  0  0  0  0  0  0  0  0  0
   20.8313  -20.6965  -15.5742 C   0  0  1  0  0  0  0  0  0  0  0  0
   19.7131  -19.7918  -15.1774 C   0  0  0  0  0  0  0  0  0  0  0  0
   18.3998  -20.5101  -15.3476 C   0  0  0  0  0  0  0  0  0  0  0  0
   17.5905  -20.3140  -14.1316 C   0  0  0  0  0  0  0  0  0  0  0  0
   16.8384  -21.2367  -13.7220 O   0  0  0  0  0  0  0  0  0  0  0  0
   22.1405  -20.1972  -15.1024 C   0  0  0  0  0  0  0  0  0  0  0  0
   22.5841  -19.0563  -15.3813 O   0  0  0  0  0  0  0  0  0  0  0  0
   17.6258  -19.1233  -13.4028 O   0  0  0  0  0  0  0  0  0  0  0  0
   24.7332  -21.4319  -12.7279 C   0  0  0  0  0  0  0  0  0  0  0  0
   24.2833  -20.6370  -13.9141 C   0  0  2  0  0  0  0  0  0  0  0  0
   22.9494  -21.0300  -14.2958 N   0  0  0  0  0  0  0  0  0  0  0  0
   25.2262  -20.7150  -15.0591 C   0  0  0  0  0  0  0  0  0  0  0  0
   24.9429  -21.5119  -15.9847 O   0  0  0  0  0  0  0  0  0  0  0  0
   26.4034  -19.9445  -15.1451 N   0  0  0  0  0  0  0  0  0  0  0  0
   26.9049  -19.0445  -14.1476 C   0  0  0  0  0  0  0  0  0  0  0  0
   27.9543  -18.1840  -14.8168 C   0  0  0  0  0  0  0  0  0  0  0  0
   27.7285  -18.4524  -16.2949 C   0  0  0  0  0  0  0  0  0  0  0  0
   27.3172  -19.9223  -16.2540 C   0  0  1  0  0  0  0  0  0  0  0  0
   28.4876  -20.8110  -16.0442 C   0  0  0  0  0  0  0  0  0  0  0  0
   28.7227  -21.4083  -14.9656 O   0  0  0  0  0  0  0  0  0  0  0  0
   29.3903  -21.0131  -17.0793 O   0  0  0  0  0  0  0  0  0  0  0  0
  2  1  1  1
  2  7  1  0
  3  2  1  0
  4  3  1  0
  5  4  1  0
  6  5  2  0
  7 12  1  0
  8  7  2  0
  9  5  1  0
 11 10  1  1
 11 13  1  0
 12 11  1  0
 13 14  2  0
 13 15  1  0
 15 16  1  0
 16 17  1  0
 18 17  1  0
 19 15  1  0
 19 18  1  0
 19 20  1  1
 21 20  2  0
 22 20  1  0
M  END
$$$$
