EAP.pdb
     RDKit          3D

 22 22  0  0  1  0  0  0  0  0999 V2000
   17.1408  -12.2049  -17.7277 N   0  0  0  0  0  0  0  0  0  0  0  0
   18.0672  -11.3559  -18.4302 C   0  0  1  0  0  0  0  0  0  0  0  0
   17.2971  -10.2198  -19.0155 C   0  0  0  0  0  0  0  0  0  0  0  0
   16.3498   -9.6683  -17.9819 C   0  0  0  0  0  0  0  0  0  0  0  0
   16.6418   -8.2370  -17.7862 C   0  0  0  0  0  0  0  0  0  0  0  0
   16.8929   -7.5056  -18.7796 O   0  0  0  0  0  0  0  0  0  0  0  0
   19.1183  -10.8906  -17.5005 C   0  0  0  0  0  0  0  0  0  0  0  0
   18.9167  -10.6884  -16.2779 O   0  0  0  0  0  0  0  0  0  0  0  0
   16.6509   -7.6498  -16.5193 O   0  0  0  0  0  0  0  0  0  0  0  0
   22.7914  -10.2391  -17.8567 C   0  0  0  0  0  0  0  0  0  0  0  0
   21.4906  -10.2417  -17.1156 C   0  0  2  0  0  0  0  0  0  0  0  0
   20.4229  -10.6555  -17.9919 N   0  0  0  0  0  0  0  0  0  0  0  0
   21.1903   -8.9422  -16.4617 C   0  0  0  0  0  0  0  0  0  0  0  0
   20.3722   -8.1848  -17.0354 O   0  0  0  0  0  0  0  0  0  0  0  0
   21.7764   -8.5346  -15.2464 N   0  0  0  0  0  0  0  0  0  0  0  0
   22.7213   -9.2798  -14.4663 C   0  0  0  0  0  0  0  0  0  0  0  0
   22.7745   -8.6318  -13.1000 C   0  0  0  0  0  0  0  0  0  0  0  0
   21.5575   -7.7226  -13.1023 C   0  0  0  0  0  0  0  0  0  0  0  0
   21.5309   -7.2922  -14.5670 C   0  0  1  0  0  0  0  0  0  0  0  0
   22.5697   -6.2717  -14.8551 C   0  0  0  0  0  0  0  0  0  0  0  0
   22.4871   -5.0733  -14.4910 O   0  0  0  0  0  0  0  0  0  0  0  0
   23.7074   -6.6316  -15.5645 O   0  0  0  0  0  0  0  0  0  0  0  0
  2  1  1  1
  2  7  1  0
  3  2  1  0
  4  3  1  0
  5  4  1  0
  6  5  2  0
  7 12  1  0
  8  7  2  0
  9  5  1  0
 11 10  1  6
 11 13  1  0
 12 11  1  0
 13 14  2  0
 13 15  1  0
 15 16  1  0
 16 17  1  0
 18 17  1  0
 19 15  1  0
 19 18  1  0
 19 20  1  1
 21 20  2  0
 22 20  1  0
M  END
$$$$
