EAP.pdb
     RDKit          3D

 22 22  0  0  1  0  0  0  0  0999 V2000
   18.0820  -11.6694  -16.8814 N   0  0  0  0  0  0  0  0  0  0  0  0
   17.4917  -10.7162  -15.9783 C   0  0  1  0  0  0  0  0  0  0  0  0
   16.7351  -11.4743  -14.9394 C   0  0  0  0  0  0  0  0  0  0  0  0
   15.5611  -12.1692  -15.5784 C   0  0  0  0  0  0  0  0  0  0  0  0
   15.7267  -13.6250  -15.4186 C   0  0  0  0  0  0  0  0  0  0  0  0
   15.9844  -14.1071  -14.2846 O   0  0  0  0  0  0  0  0  0  0  0  0
   18.5503   -9.8716  -15.3853 C   0  0  0  0  0  0  0  0  0  0  0  0
   18.3313   -9.0201  -14.4891 O   0  0  0  0  0  0  0  0  0  0  0  0
   15.6068  -14.5064  -16.4951 O   0  0  0  0  0  0  0  0  0  0  0  0
   22.2777   -9.7928  -15.7031 C   0  0  0  0  0  0  0  0  0  0  0  0
   20.9576   -9.2531  -15.2476 C   0  0  2  0  0  0  0  0  0  0  0  0
   19.8829  -10.0137  -15.8355 N   0  0  0  0  0  0  0  0  0  0  0  0
   20.8035   -7.7982  -15.5040 C   0  0  0  0  0  0  0  0  0  0  0  0
   20.1188   -7.4584  -16.4978 O   0  0  0  0  0  0  0  0  0  0  0  0
   21.3846   -6.8041  -14.6911 N   0  0  0  0  0  0  0  0  0  0  0  0
   22.1621   -7.0225  -13.5060 C   0  0  0  0  0  0  0  0  0  0  0  0
   22.2473   -5.6959  -12.7831 C   0  0  0  0  0  0  0  0  0  0  0  0
   21.1880   -4.8568  -13.4771 C   0  0  0  0  0  0  0  0  0  0  0  0
   21.3017   -5.3854  -14.9051 C   0  0  1  0  0  0  0  0  0  0  0  0
   22.4996   -4.8433  -15.5941 C   0  0  0  0  0  0  0  0  0  0  0  0
   23.5924   -5.4556  -15.6741 O   0  0  0  0  0  0  0  0  0  0  0  0
   22.4396   -3.5925  -16.1932 O   0  0  0  0  0  0  0  0  0  0  0  0
  2  1  1  6
  2  7  1  0
  3  2  1  0
  4  3  1  0
  5  4  1  0
  6  5  2  0
  7 12  1  0
  8  7  2  0
  9  5  1  0
 11 10  1  6
 11 13  1  0
 12 11  1  0
 13 14  2  0
 13 15  1  0
 15 16  1  0
 16 17  1  0
 18 17  1  0
 19 15  1  0
 19 18  1  0
 19 20  1  1
 21 20  2  0
 22 20  1  0
M  END
$$$$
