RMC.pdb
     RDKit          3D

 26 25  0  0  1  0  0  0  0  0999 V2000
   26.2410  -24.4603  -16.5641 N   0  0  0  0  0  0  0  0  0  0  0  0
   24.8944  -24.3599  -16.0970 C   0  0  0  0  0  0  0  0  0  0  0  0
   24.2516  -25.4333  -15.7544 N   0  0  0  0  0  0  0  0  0  0  0  0
   24.2240  -23.1140  -15.9930 N   0  0  0  0  0  0  0  0  0  0  0  0
   24.9275  -21.8675  -16.0987 C   0  0  0  0  0  0  0  0  0  0  0  0
   25.9087  -21.5811  -15.0191 C   0  0  0  0  0  0  0  0  0  0  0  0
   25.2346  -21.2344  -13.7334 C   0  0  0  0  0  0  0  0  0  0  0  0
   26.3688  -20.9262  -12.7376 C   0  0  2  0  0  0  0  0  0  0  0  0
   27.5258  -21.6632  -13.1899 N   0  0  0  0  0  0  0  0  0  0  0  0
   25.9139  -21.3432  -11.4058 C   0  0  0  0  0  0  0  0  0  0  0  0
   25.7573  -22.5971  -11.2106 O   0  0  0  0  0  0  0  0  0  0  0  0
   23.2827  -25.4342  -15.4282 C   0  0  0  0  0  0  0  0  0  0  0  0
   26.7064  -17.6144   -6.5540 S   0  0  0  0  0  0  0  0  0  0  0  0
   27.4799  -19.2121   -6.2231 C   0  0  0  0  0  0  0  0  0  0  0  0
   27.1108  -20.2864   -7.6791 C   0  0  0  0  0  0  0  0  0  0  0  0
   25.6772  -20.0942   -7.9814 C   0  0  2  0  0  0  0  0  0  0  0  0
   25.1370  -21.0113   -9.0378 N   0  0  0  0  0  0  0  0  0  0  0  0
   25.6374  -20.4760  -10.3306 C   0  0  0  0  0  0  0  0  0  0  0  0
   23.6766  -21.0155   -9.0571 O   0  0  0  0  0  0  0  0  0  0  0  0
   23.0049  -20.2037   -9.7976 N   0  0  0  0  0  0  0  0  0  0  0  0
   22.8796  -21.8996   -8.2822 C   0  0  1  0  0  0  0  0  0  0  0  0
   21.4102  -21.9007   -8.4194 C   0  0  0  0  0  0  0  0  0  0  0  0
   20.9080  -23.0273   -7.5047 S   0  0  0  0  0  0  0  0  0  0  0  0
   19.1007  -23.1329   -7.5763 C   0  0  0  0  0  0  0  0  0  0  0  0
   20.8030  -20.6604   -7.8886 O   0  0  0  0  0  0  0  0  0  0  0  0
   19.6203  -20.1760   -8.3926 O   0  0  0  0  0  0  0  0  0  0  0  0
  2  1  1  0
  3  2  2  0
  4  2  1  0
  5  4  1  0
  6  5  1  0
  6  7  1  0
  7  8  1  0
  8  9  1  6
 10 17  1  0
 10  8  1  0
 11 10  2  0
 12 13  1  0
 13 14  1  0
 16 15  1  1
 15 14  1  0
 16 17  1  0
 18 20  1  0
 18 16  1  0
 19 18  2  0
 21 20  1  0
 21 22  1  1
 22 23  1  0
 24 21  1  0
 25 24  1  0
 26 24  2  0
M  END
$$$$
