RMC.pdb
     RDKit          3D

 26 25  0  0  1  0  0  0  0  0999 V2000
   23.7417  -10.6076  -14.0807 N   0  0  0  0  0  0  0  0  0  0  0  0
   23.4098  -10.5303  -15.4684 C   0  0  0  0  0  0  0  0  0  0  0  0
   23.9612  -11.3516  -16.3074 N   0  0  0  0  0  0  0  0  0  0  0  0
   22.4882   -9.5758  -15.9705 N   0  0  0  0  0  0  0  0  0  0  0  0
   21.5220   -8.9401  -15.1207 C   0  0  0  0  0  0  0  0  0  0  0  0
   20.2158   -9.6373  -14.9862 C   0  0  0  0  0  0  0  0  0  0  0  0
   19.3048   -8.9320  -14.0372 C   0  0  0  0  0  0  0  0  0  0  0  0
   18.1089   -9.8795  -13.8251 C   0  0  2  0  0  0  0  0  0  0  0  0
   17.6566  -10.2727  -15.1393 N   0  0  0  0  0  0  0  0  0  0  0  0
   17.0889   -9.1423  -13.0696 C   0  0  0  0  0  0  0  0  0  0  0  0
   16.2548   -8.4465  -13.7442 O   0  0  0  0  0  0  0  0  0  0  0  0
   23.7577  -11.3603  -17.3092 C   0  0  0  0  0  0  0  0  0  0  0  0
   13.9175  -12.5141   -9.8716 S   0  0  0  0  0  0  0  0  0  0  0  0
   12.9800  -10.9728   -9.7930 C   0  0  0  0  0  0  0  0  0  0  0  0
   13.8189   -9.7884  -10.9347 C   0  0  0  0  0  0  0  0  0  0  0  0
   15.0568   -9.3610  -10.2498 C   0  0  2  0  0  0  0  0  0  0  0  0
   15.8742   -8.3609  -11.0117 N   0  0  0  0  0  0  0  0  0  0  0  0
   16.9564   -9.1404  -11.6671 C   0  0  0  0  0  0  0  0  0  0  0  0
   16.4731   -7.3642  -10.1279 O   0  0  0  0  0  0  0  0  0  0  0  0
   17.4353   -7.6597   -9.3244 N   0  0  0  0  0  0  0  0  0  0  0  0
   16.0626   -6.0054  -10.0778 C   0  0  1  0  0  0  0  0  0  0  0  0
   16.5433   -5.1155   -9.0032 C   0  0  0  0  0  0  0  0  0  0  0  0
   17.0994   -3.8714   -9.7112 S   0  0  0  0  0  0  0  0  0  0  0  0
   17.6072   -2.6316   -8.4914 C   0  0  0  0  0  0  0  0  0  0  0  0
   15.4363   -4.6248   -8.1531 O   0  0  0  0  0  0  0  0  0  0  0  0
   15.6354   -4.3328   -6.8255 O   0  0  0  0  0  0  0  0  0  0  0  0
  2  1  1  0
  3  2  2  0
  4  2  1  0
  5  4  1  0
  6  5  1  0
  6  7  1  0
  7  8  1  0
  8  9  1  6
 10 17  1  0
 10  8  1  0
 11 10  2  0
 12 13  1  0
 13 14  1  0
 16 15  1  6
 15 14  1  0
 16 17  1  0
 18 20  1  0
 18 16  1  0
 19 18  2  0
 21 20  1  0
 21 22  1  1
 22 23  1  0
 24 21  1  0
 25 24  1  0
 26 24  2  0
M  END
$$$$
