RMC.pdb
     RDKit          3D

 26 25  0  0  1  0  0  0  0  0999 V2000
   21.6736  -17.1176  -15.7352 N   0  0  0  0  0  0  0  0  0  0  0  0
   22.5671  -16.6373  -16.7416 C   0  0  0  0  0  0  0  0  0  0  0  0
   22.3370  -15.4958  -17.3131 N   0  0  0  0  0  0  0  0  0  0  0  0
   23.7115  -17.3718  -17.1457 N   0  0  0  0  0  0  0  0  0  0  0  0
   24.0624  -18.6204  -16.5312 C   0  0  0  0  0  0  0  0  0  0  0  0
   25.2906  -19.2781  -17.0504 C   0  0  0  0  0  0  0  0  0  0  0  0
   25.4725  -20.6451  -16.4794 C   0  0  0  0  0  0  0  0  0  0  0  0
   26.2228  -20.4450  -15.1490 C   0  0  2  0  0  0  0  0  0  0  0  0
   27.5151  -21.0707  -15.3068 N   0  0  0  0  0  0  0  0  0  0  0  0
   25.4172  -21.0634  -14.0893 C   0  0  0  0  0  0  0  0  0  0  0  0
   25.2467  -22.3291  -14.1515 O   0  0  0  0  0  0  0  0  0  0  0  0
   22.9537  -15.0777  -18.0131 C   0  0  0  0  0  0  0  0  0  0  0  0
   26.0727  -18.6387   -8.8413 S   0  0  0  0  0  0  0  0  0  0  0  0
   26.1531  -20.4153   -8.5290 C   0  0  0  0  0  0  0  0  0  0  0  0
   25.7584  -21.2487  -10.1289 C   0  0  0  0  0  0  0  0  0  0  0  0
   24.5522  -20.5782  -10.6575 C   0  0  2  0  0  0  0  0  0  0  0  0
   24.0664  -21.1180  -11.9695 N   0  0  0  0  0  0  0  0  0  0  0  0
   24.8197  -20.3767  -13.0142 C   0  0  0  0  0  0  0  0  0  0  0  0
   22.6369  -20.8838  -12.1562 O   0  0  0  0  0  0  0  0  0  0  0  0
   22.1571  -19.6983  -12.3082 N   0  0  0  0  0  0  0  0  0  0  0  0
   21.6655  -21.9194  -12.1921 C   0  0  1  0  0  0  0  0  0  0  0  0
   20.2517  -21.6121  -12.4829 C   0  0  0  0  0  0  0  0  0  0  0  0
   19.7489  -22.7638  -13.3655 S   0  0  0  0  0  0  0  0  0  0  0  0
   20.2742  -24.3553  -12.6771 C   0  0  0  0  0  0  0  0  0  0  0  0
   19.4136  -21.6532  -11.2644 O   0  0  0  0  0  0  0  0  0  0  0  0
   18.0947  -21.2700  -11.2957 O   0  0  0  0  0  0  0  0  0  0  0  0
  2  1  1  0
  3  2  2  0
  4  2  1  0
  5  4  1  0
  6  5  1  0
  6  7  1  0
  7  8  1  0
  8  9  1  6
 10 17  1  0
 10  8  1  0
 11 10  2  0
 12 13  1  0
 13 14  1  0
 16 15  1  1
 15 14  1  0
 16 17  1  0
 18 20  1  0
 18 16  1  0
 19 18  2  0
 21 20  1  0
 21 22  1  1
 22 23  1  0
 24 21  1  0
 25 24  1  0
 26 24  2  0
M  END
$$$$
