RMC.pdb
     RDKit          3D

 26 25  0  0  1  0  0  0  0  0999 V2000
   18.6237  -14.8607  -16.7517 N   0  0  0  0  0  0  0  0  0  0  0  0
   17.2721  -15.2513  -16.5016 C   0  0  0  0  0  0  0  0  0  0  0  0
   16.6687  -16.0447  -17.3318 N   0  0  0  0  0  0  0  0  0  0  0  0
   16.5549  -14.7976  -15.3649 N   0  0  0  0  0  0  0  0  0  0  0  0
   16.0633  -13.4525  -15.2703 C   0  0  0  0  0  0  0  0  0  0  0  0
   17.0018  -12.4566  -14.6891 C   0  0  0  0  0  0  0  0  0  0  0  0
   16.3977  -11.0931  -14.6290 C   0  0  0  0  0  0  0  0  0  0  0  0
   15.7902  -10.9678  -13.2190 C   0  0  2  0  0  0  0  0  0  0  0  0
   14.4021  -11.3506  -13.3330 N   0  0  0  0  0  0  0  0  0  0  0  0
   15.9625   -9.5763  -12.7850 C   0  0  0  0  0  0  0  0  0  0  0  0
   15.2034   -8.7002  -13.3245 O   0  0  0  0  0  0  0  0  0  0  0  0
   15.7426  -16.4436  -17.1633 C   0  0  0  0  0  0  0  0  0  0  0  0
   15.9404   -4.4799   -7.2799 S   0  0  0  0  0  0  0  0  0  0  0  0
   15.8067   -6.1571   -7.9351 C   0  0  0  0  0  0  0  0  0  0  0  0
   16.6327   -6.1438   -9.5866 C   0  0  0  0  0  0  0  0  0  0  0  0
   16.4693   -7.5038  -10.1412 C   0  0  1  0  0  0  0  0  0  0  0  0
   17.0298   -7.6833  -11.5205 N   0  0  0  0  0  0  0  0  0  0  0  0
   16.8934   -9.1312  -11.8258 C   0  0  0  0  0  0  0  0  0  0  0  0
   18.4413   -7.3137  -11.5845 O   0  0  0  0  0  0  0  0  0  0  0  0
   19.2626   -7.6028  -10.6355 N   0  0  0  0  0  0  0  0  0  0  0  0
   19.0273   -6.6215  -12.6776 C   0  0  1  0  0  0  0  0  0  0  0  0
   20.4532   -6.2426  -12.6482 C   0  0  0  0  0  0  0  0  0  0  0  0
   21.0876   -6.9157  -13.8740 S   0  0  0  0  0  0  0  0  0  0  0  0
   20.8444   -8.7096  -13.7990 C   0  0  0  0  0  0  0  0  0  0  0  0
   20.6451   -4.7898  -12.8516 O   0  0  0  0  0  0  0  0  0  0  0  0
   21.8743   -4.2033  -12.6720 O   0  0  0  0  0  0  0  0  0  0  0  0
  2  1  1  0
  3  2  2  0
  4  2  1  0
  5  4  1  0
  6  5  1  0
  6  7  1  0
  7  8  1  0
  8  9  1  6
 10 17  1  0
 10  8  1  0
 11 10  2  0
 12 13  1  0
 13 14  1  0
 16 15  1  6
 15 14  1  0
 16 17  1  0
 18 20  1  0
 18 16  1  0
 19 18  2  0
 21 20  1  0
 21 22  1  1
 22 23  1  0
 24 21  1  0
 25 24  1  0
 26 24  2  0
M  END
$$$$
