RMC.pdb
     RDKit          3D

 26 25  0  0  1  0  0  0  0  0999 V2000
   24.9819  -16.4557  -16.3244 N   0  0  0  0  0  0  0  0  0  0  0  0
   26.0540  -15.6860  -15.7768 C   0  0  0  0  0  0  0  0  0  0  0  0
   25.7923  -14.6933  -14.9838 N   0  0  0  0  0  0  0  0  0  0  0  0
   27.4123  -15.9694  -16.0720 N   0  0  0  0  0  0  0  0  0  0  0  0
   27.7924  -17.1131  -16.8513 C   0  0  0  0  0  0  0  0  0  0  0  0
   28.3218  -18.2735  -16.0874 C   0  0  0  0  0  0  0  0  0  0  0  0
   27.2509  -19.2627  -15.7668 C   0  0  0  0  0  0  0  0  0  0  0  0
   27.9517  -20.4040  -15.0058 C   0  0  2  0  0  0  0  0  0  0  0  0
   28.2877  -21.4086  -15.9878 N   0  0  0  0  0  0  0  0  0  0  0  0
   27.0168  -20.8955  -13.9865 C   0  0  0  0  0  0  0  0  0  0  0  0
   26.2353  -21.8491  -14.3251 O   0  0  0  0  0  0  0  0  0  0  0  0
   26.5110  -14.1150  -14.5431 C   0  0  0  0  0  0  0  0  0  0  0  0
   27.6839  -20.4548   -7.5972 S   0  0  0  0  0  0  0  0  0  0  0  0
   25.9482  -19.9865   -7.7661 C   0  0  0  0  0  0  0  0  0  0  0  0
   25.3295  -20.8060   -9.3009 C   0  0  0  0  0  0  0  0  0  0  0  0
   26.2288  -20.3740  -10.3911 C   0  0  1  0  0  0  0  0  0  0  0  0
   25.9050  -20.9612  -11.7324 N   0  0  0  0  0  0  0  0  0  0  0  0
   26.9127  -20.4025  -12.6709 C   0  0  0  0  0  0  0  0  0  0  0  0
   24.5697  -20.5785  -12.1838 O   0  0  0  0  0  0  0  0  0  0  0  0
   24.2924  -19.3716  -12.5377 N   0  0  0  0  0  0  0  0  0  0  0  0
   23.4787  -21.4832  -12.2774 C   0  0  1  0  0  0  0  0  0  0  0  0
   22.1626  -21.0239  -12.7617 C   0  0  0  0  0  0  0  0  0  0  0  0
   21.6410  -22.1440  -13.6735 S   0  0  0  0  0  0  0  0  0  0  0  0
   19.9166  -21.8270  -14.1306 C   0  0  0  0  0  0  0  0  0  0  0  0
   21.1755  -20.9150  -11.6650 O   0  0  0  0  0  0  0  0  0  0  0  0
   20.1031  -20.0612  -11.7562 O   0  0  0  0  0  0  0  0  0  0  0  0
  2  1  1  0
  3  2  2  0
  4  2  1  0
  5  4  1  0
  6  5  1  0
  6  7  1  0
  7  8  1  0
  8  9  1  6
 10 17  1  0
 10  8  1  0
 11 10  2  0
 12 13  1  0
 13 14  1  0
 16 15  1  1
 15 14  1  0
 16 17  1  0
 18 20  1  0
 18 16  1  0
 19 18  2  0
 21 20  1  0
 21 22  1  1
 22 23  1  0
 24 21  1  0
 25 24  1  0
 26 24  2  0
M  END
$$$$
