RMC.pdb
     RDKit          3D

 26 25  0  0  1  0  0  0  0  0999 V2000
   31.7062  -26.3160  -16.6810 N   0  0  0  0  0  0  0  0  0  0  0  0
   31.9890  -25.1354  -17.4346 C   0  0  0  0  0  0  0  0  0  0  0  0
   32.7386  -25.2116  -18.4905 N   0  0  0  0  0  0  0  0  0  0  0  0
   31.4748  -23.8656  -17.0665 N   0  0  0  0  0  0  0  0  0  0  0  0
   30.5511  -23.7119  -15.9789 C   0  0  0  0  0  0  0  0  0  0  0  0
   29.1710  -23.3026  -16.3509 C   0  0  0  0  0  0  0  0  0  0  0  0
   28.9271  -21.8562  -16.0747 C   0  0  0  0  0  0  0  0  0  0  0  0
   27.4842  -21.5806  -16.5383 C   0  0  2  0  0  0  0  0  0  0  0  0
   27.5825  -20.7884  -17.7422 N   0  0  0  0  0  0  0  0  0  0  0  0
   26.7963  -20.8770  -15.4492 C   0  0  0  0  0  0  0  0  0  0  0  0
   26.9915  -19.6168  -15.3558 O   0  0  0  0  0  0  0  0  0  0  0  0
   33.0044  -24.4029  -19.0567 C   0  0  0  0  0  0  0  0  0  0  0  0
   20.2528  -19.3331  -12.0345 S   0  0  0  0  0  0  0  0  0  0  0  0
   21.2871  -20.0640  -13.3216 C   0  0  0  0  0  0  0  0  0  0  0  0
   23.0326  -19.9262  -12.7347 C   0  0  0  0  0  0  0  0  0  0  0  0
   23.8692  -20.5612  -13.7742 C   0  0  1  0  0  0  0  0  0  0  0  0
   25.3233  -20.6655  -13.4227 N   0  0  0  0  0  0  0  0  0  0  0  0
   25.9420  -21.4768  -14.5031 C   0  0  0  0  0  0  0  0  0  0  0  0
   25.5248  -21.3420  -12.1440 O   0  0  0  0  0  0  0  0  0  0  0  0
   25.1107  -22.5441  -11.9390 N   0  0  0  0  0  0  0  0  0  0  0  0
   26.1866  -20.7517  -11.0345 C   0  0  2  0  0  0  0  0  0  0  0  0
   26.1618  -21.4051   -9.7115 C   0  0  0  0  0  0  0  0  0  0  0  0
   27.0821  -20.5640   -8.8150 S   0  0  0  0  0  0  0  0  0  0  0  0
   26.5082  -18.8462   -8.7654 C   0  0  0  0  0  0  0  0  0  0  0  0
   24.8245  -21.3335   -9.0829 O   0  0  0  0  0  0  0  0  0  0  0  0
   24.5376  -22.0400   -7.9401 O   0  0  0  0  0  0  0  0  0  0  0  0
  2  1  1  0
  3  2  2  0
  4  2  1  0
  5  4  1  0
  6  5  1  0
  6  7  1  0
  7  8  1  0
  8  9  1  6
 10 17  1  0
 10  8  1  0
 11 10  2  0
 12 13  1  0
 13 14  1  0
 16 15  1  6
 15 14  1  0
 16 17  1  0
 18 20  1  0
 18 16  1  0
 19 18  2  0
 21 20  1  0
 21 22  1  6
 22 23  1  0
 24 21  1  0
 25 24  1  0
 26 24  2  0
M  END
$$$$
