RMC.pdb
     RDKit          3D

 26 25  0  0  1  0  0  0  0  0999 V2000
   20.8258  -23.1084  -12.8031 N   0  0  0  0  0  0  0  0  0  0  0  0
   19.4906  -22.8082  -12.3925 C   0  0  0  0  0  0  0  0  0  0  0  0
   18.6663  -22.2657  -13.2346 N   0  0  0  0  0  0  0  0  0  0  0  0
   19.0257  -23.0838  -11.0809 N   0  0  0  0  0  0  0  0  0  0  0  0
   19.4989  -24.2149  -10.3348 C   0  0  0  0  0  0  0  0  0  0  0  0
   18.8574  -25.5179  -10.6526 C   0  0  0  0  0  0  0  0  0  0  0  0
   17.8206  -25.8871   -9.6443 C   0  0  0  0  0  0  0  0  0  0  0  0
   18.5361  -26.7897   -8.6215 C   0  0  2  0  0  0  0  0  0  0  0  0
   18.6396  -28.0970   -9.2270 N   0  0  0  0  0  0  0  0  0  0  0  0
   17.7304  -26.7934   -7.3946 C   0  0  0  0  0  0  0  0  0  0  0  0
   16.5828  -27.3540   -7.4539 O   0  0  0  0  0  0  0  0  0  0  0  0
   17.7319  -21.9370  -12.9815 C   0  0  0  0  0  0  0  0  0  0  0  0
   19.9741  -28.5397   -1.1870 S   0  0  0  0  0  0  0  0  0  0  0  0
   19.2893  -26.9606   -1.7326 C   0  0  0  0  0  0  0  0  0  0  0  0
   18.4719  -27.2756   -3.3583 C   0  0  0  0  0  0  0  0  0  0  0  0
   17.9248  -25.9772   -3.8040 C   0  0  2  0  0  0  0  0  0  0  0  0
   17.1273  -26.0421   -5.0724 N   0  0  0  0  0  0  0  0  0  0  0  0
   18.1190  -26.2311   -6.1628 C   0  0  0  0  0  0  0  0  0  0  0  0
   16.3865  -24.8061   -5.3108 O   0  0  0  0  0  0  0  0  0  0  0  0
   16.9762  -23.7204   -5.6743 N   0  0  0  0  0  0  0  0  0  0  0  0
   14.9777  -24.6911   -5.1723 C   0  0  1  0  0  0  0  0  0  0  0  0
   14.3039  -23.3989   -5.4049 C   0  0  0  0  0  0  0  0  0  0  0  0
   13.7179  -23.4846   -6.8217 S   0  0  0  0  0  0  0  0  0  0  0  0
   12.8484  -25.0584   -7.0453 C   0  0  0  0  0  0  0  0  0  0  0  0
   13.1428  -23.2098   -4.5077 O   0  0  0  0  0  0  0  0  0  0  0  0
   12.4555  -22.0207   -4.4757 O   0  0  0  0  0  0  0  0  0  0  0  0
  2  1  1  0
  3  2  2  0
  4  2  1  0
  5  4  1  0
  6  5  1  0
  6  7  1  0
  7  8  1  0
  8  9  1  6
 10 17  1  0
 10  8  1  0
 11 10  2  0
 12 13  1  0
 13 14  1  0
 16 15  1  1
 15 14  1  0
 16 17  1  0
 18 20  1  0
 18 16  1  0
 19 18  2  0
 21 20  1  0
 21 22  1  1
 22 23  1  0
 24 21  1  0
 25 24  1  0
 26 24  2  0
M  END
$$$$
