RMC.pdb
     RDKit          3D

 26 25  0  0  1  0  0  0  0  0999 V2000
   18.9434  -24.5757   -7.4318 N   0  0  0  0  0  0  0  0  0  0  0  0
   18.3152  -24.1920   -8.6565 C   0  0  0  0  0  0  0  0  0  0  0  0
   17.3842  -24.9402   -9.1628 N   0  0  0  0  0  0  0  0  0  0  0  0
   18.6764  -23.0083   -9.3499 N   0  0  0  0  0  0  0  0  0  0  0  0
   20.0405  -22.5706   -9.4358 C   0  0  0  0  0  0  0  0  0  0  0  0
   20.6691  -22.6613  -10.7801 C   0  0  0  0  0  0  0  0  0  0  0  0
   22.1048  -22.2542  -10.7506 C   0  0  0  0  0  0  0  0  0  0  0  0
   22.1004  -20.7169  -10.6522 C   0  0  2  0  0  0  0  0  0  0  0  0
   21.4241  -20.2304  -11.8322 N   0  0  0  0  0  0  0  0  0  0  0  0
   23.4978  -20.2745  -10.5747 C   0  0  0  0  0  0  0  0  0  0  0  0
   23.9795  -19.6853  -11.6022 O   0  0  0  0  0  0  0  0  0  0  0  0
   16.8958  -24.7254  -10.0348 C   0  0  0  0  0  0  0  0  0  0  0  0
   26.6778  -19.6372   -5.2897 S   0  0  0  0  0  0  0  0  0  0  0  0
   28.1511  -20.1343   -6.2078 C   0  0  0  0  0  0  0  0  0  0  0  0
   27.7508  -19.9238   -7.9982 C   0  0  0  0  0  0  0  0  0  0  0  0
   26.3064  -20.2051   -8.1344 C   0  0  1  0  0  0  0  0  0  0  0  0
   25.7583  -19.9850   -9.5128 N   0  0  0  0  0  0  0  0  0  0  0  0
   24.3466  -20.4465   -9.4636 C   0  0  0  0  0  0  0  0  0  0  0  0
   26.4802  -20.7655  -10.5143 O   0  0  0  0  0  0  0  0  0  0  0  0
   26.4691  -22.0533  -10.5091 N   0  0  0  0  0  0  0  0  0  0  0  0
   27.2399  -20.1891  -11.5669 C   0  0  1  0  0  0  0  0  0  0  0  0
   27.9944  -21.0445  -12.5032 C   0  0  0  0  0  0  0  0  0  0  0  0
   28.2453  -20.1793  -13.7468 S   0  0  0  0  0  0  0  0  0  0  0  0
   29.2309  -21.0968  -14.9591 C   0  0  0  0  0  0  0  0  0  0  0  0
   29.3363  -21.3869  -11.9826 O   0  0  0  0  0  0  0  0  0  0  0  0
   29.9277  -22.5909  -12.2792 O   0  0  0  0  0  0  0  0  0  0  0  0
  2  1  1  0
  3  2  2  0
  4  2  1  0
  5  4  1  0
  6  5  1  0
  6  7  1  0
  7  8  1  0
  8  9  1  6
 10 17  1  0
 10  8  1  0
 11 10  2  0
 12 13  1  0
 13 14  1  0
 16 15  1  1
 15 14  1  0
 16 17  1  0
 18 20  1  0
 18 16  1  0
 19 18  2  0
 21 20  1  0
 21 22  1  1
 22 23  1  0
 24 21  1  0
 25 24  1  0
 26 24  2  0
M  END
$$$$
