RMC.pdb
     RDKit          3D

 26 25  0  0  1  0  0  0  0  0999 V2000
   25.5021  -23.5647  -16.3763 N   0  0  0  0  0  0  0  0  0  0  0  0
   24.2614  -23.5369  -15.6681 C   0  0  0  0  0  0  0  0  0  0  0  0
   23.6247  -24.6447  -15.4440 N   0  0  0  0  0  0  0  0  0  0  0  0
   23.6910  -22.3273  -15.1947 N   0  0  0  0  0  0  0  0  0  0  0  0
   24.3793  -21.0731  -15.3092 C   0  0  0  0  0  0  0  0  0  0  0  0
   25.4728  -20.8397  -14.3294 C   0  0  0  0  0  0  0  0  0  0  0  0
   25.0069  -21.0219  -12.9231 C   0  0  0  0  0  0  0  0  0  0  0  0
   26.2297  -20.7202  -12.0362 C   0  0  2  0  0  0  0  0  0  0  0  0
   27.3318  -21.4775  -12.5825 N   0  0  0  0  0  0  0  0  0  0  0  0
   25.8907  -21.1184  -10.6647 C   0  0  0  0  0  0  0  0  0  0  0  0
   25.6593  -22.3591  -10.4594 O   0  0  0  0  0  0  0  0  0  0  0  0
   22.7620  -24.7025  -14.8985 C   0  0  0  0  0  0  0  0  0  0  0  0
   27.5353  -19.3619   -4.2727 S   0  0  0  0  0  0  0  0  0  0  0  0
   27.7762  -18.4777   -5.8285 C   0  0  0  0  0  0  0  0  0  0  0  0
   27.3819  -19.6735   -7.1793 C   0  0  0  0  0  0  0  0  0  0  0  0
   25.9079  -19.7644   -7.2334 C   0  0  2  0  0  0  0  0  0  0  0  0
   25.3830  -20.7550   -8.2293 N   0  0  0  0  0  0  0  0  0  0  0  0
   25.8003  -20.2466   -9.5619 C   0  0  0  0  0  0  0  0  0  0  0  0
   23.9258  -20.8447   -8.1884 O   0  0  0  0  0  0  0  0  0  0  0  0
   23.1801  -20.1457   -8.9719 N   0  0  0  0  0  0  0  0  0  0  0  0
   23.2119  -21.6967   -7.3041 C   0  0  1  0  0  0  0  0  0  0  0  0
   21.7944  -22.0208   -7.5555 C   0  0  0  0  0  0  0  0  0  0  0  0
   21.4455  -23.1493   -6.5742 S   0  0  0  0  0  0  0  0  0  0  0  0
   19.7045  -23.6180   -6.7526 C   0  0  0  0  0  0  0  0  0  0  0  0
   20.8979  -20.8983   -7.2017 O   0  0  0  0  0  0  0  0  0  0  0  0
   19.7075  -20.7049   -7.8597 O   0  0  0  0  0  0  0  0  0  0  0  0
  2  1  1  0
  3  2  2  0
  4  2  1  0
  5  4  1  0
  6  5  1  0
  6  7  1  0
  7  8  1  0
  8  9  1  6
 10 17  1  0
 10  8  1  0
 11 10  2  0
 12 13  1  0
 13 14  1  0
 16 15  1  1
 15 14  1  0
 16 17  1  0
 18 20  1  0
 18 16  1  0
 19 18  2  0
 21 20  1  0
 21 22  1  1
 22 23  1  0
 24 21  1  0
 25 24  1  0
 26 24  2  0
M  END
$$$$
