RMC.pdb
     RDKit          3D

 26 25  0  0  1  0  0  0  0  0999 V2000
   21.7244  -19.6278  -14.4410 N   0  0  0  0  0  0  0  0  0  0  0  0
   20.8134  -19.0692  -15.3895 C   0  0  0  0  0  0  0  0  0  0  0  0
   19.5756  -19.4572  -15.3968 N   0  0  0  0  0  0  0  0  0  0  0  0
   21.2166  -18.0936  -16.3371 N   0  0  0  0  0  0  0  0  0  0  0  0
   22.5250  -17.5047  -16.3037 C   0  0  0  0  0  0  0  0  0  0  0  0
   22.7706  -16.4102  -17.2795 C   0  0  0  0  0  0  0  0  0  0  0  0
   22.9239  -15.0880  -16.6042 C   0  0  0  0  0  0  0  0  0  0  0  0
   24.4370  -14.8000  -16.5896 C   0  0  2  0  0  0  0  0  0  0  0  0
   25.0508  -15.8598  -15.8237 N   0  0  0  0  0  0  0  0  0  0  0  0
   24.6298  -13.4764  -15.9850 C   0  0  0  0  0  0  0  0  0  0  0  0
   24.5539  -13.4021  -14.7108 O   0  0  0  0  0  0  0  0  0  0  0  0
   18.8885  -19.1480  -16.0877 C   0  0  0  0  0  0  0  0  0  0  0  0
   28.9720   -9.3182  -17.2744 S   0  0  0  0  0  0  0  0  0  0  0  0
   29.1953  -11.0119  -16.6896 C   0  0  0  0  0  0  0  0  0  0  0  0
   27.6429  -11.4700  -15.8005 C   0  0  0  0  0  0  0  0  0  0  0  0
   26.5724  -10.6321  -16.3799 C   0  0  2  0  0  0  0  0  0  0  0  0
   25.1850  -11.0244  -15.9674 N   0  0  0  0  0  0  0  0  0  0  0  0
   24.8906  -12.2871  -16.6935 C   0  0  0  0  0  0  0  0  0  0  0  0
   24.2004  -10.0150  -16.3481 O   0  0  0  0  0  0  0  0  0  0  0  0
   23.8636   -9.8243  -17.5765 N   0  0  0  0  0  0  0  0  0  0  0  0
   23.5337   -9.1727  -15.4189 C   0  0  1  0  0  0  0  0  0  0  0  0
   22.6187   -8.1142  -15.8880 C   0  0  0  0  0  0  0  0  0  0  0  0
   21.6052   -7.9078  -14.7530 S   0  0  0  0  0  0  0  0  0  0  0  0
   20.6658   -9.4306  -14.4680 C   0  0  0  0  0  0  0  0  0  0  0  0
   23.3081   -6.8144  -16.0435 O   0  0  0  0  0  0  0  0  0  0  0  0
   22.6491   -5.7152  -16.5383 O   0  0  0  0  0  0  0  0  0  0  0  0
  2  1  1  0
  3  2  2  0
  4  2  1  0
  5  4  1  0
  6  5  1  0
  6  7  1  0
  7  8  1  0
  8  9  1  1
 10 17  1  0
 10  8  1  0
 11 10  2  0
 12 13  1  0
 13 14  1  0
 16 15  1  1
 15 14  1  0
 16 17  1  0
 18 20  1  0
 18 16  1  0
 19 18  2  0
 21 20  1  0
 21 22  1  6
 22 23  1  0
 24 21  1  0
 25 24  1  0
 26 24  2  0
M  END
$$$$
