RMC.pdb
     RDKit          3D

 26 25  0  0  1  0  0  0  0  0999 V2000
   25.9294   -9.0358  -20.3275 N   0  0  0  0  0  0  0  0  0  0  0  0
   26.4810  -10.2836  -19.9028 C   0  0  0  0  0  0  0  0  0  0  0  0
   25.9225  -11.3932  -20.2764 N   0  0  0  0  0  0  0  0  0  0  0  0
   27.6316  -10.3563  -19.0762 N   0  0  0  0  0  0  0  0  0  0  0  0
   28.3605   -9.1810  -18.6926 C   0  0  0  0  0  0  0  0  0  0  0  0
   29.8358   -9.2455  -18.8654 C   0  0  0  0  0  0  0  0  0  0  0  0
   30.4420  -10.3450  -18.0582 C   0  0  0  0  0  0  0  0  0  0  0  0
   31.9513  -10.3030  -18.3634 C   0  0  2  0  0  0  0  0  0  0  0  0
   32.3414  -11.6526  -18.6996 N   0  0  0  0  0  0  0  0  0  0  0  0
   32.6311   -9.7964  -17.1652 C   0  0  0  0  0  0  0  0  0  0  0  0
   32.0937  -10.0609  -16.0356 O   0  0  0  0  0  0  0  0  0  0  0  0
   26.3205  -12.3174  -20.0953 C   0  0  0  0  0  0  0  0  0  0  0  0
   37.6589  -11.4412  -14.4330 S   0  0  0  0  0  0  0  0  0  0  0  0
   38.1114   -9.7059  -14.6445 C   0  0  0  0  0  0  0  0  0  0  0  0
   36.5364   -8.7428  -14.6000 C   0  0  0  0  0  0  0  0  0  0  0  0
   35.7407   -9.1984  -15.7589 C   0  0  1  0  0  0  0  0  0  0  0  0
   34.3963   -8.5459  -15.8840 N   0  0  0  0  0  0  0  0  0  0  0  0
   33.8231   -9.0455  -17.1608 C   0  0  0  0  0  0  0  0  0  0  0  0
   34.5037   -7.0907  -15.9471 O   0  0  0  0  0  0  0  0  0  0  0  0
   34.9421   -6.4869  -16.9968 N   0  0  0  0  0  0  0  0  0  0  0  0
   34.1374   -6.2253  -14.8820 C   0  0  1  0  0  0  0  0  0  0  0  0
   34.2272   -4.7609  -15.0404 C   0  0  0  0  0  0  0  0  0  0  0  0
   33.3540   -4.1678  -13.9251 S   0  0  0  0  0  0  0  0  0  0  0  0
   31.6215   -4.6385  -14.1694 C   0  0  0  0  0  0  0  0  0  0  0  0
   35.5943   -4.2581  -14.7816 O   0  0  0  0  0  0  0  0  0  0  0  0
   35.9218   -2.9426  -15.0042 O   0  0  0  0  0  0  0  0  0  0  0  0
  2  1  1  0
  3  2  2  0
  4  2  1  0
  5  4  1  0
  6  5  1  0
  6  7  1  0
  7  8  1  0
  8  9  1  1
 10 17  1  0
 10  8  1  0
 11 10  2  0
 12 13  1  0
 13 14  1  0
 16 15  1  1
 15 14  1  0
 16 17  1  0
 18 20  1  0
 18 16  1  0
 19 18  2  0
 21 20  1  0
 21 22  1  1
 22 23  1  0
 24 21  1  0
 25 24  1  0
 26 24  2  0
M  END
$$$$
