RMC.pdb
     RDKit          3D

 26 25  0  0  1  0  0  0  0  0999 V2000
   16.1919  -14.8833  -14.2672 N   0  0  0  0  0  0  0  0  0  0  0  0
   15.9958  -15.2461  -15.6353 C   0  0  0  0  0  0  0  0  0  0  0  0
   15.3470  -16.3313  -15.9254 N   0  0  0  0  0  0  0  0  0  0  0  0
   16.4912  -14.4544  -16.7031 N   0  0  0  0  0  0  0  0  0  0  0  0
   17.6092  -13.5710  -16.5318 C   0  0  0  0  0  0  0  0  0  0  0  0
   18.8871  -14.2113  -16.1224 C   0  0  0  0  0  0  0  0  0  0  0  0
   19.8161  -13.2360  -15.4793 C   0  0  0  0  0  0  0  0  0  0  0  0
   20.3496  -12.3522  -16.6225 C   0  0  2  0  0  0  0  0  0  0  0  0
   21.0206  -13.2357  -17.5476 N   0  0  0  0  0  0  0  0  0  0  0  0
   21.2523  -11.3584  -16.0291 C   0  0  0  0  0  0  0  0  0  0  0  0
   20.7441  -10.5385  -15.1898 O   0  0  0  0  0  0  0  0  0  0  0  0
   15.0794  -16.5949  -16.8762 C   0  0  0  0  0  0  0  0  0  0  0  0
   27.6614  -10.3831  -17.3964 S   0  0  0  0  0  0  0  0  0  0  0  0
   27.5302  -10.4535  -15.5968 C   0  0  0  0  0  0  0  0  0  0  0  0
   25.8737   -9.7622  -15.1630 C   0  0  0  0  0  0  0  0  0  0  0  0
   24.8767  -10.6504  -15.7962 C   0  0  2  0  0  0  0  0  0  0  0  0
   23.4530  -10.2166  -15.6119 N   0  0  0  0  0  0  0  0  0  0  0  0
   22.6274  -11.2365  -16.3094 C   0  0  0  0  0  0  0  0  0  0  0  0
   23.2027   -8.9089  -16.2124 O   0  0  0  0  0  0  0  0  0  0  0  0
   23.3430   -8.7038  -17.4761 N   0  0  0  0  0  0  0  0  0  0  0  0
   22.7850   -7.7689  -15.4754 C   0  0  1  0  0  0  0  0  0  0  0  0
   22.5270   -6.4867  -16.1589 C   0  0  0  0  0  0  0  0  0  0  0  0
   21.1504   -6.0208  -15.6629 S   0  0  0  0  0  0  0  0  0  0  0  0
   19.8780   -7.2249  -16.1255 C   0  0  0  0  0  0  0  0  0  0  0  0
   23.4763   -5.4330  -15.7376 O   0  0  0  0  0  0  0  0  0  0  0  0
   23.4516   -4.1842  -16.3095 O   0  0  0  0  0  0  0  0  0  0  0  0
  2  1  1  0
  3  2  2  0
  4  2  1  0
  5  4  1  0
  6  5  1  0
  6  7  1  0
  7  8  1  0
  8  9  1  6
 10 17  1  0
 10  8  1  0
 11 10  2  0
 12 13  1  0
 13 14  1  0
 16 15  1  1
 15 14  1  0
 16 17  1  0
 18 20  1  0
 18 16  1  0
 19 18  2  0
 21 20  1  0
 21 22  1  6
 22 23  1  0
 24 21  1  0
 25 24  1  0
 26 24  2  0
M  END
$$$$
