AYS.pdb
     RDKit          3D

 24 24  0  0  1  0  0  0  0  0999 V2000
    7.0425  -14.9982   19.8937 C   0  0  0  0  0  0  0  0  0  0  0  0
    7.4693  -13.6687   20.5167 C   0  0  2  0  0  0  0  0  0  0  0  0
    8.2567  -12.8902   19.6042 N   0  0  0  0  0  0  0  0  0  0  0  0
    8.2384  -13.9347   21.7576 C   0  0  0  0  0  0  0  0  0  0  0  0
    9.4920  -14.0473   21.7018 O   0  0  0  0  0  0  0  0  0  0  0  0
   10.9750  -15.3649   29.9114 O   0  0  0  0  0  0  0  0  0  0  0  0
   10.1534  -15.0903   28.8220 C   0  0  0  0  0  0  0  0  0  0  0  0
   10.1908  -13.8230   28.2690 C   0  0  0  0  0  0  0  0  0  0  0  0
    9.3855  -13.5008   27.1765 C   0  0  0  0  0  0  0  0  0  0  0  0
    8.5414  -14.4456   26.6350 C   0  0  0  0  0  0  0  0  0  0  0  0
    7.6799  -14.0992   25.4652 C   0  0  0  0  0  0  0  0  0  0  0  0
    8.3849  -14.4031   24.1626 C   0  0  2  0  0  0  0  0  0  0  0  0
    7.5907  -14.0665   23.0158 N   0  0  0  0  0  0  0  0  0  0  0  0
    8.7596  -15.8343   24.1646 C   0  0  0  0  0  0  0  0  0  0  0  0
    7.8696  -16.7238   24.0022 O   0  0  0  0  0  0  0  0  0  0  0  0
    8.5178  -15.6999   27.1979 C   0  0  0  0  0  0  0  0  0  0  0  0
    9.3154  -16.0350   28.2876 C   0  0  0  0  0  0  0  0  0  0  0  0
   12.2787  -16.7915   22.8909 O   0  0  0  0  0  0  0  0  0  0  0  0
   11.3333  -17.8074   23.0178 C   0  0  0  0  0  0  0  0  0  0  0  0
   10.5443  -17.6002   24.3096 C   0  0  2  0  0  0  0  0  0  0  0  0
   10.1164  -16.1998   24.3488 N   0  0  0  0  0  0  0  0  0  0  0  0
   11.4175  -17.8523   25.4729 C   0  0  0  0  0  0  0  0  0  0  0  0
   11.7206  -16.9210   26.2364 O   0  0  0  0  0  0  0  0  0  0  0  0
   11.8764  -19.1396   25.6765 O   0  0  0  0  0  0  0  0  0  0  0  0
  2  1  1  6
  2  4  1  0
  2  3  1  0
  4  5  2  0
  6  7  1  0
  7  8  2  0
  7 17  1  0
  8  9  1  0
  9 10  2  0
 10 11  1  0
 12 11  1  1
 12 14  1  0
 13 12  1  0
 13  4  1  0
 14 15  2  0
 16 10  1  0
 17 16  2  0
 18 19  1  0
 20 19  1  6
 20 22  1  0
 21 20  1  0
 21 14  1  0
 22 23  2  0
 22 24  1  0
M  END
$$$$
