AYS.pdb
     RDKit          3D

 24 24  0  0  1  0  0  0  0  0999 V2000
    6.6134  -17.7277   20.3904 C   0  0  0  0  0  0  0  0  0  0  0  0
    6.2228  -16.5043   21.2201 C   0  0  2  0  0  0  0  0  0  0  0  0
    5.7312  -15.4422   20.3901 N   0  0  0  0  0  0  0  0  0  0  0  0
    7.4007  -16.0434   21.9963 C   0  0  0  0  0  0  0  0  0  0  0  0
    8.2932  -15.3599   21.4276 O   0  0  0  0  0  0  0  0  0  0  0  0
    5.7289  -10.8162   26.7648 O   0  0  0  0  0  0  0  0  0  0  0  0
    6.4171  -11.9888   26.4670 C   0  0  0  0  0  0  0  0  0  0  0  0
    5.7206  -13.1839   26.4750 C   0  0  0  0  0  0  0  0  0  0  0  0
    6.3674  -14.3848   26.1829 C   0  0  0  0  0  0  0  0  0  0  0  0
    7.7121  -14.3926   25.8822 C   0  0  0  0  0  0  0  0  0  0  0  0
    8.4032  -15.6792   25.5696 C   0  0  0  0  0  0  0  0  0  0  0  0
    8.6662  -15.8080   24.0862 C   0  0  2  0  0  0  0  0  0  0  0  0
    7.5472  -16.3566   23.3749 N   0  0  0  0  0  0  0  0  0  0  0  0
    9.8832  -16.6291   23.9039 C   0  0  0  0  0  0  0  0  0  0  0  0
    9.8124  -17.8938   23.9752 O   0  0  0  0  0  0  0  0  0  0  0  0
    8.3878  -13.1951   25.8790 C   0  0  0  0  0  0  0  0  0  0  0  0
    7.7554  -11.9900   26.1684 C   0  0  0  0  0  0  0  0  0  0  0  0
   14.4963  -16.4781   22.3693 O   0  0  0  0  0  0  0  0  0  0  0  0
   13.3665  -15.7729   22.7801 C   0  0  0  0  0  0  0  0  0  0  0  0
   12.3209  -16.7586   23.2990 C   0  0  2  0  0  0  0  0  0  0  0  0
   11.1232  -15.9916   23.6496 N   0  0  0  0  0  0  0  0  0  0  0  0
   12.8225  -17.4211   24.5191 C   0  0  0  0  0  0  0  0  0  0  0  0
   12.4629  -17.0190   25.6377 O   0  0  0  0  0  0  0  0  0  0  0  0
   13.6912  -18.4856   24.3725 O   0  0  0  0  0  0  0  0  0  0  0  0
  2  1  1  6
  2  4  1  0
  2  3  1  0
  4  5  2  0
  6  7  1  0
  7  8  2  0
  7 17  1  0
  8  9  1  0
  9 10  2  0
 10 11  1  0
 12 11  1  1
 12 14  1  0
 13 12  1  0
 13  4  1  0
 14 15  2  0
 16 10  1  0
 17 16  2  0
 18 19  1  0
 20 19  1  1
 20 22  1  0
 21 20  1  0
 21 14  1  0
 22 23  2  0
 22 24  1  0
M  END
$$$$
