AYS.pdb
     RDKit          3D

 24 24  0  0  1  0  0  0  0  0999 V2000
   16.6975  -18.0869   14.6872 C   0  0  0  0  0  0  0  0  0  0  0  0
   15.3905  -18.5788   15.3097 C   0  0  2  0  0  0  0  0  0  0  0  0
   14.2520  -18.1432   14.5528 N   0  0  0  0  0  0  0  0  0  0  0  0
   15.2967  -18.0833   16.7054 C   0  0  0  0  0  0  0  0  0  0  0  0
   15.3164  -16.8437   16.9294 O   0  0  0  0  0  0  0  0  0  0  0  0
   13.5914  -16.7483   25.0883 O   0  0  0  0  0  0  0  0  0  0  0  0
   13.7887  -17.3917   23.8699 C   0  0  0  0  0  0  0  0  0  0  0  0
   12.9631  -17.0655   22.8092 C   0  0  0  0  0  0  0  0  0  0  0  0
   13.1226  -17.6837   21.5689 C   0  0  0  0  0  0  0  0  0  0  0  0
   14.1082  -18.6293   21.3873 C   0  0  0  0  0  0  0  0  0  0  0  0
   14.2777  -19.2904   20.0589 C   0  0  0  0  0  0  0  0  0  0  0  0
   15.1044  -18.4331   19.1272 C   0  0  2  0  0  0  0  0  0  0  0  0
   15.1845  -18.9795   17.8028 N   0  0  0  0  0  0  0  0  0  0  0  0
   16.4456  -18.2616   19.7277 C   0  0  0  0  0  0  0  0  0  0  0  0
   17.3010  -19.1951   19.6480 O   0  0  0  0  0  0  0  0  0  0  0  0
   14.9192  -18.9407   22.4532 C   0  0  0  0  0  0  0  0  0  0  0  0
   14.7714  -18.3320   23.6956 C   0  0  0  0  0  0  0  0  0  0  0  0
   19.8738  -15.1955   20.7649 O   0  0  0  0  0  0  0  0  0  0  0  0
   18.5614  -15.4357   20.3625 C   0  0  0  0  0  0  0  0  0  0  0  0
   18.1093  -16.7897   20.9069 C   0  0  2  0  0  0  0  0  0  0  0  0
   16.7637  -17.0495   20.3896 N   0  0  0  0  0  0  0  0  0  0  0  0
   18.0386  -16.7360   22.3805 C   0  0  0  0  0  0  0  0  0  0  0  0
   18.9224  -17.2761   23.0656 O   0  0  0  0  0  0  0  0  0  0  0  0
   16.9719  -16.0745   22.9581 O   0  0  0  0  0  0  0  0  0  0  0  0
  2  1  1  6
  2  4  1  0
  2  3  1  0
  4  5  2  0
  6  7  1  0
  7  8  2  0
  7 17  1  0
  8  9  1  0
  9 10  2  0
 10 11  1  0
 12 11  1  1
 12 14  1  0
 13 12  1  0
 13  4  1  0
 14 15  2  0
 16 10  1  0
 17 16  2  0
 18 19  1  0
 20 19  1  6
 20 22  1  0
 21 20  1  0
 21 14  1  0
 22 23  2  0
 22 24  1  0
M  END
$$$$
