AYS.pdb
     RDKit          3D

 24 24  0  0  1  0  0  0  0  0999 V2000
    6.8944  -14.7692   19.6084 C   0  0  0  0  0  0  0  0  0  0  0  0
    7.4040  -13.5276   20.3409 C   0  0  2  0  0  0  0  0  0  0  0  0
    8.2226  -12.7141   19.4883 N   0  0  0  0  0  0  0  0  0  0  0  0
    8.1727  -13.9476   21.5388 C   0  0  0  0  0  0  0  0  0  0  0  0
    9.4157  -14.1316   21.4488 O   0  0  0  0  0  0  0  0  0  0  0  0
   11.0253  -15.2510   29.6708 O   0  0  0  0  0  0  0  0  0  0  0  0
   10.1827  -15.0287   28.5855 C   0  0  0  0  0  0  0  0  0  0  0  0
   10.1260  -13.7578   28.0424 C   0  0  0  0  0  0  0  0  0  0  0  0
    9.2963  -13.4869   26.9543 C   0  0  0  0  0  0  0  0  0  0  0  0
    8.5216  -14.4866   26.4074 C   0  0  0  0  0  0  0  0  0  0  0  0
    7.6337  -14.1950   25.2424 C   0  0  0  0  0  0  0  0  0  0  0  0
    8.3527  -14.4442   23.9358 C   0  0  2  0  0  0  0  0  0  0  0  0
    7.5360  -14.1485   22.7936 N   0  0  0  0  0  0  0  0  0  0  0  0
    8.8155  -15.8493   23.9255 C   0  0  0  0  0  0  0  0  0  0  0  0
    7.9795  -16.7920   23.7773 O   0  0  0  0  0  0  0  0  0  0  0  0
    8.5911  -15.7435   26.9606 C   0  0  0  0  0  0  0  0  0  0  0  0
    9.4142  -16.0279   28.0458 C   0  0  0  0  0  0  0  0  0  0  0  0
   12.4399  -16.6878   22.7456 O   0  0  0  0  0  0  0  0  0  0  0  0
   11.5481  -17.7473   22.9016 C   0  0  0  0  0  0  0  0  0  0  0  0
   10.6948  -17.5060   24.1457 C   0  0  2  0  0  0  0  0  0  0  0  0
   10.1958  -16.1303   24.0819 N   0  0  0  0  0  0  0  0  0  0  0  0
   11.5287  -17.6425   25.3562 C   0  0  0  0  0  0  0  0  0  0  0  0
   11.7303  -16.6587   26.0867 O   0  0  0  0  0  0  0  0  0  0  0  0
   12.0664  -18.8831   25.6407 O   0  0  0  0  0  0  0  0  0  0  0  0
  2  1  1  6
  2  4  1  0
  2  3  1  0
  4  5  2  0
  6  7  1  0
  7  8  2  0
  7 17  1  0
  8  9  1  0
  9 10  2  0
 10 11  1  0
 12 11  1  1
 12 14  1  0
 13 12  1  0
 13  4  1  0
 14 15  2  0
 16 10  1  0
 17 16  2  0
 18 19  1  0
 20 19  1  6
 20 22  1  0
 21 20  1  0
 21 14  1  0
 22 23  2  0
 22 24  1  0
M  END
$$$$
