AYS.pdb
     RDKit          3D

 24 24  0  0  1  0  0  0  0  0999 V2000
   -4.4661  -21.5380   26.6280 C   0  0  0  0  0  0  0  0  0  0  0  0
   -3.7609  -22.8757   26.8537 C   0  0  2  0  0  0  0  0  0  0  0  0
   -4.0139  -23.7907   25.7779 N   0  0  0  0  0  0  0  0  0  0  0  0
   -4.2186  -23.4589   28.1394 C   0  0  0  0  0  0  0  0  0  0  0  0
   -4.1719  -22.7652   29.1900 O   0  0  0  0  0  0  0  0  0  0  0  0
  -10.0839  -21.3100   29.3118 O   0  0  0  0  0  0  0  0  0  0  0  0
   -9.2180  -22.3996   29.3230 C   0  0  0  0  0  0  0  0  0  0  0  0
   -8.8124  -22.9088   30.5434 C   0  0  0  0  0  0  0  0  0  0  0  0
   -7.9454  -23.9998   30.6050 C   0  0  0  0  0  0  0  0  0  0  0  0
   -7.4824  -24.5837   29.4459 C   0  0  0  0  0  0  0  0  0  0  0  0
   -6.5542  -25.7517   29.5135 C   0  0  0  0  0  0  0  0  0  0  0  0
   -5.1112  -25.3005   29.4945 C   0  0  2  0  0  0  0  0  0  0  0  0
   -4.7115  -24.7899   28.2144 N   0  0  0  0  0  0  0  0  0  0  0  0
   -4.2666  -26.4404   29.9141 C   0  0  0  0  0  0  0  0  0  0  0  0
   -4.0269  -27.3856   29.1025 O   0  0  0  0  0  0  0  0  0  0  0  0
   -7.8964  -24.0639   28.2421 C   0  0  0  0  0  0  0  0  0  0  0  0
   -8.7608  -22.9762   28.1659 C   0  0  0  0  0  0  0  0  0  0  0  0
   -1.1307  -26.0087   32.3468 O   0  0  0  0  0  0  0  0  0  0  0  0
   -1.9970  -26.9902   32.8247 C   0  0  0  0  0  0  0  0  0  0  0  0
   -2.8289  -27.5336   31.6641 C   0  0  2  0  0  0  0  0  0  0  0  0
   -3.7305  -26.4656   31.2258 N   0  0  0  0  0  0  0  0  0  0  0  0
   -3.6469  -28.6718   32.1273 C   0  0  0  0  0  0  0  0  0  0  0  0
   -3.1067  -29.7569   32.3971 O   0  0  0  0  0  0  0  0  0  0  0  0
   -5.0111  -28.4878   32.2472 O   0  0  0  0  0  0  0  0  0  0  0  0
  2  1  1  6
  2  4  1  0
  2  3  1  0
  4  5  2  0
  6  7  1  0
  7  8  2  0
  7 17  1  0
  8  9  1  0
  9 10  2  0
 10 11  1  0
 12 11  1  6
 12 14  1  0
 13 12  1  0
 13  4  1  0
 14 15  2  0
 16 10  1  0
 17 16  2  0
 18 19  1  0
 20 19  1  1
 20 22  1  0
 21 20  1  0
 21 14  1  0
 22 23  2  0
 22 24  1  0
M  END
$$$$
