AYS.pdb
     RDKit          3D

 24 24  0  0  1  0  0  0  0  0999 V2000
    7.2681  -14.8198   19.5560 C   0  0  0  0  0  0  0  0  0  0  0  0
    7.4326  -13.6008   20.4643 C   0  0  2  0  0  0  0  0  0  0  0  0
    8.0899  -12.5229   19.7824 N   0  0  0  0  0  0  0  0  0  0  0  0
    8.2055  -13.9901   21.6699 C   0  0  0  0  0  0  0  0  0  0  0  0
    9.4642  -14.0154   21.6220 O   0  0  0  0  0  0  0  0  0  0  0  0
   10.9967  -14.9469   29.8423 O   0  0  0  0  0  0  0  0  0  0  0  0
   10.1670  -14.7958   28.7350 C   0  0  0  0  0  0  0  0  0  0  0  0
    9.5126  -15.9105   28.2428 C   0  0  0  0  0  0  0  0  0  0  0  0
    8.6708  -15.8085   27.1351 C   0  0  0  0  0  0  0  0  0  0  0  0
    8.4820  -14.5911   26.5178 C   0  0  0  0  0  0  0  0  0  0  0  0
    7.5805  -14.4834   25.3320 C   0  0  0  0  0  0  0  0  0  0  0  0
    8.3626  -14.5970   24.0430 C   0  0  2  0  0  0  0  0  0  0  0  0
    7.5556  -14.3374   22.8853 N   0  0  0  0  0  0  0  0  0  0  0  0
    8.9719  -15.9442   23.9912 C   0  0  0  0  0  0  0  0  0  0  0  0
    8.2522  -16.9572   23.7354 O   0  0  0  0  0  0  0  0  0  0  0  0
    9.1409  -13.4942   27.0211 C   0  0  0  0  0  0  0  0  0  0  0  0
    9.9833  -13.5815   28.1251 C   0  0  0  0  0  0  0  0  0  0  0  0
   12.9598  -16.2783   23.3980 O   0  0  0  0  0  0  0  0  0  0  0  0
   12.1035  -17.3411   23.1160 C   0  0  0  0  0  0  0  0  0  0  0  0
   11.0118  -17.4026   24.1831 C   0  0  2  0  0  0  0  0  0  0  0  0
   10.3613  -16.0909   24.2290 N   0  0  0  0  0  0  0  0  0  0  0  0
   11.6188  -17.6671   25.5025 C   0  0  0  0  0  0  0  0  0  0  0  0
   11.5600  -16.8082   26.3975 O   0  0  0  0  0  0  0  0  0  0  0  0
   12.2432  -18.8837   25.7005 O   0  0  0  0  0  0  0  0  0  0  0  0
  2  1  1  6
  2  4  1  0
  2  3  1  0
  4  5  2  0
  6  7  1  0
  7  8  2  0
  7 17  1  0
  8  9  1  0
  9 10  2  0
 10 11  1  0
 12 11  1  1
 12 14  1  0
 13 12  1  0
 13  4  1  0
 14 15  2  0
 16 10  1  0
 17 16  2  0
 18 19  1  0
 20 19  1  6
 20 22  1  0
 21 20  1  0
 21 14  1  0
 22 23  2  0
 22 24  1  0
M  END
$$$$
