AYS.pdb
     RDKit          3D

 24 24  0  0  1  0  0  0  0  0999 V2000
    3.5726  -21.1249   17.7593 C   0  0  0  0  0  0  0  0  0  0  0  0
    4.3866  -22.2505   18.3983 C   0  0  2  0  0  0  0  0  0  0  0  0
    3.5705  -23.3984   18.6721 N   0  0  0  0  0  0  0  0  0  0  0  0
    5.0079  -21.7541   19.6513 C   0  0  0  0  0  0  0  0  0  0  0  0
    4.6030  -20.6766   20.1634 O   0  0  0  0  0  0  0  0  0  0  0  0
    1.5870  -24.3430   24.6527 O   0  0  0  0  0  0  0  0  0  0  0  0
    2.8379  -24.0407   24.1227 C   0  0  0  0  0  0  0  0  0  0  0  0
    3.5608  -23.0041   24.6850 C   0  0  0  0  0  0  0  0  0  0  0  0
    4.8191  -22.6642   24.1879 C   0  0  0  0  0  0  0  0  0  0  0  0
    5.3568  -23.3607   23.1275 C   0  0  0  0  0  0  0  0  0  0  0  0
    6.7041  -22.9957   22.5964 C   0  0  0  0  0  0  0  0  0  0  0  0
    6.5949  -21.9457   21.5139 C   0  0  2  0  0  0  0  0  0  0  0  0
    6.0556  -22.4697   20.2918 N   0  0  0  0  0  0  0  0  0  0  0  0
    7.9356  -21.3548   21.3085 C   0  0  0  0  0  0  0  0  0  0  0  0
    8.7081  -21.8269   20.4196 O   0  0  0  0  0  0  0  0  0  0  0  0
    4.6237  -24.3879   22.5815 C   0  0  0  0  0  0  0  0  0  0  0  0
    3.3675  -24.7376   23.0672 C   0  0  0  0  0  0  0  0  0  0  0  0
   10.8064  -17.6085   22.5176 O   0  0  0  0  0  0  0  0  0  0  0  0
    9.5898  -18.2690   22.6780 C   0  0  0  0  0  0  0  0  0  0  0  0
    9.6088  -19.5610   21.8627 C   0  0  2  0  0  0  0  0  0  0  0  0
    8.3463  -20.2612   22.1108 N   0  0  0  0  0  0  0  0  0  0  0  0
   10.7163  -20.4230   22.3206 C   0  0  0  0  0  0  0  0  0  0  0  0
   10.5578  -21.1727   23.2978 O   0  0  0  0  0  0  0  0  0  0  0  0
   11.9138  -20.3654   21.6337 O   0  0  0  0  0  0  0  0  0  0  0  0
  2  1  1  1
  2  4  1  0
  2  3  1  0
  4  5  2  0
  6  7  1  0
  7  8  2  0
  7 17  1  0
  8  9  1  0
  9 10  2  0
 10 11  1  0
 12 11  1  1
 12 14  1  0
 13 12  1  0
 13  4  1  0
 14 15  2  0
 16 10  1  0
 17 16  2  0
 18 19  1  0
 20 19  1  1
 20 22  1  0
 21 20  1  0
 21 14  1  0
 22 23  2  0
 22 24  1  0
M  END
$$$$
