NYM.pdb
     RDKit          3D

 29 29  0  0  1  0  0  0  0  0999 V2000
    9.3164  -18.1888   16.9772 N   0  0  0  0  0  0  0  0  0  0  0  0
    9.4445  -17.3194   18.0807 C   0  0  0  0  0  0  0  0  0  0  0  0
    9.4259  -16.0834   17.8431 O   0  0  0  0  0  0  0  0  0  0  0  0
    9.5934  -17.8488   19.4541 C   0  0  0  0  0  0  0  0  0  0  0  0
   10.2016  -16.7690   20.3348 C   0  0  2  0  0  0  0  0  0  0  0  0
   11.4641  -16.3134   19.8339 N   0  0  0  0  0  0  0  0  0  0  0  0
   10.2564  -17.1937   21.7479 C   0  0  0  0  0  0  0  0  0  0  0  0
    9.2263  -17.7140   22.2463 O   0  0  0  0  0  0  0  0  0  0  0  0
   13.0687  -23.3678   21.7458 O   0  0  0  0  0  0  0  0  0  0  0  0
   12.9671  -22.1181   22.3571 C   0  0  0  0  0  0  0  0  0  0  0  0
   12.2813  -21.9540   23.5392 C   0  0  0  0  0  0  0  0  0  0  0  0
   12.1607  -20.7362   24.1706 C   0  0  0  0  0  0  0  0  0  0  0  0
   12.7452  -19.5936   23.6202 C   0  0  0  0  0  0  0  0  0  0  0  0
   12.6190  -18.2864   24.2705 C   0  0  0  0  0  0  0  0  0  0  0  0
   11.3511  -17.5410   23.9899 C   0  0  2  0  0  0  0  0  0  0  0  0
   11.3829  -17.0622   22.5956 N   0  0  0  0  0  0  0  0  0  0  0  0
   11.2208  -16.3883   24.9197 C   0  0  0  0  0  0  0  0  0  0  0  0
   11.9252  -15.3673   24.7187 O   0  0  0  0  0  0  0  0  0  0  0  0
   13.4282  -19.7692   22.4383 C   0  0  0  0  0  0  0  0  0  0  0  0
   13.5489  -20.9981   21.8029 C   0  0  0  0  0  0  0  0  0  0  0  0
    5.5146  -12.3211   26.7222 C   0  0  0  0  0  0  0  0  0  0  0  0
    7.2401  -12.3410   26.3419 S   0  0  0  0  0  0  0  0  0  0  0  0
    8.3051  -13.4539   27.1389 C   0  0  0  0  0  0  0  0  0  0  0  0
    8.9873  -14.5798   26.5839 C   0  0  0  0  0  0  0  0  0  0  0  0
   10.2384  -15.2199   26.9374 C   0  0  2  0  0  0  0  0  0  0  0  0
   10.3401  -16.4056   26.0083 N   0  0  0  0  0  0  0  0  0  0  0  0
   10.4571  -15.8135   28.2432 C   0  0  0  0  0  0  0  0  0  0  0  0
   10.9246  -15.2078   29.3876 O   0  0  0  0  0  0  0  0  0  0  0  0
   10.1992  -17.0687   28.4035 O   0  0  0  0  0  0  0  0  0  0  0  0
  1  2  1  0
  2  3  2  0
  4  2  1  0
  4  5  1  0
  5  7  1  0
  5  6  1  6
  7  8  2  0
 10  9  1  0
 10 11  2  0
 12 11  1  0
 13 12  2  0
 14 13  1  0
 15 14  1  1
 16 15  1  0
 16  7  1  0
 17 18  2  0
 17 15  1  0
 19 20  2  0
 19 13  1  0
 20 10  1  0
 22 21  1  0
 22 23  1  0
 23 24  1  0
 25 24  1  1
 25 26  1  0
 25 27  1  0
 26 17  1  0
 27 28  1  0
 29 27  2  0
M  END
$$$$
