NYM.pdb
     RDKit          3D

 29 29  0  0  1  0  0  0  0  0999 V2000
   10.8007  -20.3458   18.9075 N   0  0  0  0  0  0  0  0  0  0  0  0
   10.6716  -19.1575   18.1584 C   0  0  0  0  0  0  0  0  0  0  0  0
   10.8925  -19.2316   16.9214 O   0  0  0  0  0  0  0  0  0  0  0  0
   10.2918  -17.8843   18.8091 C   0  0  0  0  0  0  0  0  0  0  0  0
   10.2120  -18.1037   20.3114 C   0  0  2  0  0  0  0  0  0  0  0  0
    9.0680  -18.8825   20.6819 N   0  0  0  0  0  0  0  0  0  0  0  0
   10.3094  -16.8278   21.0483 C   0  0  0  0  0  0  0  0  0  0  0  0
   11.3430  -16.1314   20.8846 O   0  0  0  0  0  0  0  0  0  0  0  0
    7.0244  -13.4043   16.6962 O   0  0  0  0  0  0  0  0  0  0  0  0
    7.3186  -13.5916   18.0469 C   0  0  0  0  0  0  0  0  0  0  0  0
    6.9015  -14.7175   18.7200 C   0  0  0  0  0  0  0  0  0  0  0  0
    7.1735  -14.9356   20.0522 C   0  0  0  0  0  0  0  0  0  0  0  0
    7.9015  -13.9981   20.7878 C   0  0  0  0  0  0  0  0  0  0  0  0
    8.1919  -14.2060   22.2091 C   0  0  0  0  0  0  0  0  0  0  0  0
    9.4443  -14.9689   22.5115 C   0  0  2  0  0  0  0  0  0  0  0  0
    9.3266  -16.3196   21.9318 N   0  0  0  0  0  0  0  0  0  0  0  0
    9.6417  -15.0629   23.9820 C   0  0  0  0  0  0  0  0  0  0  0  0
   10.2319  -14.1245   24.5736 O   0  0  0  0  0  0  0  0  0  0  0  0
    8.3132  -12.8763   20.1049 C   0  0  0  0  0  0  0  0  0  0  0  0
    8.0381  -12.6579   18.7614 C   0  0  0  0  0  0  0  0  0  0  0  0
    7.0249  -11.5905   26.6556 C   0  0  0  0  0  0  0  0  0  0  0  0
    6.3836  -12.9520   27.5814 S   0  0  0  0  0  0  0  0  0  0  0  0
    6.9312  -14.5673   27.2669 C   0  0  0  0  0  0  0  0  0  0  0  0
    7.7770  -15.0267   26.2112 C   0  0  0  0  0  0  0  0  0  0  0  0
    8.8392  -16.0121   26.1857 C   0  0  2  0  0  0  0  0  0  0  0  0
    9.1912  -16.1609   24.7251 N   0  0  0  0  0  0  0  0  0  0  0  0
    8.6265  -17.3839   26.6078 C   0  0  0  0  0  0  0  0  0  0  0  0
    8.5497  -18.5143   25.8259 O   0  0  0  0  0  0  0  0  0  0  0  0
    8.4807  -17.6284   27.8674 O   0  0  0  0  0  0  0  0  0  0  0  0
  1  2  1  0
  2  3  2  0
  4  2  1  0
  4  5  1  0
  5  7  1  0
  5  6  1  6
  7  8  2  0
 10  9  1  0
 10 11  2  0
 12 11  1  0
 13 12  2  0
 14 13  1  0
 15 14  1  1
 16 15  1  0
 16  7  1  0
 17 18  2  0
 17 15  1  0
 19 20  2  0
 19 13  1  0
 20 10  1  0
 22 21  1  0
 22 23  1  0
 23 24  1  0
 25 24  1  6
 25 26  1  0
 25 27  1  0
 26 17  1  0
 27 28  1  0
 29 27  2  0
M  END
$$$$
