NYM.pdb
     RDKit          3D

 29 29  0  0  1  0  0  0  0  0999 V2000
    6.6568  -21.3501   20.9868 N   0  0  0  0  0  0  0  0  0  0  0  0
    7.5515  -21.4772   22.0700 C   0  0  0  0  0  0  0  0  0  0  0  0
    7.5965  -22.5936   22.6496 O   0  0  0  0  0  0  0  0  0  0  0  0
    8.3963  -20.3404   22.4975 C   0  0  0  0  0  0  0  0  0  0  0  0
    8.1120  -19.1494   21.5964 C   0  0  2  0  0  0  0  0  0  0  0  0
    8.0949  -19.5141   20.2111 N   0  0  0  0  0  0  0  0  0  0  0  0
    9.0208  -18.0230   21.8893 C   0  0  0  0  0  0  0  0  0  0  0  0
   10.1654  -18.0402   21.3701 O   0  0  0  0  0  0  0  0  0  0  0  0
    7.2829  -13.0223   17.6075 O   0  0  0  0  0  0  0  0  0  0  0  0
    7.6814  -13.3851   18.8941 C   0  0  0  0  0  0  0  0  0  0  0  0
    8.9996  -13.6537   19.1852 C   0  0  0  0  0  0  0  0  0  0  0  0
    9.4289  -14.0143   20.4430 C   0  0  0  0  0  0  0  0  0  0  0  0
    8.5187  -14.1233   21.4963 C   0  0  0  0  0  0  0  0  0  0  0  0
    8.9535  -14.5166   22.8395 C   0  0  0  0  0  0  0  0  0  0  0  0
    9.6754  -15.8252   22.9314 C   0  0  2  0  0  0  0  0  0  0  0  0
    8.7070  -16.9156   22.7140 N   0  0  0  0  0  0  0  0  0  0  0  0
   10.3068  -15.9662   24.2700 C   0  0  0  0  0  0  0  0  0  0  0  0
   11.1051  -15.0768   24.6582 O   0  0  0  0  0  0  0  0  0  0  0  0
    7.2035  -13.8528   21.1940 C   0  0  0  0  0  0  0  0  0  0  0  0
    6.7723  -13.4892   19.9250 C   0  0  0  0  0  0  0  0  0  0  0  0
    9.6182  -12.2982   27.7945 C   0  0  0  0  0  0  0  0  0  0  0  0
    9.5445  -13.7719   28.7666 S   0  0  0  0  0  0  0  0  0  0  0  0
   10.3547  -15.2135   28.2441 C   0  0  0  0  0  0  0  0  0  0  0  0
    9.9232  -16.1715   27.2761 C   0  0  0  0  0  0  0  0  0  0  0  0
   10.6552  -17.1396   26.4842 C   0  0  2  0  0  0  0  0  0  0  0  0
   10.0397  -17.0556   25.1082 N   0  0  0  0  0  0  0  0  0  0  0  0
   10.6099  -18.5610   26.7718 C   0  0  0  0  0  0  0  0  0  0  0  0
    9.8547  -19.5322   26.1541 O   0  0  0  0  0  0  0  0  0  0  0  0
   11.3513  -19.0241   27.7224 O   0  0  0  0  0  0  0  0  0  0  0  0
  1  2  1  0
  2  3  2  0
  4  2  1  0
  4  5  1  0
  5  7  1  0
  5  6  1  6
  7  8  2  0
 10  9  1  0
 10 11  2  0
 12 11  1  0
 13 12  2  0
 14 13  1  0
 15 14  1  1
 16 15  1  0
 16  7  1  0
 17 18  2  0
 17 15  1  0
 19 20  2  0
 19 13  1  0
 20 10  1  0
 22 21  1  0
 22 23  1  0
 23 24  1  0
 25 24  1  1
 25 26  1  0
 25 27  1  0
 26 17  1  0
 27 28  1  0
 29 27  2  0
M  END
$$$$
