NYM.pdb
     RDKit          3D

 29 29  0  0  1  0  0  0  0  0999 V2000
    5.2910  -21.1933   25.1786 N   0  0  0  0  0  0  0  0  0  0  0  0
    6.4916  -20.8418   25.8305 C   0  0  0  0  0  0  0  0  0  0  0  0
    6.5027  -20.9070   27.0876 O   0  0  0  0  0  0  0  0  0  0  0  0
    7.6807  -20.4165   25.0598 C   0  0  0  0  0  0  0  0  0  0  0  0
    7.3214  -20.3750   23.5832 C   0  0  2  0  0  0  0  0  0  0  0  0
    7.6682  -21.5912   22.9102 N   0  0  0  0  0  0  0  0  0  0  0  0
    7.8718  -19.1715   22.9282 C   0  0  0  0  0  0  0  0  0  0  0  0
    9.1131  -19.1215   22.7367 O   0  0  0  0  0  0  0  0  0  0  0  0
    8.5950  -11.4848   18.3843 O   0  0  0  0  0  0  0  0  0  0  0  0
    8.1336  -12.5984   19.0862 C   0  0  0  0  0  0  0  0  0  0  0  0
    8.1609  -13.8566   18.5288 C   0  0  0  0  0  0  0  0  0  0  0  0
    7.7142  -14.9778   19.1919 C   0  0  0  0  0  0  0  0  0  0  0  0
    7.2040  -14.8764   20.4878 C   0  0  0  0  0  0  0  0  0  0  0  0
    6.7132  -16.0556   21.2063 C   0  0  0  0  0  0  0  0  0  0  0  0
    7.7571  -16.8748   21.9000 C   0  0  2  0  0  0  0  0  0  0  0  0
    7.1105  -18.0592   22.4945 N   0  0  0  0  0  0  0  0  0  0  0  0
    8.4154  -16.0690   22.9618 C   0  0  0  0  0  0  0  0  0  0  0  0
    9.1956  -15.1443   22.6221 O   0  0  0  0  0  0  0  0  0  0  0  0
    7.1812  -13.6138   21.0352 C   0  0  0  0  0  0  0  0  0  0  0  0
    7.6322  -12.4842   20.3651 C   0  0  0  0  0  0  0  0  0  0  0  0
    6.8952  -10.7671   27.7035 C   0  0  0  0  0  0  0  0  0  0  0  0
    7.3981  -11.9329   26.4746 S   0  0  0  0  0  0  0  0  0  0  0  0
    6.9013  -13.5914   26.5778 C   0  0  0  0  0  0  0  0  0  0  0  0
    7.2447  -14.6750   25.7125 C   0  0  0  0  0  0  0  0  0  0  0  0
    8.5232  -15.2563   25.3553 C   0  0  2  0  0  0  0  0  0  0  0  0
    8.1931  -16.3078   24.3235 N   0  0  0  0  0  0  0  0  0  0  0  0
    9.3311  -15.9870   26.3137 C   0  0  0  0  0  0  0  0  0  0  0  0
   10.3138  -15.5012   27.1464 O   0  0  0  0  0  0  0  0  0  0  0  0
    9.1462  -17.2592   26.4367 O   0  0  0  0  0  0  0  0  0  0  0  0
  1  2  1  0
  2  3  2  0
  4  2  1  0
  4  5  1  0
  5  7  1  0
  5  6  1  6
  7  8  2  0
 10  9  1  0
 10 11  2  0
 12 11  1  0
 13 12  2  0
 14 13  1  0
 15 14  1  1
 16 15  1  0
 16  7  1  0
 17 18  2  0
 17 15  1  0
 19 20  2  0
 19 13  1  0
 20 10  1  0
 22 21  1  0
 22 23  1  0
 23 24  1  0
 25 24  1  1
 25 26  1  0
 25 27  1  0
 26 17  1  0
 27 28  1  0
 29 27  2  0
M  END
$$$$
