NYM.pdb
     RDKit          3D

 29 29  0  0  1  0  0  0  0  0999 V2000
   12.1019  -19.6836   18.5860 N   0  0  0  0  0  0  0  0  0  0  0  0
   10.7581  -19.2649   18.6797 C   0  0  0  0  0  0  0  0  0  0  0  0
    9.8734  -20.0938   18.3413 O   0  0  0  0  0  0  0  0  0  0  0  0
   10.4149  -17.9073   19.1573 C   0  0  0  0  0  0  0  0  0  0  0  0
   10.1417  -17.9655   20.6517 C   0  0  2  0  0  0  0  0  0  0  0  0
    8.9981  -18.7717   20.9592 N   0  0  0  0  0  0  0  0  0  0  0  0
   10.0738  -16.6128   21.2401 C   0  0  0  0  0  0  0  0  0  0  0  0
   11.1147  -15.9085   21.2174 O   0  0  0  0  0  0  0  0  0  0  0  0
    7.6828  -13.6570   16.0887 O   0  0  0  0  0  0  0  0  0  0  0  0
    7.7007  -13.7271   17.4817 C   0  0  0  0  0  0  0  0  0  0  0  0
    8.3147  -12.7551   18.2387 C   0  0  0  0  0  0  0  0  0  0  0  0
    8.3518  -12.7917   19.6148 C   0  0  0  0  0  0  0  0  0  0  0  0
    7.7521  -13.8435   20.3104 C   0  0  0  0  0  0  0  0  0  0  0  0
    7.7902  -13.9068   21.7740 C   0  0  0  0  0  0  0  0  0  0  0  0
    8.9417  -14.6622   22.3619 C   0  0  2  0  0  0  0  0  0  0  0  0
    8.9234  -16.0385   21.8330 N   0  0  0  0  0  0  0  0  0  0  0  0
    8.8321  -14.6864   23.8443 C   0  0  0  0  0  0  0  0  0  0  0  0
    8.8592  -13.5970   24.4699 O   0  0  0  0  0  0  0  0  0  0  0  0
    7.1414  -14.8097   19.5437 C   0  0  0  0  0  0  0  0  0  0  0  0
    7.1048  -14.7712   18.1560 C   0  0  0  0  0  0  0  0  0  0  0  0
    7.5007  -11.5520   27.7278 C   0  0  0  0  0  0  0  0  0  0  0  0
    6.2743  -12.6912   27.1618 S   0  0  0  0  0  0  0  0  0  0  0  0
    6.6404  -13.8264   25.9026 C   0  0  0  0  0  0  0  0  0  0  0  0
    7.0010  -15.2031   26.0277 C   0  0  0  0  0  0  0  0  0  0  0  0
    8.2885  -15.8680   26.0144 C   0  0  2  0  0  0  0  0  0  0  0  0
    8.6997  -15.8816   24.5618 N   0  0  0  0  0  0  0  0  0  0  0  0
    8.4415  -17.2567   26.4061 C   0  0  0  0  0  0  0  0  0  0  0  0
    8.6706  -17.7676   27.6637 O   0  0  0  0  0  0  0  0  0  0  0  0
    8.3652  -18.1688   25.4950 O   0  0  0  0  0  0  0  0  0  0  0  0
  1  2  1  0
  2  3  2  0
  4  2  1  0
  4  5  1  0
  5  7  1  0
  5  6  1  6
  7  8  2  0
 10  9  1  0
 10 11  2  0
 12 11  1  0
 13 12  2  0
 14 13  1  0
 15 14  1  6
 16 15  1  0
 16  7  1  0
 17 18  2  0
 17 15  1  0
 19 20  2  0
 19 13  1  0
 20 10  1  0
 22 21  1  0
 22 23  1  0
 23 24  1  0
 25 24  1  6
 25 26  1  0
 25 27  1  0
 26 17  1  0
 27 28  1  0
 29 27  2  0
M  END
$$$$
