NYM.pdb
     RDKit          3D

 29 29  0  0  1  0  0  0  0  0999 V2000
    7.6363  -19.1849   17.0357 N   0  0  0  0  0  0  0  0  0  0  0  0
    8.5606  -19.5119   18.0500 C   0  0  0  0  0  0  0  0  0  0  0  0
    8.6946  -20.7310   18.3335 O   0  0  0  0  0  0  0  0  0  0  0  0
    9.3344  -18.4589   18.7437 C   0  0  0  0  0  0  0  0  0  0  0  0
    8.9967  -18.4952   20.2256 C   0  0  2  0  0  0  0  0  0  0  0  0
    7.5857  -18.5918   20.4542 N   0  0  0  0  0  0  0  0  0  0  0  0
    9.6270  -17.3732   20.9496 C   0  0  0  0  0  0  0  0  0  0  0  0
   10.8784  -17.2674   20.8962 O   0  0  0  0  0  0  0  0  0  0  0  0
    7.6704  -13.3779   16.4126 O   0  0  0  0  0  0  0  0  0  0  0  0
    7.9571  -13.5268   17.7696 C   0  0  0  0  0  0  0  0  0  0  0  0
    9.2552  -13.5721   18.2253 C   0  0  0  0  0  0  0  0  0  0  0  0
    9.5754  -13.7178   19.5567 C   0  0  0  0  0  0  0  0  0  0  0  0
    8.5685  -13.8278   20.5180 C   0  0  0  0  0  0  0  0  0  0  0  0
    8.8881  -13.9948   21.9384 C   0  0  0  0  0  0  0  0  0  0  0  0
    9.6352  -15.2429   22.2938 C   0  0  2  0  0  0  0  0  0  0  0  0
    8.9324  -16.3981   21.7057 N   0  0  0  0  0  0  0  0  0  0  0  0
    9.7072  -15.3908   23.7713 C   0  0  0  0  0  0  0  0  0  0  0  0
   10.4696  -14.6298   24.4182 O   0  0  0  0  0  0  0  0  0  0  0  0
    7.2745  -13.7814   20.0512 C   0  0  0  0  0  0  0  0  0  0  0  0
    6.9534  -13.6343   18.7082 C   0  0  0  0  0  0  0  0  0  0  0  0
    6.8125  -11.4457   27.9850 C   0  0  0  0  0  0  0  0  0  0  0  0
    7.1347  -12.5467   26.6411 S   0  0  0  0  0  0  0  0  0  0  0  0
    7.1282  -14.2635   26.8874 C   0  0  0  0  0  0  0  0  0  0  0  0
    7.5035  -15.2920   25.9697 C   0  0  0  0  0  0  0  0  0  0  0  0
    8.6491  -16.1786   25.9303 C   0  0  2  0  0  0  0  0  0  0  0  0
    8.9539  -16.3485   24.4614 N   0  0  0  0  0  0  0  0  0  0  0  0
    8.5795  -17.5476   26.4059 C   0  0  0  0  0  0  0  0  0  0  0  0
    8.7325  -18.0119   27.6928 O   0  0  0  0  0  0  0  0  0  0  0  0
    8.3510  -18.4888   25.5516 O   0  0  0  0  0  0  0  0  0  0  0  0
  1  2  1  0
  2  3  2  0
  4  2  1  0
  4  5  1  0
  5  7  1  0
  5  6  1  6
  7  8  2  0
 10  9  1  0
 10 11  2  0
 12 11  1  0
 13 12  2  0
 14 13  1  0
 15 14  1  1
 16 15  1  0
 16  7  1  0
 17 18  2  0
 17 15  1  0
 19 20  2  0
 19 13  1  0
 20 10  1  0
 22 21  1  0
 22 23  1  0
 23 24  1  0
 25 24  1  6
 25 26  1  0
 25 27  1  0
 26 17  1  0
 27 28  1  0
 29 27  2  0
M  END
$$$$
