NYM.pdb
     RDKit          3D

 29 29  0  0  1  0  0  0  0  0999 V2000
    8.6786  -20.8410   18.7527 N   0  0  0  0  0  0  0  0  0  0  0  0
    8.5468  -19.6238   18.0519 C   0  0  0  0  0  0  0  0  0  0  0  0
    8.2636  -19.6939   16.8275 O   0  0  0  0  0  0  0  0  0  0  0  0
    8.7353  -18.3262   18.7371 C   0  0  0  0  0  0  0  0  0  0  0  0
    9.1796  -18.5848   20.1679 C   0  0  2  0  0  0  0  0  0  0  0  0
    8.1146  -19.0954   20.9786 N   0  0  0  0  0  0  0  0  0  0  0  0
    9.8358  -17.3975   20.7512 C   0  0  0  0  0  0  0  0  0  0  0  0
   10.8788  -16.9692   20.1955 O   0  0  0  0  0  0  0  0  0  0  0  0
    6.8846  -12.7366   17.4636 O   0  0  0  0  0  0  0  0  0  0  0  0
    7.4441  -13.1312   18.6789 C   0  0  0  0  0  0  0  0  0  0  0  0
    6.7071  -13.8208   19.6148 C   0  0  0  0  0  0  0  0  0  0  0  0
    7.2262  -14.2262   20.8242 C   0  0  0  0  0  0  0  0  0  0  0  0
    8.5538  -13.9450   21.1536 C   0  0  0  0  0  0  0  0  0  0  0  0
    9.1219  -14.3576   22.4399 C   0  0  0  0  0  0  0  0  0  0  0  0
   10.0903  -15.4984   22.3864 C   0  0  2  0  0  0  0  0  0  0  0  0
    9.3837  -16.6956   21.8948 N   0  0  0  0  0  0  0  0  0  0  0  0
   10.6479  -15.7579   23.7399 C   0  0  0  0  0  0  0  0  0  0  0  0
   11.2932  -14.8445   24.3127 O   0  0  0  0  0  0  0  0  0  0  0  0
    9.2811  -13.2550   20.2107 C   0  0  0  0  0  0  0  0  0  0  0  0
    8.7562  -12.8471   18.9915 C   0  0  0  0  0  0  0  0  0  0  0  0
    9.5118  -13.5935   29.9307 C   0  0  0  0  0  0  0  0  0  0  0  0
    9.9935  -14.1774   28.3341 S   0  0  0  0  0  0  0  0  0  0  0  0
    9.3920  -15.6878   27.7298 C   0  0  0  0  0  0  0  0  0  0  0  0
    9.5791  -16.2622   26.4352 C   0  0  0  0  0  0  0  0  0  0  0  0
   10.6367  -17.0899   25.8909 C   0  0  2  0  0  0  0  0  0  0  0  0
   10.4760  -16.9844   24.3934 N   0  0  0  0  0  0  0  0  0  0  0  0
   10.6821  -18.5235   26.1103 C   0  0  0  0  0  0  0  0  0  0  0  0
   10.4087  -19.5322   25.2144 O   0  0  0  0  0  0  0  0  0  0  0  0
   11.0118  -18.9605   27.2800 O   0  0  0  0  0  0  0  0  0  0  0  0
  1  2  1  0
  2  3  2  0
  4  2  1  0
  4  5  1  0
  5  7  1  0
  5  6  1  1
  7  8  2  0
 10  9  1  0
 10 11  2  0
 12 11  1  0
 13 12  2  0
 14 13  1  0
 15 14  1  1
 16 15  1  0
 16  7  1  0
 17 18  2  0
 17 15  1  0
 19 20  2  0
 19 13  1  0
 20 10  1  0
 22 21  1  0
 22 23  1  0
 23 24  1  0
 25 24  1  1
 25 26  1  0
 25 27  1  0
 26 17  1  0
 27 28  1  0
 29 27  2  0
M  END
$$$$
