NYM.pdb
     RDKit          3D

 29 29  0  0  1  0  0  0  0  0999 V2000
    9.2032  -14.7176   16.2914 N   0  0  0  0  0  0  0  0  0  0  0  0
    8.3392  -13.9407   17.0914 C   0  0  0  0  0  0  0  0  0  0  0  0
    8.1135  -12.7611   16.7146 O   0  0  0  0  0  0  0  0  0  0  0  0
    7.7298  -14.4989   18.3185 C   0  0  0  0  0  0  0  0  0  0  0  0
    8.2401  -15.9167   18.5207 C   0  0  2  0  0  0  0  0  0  0  0  0
    7.7889  -16.8036   17.4901 N   0  0  0  0  0  0  0  0  0  0  0  0
    7.9423  -16.4077   19.8811 C   0  0  0  0  0  0  0  0  0  0  0  0
    6.7357  -16.5251   20.2132 O   0  0  0  0  0  0  0  0  0  0  0  0
    8.5394  -20.9423   27.5360 O   0  0  0  0  0  0  0  0  0  0  0  0
    8.7500  -20.3387   26.2962 C   0  0  0  0  0  0  0  0  0  0  0  0
    7.8263  -20.4484   25.2816 C   0  0  0  0  0  0  0  0  0  0  0  0
    8.0007  -19.8663   24.0458 C   0  0  0  0  0  0  0  0  0  0  0  0
    9.1508  -19.1240   23.7701 C   0  0  0  0  0  0  0  0  0  0  0  0
    9.3607  -18.5060   22.4579 C   0  0  0  0  0  0  0  0  0  0  0  0
    8.5179  -17.3037   22.1639 C   0  0  2  0  0  0  0  0  0  0  0  0
    8.9118  -16.7600   20.8510 N   0  0  0  0  0  0  0  0  0  0  0  0
    8.7123  -16.2744   23.2188 C   0  0  0  0  0  0  0  0  0  0  0  0
    9.7579  -15.5778   23.1978 O   0  0  0  0  0  0  0  0  0  0  0  0
   10.0675  -19.0210   24.7915 C   0  0  0  0  0  0  0  0  0  0  0  0
    9.8901  -19.6087   26.0371 C   0  0  0  0  0  0  0  0  0  0  0  0
    6.4457  -10.6116   27.7590 C   0  0  0  0  0  0  0  0  0  0  0  0
    7.1115  -11.7633   26.5960 S   0  0  0  0  0  0  0  0  0  0  0  0
    6.3136  -13.2737   26.2963 C   0  0  0  0  0  0  0  0  0  0  0  0
    6.7310  -14.3432   25.4461 C   0  0  0  0  0  0  0  0  0  0  0  0
    8.0061  -15.0152   25.2965 C   0  0  2  0  0  0  0  0  0  0  0  0
    7.7691  -16.0581   24.2309 N   0  0  0  0  0  0  0  0  0  0  0  0
    8.6020  -15.7837   26.3733 C   0  0  0  0  0  0  0  0  0  0  0  0
    9.5701  -15.3883   27.2686 O   0  0  0  0  0  0  0  0  0  0  0  0
    8.2115  -17.0012   26.5545 O   0  0  0  0  0  0  0  0  0  0  0  0
  1  2  1  0
  2  3  2  0
  4  2  1  0
  4  5  1  0
  5  7  1  0
  5  6  1  6
  7  8  2  0
 10  9  1  0
 10 11  2  0
 12 11  1  0
 13 12  2  0
 14 13  1  0
 15 14  1  1
 16 15  1  0
 16  7  1  0
 17 18  2  0
 17 15  1  0
 19 20  2  0
 19 13  1  0
 20 10  1  0
 22 21  1  0
 22 23  1  0
 23 24  1  0
 25 24  1  1
 25 26  1  0
 25 27  1  0
 26 17  1  0
 27 28  1  0
 29 27  2  0
M  END
$$$$
