NYM.pdb
     RDKit          3D

 29 29  0  0  1  0  0  0  0  0999 V2000
    6.2655  -20.8870   20.3306 N   0  0  0  0  0  0  0  0  0  0  0  0
    6.6977  -20.0564   19.2754 C   0  0  0  0  0  0  0  0  0  0  0  0
    6.3762  -20.3978   18.1073 O   0  0  0  0  0  0  0  0  0  0  0  0
    7.4939  -18.8383   19.5420 C   0  0  0  0  0  0  0  0  0  0  0  0
    7.7981  -18.7648   21.0298 C   0  0  2  0  0  0  0  0  0  0  0  0
    6.6066  -18.6650   21.8189 N   0  0  0  0  0  0  0  0  0  0  0  0
    8.7820  -17.7045   21.3268 C   0  0  0  0  0  0  0  0  0  0  0  0
    9.9692  -17.8823   20.9540 O   0  0  0  0  0  0  0  0  0  0  0  0
    7.6530  -13.0027   16.5415 O   0  0  0  0  0  0  0  0  0  0  0  0
    7.9868  -13.2821   17.8667 C   0  0  0  0  0  0  0  0  0  0  0  0
    7.0347  -13.2738   18.8608 C   0  0  0  0  0  0  0  0  0  0  0  0
    7.3277  -13.5447   20.1788 C   0  0  0  0  0  0  0  0  0  0  0  0
    8.6355  -13.8458   20.5647 C   0  0  0  0  0  0  0  0  0  0  0  0
    8.9702  -14.1259   21.9637 C   0  0  0  0  0  0  0  0  0  0  0  0
    9.5438  -15.4821   22.2355 C   0  0  2  0  0  0  0  0  0  0  0  0
    8.4965  -16.4936   22.0028 N   0  0  0  0  0  0  0  0  0  0  0  0
   10.0227  -15.5609   23.6407 C   0  0  0  0  0  0  0  0  0  0  0  0
   11.0515  -14.9166   23.9654 O   0  0  0  0  0  0  0  0  0  0  0  0
    9.5792  -13.8510   19.5629 C   0  0  0  0  0  0  0  0  0  0  0  0
    9.2820  -13.5776   18.2342 C   0  0  0  0  0  0  0  0  0  0  0  0
    6.8708  -11.4736   26.3272 C   0  0  0  0  0  0  0  0  0  0  0  0
    6.5151  -12.9595   27.2147 S   0  0  0  0  0  0  0  0  0  0  0  0
    7.6606  -14.2614   27.2481 C   0  0  0  0  0  0  0  0  0  0  0  0
    8.2101  -14.9870   26.1470 C   0  0  0  0  0  0  0  0  0  0  0  0
    9.3394  -15.8903   26.0543 C   0  0  2  0  0  0  0  0  0  0  0  0
    9.3646  -16.3282   24.6097 N   0  0  0  0  0  0  0  0  0  0  0  0
    9.3787  -17.1496   26.7740 C   0  0  0  0  0  0  0  0  0  0  0  0
    9.3104  -18.4261   26.2630 O   0  0  0  0  0  0  0  0  0  0  0  0
    9.4866  -17.1241   28.0606 O   0  0  0  0  0  0  0  0  0  0  0  0
  1  2  1  0
  2  3  2  0
  4  2  1  0
  4  5  1  0
  5  7  1  0
  5  6  1  1
  7  8  2  0
 10  9  1  0
 10 11  2  0
 12 11  1  0
 13 12  2  0
 14 13  1  0
 15 14  1  1
 16 15  1  0
 16  7  1  0
 17 18  2  0
 17 15  1  0
 19 20  2  0
 19 13  1  0
 20 10  1  0
 22 21  1  0
 22 23  1  0
 23 24  1  0
 25 24  1  6
 25 26  1  0
 25 27  1  0
 26 17  1  0
 27 28  1  0
 29 27  2  0
M  END
$$$$
