NYM.pdb
     RDKit          3D

 29 29  0  0  1  0  0  0  0  0999 V2000
    5.4501  -20.4082   21.6943 N   0  0  0  0  0  0  0  0  0  0  0  0
    6.8042  -20.6931   21.4203 C   0  0  0  0  0  0  0  0  0  0  0  0
    7.0552  -21.7772   20.8319 O   0  0  0  0  0  0  0  0  0  0  0  0
    7.8753  -19.7507   21.8118 C   0  0  0  0  0  0  0  0  0  0  0  0
    7.9148  -18.6069   20.8111 C   0  0  2  0  0  0  0  0  0  0  0  0
    8.2545  -19.0555   19.4936 N   0  0  0  0  0  0  0  0  0  0  0  0
    8.7721  -17.5031   21.2879 C   0  0  0  0  0  0  0  0  0  0  0  0
   10.0106  -17.5939   21.0933 O   0  0  0  0  0  0  0  0  0  0  0  0
    7.7607  -13.1896   16.4214 O   0  0  0  0  0  0  0  0  0  0  0  0
    7.9688  -13.3751   17.7882 C   0  0  0  0  0  0  0  0  0  0  0  0
    9.2334  -13.3378   18.3304 C   0  0  0  0  0  0  0  0  0  0  0  0
    9.4762  -13.5164   19.6740 C   0  0  0  0  0  0  0  0  0  0  0  0
    8.4207  -13.7478   20.5585 C   0  0  0  0  0  0  0  0  0  0  0  0
    8.6588  -13.9516   21.9901 C   0  0  0  0  0  0  0  0  0  0  0  0
    9.2426  -15.2773   22.3693 C   0  0  2  0  0  0  0  0  0  0  0  0
    8.3105  -16.3410   21.9521 N   0  0  0  0  0  0  0  0  0  0  0  0
    9.4575  -15.3382   23.8391 C   0  0  0  0  0  0  0  0  0  0  0  0
   10.1283  -14.4295   24.3898 O   0  0  0  0  0  0  0  0  0  0  0  0
    7.1608  -13.7833   20.0056 C   0  0  0  0  0  0  0  0  0  0  0  0
    6.9177  -13.6029   18.6503 C   0  0  0  0  0  0  0  0  0  0  0  0
    6.3418  -11.4545   27.7688 C   0  0  0  0  0  0  0  0  0  0  0  0
    7.3117  -12.7148   26.9985 S   0  0  0  0  0  0  0  0  0  0  0  0
    6.5525  -14.1150   26.3122 C   0  0  0  0  0  0  0  0  0  0  0  0
    7.1611  -15.1942   25.6010 C   0  0  0  0  0  0  0  0  0  0  0  0
    8.2592  -16.0763   25.9416 C   0  0  2  0  0  0  0  0  0  0  0  0
    8.9368  -16.3732   24.6255 N   0  0  0  0  0  0  0  0  0  0  0  0
    8.0402  -17.3986   26.4973 C   0  0  0  0  0  0  0  0  0  0  0  0
    8.0498  -17.7798   27.8201 O   0  0  0  0  0  0  0  0  0  0  0  0
    7.8064  -18.3786   25.6895 O   0  0  0  0  0  0  0  0  0  0  0  0
  1  2  1  0
  2  3  2  0
  4  2  1  0
  4  5  1  0
  5  7  1  0
  5  6  1  6
  7  8  2  0
 10  9  1  0
 10 11  2  0
 12 11  1  0
 13 12  2  0
 14 13  1  0
 15 14  1  1
 16 15  1  0
 16  7  1  0
 17 18  2  0
 17 15  1  0
 19 20  2  0
 19 13  1  0
 20 10  1  0
 22 21  1  0
 22 23  1  0
 23 24  1  0
 25 24  1  6
 25 26  1  0
 25 27  1  0
 26 17  1  0
 27 28  1  0
 29 27  2  0
M  END
$$$$
