PNQ.pdb
     RDKit          3D

 25 25  0  0  1  0  0  0  0  0999 V2000
   22.8646  -13.4954  -19.0369 N   0  0  0  0  0  0  0  0  0  0  0  0
   23.1721  -14.8865  -19.3214 C   0  0  0  0  0  0  0  0  0  0  0  0
   23.5535  -15.3512  -17.9096 C   0  0  0  0  0  0  0  0  0  0  0  0
   22.3294  -14.8269  -17.1492 C   0  0  0  0  0  0  0  0  0  0  0  0
   22.1534  -13.4613  -17.7804 C   0  0  1  0  0  0  0  0  0  0  0  0
   22.7337  -12.4661  -16.8422 C   0  0  0  0  0  0  0  0  0  0  0  0
   22.3156  -12.3902  -15.6418 O   0  0  0  0  0  0  0  0  0  0  0  0
   25.8741  -12.4827  -15.2539 N   0  0  0  0  0  0  0  0  0  0  0  0
   26.5652  -11.5015  -16.0134 C   0  0  0  0  0  0  0  0  0  0  0  0
   27.8020  -11.6468  -16.1686 O   0  0  0  0  0  0  0  0  0  0  0  0
   25.7935  -10.3677  -16.5773 C   0  0  0  0  0  0  0  0  0  0  0  0
   24.3003  -10.5628  -16.3266 C   0  0  2  0  0  0  0  0  0  0  0  0
   23.7591  -11.5684  -17.2167 N   0  0  0  0  0  0  0  0  0  0  0  0
   23.5617   -9.2923  -16.4878 C   0  0  0  0  0  0  0  0  0  0  0  0
   23.3804   -8.8625  -17.6514 O   0  0  0  0  0  0  0  0  0  0  0  0
   18.6622   -9.7722  -17.5559 N   0  0  0  0  0  0  0  0  0  0  0  0
   18.4866   -8.3998  -17.2272 C   0  0  0  0  0  0  0  0  0  0  0  0
   17.3800   -7.8840  -17.4861 O   0  0  0  0  0  0  0  0  0  0  0  0
   19.6064   -7.6899  -16.6133 C   0  0  0  0  0  0  0  0  0  0  0  0
   20.8287   -8.4895  -16.3593 C   0  0  0  0  0  0  0  0  0  0  0  0
   21.8620   -7.7361  -15.6204 C   0  0  2  0  0  0  0  0  0  0  0  0
   23.0631   -8.5628  -15.3803 N   0  0  0  0  0  0  0  0  0  0  0  0
   21.4291   -7.0805  -14.3880 C   0  0  0  0  0  0  0  0  0  0  0  0
   21.7764   -7.5377  -13.2422 O   0  0  0  0  0  0  0  0  0  0  0  0
   20.6378   -5.9490  -14.3233 O   0  0  0  0  0  0  0  0  0  0  0  0
  2  1  1  0
  3  2  1  0
  4  3  1  0
  4  5  1  0
  5  6  1  1
  5  1  1  0
  6  7  2  0
  9  8  1  0
 10  9  2  0
 11  9  1  0
 12 11  1  6
 13 12  1  0
 13  6  1  0
 14 12  1  0
 14 15  2  0
 16 17  1  0
 17 19  1  0
 18 17  2  0
 19 20  1  0
 21 20  1  1
 21 22  1  0
 21 23  1  0
 22 14  1  0
 23 24  2  0
 23 25  1  0
M  END
$$$$
