PNQ.pdb
     RDKit          3D

 25 25  0  0  1  0  0  0  0  0999 V2000
   23.5032  -10.3235  -16.3507 N   0  0  0  0  0  0  0  0  0  0  0  0
   23.9848  -11.6593  -16.0437 C   0  0  0  0  0  0  0  0  0  0  0  0
   22.7408  -12.2171  -15.3395 C   0  0  0  0  0  0  0  0  0  0  0  0
   21.6881  -11.8488  -16.3919 C   0  0  0  0  0  0  0  0  0  0  0  0
   22.1269  -10.4492  -16.7701 C   0  0  1  0  0  0  0  0  0  0  0  0
   21.2391   -9.5010  -16.0490 C   0  0  0  0  0  0  0  0  0  0  0  0
   20.0026   -9.4235  -16.3431 O   0  0  0  0  0  0  0  0  0  0  0  0
   18.6821   -9.1874  -13.6569 N   0  0  0  0  0  0  0  0  0  0  0  0
   19.5458   -8.8854  -12.5706 C   0  0  0  0  0  0  0  0  0  0  0  0
   19.2330   -9.3216  -11.4363 O   0  0  0  0  0  0  0  0  0  0  0  0
   20.7610   -8.0773  -12.8341 C   0  0  0  0  0  0  0  0  0  0  0  0
   20.8499   -7.7166  -14.3149 C   0  0  2  0  0  0  0  0  0  0  0  0
   21.7025   -8.6513  -15.0189 N   0  0  0  0  0  0  0  0  0  0  0  0
   21.3490   -6.3371  -14.4989 C   0  0  0  0  0  0  0  0  0  0  0  0
   20.7643   -5.4145  -13.8837 O   0  0  0  0  0  0  0  0  0  0  0  0
   26.7960   -3.8604  -16.7387 N   0  0  0  0  0  0  0  0  0  0  0  0
   25.9531   -2.7462  -16.4737 C   0  0  0  0  0  0  0  0  0  0  0  0
   26.4473   -1.6077  -16.6052 O   0  0  0  0  0  0  0  0  0  0  0  0
   24.5742   -3.0071  -16.0668 C   0  0  0  0  0  0  0  0  0  0  0  0
   24.1861   -4.4327  -15.9442 C   0  0  0  0  0  0  0  0  0  0  0  0
   22.7880   -4.6090  -15.5020 C   0  0  2  0  0  0  0  0  0  0  0  0
   22.4512   -6.0385  -15.3375 N   0  0  0  0  0  0  0  0  0  0  0  0
   21.7671   -3.9235  -16.2918 C   0  0  0  0  0  0  0  0  0  0  0  0
   21.1813   -4.5152  -17.2662 O   0  0  0  0  0  0  0  0  0  0  0  0
   21.3387   -2.6256  -16.0855 O   0  0  0  0  0  0  0  0  0  0  0  0
  2  1  1  0
  3  2  1  0
  4  3  1  0
  4  5  1  0
  5  6  1  1
  5  1  1  0
  6  7  2  0
  9  8  1  0
 10  9  2  0
 11  9  1  0
 12 11  1  1
 13 12  1  0
 13  6  1  0
 14 12  1  0
 14 15  2  0
 16 17  1  0
 17 19  1  0
 18 17  2  0
 19 20  1  0
 21 20  1  6
 21 22  1  0
 21 23  1  0
 22 14  1  0
 23 24  2  0
 23 25  1  0
M  END
$$$$
