PNQ.pdb
     RDKit          3D

 25 25  0  0  1  0  0  0  0  0999 V2000
   22.7608  -16.0992  -18.1294 N   0  0  0  0  0  0  0  0  0  0  0  0
   22.9147  -17.5390  -18.0116 C   0  0  0  0  0  0  0  0  0  0  0  0
   23.1304  -17.6434  -16.4959 C   0  0  0  0  0  0  0  0  0  0  0  0
   21.9276  -16.8154  -16.0281 C   0  0  0  0  0  0  0  0  0  0  0  0
   21.9683  -15.6587  -17.0052 C   0  0  1  0  0  0  0  0  0  0  0  0
   22.5960  -14.5110  -16.3008 C   0  0  0  0  0  0  0  0  0  0  0  0
   22.0810  -14.0503  -15.2312 O   0  0  0  0  0  0  0  0  0  0  0  0
   25.7809  -10.8673  -14.7416 N   0  0  0  0  0  0  0  0  0  0  0  0
   26.5643  -11.6515  -15.6295 C   0  0  0  0  0  0  0  0  0  0  0  0
   27.7968  -11.4209  -15.6808 O   0  0  0  0  0  0  0  0  0  0  0  0
   25.8882  -12.6922  -16.4413 C   0  0  0  0  0  0  0  0  0  0  0  0
   24.4094  -12.7786  -16.0719 C   0  0  2  0  0  0  0  0  0  0  0  0
   23.7726  -13.8796  -16.7637 N   0  0  0  0  0  0  0  0  0  0  0  0
   23.7082  -11.5136  -16.3782 C   0  0  0  0  0  0  0  0  0  0  0  0
   23.4206  -11.2769  -17.5752 O   0  0  0  0  0  0  0  0  0  0  0  0
   19.2877   -8.5353  -13.1724 N   0  0  0  0  0  0  0  0  0  0  0  0
   19.4413   -7.7518  -14.3492 C   0  0  0  0  0  0  0  0  0  0  0  0
   18.5944   -6.8595  -14.5601 O   0  0  0  0  0  0  0  0  0  0  0  0
   20.5721   -8.0426  -15.2275 C   0  0  0  0  0  0  0  0  0  0  0  0
   21.4296   -9.1863  -14.8343 C   0  0  0  0  0  0  0  0  0  0  0  0
   22.5269   -9.4343  -15.7913 C   0  0  2  0  0  0  0  0  0  0  0  0
   23.3598  -10.5802  -15.3708 N   0  0  0  0  0  0  0  0  0  0  0  0
   23.3617   -8.2841  -16.1323 C   0  0  0  0  0  0  0  0  0  0  0  0
   22.8413   -7.2053  -16.5885 O   0  0  0  0  0  0  0  0  0  0  0  0
   24.7371   -8.2326  -16.0054 O   0  0  0  0  0  0  0  0  0  0  0  0
  2  1  1  0
  3  2  1  0
  4  3  1  0
  4  5  1  0
  5  6  1  1
  5  1  1  0
  6  7  2  0
  9  8  1  0
 10  9  2  0
 11  9  1  0
 12 11  1  6
 13 12  1  0
 13  6  1  0
 14 12  1  0
 14 15  2  0
 16 17  1  0
 17 19  1  0
 18 17  2  0
 19 20  1  0
 21 20  1  1
 21 22  1  0
 21 23  1  0
 22 14  1  0
 23 24  2  0
 23 25  1  0
M  END
$$$$
