PNQ.pdb
     RDKit          3D

 25 25  0  0  1  0  0  0  0  0999 V2000
   27.9365  -20.6347  -16.5821 N   0  0  0  0  0  0  0  0  0  0  0  0
   28.4183  -21.9586  -16.2277 C   0  0  0  0  0  0  0  0  0  0  0  0
   27.1525  -22.5145  -15.5617 C   0  0  0  0  0  0  0  0  0  0  0  0
   26.1393  -22.1795  -16.6628 C   0  0  0  0  0  0  0  0  0  0  0  0
   26.5794  -20.7837  -17.0531 C   0  0  1  0  0  0  0  0  0  0  0  0
   25.6544  -19.8298  -16.3883 C   0  0  0  0  0  0  0  0  0  0  0  0
   25.9458  -18.5924  -16.3156 O   0  0  0  0  0  0  0  0  0  0  0  0
   22.3309  -16.0975  -15.4517 N   0  0  0  0  0  0  0  0  0  0  0  0
   21.9445  -17.4189  -15.8003 C   0  0  0  0  0  0  0  0  0  0  0  0
   20.7451  -17.7432  -15.6231 O   0  0  0  0  0  0  0  0  0  0  0  0
   22.9714  -18.3364  -16.3505 C   0  0  0  0  0  0  0  0  0  0  0  0
   23.4621  -19.2962  -15.2695 C   0  0  2  0  0  0  0  0  0  0  0  0
   24.4267  -20.2292  -15.8131 N   0  0  0  0  0  0  0  0  0  0  0  0
   22.3350  -20.0313  -14.6570 C   0  0  0  0  0  0  0  0  0  0  0  0
   21.8490  -20.9962  -15.2928 O   0  0  0  0  0  0  0  0  0  0  0  0
   21.5742  -21.5436   -8.6958 N   0  0  0  0  0  0  0  0  0  0  0  0
   20.4857  -22.1871   -9.3465 C   0  0  0  0  0  0  0  0  0  0  0  0
   19.8215  -23.0072   -8.6802 O   0  0  0  0  0  0  0  0  0  0  0  0
   20.2203  -21.8483  -10.7428 C   0  0  0  0  0  0  0  0  0  0  0  0
   21.1590  -20.8900  -11.3741 C   0  0  0  0  0  0  0  0  0  0  0  0
   20.8415  -20.6283  -12.7926 C   0  0  2  0  0  0  0  0  0  0  0  0
   21.8012  -19.6784  -13.3930 N   0  0  0  0  0  0  0  0  0  0  0  0
   19.4661  -20.2308  -13.0862 C   0  0  0  0  0  0  0  0  0  0  0  0
   19.1326  -18.9939  -13.1255 O   0  0  0  0  0  0  0  0  0  0  0  0
   18.4233  -21.1007  -13.3436 O   0  0  0  0  0  0  0  0  0  0  0  0
  2  1  1  0
  3  2  1  0
  4  3  1  0
  4  5  1  0
  5  6  1  1
  5  1  1  0
  6  7  2  0
  9  8  1  0
 10  9  2  0
 11  9  1  0
 12 11  1  6
 13 12  1  0
 13  6  1  0
 14 12  1  0
 14 15  2  0
 16 17  1  0
 17 19  1  0
 18 17  2  0
 19 20  1  0
 21 20  1  1
 21 22  1  0
 21 23  1  0
 22 14  1  0
 23 24  2  0
 23 25  1  0
M  END
$$$$
