PNQ.pdb
     RDKit          3D

 25 25  0  0  1  0  0  0  0  0999 V2000
   17.5677  -11.4078  -14.4801 N   0  0  0  0  0  0  0  0  0  0  0  0
   16.5246  -12.4178  -14.5301 C   0  0  0  0  0  0  0  0  0  0  0  0
   15.2995  -11.5223  -14.3028 C   0  0  0  0  0  0  0  0  0  0  0  0
   15.5853  -10.4558  -15.3670 C   0  0  0  0  0  0  0  0  0  0  0  0
   17.0737  -10.2455  -15.1808 C   0  0  1  0  0  0  0  0  0  0  0  0
   17.2451   -9.0037  -14.3834 C   0  0  0  0  0  0  0  0  0  0  0  0
   16.9372   -7.8713  -14.8779 O   0  0  0  0  0  0  0  0  0  0  0  0
   16.8975   -5.8298   -9.8612 N   0  0  0  0  0  0  0  0  0  0  0  0
   17.8228   -6.9022   -9.9656 C   0  0  0  0  0  0  0  0  0  0  0  0
   18.8975   -6.8116   -9.3239 O   0  0  0  0  0  0  0  0  0  0  0  0
   17.4712   -8.0617  -10.8206 C   0  0  0  0  0  0  0  0  0  0  0  0
   17.8936   -7.8057  -12.2652 C   0  0  2  0  0  0  0  0  0  0  0  0
   17.7460   -9.0057  -13.0618 N   0  0  0  0  0  0  0  0  0  0  0  0
   19.2878   -7.3189  -12.3351 C   0  0  0  0  0  0  0  0  0  0  0  0
   20.1845   -8.0313  -11.8251 O   0  0  0  0  0  0  0  0  0  0  0  0
   23.0398   -7.9511  -16.1484 N   0  0  0  0  0  0  0  0  0  0  0  0
   22.0817   -6.9689  -16.5220 C   0  0  0  0  0  0  0  0  0  0  0  0
   21.8849   -6.7931  -17.7419 O   0  0  0  0  0  0  0  0  0  0  0  0
   21.3973   -6.2353  -15.4599 C   0  0  0  0  0  0  0  0  0  0  0  0
   21.7294   -6.6323  -14.0706 C   0  0  0  0  0  0  0  0  0  0  0  0
   21.0699   -5.7817  -13.0593 C   0  0  2  0  0  0  0  0  0  0  0  0
   19.6286   -6.0903  -12.9529 N   0  0  0  0  0  0  0  0  0  0  0  0
   21.2838   -4.3414  -13.1848 C   0  0  0  0  0  0  0  0  0  0  0  0
   20.3019   -3.5465  -13.4010 O   0  0  0  0  0  0  0  0  0  0  0  0
   22.5076   -3.7064  -13.0871 O   0  0  0  0  0  0  0  0  0  0  0  0
  2  1  1  0
  3  2  1  0
  4  3  1  0
  4  5  1  0
  5  6  1  1
  5  1  1  0
  6  7  2  0
  9  8  1  0
 10  9  2  0
 11  9  1  0
 12 11  1  1
 13 12  1  0
 13  6  1  0
 14 12  1  0
 14 15  2  0
 16 17  1  0
 17 19  1  0
 18 17  2  0
 19 20  1  0
 21 20  1  6
 21 22  1  0
 21 23  1  0
 22 14  1  0
 23 24  2  0
 23 25  1  0
M  END
$$$$
