PNQ.pdb
     RDKit          3D

 25 25  0  0  1  0  0  0  0  0999 V2000
   18.9298  -24.5929   -9.1464 N   0  0  0  0  0  0  0  0  0  0  0  0
   19.1077  -24.9746  -10.5368 C   0  0  0  0  0  0  0  0  0  0  0  0
   17.6624  -25.3632  -10.8755 C   0  0  0  0  0  0  0  0  0  0  0  0
   16.9525  -24.1052  -10.3609 C   0  0  0  0  0  0  0  0  0  0  0  0
   17.6848  -23.8665   -9.0567 C   0  0  1  0  0  0  0  0  0  0  0  0
   16.8188  -24.3841   -7.9660 C   0  0  0  0  0  0  0  0  0  0  0  0
   15.6377  -23.9341   -7.8108 O   0  0  0  0  0  0  0  0  0  0  0  0
   15.9534  -27.4194   -8.3218 N   0  0  0  0  0  0  0  0  0  0  0  0
   16.3423  -28.1847   -7.1903 C   0  0  0  0  0  0  0  0  0  0  0  0
   16.3953  -29.4320   -7.3183 O   0  0  0  0  0  0  0  0  0  0  0  0
   16.6624  -27.4734   -5.9290 C   0  0  0  0  0  0  0  0  0  0  0  0
   16.3723  -25.9813   -6.0707 C   0  0  2  0  0  0  0  0  0  0  0  0
   17.2434  -25.3823   -7.0600 N   0  0  0  0  0  0  0  0  0  0  0  0
   16.5204  -25.2837   -4.7756 C   0  0  0  0  0  0  0  0  0  0  0  0
   17.6748  -24.9532   -4.4157 O   0  0  0  0  0  0  0  0  0  0  0  0
   12.7455  -21.1401   -2.3236 N   0  0  0  0  0  0  0  0  0  0  0  0
   12.3256  -22.4962   -2.2399 C   0  0  0  0  0  0  0  0  0  0  0  0
   11.1075  -22.7113   -2.0734 O   0  0  0  0  0  0  0  0  0  0  0  0
   13.3417  -23.5400   -2.3525 C   0  0  0  0  0  0  0  0  0  0  0  0
   14.7318  -23.0788   -2.5828 C   0  0  0  0  0  0  0  0  0  0  0  0
   15.6879  -24.1949   -2.7300 C   0  0  2  0  0  0  0  0  0  0  0  0
   15.4103  -24.9850   -3.9475 N   0  0  0  0  0  0  0  0  0  0  0  0
   15.8472  -25.0691   -1.5697 C   0  0  0  0  0  0  0  0  0  0  0  0
   16.1487  -24.5889   -0.4202 O   0  0  0  0  0  0  0  0  0  0  0  0
   15.6959  -26.4429   -1.5807 O   0  0  0  0  0  0  0  0  0  0  0  0
  2  1  1  0
  3  2  1  0
  4  3  1  0
  4  5  1  0
  5  6  1  1
  5  1  1  0
  6  7  2  0
  9  8  1  0
 10  9  2  0
 11  9  1  0
 12 11  1  1
 13 12  1  0
 13  6  1  0
 14 12  1  0
 14 15  2  0
 16 17  1  0
 17 19  1  0
 18 17  2  0
 19 20  1  0
 21 20  1  1
 21 22  1  0
 21 23  1  0
 22 14  1  0
 23 24  2  0
 23 25  1  0
M  END
$$$$
