PNQ.pdb
     RDKit          3D

 25 25  0  0  1  0  0  0  0  0999 V2000
   23.7937  -12.4830  -17.2558 N   0  0  0  0  0  0  0  0  0  0  0  0
   23.9447  -13.8604  -17.6925 C   0  0  0  0  0  0  0  0  0  0  0  0
   23.3387  -13.7443  -19.0974 C   0  0  0  0  0  0  0  0  0  0  0  0
   24.1388  -12.5371  -19.6012 C   0  0  0  0  0  0  0  0  0  0  0  0
   24.1140  -11.6380  -18.3824 C   0  0  1  0  0  0  0  0  0  0  0  0
   23.0688  -10.6086  -18.6175 C   0  0  0  0  0  0  0  0  0  0  0  0
   23.2404   -9.7035  -19.4967 O   0  0  0  0  0  0  0  0  0  0  0  0
   20.1082  -10.7802  -20.5374 N   0  0  0  0  0  0  0  0  0  0  0  0
   19.1560  -10.9542  -19.4981 C   0  0  0  0  0  0  0  0  0  0  0  0
   18.1237  -11.6194  -19.7564 O   0  0  0  0  0  0  0  0  0  0  0  0
   19.4316  -10.3451  -18.1745 C   0  0  0  0  0  0  0  0  0  0  0  0
   20.7852   -9.6391  -18.1845 C   0  0  2  0  0  0  0  0  0  0  0  0
   21.8525  -10.5747  -17.8986 N   0  0  0  0  0  0  0  0  0  0  0  0
   20.8132   -8.5253  -17.2127 C   0  0  0  0  0  0  0  0  0  0  0  0
   20.8465   -8.8116  -15.9927 O   0  0  0  0  0  0  0  0  0  0  0  0
   21.7194   -6.4459  -13.3813 N   0  0  0  0  0  0  0  0  0  0  0  0
   22.5281   -5.3696  -13.8391 C   0  0  0  0  0  0  0  0  0  0  0  0
   22.6882   -4.4022  -13.0669 O   0  0  0  0  0  0  0  0  0  0  0  0
   23.1129   -5.4670  -15.1746 C   0  0  0  0  0  0  0  0  0  0  0  0
   22.5634   -6.5262  -16.0544 C   0  0  0  0  0  0  0  0  0  0  0  0
   21.2436   -6.1752  -16.6168 C   0  0  2  0  0  0  0  0  0  0  0  0
   20.8038   -7.1681  -17.6191 N   0  0  0  0  0  0  0  0  0  0  0  0
   21.1009   -4.8164  -17.1358 C   0  0  0  0  0  0  0  0  0  0  0  0
   21.1521   -4.5841  -18.3951 O   0  0  0  0  0  0  0  0  0  0  0  0
   20.9024   -3.6863  -16.3652 O   0  0  0  0  0  0  0  0  0  0  0  0
  2  1  1  0
  3  2  1  0
  4  3  1  0
  4  5  1  0
  5  6  1  6
  5  1  1  0
  6  7  2  0
  9  8  1  0
 10  9  2  0
 11  9  1  0
 12 11  1  1
 13 12  1  0
 13  6  1  0
 14 12  1  0
 14 15  2  0
 16 17  1  0
 17 19  1  0
 18 17  2  0
 19 20  1  0
 21 20  1  6
 21 22  1  0
 21 23  1  0
 22 14  1  0
 23 24  2  0
 23 25  1  0
M  END
$$$$
