PNQ.pdb
     RDKit          3D

 25 25  0  0  1  0  0  0  0  0999 V2000
   26.9226  -19.3087  -16.2373 N   0  0  0  0  0  0  0  0  0  0  0  0
   28.1453  -18.5241  -16.2378 C   0  0  0  0  0  0  0  0  0  0  0  0
   28.7648  -19.0269  -14.9272 C   0  0  0  0  0  0  0  0  0  0  0  0
   28.6518  -20.5358  -15.1757 C   0  0  0  0  0  0  0  0  0  0  0  0
   27.2627  -20.6329  -15.7717 C   0  0  1  0  0  0  0  0  0  0  0  0
   26.3523  -21.0907  -14.6905 C   0  0  0  0  0  0  0  0  0  0  0  0
   25.9115  -22.2853  -14.6803 O   0  0  0  0  0  0  0  0  0  0  0  0
   25.0568  -21.4351   -9.2058 N   0  0  0  0  0  0  0  0  0  0  0  0
   24.5041  -20.5667  -10.1844 C   0  0  0  0  0  0  0  0  0  0  0  0
   23.2865  -20.2782  -10.0890 O   0  0  0  0  0  0  0  0  0  0  0  0
   25.3892  -20.0523  -11.2572 C   0  0  0  0  0  0  0  0  0  0  0  0
   25.0103  -20.6687  -12.6015 C   0  0  2  0  0  0  0  0  0  0  0  0
   25.9333  -20.2490  -13.6351 N   0  0  0  0  0  0  0  0  0  0  0  0
   23.6269  -20.3113  -12.9813 C   0  0  0  0  0  0  0  0  0  0  0  0
   23.4481  -19.2390  -13.6057 O   0  0  0  0  0  0  0  0  0  0  0  0
   21.8174  -20.3607  -17.5857 N   0  0  0  0  0  0  0  0  0  0  0  0
   20.4868  -20.3934  -17.0850 C   0  0  0  0  0  0  0  0  0  0  0  0
   19.5658  -20.1243  -17.8831 O   0  0  0  0  0  0  0  0  0  0  0  0
   20.2884  -20.7365  -15.6787 C   0  0  0  0  0  0  0  0  0  0  0  0
   21.5165  -20.9705  -14.8819 C   0  0  0  0  0  0  0  0  0  0  0  0
   21.2769  -20.8968  -13.4264 C   0  0  2  0  0  0  0  0  0  0  0  0
   22.5196  -21.1359  -12.6631 N   0  0  0  0  0  0  0  0  0  0  0  0
   20.1838  -21.7163  -12.9072 C   0  0  0  0  0  0  0  0  0  0  0  0
   20.3690  -22.9494  -12.6110 O   0  0  0  0  0  0  0  0  0  0  0  0
   18.8928  -21.2748  -12.6864 O   0  0  0  0  0  0  0  0  0  0  0  0
  2  1  1  0
  3  2  1  0
  4  3  1  0
  4  5  1  0
  5  6  1  1
  5  1  1  0
  6  7  2  0
  9  8  1  0
 10  9  2  0
 11  9  1  0
 12 11  1  1
 13 12  1  0
 13  6  1  0
 14 12  1  0
 14 15  2  0
 16 17  1  0
 17 19  1  0
 18 17  2  0
 19 20  1  0
 21 20  1  6
 21 22  1  0
 21 23  1  0
 22 14  1  0
 23 24  2  0
 23 25  1  0
M  END
$$$$
