PNQ.pdb
     RDKit          3D

 25 25  0  0  1  0  0  0  0  0999 V2000
   26.8903  -18.9863  -15.1890 N   0  0  0  0  0  0  0  0  0  0  0  0
   28.2754  -18.5618  -15.2976 C   0  0  0  0  0  0  0  0  0  0  0  0
   28.9384  -19.6549  -14.4490 C   0  0  0  0  0  0  0  0  0  0  0  0
   28.3088  -20.8850  -15.1138 C   0  0  0  0  0  0  0  0  0  0  0  0
   26.8746  -20.4275  -15.2811 C   0  0  1  0  0  0  0  0  0  0  0  0
   26.0863  -21.0442  -14.1831 C   0  0  0  0  0  0  0  0  0  0  0  0
   25.8699  -22.2990  -14.1696 O   0  0  0  0  0  0  0  0  0  0  0  0
   26.5702  -21.8700  -10.6832 N   0  0  0  0  0  0  0  0  0  0  0  0
   25.8833  -20.7819  -10.0820 C   0  0  0  0  0  0  0  0  0  0  0  0
   26.2838  -20.3858   -8.9606 O   0  0  0  0  0  0  0  0  0  0  0  0
   24.7392  -20.1780  -10.8067 C   0  0  0  0  0  0  0  0  0  0  0  0
   24.5763  -20.8260  -12.1794 C   0  0  2  0  0  0  0  0  0  0  0  0
   25.5449  -20.2938  -13.1147 N   0  0  0  0  0  0  0  0  0  0  0  0
   23.2069  -20.6320  -12.7018 C   0  0  0  0  0  0  0  0  0  0  0  0
   22.8447  -19.4644  -12.9796 O   0  0  0  0  0  0  0  0  0  0  0  0
   20.2653  -23.8431  -16.9972 N   0  0  0  0  0  0  0  0  0  0  0  0
   19.3071  -22.8539  -16.6429 C   0  0  0  0  0  0  0  0  0  0  0  0
   18.2844  -22.7643  -17.3527 O   0  0  0  0  0  0  0  0  0  0  0  0
   19.5827  -22.0133  -15.4800 C   0  0  0  0  0  0  0  0  0  0  0  0
   20.8680  -22.2598  -14.7836 C   0  0  0  0  0  0  0  0  0  0  0  0
   21.0453  -21.4067  -13.5910 C   0  0  2  0  0  0  0  0  0  0  0  0
   22.3113  -21.7130  -12.8929 N   0  0  0  0  0  0  0  0  0  0  0  0
   19.9291  -21.3705  -12.6483 C   0  0  0  0  0  0  0  0  0  0  0  0
   19.8935  -22.1607  -11.6398 O   0  0  0  0  0  0  0  0  0  0  0  0
   18.8421  -20.5211  -12.7331 O   0  0  0  0  0  0  0  0  0  0  0  0
  2  1  1  0
  3  2  1  0
  4  3  1  0
  4  5  1  0
  5  6  1  1
  5  1  1  0
  6  7  2  0
  9  8  1  0
 10  9  2  0
 11  9  1  0
 12 11  1  1
 13 12  1  0
 13  6  1  0
 14 12  1  0
 14 15  2  0
 16 17  1  0
 17 19  1  0
 18 17  2  0
 19 20  1  0
 21 20  1  6
 21 22  1  0
 21 23  1  0
 22 14  1  0
 23 24  2  0
 23 25  1  0
M  END
$$$$
