PNQ.pdb
     RDKit          3D

 25 25  0  0  1  0  0  0  0  0999 V2000
   27.6774  -23.0944  -16.7333 N   0  0  0  0  0  0  0  0  0  0  0  0
   28.8011  -23.6943  -17.4317 C   0  0  0  0  0  0  0  0  0  0  0  0
   29.1535  -22.5378  -18.3767 C   0  0  0  0  0  0  0  0  0  0  0  0
   29.2226  -21.4036  -17.3470 C   0  0  0  0  0  0  0  0  0  0  0  0
   28.0131  -21.7111  -16.4886 C   0  0  1  0  0  0  0  0  0  0  0  0
   26.9262  -20.7932  -16.9169 C   0  0  0  0  0  0  0  0  0  0  0  0
   27.0331  -19.5373  -16.7360 O   0  0  0  0  0  0  0  0  0  0  0  0
   26.1604  -18.7177  -19.3971 N   0  0  0  0  0  0  0  0  0  0  0  0
   25.2811  -19.5543  -20.1347 C   0  0  0  0  0  0  0  0  0  0  0  0
   25.3313  -19.4952  -21.3873 O   0  0  0  0  0  0  0  0  0  0  0  0
   24.3588  -20.4454  -19.3902 C   0  0  0  0  0  0  0  0  0  0  0  0
   24.6424  -20.3732  -17.8918 C   0  0  2  0  0  0  0  0  0  0  0  0
   25.7398  -21.2481  -17.5360 N   0  0  0  0  0  0  0  0  0  0  0  0
   23.4406  -20.7210  -17.1040 C   0  0  0  0  0  0  0  0  0  0  0  0
   23.4082  -21.8440  -16.5477 O   0  0  0  0  0  0  0  0  0  0  0  0
   23.2943  -20.1238  -12.0049 N   0  0  0  0  0  0  0  0  0  0  0  0
   21.9064  -20.4241  -12.0815 C   0  0  0  0  0  0  0  0  0  0  0  0
   21.3196  -20.7049  -11.0163 O   0  0  0  0  0  0  0  0  0  0  0  0
   21.2646  -20.3850  -13.3935 C   0  0  0  0  0  0  0  0  0  0  0  0
   22.1602  -20.1662  -14.5544 C   0  0  0  0  0  0  0  0  0  0  0  0
   21.4282  -20.0867  -15.8348 C   0  0  2  0  0  0  0  0  0  0  0  0
   22.3457  -19.8326  -16.9650 N   0  0  0  0  0  0  0  0  0  0  0  0
   20.2901  -19.1706  -15.8749 C   0  0  0  0  0  0  0  0  0  0  0  0
   20.4229  -17.9750  -16.3171 O   0  0  0  0  0  0  0  0  0  0  0  0
   19.0067  -19.4763  -15.4629 O   0  0  0  0  0  0  0  0  0  0  0  0
  2  1  1  0
  3  2  1  0
  4  3  1  0
  4  5  1  0
  5  6  1  6
  5  1  1  0
  6  7  2  0
  9  8  1  0
 10  9  2  0
 11  9  1  0
 12 11  1  6
 13 12  1  0
 13  6  1  0
 14 12  1  0
 14 15  2  0
 16 17  1  0
 17 19  1  0
 18 17  2  0
 19 20  1  0
 21 20  1  1
 21 22  1  0
 21 23  1  0
 22 14  1  0
 23 24  2  0
 23 25  1  0
M  END
$$$$
