NGD.pdb
     RDKit          3D

 21 20  0  0  1  0  0  0  0  0999 V2000
   27.8908  -22.8026  -18.0829 N   0  0  0  0  0  0  0  0  0  0  0  0
   27.9764  -21.4549  -17.6575 C   0  0  0  0  0  0  0  0  0  0  0  0
   28.9794  -20.7559  -17.8733 O   0  0  0  0  0  0  0  0  0  0  0  0
   26.8349  -20.8642  -16.9345 C   0  0  0  0  0  0  0  0  0  0  0  0
   27.1326  -20.9715  -15.4393 C   0  0  2  0  0  0  0  0  0  0  0  0
   27.2669  -22.3610  -15.0514 N   0  0  0  0  0  0  0  0  0  0  0  0
   25.9312  -20.4193  -14.7524 C   0  0  0  0  0  0  0  0  0  0  0  0
   25.5726  -19.2129  -14.9523 O   0  0  0  0  0  0  0  0  0  0  0  0
   25.1508  -21.2098  -13.8577 N   0  0  0  0  0  0  0  0  0  0  0  0
   24.0362  -20.5957  -13.1990 C   0  0  0  0  0  0  0  0  0  0  0  0
   22.7325  -21.1643  -13.6676 C   0  0  0  0  0  0  0  0  0  0  0  0
   22.7418  -21.8757  -14.6937 O   0  0  0  0  0  0  0  0  0  0  0  0
   21.5168  -20.9311  -13.0074 N   0  0  0  0  0  0  0  0  0  0  0  0
   20.2161  -21.4170  -13.3507 C   0  0  1  0  0  0  0  0  0  0  0  0
   19.2367  -21.3244  -12.2203 C   0  0  0  0  0  0  0  0  0  0  0  0
   17.9381  -21.9519  -12.5507 C   0  0  0  0  0  0  0  0  0  0  0  0
   17.7403  -22.5393  -13.6427 O   0  0  0  0  0  0  0  0  0  0  0  0
   19.6651  -20.9574  -14.6336 C   0  0  0  0  0  0  0  0  0  0  0  0
   19.1014  -21.8156  -15.5348 O   0  0  0  0  0  0  0  0  0  0  0  0
   16.9028  -21.8949  -11.6342 O   0  0  0  0  0  0  0  0  0  0  0  0
   19.7137  -19.7346  -14.9043 O   0  0  0  0  0  0  0  0  0  0  0  0
  2  1  1  0
  3  2  2  0
  4  2  1  0
  5  6  1  1
  5  4  1  0
  7  5  1  0
  8  7  2  0
  9  7  1  0
 10 11  1  0
 10  9  1  0
 11 13  1  0
 12 11  2  0
 13 14  1  0
 14 18  1  0
 14 15  1  1
 15 16  1  0
 16 17  2  0
 18 21  2  0
 18 19  1  0
 20 16  1  0
M  END
$$$$
