NGD.pdb
     RDKit          3D

 21 20  0  0  1  0  0  0  0  0999 V2000
   18.9730  -16.4400  -17.3111 N   0  0  0  0  0  0  0  0  0  0  0  0
   19.0048  -15.3663  -16.3889 C   0  0  0  0  0  0  0  0  0  0  0  0
   18.4809  -15.4435  -15.2659 O   0  0  0  0  0  0  0  0  0  0  0  0
   19.6833  -14.1159  -16.7772 C   0  0  0  0  0  0  0  0  0  0  0  0
   18.8577  -12.9542  -16.2251 C   0  0  2  0  0  0  0  0  0  0  0  0
   17.5877  -12.8662  -16.9168 N   0  0  0  0  0  0  0  0  0  0  0  0
   19.6370  -11.7245  -16.5422 C   0  0  0  0  0  0  0  0  0  0  0  0
   20.8458  -11.6104  -16.1552 O   0  0  0  0  0  0  0  0  0  0  0  0
   19.0655  -10.6450  -17.2787 N   0  0  0  0  0  0  0  0  0  0  0  0
   19.8869   -9.5079  -17.5715 C   0  0  0  0  0  0  0  0  0  0  0  0
   19.7321   -8.4315  -16.5420 C   0  0  0  0  0  0  0  0  0  0  0  0
   18.7271   -8.4724  -15.8022 O   0  0  0  0  0  0  0  0  0  0  0  0
   20.6601   -7.3921  -16.3792 N   0  0  0  0  0  0  0  0  0  0  0  0
   20.5516   -6.2307  -15.5514 C   0  0  1  0  0  0  0  0  0  0  0  0
   21.8733   -5.5819  -15.2726 C   0  0  0  0  0  0  0  0  0  0  0  0
   22.0088   -5.1710  -13.8577 C   0  0  0  0  0  0  0  0  0  0  0  0
   21.0403   -5.2012  -13.0590 O   0  0  0  0  0  0  0  0  0  0  0  0
   19.4987   -5.2696  -15.9097 C   0  0  0  0  0  0  0  0  0  0  0  0
   19.0636   -5.1096  -17.1948 O   0  0  0  0  0  0  0  0  0  0  0  0
   23.2373   -4.7383  -13.3901 O   0  0  0  0  0  0  0  0  0  0  0  0
   18.9833   -4.5773  -15.0009 O   0  0  0  0  0  0  0  0  0  0  0  0
  2  1  1  0
  3  2  2  0
  4  2  1  0
  5  6  1  6
  5  4  1  0
  7  5  1  0
  8  7  2  0
  9  7  1  0
 10 11  1  0
 10  9  1  0
 11 13  1  0
 12 11  2  0
 13 14  1  0
 14 18  1  0
 14 15  1  6
 15 16  1  0
 16 17  2  0
 18 21  2  0
 18 19  1  0
 20 16  1  0
M  END
$$$$
