NGD.pdb
     RDKit          3D

 21 20  0  0  1  0  0  0  0  0999 V2000
   19.3783  -14.6020  -16.2209 N   0  0  0  0  0  0  0  0  0  0  0  0
   18.4443  -13.5746  -15.9444 C   0  0  0  0  0  0  0  0  0  0  0  0
   17.4330  -13.7695  -15.2511 O   0  0  0  0  0  0  0  0  0  0  0  0
   18.6828  -12.2294  -16.4994 C   0  0  0  0  0  0  0  0  0  0  0  0
   18.4291  -11.2191  -15.3810 C   0  0  2  0  0  0  0  0  0  0  0  0
   17.0067  -10.9989  -15.2150 N   0  0  0  0  0  0  0  0  0  0  0  0
   19.0374   -9.9426  -15.8507 C   0  0  0  0  0  0  0  0  0  0  0  0
   20.3041   -9.8099  -15.8927 O   0  0  0  0  0  0  0  0  0  0  0  0
   18.2349   -8.8379  -16.2631 N   0  0  0  0  0  0  0  0  0  0  0  0
   18.8912   -7.6251  -16.6526 C   0  0  0  0  0  0  0  0  0  0  0  0
   19.0064   -6.6644  -15.5096 C   0  0  0  0  0  0  0  0  0  0  0  0
   18.2893   -6.8626  -14.5068 O   0  0  0  0  0  0  0  0  0  0  0  0
   19.8770   -5.5644  -15.5220 N   0  0  0  0  0  0  0  0  0  0  0  0
   20.0051   -4.5265  -14.5461 C   0  0  1  0  0  0  0  0  0  0  0  0
   21.4243   -4.0985  -14.3261 C   0  0  0  0  0  0  0  0  0  0  0  0
   22.3203   -5.2448  -14.0572 C   0  0  0  0  0  0  0  0  0  0  0  0
   22.0837   -6.0768  -13.1469 O   0  0  0  0  0  0  0  0  0  0  0  0
   19.0718   -3.3974  -14.6675 C   0  0  0  0  0  0  0  0  0  0  0  0
   18.5978   -2.7225  -13.5784 O   0  0  0  0  0  0  0  0  0  0  0  0
   23.4574   -5.4141  -14.8275 O   0  0  0  0  0  0  0  0  0  0  0  0
   18.7033   -3.0435  -15.8119 O   0  0  0  0  0  0  0  0  0  0  0  0
  2  1  1  0
  3  2  2  0
  4  2  1  0
  5  6  1  6
  5  4  1  0
  7  5  1  0
  8  7  2  0
  9  7  1  0
 10 11  1  0
 10  9  1  0
 11 13  1  0
 12 11  2  0
 13 14  1  0
 14 18  1  0
 14 15  1  6
 15 16  1  0
 16 17  2  0
 18 21  2  0
 18 19  1  0
 20 16  1  0
M  END
$$$$
