NGD.pdb
     RDKit          3D

 21 20  0  0  1  0  0  0  0  0999 V2000
   12.0515  -11.2032   -8.0951 N   0  0  0  0  0  0  0  0  0  0  0  0
   11.5818  -10.2330   -9.0130 C   0  0  0  0  0  0  0  0  0  0  0  0
   10.3776   -9.9496   -9.1170 O   0  0  0  0  0  0  0  0  0  0  0  0
   12.5572   -9.5374   -9.8728 C   0  0  0  0  0  0  0  0  0  0  0  0
   13.9516  -10.0063   -9.4587 C   0  0  2  0  0  0  0  0  0  0  0  0
   14.6279   -8.9697   -8.7054 N   0  0  0  0  0  0  0  0  0  0  0  0
   14.6994  -10.2078  -10.7316 C   0  0  0  0  0  0  0  0  0  0  0  0
   14.3680  -11.1421  -11.5323 O   0  0  0  0  0  0  0  0  0  0  0  0
   15.7988   -9.3746  -11.0942 N   0  0  0  0  0  0  0  0  0  0  0  0
   16.4725   -9.6335  -12.3321 C   0  0  0  0  0  0  0  0  0  0  0  0
   17.5037   -8.5897  -12.6317 C   0  0  0  0  0  0  0  0  0  0  0  0
   17.3850   -7.4768  -12.0780 O   0  0  0  0  0  0  0  0  0  0  0  0
   18.5834   -8.8106  -13.4998 N   0  0  0  0  0  0  0  0  0  0  0  0
   19.5445   -7.8639  -13.9750 C   0  0  1  0  0  0  0  0  0  0  0  0
   20.6929   -8.5031  -14.6950 C   0  0  0  0  0  0  0  0  0  0  0  0
   21.7480   -7.5270  -15.0456 C   0  0  0  0  0  0  0  0  0  0  0  0
   21.8522   -6.4197  -14.4627 O   0  0  0  0  0  0  0  0  0  0  0  0
   19.0103   -6.6837  -14.6695 C   0  0  0  0  0  0  0  0  0  0  0  0
   19.3263   -5.4095  -14.2913 O   0  0  0  0  0  0  0  0  0  0  0  0
   22.6534   -7.8346  -16.0461 O   0  0  0  0  0  0  0  0  0  0  0  0
   18.2410   -6.8574  -15.6436 O   0  0  0  0  0  0  0  0  0  0  0  0
  2  1  1  0
  3  2  2  0
  4  2  1  0
  5  6  1  1
  5  4  1  0
  7  5  1  0
  8  7  2  0
  9  7  1  0
 10 11  1  0
 10  9  1  0
 11 13  1  0
 12 11  2  0
 13 14  1  0
 14 18  1  0
 14 15  1  6
 15 16  1  0
 16 17  2  0
 18 21  2  0
 18 19  1  0
 20 16  1  0
M  END
$$$$
