NGD.pdb
     RDKit          3D

 21 20  0  0  1  0  0  0  0  0999 V2000
   26.9863  -19.6182   -8.7144 N   0  0  0  0  0  0  0  0  0  0  0  0
   25.7730  -20.3175   -8.5064 C   0  0  0  0  0  0  0  0  0  0  0  0
   25.1483  -20.2537   -7.4354 O   0  0  0  0  0  0  0  0  0  0  0  0
   25.2354  -21.1484   -9.5997 C   0  0  0  0  0  0  0  0  0  0  0  0
   26.2114  -21.0535  -10.7719 C   0  0  2  0  0  0  0  0  0  0  0  0
   26.3115  -19.6838  -11.2336 N   0  0  0  0  0  0  0  0  0  0  0  0
   25.6015  -21.8610  -11.8656 C   0  0  0  0  0  0  0  0  0  0  0  0
   25.0064  -22.9566  -11.6022 O   0  0  0  0  0  0  0  0  0  0  0  0
   25.6622  -21.4432  -13.2280 N   0  0  0  0  0  0  0  0  0  0  0  0
   24.4479  -21.0398  -13.8731 C   0  0  0  0  0  0  0  0  0  0  0  0
   24.5990  -19.7206  -14.5656 C   0  0  0  0  0  0  0  0  0  0  0  0
   24.3468  -18.6868  -13.9123 O   0  0  0  0  0  0  0  0  0  0  0  0
   25.0070  -19.6029  -15.9027 N   0  0  0  0  0  0  0  0  0  0  0  0
   25.2560  -18.4089  -16.6499 C   0  0  1  0  0  0  0  0  0  0  0  0
   26.4830  -18.4962  -17.5057 C   0  0  0  0  0  0  0  0  0  0  0  0
   27.6694  -18.9401  -16.7411 C   0  0  0  0  0  0  0  0  0  0  0  0
   28.4292  -18.1278  -16.1583 O   0  0  0  0  0  0  0  0  0  0  0  0
   24.1028  -17.8237  -17.3488 C   0  0  0  0  0  0  0  0  0  0  0  0
   24.1086  -16.5407  -17.8183 O   0  0  0  0  0  0  0  0  0  0  0  0
   27.9594  -20.2908  -16.6597 O   0  0  0  0  0  0  0  0  0  0  0  0
   23.0824  -18.5310  -17.5200 O   0  0  0  0  0  0  0  0  0  0  0  0
  2  1  1  0
  3  2  2  0
  4  2  1  0
  5  6  1  6
  5  4  1  0
  7  5  1  0
  8  7  2  0
  9  7  1  0
 10 11  1  0
 10  9  1  0
 11 13  1  0
 12 11  2  0
 13 14  1  0
 14 18  1  0
 14 15  1  6
 15 16  1  0
 16 17  2  0
 18 21  2  0
 18 19  1  0
 20 16  1  0
M  END
$$$$
