FDH.pdb
     RDKit          3D

 30 31  0  0  1  0  0  0  0  0999 V2000
   24.2076  -11.4753  -18.3791 N   0  0  0  0  0  0  0  0  0  0  0  0
   23.6182  -10.6355  -17.3567 C   0  0  1  0  0  0  0  0  0  0  0  0
   24.4569   -9.4297  -17.0485 C   0  0  0  0  0  0  0  0  0  0  0  0
   25.8553   -9.7632  -16.7124 C   0  0  0  0  0  0  0  0  0  0  0  0
   26.1241  -10.3582  -15.4961 C   0  0  0  0  0  0  0  0  0  0  0  0
   27.4193  -10.6810  -15.1546 C   0  0  0  0  0  0  0  0  0  0  0  0
   28.4597  -10.4130  -16.0240 C   0  0  0  0  0  0  0  0  0  0  0  0
   28.1723   -9.8240  -17.2221 C   0  0  0  0  0  0  0  0  0  0  0  0
   26.8870   -9.4910  -17.5885 C   0  0  0  0  0  0  0  0  0  0  0  0
   22.2886  -10.1410  -17.8275 C   0  0  0  0  0  0  0  0  0  0  0  0
   21.8443  -10.7032  -18.8797 O   0  0  0  0  0  0  0  0  0  0  0  0
   21.6026   -9.1305  -17.1412 N   0  0  0  0  0  0  0  0  0  0  0  0
   20.2327   -8.8363  -17.4548 C   0  0  1  0  0  0  0  0  0  0  0  0
   19.3417  -10.0327  -17.5377 C   0  0  0  0  0  0  0  0  0  0  0  0
   18.8293  -10.1890  -18.9130 C   0  0  0  0  0  0  0  0  0  0  0  0
   19.5093  -10.0280  -19.9530 O   0  0  0  0  0  0  0  0  0  0  0  0
   19.6640   -7.8269  -16.5006 C   0  0  0  0  0  0  0  0  0  0  0  0
   20.1400   -7.7550  -15.3410 O   0  0  0  0  0  0  0  0  0  0  0  0
   17.4734  -10.5462  -19.0787 O   0  0  0  0  0  0  0  0  0  0  0  0
   18.6065   -6.9524  -16.8680 N   0  0  0  0  0  0  0  0  0  0  0  0
   18.4802   -5.6187  -16.2624 C   0  0  1  0  0  0  0  0  0  0  0  0
   19.6833   -4.7867  -16.7252 C   0  0  0  0  0  0  0  0  0  0  0  0
   20.7450   -4.8300  -15.6934 C   0  0  0  0  0  0  0  0  0  0  0  0
   20.6840   -5.4826  -14.4809 C   0  0  0  0  0  0  0  0  0  0  0  0
   21.8491   -5.2716  -13.8500 N   0  0  0  0  0  0  0  0  0  0  0  0
   22.6257   -4.5144  -14.6266 C   0  0  0  0  0  0  0  0  0  0  0  0
   21.9380   -4.2519  -15.7502 N   0  0  0  0  0  0  0  0  0  0  0  0
   17.2344   -5.0026  -16.7768 C   0  0  0  0  0  0  0  0  0  0  0  0
   16.7233   -5.3667  -17.8882 O   0  0  0  0  0  0  0  0  0  0  0  0
   16.5704   -4.0109  -16.0828 O   0  0  0  0  0  0  0  0  0  0  0  0
  2  1  1  6
  2 10  1  0
  3  2  1  0
  3  4  1  0
  4  5  2  0
  4  9  1  0
  5  6  1  0
  6  7  2  0
  8  7  1  0
  9  8  2  0
 10 11  2  0
 12 10  1  0
 12 13  1  0
 13 17  1  0
 13 14  1  1
 14 15  1  0
 15 16  2  0
 17 18  2  0
 19 15  1  0
 20 21  1  0
 20 17  1  0
 21 28  1  0
 21 22  1  6
 23 22  1  0
 24 23  2  0
 25 24  1  0
 26 25  1  0
 26 27  2  0
 27 23  1  0
 28 29  2  0
 28 30  1  0
M  END
$$$$
