FDH.pdb
     RDKit          3D

 30 31  0  0  1  0  0  0  0  0999 V2000
   28.0489  -21.4032  -18.2364 N   0  0  0  0  0  0  0  0  0  0  0  0
   27.1015  -21.9437  -17.2832 C   0  0  1  0  0  0  0  0  0  0  0  0
   27.7550  -22.3707  -16.0015 C   0  0  0  0  0  0  0  0  0  0  0  0
   28.6213  -23.5563  -16.1560 C   0  0  0  0  0  0  0  0  0  0  0  0
   28.0349  -24.8032  -16.2382 C   0  0  0  0  0  0  0  0  0  0  0  0
   28.8174  -25.9281  -16.3827 C   0  0  0  0  0  0  0  0  0  0  0  0
   30.1937  -25.8194  -16.4466 C   0  0  0  0  0  0  0  0  0  0  0  0
   30.7538  -24.5766  -16.3634 C   0  0  0  0  0  0  0  0  0  0  0  0
   29.9952  -23.4362  -16.2188 C   0  0  0  0  0  0  0  0  0  0  0  0
   26.0933  -20.8955  -16.9380 C   0  0  0  0  0  0  0  0  0  0  0  0
   26.2816  -19.7626  -17.4871 O   0  0  0  0  0  0  0  0  0  0  0  0
   25.0280  -21.1676  -16.0699 N   0  0  0  0  0  0  0  0  0  0  0  0
   23.9926  -20.1954  -15.8589 C   0  0  1  0  0  0  0  0  0  0  0  0
   23.3387  -19.7007  -17.1078 C   0  0  0  0  0  0  0  0  0  0  0  0
   22.9853  -18.2748  -16.9645 C   0  0  0  0  0  0  0  0  0  0  0  0
   22.0344  -17.8387  -16.2750 O   0  0  0  0  0  0  0  0  0  0  0  0
   22.9604  -20.7049  -14.8957 C   0  0  0  0  0  0  0  0  0  0  0  0
   22.3546  -21.7709  -15.1655 O   0  0  0  0  0  0  0  0  0  0  0  0
   23.7717  -17.3247  -17.6518 O   0  0  0  0  0  0  0  0  0  0  0  0
   22.6486  -20.0198  -13.6908 N   0  0  0  0  0  0  0  0  0  0  0  0
   21.7990  -20.6401  -12.6638 C   0  0  1  0  0  0  0  0  0  0  0  0
   22.2277  -20.0701  -11.3053 C   0  0  0  0  0  0  0  0  0  0  0  0
   23.5583  -20.6069  -10.9377 C   0  0  0  0  0  0  0  0  0  0  0  0
   24.2991  -21.5231  -11.6530 C   0  0  0  0  0  0  0  0  0  0  0  0
   25.4370  -21.7388  -10.9758 N   0  0  0  0  0  0  0  0  0  0  0  0
   25.4263  -20.9911   -9.8710 C   0  0  0  0  0  0  0  0  0  0  0  0
   24.2718  -20.3044   -9.8607 N   0  0  0  0  0  0  0  0  0  0  0  0
   20.3964  -20.2473  -12.9367 C   0  0  0  0  0  0  0  0  0  0  0  0
   20.1196  -19.2076  -13.6233 O   0  0  0  0  0  0  0  0  0  0  0  0
   19.3277  -20.9826  -12.4643 O   0  0  0  0  0  0  0  0  0  0  0  0
  2  1  1  6
  2 10  1  0
  3  2  1  0
  3  4  1  0
  4  5  2  0
  4  9  1  0
  5  6  1  0
  6  7  2  0
  8  7  1  0
  9  8  2  0
 10 11  2  0
 12 10  1  0
 12 13  1  0
 13 17  1  0
 13 14  1  6
 14 15  1  0
 15 16  2  0
 17 18  2  0
 19 15  1  0
 20 21  1  0
 20 17  1  0
 21 28  1  0
 21 22  1  1
 23 22  1  0
 24 23  2  0
 25 24  1  0
 26 25  1  0
 26 27  2  0
 27 23  1  0
 28 29  2  0
 28 30  1  0
M  END
$$$$
