FDH.pdb
     RDKit          3D

 30 31  0  0  1  0  0  0  0  0999 V2000
   28.0883  -21.8996  -11.0656 N   0  0  0  0  0  0  0  0  0  0  0  0
   26.7723  -21.2950  -11.0348 C   0  0  1  0  0  0  0  0  0  0  0  0
   26.7709  -19.9537  -10.3616 C   0  0  0  0  0  0  0  0  0  0  0  0
   27.1992  -20.0101   -8.9498 C   0  0  0  0  0  0  0  0  0  0  0  0
   28.5310  -19.8063   -8.6494 C   0  0  0  0  0  0  0  0  0  0  0  0
   28.9606  -19.8529   -7.3410 C   0  0  0  0  0  0  0  0  0  0  0  0
   28.0646  -20.1035   -6.3190 C   0  0  0  0  0  0  0  0  0  0  0  0
   26.7516  -20.3024   -6.6377 C   0  0  0  0  0  0  0  0  0  0  0  0
   26.2956  -20.2612   -7.9366 C   0  0  0  0  0  0  0  0  0  0  0  0
   26.2894  -21.0882  -12.4342 C   0  0  0  0  0  0  0  0  0  0  0  0
   27.1517  -21.3146  -13.3428 O   0  0  0  0  0  0  0  0  0  0  0  0
   24.9772  -20.6745  -12.6981 N   0  0  0  0  0  0  0  0  0  0  0  0
   24.1929  -21.3339  -13.7040 C   0  0  1  0  0  0  0  0  0  0  0  0
   24.1005  -22.8171  -13.5489 C   0  0  0  0  0  0  0  0  0  0  0  0
   23.4583  -23.4120  -14.7372 C   0  0  0  0  0  0  0  0  0  0  0  0
   22.2624  -23.7810  -14.7953 O   0  0  0  0  0  0  0  0  0  0  0  0
   22.8212  -20.7326  -13.8009 C   0  0  0  0  0  0  0  0  0  0  0  0
   22.0449  -20.8345  -12.8194 O   0  0  0  0  0  0  0  0  0  0  0  0
   24.2421  -23.5818  -15.8992 O   0  0  0  0  0  0  0  0  0  0  0  0
   22.3751  -20.0531  -14.9661 N   0  0  0  0  0  0  0  0  0  0  0  0
   21.0557  -19.4059  -15.0082 C   0  0  1  0  0  0  0  0  0  0  0  0
   20.9175  -18.7306  -16.3789 C   0  0  0  0  0  0  0  0  0  0  0  0
   21.9184  -17.6460  -16.5028 C   0  0  0  0  0  0  0  0  0  0  0  0
   22.3439  -16.8040  -15.4979 C   0  0  0  0  0  0  0  0  0  0  0  0
   23.2519  -15.9703  -16.0274 N   0  0  0  0  0  0  0  0  0  0  0  0
   23.4025  -16.2657  -17.3195 C   0  0  0  0  0  0  0  0  0  0  0  0
   22.5812  -17.2920  -17.5964 N   0  0  0  0  0  0  0  0  0  0  0  0
   20.0265  -20.4643  -14.8799 C   0  0  0  0  0  0  0  0  0  0  0  0
   20.1707  -21.6022  -15.4398 O   0  0  0  0  0  0  0  0  0  0  0  0
   18.8687  -20.2718  -14.1530 O   0  0  0  0  0  0  0  0  0  0  0  0
  2  1  1  6
  2 10  1  0
  3  2  1  0
  3  4  1  0
  4  5  2  0
  4  9  1  0
  5  6  1  0
  6  7  2  0
  8  7  1  0
  9  8  2  0
 10 11  2  0
 12 10  1  0
 12 13  1  0
 13 17  1  0
 13 14  1  1
 14 15  1  0
 15 16  2  0
 17 18  2  0
 19 15  1  0
 20 21  1  0
 20 17  1  0
 21 28  1  0
 21 22  1  6
 23 22  1  0
 24 23  2  0
 25 24  1  0
 26 25  1  0
 26 27  2  0
 27 23  1  0
 28 29  2  0
 28 30  1  0
M  END
$$$$
