FDH.pdb
     RDKit          3D

 30 31  0  0  1  0  0  0  0  0999 V2000
   21.9343  -16.7299  -20.2947 N   0  0  0  0  0  0  0  0  0  0  0  0
   22.7542  -16.7271  -19.1007 C   0  0  1  0  0  0  0  0  0  0  0  0
   23.5784  -15.4796  -18.9715 C   0  0  0  0  0  0  0  0  0  0  0  0
   24.4334  -15.2218  -20.1472 C   0  0  0  0  0  0  0  0  0  0  0  0
   25.6251  -15.9081  -20.2673 C   0  0  0  0  0  0  0  0  0  0  0  0
   26.4439  -15.6887  -21.3534 C   0  0  0  0  0  0  0  0  0  0  0  0
   26.0813  -14.7816  -22.3311 C   0  0  0  0  0  0  0  0  0  0  0  0
   24.8984  -14.1132  -22.1933 C   0  0  0  0  0  0  0  0  0  0  0  0
   24.0614  -14.3134  -21.1181 C   0  0  0  0  0  0  0  0  0  0  0  0
   21.8740  -16.8026  -17.8950 C   0  0  0  0  0  0  0  0  0  0  0  0
   22.4856  -16.8100  -16.7786 O   0  0  0  0  0  0  0  0  0  0  0  0
   20.4793  -16.8601  -18.0140 N   0  0  0  0  0  0  0  0  0  0  0  0
   19.6473  -16.8731  -16.8437 C   0  0  1  0  0  0  0  0  0  0  0  0
   19.8455  -15.7113  -15.9255 C   0  0  0  0  0  0  0  0  0  0  0  0
   18.9850  -15.8536  -14.7348 C   0  0  0  0  0  0  0  0  0  0  0  0
   19.2482  -16.5728  -13.7432 O   0  0  0  0  0  0  0  0  0  0  0  0
   18.1984  -17.0068  -17.2116 C   0  0  0  0  0  0  0  0  0  0  0  0
   17.7697  -16.3889  -18.2169 O   0  0  0  0  0  0  0  0  0  0  0  0
   17.7736  -15.1293  -14.7020 O   0  0  0  0  0  0  0  0  0  0  0  0
   17.2991  -17.8090  -16.4592 N   0  0  0  0  0  0  0  0  0  0  0  0
   16.4363  -18.8014  -17.1165 C   0  0  1  0  0  0  0  0  0  0  0  0
   17.3481  -19.8814  -17.7133 C   0  0  0  0  0  0  0  0  0  0  0  0
   16.5252  -20.9062  -18.3960 C   0  0  0  0  0  0  0  0  0  0  0  0
   15.1508  -20.9194  -18.4985 C   0  0  0  0  0  0  0  0  0  0  0  0
   14.8083  -22.0157  -19.1919 N   0  0  0  0  0  0  0  0  0  0  0  0
   15.9182  -22.6787  -19.5207 C   0  0  0  0  0  0  0  0  0  0  0  0
   16.9602  -21.9890  -19.0277 N   0  0  0  0  0  0  0  0  0  0  0  0
   15.5730  -19.4113  -16.0779 C   0  0  0  0  0  0  0  0  0  0  0  0
   14.3261  -19.5983  -16.2766 O   0  0  0  0  0  0  0  0  0  0  0  0
   16.0727  -19.8045  -14.8525 O   0  0  0  0  0  0  0  0  0  0  0  0
  2  1  1  6
  2 10  1  0
  3  2  1  0
  3  4  1  0
  4  5  2  0
  4  9  1  0
  5  6  1  0
  6  7  2  0
  8  7  1  0
  9  8  2  0
 10 11  2  0
 12 10  1  0
 12 13  1  0
 13 17  1  0
 13 14  1  6
 14 15  1  0
 15 16  2  0
 17 18  2  0
 19 15  1  0
 20 21  1  0
 20 17  1  0
 21 28  1  0
 21 22  1  1
 23 22  1  0
 24 23  2  0
 25 24  1  0
 26 25  1  0
 26 27  2  0
 27 23  1  0
 28 29  2  0
 28 30  1  0
M  END
$$$$
