FDH.pdb
     RDKit          3D

 30 31  0  0  1  0  0  0  0  0999 V2000
   24.6531  -10.8703  -14.7017 N   0  0  0  0  0  0  0  0  0  0  0  0
   24.8968   -9.7047  -15.5263 C   0  0  1  0  0  0  0  0  0  0  0  0
   25.4651  -10.0587  -16.8694 C   0  0  0  0  0  0  0  0  0  0  0  0
   26.7136  -10.8423  -16.7856 C   0  0  0  0  0  0  0  0  0  0  0  0
   27.8927  -10.1870  -16.4929 C   0  0  0  0  0  0  0  0  0  0  0  0
   29.0737  -10.8916  -16.4080 C   0  0  0  0  0  0  0  0  0  0  0  0
   29.0895  -12.2581  -16.6146 C   0  0  0  0  0  0  0  0  0  0  0  0
   27.9122  -12.8871  -16.9029 C   0  0  0  0  0  0  0  0  0  0  0  0
   26.7179  -12.2072  -16.9937 C   0  0  0  0  0  0  0  0  0  0  0  0
   23.6066   -8.9891  -15.7664 C   0  0  0  0  0  0  0  0  0  0  0  0
   22.5632   -9.7134  -15.6837 O   0  0  0  0  0  0  0  0  0  0  0  0
   23.5771   -7.6194  -16.0594 N   0  0  0  0  0  0  0  0  0  0  0  0
   22.3254   -6.9258  -16.1779 C   0  0  1  0  0  0  0  0  0  0  0  0
   22.3720   -5.4850  -15.7854 C   0  0  0  0  0  0  0  0  0  0  0  0
   22.4094   -5.3610  -14.3151 C   0  0  0  0  0  0  0  0  0  0  0  0
   21.9577   -6.2111  -13.5133 O   0  0  0  0  0  0  0  0  0  0  0  0
   21.7541   -7.0728  -17.5580 C   0  0  0  0  0  0  0  0  0  0  0  0
   22.5316   -7.0282  -18.5428 O   0  0  0  0  0  0  0  0  0  0  0  0
   22.9958   -4.2017  -13.7624 O   0  0  0  0  0  0  0  0  0  0  0  0
   20.3642   -7.2606  -17.7839 N   0  0  0  0  0  0  0  0  0  0  0  0
   19.8365   -7.4592  -19.1416 C   0  0  1  0  0  0  0  0  0  0  0  0
   18.4637   -8.1314  -19.0087 C   0  0  0  0  0  0  0  0  0  0  0  0
   18.6410   -9.5656  -18.6844 C   0  0  0  0  0  0  0  0  0  0  0  0
   19.7661  -10.3264  -18.9190 C   0  0  0  0  0  0  0  0  0  0  0  0
   19.5130  -11.5679  -18.4780 N   0  0  0  0  0  0  0  0  0  0  0  0
   18.2756  -11.6019  -17.9808 C   0  0  0  0  0  0  0  0  0  0  0  0
   17.7543  -10.3709  -18.1135 N   0  0  0  0  0  0  0  0  0  0  0  0
   19.6677   -6.1244  -19.7629 C   0  0  0  0  0  0  0  0  0  0  0  0
   19.4805   -5.0803  -19.0530 O   0  0  0  0  0  0  0  0  0  0  0  0
   19.7047   -5.9467  -21.1315 O   0  0  0  0  0  0  0  0  0  0  0  0
  2  1  1  1
  2 10  1  0
  3  2  1  0
  3  4  1  0
  4  5  2  0
  4  9  1  0
  5  6  1  0
  6  7  2  0
  8  7  1  0
  9  8  2  0
 10 11  2  0
 12 10  1  0
 12 13  1  0
 13 17  1  0
 13 14  1  6
 14 15  1  0
 15 16  2  0
 17 18  2  0
 19 15  1  0
 20 21  1  0
 20 17  1  0
 21 28  1  0
 21 22  1  1
 23 22  1  0
 24 23  2  0
 25 24  1  0
 26 25  1  0
 26 27  2  0
 27 23  1  0
 28 29  2  0
 28 30  1  0
M  END
$$$$
