FDH.pdb
     RDKit          3D

 30 31  0  0  1  0  0  0  0  0999 V2000
   27.7058  -22.2163  -11.1136 N   0  0  0  0  0  0  0  0  0  0  0  0
   26.6552  -21.2274  -10.9853 C   0  0  1  0  0  0  0  0  0  0  0  0
   27.1775  -19.8841  -10.5670 C   0  0  0  0  0  0  0  0  0  0  0  0
   27.7379  -19.8764   -9.2011 C   0  0  0  0  0  0  0  0  0  0  0  0
   29.0738  -20.1776   -9.0277 C   0  0  0  0  0  0  0  0  0  0  0  0
   29.6251  -20.1786   -7.7649 C   0  0  0  0  0  0  0  0  0  0  0  0
   28.8479  -19.8787   -6.6621 C   0  0  0  0  0  0  0  0  0  0  0  0
   27.5286  -19.5836   -6.8554 C   0  0  0  0  0  0  0  0  0  0  0  0
   26.9524  -19.5754   -8.1063 C   0  0  0  0  0  0  0  0  0  0  0  0
   25.9799  -21.0477  -12.3067 C   0  0  0  0  0  0  0  0  0  0  0  0
   26.6162  -21.5122  -13.3066 O   0  0  0  0  0  0  0  0  0  0  0  0
   24.7366  -20.4102  -12.4084 N   0  0  0  0  0  0  0  0  0  0  0  0
   23.6919  -20.9739  -13.2162 C   0  0  1  0  0  0  0  0  0  0  0  0
   23.4200  -22.4209  -12.9622 C   0  0  0  0  0  0  0  0  0  0  0  0
   24.0885  -23.2495  -13.9844 C   0  0  0  0  0  0  0  0  0  0  0  0
   24.1365  -22.9781  -15.2066 O   0  0  0  0  0  0  0  0  0  0  0  0
   22.4262  -20.1760  -13.0976 C   0  0  0  0  0  0  0  0  0  0  0  0
   22.4487  -19.0971  -12.4559 O   0  0  0  0  0  0  0  0  0  0  0  0
   24.7237  -24.4378  -13.5628 O   0  0  0  0  0  0  0  0  0  0  0  0
   21.2064  -20.6029  -13.6876 N   0  0  0  0  0  0  0  0  0  0  0  0
   20.6062  -19.8636  -14.8077 C   0  0  1  0  0  0  0  0  0  0  0  0
   21.6487  -19.8043  -15.9319 C   0  0  0  0  0  0  0  0  0  0  0  0
   21.7572  -18.4165  -16.4377 C   0  0  0  0  0  0  0  0  0  0  0  0
   21.0256  -17.3289  -16.0116 C   0  0  0  0  0  0  0  0  0  0  0  0
   21.4307  -16.2662  -16.7233 N   0  0  0  0  0  0  0  0  0  0  0  0
   22.3834  -16.6566  -17.5715 C   0  0  0  0  0  0  0  0  0  0  0  0
   22.5728  -17.9735  -17.3859 N   0  0  0  0  0  0  0  0  0  0  0  0
   19.4266  -20.6283  -15.2764 C   0  0  0  0  0  0  0  0  0  0  0  0
   19.5002  -21.8788  -15.5212 O   0  0  0  0  0  0  0  0  0  0  0  0
   18.1981  -20.0287  -15.4697 O   0  0  0  0  0  0  0  0  0  0  0  0
  2  1  1  6
  2 10  1  0
  3  2  1  0
  3  4  1  0
  4  5  2  0
  4  9  1  0
  5  6  1  0
  6  7  2  0
  8  7  1  0
  9  8  2  0
 10 11  2  0
 12 10  1  0
 12 13  1  0
 13 17  1  0
 13 14  1  1
 14 15  1  0
 15 16  2  0
 17 18  2  0
 19 15  1  0
 20 21  1  0
 20 17  1  0
 21 28  1  0
 21 22  1  6
 23 22  1  0
 24 23  2  0
 25 24  1  0
 26 25  1  0
 26 27  2  0
 27 23  1  0
 28 29  2  0
 28 30  1  0
M  END
$$$$
