FDH.pdb
     RDKit          3D

 30 31  0  0  1  0  0  0  0  0999 V2000
   25.0371  -20.5921  -14.3378 N   0  0  0  0  0  0  0  0  0  0  0  0
   24.6672  -19.6155  -15.3416 C   0  0  1  0  0  0  0  0  0  0  0  0
   25.8202  -19.2299  -16.2216 C   0  0  0  0  0  0  0  0  0  0  0  0
   27.1247  -19.2912  -15.5329 C   0  0  0  0  0  0  0  0  0  0  0  0
   27.5257  -18.2136  -14.7690 C   0  0  0  0  0  0  0  0  0  0  0  0
   28.7379  -18.2418  -14.1146 C   0  0  0  0  0  0  0  0  0  0  0  0
   29.5623  -19.3464  -14.2162 C   0  0  0  0  0  0  0  0  0  0  0  0
   29.1469  -20.4018  -14.9769 C   0  0  0  0  0  0  0  0  0  0  0  0
   27.9405  -20.3998  -15.6413 C   0  0  0  0  0  0  0  0  0  0  0  0
   23.6086  -20.1909  -16.2261 C   0  0  0  0  0  0  0  0  0  0  0  0
   23.2152  -19.4272  -17.1655 O   0  0  0  0  0  0  0  0  0  0  0  0
   23.1036  -21.4803  -16.0138 N   0  0  0  0  0  0  0  0  0  0  0  0
   22.0196  -21.9796  -16.8121 C   0  0  1  0  0  0  0  0  0  0  0  0
   22.0411  -23.4563  -17.0381 C   0  0  0  0  0  0  0  0  0  0  0  0
   21.0240  -23.8308  -18.0401 C   0  0  0  0  0  0  0  0  0  0  0  0
   20.2449  -23.0277  -18.6040 O   0  0  0  0  0  0  0  0  0  0  0  0
   20.6940  -21.5567  -16.2495 C   0  0  0  0  0  0  0  0  0  0  0  0
   20.6710  -20.9183  -15.1687 O   0  0  0  0  0  0  0  0  0  0  0  0
   20.9137  -25.1927  -18.3956 O   0  0  0  0  0  0  0  0  0  0  0  0
   19.4672  -21.8556  -16.9008 N   0  0  0  0  0  0  0  0  0  0  0  0
   18.2126  -21.2097  -16.4882 C   0  0  1  0  0  0  0  0  0  0  0  0
   18.3992  -19.6954  -16.6496 C   0  0  0  0  0  0  0  0  0  0  0  0
   18.8271  -19.1063  -15.3598 C   0  0  0  0  0  0  0  0  0  0  0  0
   18.3291  -19.4145  -14.1121 C   0  0  0  0  0  0  0  0  0  0  0  0
   18.9853  -18.6598  -13.2179 N   0  0  0  0  0  0  0  0  0  0  0  0
   19.8684  -17.8984  -13.8660 C   0  0  0  0  0  0  0  0  0  0  0  0
   19.7608  -18.1819  -15.1747 N   0  0  0  0  0  0  0  0  0  0  0  0
   17.1425  -21.6696  -17.4046 C   0  0  0  0  0  0  0  0  0  0  0  0
   17.3694  -21.8653  -18.6453 O   0  0  0  0  0  0  0  0  0  0  0  0
   15.8562  -21.9071  -16.9631 O   0  0  0  0  0  0  0  0  0  0  0  0
  2  1  1  1
  2 10  1  0
  3  2  1  0
  3  4  1  0
  4  5  2  0
  4  9  1  0
  5  6  1  0
  6  7  2  0
  8  7  1  0
  9  8  2  0
 10 11  2  0
 12 10  1  0
 12 13  1  0
 13 17  1  0
 13 14  1  1
 14 15  1  0
 15 16  2  0
 17 18  2  0
 19 15  1  0
 20 21  1  0
 20 17  1  0
 21 28  1  0
 21 22  1  6
 23 22  1  0
 24 23  2  0
 25 24  1  0
 26 25  1  0
 26 27  2  0
 27 23  1  0
 28 29  2  0
 28 30  1  0
M  END
$$$$
