FDH.pdb
     RDKit          3D

 30 31  0  0  1  0  0  0  0  0999 V2000
   25.1442  -11.0493  -18.0804 N   0  0  0  0  0  0  0  0  0  0  0  0
   24.6724  -10.5314  -16.8126 C   0  0  1  0  0  0  0  0  0  0  0  0
   25.7361   -9.7809  -16.0659 C   0  0  0  0  0  0  0  0  0  0  0  0
   26.9581  -10.5769  -15.8359 C   0  0  0  0  0  0  0  0  0  0  0  0
   28.1416  -10.1617  -16.4125 C   0  0  0  0  0  0  0  0  0  0  0  0
   29.2984  -10.8840  -16.2158 C   0  0  0  0  0  0  0  0  0  0  0  0
   29.2853  -12.0285  -15.4412 C   0  0  0  0  0  0  0  0  0  0  0  0
   28.1041  -12.4219  -14.8798 C   0  0  0  0  0  0  0  0  0  0  0  0
   26.9338  -11.7187  -15.0602 C   0  0  0  0  0  0  0  0  0  0  0  0
   23.5461   -9.5789  -17.0548 C   0  0  0  0  0  0  0  0  0  0  0  0
   23.4548   -9.1417  -18.2468 O   0  0  0  0  0  0  0  0  0  0  0  0
   22.6693   -9.2112  -16.0259 N   0  0  0  0  0  0  0  0  0  0  0  0
   21.4991   -8.4291  -16.3097 C   0  0  1  0  0  0  0  0  0  0  0  0
   20.2414   -8.9408  -15.6863 C   0  0  0  0  0  0  0  0  0  0  0  0
   19.8765  -10.2434  -16.2768 C   0  0  0  0  0  0  0  0  0  0  0  0
   19.8223  -10.4824  -17.5055 O   0  0  0  0  0  0  0  0  0  0  0  0
   21.7114   -6.9876  -15.9494 C   0  0  0  0  0  0  0  0  0  0  0  0
   22.2898   -6.7125  -14.8696 O   0  0  0  0  0  0  0  0  0  0  0  0
   19.5636  -11.3046  -15.3996 O   0  0  0  0  0  0  0  0  0  0  0  0
   21.2793   -5.9274  -16.7906 N   0  0  0  0  0  0  0  0  0  0  0  0
   21.5665   -4.5258  -16.4524 C   0  0  1  0  0  0  0  0  0  0  0  0
   21.2459   -3.6781  -17.6904 C   0  0  0  0  0  0  0  0  0  0  0  0
   21.5569   -2.2565  -17.4146 C   0  0  0  0  0  0  0  0  0  0  0  0
   21.1153   -1.5139  -16.3408 C   0  0  0  0  0  0  0  0  0  0  0  0
   21.6237   -0.2788  -16.4678 N   0  0  0  0  0  0  0  0  0  0  0  0
   22.3615   -0.2315  -17.5782 C   0  0  0  0  0  0  0  0  0  0  0  0
   22.3117   -1.4475  -18.1469 N   0  0  0  0  0  0  0  0  0  0  0  0
   20.6643   -4.1319  -15.3447 C   0  0  0  0  0  0  0  0  0  0  0  0
   19.4683   -4.5719  -15.2739 O   0  0  0  0  0  0  0  0  0  0  0  0
   21.0715   -3.2751  -14.3416 O   0  0  0  0  0  0  0  0  0  0  0  0
  2  1  1  6
  2 10  1  0
  3  2  1  0
  3  4  1  0
  4  5  2  0
  4  9  1  0
  5  6  1  0
  6  7  2  0
  8  7  1  0
  9  8  2  0
 10 11  2  0
 12 10  1  0
 12 13  1  0
 13 17  1  0
 13 14  1  1
 14 15  1  0
 15 16  2  0
 17 18  2  0
 19 15  1  0
 20 21  1  0
 20 17  1  0
 21 28  1  0
 21 22  1  6
 23 22  1  0
 24 23  2  0
 25 24  1  0
 26 25  1  0
 26 27  2  0
 27 23  1  0
 28 29  2  0
 28 30  1  0
M  END
$$$$
