SCT.pdb
     RDKit          3D

 20 19  0  0  1  0  0  0  0  0999 V2000
   15.7540  -13.7203   17.7735 O   0  0  0  0  0  0  0  0  0  0  0  0
   15.6003  -15.0728   17.9941 C   0  0  0  0  0  0  0  0  0  0  0  0
   14.8014  -15.7244   16.8870 C   0  0  2  0  0  0  0  0  0  0  0  0
   15.0652  -14.9870   15.6751 N   0  0  0  0  0  0  0  0  0  0  0  0
   13.3639  -15.7442   17.1568 C   0  0  0  0  0  0  0  0  0  0  0  0
   12.5710  -15.1490   16.3841 O   0  0  0  0  0  0  0  0  0  0  0  0
   12.7797  -16.4129   18.2708 N   0  0  0  0  0  0  0  0  0  0  0  0
   11.3528  -16.4857   18.4574 C   0  0  1  0  0  0  0  0  0  0  0  0
   10.8739  -17.9121   18.6298 C   0  0  0  0  0  0  0  0  0  0  0  0
    9.0903  -17.9910   18.9135 S   0  0  0  0  0  0  0  0  0  0  0  0
   10.8895  -15.6626   19.5929 C   0  0  0  0  0  0  0  0  0  0  0  0
   11.5929  -15.6191   20.6310 O   0  0  0  0  0  0  0  0  0  0  0  0
    8.2383  -12.2171   19.2427 C   0  0  0  0  0  0  0  0  0  0  0  0
    7.9390  -13.3673   20.1565 C   0  0  1  0  0  0  0  0  0  0  0  0
    7.1247  -14.2779   19.4747 O   0  0  0  0  0  0  0  0  0  0  0  0
    9.1918  -14.1018   20.6041 C   0  0  2  0  0  0  0  0  0  0  0  0
    9.6756  -14.9312   19.5238 N   0  0  0  0  0  0  0  0  0  0  0  0
    8.8471  -14.9707   21.7494 C   0  0  0  0  0  0  0  0  0  0  0  0
    8.4757  -14.4676   22.9904 O   0  0  0  0  0  0  0  0  0  0  0  0
    8.8861  -16.2156   21.6137 O   0  0  0  0  0  0  0  0  0  0  0  0
  1  2  1  0
  3  5  1  0
  3  2  1  0
  3  4  1  6
  5  6  2  0
  7  8  1  0
  7  5  1  0
  8  9  1  1
  9 10  1  0
 11  8  1  0
 12 11  2  0
 14 13  1  6
 14 16  1  0
 15 14  1  0
 16 18  1  0
 16 17  1  6
 17 11  1  0
 18 19  1  0
 20 18  2  0
M  END
$$$$
