SCT.pdb
     RDKit          3D

 20 19  0  0  1  0  0  0  0  0999 V2000
   13.4959  -17.2581   20.9329 O   0  0  0  0  0  0  0  0  0  0  0  0
   12.4978  -17.8782   21.6545 C   0  0  0  0  0  0  0  0  0  0  0  0
   11.1269  -17.4701   21.1622 C   0  0  2  0  0  0  0  0  0  0  0  0
   11.3148  -16.4286   20.1813 N   0  0  0  0  0  0  0  0  0  0  0  0
   10.2540  -16.9942   22.2352 C   0  0  0  0  0  0  0  0  0  0  0  0
    9.8092  -15.8188   22.2090 O   0  0  0  0  0  0  0  0  0  0  0  0
    9.8594  -17.7957   23.3447 N   0  0  0  0  0  0  0  0  0  0  0  0
    9.0527  -17.2727   24.4181 C   0  0  1  0  0  0  0  0  0  0  0  0
    7.9809  -18.2507   24.8523 C   0  0  0  0  0  0  0  0  0  0  0  0
    6.9024  -17.5444   26.1196 S   0  0  0  0  0  0  0  0  0  0  0  0
    9.8612  -16.8669   25.5855 C   0  0  0  0  0  0  0  0  0  0  0  0
   10.8622  -17.5579   25.8937 O   0  0  0  0  0  0  0  0  0  0  0  0
    9.8480  -12.8122   27.1495 C   0  0  0  0  0  0  0  0  0  0  0  0
    9.6859  -14.0015   28.0479 C   0  0  1  0  0  0  0  0  0  0  0  0
    8.3195  -14.2412   28.2275 O   0  0  0  0  0  0  0  0  0  0  0  0
   10.3117  -15.2609   27.4720 C   0  0  2  0  0  0  0  0  0  0  0  0
    9.5235  -15.7211   26.3512 N   0  0  0  0  0  0  0  0  0  0  0  0
   10.3093  -16.3095   28.5140 C   0  0  0  0  0  0  0  0  0  0  0  0
   11.0319  -16.1976   29.6957 O   0  0  0  0  0  0  0  0  0  0  0  0
    9.6328  -17.3499   28.3415 O   0  0  0  0  0  0  0  0  0  0  0  0
  1  2  1  0
  3  5  1  0
  3  2  1  0
  3  4  1  6
  5  6  2  0
  7  8  1  0
  7  5  1  0
  8  9  1  1
  9 10  1  0
 11  8  1  0
 12 11  2  0
 14 13  1  6
 14 16  1  0
 15 14  1  0
 16 18  1  0
 16 17  1  6
 17 11  1  0
 18 19  1  0
 20 18  2  0
M  END
$$$$
