SCT.pdb
     RDKit          3D

 20 19  0  0  1  0  0  0  0  0999 V2000
    7.3013  -15.4031   19.8306 O   0  0  0  0  0  0  0  0  0  0  0  0
    6.4548  -14.3235   19.9701 C   0  0  0  0  0  0  0  0  0  0  0  0
    7.1877  -13.1145   20.5084 C   0  0  2  0  0  0  0  0  0  0  0  0
    8.0696  -12.6472   19.4663 N   0  0  0  0  0  0  0  0  0  0  0  0
    7.9551  -13.4053   21.7192 C   0  0  0  0  0  0  0  0  0  0  0  0
    9.1938  -13.6054   21.6454 O   0  0  0  0  0  0  0  0  0  0  0  0
    7.3782  -13.4801   23.0195 N   0  0  0  0  0  0  0  0  0  0  0  0
    8.1659  -13.7702   24.1907 C   0  0  1  0  0  0  0  0  0  0  0  0
    7.6007  -13.1138   25.4330 C   0  0  0  0  0  0  0  0  0  0  0  0
    5.8466  -13.4922   25.6522 S   0  0  0  0  0  0  0  0  0  0  0  0
    8.3233  -15.2208   24.4197 C   0  0  0  0  0  0  0  0  0  0  0  0
    7.3211  -15.9635   24.2843 O   0  0  0  0  0  0  0  0  0  0  0  0
   10.3101  -17.4314   22.4145 C   0  0  0  0  0  0  0  0  0  0  0  0
   10.8300  -17.6032   23.8102 C   0  0  1  0  0  0  0  0  0  0  0  0
   11.9621  -16.7964   23.9664 O   0  0  0  0  0  0  0  0  0  0  0  0
    9.8160  -17.1988   24.8674 C   0  0  2  0  0  0  0  0  0  0  0  0
    9.5768  -15.7756   24.7858 N   0  0  0  0  0  0  0  0  0  0  0  0
   10.3735  -17.5089   26.2009 C   0  0  0  0  0  0  0  0  0  0  0  0
   10.6313  -18.8067   26.6253 O   0  0  0  0  0  0  0  0  0  0  0  0
   10.6307  -16.5746   26.9951 O   0  0  0  0  0  0  0  0  0  0  0  0
  1  2  1  0
  3  5  1  0
  3  2  1  0
  3  4  1  6
  5  6  2  0
  7  8  1  0
  7  5  1  0
  8  9  1  1
  9 10  1  0
 11  8  1  0
 12 11  2  0
 14 13  1  6
 14 16  1  0
 15 14  1  0
 16 18  1  0
 16 17  1  1
 17 11  1  0
 18 19  1  0
 20 18  2  0
M  END
$$$$
