SCT.pdb
     RDKit          3D

 20 19  0  0  1  0  0  0  0  0999 V2000
    8.2281  -17.5881   20.3279 O   0  0  0  0  0  0  0  0  0  0  0  0
    8.7587  -17.3820   21.5838 C   0  0  0  0  0  0  0  0  0  0  0  0
    9.2949  -15.9751   21.7315 C   0  0  2  0  0  0  0  0  0  0  0  0
   10.4620  -15.8693   20.8896 N   0  0  0  0  0  0  0  0  0  0  0  0
    9.6426  -15.6394   23.1120 C   0  0  0  0  0  0  0  0  0  0  0  0
   10.7900  -15.9021   23.5529 O   0  0  0  0  0  0  0  0  0  0  0  0
    8.7425  -15.0147   24.0224 N   0  0  0  0  0  0  0  0  0  0  0  0
    9.1099  -14.7268   25.3856 C   0  0  1  0  0  0  0  0  0  0  0  0
    8.2899  -13.5949   25.9686 C   0  0  0  0  0  0  0  0  0  0  0  0
    8.7612  -13.2360   27.6766 S   0  0  0  0  0  0  0  0  0  0  0  0
    9.0141  -15.9143   26.2586 C   0  0  0  0  0  0  0  0  0  0  0  0
    7.9088  -16.4998   26.3588 O   0  0  0  0  0  0  0  0  0  0  0  0
   10.3554  -19.1425   25.8592 C   0  0  0  0  0  0  0  0  0  0  0  0
   10.9308  -18.6744   27.1620 C   0  0  1  0  0  0  0  0  0  0  0  0
   12.2136  -18.1686   26.9264 O   0  0  0  0  0  0  0  0  0  0  0  0
   10.1037  -17.5746   27.8068 C   0  0  2  0  0  0  0  0  0  0  0  0
   10.1414  -16.3932   26.9748 N   0  0  0  0  0  0  0  0  0  0  0  0
   10.6955  -17.2464   29.1211 C   0  0  0  0  0  0  0  0  0  0  0  0
   10.7879  -18.1690   30.1561 O   0  0  0  0  0  0  0  0  0  0  0  0
   11.1375  -16.0924   29.3284 O   0  0  0  0  0  0  0  0  0  0  0  0
  1  2  1  0
  3  5  1  0
  3  2  1  0
  3  4  1  6
  5  6  2  0
  7  8  1  0
  7  5  1  0
  8  9  1  1
  9 10  1  0
 11  8  1  0
 12 11  2  0
 14 13  1  6
 14 16  1  0
 15 14  1  0
 16 18  1  0
 16 17  1  6
 17 11  1  0
 18 19  1  0
 20 18  2  0
M  END
$$$$
