SCT.pdb
     RDKit          3D

 20 19  0  0  1  0  0  0  0  0999 V2000
    9.3110  -17.8832   22.2516 O   0  0  0  0  0  0  0  0  0  0  0  0
    8.7775  -16.6457   21.9595 C   0  0  0  0  0  0  0  0  0  0  0  0
    9.7608  -15.5364   22.2611 C   0  0  2  0  0  0  0  0  0  0  0  0
   10.8900  -15.7114   21.3799 N   0  0  0  0  0  0  0  0  0  0  0  0
   10.2092  -15.5347   23.6534 C   0  0  0  0  0  0  0  0  0  0  0  0
   11.3382  -16.0005   23.9508 O   0  0  0  0  0  0  0  0  0  0  0  0
    9.4304  -15.0255   24.7321 N   0  0  0  0  0  0  0  0  0  0  0  0
    9.9035  -15.0442   26.0930 C   0  0  1  0  0  0  0  0  0  0  0  0
    9.2351  -13.9830   26.9419 C   0  0  0  0  0  0  0  0  0  0  0  0
    9.8865  -13.9648   28.6282 S   0  0  0  0  0  0  0  0  0  0  0  0
    9.7414  -16.3676   26.7286 C   0  0  0  0  0  0  0  0  0  0  0  0
    8.6008  -16.8902   26.7477 O   0  0  0  0  0  0  0  0  0  0  0  0
   11.1798  -19.7345   26.0086 C   0  0  0  0  0  0  0  0  0  0  0  0
   11.6290  -19.3340   27.3817 C   0  0  1  0  0  0  0  0  0  0  0  0
   12.9111  -18.7822   27.2879 O   0  0  0  0  0  0  0  0  0  0  0  0
   10.7175  -18.2978   28.0179 C   0  0  2  0  0  0  0  0  0  0  0  0
   10.8449  -17.0445   27.3092 N   0  0  0  0  0  0  0  0  0  0  0  0
   11.1395  -18.0933   29.4198 C   0  0  0  0  0  0  0  0  0  0  0  0
   11.1294  -19.1121   30.3648 O   0  0  0  0  0  0  0  0  0  0  0  0
   11.5256  -16.9601   29.7894 O   0  0  0  0  0  0  0  0  0  0  0  0
  1  2  1  0
  3  5  1  0
  3  2  1  0
  3  4  1  6
  5  6  2  0
  7  8  1  0
  7  5  1  0
  8  9  1  1
  9 10  1  0
 11  8  1  0
 12 11  2  0
 14 13  1  6
 14 16  1  0
 15 14  1  0
 16 18  1  0
 16 17  1  6
 17 11  1  0
 18 19  1  0
 20 18  2  0
M  END
$$$$
