SCT.pdb
     RDKit          3D

 20 19  0  0  1  0  0  0  0  0999 V2000
    7.2981  -16.9820   21.4022 O   0  0  0  0  0  0  0  0  0  0  0  0
    6.6752  -15.8067   21.0388 C   0  0  0  0  0  0  0  0  0  0  0  0
    7.6088  -14.6240   21.1725 C   0  0  2  0  0  0  0  0  0  0  0  0
    8.6025  -14.7410   20.1328 N   0  0  0  0  0  0  0  0  0  0  0  0
    8.2600  -14.5565   22.4805 C   0  0  0  0  0  0  0  0  0  0  0  0
    9.4582  -14.9151   22.6055 O   0  0  0  0  0  0  0  0  0  0  0  0
    7.6101  -14.0977   23.6622 N   0  0  0  0  0  0  0  0  0  0  0  0
    8.2663  -14.0964   24.9451 C   0  0  1  0  0  0  0  0  0  0  0  0
    7.6286  -13.1176   25.9090 C   0  0  0  0  0  0  0  0  0  0  0  0
    8.5162  -13.0513   27.4824 S   0  0  0  0  0  0  0  0  0  0  0  0
    8.3135  -15.4402   25.5561 C   0  0  0  0  0  0  0  0  0  0  0  0
    7.2360  -16.0576   25.7358 O   0  0  0  0  0  0  0  0  0  0  0  0
    9.9740  -18.4971   24.2845 C   0  0  0  0  0  0  0  0  0  0  0  0
   10.5566  -18.2115   25.6360 C   0  0  1  0  0  0  0  0  0  0  0  0
   11.7595  -17.5180   25.4652 O   0  0  0  0  0  0  0  0  0  0  0  0
    9.6423  -17.3594   26.5005 C   0  0  2  0  0  0  0  0  0  0  0  0
    9.5456  -16.0321   25.9364 N   0  0  0  0  0  0  0  0  0  0  0  0
   10.2303  -17.2567   27.8529 C   0  0  0  0  0  0  0  0  0  0  0  0
   10.4101  -18.3582   28.6807 O   0  0  0  0  0  0  0  0  0  0  0  0
   10.5873  -16.1371   28.2876 O   0  0  0  0  0  0  0  0  0  0  0  0
  1  2  1  0
  3  5  1  0
  3  2  1  0
  3  4  1  6
  5  6  2  0
  7  8  1  0
  7  5  1  0
  8  9  1  1
  9 10  1  0
 11  8  1  0
 12 11  2  0
 14 13  1  6
 14 16  1  0
 15 14  1  0
 16 18  1  0
 16 17  1  6
 17 11  1  0
 18 19  1  0
 20 18  2  0
M  END
$$$$
