SCT.pdb
     RDKit          3D

 20 19  0  0  1  0  0  0  0  0999 V2000
    7.0426  -16.0986   20.5620 O   0  0  0  0  0  0  0  0  0  0  0  0
    6.2869  -14.9459   20.5214 C   0  0  0  0  0  0  0  0  0  0  0  0
    7.1065  -13.7355   20.9110 C   0  0  2  0  0  0  0  0  0  0  0  0
    8.0497  -13.4941   19.8460 N   0  0  0  0  0  0  0  0  0  0  0  0
    7.8171  -13.9116   22.1773 C   0  0  0  0  0  0  0  0  0  0  0  0
    9.0283  -14.2479   22.1770 O   0  0  0  0  0  0  0  0  0  0  0  0
    7.2131  -13.7224   23.4535 N   0  0  0  0  0  0  0  0  0  0  0  0
    7.9351  -13.9392   24.6816 C   0  0  1  0  0  0  0  0  0  0  0  0
    7.2554  -13.2815   25.8644 C   0  0  0  0  0  0  0  0  0  0  0  0
    5.5278  -13.7926   26.0144 S   0  0  0  0  0  0  0  0  0  0  0  0
    8.1513  -15.3728   24.9634 C   0  0  0  0  0  0  0  0  0  0  0  0
    7.1804  -16.1603   24.8557 O   0  0  0  0  0  0  0  0  0  0  0  0
   12.0403  -16.8708   24.7424 C   0  0  0  0  0  0  0  0  0  0  0  0
   10.8074  -17.7165   24.6307 C   0  0  1  0  0  0  0  0  0  0  0  0
   11.1402  -19.0350   24.9593 O   0  0  0  0  0  0  0  0  0  0  0  0
    9.6995  -17.2646   25.5676 C   0  0  2  0  0  0  0  0  0  0  0  0
    9.4261  -15.8623   25.3488 N   0  0  0  0  0  0  0  0  0  0  0  0
   10.1560  -17.4454   26.9620 C   0  0  0  0  0  0  0  0  0  0  0  0
   10.3705  -16.3797   27.8275 O   0  0  0  0  0  0  0  0  0  0  0  0
   10.3632  -18.6013   27.3989 O   0  0  0  0  0  0  0  0  0  0  0  0
  1  2  1  0
  3  5  1  0
  3  2  1  0
  3  4  1  6
  5  6  2  0
  7  8  1  0
  7  5  1  0
  8  9  1  1
  9 10  1  0
 11  8  1  0
 12 11  2  0
 14 13  1  1
 14 16  1  0
 15 14  1  0
 16 18  1  0
 16 17  1  6
 17 11  1  0
 18 19  1  0
 20 18  2  0
M  END
$$$$
