SCT.pdb
     RDKit          3D

 20 19  0  0  1  0  0  0  0  0999 V2000
    6.4430  -16.8062   19.6358 O   0  0  0  0  0  0  0  0  0  0  0  0
    6.1185  -16.0148   20.7173 C   0  0  0  0  0  0  0  0  0  0  0  0
    6.8400  -14.6863   20.6644 C   0  0  2  0  0  0  0  0  0  0  0  0
    7.5336  -14.6238   19.4006 N   0  0  0  0  0  0  0  0  0  0  0  0
    7.7881  -14.5080   21.7639 C   0  0  0  0  0  0  0  0  0  0  0  0
    9.0231  -14.4834   21.5313 O   0  0  0  0  0  0  0  0  0  0  0  0
    7.3972  -14.3554   23.1253 N   0  0  0  0  0  0  0  0  0  0  0  0
    8.3586  -14.3196   24.1980 C   0  0  1  0  0  0  0  0  0  0  0  0
    7.8758  -13.4859   25.3666 C   0  0  0  0  0  0  0  0  0  0  0  0
    6.0765  -13.5416   25.5319 S   0  0  0  0  0  0  0  0  0  0  0  0
    8.7307  -15.6697   24.6675 C   0  0  0  0  0  0  0  0  0  0  0  0
    7.8168  -16.4764   24.9648 O   0  0  0  0  0  0  0  0  0  0  0  0
   10.7901  -18.0511   22.6698 C   0  0  0  0  0  0  0  0  0  0  0  0
   11.4542  -17.9013   24.0056 C   0  0  1  0  0  0  0  0  0  0  0  0
   12.4880  -16.9664   23.8869 O   0  0  0  0  0  0  0  0  0  0  0  0
   10.5004  -17.4122   25.0829 C   0  0  2  0  0  0  0  0  0  0  0  0
   10.0901  -16.0587   24.7843 N   0  0  0  0  0  0  0  0  0  0  0  0
   11.2096  -17.4160   26.3799 C   0  0  0  0  0  0  0  0  0  0  0  0
   11.6304  -18.5842   27.0038 O   0  0  0  0  0  0  0  0  0  0  0  0
   11.4499  -16.3294   26.9555 O   0  0  0  0  0  0  0  0  0  0  0  0
  1  2  1  0
  3  5  1  0
  3  2  1  0
  3  4  1  6
  5  6  2  0
  7  8  1  0
  7  5  1  0
  8  9  1  1
  9 10  1  0
 11  8  1  0
 12 11  2  0
 14 13  1  6
 14 16  1  0
 15 14  1  0
 16 18  1  0
 16 17  1  6
 17 11  1  0
 18 19  1  0
 20 18  2  0
M  END
$$$$
