SCT.pdb
     RDKit          3D

 20 19  0  0  1  0  0  0  0  0999 V2000
    7.5019  -18.1633   19.2929 O   0  0  0  0  0  0  0  0  0  0  0  0
    7.5811  -16.8214   18.9858 C   0  0  0  0  0  0  0  0  0  0  0  0
    8.4263  -16.0742   19.9937 C   0  0  2  0  0  0  0  0  0  0  0  0
    9.6327  -16.8398   20.1948 N   0  0  0  0  0  0  0  0  0  0  0  0
    7.7441  -15.8719   21.2717 C   0  0  0  0  0  0  0  0  0  0  0  0
    6.6888  -15.1907   21.3201 O   0  0  0  0  0  0  0  0  0  0  0  0
    8.2070  -16.4105   22.5066 N   0  0  0  0  0  0  0  0  0  0  0  0
    7.4688  -16.2543   23.7342 C   0  0  1  0  0  0  0  0  0  0  0  0
    7.2330  -17.5794   24.4284 C   0  0  0  0  0  0  0  0  0  0  0  0
    5.9626  -18.5574   23.5930 S   0  0  0  0  0  0  0  0  0  0  0  0
    8.1177  -15.3103   24.6666 C   0  0  0  0  0  0  0  0  0  0  0  0
    9.3710  -15.2834   24.7200 O   0  0  0  0  0  0  0  0  0  0  0  0
    6.4139  -11.5685   25.7194 C   0  0  0  0  0  0  0  0  0  0  0  0
    6.8721  -12.4794   26.8184 C   0  0  1  0  0  0  0  0  0  0  0  0
    5.7747  -13.2205   27.2696 O   0  0  0  0  0  0  0  0  0  0  0  0
    7.9426  -13.4567   26.3619 C   0  0  2  0  0  0  0  0  0  0  0  0
    7.3508  -14.4464   25.4904 N   0  0  0  0  0  0  0  0  0  0  0  0
    8.4950  -14.1421   27.5494 C   0  0  0  0  0  0  0  0  0  0  0  0
    8.3972  -15.5152   27.7389 O   0  0  0  0  0  0  0  0  0  0  0  0
    9.0795  -13.4725   28.4326 O   0  0  0  0  0  0  0  0  0  0  0  0
  1  2  1  0
  3  5  1  0
  3  2  1  0
  3  4  1  1
  5  6  2  0
  7  8  1  0
  7  5  1  0
  8  9  1  1
  9 10  1  0
 11  8  1  0
 12 11  2  0
 14 13  1  6
 14 16  1  0
 15 14  1  0
 16 18  1  0
 16 17  1  6
 17 11  1  0
 18 19  1  0
 20 18  2  0
M  END
$$$$
