KFF.pdb
     RDKit          3D

 32 33  0  0  1  0  0  0  0  0999 V2000
   23.0329  -24.9869  -15.0391 N   0  0  0  0  0  0  0  0  0  0  0  0
   24.3438  -24.3619  -14.7897 C   0  0  1  0  0  0  0  0  0  0  0  0
   24.8162  -23.8802  -16.1263 C   0  0  0  0  0  0  0  0  0  0  0  0
   25.2947  -24.9379  -17.0585 C   0  0  0  0  0  0  0  0  0  0  0  0
   26.5858  -25.5140  -16.5261 C   0  0  0  0  0  0  0  0  0  0  0  0
   27.1801  -26.5489  -17.4431 C   0  0  0  0  0  0  0  0  0  0  0  0
   28.4138  -27.0170  -16.7899 N   0  0  0  0  0  0  0  0  0  0  0  0
   24.1881  -23.2565  -13.8227 C   0  0  0  0  0  0  0  0  0  0  0  0
   23.1577  -22.5455  -13.8837 O   0  0  0  0  0  0  0  0  0  0  0  0
   25.1579  -22.9923  -12.8521 N   0  0  0  0  0  0  0  0  0  0  0  0
   25.1728  -21.7607  -12.0499 C   0  0  1  0  0  0  0  0  0  0  0  0
   26.1522  -22.0345  -10.9258 C   0  0  0  0  0  0  0  0  0  0  0  0
   26.1814  -21.0044   -9.8885 C   0  0  0  0  0  0  0  0  0  0  0  0
   26.9897  -19.8919   -9.9722 C   0  0  0  0  0  0  0  0  0  0  0  0
   26.9823  -18.9337   -8.9630 C   0  0  0  0  0  0  0  0  0  0  0  0
   26.1811  -19.0666   -7.8702 C   0  0  0  0  0  0  0  0  0  0  0  0
   25.3611  -20.1803   -7.7695 C   0  0  0  0  0  0  0  0  0  0  0  0
   25.3755  -21.1274   -8.7780 C   0  0  0  0  0  0  0  0  0  0  0  0
   25.6352  -20.6608  -12.9138 C   0  0  0  0  0  0  0  0  0  0  0  0
   26.5664  -20.8541  -13.7434 O   0  0  0  0  0  0  0  0  0  0  0  0
   25.0446  -19.3842  -12.8233 N   0  0  0  0  0  0  0  0  0  0  0  0
   25.3736  -18.2838  -13.7448 C   0  0  1  0  0  0  0  0  0  0  0  0
   26.8641  -18.2081  -13.7932 C   0  0  0  0  0  0  0  0  0  0  0  0
   27.2775  -17.1820  -14.7654 C   0  0  0  0  0  0  0  0  0  0  0  0
   26.9208  -15.8576  -14.5165 C   0  0  0  0  0  0  0  0  0  0  0  0
   27.3014  -14.8720  -15.4009 C   0  0  0  0  0  0  0  0  0  0  0  0
   28.0290  -15.1829  -16.5255 C   0  0  0  0  0  0  0  0  0  0  0  0
   28.3819  -16.4887  -16.7727 C   0  0  0  0  0  0  0  0  0  0  0  0
   27.9998  -17.4845  -15.8830 C   0  0  0  0  0  0  0  0  0  0  0  0
   24.7457  -18.5921  -15.0442 C   0  0  0  0  0  0  0  0  0  0  0  0
   24.9283  -17.8509  -16.0304 O   0  0  0  0  0  0  0  0  0  0  0  0
   23.9376  -19.7004  -15.2315 O   0  0  0  0  0  0  0  0  0  0  0  0
  2  3  1  0
  2  1  1  6
  3  4  1  0
  5  4  1  0
  6  5  1  0
  7  6  1  0
  8  9  2  0
  8  2  1  0
 10  8  1  0
 11 19  1  0
 11 10  1  0
 11 12  1  1
 13 12  1  0
 14 13  2  0
 15 14  1  0
 16 15  2  0
 16 17  1  0
 17 18  2  0
 18 13  1  0
 19 21  1  0
 20 19  2  0
 21 22  1  0
 22 30  1  0
 23 24  1  0
 22 23  1  6
 24 29  2  0
 25 26  2  0
 25 24  1  0
 26 27  1  0
 27 28  2  0
 29 28  1  0
 30 31  2  0
 30 32  1  0
M  END
$$$$
