KFF.pdb
     RDKit          3D

 32 33  0  0  1  0  0  0  0  0999 V2000
   29.7834  -26.4691  -17.0719 N   0  0  0  0  0  0  0  0  0  0  0  0
   28.6550  -27.0462  -17.8237 C   0  0  1  0  0  0  0  0  0  0  0  0
   29.1957  -28.2874  -18.4630 C   0  0  0  0  0  0  0  0  0  0  0  0
   29.1503  -28.3163  -19.9508 C   0  0  0  0  0  0  0  0  0  0  0  0
   27.7996  -28.8304  -20.3909 C   0  0  0  0  0  0  0  0  0  0  0  0
   27.9020  -29.9004  -21.4444 C   0  0  0  0  0  0  0  0  0  0  0  0
   26.5231  -30.3317  -21.7276 N   0  0  0  0  0  0  0  0  0  0  0  0
   27.5416  -27.3364  -16.8980 C   0  0  0  0  0  0  0  0  0  0  0  0
   27.7908  -27.4486  -15.6748 O   0  0  0  0  0  0  0  0  0  0  0  0
   26.2301  -27.4864  -17.3562 N   0  0  0  0  0  0  0  0  0  0  0  0
   25.0892  -27.7134  -16.4577 C   0  0  1  0  0  0  0  0  0  0  0  0
   24.1445  -26.5575  -16.7207 C   0  0  0  0  0  0  0  0  0  0  0  0
   24.4741  -25.3330  -15.9927 C   0  0  0  0  0  0  0  0  0  0  0  0
   23.9968  -25.0727  -14.7269 C   0  0  0  0  0  0  0  0  0  0  0  0
   24.3398  -23.8954  -14.0689 C   0  0  0  0  0  0  0  0  0  0  0  0
   25.1520  -22.9719  -14.6532 C   0  0  0  0  0  0  0  0  0  0  0  0
   25.6415  -23.2175  -15.9271 C   0  0  0  0  0  0  0  0  0  0  0  0
   25.2948  -24.3910  -16.5731 C   0  0  0  0  0  0  0  0  0  0  0  0
   24.4772  -29.0042  -16.8168 C   0  0  0  0  0  0  0  0  0  0  0  0
   24.3411  -29.3264  -18.0294 O   0  0  0  0  0  0  0  0  0  0  0  0
   24.0379  -29.8909  -15.8131 N   0  0  0  0  0  0  0  0  0  0  0  0
   23.5005  -31.2297  -16.1080 C   0  0  1  0  0  0  0  0  0  0  0  0
   24.2494  -32.1840  -15.2374 C   0  0  0  0  0  0  0  0  0  0  0  0
   25.6123  -32.3705  -15.7632 C   0  0  0  0  0  0  0  0  0  0  0  0
   25.7808  -33.1865  -16.8808 C   0  0  0  0  0  0  0  0  0  0  0  0
   27.0417  -33.3731  -17.4041 C   0  0  0  0  0  0  0  0  0  0  0  0
   28.1339  -32.7622  -16.8344 C   0  0  0  0  0  0  0  0  0  0  0  0
   27.9698  -31.9568  -15.7319 C   0  0  0  0  0  0  0  0  0  0  0  0
   26.7000  -31.7667  -15.2022 C   0  0  0  0  0  0  0  0  0  0  0  0
   22.0486  -31.1912  -15.8464 C   0  0  0  0  0  0  0  0  0  0  0  0
   21.5769  -30.4156  -14.9913 O   0  0  0  0  0  0  0  0  0  0  0  0
   21.1524  -31.9987  -16.5256 O   0  0  0  0  0  0  0  0  0  0  0  0
  2  3  1  0
  2  1  1  1
  3  4  1  0
  5  4  1  0
  6  5  1  0
  7  6  1  0
  8  9  2  0
  8  2  1  0
 10  8  1  0
 11 19  1  0
 11 10  1  0
 11 12  1  6
 13 12  1  0
 14 13  2  0
 15 14  1  0
 16 15  2  0
 16 17  1  0
 17 18  2  0
 18 13  1  0
 19 21  1  0
 20 19  2  0
 21 22  1  0
 22 30  1  0
 23 24  1  0
 22 23  1  1
 24 29  2  0
 25 26  2  0
 25 24  1  0
 26 27  1  0
 27 28  2  0
 29 28  1  0
 30 31  2  0
 30 32  1  0
M  END
$$$$
