KFF.pdb
     RDKit          3D

 32 33  0  0  1  0  0  0  0  0999 V2000
   25.8660  -21.6892  -13.0793 N   0  0  0  0  0  0  0  0  0  0  0  0
   25.8950  -20.4777  -12.2410 C   0  0  1  0  0  0  0  0  0  0  0  0
   24.5275  -19.8795  -12.3580 C   0  0  0  0  0  0  0  0  0  0  0  0
   23.5751  -20.6187  -13.2315 C   0  0  0  0  0  0  0  0  0  0  0  0
   22.4183  -21.1088  -12.3924 C   0  0  0  0  0  0  0  0  0  0  0  0
   21.3492  -21.7777  -13.2137 C   0  0  0  0  0  0  0  0  0  0  0  0
   20.2745  -22.1385  -12.2742 N   0  0  0  0  0  0  0  0  0  0  0  0
   26.2238  -20.8475  -10.8496 C   0  0  0  0  0  0  0  0  0  0  0  0
   25.8893  -21.9817  -10.4342 O   0  0  0  0  0  0  0  0  0  0  0  0
   26.8937  -19.9656   -9.9976 N   0  0  0  0  0  0  0  0  0  0  0  0
   27.4008  -20.3597   -8.6755 C   0  0  1  0  0  0  0  0  0  0  0  0
   28.3702  -19.2627   -8.2822 C   0  0  0  0  0  0  0  0  0  0  0  0
   29.0130  -19.4642   -6.9845 C   0  0  0  0  0  0  0  0  0  0  0  0
   29.6820  -20.6245   -6.6615 C   0  0  0  0  0  0  0  0  0  0  0  0
   30.2833  -20.7718   -5.4152 C   0  0  0  0  0  0  0  0  0  0  0  0
   30.2284  -19.7798   -4.4841 C   0  0  0  0  0  0  0  0  0  0  0  0
   29.5591  -18.6051   -4.7922 C   0  0  0  0  0  0  0  0  0  0  0  0
   28.9645  -18.4681   -6.0340 C   0  0  0  0  0  0  0  0  0  0  0  0
   26.2562  -20.4268   -7.7507 C   0  0  0  0  0  0  0  0  0  0  0  0
   25.4272  -19.4766   -7.6972 O   0  0  0  0  0  0  0  0  0  0  0  0
   26.0749  -21.5492   -6.9178 N   0  0  0  0  0  0  0  0  0  0  0  0
   24.9902  -21.6426   -5.9265 C   0  0  1  0  0  0  0  0  0  0  0  0
   24.9743  -20.3396   -5.1974 C   0  0  0  0  0  0  0  0  0  0  0  0
   26.0911  -20.2940   -4.2385 C   0  0  0  0  0  0  0  0  0  0  0  0
   26.4430  -19.0590   -3.6960 C   0  0  0  0  0  0  0  0  0  0  0  0
   27.4764  -18.9836   -2.7878 C   0  0  0  0  0  0  0  0  0  0  0  0
   28.1628  -20.1143   -2.4123 C   0  0  0  0  0  0  0  0  0  0  0  0
   27.8172  -21.3335   -2.9462 C   0  0  0  0  0  0  0  0  0  0  0  0
   26.7758  -21.4128   -3.8619 C   0  0  0  0  0  0  0  0  0  0  0  0
   23.7437  -21.9349   -6.6606 C   0  0  0  0  0  0  0  0  0  0  0  0
   22.6695  -22.1001   -6.0491 O   0  0  0  0  0  0  0  0  0  0  0  0
   23.7041  -22.0372   -8.0406 O   0  0  0  0  0  0  0  0  0  0  0  0
  2  3  1  0
  2  1  1  6
  3  4  1  0
  5  4  1  0
  6  5  1  0
  7  6  1  0
  8  9  2  0
  8  2  1  0
 10  8  1  0
 11 19  1  0
 11 10  1  0
 11 12  1  1
 13 12  1  0
 14 13  2  0
 15 14  1  0
 16 15  2  0
 16 17  1  0
 17 18  2  0
 18 13  1  0
 19 21  1  0
 20 19  2  0
 21 22  1  0
 22 30  1  0
 23 24  1  0
 22 23  1  6
 24 29  2  0
 25 26  2  0
 25 24  1  0
 26 27  1  0
 27 28  2  0
 29 28  1  0
 30 31  2  0
 30 32  1  0
M  END
$$$$
