KFF.pdb
     RDKit          3D

 32 33  0  0  1  0  0  0  0  0999 V2000
   29.5238  -23.7649  -16.7286 N   0  0  0  0  0  0  0  0  0  0  0  0
   28.4963  -22.7701  -17.0834 C   0  0  1  0  0  0  0  0  0  0  0  0
   27.8649  -23.2808  -18.3413 C   0  0  0  0  0  0  0  0  0  0  0  0
   28.7257  -23.2393  -19.5553 C   0  0  0  0  0  0  0  0  0  0  0  0
   29.0399  -21.7989  -19.8854 C   0  0  0  0  0  0  0  0  0  0  0  0
   28.2969  -21.3071  -21.0983 C   0  0  0  0  0  0  0  0  0  0  0  0
   29.0633  -21.7718  -22.2663 N   0  0  0  0  0  0  0  0  0  0  0  0
   27.5220  -22.6511  -15.9799 C   0  0  0  0  0  0  0  0  0  0  0  0
   27.0407  -23.6985  -15.4878 O   0  0  0  0  0  0  0  0  0  0  0  0
   27.1317  -21.4059  -15.4805 N   0  0  0  0  0  0  0  0  0  0  0  0
   26.2041  -21.2515  -14.3508 C   0  0  1  0  0  0  0  0  0  0  0  0
   26.7985  -20.1460  -13.5010 C   0  0  0  0  0  0  0  0  0  0  0  0
   27.9125  -20.5704  -12.6543 C   0  0  0  0  0  0  0  0  0  0  0  0
   27.7264  -21.2595  -11.4760 C   0  0  0  0  0  0  0  0  0  0  0  0
   28.8165  -21.6478  -10.7030 C   0  0  0  0  0  0  0  0  0  0  0  0
   30.0910  -21.3598  -11.0860 C   0  0  0  0  0  0  0  0  0  0  0  0
   30.2967  -20.6667  -12.2692 C   0  0  0  0  0  0  0  0  0  0  0  0
   29.2066  -20.2850  -13.0309 C   0  0  0  0  0  0  0  0  0  0  0  0
   24.8882  -20.8695  -14.8916 C   0  0  0  0  0  0  0  0  0  0  0  0
   24.8038  -19.9917  -15.7944 O   0  0  0  0  0  0  0  0  0  0  0  0
   23.7125  -21.4781  -14.4079 N   0  0  0  0  0  0  0  0  0  0  0  0
   22.3743  -21.1647  -14.9362 C   0  0  1  0  0  0  0  0  0  0  0  0
   21.5955  -22.4378  -14.8892 C   0  0  0  0  0  0  0  0  0  0  0  0
   20.2061  -22.1853  -15.3069 C   0  0  0  0  0  0  0  0  0  0  0  0
   19.9423  -22.0503  -16.6690 C   0  0  0  0  0  0  0  0  0  0  0  0
   18.6511  -21.8241  -17.0937 C   0  0  0  0  0  0  0  0  0  0  0  0
   17.6218  -21.7306  -16.1868 C   0  0  0  0  0  0  0  0  0  0  0  0
   17.8799  -21.8636  -14.8427 C   0  0  0  0  0  0  0  0  0  0  0  0
   19.1804  -22.0917  -14.4115 C   0  0  0  0  0  0  0  0  0  0  0  0
   21.8110  -20.0853  -14.1021 C   0  0  0  0  0  0  0  0  0  0  0  0
   22.1173  -19.9871  -12.8972 O   0  0  0  0  0  0  0  0  0  0  0  0
   20.9308  -19.1432  -14.6061 O   0  0  0  0  0  0  0  0  0  0  0  0
  2  3  1  0
  2  1  1  1
  3  4  1  0
  5  4  1  0
  6  5  1  0
  7  6  1  0
  8  9  2  0
  8  2  1  0
 10  8  1  0
 11 19  1  0
 11 10  1  0
 11 12  1  1
 13 12  1  0
 14 13  2  0
 15 14  1  0
 16 15  2  0
 16 17  1  0
 17 18  2  0
 18 13  1  0
 19 21  1  0
 20 19  2  0
 21 22  1  0
 22 30  1  0
 23 24  1  0
 22 23  1  1
 24 29  2  0
 25 26  2  0
 25 24  1  0
 26 27  1  0
 27 28  2  0
 29 28  1  0
 30 31  2  0
 30 32  1  0
M  END
$$$$
