KFF.pdb
     RDKit          3D

 32 33  0  0  1  0  0  0  0  0999 V2000
   27.4623  -22.9347  -16.5958 N   0  0  0  0  0  0  0  0  0  0  0  0
   27.1501  -21.6452  -15.9546 C   0  0  1  0  0  0  0  0  0  0  0  0
   26.2157  -20.9488  -16.8946 C   0  0  0  0  0  0  0  0  0  0  0  0
   26.6751  -19.6233  -17.3931 C   0  0  0  0  0  0  0  0  0  0  0  0
   27.6051  -19.8348  -18.5647 C   0  0  0  0  0  0  0  0  0  0  0  0
   28.2481  -18.5569  -19.0321 C   0  0  0  0  0  0  0  0  0  0  0  0
   29.3405  -18.9532  -19.9363 N   0  0  0  0  0  0  0  0  0  0  0  0
   26.5341  -21.8865  -14.6342 C   0  0  0  0  0  0  0  0  0  0  0  0
   25.5996  -22.7174  -14.5499 O   0  0  0  0  0  0  0  0  0  0  0  0
   26.9698  -21.2127  -13.4902 N   0  0  0  0  0  0  0  0  0  0  0  0
   26.2916  -21.3205  -12.1906 C   0  0  1  0  0  0  0  0  0  0  0  0
   27.3325  -20.9110  -11.1677 C   0  0  0  0  0  0  0  0  0  0  0  0
   26.8078  -20.7265   -9.8155 C   0  0  0  0  0  0  0  0  0  0  0  0
   27.6022  -20.3365   -8.7596 C   0  0  0  0  0  0  0  0  0  0  0  0
   27.0594  -20.1688   -7.4892 C   0  0  0  0  0  0  0  0  0  0  0  0
   25.7357  -20.3840   -7.2539 C   0  0  0  0  0  0  0  0  0  0  0  0
   24.9214  -20.7771   -8.3052 C   0  0  0  0  0  0  0  0  0  0  0  0
   25.4703  -20.9411   -9.5646 C   0  0  0  0  0  0  0  0  0  0  0  0
   25.1462  -20.3943  -12.1970 C   0  0  0  0  0  0  0  0  0  0  0  0
   25.3360  -19.1512  -12.3040 O   0  0  0  0  0  0  0  0  0  0  0  0
   23.8296  -20.8847  -12.0838 N   0  0  0  0  0  0  0  0  0  0  0  0
   22.6577  -20.0044  -11.9434 C   0  0  1  0  0  0  0  0  0  0  0  0
   22.6364  -19.1367  -13.1584 C   0  0  0  0  0  0  0  0  0  0  0  0
   22.2076  -19.9267  -14.3249 C   0  0  0  0  0  0  0  0  0  0  0  0
   20.8413  -20.1193  -14.5234 C   0  0  0  0  0  0  0  0  0  0  0  0
   20.4067  -20.8446  -15.6114 C   0  0  0  0  0  0  0  0  0  0  0  0
   21.3077  -21.3794  -16.5018 C   0  0  0  0  0  0  0  0  0  0  0  0
   22.6558  -21.1903  -16.3079 C   0  0  0  0  0  0  0  0  0  0  0  0
   23.0971  -20.4596  -15.2122 C   0  0  0  0  0  0  0  0  0  0  0  0
   21.4696  -20.8684  -11.8020 C   0  0  0  0  0  0  0  0  0  0  0  0
   21.5678  -22.1070  -11.9087 O   0  0  0  0  0  0  0  0  0  0  0  0
   20.2087  -20.3571  -11.5469 O   0  0  0  0  0  0  0  0  0  0  0  0
  2  3  1  0
  2  1  1  6
  3  4  1  0
  5  4  1  0
  6  5  1  0
  7  6  1  0
  8  9  2  0
  8  2  1  0
 10  8  1  0
 11 19  1  0
 11 10  1  0
 11 12  1  1
 13 12  1  0
 14 13  2  0
 15 14  1  0
 16 15  2  0
 16 17  1  0
 17 18  2  0
 18 13  1  0
 19 21  1  0
 20 19  2  0
 21 22  1  0
 22 30  1  0
 23 24  1  0
 22 23  1  6
 24 29  2  0
 25 26  2  0
 25 24  1  0
 26 27  1  0
 27 28  2  0
 29 28  1  0
 30 31  2  0
 30 32  1  0
M  END
$$$$
