KFF.pdb
     RDKit          3D

 32 33  0  0  1  0  0  0  0  0999 V2000
   27.9286  -25.3269  -16.9397 N   0  0  0  0  0  0  0  0  0  0  0  0
   27.5779  -23.8987  -16.8477 C   0  0  1  0  0  0  0  0  0  0  0  0
   26.9286  -23.5630  -18.1545 C   0  0  0  0  0  0  0  0  0  0  0  0
   27.8220  -23.6015  -19.3448 C   0  0  0  0  0  0  0  0  0  0  0  0
   29.1129  -22.8902  -19.0130 C   0  0  0  0  0  0  0  0  0  0  0  0
   30.0386  -22.7882  -20.1953 C   0  0  0  0  0  0  0  0  0  0  0  0
   31.2679  -22.1464  -19.7006 N   0  0  0  0  0  0  0  0  0  0  0  0
   26.6688  -23.6859  -15.7035 C   0  0  0  0  0  0  0  0  0  0  0  0
   25.8822  -24.6071  -15.3816 O   0  0  0  0  0  0  0  0  0  0  0  0
   26.6701  -22.4897  -14.9814 N   0  0  0  0  0  0  0  0  0  0  0  0
   25.7672  -22.2370  -13.8494 C   0  0  1  0  0  0  0  0  0  0  0  0
   26.4951  -21.2290  -12.9822 C   0  0  0  0  0  0  0  0  0  0  0  0
   25.7722  -20.8438  -11.7710 C   0  0  0  0  0  0  0  0  0  0  0  0
   26.1638  -21.2501  -10.5141 C   0  0  0  0  0  0  0  0  0  0  0  0
   25.4481  -20.8559   -9.3875 C   0  0  0  0  0  0  0  0  0  0  0  0
   24.3469  -20.0623   -9.4937 C   0  0  0  0  0  0  0  0  0  0  0  0
   23.9384  -19.6441  -10.7511 C   0  0  0  0  0  0  0  0  0  0  0  0
   24.6565  -20.0412  -11.8651 C   0  0  0  0  0  0  0  0  0  0  0  0
   24.5114  -21.6831  -14.3841 C   0  0  0  0  0  0  0  0  0  0  0  0
   24.5356  -20.6811  -15.1511 O   0  0  0  0  0  0  0  0  0  0  0  0
   23.2726  -22.2642  -14.0458 N   0  0  0  0  0  0  0  0  0  0  0  0
   21.9813  -21.6988  -14.4713 C   0  0  1  0  0  0  0  0  0  0  0  0
   21.5769  -22.4506  -15.6963 C   0  0  0  0  0  0  0  0  0  0  0  0
   21.3822  -23.8721  -15.3644 C   0  0  0  0  0  0  0  0  0  0  0  0
   22.4650  -24.7373  -15.5134 C   0  0  0  0  0  0  0  0  0  0  0  0
   22.3189  -26.0714  -15.2010 C   0  0  0  0  0  0  0  0  0  0  0  0
   21.1160  -26.5562  -14.7444 C   0  0  0  0  0  0  0  0  0  0  0  0
   20.0467  -25.7043  -14.5966 C   0  0  0  0  0  0  0  0  0  0  0  0
   20.1908  -24.3590  -14.9105 C   0  0  0  0  0  0  0  0  0  0  0  0
   21.0420  -21.8416  -13.3420 C   0  0  0  0  0  0  0  0  0  0  0  0
   19.8891  -21.3713  -13.4105 O   0  0  0  0  0  0  0  0  0  0  0  0
   21.3865  -22.4943  -12.1707 O   0  0  0  0  0  0  0  0  0  0  0  0
  2  3  1  0
  2  1  1  6
  3  4  1  0
  5  4  1  0
  6  5  1  0
  7  6  1  0
  8  9  2  0
  8  2  1  0
 10  8  1  0
 11 19  1  0
 11 10  1  0
 11 12  1  1
 13 12  1  0
 14 13  2  0
 15 14  1  0
 16 15  2  0
 16 17  1  0
 17 18  2  0
 18 13  1  0
 19 21  1  0
 20 19  2  0
 21 22  1  0
 22 30  1  0
 23 24  1  0
 22 23  1  6
 24 29  2  0
 25 26  2  0
 25 24  1  0
 26 27  1  0
 27 28  2  0
 29 28  1  0
 30 31  2  0
 30 32  1  0
M  END
$$$$
