KFF.pdb
     RDKit          3D

 32 33  0  0  1  0  0  0  0  0999 V2000
   29.0302  -22.7134  -15.7758 N   0  0  0  0  0  0  0  0  0  0  0  0
   29.0343  -21.4231  -15.0642 C   0  0  1  0  0  0  0  0  0  0  0  0
   28.3177  -20.4679  -15.9673 C   0  0  0  0  0  0  0  0  0  0  0  0
   28.9764  -20.2035  -17.2760 C   0  0  0  0  0  0  0  0  0  0  0  0
   27.9275  -20.2074  -18.3633 C   0  0  0  0  0  0  0  0  0  0  0  0
   28.4797  -19.7999  -19.7027 C   0  0  0  0  0  0  0  0  0  0  0  0
   27.3766  -19.9523  -20.6658 N   0  0  0  0  0  0  0  0  0  0  0  0
   28.3541  -21.5750  -13.7621 C   0  0  0  0  0  0  0  0  0  0  0  0
   27.2943  -22.2422  -13.7120 O   0  0  0  0  0  0  0  0  0  0  0  0
   28.8652  -20.9948  -12.5983 N   0  0  0  0  0  0  0  0  0  0  0  0
   28.1540  -21.0201  -11.3122 C   0  0  1  0  0  0  0  0  0  0  0  0
   29.0995  -20.3633  -10.3260 C   0  0  0  0  0  0  0  0  0  0  0  0
   28.5519  -20.2079   -8.9792 C   0  0  0  0  0  0  0  0  0  0  0  0
   29.0009  -20.9477   -7.9073 C   0  0  0  0  0  0  0  0  0  0  0  0
   28.4537  -20.7638   -6.6410 C   0  0  0  0  0  0  0  0  0  0  0  0
   27.4646  -19.8531   -6.4257 C   0  0  0  0  0  0  0  0  0  0  0  0
   27.0004  -19.0999   -7.4934 C   0  0  0  0  0  0  0  0  0  0  0  0
   27.5509  -19.2900   -8.7485 C   0  0  0  0  0  0  0  0  0  0  0  0
   26.9097  -20.2469  -11.4652 C   0  0  0  0  0  0  0  0  0  0  0  0
   26.8891  -19.2150  -12.1916 O   0  0  0  0  0  0  0  0  0  0  0  0
   25.7319  -20.6495  -10.8038 N   0  0  0  0  0  0  0  0  0  0  0  0
   24.3982  -20.1402  -11.1645 C   0  0  1  0  0  0  0  0  0  0  0  0
   24.1636  -20.5448  -12.5826 C   0  0  0  0  0  0  0  0  0  0  0  0
   22.8103  -20.1381  -12.9972 C   0  0  0  0  0  0  0  0  0  0  0  0
   21.7912  -21.0876  -12.9407 C   0  0  0  0  0  0  0  0  0  0  0  0
   20.5115  -20.7362  -13.3114 C   0  0  0  0  0  0  0  0  0  0  0  0
   20.2311  -19.4589  -13.7360 C   0  0  0  0  0  0  0  0  0  0  0  0
   21.2350  -18.5207  -13.7924 C   0  0  0  0  0  0  0  0  0  0  0  0
   22.5260  -18.8718  -13.4192 C   0  0  0  0  0  0  0  0  0  0  0  0
   23.4317  -20.7148  -10.2087 C   0  0  0  0  0  0  0  0  0  0  0  0
   22.3251  -20.1718  -10.0195 O   0  0  0  0  0  0  0  0  0  0  0  0
   23.6991  -21.8658   -9.4874 O   0  0  0  0  0  0  0  0  0  0  0  0
  2  3  1  0
  2  1  1  6
  3  4  1  0
  5  4  1  0
  6  5  1  0
  7  6  1  0
  8  9  2  0
  8  2  1  0
 10  8  1  0
 11 19  1  0
 11 10  1  0
 11 12  1  1
 13 12  1  0
 14 13  2  0
 15 14  1  0
 16 15  2  0
 16 17  1  0
 17 18  2  0
 18 13  1  0
 19 21  1  0
 20 19  2  0
 21 22  1  0
 22 30  1  0
 23 24  1  0
 22 23  1  6
 24 29  2  0
 25 26  2  0
 25 24  1  0
 26 27  1  0
 27 28  2  0
 29 28  1  0
 30 31  2  0
 30 32  1  0
M  END
$$$$
