WDP.pdb
     RDKit          3D

 30 32  0  0  1  0  0  0  0  0999 V2000
    6.7475  -16.4251   21.4106 N   0  0  0  0  0  0  0  0  0  0  0  0
    7.9678  -16.2828   22.1244 C   0  0  1  0  0  0  0  0  0  0  0  0
    8.6837  -14.9835   21.9894 C   0  0  0  0  0  0  0  0  0  0  0  0
    7.8317  -13.7853   22.1848 C   0  0  0  0  0  0  0  0  0  0  0  0
    7.2877  -12.9692   21.2286 C   0  0  0  0  0  0  0  0  0  0  0  0
    6.6143  -11.9988   21.8214 N   0  0  0  0  0  0  0  0  0  0  0  0
    6.7130  -12.1735   23.1446 C   0  0  0  0  0  0  0  0  0  0  0  0
    6.1876  -11.4421   24.2163 C   0  0  0  0  0  0  0  0  0  0  0  0
    6.4487  -11.8660   25.5003 C   0  0  0  0  0  0  0  0  0  0  0  0
    7.2047  -12.9788   25.7628 C   0  0  0  0  0  0  0  0  0  0  0  0
    7.7205  -13.6965   24.7168 C   0  0  0  0  0  0  0  0  0  0  0  0
    7.4690  -13.2849   23.4267 C   0  0  0  0  0  0  0  0  0  0  0  0
    7.7276  -16.6813   23.5544 C   0  0  0  0  0  0  0  0  0  0  0  0
    6.6082  -16.3877   24.0533 O   0  0  0  0  0  0  0  0  0  0  0  0
    8.6974  -17.3452   24.2999 N   0  0  0  0  0  0  0  0  0  0  0  0
    8.6112  -17.6010   25.7622 C   0  0  1  0  0  0  0  0  0  0  0  0
    8.3148  -19.0705   25.9498 C   0  0  0  0  0  0  0  0  0  0  0  0
    8.2130  -19.5845   27.2878 C   0  0  0  0  0  0  0  0  0  0  0  0
    9.1359  -20.3029   27.8089 O   0  0  0  0  0  0  0  0  0  0  0  0
    9.8509  -17.1180   26.3681 C   0  0  0  0  0  0  0  0  0  0  0  0
   10.9049  -17.1830   25.6336 O   0  0  0  0  0  0  0  0  0  0  0  0
    7.1223  -19.3620   28.1472 O   0  0  0  0  0  0  0  0  0  0  0  0
   10.0377  -16.5831   27.6603 N   0  0  0  0  0  0  0  0  0  0  0  0
    8.9179  -16.4041   28.6137 C   0  0  0  0  0  0  0  0  0  0  0  0
    9.1200  -14.9366   28.9440 C   0  0  0  0  0  0  0  0  0  0  0  0
   10.6448  -14.8409   29.0607 C   0  0  0  0  0  0  0  0  0  0  0  0
   11.1656  -16.0889   28.3921 C   0  0  1  0  0  0  0  0  0  0  0  0
   11.6167  -17.0931   29.4332 C   0  0  0  0  0  0  0  0  0  0  0  0
   10.7460  -18.0798   29.8407 O   0  0  0  0  0  0  0  0  0  0  0  0
   12.7603  -17.0168   29.9056 O   0  0  0  0  0  0  0  0  0  0  0  0
  2  1  1  6
  2 13  1  0
  2  3  1  0
  3  4  1  0
  4 12  1  0
  4  5  2  0
  5  6  1  0
  7  8  2  0
  7  6  1  0
  9  8  1  0
 10  9  2  0
 11 10  1  0
 11 12  2  0
 12  7  1  0
 13 14  2  0
 15 13  1  0
 15 16  1  0
 16 17  1  6
 17 18  1  0
 18 22  1  0
 19 18  2  0
 20 16  1  0
 21 20  2  0
 23 20  1  0
 23 27  1  0
 24 23  1  0
 25 24  1  0
 25 26  1  0
 26 27  1  0
 27 28  1  1
 28 29  1  0
 30 28  2  0
M  END
$$$$
