WDP.pdb
     RDKit          3D

 30 32  0  0  1  0  0  0  0  0999 V2000
    8.3154  -16.6994   20.9391 N   0  0  0  0  0  0  0  0  0  0  0  0
    8.3233  -15.9584   22.1515 C   0  0  1  0  0  0  0  0  0  0  0  0
    7.0311  -15.3585   22.5867 C   0  0  0  0  0  0  0  0  0  0  0  0
    7.0334  -13.8776   22.6673 C   0  0  0  0  0  0  0  0  0  0  0  0
    7.3119  -12.9768   21.6736 C   0  0  0  0  0  0  0  0  0  0  0  0
    7.2274  -11.7526   22.1644 N   0  0  0  0  0  0  0  0  0  0  0  0
    6.8985  -11.8461   23.4583 C   0  0  0  0  0  0  0  0  0  0  0  0
    6.6782  -10.8632   24.4305 C   0  0  0  0  0  0  0  0  0  0  0  0
    6.3369  -11.2558   25.7056 C   0  0  0  0  0  0  0  0  0  0  0  0
    6.2061  -12.5752   26.0534 C   0  0  0  0  0  0  0  0  0  0  0  0
    6.4212  -13.5394   25.1050 C   0  0  0  0  0  0  0  0  0  0  0  0
    6.7639  -13.1627   23.8253 C   0  0  0  0  0  0  0  0  0  0  0  0
    8.9742  -16.7993   23.2147 C   0  0  0  0  0  0  0  0  0  0  0  0
    8.2767  -17.7114   23.7342 O   0  0  0  0  0  0  0  0  0  0  0  0
   10.2902  -16.5830   23.6125 N   0  0  0  0  0  0  0  0  0  0  0  0
   10.9504  -17.2655   24.7568 C   0  0  1  0  0  0  0  0  0  0  0  0
   12.2363  -17.8710   24.2444 C   0  0  0  0  0  0  0  0  0  0  0  0
   12.1604  -18.8861   23.2303 C   0  0  0  0  0  0  0  0  0  0  0  0
   11.4327  -19.9302   23.3710 O   0  0  0  0  0  0  0  0  0  0  0  0
   11.0911  -16.2860   25.8330 C   0  0  0  0  0  0  0  0  0  0  0  0
   11.8311  -15.2652   25.5784 O   0  0  0  0  0  0  0  0  0  0  0  0
   12.8548  -18.8465   22.0080 O   0  0  0  0  0  0  0  0  0  0  0  0
   10.5121  -16.3164   27.1192 N   0  0  0  0  0  0  0  0  0  0  0  0
    9.4262  -17.2585   27.4777 C   0  0  0  0  0  0  0  0  0  0  0  0
    8.4168  -16.2622   28.0182 C   0  0  0  0  0  0  0  0  0  0  0  0
    9.3067  -15.3066   28.8199 C   0  0  0  0  0  0  0  0  0  0  0  0
   10.7077  -15.5752   28.3293 C   0  0  1  0  0  0  0  0  0  0  0  0
   11.4724  -16.3957   29.3481 C   0  0  0  0  0  0  0  0  0  0  0  0
   11.6214  -17.7506   29.1486 O   0  0  0  0  0  0  0  0  0  0  0  0
   11.9543  -15.8413   30.3467 O   0  0  0  0  0  0  0  0  0  0  0  0
  2  1  1  6
  2 13  1  0
  2  3  1  0
  3  4  1  0
  4 12  1  0
  4  5  2  0
  5  6  1  0
  7  8  2  0
  7  6  1  0
  9  8  1  0
 10  9  2  0
 11 10  1  0
 11 12  2  0
 12  7  1  0
 13 14  2  0
 15 13  1  0
 15 16  1  0
 16 17  1  6
 17 18  1  0
 18 22  1  0
 19 18  2  0
 20 16  1  0
 21 20  2  0
 23 20  1  0
 23 27  1  0
 24 23  1  0
 25 24  1  0
 25 26  1  0
 26 27  1  0
 27 28  1  1
 28 29  1  0
 30 28  2  0
M  END
$$$$
