WDP.pdb
     RDKit          3D

 30 32  0  0  1  0  0  0  0  0999 V2000
    7.1811  -16.7074   23.5795 N   0  0  0  0  0  0  0  0  0  0  0  0
    8.3390  -16.1770   24.2094 C   0  0  1  0  0  0  0  0  0  0  0  0
    8.2063  -15.7670   25.6354 C   0  0  0  0  0  0  0  0  0  0  0  0
    7.0866  -14.8335   25.9083 C   0  0  0  0  0  0  0  0  0  0  0  0
    5.7898  -15.1383   26.2274 C   0  0  0  0  0  0  0  0  0  0  0  0
    5.1046  -14.0170   26.3671 N   0  0  0  0  0  0  0  0  0  0  0  0
    5.9359  -12.9921   26.1445 C   0  0  0  0  0  0  0  0  0  0  0  0
    5.7266  -11.6082   26.1708 C   0  0  0  0  0  0  0  0  0  0  0  0
    6.7875  -10.7714   25.9046 C   0  0  0  0  0  0  0  0  0  0  0  0
    8.0395  -11.2485   25.6154 C   0  0  0  0  0  0  0  0  0  0  0  0
    8.2478  -12.6018   25.5885 C   0  0  0  0  0  0  0  0  0  0  0  0
    7.1966  -13.4518   25.8518 C   0  0  0  0  0  0  0  0  0  0  0  0
    9.4827  -17.1232   23.9688 C   0  0  0  0  0  0  0  0  0  0  0  0
    9.1990  -18.3413   23.8139 O   0  0  0  0  0  0  0  0  0  0  0  0
   10.8004  -16.6780   23.9195 N   0  0  0  0  0  0  0  0  0  0  0  0
   11.9790  -17.4763   24.3494 C   0  0  1  0  0  0  0  0  0  0  0  0
   13.2160  -16.6737   24.0206 C   0  0  0  0  0  0  0  0  0  0  0  0
   13.4571  -16.3151   22.6502 C   0  0  0  0  0  0  0  0  0  0  0  0
   13.3985  -17.1767   21.7048 O   0  0  0  0  0  0  0  0  0  0  0  0
   11.7932  -17.8124   25.7600 C   0  0  0  0  0  0  0  0  0  0  0  0
   11.2531  -16.9043   26.4937 O   0  0  0  0  0  0  0  0  0  0  0  0
   13.7736  -15.0180   22.2086 O   0  0  0  0  0  0  0  0  0  0  0  0
   12.1284  -19.0133   26.4205 N   0  0  0  0  0  0  0  0  0  0  0  0
   12.7816  -20.1458   25.7233 C   0  0  0  0  0  0  0  0  0  0  0  0
   11.8105  -21.2490   26.1019 C   0  0  0  0  0  0  0  0  0  0  0  0
   11.5172  -20.9283   27.5712 C   0  0  0  0  0  0  0  0  0  0  0  0
   11.9760  -19.5034   27.7578 C   0  0  1  0  0  0  0  0  0  0  0  0
   13.2968  -19.4699   28.4996 C   0  0  0  0  0  0  0  0  0  0  0  0
   14.4727  -19.4380   27.7827 O   0  0  0  0  0  0  0  0  0  0  0  0
   13.3055  -19.4714   29.7393 O   0  0  0  0  0  0  0  0  0  0  0  0
  2  1  1  1
  2 13  1  0
  2  3  1  0
  3  4  1  0
  4 12  1  0
  4  5  2  0
  5  6  1  0
  7  8  2  0
  7  6  1  0
  9  8  1  0
 10  9  2  0
 11 10  1  0
 11 12  2  0
 12  7  1  0
 13 14  2  0
 15 13  1  0
 15 16  1  0
 16 17  1  1
 17 18  1  0
 18 22  1  0
 19 18  2  0
 20 16  1  0
 21 20  2  0
 23 20  1  0
 23 27  1  0
 24 23  1  0
 25 24  1  0
 25 26  1  0
 26 27  1  0
 27 28  1  6
 28 29  1  0
 30 28  2  0
M  END
$$$$
