WDP.pdb
     RDKit          3D

 30 32  0  0  1  0  0  0  0  0999 V2000
    6.2213  -17.3616   24.1070 N   0  0  0  0  0  0  0  0  0  0  0  0
    7.4075  -16.5821   24.0414 C   0  0  1  0  0  0  0  0  0  0  0  0
    7.8210  -15.8724   25.2842 C   0  0  0  0  0  0  0  0  0  0  0  0
    6.8627  -14.8436   25.7562 C   0  0  0  0  0  0  0  0  0  0  0  0
    5.6070  -15.0299   26.2708 C   0  0  0  0  0  0  0  0  0  0  0  0
    5.0743  -13.8522   26.5466 N   0  0  0  0  0  0  0  0  0  0  0  0
    5.9640  -12.9075   26.2196 C   0  0  0  0  0  0  0  0  0  0  0  0
    5.9088  -11.5119   26.3139 C   0  0  0  0  0  0  0  0  0  0  0  0
    6.9973  -10.7754   25.9025 C   0  0  0  0  0  0  0  0  0  0  0  0
    8.1311  -11.3631   25.4047 C   0  0  0  0  0  0  0  0  0  0  0  0
    8.1886  -12.7281   25.3109 C   0  0  0  0  0  0  0  0  0  0  0  0
    7.1077  -13.4787   25.7175 C   0  0  0  0  0  0  0  0  0  0  0  0
    8.4995  -17.4325   23.4534 C   0  0  0  0  0  0  0  0  0  0  0  0
    8.4634  -18.6676   23.7012 O   0  0  0  0  0  0  0  0  0  0  0  0
    9.5098  -16.8837   22.6692 N   0  0  0  0  0  0  0  0  0  0  0  0
   10.8640  -17.4743   22.5006 C   0  0  1  0  0  0  0  0  0  0  0  0
   11.6244  -16.5986   21.5322 C   0  0  0  0  0  0  0  0  0  0  0  0
   12.8127  -17.1246   20.9192 C   0  0  0  0  0  0  0  0  0  0  0  0
   13.2806  -18.2759   21.2275 O   0  0  0  0  0  0  0  0  0  0  0  0
   11.4529  -17.6143   23.8313 C   0  0  0  0  0  0  0  0  0  0  0  0
   11.3709  -16.5859   24.5996 O   0  0  0  0  0  0  0  0  0  0  0  0
   13.5701  -16.4543   19.9420 O   0  0  0  0  0  0  0  0  0  0  0  0
   12.0984  -18.7407   24.3837 N   0  0  0  0  0  0  0  0  0  0  0  0
   12.3075  -19.9905   23.6159 C   0  0  0  0  0  0  0  0  0  0  0  0
   11.6899  -20.9747   24.5922 C   0  0  0  0  0  0  0  0  0  0  0  0
   12.2005  -20.4536   25.9396 C   0  0  0  0  0  0  0  0  0  0  0  0
   12.6710  -19.0477   25.6604 C   0  0  1  0  0  0  0  0  0  0  0  0
   14.1843  -19.0030   25.5989 C   0  0  0  0  0  0  0  0  0  0  0  0
   14.8087  -18.9578   24.3718 O   0  0  0  0  0  0  0  0  0  0  0  0
   14.8423  -19.0074   26.6495 O   0  0  0  0  0  0  0  0  0  0  0  0
  2  1  1  1
  2 13  1  0
  2  3  1  0
  3  4  1  0
  4 12  1  0
  4  5  2  0
  5  6  1  0
  7  8  2  0
  7  6  1  0
  9  8  1  0
 10  9  2  0
 11 10  1  0
 11 12  2  0
 12  7  1  0
 13 14  2  0
 15 13  1  0
 15 16  1  0
 16 17  1  6
 17 18  1  0
 18 22  1  0
 19 18  2  0
 20 16  1  0
 21 20  2  0
 23 20  1  0
 23 27  1  0
 24 23  1  0
 25 24  1  0
 25 26  1  0
 26 27  1  0
 27 28  1  6
 28 29  1  0
 30 28  2  0
M  END
$$$$
