WDP.pdb
     RDKit          3D

 30 32  0  0  1  0  0  0  0  0999 V2000
    8.5822  -15.6417   20.5757 N   0  0  0  0  0  0  0  0  0  0  0  0
    8.3600  -15.2758   21.9305 C   0  0  1  0  0  0  0  0  0  0  0  0
    6.9616  -14.9434   22.3215 C   0  0  0  0  0  0  0  0  0  0  0  0
    6.7846  -14.6043   23.7544 C   0  0  0  0  0  0  0  0  0  0  0  0
    6.4437  -15.4394   24.7854 C   0  0  0  0  0  0  0  0  0  0  0  0
    6.3662  -14.7371   25.9023 N   0  0  0  0  0  0  0  0  0  0  0  0
    6.6515  -13.4623   25.6115 C   0  0  0  0  0  0  0  0  0  0  0  0
    6.7173  -12.3212   26.4198 C   0  0  0  0  0  0  0  0  0  0  0  0
    7.0503  -11.1166   25.8413 C   0  0  0  0  0  0  0  0  0  0  0  0
    7.3189  -10.9986   24.5024 C   0  0  0  0  0  0  0  0  0  0  0  0
    7.2552  -12.1128   23.7087 C   0  0  0  0  0  0  0  0  0  0  0  0
    6.9228  -13.3248   24.2722 C   0  0  0  0  0  0  0  0  0  0  0  0
    8.9892  -16.3202   22.8109 C   0  0  0  0  0  0  0  0  0  0  0  0
    8.4697  -17.4683   22.8029 O   0  0  0  0  0  0  0  0  0  0  0  0
   10.0972  -16.0356   23.6034 N   0  0  0  0  0  0  0  0  0  0  0  0
   10.7439  -17.0018   24.5305 C   0  0  1  0  0  0  0  0  0  0  0  0
   11.9173  -17.6146   23.8022 C   0  0  0  0  0  0  0  0  0  0  0  0
   12.6758  -18.6401   24.4637 C   0  0  0  0  0  0  0  0  0  0  0  0
   12.1923  -19.8056   24.6813 O   0  0  0  0  0  0  0  0  0  0  0  0
   11.0629  -16.2840   25.7634 C   0  0  0  0  0  0  0  0  0  0  0  0
   11.8079  -15.2430   25.6379 O   0  0  0  0  0  0  0  0  0  0  0  0
   13.9930  -18.4828   24.9305 O   0  0  0  0  0  0  0  0  0  0  0  0
   10.6517  -16.5871   27.0786 N   0  0  0  0  0  0  0  0  0  0  0  0
    9.6436  -17.6322   27.3731 C   0  0  0  0  0  0  0  0  0  0  0  0
    8.6860  -16.8077   28.2137 C   0  0  0  0  0  0  0  0  0  0  0  0
    9.6457  -15.9799   29.0747 C   0  0  0  0  0  0  0  0  0  0  0  0
   10.9799  -16.0813   28.3780 C   0  0  1  0  0  0  0  0  0  0  0  0
   11.8873  -17.0424   29.1188 C   0  0  0  0  0  0  0  0  0  0  0  0
   12.0089  -18.3386   28.6685 O   0  0  0  0  0  0  0  0  0  0  0  0
   12.5088  -16.6537   30.1186 O   0  0  0  0  0  0  0  0  0  0  0  0
  2  1  1  6
  2 13  1  0
  2  3  1  0
  3  4  1  0
  4 12  1  0
  4  5  2  0
  5  6  1  0
  7  8  2  0
  7  6  1  0
  9  8  1  0
 10  9  2  0
 11 10  1  0
 11 12  2  0
 12  7  1  0
 13 14  2  0
 15 13  1  0
 15 16  1  0
 16 17  1  6
 17 18  1  0
 18 22  1  0
 19 18  2  0
 20 16  1  0
 21 20  2  0
 23 20  1  0
 23 27  1  0
 24 23  1  0
 25 24  1  0
 25 26  1  0
 26 27  1  0
 27 28  1  1
 28 29  1  0
 30 28  2  0
M  END
$$$$
