WDP.pdb
     RDKit          3D

 30 32  0  0  1  0  0  0  0  0999 V2000
    6.9511  -17.5564   21.8343 N   0  0  0  0  0  0  0  0  0  0  0  0
    7.2847  -16.5225   22.7501 C   0  0  1  0  0  0  0  0  0  0  0  0
    6.4054  -15.3202   22.7637 C   0  0  0  0  0  0  0  0  0  0  0  0
    7.0931  -14.0555   23.1203 C   0  0  0  0  0  0  0  0  0  0  0  0
    8.1566  -13.4644   22.4909 C   0  0  0  0  0  0  0  0  0  0  0  0
    8.4829  -12.3602   23.1397 N   0  0  0  0  0  0  0  0  0  0  0  0
    7.6486  -12.2267   24.1775 C   0  0  0  0  0  0  0  0  0  0  0  0
    7.5539  -11.2420   25.1680 C   0  0  0  0  0  0  0  0  0  0  0  0
    6.5725  -11.3578   26.1271 C   0  0  0  0  0  0  0  0  0  0  0  0
    5.6868  -12.4038   26.1436 C   0  0  0  0  0  0  0  0  0  0  0  0
    5.7768  -13.3691   25.1763 C   0  0  0  0  0  0  0  0  0  0  0  0
    6.7535  -13.2678   24.2105 C   0  0  0  0  0  0  0  0  0  0  0  0
    7.4687  -17.1375   24.1100 C   0  0  0  0  0  0  0  0  0  0  0  0
    6.4460  -17.2371   24.8396 O   0  0  0  0  0  0  0  0  0  0  0  0
    8.7135  -17.5783   24.5494 N   0  0  0  0  0  0  0  0  0  0  0  0
    9.0110  -18.0244   25.9364 C   0  0  1  0  0  0  0  0  0  0  0  0
    9.1856  -19.5247   25.9037 C   0  0  0  0  0  0  0  0  0  0  0  0
    9.6001  -20.1937   27.1059 C   0  0  0  0  0  0  0  0  0  0  0  0
   10.6470  -20.9298   27.1442 O   0  0  0  0  0  0  0  0  0  0  0  0
   10.1633  -17.2584   26.4083 C   0  0  0  0  0  0  0  0  0  0  0  0
   11.1629  -17.1818   25.6024 O   0  0  0  0  0  0  0  0  0  0  0  0
    8.9234  -20.1159   28.3362 O   0  0  0  0  0  0  0  0  0  0  0  0
   10.3169  -16.5859   27.6391 N   0  0  0  0  0  0  0  0  0  0  0  0
    9.1744  -16.3165   28.5432 C   0  0  0  0  0  0  0  0  0  0  0  0
    9.3580  -14.8201   28.7178 C   0  0  0  0  0  0  0  0  0  0  0  0
   10.8790  -14.6972   28.8565 C   0  0  0  0  0  0  0  0  0  0  0  0
   11.4242  -16.0046   28.3376 C   0  0  1  0  0  0  0  0  0  0  0  0
   11.8591  -16.8865   29.4904 C   0  0  0  0  0  0  0  0  0  0  0  0
   13.0668  -16.6440   30.1072 O   0  0  0  0  0  0  0  0  0  0  0  0
   11.1264  -17.8135   29.8654 O   0  0  0  0  0  0  0  0  0  0  0  0
  2  1  1  6
  2 13  1  0
  2  3  1  0
  3  4  1  0
  4 12  1  0
  4  5  2  0
  5  6  1  0
  7  8  2  0
  7  6  1  0
  9  8  1  0
 10  9  2  0
 11 10  1  0
 11 12  2  0
 12  7  1  0
 13 14  2  0
 15 13  1  0
 15 16  1  0
 16 17  1  6
 17 18  1  0
 18 22  1  0
 19 18  2  0
 20 16  1  0
 21 20  2  0
 23 20  1  0
 23 27  1  0
 24 23  1  0
 25 24  1  0
 25 26  1  0
 26 27  1  0
 27 28  1  1
 28 29  1  0
 30 28  2  0
M  END
$$$$
