DHI.pdb
     RDKit          3D

 27 27  0  0  1  0  0  0  0  0999 V2000
   28.2619  -22.6960  -18.0890 N   0  0  0  0  0  0  0  0  0  0  0  0
   28.6557  -22.8589  -16.7202 C   0  0  1  0  0  0  0  0  0  0  0  0
   30.1873  -22.7811  -16.6846 C   0  0  0  0  0  0  0  0  0  0  0  0
   30.7636  -23.7339  -17.6797 C   0  0  0  0  0  0  0  0  0  0  0  0
   30.0169  -24.4127  -18.4310 O   0  0  0  0  0  0  0  0  0  0  0  0
   28.0658  -21.7576  -15.9168 C   0  0  0  0  0  0  0  0  0  0  0  0
   28.7034  -20.7154  -15.6136 O   0  0  0  0  0  0  0  0  0  0  0  0
   32.1309  -23.9120  -17.8194 O   0  0  0  0  0  0  0  0  0  0  0  0
   26.7115  -21.8263  -15.4353 N   0  0  0  0  0  0  0  0  0  0  0  0
   26.0968  -20.8135  -14.6345 C   0  0  1  0  0  0  0  0  0  0  0  0
   24.8045  -20.3169  -15.2419 C   0  0  0  0  0  0  0  0  0  0  0  0
   25.0704  -19.4255  -16.3977 C   0  0  0  0  0  0  0  0  0  0  0  0
   26.3197  -19.0004  -16.8635 C   0  0  0  0  0  0  0  0  0  0  0  0
   26.1369  -18.2034  -17.9296 N   0  0  0  0  0  0  0  0  0  0  0  0
   24.8163  -18.1077  -18.1567 C   0  0  0  0  0  0  0  0  0  0  0  0
   24.1751  -18.8541  -17.2205 N   0  0  0  0  0  0  0  0  0  0  0  0
   25.9147  -21.3221  -13.2607 C   0  0  0  0  0  0  0  0  0  0  0  0
   25.5980  -22.5275  -13.1041 O   0  0  0  0  0  0  0  0  0  0  0  0
   27.2571  -20.3722   -7.3397 C   0  0  0  0  0  0  0  0  0  0  0  0
   26.3372  -21.0100   -8.3839 C   0  0  0  0  0  0  0  0  0  0  0  0
   26.6091  -20.4173   -9.7347 C   0  0  2  0  0  0  0  0  0  0  0  0
   26.3287  -18.9268   -9.6163 C   0  0  0  0  0  0  0  0  0  0  0  0
   25.7768  -21.0707  -10.7811 C   0  0  2  0  0  0  0  0  0  0  0  0
   26.0810  -20.5109  -12.1040 N   0  0  0  0  0  0  0  0  0  0  0  0
   24.3408  -20.8807  -10.5528 C   0  0  0  0  0  0  0  0  0  0  0  0
   23.7710  -21.4826   -9.5791 O   0  0  0  0  0  0  0  0  0  0  0  0
   23.5795  -20.0584  -11.3665 O   0  0  0  0  0  0  0  0  0  0  0  0
  2  1  1  6
  2  3  1  0
  2  6  1  0
  3  4  1  0
  4  8  1  0
  4  5  2  0
  6  9  1  0
  7  6  2  0
  9 10  1  0
 10 11  1  6
 11 12  1  0
 12 16  1  0
 12 13  2  0
 13 14  1  0
 15 14  1  0
 16 15  2  0
 17 10  1  0
 17 24  1  0
 18 17  2  0
 19 20  1  0
 20 21  1  0
 21 23  1  0
 21 22  1  1
 23 24  1  6
 23 25  1  0
 25 26  2  0
 25 27  1  0
M  END
$$$$
