DHI.pdb
     RDKit          3D

 27 27  0  0  1  0  0  0  0  0999 V2000
   24.3042  -21.8773  -19.1785 N   0  0  0  0  0  0  0  0  0  0  0  0
   25.5392  -21.5229  -18.5425 C   0  0  1  0  0  0  0  0  0  0  0  0
   26.3352  -20.6840  -19.5504 C   0  0  0  0  0  0  0  0  0  0  0  0
   26.9640  -21.5798  -20.5664 C   0  0  0  0  0  0  0  0  0  0  0  0
   27.9910  -21.2195  -21.1974 O   0  0  0  0  0  0  0  0  0  0  0  0
   25.2408  -20.7214  -17.3281 C   0  0  0  0  0  0  0  0  0  0  0  0
   26.1301  -20.1209  -16.6699 O   0  0  0  0  0  0  0  0  0  0  0  0
   26.4512  -22.8342  -20.8573 O   0  0  0  0  0  0  0  0  0  0  0  0
   23.8965  -20.5876  -16.8326 N   0  0  0  0  0  0  0  0  0  0  0  0
   23.5192  -19.6982  -15.7783 C   0  0  1  0  0  0  0  0  0  0  0  0
   22.2586  -18.9312  -16.1072 C   0  0  0  0  0  0  0  0  0  0  0  0
   22.5573  -17.7708  -16.9820 C   0  0  0  0  0  0  0  0  0  0  0  0
   23.3819  -16.6805  -16.6824 C   0  0  0  0  0  0  0  0  0  0  0  0
   23.3938  -15.8439  -17.7337 N   0  0  0  0  0  0  0  0  0  0  0  0
   22.6063  -16.3645  -18.6894 C   0  0  0  0  0  0  0  0  0  0  0  0
   22.1016  -17.5364  -18.2239 N   0  0  0  0  0  0  0  0  0  0  0  0
   23.4039  -20.4578  -14.5178 C   0  0  0  0  0  0  0  0  0  0  0  0
   22.7825  -21.5493  -14.5296 O   0  0  0  0  0  0  0  0  0  0  0  0
   27.3257  -20.6339  -10.6969 C   0  0  0  0  0  0  0  0  0  0  0  0
   26.1990  -21.0149  -11.6606 C   0  0  0  0  0  0  0  0  0  0  0  0
   24.8794  -20.5649  -11.1074 C   0  0  2  0  0  0  0  0  0  0  0  0
   24.6835  -21.3121   -9.7967 C   0  0  0  0  0  0  0  0  0  0  0  0
   23.7796  -20.8204  -12.0768 C   0  0  2  0  0  0  0  0  0  0  0  0
   23.9638  -20.0117  -13.2884 N   0  0  0  0  0  0  0  0  0  0  0  0
   22.4619  -20.4826  -11.5295 C   0  0  0  0  0  0  0  0  0  0  0  0
   22.0615  -19.2683  -11.5506 O   0  0  0  0  0  0  0  0  0  0  0  0
   21.6310  -21.4500  -10.9895 O   0  0  0  0  0  0  0  0  0  0  0  0
  2  1  1  6
  2  3  1  0
  2  6  1  0
  3  4  1  0
  4  8  1  0
  4  5  2  0
  6  9  1  0
  7  6  2  0
  9 10  1  0
 10 11  1  6
 11 12  1  0
 12 16  1  0
 12 13  2  0
 13 14  1  0
 15 14  1  0
 16 15  2  0
 17 10  1  0
 17 24  1  0
 18 17  2  0
 19 20  1  0
 20 21  1  0
 21 23  1  0
 21 22  1  1
 23 24  1  6
 23 25  1  0
 25 26  2  0
 25 27  1  0
M  END
$$$$
