DHI.pdb
     RDKit          3D

 27 27  0  0  1  0  0  0  0  0999 V2000
   26.6723  -22.8222  -16.5726 N   0  0  0  0  0  0  0  0  0  0  0  0
   27.6242  -21.8453  -16.1314 C   0  0  1  0  0  0  0  0  0  0  0  0
   28.0250  -21.0246  -17.3638 C   0  0  0  0  0  0  0  0  0  0  0  0
   28.6592  -21.9173  -18.3792 C   0  0  0  0  0  0  0  0  0  0  0  0
   29.9077  -21.9345  -18.5338 O   0  0  0  0  0  0  0  0  0  0  0  0
   26.9799  -20.9708  -15.1183 C   0  0  0  0  0  0  0  0  0  0  0  0
   27.4607  -19.8613  -14.7681 O   0  0  0  0  0  0  0  0  0  0  0  0
   27.9106  -22.7576  -19.1882 O   0  0  0  0  0  0  0  0  0  0  0  0
   25.7516  -21.3532  -14.4736 N   0  0  0  0  0  0  0  0  0  0  0  0
   25.0581  -20.5351  -13.5277 C   0  0  1  0  0  0  0  0  0  0  0  0
   23.5838  -20.4277  -13.8440 C   0  0  0  0  0  0  0  0  0  0  0  0
   23.3394  -19.4057  -14.8913 C   0  0  0  0  0  0  0  0  0  0  0  0
   24.2799  -18.5365  -15.4555 C   0  0  0  0  0  0  0  0  0  0  0  0
   23.6653  -17.7656  -16.3683 N   0  0  0  0  0  0  0  0  0  0  0  0
   22.3686  -18.1147  -16.4033 C   0  0  0  0  0  0  0  0  0  0  0  0
   22.1791  -19.1129  -15.5019 N   0  0  0  0  0  0  0  0  0  0  0  0
   25.3064  -21.0474  -12.1657 C   0  0  0  0  0  0  0  0  0  0  0  0
   25.1374  -22.2724  -11.9454 O   0  0  0  0  0  0  0  0  0  0  0  0
   27.9799  -19.7598   -6.7531 C   0  0  0  0  0  0  0  0  0  0  0  0
   27.0194  -20.6174   -7.5810 C   0  0  0  0  0  0  0  0  0  0  0  0
   26.7638  -19.9636   -8.9066 C   0  0  2  0  0  0  0  0  0  0  0  0
   26.1832  -18.5900   -8.6054 C   0  0  0  0  0  0  0  0  0  0  0  0
   25.8555  -20.7932   -9.7440 C   0  0  2  0  0  0  0  0  0  0  0  0
   25.7285  -20.2186  -11.0893 N   0  0  0  0  0  0  0  0  0  0  0  0
   24.5033  -20.8814   -9.1838 C   0  0  0  0  0  0  0  0  0  0  0  0
   23.5731  -20.1440   -9.6594 O   0  0  0  0  0  0  0  0  0  0  0  0
   24.2024  -21.7504   -8.1484 O   0  0  0  0  0  0  0  0  0  0  0  0
  2  1  1  6
  2  3  1  0
  2  6  1  0
  3  4  1  0
  4  8  1  0
  4  5  2  0
  6  9  1  0
  7  6  2  0
  9 10  1  0
 10 11  1  6
 11 12  1  0
 12 16  1  0
 12 13  2  0
 13 14  1  0
 15 14  1  0
 16 15  2  0
 17 10  1  0
 17 24  1  0
 18 17  2  0
 19 20  1  0
 20 21  1  0
 21 23  1  0
 21 22  1  1
 23 24  1  6
 23 25  1  0
 25 26  2  0
 25 27  1  0
M  END
$$$$
