DHI.pdb
     RDKit          3D

 27 27  0  0  1  0  0  0  0  0999 V2000
   17.1972  -15.1825  -17.6693 N   0  0  0  0  0  0  0  0  0  0  0  0
   17.7141  -14.5285  -16.5029 C   0  0  1  0  0  0  0  0  0  0  0  0
   18.8095  -15.4373  -15.9306 C   0  0  0  0  0  0  0  0  0  0  0  0
   18.1863  -16.5475  -15.1501 C   0  0  0  0  0  0  0  0  0  0  0  0
   16.9437  -16.5823  -14.9563 O   0  0  0  0  0  0  0  0  0  0  0  0
   18.2892  -13.2186  -16.9023 C   0  0  0  0  0  0  0  0  0  0  0  0
   19.3187  -13.1140  -17.6191 O   0  0  0  0  0  0  0  0  0  0  0  0
   18.9392  -17.5781  -14.6097 O   0  0  0  0  0  0  0  0  0  0  0  0
   17.6886  -11.9798  -16.4833 N   0  0  0  0  0  0  0  0  0  0  0  0
   18.1392  -10.6907  -16.9075 C   0  0  1  0  0  0  0  0  0  0  0  0
   16.9986   -9.8185  -17.3804 C   0  0  0  0  0  0  0  0  0  0  0  0
   16.5212  -10.2491  -18.7174 C   0  0  0  0  0  0  0  0  0  0  0  0
   17.1551  -10.0363  -19.9467 C   0  0  0  0  0  0  0  0  0  0  0  0
   16.4053  -10.5786  -20.9209 N   0  0  0  0  0  0  0  0  0  0  0  0
   15.3185  -11.1278  -20.3535 C   0  0  0  0  0  0  0  0  0  0  0  0
   15.3971  -10.9228  -19.0132 N   0  0  0  0  0  0  0  0  0  0  0  0
   18.9148  -10.0631  -15.8194 C   0  0  0  0  0  0  0  0  0  0  0  0
   18.4318  -10.0651  -14.6599 O   0  0  0  0  0  0  0  0  0  0  0  0
   23.8567  -11.3387  -14.8188 C   0  0  0  0  0  0  0  0  0  0  0  0
   22.3958  -10.8815  -14.8093 C   0  0  0  0  0  0  0  0  0  0  0  0
   22.3282   -9.3847  -14.8805 C   0  0  2  0  0  0  0  0  0  0  0  0
   23.1246   -8.8600  -13.6953 C   0  0  0  0  0  0  0  0  0  0  0  0
   20.9167   -8.9135  -14.8698 C   0  0  2  0  0  0  0  0  0  0  0  0
   20.1849   -9.4553  -16.0218 N   0  0  0  0  0  0  0  0  0  0  0  0
   20.8142   -7.4526  -14.9426 C   0  0  0  0  0  0  0  0  0  0  0  0
   21.1473   -6.7448  -13.9310 O   0  0  0  0  0  0  0  0  0  0  0  0
   20.3669   -6.8129  -16.0865 O   0  0  0  0  0  0  0  0  0  0  0  0
  2  1  1  6
  2  3  1  0
  2  6  1  0
  3  4  1  0
  4  8  1  0
  4  5  2  0
  6  9  1  0
  7  6  2  0
  9 10  1  0
 10 11  1  1
 11 12  1  0
 12 16  1  0
 12 13  2  0
 13 14  1  0
 15 14  1  0
 16 15  2  0
 17 10  1  0
 17 24  1  0
 18 17  2  0
 19 20  1  0
 20 21  1  0
 21 23  1  0
 21 22  1  1
 23 24  1  6
 23 25  1  0
 25 26  2  0
 25 27  1  0
M  END
$$$$
