DHI.pdb
     RDKit          3D

 27 27  0  0  1  0  0  0  0  0999 V2000
   26.6741  -20.7092  -15.9355 N   0  0  0  0  0  0  0  0  0  0  0  0
   27.5899  -20.3950  -14.8782 C   0  0  1  0  0  0  0  0  0  0  0  0
   28.4522  -19.2248  -15.3682 C   0  0  0  0  0  0  0  0  0  0  0  0
   28.6344  -19.3178  -16.8475 C   0  0  0  0  0  0  0  0  0  0  0  0
   28.4684  -20.4091  -17.4511 O   0  0  0  0  0  0  0  0  0  0  0  0
   26.8154  -19.9950  -13.6756 C   0  0  0  0  0  0  0  0  0  0  0  0
   26.7113  -18.7993  -13.2960 O   0  0  0  0  0  0  0  0  0  0  0  0
   28.9903  -18.2194  -17.6141 O   0  0  0  0  0  0  0  0  0  0  0  0
   26.1319  -20.9706  -12.8682 N   0  0  0  0  0  0  0  0  0  0  0  0
   25.2443  -20.6397  -11.7970 C   0  0  1  0  0  0  0  0  0  0  0  0
   23.8917  -21.2953  -11.9582 C   0  0  0  0  0  0  0  0  0  0  0  0
   23.1041  -20.6300  -13.0250 C   0  0  0  0  0  0  0  0  0  0  0  0
   23.4750  -19.5031  -13.7673 C   0  0  0  0  0  0  0  0  0  0  0  0
   22.4909  -19.2116  -14.6344 N   0  0  0  0  0  0  0  0  0  0  0  0
   21.5089  -20.1132  -14.4686 C   0  0  0  0  0  0  0  0  0  0  0  0
   21.8901  -20.9721  -13.4879 N   0  0  0  0  0  0  0  0  0  0  0  0
   25.8849  -20.9785  -10.5109 C   0  0  0  0  0  0  0  0  0  0  0  0
   26.3704  -22.1279  -10.3667 O   0  0  0  0  0  0  0  0  0  0  0  0
   29.1210  -20.5451   -7.6588 C   0  0  0  0  0  0  0  0  0  0  0  0
   28.2851  -19.2644   -7.7254 C   0  0  0  0  0  0  0  0  0  0  0  0
   26.8931  -19.5367   -7.2374 C   0  0  2  0  0  0  0  0  0  0  0  0
   27.0209  -19.9567   -5.7808 C   0  0  0  0  0  0  0  0  0  0  0  0
   26.2290  -20.5747   -8.0718 C   0  0  2  0  0  0  0  0  0  0  0  0
   25.9787  -20.0638   -9.4253 N   0  0  0  0  0  0  0  0  0  0  0  0
   24.9348  -20.9904   -7.5219 C   0  0  0  0  0  0  0  0  0  0  0  0
   23.8714  -20.3736   -7.8739 O   0  0  0  0  0  0  0  0  0  0  0  0
   24.8309  -22.0430   -6.6280 O   0  0  0  0  0  0  0  0  0  0  0  0
  2  1  1  6
  2  3  1  0
  2  6  1  0
  3  4  1  0
  4  8  1  0
  4  5  2  0
  6  9  1  0
  7  6  2  0
  9 10  1  0
 10 11  1  6
 11 12  1  0
 12 16  1  0
 12 13  2  0
 13 14  1  0
 15 14  1  0
 16 15  2  0
 17 10  1  0
 17 24  1  0
 18 17  2  0
 19 20  1  0
 20 21  1  0
 21 23  1  0
 21 22  1  1
 23 24  1  6
 23 25  1  0
 25 26  2  0
 25 27  1  0
M  END
$$$$
