DHI.pdb
     RDKit          3D

 27 27  0  0  1  0  0  0  0  0999 V2000
   27.6469  -22.5000  -17.5980 N   0  0  0  0  0  0  0  0  0  0  0  0
   28.0314  -21.5167  -16.6282 C   0  0  1  0  0  0  0  0  0  0  0  0
   27.9181  -20.1481  -17.3117 C   0  0  0  0  0  0  0  0  0  0  0  0
   26.5642  -20.0014  -17.9246 C   0  0  0  0  0  0  0  0  0  0  0  0
   26.0843  -20.9069  -18.6543 O   0  0  0  0  0  0  0  0  0  0  0  0
   27.1016  -21.5931  -15.4725 C   0  0  0  0  0  0  0  0  0  0  0  0
   26.0134  -22.2248  -15.5114 O   0  0  0  0  0  0  0  0  0  0  0  0
   25.7837  -18.8745  -17.7201 O   0  0  0  0  0  0  0  0  0  0  0  0
   27.4018  -20.9378  -14.2271 N   0  0  0  0  0  0  0  0  0  0  0  0
   26.5585  -20.9909  -13.0735 C   0  0  1  0  0  0  0  0  0  0  0  0
   27.2163  -20.3724  -11.8610 C   0  0  0  0  0  0  0  0  0  0  0  0
   26.3360  -20.4730  -10.6712 C   0  0  0  0  0  0  0  0  0  0  0  0
   25.0863  -21.0988  -10.5986 C   0  0  0  0  0  0  0  0  0  0  0  0
   24.6099  -20.9727   -9.3487 N   0  0  0  0  0  0  0  0  0  0  0  0
   25.5126  -20.2892   -8.6257 C   0  0  0  0  0  0  0  0  0  0  0  0
   26.5592  -19.9893   -9.4378 N   0  0  0  0  0  0  0  0  0  0  0  0
   25.2594  -20.3655  -13.3902 C   0  0  0  0  0  0  0  0  0  0  0  0
   25.2544  -19.2762  -14.0155 O   0  0  0  0  0  0  0  0  0  0  0  0
   20.7248  -20.5941  -16.6481 C   0  0  0  0  0  0  0  0  0  0  0  0
   21.0660  -20.1476  -15.2242 C   0  0  0  0  0  0  0  0  0  0  0  0
   22.3235  -20.8235  -14.7642 C   0  0  2  0  0  0  0  0  0  0  0  0
   22.0192  -22.3133  -14.7142 C   0  0  0  0  0  0  0  0  0  0  0  0
   22.7650  -20.2894  -13.4472 C   0  0  2  0  0  0  0  0  0  0  0  0
   24.0109  -20.9386  -13.0204 N   0  0  0  0  0  0  0  0  0  0  0  0
   21.7752  -20.5196  -12.3901 C   0  0  0  0  0  0  0  0  0  0  0  0
   21.7718  -21.6318  -11.7592 O   0  0  0  0  0  0  0  0  0  0  0  0
   20.8391  -19.5570  -12.0509 O   0  0  0  0  0  0  0  0  0  0  0  0
  2  1  1  6
  2  3  1  0
  2  6  1  0
  3  4  1  0
  4  8  1  0
  4  5  2  0
  6  9  1  0
  7  6  2  0
  9 10  1  0
 10 11  1  1
 11 12  1  0
 12 16  1  0
 12 13  2  0
 13 14  1  0
 15 14  1  0
 16 15  2  0
 17 10  1  0
 17 24  1  0
 18 17  2  0
 19 20  1  0
 20 21  1  0
 21 23  1  0
 21 22  1  1
 23 24  1  1
 23 25  1  0
 25 26  2  0
 25 27  1  0
M  END
$$$$
