DHI.pdb
     RDKit          3D

 27 27  0  0  1  0  0  0  0  0999 V2000
   25.0523  -20.5748  -16.5328 N   0  0  0  0  0  0  0  0  0  0  0  0
   25.5906  -19.4242  -15.8682 C   0  0  1  0  0  0  0  0  0  0  0  0
   25.2362  -18.2053  -16.7293 C   0  0  0  0  0  0  0  0  0  0  0  0
   26.4268  -17.7902  -17.5296 C   0  0  0  0  0  0  0  0  0  0  0  0
   27.4418  -17.3006  -16.9703 O   0  0  0  0  0  0  0  0  0  0  0  0
   24.9626  -19.3070  -14.5273 C   0  0  0  0  0  0  0  0  0  0  0  0
   24.4538  -18.2370  -14.1021 O   0  0  0  0  0  0  0  0  0  0  0  0
   26.4677  -17.9238  -18.9085 O   0  0  0  0  0  0  0  0  0  0  0  0
   24.9022  -20.4299  -13.6295 N   0  0  0  0  0  0  0  0  0  0  0  0
   24.1568  -20.4371  -12.4092 C   0  0  1  0  0  0  0  0  0  0  0  0
   22.8890  -21.2525  -12.5237 C   0  0  0  0  0  0  0  0  0  0  0  0
   21.8603  -20.5256  -13.3074 C   0  0  0  0  0  0  0  0  0  0  0  0
   21.4167  -20.8278  -14.5998 C   0  0  0  0  0  0  0  0  0  0  0  0
   20.4786  -19.9346  -14.9564 N   0  0  0  0  0  0  0  0  0  0  0  0
   20.3111  -19.0765  -13.9365 C   0  0  0  0  0  0  0  0  0  0  0  0
   21.1553  -19.4433  -12.9377 N   0  0  0  0  0  0  0  0  0  0  0  0
   25.0266  -20.8992  -11.3095 C   0  0  0  0  0  0  0  0  0  0  0  0
   25.7639  -21.8968  -11.5064 O   0  0  0  0  0  0  0  0  0  0  0  0
   28.5781  -19.1925   -6.7736 C   0  0  0  0  0  0  0  0  0  0  0  0
   27.6467  -20.2899   -7.2947 C   0  0  0  0  0  0  0  0  0  0  0  0
   26.7748  -19.7443   -8.3866 C   0  0  2  0  0  0  0  0  0  0  0  0
   25.9395  -18.6382   -7.7596 C   0  0  0  0  0  0  0  0  0  0  0  0
   25.9372  -20.8180   -8.9868 C   0  0  2  0  0  0  0  0  0  0  0  0
   25.0695  -20.2675  -10.0356 N   0  0  0  0  0  0  0  0  0  0  0  0
   25.0649  -21.4638   -8.0008 C   0  0  0  0  0  0  0  0  0  0  0  0
   23.8257  -21.1518   -7.9534 O   0  0  0  0  0  0  0  0  0  0  0  0
   25.5487  -22.4122   -7.1153 O   0  0  0  0  0  0  0  0  0  0  0  0
  2  1  1  6
  2  3  1  0
  2  6  1  0
  3  4  1  0
  4  8  1  0
  4  5  2  0
  6  9  1  0
  7  6  2  0
  9 10  1  0
 10 11  1  6
 11 12  1  0
 12 16  1  0
 12 13  2  0
 13 14  1  0
 15 14  1  0
 16 15  2  0
 17 10  1  0
 17 24  1  0
 18 17  2  0
 19 20  1  0
 20 21  1  0
 21 23  1  0
 21 22  1  1
 23 24  1  6
 23 25  1  0
 25 26  2  0
 25 27  1  0
M  END
$$$$
