DHI.pdb
     RDKit          3D

 27 27  0  0  1  0  0  0  0  0999 V2000
   27.8302  -22.1168  -15.8956 N   0  0  0  0  0  0  0  0  0  0  0  0
   27.5293  -20.7326  -16.1167 C   0  0  1  0  0  0  0  0  0  0  0  0
   26.8934  -20.6314  -17.5089 C   0  0  0  0  0  0  0  0  0  0  0  0
   27.0194  -19.2338  -18.0201 C   0  0  0  0  0  0  0  0  0  0  0  0
   28.1153  -18.6192  -17.9558 O   0  0  0  0  0  0  0  0  0  0  0  0
   26.5693  -20.2784  -15.0784 C   0  0  0  0  0  0  0  0  0  0  0  0
   26.0375  -19.1375  -15.0914 O   0  0  0  0  0  0  0  0  0  0  0  0
   25.9478  -18.5579  -18.5819 O   0  0  0  0  0  0  0  0  0  0  0  0
   26.1908  -21.1339  -13.9849 N   0  0  0  0  0  0  0  0  0  0  0  0
   25.2048  -20.7912  -13.0076 C   0  0  1  0  0  0  0  0  0  0  0  0
   23.8633  -21.4184  -13.3111 C   0  0  0  0  0  0  0  0  0  0  0  0
   23.0089  -20.4906  -14.0922 C   0  0  0  0  0  0  0  0  0  0  0  0
   22.9182  -20.4006  -15.4858 C   0  0  0  0  0  0  0  0  0  0  0  0
   22.0349  -19.4387  -15.8018 N   0  0  0  0  0  0  0  0  0  0  0  0
   21.5621  -18.9153  -14.6585 C   0  0  0  0  0  0  0  0  0  0  0  0
   22.1597  -19.5608  -13.6237 N   0  0  0  0  0  0  0  0  0  0  0  0
   25.7038  -21.1499  -11.6654 C   0  0  0  0  0  0  0  0  0  0  0  0
   26.4949  -22.1196  -11.5587 O   0  0  0  0  0  0  0  0  0  0  0  0
   28.4335  -19.3757   -6.8355 C   0  0  0  0  0  0  0  0  0  0  0  0
   27.3704  -20.3624   -7.3250 C   0  0  0  0  0  0  0  0  0  0  0  0
   26.8169  -19.9054   -8.6421 C   0  0  2  0  0  0  0  0  0  0  0  0
   26.1795  -18.5465   -8.3941 C   0  0  0  0  0  0  0  0  0  0  0  0
   25.8490  -20.8961   -9.1864 C   0  0  2  0  0  0  0  0  0  0  0  0
   25.3306  -20.4486  -10.4852 N   0  0  0  0  0  0  0  0  0  0  0  0
   24.6933  -21.0911   -8.3052 C   0  0  0  0  0  0  0  0  0  0  0  0
   24.8603  -21.6153   -7.1509 O   0  0  0  0  0  0  0  0  0  0  0  0
   23.4166  -20.7170   -8.6899 O   0  0  0  0  0  0  0  0  0  0  0  0
  2  1  1  1
  2  3  1  0
  2  6  1  0
  3  4  1  0
  4  8  1  0
  4  5  2  0
  6  9  1  0
  7  6  2  0
  9 10  1  0
 10 11  1  6
 11 12  1  0
 12 16  1  0
 12 13  2  0
 13 14  1  0
 15 14  1  0
 16 15  2  0
 17 10  1  0
 17 24  1  0
 18 17  2  0
 19 20  1  0
 20 21  1  0
 21 23  1  0
 21 22  1  1
 23 24  1  6
 23 25  1  0
 25 26  2  0
 25 27  1  0
M  END
$$$$
