DHI.pdb
     RDKit          3D

 27 27  0  0  1  0  0  0  0  0999 V2000
   17.6112  -12.7963  -15.5720 N   0  0  0  0  0  0  0  0  0  0  0  0
   17.6953  -11.7322  -16.5289 C   0  0  1  0  0  0  0  0  0  0  0  0
   16.3558  -11.6968  -17.2755 C   0  0  0  0  0  0  0  0  0  0  0  0
   16.2022  -12.9363  -18.0942 C   0  0  0  0  0  0  0  0  0  0  0  0
   17.0659  -13.8500  -18.0506 O   0  0  0  0  0  0  0  0  0  0  0  0
   17.9155  -10.4533  -15.8064 C   0  0  0  0  0  0  0  0  0  0  0  0
   17.2932  -10.1455  -14.7563 O   0  0  0  0  0  0  0  0  0  0  0  0
   15.1143  -13.1344  -18.9298 O   0  0  0  0  0  0  0  0  0  0  0  0
   18.8682   -9.4832  -16.2776 N   0  0  0  0  0  0  0  0  0  0  0  0
   19.1620   -8.2586  -15.6001 C   0  0  1  0  0  0  0  0  0  0  0  0
   20.2010   -8.4444  -14.5178 C   0  0  0  0  0  0  0  0  0  0  0  0
   21.3832   -9.1746  -15.0377 C   0  0  0  0  0  0  0  0  0  0  0  0
   21.5230   -9.7597  -16.3012 C   0  0  0  0  0  0  0  0  0  0  0  0
   22.7394  -10.3239  -16.3859 N   0  0  0  0  0  0  0  0  0  0  0  0
   23.3763  -10.1176  -15.2212 C   0  0  0  0  0  0  0  0  0  0  0  0
   22.5442   -9.4180  -14.4070 N   0  0  0  0  0  0  0  0  0  0  0  0
   19.5558   -7.2364  -16.5896 C   0  0  0  0  0  0  0  0  0  0  0  0
   20.1059   -7.6125  -17.6543 O   0  0  0  0  0  0  0  0  0  0  0  0
   16.3426   -3.9419  -18.8139 C   0  0  0  0  0  0  0  0  0  0  0  0
   17.5621   -4.8255  -18.5391 C   0  0  0  0  0  0  0  0  0  0  0  0
   18.6236   -4.0286  -17.8406 C   0  0  2  0  0  0  0  0  0  0  0  0
   19.0453   -2.9314  -18.8065 C   0  0  0  0  0  0  0  0  0  0  0  0
   19.7621   -4.8969  -17.4350 C   0  0  2  0  0  0  0  0  0  0  0  0
   19.3416   -5.8436  -16.3945 N   0  0  0  0  0  0  0  0  0  0  0  0
   20.8852   -4.1279  -16.8895 C   0  0  0  0  0  0  0  0  0  0  0  0
   20.8948   -3.8174  -15.6490 O   0  0  0  0  0  0  0  0  0  0  0  0
   21.9456   -3.7287  -17.6857 O   0  0  0  0  0  0  0  0  0  0  0  0
  2  1  1  1
  2  3  1  0
  2  6  1  0
  3  4  1  0
  4  8  1  0
  4  5  2  0
  6  9  1  0
  7  6  2  0
  9 10  1  0
 10 11  1  1
 11 12  1  0
 12 16  1  0
 12 13  2  0
 13 14  1  0
 15 14  1  0
 16 15  2  0
 17 10  1  0
 17 24  1  0
 18 17  2  0
 19 20  1  0
 20 21  1  0
 21 23  1  0
 21 22  1  6
 23 24  1  1
 23 25  1  0
 25 26  2  0
 25 27  1  0
M  END
$$$$
