GKR.pdb
     RDKit          3D

 25 24  0  0  1  0  0  0  0  0999 V2000
   27.4305  -25.5254  -16.7393 N   0  0  0  0  0  0  0  0  0  0  0  0
   26.0137  -25.4433  -16.5733 C   0  0  0  0  0  0  0  0  0  0  0  0
   25.5500  -24.1230  -16.1363 C   0  0  0  0  0  0  0  0  0  0  0  0
   26.3538  -23.2341  -15.7628 O   0  0  0  0  0  0  0  0  0  0  0  0
   24.1509  -23.7681  -16.1095 N   0  0  0  0  0  0  0  0  0  0  0  0
   23.7270  -22.4522  -15.7543 C   0  0  1  0  0  0  0  0  0  0  0  0
   22.4989  -22.0016  -16.4497 C   0  0  0  0  0  0  0  0  0  0  0  0
   22.5438  -21.8985  -17.9254 C   0  0  0  0  0  0  0  0  0  0  0  0
   21.2895  -21.4170  -18.5851 C   0  0  0  0  0  0  0  0  0  0  0  0
   21.5360  -21.5074  -20.1031 C   0  0  0  0  0  0  0  0  0  0  0  0
   20.2990  -21.0188  -20.7057 N   0  0  0  0  0  0  0  0  0  0  0  0
   23.3785  -22.4553  -14.2768 C   0  0  0  0  0  0  0  0  0  0  0  0
   22.6351  -23.3503  -13.8323 O   0  0  0  0  0  0  0  0  0  0  0  0
   29.1496  -20.5919   -8.2978 N   0  0  0  0  0  0  0  0  0  0  0  0
   28.8620  -21.3397   -9.4697 C   0  0  0  0  0  0  0  0  0  0  0  0
   29.8438  -21.8763  -10.0974 N   0  0  0  0  0  0  0  0  0  0  0  0
   27.5471  -21.4896   -9.9294 N   0  0  0  0  0  0  0  0  0  0  0  0
   26.5220  -20.5321   -9.4728 C   0  0  0  0  0  0  0  0  0  0  0  0
   25.2250  -20.9994  -10.0065 C   0  0  0  0  0  0  0  0  0  0  0  0
   24.9174  -20.9259  -11.4342 C   0  0  0  0  0  0  0  0  0  0  0  0
   23.6117  -21.3752  -11.9948 C   0  0  2  0  0  0  0  0  0  0  0  0
   23.9248  -21.4321  -13.4839 N   0  0  0  0  0  0  0  0  0  0  0  0
   22.5307  -20.3923  -11.9359 C   0  0  0  0  0  0  0  0  0  0  0  0
   22.1866  -19.6790  -13.1062 O   0  0  0  0  0  0  0  0  0  0  0  0
   21.8542  -20.0982  -10.9428 O   0  0  0  0  0  0  0  0  0  0  0  0
  2  1  1  0
  3  4  2  0
  3  2  1  0
  5  3  1  0
  6  7  1  6
  6  5  1  0
  8  7  1  0
  9  8  1  0
 10  9  1  0
 11 10  1  0
 12 22  1  0
 12  6  1  0
 13 12  2  0
 15 14  1  0
 15 16  2  0
 17 15  1  0
 18 17  1  0
 19 20  1  0
 19 18  1  0
 21 22  1  0
 21 20  1  1
 23 24  1  0
 23 21  1  0
 25 23  2  0
M  END
$$$$
