GKR.pdb
     RDKit          3D

 25 24  0  0  1  0  0  0  0  0999 V2000
   17.2028  -14.0792  -16.7381 N   0  0  0  0  0  0  0  0  0  0  0  0
   17.2898  -13.2228  -15.5976 C   0  0  0  0  0  0  0  0  0  0  0  0
   17.8389  -11.8975  -15.9000 C   0  0  0  0  0  0  0  0  0  0  0  0
   18.8381  -11.7543  -16.6462 O   0  0  0  0  0  0  0  0  0  0  0  0
   17.2673  -10.6860  -15.3618 N   0  0  0  0  0  0  0  0  0  0  0  0
   17.7859   -9.4030  -15.7119 C   0  0  1  0  0  0  0  0  0  0  0  0
   16.9059   -8.2706  -15.3402 C   0  0  0  0  0  0  0  0  0  0  0  0
   15.5441   -8.2403  -15.9189 C   0  0  0  0  0  0  0  0  0  0  0  0
   14.6423   -7.1591  -15.4109 C   0  0  0  0  0  0  0  0  0  0  0  0
   13.3132   -7.3084  -16.1755 C   0  0  0  0  0  0  0  0  0  0  0  0
   12.4787   -6.2186  -15.6774 N   0  0  0  0  0  0  0  0  0  0  0  0
   19.0720   -9.1895  -14.9342 C   0  0  0  0  0  0  0  0  0  0  0  0
   19.1052   -9.4891  -13.7258 O   0  0  0  0  0  0  0  0  0  0  0  0
   26.7239  -12.1114  -17.2769 N   0  0  0  0  0  0  0  0  0  0  0  0
   26.9634  -11.3457  -16.1056 C   0  0  0  0  0  0  0  0  0  0  0  0
   28.1079  -11.4573  -15.5372 N   0  0  0  0  0  0  0  0  0  0  0  0
   25.9818  -10.4929  -15.5838 N   0  0  0  0  0  0  0  0  0  0  0  0
   24.6556  -10.4586  -16.2289 C   0  0  0  0  0  0  0  0  0  0  0  0
   23.7961   -9.5826  -15.4047 C   0  0  0  0  0  0  0  0  0  0  0  0
   22.3915   -9.3566  -15.7427 C   0  0  0  0  0  0  0  0  0  0  0  0
   21.5051   -8.4767  -14.9295 C   0  0  2  0  0  0  0  0  0  0  0  0
   20.1680   -8.6587  -15.6350 N   0  0  0  0  0  0  0  0  0  0  0  0
   21.7445   -7.0411  -15.0700 C   0  0  0  0  0  0  0  0  0  0  0  0
   22.6524   -6.4071  -14.1923 O   0  0  0  0  0  0  0  0  0  0  0  0
   21.2252   -6.2842  -15.8994 O   0  0  0  0  0  0  0  0  0  0  0  0
  2  1  1  0
  3  4  2  0
  3  2  1  0
  5  3  1  0
  6  7  1  1
  6  5  1  0
  8  7  1  0
  9  8  1  0
 10  9  1  0
 11 10  1  0
 12 22  1  0
 12  6  1  0
 13 12  2  0
 15 14  1  0
 15 16  2  0
 17 15  1  0
 18 17  1  0
 19 20  1  0
 19 18  1  0
 21 22  1  0
 21 20  1  6
 23 24  1  0
 23 21  1  0
 25 23  2  0
M  END
$$$$
