GKR.pdb
     RDKit          3D

 25 24  0  0  1  0  0  0  0  0999 V2000
   27.1384  -14.1217  -15.8994 N   0  0  0  0  0  0  0  0  0  0  0  0
   27.4441  -15.5109  -16.0351 C   0  0  0  0  0  0  0  0  0  0  0  0
   26.2790  -16.3384  -16.3623 C   0  0  0  0  0  0  0  0  0  0  0  0
   25.1163  -15.8653  -16.3657 O   0  0  0  0  0  0  0  0  0  0  0  0
   26.3980  -17.7374  -16.6982 N   0  0  0  0  0  0  0  0  0  0  0  0
   25.2735  -18.4875  -17.1569 C   0  0  1  0  0  0  0  0  0  0  0  0
   25.5314  -19.2803  -18.3816 C   0  0  0  0  0  0  0  0  0  0  0  0
   25.3323  -18.6121  -19.6869 C   0  0  0  0  0  0  0  0  0  0  0  0
   25.6340  -19.4395  -20.8972 C   0  0  0  0  0  0  0  0  0  0  0  0
   25.4649  -18.5078  -22.1124 C   0  0  0  0  0  0  0  0  0  0  0  0
   25.7168  -19.3631  -23.2687 N   0  0  0  0  0  0  0  0  0  0  0  0
   24.9180  -19.5015  -16.0846 C   0  0  0  0  0  0  0  0  0  0  0  0
   25.8109  -20.2434  -15.6335 O   0  0  0  0  0  0  0  0  0  0  0  0
   24.4008  -20.7397   -9.6476 N   0  0  0  0  0  0  0  0  0  0  0  0
   23.0596  -21.0028   -9.2638 C   0  0  0  0  0  0  0  0  0  0  0  0
   22.8136  -21.1771   -8.0169 N   0  0  0  0  0  0  0  0  0  0  0  0
   22.0334  -21.0703  -10.2152 N   0  0  0  0  0  0  0  0  0  0  0  0
   22.3936  -21.2073  -11.6392 C   0  0  0  0  0  0  0  0  0  0  0  0
   22.2624  -19.8671  -12.2494 C   0  0  0  0  0  0  0  0  0  0  0  0
   22.3185  -19.6808  -13.6987 C   0  0  0  0  0  0  0  0  0  0  0  0
   23.1575  -20.5381  -14.5832 C   0  0  2  0  0  0  0  0  0  0  0  0
   23.5806  -19.5437  -15.6559 N   0  0  0  0  0  0  0  0  0  0  0  0
   22.4311  -21.5460  -15.3544 C   0  0  0  0  0  0  0  0  0  0  0  0
   22.4423  -22.8882  -14.9127 O   0  0  0  0  0  0  0  0  0  0  0  0
   21.7819  -21.3560  -16.3901 O   0  0  0  0  0  0  0  0  0  0  0  0
  2  1  1  0
  3  4  2  0
  3  2  1  0
  5  3  1  0
  6  7  1  6
  6  5  1  0
  8  7  1  0
  9  8  1  0
 10  9  1  0
 11 10  1  0
 12 22  1  0
 12  6  1  0
 13 12  2  0
 15 14  1  0
 15 16  2  0
 17 15  1  0
 18 17  1  0
 19 20  1  0
 19 18  1  0
 21 22  1  0
 21 20  1  1
 23 24  1  0
 23 21  1  0
 25 23  2  0
M  END
$$$$
