GKR.pdb
     RDKit          3D

 25 24  0  0  1  0  0  0  0  0999 V2000
   14.4902  -24.0470    0.9221 N   0  0  0  0  0  0  0  0  0  0  0  0
   14.7425  -22.7255    1.4033 C   0  0  0  0  0  0  0  0  0  0  0  0
   13.5284  -21.9219    1.5743 C   0  0  0  0  0  0  0  0  0  0  0  0
   12.4154  -22.3122    1.1444 O   0  0  0  0  0  0  0  0  0  0  0  0
   13.5395  -20.6424    2.2428 N   0  0  0  0  0  0  0  0  0  0  0  0
   12.3480  -19.8689    2.3821 C   0  0  1  0  0  0  0  0  0  0  0  0
   12.2612  -19.1110    3.6522 C   0  0  0  0  0  0  0  0  0  0  0  0
   10.9497  -19.0648    4.3362 C   0  0  0  0  0  0  0  0  0  0  0  0
   10.9109  -18.3029    5.6239 C   0  0  0  0  0  0  0  0  0  0  0  0
    9.4589  -18.3844    6.1323 C   0  0  0  0  0  0  0  0  0  0  0  0
    9.4671  -17.6391    7.3879 N   0  0  0  0  0  0  0  0  0  0  0  0
   12.3385  -18.8214    1.2833 C   0  0  0  0  0  0  0  0  0  0  0  0
   13.4013  -18.2419    0.9906 O   0  0  0  0  0  0  0  0  0  0  0  0
    8.6931  -19.0311   -6.2853 N   0  0  0  0  0  0  0  0  0  0  0  0
    8.2958  -17.7270   -5.8894 C   0  0  0  0  0  0  0  0  0  0  0  0
    7.5549  -17.0540   -6.6917 N   0  0  0  0  0  0  0  0  0  0  0  0
    8.6985  -17.1884   -4.6603 N   0  0  0  0  0  0  0  0  0  0  0  0
    8.9895  -18.1076   -3.5438 C   0  0  0  0  0  0  0  0  0  0  0  0
    9.3077  -17.2715   -2.3669 C   0  0  0  0  0  0  0  0  0  0  0  0
    9.7372  -17.8674   -1.1024 C   0  0  0  0  0  0  0  0  0  0  0  0
   11.0296  -17.5137   -0.4501 C   0  0  2  0  0  0  0  0  0  0  0  0
   11.1112  -18.5636    0.6497 N   0  0  0  0  0  0  0  0  0  0  0  0
   11.0302  -16.2622    0.3062 C   0  0  0  0  0  0  0  0  0  0  0  0
   10.6828  -16.2872    1.6756 O   0  0  0  0  0  0  0  0  0  0  0  0
   11.3094  -15.1379   -0.1279 O   0  0  0  0  0  0  0  0  0  0  0  0
  2  1  1  0
  3  4  2  0
  3  2  1  0
  5  3  1  0
  6  7  1  1
  6  5  1  0
  8  7  1  0
  9  8  1  0
 10  9  1  0
 11 10  1  0
 12 22  1  0
 12  6  1  0
 13 12  2  0
 15 14  1  0
 15 16  2  0
 17 15  1  0
 18 17  1  0
 19 20  1  0
 19 18  1  0
 21 22  1  0
 21 20  1  1
 23 24  1  0
 23 21  1  0
 25 23  2  0
M  END
$$$$
