GKR.pdb
     RDKit          3D

 25 24  0  0  1  0  0  0  0  0999 V2000
   28.0576  -24.3167  -17.5518 N   0  0  0  0  0  0  0  0  0  0  0  0
   26.8990  -23.9108  -18.2829 C   0  0  0  0  0  0  0  0  0  0  0  0
   26.2312  -22.7345  -17.7177 C   0  0  0  0  0  0  0  0  0  0  0  0
   26.6430  -22.1864  -16.6661 O   0  0  0  0  0  0  0  0  0  0  0  0
   25.0681  -22.1397  -18.3322 N   0  0  0  0  0  0  0  0  0  0  0  0
   24.4895  -20.9408  -17.8171 C   0  0  1  0  0  0  0  0  0  0  0  0
   23.4951  -20.3114  -18.7171 C   0  0  0  0  0  0  0  0  0  0  0  0
   22.8352  -19.0713  -18.2513 C   0  0  0  0  0  0  0  0  0  0  0  0
   21.7744  -18.5183  -19.1508 C   0  0  0  0  0  0  0  0  0  0  0  0
   21.3546  -17.1654  -18.5453 C   0  0  0  0  0  0  0  0  0  0  0  0
   20.2380  -16.7223  -19.3753 N   0  0  0  0  0  0  0  0  0  0  0  0
   23.7263  -21.2945  -16.5534 C   0  0  0  0  0  0  0  0  0  0  0  0
   22.8373  -22.1650  -16.6071 O   0  0  0  0  0  0  0  0  0  0  0  0
   25.9972  -19.5557   -9.0688 N   0  0  0  0  0  0  0  0  0  0  0  0
   25.1592  -20.6223   -8.6497 C   0  0  0  0  0  0  0  0  0  0  0  0
   24.7172  -20.6030   -7.4456 N   0  0  0  0  0  0  0  0  0  0  0  0
   24.8228  -21.6656   -9.5222 N   0  0  0  0  0  0  0  0  0  0  0  0
   25.2701  -21.5891  -10.9259 C   0  0  0  0  0  0  0  0  0  0  0  0
   24.3144  -20.7138  -11.6373 C   0  0  0  0  0  0  0  0  0  0  0  0
   24.4263  -20.4734  -13.0754 C   0  0  0  0  0  0  0  0  0  0  0  0
   23.4302  -20.9957  -14.0532 C   0  0  2  0  0  0  0  0  0  0  0  0
   24.0740  -20.6084  -15.3776 N   0  0  0  0  0  0  0  0  0  0  0  0
   22.1572  -20.2777  -14.0979 C   0  0  0  0  0  0  0  0  0  0  0  0
   22.0985  -19.0236  -14.7465 O   0  0  0  0  0  0  0  0  0  0  0  0
   21.0815  -20.6524  -13.6155 O   0  0  0  0  0  0  0  0  0  0  0  0
  2  1  1  0
  3  4  2  0
  3  2  1  0
  5  3  1  0
  6  7  1  6
  6  5  1  0
  8  7  1  0
  9  8  1  0
 10  9  1  0
 11 10  1  0
 12 22  1  0
 12  6  1  0
 13 12  2  0
 15 14  1  0
 15 16  2  0
 17 15  1  0
 18 17  1  0
 19 20  1  0
 19 18  1  0
 21 22  1  0
 21 20  1  1
 23 24  1  0
 23 21  1  0
 25 23  2  0
M  END
$$$$
