GKR.pdb
     RDKit          3D

 25 24  0  0  1  0  0  0  0  0999 V2000
   27.3456  -21.6490  -13.9934 N   0  0  0  0  0  0  0  0  0  0  0  0
   26.9841  -20.8328  -12.8777 C   0  0  0  0  0  0  0  0  0  0  0  0
   25.6781  -21.1699  -12.3032 C   0  0  0  0  0  0  0  0  0  0  0  0
   24.9331  -22.0345  -12.8259 O   0  0  0  0  0  0  0  0  0  0  0  0
   25.1739  -20.5324  -11.1101 N   0  0  0  0  0  0  0  0  0  0  0  0
   23.8736  -20.8319  -10.6031 C   0  0  1  0  0  0  0  0  0  0  0  0
   23.6306  -20.3401   -9.2269 C   0  0  0  0  0  0  0  0  0  0  0  0
   22.3088  -20.6177   -8.6218 C   0  0  0  0  0  0  0  0  0  0  0  0
   22.1567  -21.9566   -7.9702 C   0  0  0  0  0  0  0  0  0  0  0  0
   20.6818  -22.0636   -7.5387 C   0  0  0  0  0  0  0  0  0  0  0  0
   20.5580  -23.4089   -6.9846 N   0  0  0  0  0  0  0  0  0  0  0  0
   22.8556  -20.1185  -11.4745 C   0  0  0  0  0  0  0  0  0  0  0  0
   22.9291  -18.8818  -11.6021 O   0  0  0  0  0  0  0  0  0  0  0  0
   21.3618  -22.0358  -19.5885 N   0  0  0  0  0  0  0  0  0  0  0  0
   20.2184  -21.2781  -19.2227 C   0  0  0  0  0  0  0  0  0  0  0  0
   19.3821  -20.9674  -20.1444 N   0  0  0  0  0  0  0  0  0  0  0  0
   20.0064  -20.8805  -17.8961 N   0  0  0  0  0  0  0  0  0  0  0  0
   21.0234  -21.2191  -16.8825 C   0  0  0  0  0  0  0  0  0  0  0  0
   20.5478  -20.6735  -15.5934 C   0  0  0  0  0  0  0  0  0  0  0  0
   21.3147  -20.8515  -14.3611 C   0  0  0  0  0  0  0  0  0  0  0  0
   20.8822  -20.2693  -13.0592 C   0  0  2  0  0  0  0  0  0  0  0  0
   21.8744  -20.9084  -12.0971 N   0  0  0  0  0  0  0  0  0  0  0  0
   19.5967  -20.7480  -12.5527 C   0  0  0  0  0  0  0  0  0  0  0  0
   18.4218  -20.0325  -12.8759 O   0  0  0  0  0  0  0  0  0  0  0  0
   19.4075  -21.7452  -11.8455 O   0  0  0  0  0  0  0  0  0  0  0  0
  2  1  1  0
  3  4  2  0
  3  2  1  0
  5  3  1  0
  6  7  1  1
  6  5  1  0
  8  7  1  0
  9  8  1  0
 10  9  1  0
 11 10  1  0
 12 22  1  0
 12  6  1  0
 13 12  2  0
 15 14  1  0
 15 16  2  0
 17 15  1  0
 18 17  1  0
 19 20  1  0
 19 18  1  0
 21 22  1  0
 21 20  1  6
 23 24  1  0
 23 21  1  0
 25 23  2  0
M  END
$$$$
