GKR.pdb
     RDKit          3D

 25 24  0  0  1  0  0  0  0  0999 V2000
   27.8235  -26.6603  -15.6377 N   0  0  0  0  0  0  0  0  0  0  0  0
   26.9919  -25.9084  -16.5236 C   0  0  0  0  0  0  0  0  0  0  0  0
   26.6455  -24.5778  -16.0149 C   0  0  0  0  0  0  0  0  0  0  0  0
   26.1601  -24.4178  -14.8684 O   0  0  0  0  0  0  0  0  0  0  0  0
   26.8408  -23.3798  -16.7965 N   0  0  0  0  0  0  0  0  0  0  0  0
   26.5271  -22.0913  -16.2683 C   0  0  1  0  0  0  0  0  0  0  0  0
   27.1119  -20.9638  -17.0310 C   0  0  0  0  0  0  0  0  0  0  0  0
   26.8533  -19.5930  -16.5369 C   0  0  0  0  0  0  0  0  0  0  0  0
   27.5604  -18.4922  -17.2640 C   0  0  0  0  0  0  0  0  0  0  0  0
   27.1882  -17.1849  -16.5390 C   0  0  0  0  0  0  0  0  0  0  0  0
   27.9913  -16.1584  -17.1975 N   0  0  0  0  0  0  0  0  0  0  0  0
   25.0233  -21.9031  -16.3551 C   0  0  0  0  0  0  0  0  0  0  0  0
   24.4389  -22.1820  -17.4190 O   0  0  0  0  0  0  0  0  0  0  0  0
   19.3327  -24.8759  -10.9598 N   0  0  0  0  0  0  0  0  0  0  0  0
   19.2717  -24.9753  -12.3746 C   0  0  0  0  0  0  0  0  0  0  0  0
   18.7318  -26.0227  -12.8817 N   0  0  0  0  0  0  0  0  0  0  0  0
   19.7843  -23.9620  -13.1952 N   0  0  0  0  0  0  0  0  0  0  0  0
   20.5332  -22.8546  -12.5716 C   0  0  0  0  0  0  0  0  0  0  0  0
   20.9971  -21.9757  -13.6660 C   0  0  0  0  0  0  0  0  0  0  0  0
   22.3875  -21.9914  -14.1188 C   0  0  0  0  0  0  0  0  0  0  0  0
   22.8695  -21.1494  -15.2501 C   0  0  2  0  0  0  0  0  0  0  0  0
   24.3677  -21.4182  -15.2109 N   0  0  0  0  0  0  0  0  0  0  0  0
   22.8010  -19.7051  -15.0322 C   0  0  0  0  0  0  0  0  0  0  0  0
   21.5760  -19.0351  -15.2495 O   0  0  0  0  0  0  0  0  0  0  0  0
   23.7257  -18.9696  -14.6659 O   0  0  0  0  0  0  0  0  0  0  0  0
  2  1  1  0
  3  4  2  0
  3  2  1  0
  5  3  1  0
  6  7  1  6
  6  5  1  0
  8  7  1  0
  9  8  1  0
 10  9  1  0
 11 10  1  0
 12 22  1  0
 12  6  1  0
 13 12  2  0
 15 14  1  0
 15 16  2  0
 17 15  1  0
 18 17  1  0
 19 20  1  0
 19 18  1  0
 21 22  1  0
 21 20  1  1
 23 24  1  0
 23 21  1  0
 25 23  2  0
M  END
$$$$
