GKR.pdb
     RDKit          3D

 25 24  0  0  1  0  0  0  0  0999 V2000
   27.3930  -25.2560  -16.4040 N   0  0  0  0  0  0  0  0  0  0  0  0
   27.6409  -23.9795  -16.9963 C   0  0  0  0  0  0  0  0  0  0  0  0
   27.0571  -22.8624  -16.2476 C   0  0  0  0  0  0  0  0  0  0  0  0
   26.2408  -23.0522  -15.3131 O   0  0  0  0  0  0  0  0  0  0  0  0
   27.3839  -21.4865  -16.5378 N   0  0  0  0  0  0  0  0  0  0  0  0
   26.7907  -20.4139  -15.8063 C   0  0  1  0  0  0  0  0  0  0  0  0
   27.5445  -19.1405  -15.8776 C   0  0  0  0  0  0  0  0  0  0  0  0
   26.9831  -17.9694  -15.1679 C   0  0  0  0  0  0  0  0  0  0  0  0
   27.7309  -16.6837  -15.3356 C   0  0  0  0  0  0  0  0  0  0  0  0
   27.4004  -16.1715  -16.7504 C   0  0  0  0  0  0  0  0  0  0  0  0
   28.0707  -14.8772  -16.8382 N   0  0  0  0  0  0  0  0  0  0  0  0
   25.4360  -20.1185  -16.4244 C   0  0  0  0  0  0  0  0  0  0  0  0
   25.3616  -19.9167  -17.6511 O   0  0  0  0  0  0  0  0  0  0  0  0
   19.8240  -22.4093  -11.4445 N   0  0  0  0  0  0  0  0  0  0  0  0
   19.6970  -21.0184  -11.6987 C   0  0  0  0  0  0  0  0  0  0  0  0
   19.5252  -20.2365  -10.6964 N   0  0  0  0  0  0  0  0  0  0  0  0
   19.7573  -20.5116  -13.0035 N   0  0  0  0  0  0  0  0  0  0  0  0
   19.8762  -21.4590  -14.1281 C   0  0  0  0  0  0  0  0  0  0  0  0
   20.6585  -20.7813  -15.1837 C   0  0  0  0  0  0  0  0  0  0  0  0
   22.1123  -20.6534  -15.0916 C   0  0  0  0  0  0  0  0  0  0  0  0
   22.9219  -19.9634  -16.1354 C   0  0  2  0  0  0  0  0  0  0  0  0
   24.3268  -20.0906  -15.5622 N   0  0  0  0  0  0  0  0  0  0  0  0
   22.7421  -18.5144  -16.2143 C   0  0  0  0  0  0  0  0  0  0  0  0
   23.4265  -17.6865  -15.2962 O   0  0  0  0  0  0  0  0  0  0  0  0
   22.0328  -17.9018  -17.0218 O   0  0  0  0  0  0  0  0  0  0  0  0
  2  1  1  0
  3  4  2  0
  3  2  1  0
  5  3  1  0
  6  7  1  6
  6  5  1  0
  8  7  1  0
  9  8  1  0
 10  9  1  0
 11 10  1  0
 12 22  1  0
 12  6  1  0
 13 12  2  0
 15 14  1  0
 15 16  2  0
 17 15  1  0
 18 17  1  0
 19 20  1  0
 19 18  1  0
 21 22  1  0
 21 20  1  1
 23 24  1  0
 23 21  1  0
 25 23  2  0
M  END
$$$$
