GKR.pdb
     RDKit          3D

 25 24  0  0  1  0  0  0  0  0999 V2000
   26.3472  -18.2304  -20.1287 N   0  0  0  0  0  0  0  0  0  0  0  0
   26.3585  -18.2304  -18.6999 C   0  0  0  0  0  0  0  0  0  0  0  0
   25.5280  -19.2830  -18.1070 C   0  0  0  0  0  0  0  0  0  0  0  0
   24.3010  -19.3715  -18.3566 O   0  0  0  0  0  0  0  0  0  0  0  0
   26.0677  -20.2743  -17.2068 N   0  0  0  0  0  0  0  0  0  0  0  0
   25.2286  -21.2517  -16.5919 C   0  0  1  0  0  0  0  0  0  0  0  0
   25.9637  -22.3748  -15.9648 C   0  0  0  0  0  0  0  0  0  0  0  0
   26.7034  -23.2949  -16.8572 C   0  0  0  0  0  0  0  0  0  0  0  0
   27.6220  -24.2637  -16.1804 C   0  0  0  0  0  0  0  0  0  0  0  0
   28.3988  -24.9799  -17.3014 C   0  0  0  0  0  0  0  0  0  0  0  0
   29.3600  -25.8259  -16.5994 N   0  0  0  0  0  0  0  0  0  0  0  0
   24.4759  -20.5770  -15.4594 C   0  0  0  0  0  0  0  0  0  0  0  0
   25.0456  -19.6876  -14.7995 O   0  0  0  0  0  0  0  0  0  0  0  0
   19.9519  -16.0018  -17.6737 N   0  0  0  0  0  0  0  0  0  0  0  0
   18.9816  -16.3480  -16.6969 C   0  0  0  0  0  0  0  0  0  0  0  0
   17.7433  -16.2284  -17.0097 N   0  0  0  0  0  0  0  0  0  0  0  0
   19.3615  -16.8071  -15.4288 N   0  0  0  0  0  0  0  0  0  0  0  0
   20.7873  -16.7569  -15.0536 C   0  0  0  0  0  0  0  0  0  0  0  0
   21.0880  -18.0090  -14.3275 C   0  0  0  0  0  0  0  0  0  0  0  0
   22.0348  -18.9891  -14.8580 C   0  0  0  0  0  0  0  0  0  0  0  0
   22.3078  -20.2866  -14.1775 C   0  0  2  0  0  0  0  0  0  0  0  0
   23.1583  -21.0016  -15.2186 N   0  0  0  0  0  0  0  0  0  0  0  0
   21.1575  -21.1790  -14.0413 C   0  0  0  0  0  0  0  0  0  0  0  0
   20.3217  -21.0539  -12.9088 O   0  0  0  0  0  0  0  0  0  0  0  0
   20.8151  -22.0672  -14.8313 O   0  0  0  0  0  0  0  0  0  0  0  0
  2  1  1  0
  3  4  2  0
  3  2  1  0
  5  3  1  0
  6  7  1  1
  6  5  1  0
  8  7  1  0
  9  8  1  0
 10  9  1  0
 11 10  1  0
 12 22  1  0
 12  6  1  0
 13 12  2  0
 15 14  1  0
 15 16  2  0
 17 15  1  0
 18 17  1  0
 19 20  1  0
 19 18  1  0
 21 22  1  0
 21 20  1  6
 23 24  1  0
 23 21  1  0
 25 23  2  0
M  END
$$$$
