KIS.pdb
     RDKit          3D

 24 23  0  0  1  0  0  0  0  0999 V2000
   22.1849  -15.4333  -17.3468 N   0  0  0  0  0  0  0  0  0  0  0  0
   21.2604  -15.2311  -16.2484 C   0  0  1  0  0  0  0  0  0  0  0  0
   21.2567  -16.5122  -15.4364 C   0  0  0  0  0  0  0  0  0  0  0  0
   21.2189  -17.7572  -16.2516 C   0  0  0  0  0  0  0  0  0  0  0  0
   21.0035  -19.0026  -15.4241 C   0  0  0  0  0  0  0  0  0  0  0  0
   20.9789  -20.2494  -16.2807 C   0  0  0  0  0  0  0  0  0  0  0  0
   20.7927  -21.3919  -15.4251 N   0  0  0  0  0  0  0  0  0  0  0  0
   21.7806  -14.1497  -15.3884 C   0  0  0  0  0  0  0  0  0  0  0  0
   21.3342  -13.8939  -14.2446 O   0  0  0  0  0  0  0  0  0  0  0  0
   26.9810  -13.6012  -15.1148 C   0  0  0  0  0  0  0  0  0  0  0  0
   25.5036  -13.5015  -14.6949 C   0  0  0  0  0  0  0  0  0  0  0  0
   24.8603  -12.2928  -15.2964 C   0  0  2  0  0  0  0  0  0  0  0  0
   25.5912  -11.0183  -14.9694 C   0  0  0  0  0  0  0  0  0  0  0  0
   23.3783  -12.1999  -15.1502 C   0  0  2  0  0  0  0  0  0  0  0  0
   22.8447  -13.3580  -15.8868 N   0  0  0  0  0  0  0  0  0  0  0  0
   22.7532  -11.0086  -15.7508 C   0  0  0  0  0  0  0  0  0  0  0  0
   22.9280  -10.6943  -16.9805 O   0  0  0  0  0  0  0  0  0  0  0  0
   19.4018   -7.7474  -16.1962 O   0  0  0  0  0  0  0  0  0  0  0  0
   19.8340   -8.9239  -15.5983 C   0  0  0  0  0  0  0  0  0  0  0  0
   21.3576   -8.9138  -15.6805 C   0  0  2  0  0  0  0  0  0  0  0  0
   21.9117  -10.1162  -15.0333 N   0  0  0  0  0  0  0  0  0  0  0  0
   21.9129   -7.6997  -15.0477 C   0  0  0  0  0  0  0  0  0  0  0  0
   22.0311   -6.5599  -15.8296 O   0  0  0  0  0  0  0  0  0  0  0  0
   22.2818   -7.6409  -13.8497 O   0  0  0  0  0  0  0  0  0  0  0  0
  2  3  1  0
  2  1  1  6
  4  5  1  0
  4  3  1  0
  6  5  1  0
  7  6  1  0
  8  2  1  0
  9  8  2  0
 10 11  1  0
 11 12  1  0
 12 13  1  1
 12 14  1  0
 14 15  1  6
 15  8  1  0
 16 17  2  0
 16 14  1  0
 18 19  1  0
 20 19  1  1
 20 21  1  0
 21 16  1  0
 22 20  1  0
 23 22  1  0
 24 22  2  0
M  END
$$$$
