KIS.pdb
     RDKit          3D

 24 23  0  0  1  0  0  0  0  0999 V2000
   23.3587  -20.2892  -15.0695 N   0  0  0  0  0  0  0  0  0  0  0  0
   22.6004  -19.3239  -15.8409 C   0  0  1  0  0  0  0  0  0  0  0  0
   21.1338  -19.6467  -15.6282 C   0  0  0  0  0  0  0  0  0  0  0  0
   20.7147  -20.9768  -16.1491 C   0  0  0  0  0  0  0  0  0  0  0  0
   19.2171  -21.1750  -16.1354 C   0  0  0  0  0  0  0  0  0  0  0  0
   18.8289  -22.5592  -16.6065 C   0  0  0  0  0  0  0  0  0  0  0  0
   17.3927  -22.6538  -16.6230 N   0  0  0  0  0  0  0  0  0  0  0  0
   22.8538  -17.9778  -15.2901 C   0  0  0  0  0  0  0  0  0  0  0  0
   22.7079  -17.6818  -14.0801 O   0  0  0  0  0  0  0  0  0  0  0  0
   26.3799  -15.7621  -14.2189 C   0  0  0  0  0  0  0  0  0  0  0  0
   25.9960  -16.1662  -15.6536 C   0  0  0  0  0  0  0  0  0  0  0  0
   24.9232  -15.2722  -16.1888 C   0  0  2  0  0  0  0  0  0  0  0  0
   25.2843  -13.8133  -16.1079 C   0  0  0  0  0  0  0  0  0  0  0  0
   23.5327  -15.5812  -15.7442 C   0  0  2  0  0  0  0  0  0  0  0  0
   23.2865  -16.9655  -16.1820 N   0  0  0  0  0  0  0  0  0  0  0  0
   22.4722  -14.7627  -16.3573 C   0  0  0  0  0  0  0  0  0  0  0  0
   22.3281  -14.6743  -17.6273 O   0  0  0  0  0  0  0  0  0  0  0  0
   18.4615  -12.1094  -16.1005 O   0  0  0  0  0  0  0  0  0  0  0  0
   19.3646  -12.8620  -15.3613 C   0  0  0  0  0  0  0  0  0  0  0  0
   20.5496  -13.1382  -16.2820 C   0  0  2  0  0  0  0  0  0  0  0  0
   21.5272  -14.0111  -15.6081 N   0  0  0  0  0  0  0  0  0  0  0  0
   21.2009  -11.8787  -16.6973 C   0  0  0  0  0  0  0  0  0  0  0  0
   20.7695  -11.2859  -17.8749 O   0  0  0  0  0  0  0  0  0  0  0  0
   22.1172  -11.3175  -16.0490 O   0  0  0  0  0  0  0  0  0  0  0  0
  2  3  1  0
  2  1  1  1
  4  5  1  0
  4  3  1  0
  6  5  1  0
  7  6  1  0
  8  2  1  0
  9  8  2  0
 10 11  1  0
 11 12  1  0
 12 13  1  1
 12 14  1  0
 14 15  1  6
 15  8  1  0
 16 17  2  0
 16 14  1  0
 18 19  1  0
 20 19  1  1
 20 21  1  0
 21 16  1  0
 22 20  1  0
 23 22  1  0
 24 22  2  0
M  END
$$$$
