KIS.pdb
     RDKit          3D

 24 23  0  0  1  0  0  0  0  0999 V2000
   21.6755  -14.8687  -16.7805 N   0  0  0  0  0  0  0  0  0  0  0  0
   22.1787  -13.7279  -17.5205 C   0  0  1  0  0  0  0  0  0  0  0  0
   21.0749  -13.2975  -18.4675 C   0  0  0  0  0  0  0  0  0  0  0  0
   20.7684  -14.2806  -19.5425 C   0  0  0  0  0  0  0  0  0  0  0  0
   21.8435  -15.3282  -19.7132 C   0  0  0  0  0  0  0  0  0  0  0  0
   21.5293  -16.2762  -20.8497 C   0  0  0  0  0  0  0  0  0  0  0  0
   22.7672  -16.7791  -21.3850 N   0  0  0  0  0  0  0  0  0  0  0  0
   22.4211  -12.6221  -16.5729 C   0  0  0  0  0  0  0  0  0  0  0  0
   21.8024  -12.4843  -15.4905 O   0  0  0  0  0  0  0  0  0  0  0  0
   27.3682  -11.7460  -15.3822 C   0  0  0  0  0  0  0  0  0  0  0  0
   25.8307  -11.8122  -15.3550 C   0  0  0  0  0  0  0  0  0  0  0  0
   25.2346  -10.5587  -15.9119 C   0  0  2  0  0  0  0  0  0  0  0  0
   25.8245   -9.3128  -15.3074 C   0  0  0  0  0  0  0  0  0  0  0  0
   23.7469  -10.5360  -16.0240 C   0  0  2  0  0  0  0  0  0  0  0  0
   23.4095  -11.6640  -16.9084 N   0  0  0  0  0  0  0  0  0  0  0  0
   23.1749   -9.3343  -16.6560 C   0  0  0  0  0  0  0  0  0  0  0  0
   23.5794   -8.9045  -17.7932 O   0  0  0  0  0  0  0  0  0  0  0  0
   19.5256   -8.3406  -16.9001 O   0  0  0  0  0  0  0  0  0  0  0  0
   20.1413   -7.1735  -16.4671 C   0  0  0  0  0  0  0  0  0  0  0  0
   21.6321   -7.3460  -16.7423 C   0  0  2  0  0  0  0  0  0  0  0  0
   22.1382   -8.5572  -16.0724 N   0  0  0  0  0  0  0  0  0  0  0  0
   22.3934   -6.1639  -16.2886 C   0  0  0  0  0  0  0  0  0  0  0  0
   22.1230   -4.9478  -16.8989 O   0  0  0  0  0  0  0  0  0  0  0  0
   23.2662   -6.1968  -15.3874 O   0  0  0  0  0  0  0  0  0  0  0  0
  2  3  1  0
  2  1  1  1
  4  5  1  0
  4  3  1  0
  6  5  1  0
  7  6  1  0
  8  2  1  0
  9  8  2  0
 10 11  1  0
 11 12  1  0
 12 13  1  1
 12 14  1  0
 14 15  1  6
 15  8  1  0
 16 17  2  0
 16 14  1  0
 18 19  1  0
 20 19  1  1
 20 21  1  0
 21 16  1  0
 22 20  1  0
 23 22  1  0
 24 22  2  0
M  END
$$$$
