KIS.pdb
     RDKit          3D

 24 23  0  0  1  0  0  0  0  0999 V2000
   22.6276  -17.0981  -16.9178 N   0  0  0  0  0  0  0  0  0  0  0  0
   23.0181  -17.0724  -15.5217 C   0  0  1  0  0  0  0  0  0  0  0  0
   22.8328  -18.4800  -14.9881 C   0  0  0  0  0  0  0  0  0  0  0  0
   21.4479  -19.0102  -15.1189 C   0  0  0  0  0  0  0  0  0  0  0  0
   21.2641  -20.3591  -14.4639 C   0  0  0  0  0  0  0  0  0  0  0  0
   19.8693  -20.9036  -14.6803 C   0  0  0  0  0  0  0  0  0  0  0  0
   19.7860  -22.2081  -14.0774 N   0  0  0  0  0  0  0  0  0  0  0  0
   24.4546  -16.7414  -15.4409 C   0  0  0  0  0  0  0  0  0  0  0  0
   25.1001  -16.6991  -14.3663 O   0  0  0  0  0  0  0  0  0  0  0  0
   26.6224  -19.4665  -18.2316 C   0  0  0  0  0  0  0  0  0  0  0  0
   27.2587  -18.5190  -17.1989 C   0  0  0  0  0  0  0  0  0  0  0  0
   27.1691  -17.0976  -17.6555 C   0  0  2  0  0  0  0  0  0  0  0  0
   28.4366  -16.6122  -18.3061 C   0  0  0  0  0  0  0  0  0  0  0  0
   26.5764  -16.1345  -16.6822 C   0  0  2  0  0  0  0  0  0  0  0  0
   25.1397  -16.4559  -16.6478 N   0  0  0  0  0  0  0  0  0  0  0  0
   26.6695  -14.7128  -17.0571 C   0  0  0  0  0  0  0  0  0  0  0  0
   26.1067  -14.2475  -18.1099 O   0  0  0  0  0  0  0  0  0  0  0  0
   28.3351  -10.2302  -16.2759 O   0  0  0  0  0  0  0  0  0  0  0  0
   28.2747  -11.5164  -15.7560 C   0  0  0  0  0  0  0  0  0  0  0  0
   27.5295  -12.3618  -16.7847 C   0  0  2  0  0  0  0  0  0  0  0  0
   27.3784  -13.7441  -16.2966 N   0  0  0  0  0  0  0  0  0  0  0  0
   28.2364  -12.3599  -18.0820 C   0  0  0  0  0  0  0  0  0  0  0  0
   29.4264  -13.0675  -18.1706 O   0  0  0  0  0  0  0  0  0  0  0  0
   27.8241  -11.7581  -19.1032 O   0  0  0  0  0  0  0  0  0  0  0  0
  2  3  1  0
  2  1  1  6
  4  5  1  0
  4  3  1  0
  6  5  1  0
  7  6  1  0
  8  2  1  0
  9  8  2  0
 10 11  1  0
 11 12  1  0
 12 13  1  1
 12 14  1  0
 14 15  1  6
 15  8  1  0
 16 17  2  0
 16 14  1  0
 18 19  1  0
 20 19  1  1
 20 21  1  0
 21 16  1  0
 22 20  1  0
 23 22  1  0
 24 22  2  0
M  END
$$$$
