KIS.pdb
     RDKit          3D

 24 23  0  0  1  0  0  0  0  0999 V2000
   21.6555  -13.6656  -16.6124 N   0  0  0  0  0  0  0  0  0  0  0  0
   21.6976  -13.0543  -17.9263 C   0  0  1  0  0  0  0  0  0  0  0  0
   21.1957  -14.0936  -18.9103 C   0  0  0  0  0  0  0  0  0  0  0  0
   21.2423  -15.4929  -18.4043 C   0  0  0  0  0  0  0  0  0  0  0  0
   20.6590  -16.4945  -19.3734 C   0  0  0  0  0  0  0  0  0  0  0  0
   20.6213  -17.8883  -18.7863 C   0  0  0  0  0  0  0  0  0  0  0  0
   20.0333  -18.7787  -19.7524 N   0  0  0  0  0  0  0  0  0  0  0  0
   20.7561  -11.9173  -17.9468 C   0  0  0  0  0  0  0  0  0  0  0  0
   20.5803  -11.1765  -18.9436 O   0  0  0  0  0  0  0  0  0  0  0  0
   16.4397  -13.0503  -16.7717 C   0  0  0  0  0  0  0  0  0  0  0  0
   16.9527  -11.6754  -17.2360 C   0  0  0  0  0  0  0  0  0  0  0  0
   17.8112  -11.0458  -16.1855 C   0  0  2  0  0  0  0  0  0  0  0  0
   17.0412  -10.1272  -15.2752 C   0  0  0  0  0  0  0  0  0  0  0  0
   19.1139  -10.4886  -16.6534 C   0  0  2  0  0  0  0  0  0  0  0  0
   20.0103  -11.6509  -16.7719 N   0  0  0  0  0  0  0  0  0  0  0  0
   19.7753   -9.5536  -15.7267 C   0  0  0  0  0  0  0  0  0  0  0  0
   20.6416   -9.9446  -14.8674 O   0  0  0  0  0  0  0  0  0  0  0  0
   22.5892   -6.4848  -14.6827 O   0  0  0  0  0  0  0  0  0  0  0  0
   21.8433   -7.4023  -15.4110 C   0  0  0  0  0  0  0  0  0  0  0  0
   20.3962   -7.2381  -14.9560 C   0  0  2  0  0  0  0  0  0  0  0  0
   19.5187   -8.1562  -15.7036 N   0  0  0  0  0  0  0  0  0  0  0  0
   19.9398   -5.8448  -15.1381 C   0  0  0  0  0  0  0  0  0  0  0  0
   20.0365   -4.9860  -14.0530 O   0  0  0  0  0  0  0  0  0  0  0  0
   19.4722   -5.3960  -16.2128 O   0  0  0  0  0  0  0  0  0  0  0  0
  2  3  1  0
  2  1  1  1
  4  5  1  0
  4  3  1  0
  6  5  1  0
  7  6  1  0
  8  2  1  0
  9  8  2  0
 10 11  1  0
 11 12  1  0
 12 13  1  6
 12 14  1  0
 14 15  1  1
 15  8  1  0
 16 17  2  0
 16 14  1  0
 18 19  1  0
 20 19  1  6
 20 21  1  0
 21 16  1  0
 22 20  1  0
 23 22  1  0
 24 22  2  0
M  END
$$$$
