KIS.pdb
     RDKit          3D

 24 23  0  0  1  0  0  0  0  0999 V2000
   29.6289  -24.2299  -16.4128 N   0  0  0  0  0  0  0  0  0  0  0  0
   28.4750  -23.6696  -17.0885 C   0  0  1  0  0  0  0  0  0  0  0  0
   27.5700  -24.8322  -17.4488 C   0  0  0  0  0  0  0  0  0  0  0  0
   28.2427  -25.9242  -18.2044 C   0  0  0  0  0  0  0  0  0  0  0  0
   28.1894  -27.2572  -17.4952 C   0  0  0  0  0  0  0  0  0  0  0  0
   28.8259  -28.3567  -18.3166 C   0  0  0  0  0  0  0  0  0  0  0  0
   28.7687  -29.5836  -17.5660 N   0  0  0  0  0  0  0  0  0  0  0  0
   27.7474  -22.8049  -16.1386 C   0  0  0  0  0  0  0  0  0  0  0  0
   27.9333  -22.8220  -14.8983 O   0  0  0  0  0  0  0  0  0  0  0  0
   28.6575  -18.1114  -16.8978 C   0  0  0  0  0  0  0  0  0  0  0  0
   28.1991  -19.4357  -16.2614 C   0  0  0  0  0  0  0  0  0  0  0  0
   26.7118  -19.5745  -16.3358 C   0  0  2  0  0  0  0  0  0  0  0  0
   25.9856  -18.3540  -15.8374 C   0  0  0  0  0  0  0  0  0  0  0  0
   26.1498  -20.8637  -15.8372 C   0  0  2  0  0  0  0  0  0  0  0  0
   26.7852  -21.9057  -16.6613 N   0  0  0  0  0  0  0  0  0  0  0  0
   24.6967  -21.0335  -16.0105 C   0  0  0  0  0  0  0  0  0  0  0  0
   24.1456  -21.0492  -17.1671 O   0  0  0  0  0  0  0  0  0  0  0  0
   22.0340  -21.1965  -12.8471 O   0  0  0  0  0  0  0  0  0  0  0  0
   21.6326  -21.8996  -13.9754 C   0  0  0  0  0  0  0  0  0  0  0  0
   22.3354  -21.2467  -15.1619 C   0  0  2  0  0  0  0  0  0  0  0  0
   23.7896  -21.1949  -14.9286 N   0  0  0  0  0  0  0  0  0  0  0  0
   21.8145  -19.8849  -15.4006 C   0  0  0  0  0  0  0  0  0  0  0  0
   20.6411  -19.7604  -16.1299 O   0  0  0  0  0  0  0  0  0  0  0  0
   22.3700  -18.8398  -14.9834 O   0  0  0  0  0  0  0  0  0  0  0  0
  2  3  1  0
  2  1  1  1
  4  5  1  0
  4  3  1  0
  6  5  1  0
  7  6  1  0
  8  2  1  0
  9  8  2  0
 10 11  1  0
 11 12  1  0
 12 13  1  1
 12 14  1  0
 14 15  1  6
 15  8  1  0
 16 17  2  0
 16 14  1  0
 18 19  1  0
 20 19  1  1
 20 21  1  0
 21 16  1  0
 22 20  1  0
 23 22  1  0
 24 22  2  0
M  END
$$$$
