KIS.pdb
     RDKit          3D

 24 23  0  0  1  0  0  0  0  0999 V2000
   26.2440  -19.1179  -15.9664 N   0  0  0  0  0  0  0  0  0  0  0  0
   26.9621  -20.3487  -16.2338 C   0  0  1  0  0  0  0  0  0  0  0  0
   28.4303  -20.0640  -15.9813 C   0  0  0  0  0  0  0  0  0  0  0  0
   28.9213  -18.7909  -16.5764 C   0  0  0  0  0  0  0  0  0  0  0  0
   29.7196  -18.9962  -17.8426 C   0  0  0  0  0  0  0  0  0  0  0  0
   30.2542  -17.6902  -18.3880 C   0  0  0  0  0  0  0  0  0  0  0  0
   29.1810  -16.9933  -19.0473 N   0  0  0  0  0  0  0  0  0  0  0  0
   26.5238  -21.3700  -15.2621 C   0  0  0  0  0  0  0  0  0  0  0  0
   27.1749  -22.4105  -15.0039 O   0  0  0  0  0  0  0  0  0  0  0  0
   24.5510  -20.0106  -10.4201 C   0  0  0  0  0  0  0  0  0  0  0  0
   24.4394  -20.2850  -11.9305 C   0  0  0  0  0  0  0  0  0  0  0  0
   25.0715  -21.5943  -12.2810 C   0  0  2  0  0  0  0  0  0  0  0  0
   26.5354  -21.6475  -11.9351 C   0  0  0  0  0  0  0  0  0  0  0  0
   24.7447  -22.1371  -13.6319 C   0  0  2  0  0  0  0  0  0  0  0  0
   25.2974  -21.1595  -14.5845 N   0  0  0  0  0  0  0  0  0  0  0  0
   23.3088  -22.2462  -13.9433 C   0  0  0  0  0  0  0  0  0  0  0  0
   22.6814  -21.3369  -14.5923 O   0  0  0  0  0  0  0  0  0  0  0  0
   19.1396  -24.6949  -13.9458 O   0  0  0  0  0  0  0  0  0  0  0  0
   20.4934  -24.7706  -13.6457 C   0  0  0  0  0  0  0  0  0  0  0  0
   21.0553  -23.3647  -13.8347 C   0  0  2  0  0  0  0  0  0  0  0  0
   22.5032  -23.3524  -13.5604 N   0  0  0  0  0  0  0  0  0  0  0  0
   20.3674  -22.3979  -12.9544 C   0  0  0  0  0  0  0  0  0  0  0  0
   19.1803  -21.8419  -13.4081 O   0  0  0  0  0  0  0  0  0  0  0  0
   20.7935  -22.0528  -11.8256 O   0  0  0  0  0  0  0  0  0  0  0  0
  2  3  1  0
  2  1  1  1
  4  5  1  0
  4  3  1  0
  6  5  1  0
  7  6  1  0
  8  2  1  0
  9  8  2  0
 10 11  1  0
 11 12  1  0
 12 13  1  6
 12 14  1  0
 14 15  1  6
 15  8  1  0
 16 17  2  0
 16 14  1  0
 18 19  1  0
 20 19  1  1
 20 21  1  0
 21 16  1  0
 22 20  1  0
 23 22  1  0
 24 22  2  0
M  END
$$$$
