KIS.pdb
     RDKit          3D

 24 23  0  0  1  0  0  0  0  0999 V2000
   28.0826  -18.0317  -16.7838 N   0  0  0  0  0  0  0  0  0  0  0  0
   27.6416  -17.8210  -15.4188 C   0  0  1  0  0  0  0  0  0  0  0  0
   26.6744  -16.6530  -15.4454 C   0  0  0  0  0  0  0  0  0  0  0  0
   26.7943  -15.7821  -16.6467 C   0  0  0  0  0  0  0  0  0  0  0  0
   25.4977  -15.6404  -17.4092 C   0  0  0  0  0  0  0  0  0  0  0  0
   25.5893  -14.5766  -18.4809 C   0  0  0  0  0  0  0  0  0  0  0  0
   24.3014  -14.4454  -19.1102 N   0  0  0  0  0  0  0  0  0  0  0  0
   26.8981  -19.0166  -14.9747 C   0  0  0  0  0  0  0  0  0  0  0  0
   26.4371  -19.8808  -15.7581 O   0  0  0  0  0  0  0  0  0  0  0  0
   29.1399  -21.0793  -10.7246 C   0  0  0  0  0  0  0  0  0  0  0  0
   28.3821  -20.9427  -12.0573 C   0  0  0  0  0  0  0  0  0  0  0  0
   26.9200  -20.7376  -11.8189 C   0  0  2  0  0  0  0  0  0  0  0  0
   26.3199  -21.7917  -10.9278 C   0  0  0  0  0  0  0  0  0  0  0  0
   26.0995  -20.4191  -13.0238 C   0  0  2  0  0  0  0  0  0  0  0  0
   26.6957  -19.1946  -13.5837 N   0  0  0  0  0  0  0  0  0  0  0  0
   24.6839  -20.1042  -12.7643 C   0  0  0  0  0  0  0  0  0  0  0  0
   24.3230  -19.3171  -11.8200 O   0  0  0  0  0  0  0  0  0  0  0  0
   21.8759  -20.6777  -15.5285 O   0  0  0  0  0  0  0  0  0  0  0  0
   21.5583  -19.7401  -14.5545 C   0  0  0  0  0  0  0  0  0  0  0  0
   22.2187  -20.2188  -13.2650 C   0  0  2  0  0  0  0  0  0  0  0  0
   23.6082  -20.6343  -13.5267 N   0  0  0  0  0  0  0  0  0  0  0  0
   21.4619  -21.3385  -12.6678 C   0  0  0  0  0  0  0  0  0  0  0  0
   20.1557  -21.0957  -12.2690 O   0  0  0  0  0  0  0  0  0  0  0  0
   21.9309  -22.4906  -12.5017 O   0  0  0  0  0  0  0  0  0  0  0  0
  2  3  1  0
  2  1  1  6
  4  5  1  0
  4  3  1  0
  6  5  1  0
  7  6  1  0
  8  2  1  0
  9  8  2  0
 10 11  1  0
 11 12  1  0
 12 13  1  6
 12 14  1  0
 14 15  1  1
 15  8  1  0
 16 17  2  0
 16 14  1  0
 18 19  1  0
 20 19  1  6
 20 21  1  0
 21 16  1  0
 22 20  1  0
 23 22  1  0
 24 22  2  0
M  END
$$$$
