KIS.pdb
     RDKit          3D

 24 23  0  0  1  0  0  0  0  0999 V2000
   22.2983  -19.5296  -17.8562 N   0  0  0  0  0  0  0  0  0  0  0  0
   23.1761  -18.8111  -16.9532 C   0  0  1  0  0  0  0  0  0  0  0  0
   22.3003  -17.8772  -16.1402 C   0  0  0  0  0  0  0  0  0  0  0  0
   20.9847  -17.5682  -16.7646 C   0  0  0  0  0  0  0  0  0  0  0  0
   19.8854  -18.5090  -16.3298 C   0  0  0  0  0  0  0  0  0  0  0  0
   18.5556  -18.1458  -16.9531 C   0  0  0  0  0  0  0  0  0  0  0  0
   17.6114  -19.1937  -16.6660 N   0  0  0  0  0  0  0  0  0  0  0  0
   23.7914  -19.7801  -16.0248 C   0  0  0  0  0  0  0  0  0  0  0  0
   23.2627  -20.8721  -15.7067 O   0  0  0  0  0  0  0  0  0  0  0  0
   28.9803  -20.6828  -16.7226 C   0  0  0  0  0  0  0  0  0  0  0  0
   27.4802  -20.7936  -16.3962 C   0  0  0  0  0  0  0  0  0  0  0  0
   27.2001  -20.3045  -15.0109 C   0  0  2  0  0  0  0  0  0  0  0  0
   28.1837  -20.8251  -13.9975 C   0  0  0  0  0  0  0  0  0  0  0  0
   25.7766  -20.3725  -14.5690 C   0  0  2  0  0  0  0  0  0  0  0  0
   25.0508  -19.4547  -15.4631 N   0  0  0  0  0  0  0  0  0  0  0  0
   25.5130  -19.9027  -13.1978 C   0  0  0  0  0  0  0  0  0  0  0  0
   25.8592  -18.7353  -12.7992 O   0  0  0  0  0  0  0  0  0  0  0  0
   22.6440  -21.1971  -10.8312 O   0  0  0  0  0  0  0  0  0  0  0  0
   23.3044  -20.0496  -10.4121 C   0  0  0  0  0  0  0  0  0  0  0  0
   24.7659  -20.2230  -10.8144 C   0  0  2  0  0  0  0  0  0  0  0  0
   24.8597  -20.6878  -12.2098 N   0  0  0  0  0  0  0  0  0  0  0  0
   25.4510  -21.1773   -9.9184 C   0  0  0  0  0  0  0  0  0  0  0  0
   25.9810  -22.3280  -10.4835 O   0  0  0  0  0  0  0  0  0  0  0  0
   25.5801  -21.0074   -8.6817 O   0  0  0  0  0  0  0  0  0  0  0  0
  2  3  1  0
  2  1  1  6
  4  5  1  0
  4  3  1  0
  6  5  1  0
  7  6  1  0
  8  2  1  0
  9  8  2  0
 10 11  1  0
 11 12  1  0
 12 13  1  1
 12 14  1  0
 14 15  1  6
 15  8  1  0
 16 17  2  0
 16 14  1  0
 18 19  1  0
 20 19  1  1
 20 21  1  0
 21 16  1  0
 22 20  1  0
 23 22  1  0
 24 22  2  0
M  END
$$$$
