KIS.pdb
     RDKit          3D

 24 23  0  0  1  0  0  0  0  0999 V2000
   17.4123  -11.1766  -14.5940 N   0  0  0  0  0  0  0  0  0  0  0  0
   16.9758   -9.8059  -14.4134 C   0  0  1  0  0  0  0  0  0  0  0  0
   15.4621   -9.8357  -14.3221 C   0  0  0  0  0  0  0  0  0  0  0  0
   14.7784  -10.2556  -15.5759 C   0  0  0  0  0  0  0  0  0  0  0  0
   13.2719  -10.2468  -15.4624 C   0  0  0  0  0  0  0  0  0  0  0  0
   12.6075  -10.6215  -16.7690 C   0  0  0  0  0  0  0  0  0  0  0  0
   11.1801  -10.5620  -16.5929 N   0  0  0  0  0  0  0  0  0  0  0  0
   17.4990   -9.3113  -13.1245 C   0  0  0  0  0  0  0  0  0  0  0  0
   17.5309   -9.9989  -12.0759 O   0  0  0  0  0  0  0  0  0  0  0  0
   22.1619   -7.1206  -13.2015 C   0  0  0  0  0  0  0  0  0  0  0  0
   20.8715   -7.8289  -12.7518 C   0  0  0  0  0  0  0  0  0  0  0  0
   19.8739   -6.8403  -12.2378 C   0  0  2  0  0  0  0  0  0  0  0  0
   20.4626   -5.8830  -11.2366 C   0  0  0  0  0  0  0  0  0  0  0  0
   18.5470   -7.3963  -11.8418 C   0  0  2  0  0  0  0  0  0  0  0  0
   17.9922   -7.9841  -13.0727 N   0  0  0  0  0  0  0  0  0  0  0  0
   17.5571   -6.4094  -11.3765 C   0  0  0  0  0  0  0  0  0  0  0  0
   16.9981   -5.5769  -12.1741 O   0  0  0  0  0  0  0  0  0  0  0  0
   14.7863   -4.5506   -7.8656 O   0  0  0  0  0  0  0  0  0  0  0  0
   15.5968   -5.6187   -8.2272 C   0  0  0  0  0  0  0  0  0  0  0  0
   16.1113   -5.3126   -9.6306 C   0  0  2  0  0  0  0  0  0  0  0  0
   17.1375   -6.2947  -10.0237 N   0  0  0  0  0  0  0  0  0  0  0  0
   16.6678   -3.9459   -9.7030 C   0  0  0  0  0  0  0  0  0  0  0  0
   15.7763   -2.8913   -9.8347 O   0  0  0  0  0  0  0  0  0  0  0  0
   17.8945   -3.6859   -9.6525 O   0  0  0  0  0  0  0  0  0  0  0  0
  2  3  1  0
  2  1  1  1
  4  5  1  0
  4  3  1  0
  6  5  1  0
  7  6  1  0
  8  2  1  0
  9  8  2  0
 10 11  1  0
 11 12  1  0
 12 13  1  1
 12 14  1  0
 14 15  1  6
 15  8  1  0
 16 17  2  0
 16 14  1  0
 18 19  1  0
 20 19  1  1
 20 21  1  0
 21 16  1  0
 22 20  1  0
 23 22  1  0
 24 22  2  0
M  END
$$$$
