IQD.pdb
     RDKit          3D

 26 25  0  0  1  0  0  0  0  0999 V2000
    6.7586  -11.7154   28.1434 C   0  0  0  0  0  0  0  0  0  0  0  0
    6.0249  -12.5166   27.1045 C   0  0  0  0  0  0  0  0  0  0  0  0
    6.9159  -13.2620   26.1817 C   0  0  2  0  0  0  0  0  0  0  0  0
    7.9061  -12.2726   25.6014 C   0  0  0  0  0  0  0  0  0  0  0  0
    6.2768  -14.0999   25.1387 C   0  0  2  0  0  0  0  0  0  0  0  0
    5.5001  -15.1245   25.8874 N   0  0  0  0  0  0  0  0  0  0  0  0
    7.1578  -14.8524   24.2493 C   0  0  0  0  0  0  0  0  0  0  0  0
    7.4380  -16.0793   24.4757 O   0  0  0  0  0  0  0  0  0  0  0  0
    6.8564  -16.2879   18.8137 N   0  0  0  0  0  0  0  0  0  0  0  0
    7.4244  -14.9940   18.9016 C   0  0  0  0  0  0  0  0  0  0  0  0
    7.9569  -14.5046   17.8781 O   0  0  0  0  0  0  0  0  0  0  0  0
    7.4037  -14.2018   20.1813 C   0  0  0  0  0  0  0  0  0  0  0  0
    8.7151  -14.3508   20.9087 C   0  0  0  0  0  0  0  0  0  0  0  0
    8.5928  -15.1218   22.2132 C   0  0  2  0  0  0  0  0  0  0  0  0
    7.7557  -14.3089   23.0919 N   0  0  0  0  0  0  0  0  0  0  0  0
    9.8417  -15.4699   22.8417 C   0  0  0  0  0  0  0  0  0  0  0  0
   10.7288  -14.5659   22.9493 O   0  0  0  0  0  0  0  0  0  0  0  0
   10.1565  -16.7550   23.3539 N   0  0  0  0  0  0  0  0  0  0  0  0
   11.5283  -17.2686   23.2961 C   0  0  1  0  0  0  0  0  0  0  0  0
   11.8396  -17.9470   22.0032 C   0  0  0  0  0  0  0  0  0  0  0  0
   10.9544  -19.0913   21.7152 C   0  0  0  0  0  0  0  0  0  0  0  0
   10.6530  -19.9218   22.5884 O   0  0  0  0  0  0  0  0  0  0  0  0
   12.4737  -16.1577   23.5915 C   0  0  0  0  0  0  0  0  0  0  0  0
   13.7366  -16.3761   24.1250 O   0  0  0  0  0  0  0  0  0  0  0  0
   10.4535  -19.2292   20.4295 O   0  0  0  0  0  0  0  0  0  0  0  0
   12.1410  -14.9679   23.3585 O   0  0  0  0  0  0  0  0  0  0  0  0
  1  2  1  0
  2  3  1  0
  3  5  1  0
  3  4  1  6
  5  7  1  0
  5  6  1  1
  7  8  2  0
  9 10  1  0
 10 12  1  0
 10 11  2  0
 12 13  1  0
 14 13  1  6
 15 14  1  0
 15  7  1  0
 16 17  2  0
 16 14  1  0
 18 16  1  0
 19 18  1  0
 19 23  1  0
 19 20  1  6
 21 20  1  0
 22 21  2  0
 23 24  1  0
 25 21  1  0
 26 23  2  0
M  END
$$$$
