IQD.pdb
     RDKit          3D

 26 25  0  0  1  0  0  0  0  0999 V2000
    6.8529  -11.4530   27.9162 C   0  0  0  0  0  0  0  0  0  0  0  0
    6.1122  -12.5312   27.1756 C   0  0  0  0  0  0  0  0  0  0  0  0
    6.9351  -13.2378   26.1633 C   0  0  2  0  0  0  0  0  0  0  0  0
    7.5564  -12.1885   25.2639 C   0  0  0  0  0  0  0  0  0  0  0  0
    6.2897  -14.3299   25.3958 C   0  0  2  0  0  0  0  0  0  0  0  0
    6.0124  -15.3952   26.3968 N   0  0  0  0  0  0  0  0  0  0  0  0
    7.0810  -14.9743   24.3507 C   0  0  0  0  0  0  0  0  0  0  0  0
    7.7504  -16.0380   24.5865 O   0  0  0  0  0  0  0  0  0  0  0  0
    7.3922  -13.1150   18.2921 N   0  0  0  0  0  0  0  0  0  0  0  0
    8.3113  -14.1916   18.3188 C   0  0  0  0  0  0  0  0  0  0  0  0
    8.8963  -14.5042   17.2553 O   0  0  0  0  0  0  0  0  0  0  0  0
    8.5987  -14.9606   19.5804 C   0  0  0  0  0  0  0  0  0  0  0  0
    7.7536  -14.4389   20.7137 C   0  0  0  0  0  0  0  0  0  0  0  0
    7.9791  -15.1814   22.0209 C   0  0  2  0  0  0  0  0  0  0  0  0
    7.1695  -14.4965   23.0254 N   0  0  0  0  0  0  0  0  0  0  0  0
    9.3545  -15.2955   22.4345 C   0  0  0  0  0  0  0  0  0  0  0  0
    9.9020  -14.2833   22.9742 O   0  0  0  0  0  0  0  0  0  0  0  0
   10.1481  -16.4620   22.2842 N   0  0  0  0  0  0  0  0  0  0  0  0
   11.5393  -16.4856   22.7456 C   0  0  1  0  0  0  0  0  0  0  0  0
   11.7553  -17.4205   23.8893 C   0  0  0  0  0  0  0  0  0  0  0  0
   13.1728  -17.5557   24.2745 C   0  0  0  0  0  0  0  0  0  0  0  0
   14.0628  -16.8675   23.7478 O   0  0  0  0  0  0  0  0  0  0  0  0
   12.4268  -16.7931   21.5911 C   0  0  0  0  0  0  0  0  0  0  0  0
   12.2666  -17.9297   20.8102 O   0  0  0  0  0  0  0  0  0  0  0  0
   13.5040  -18.4809   25.2529 O   0  0  0  0  0  0  0  0  0  0  0  0
   13.3641  -16.0110   21.2905 O   0  0  0  0  0  0  0  0  0  0  0  0
  1  2  1  0
  2  3  1  0
  3  5  1  0
  3  4  1  6
  5  7  1  0
  5  6  1  1
  7  8  2  0
  9 10  1  0
 10 12  1  0
 10 11  2  0
 12 13  1  0
 14 13  1  6
 15 14  1  0
 15  7  1  0
 16 17  2  0
 16 14  1  0
 18 16  1  0
 19 18  1  0
 19 23  1  0
 19 20  1  1
 21 20  1  0
 22 21  2  0
 23 24  1  0
 25 21  1  0
 26 23  2  0
M  END
$$$$
