IQD.pdb
     RDKit          3D

 26 25  0  0  1  0  0  0  0  0999 V2000
    6.7942  -11.9131   28.1268 C   0  0  0  0  0  0  0  0  0  0  0  0
    6.0569  -12.9333   27.3051 C   0  0  0  0  0  0  0  0  0  0  0  0
    6.8857  -13.5667   26.2501 C   0  0  2  0  0  0  0  0  0  0  0  0
    7.6112  -12.4606   25.5110 C   0  0  0  0  0  0  0  0  0  0  0  0
    6.2159  -14.5167   25.3297 C   0  0  2  0  0  0  0  0  0  0  0  0
    5.7529  -15.6341   26.1963 N   0  0  0  0  0  0  0  0  0  0  0  0
    7.0368  -15.1409   24.2953 C   0  0  0  0  0  0  0  0  0  0  0  0
    7.3638  -16.3752   24.3631 O   0  0  0  0  0  0  0  0  0  0  0  0
    7.1784  -13.4029   18.1649 N   0  0  0  0  0  0  0  0  0  0  0  0
    8.4432  -13.9866   18.4181 C   0  0  0  0  0  0  0  0  0  0  0  0
    9.3811  -13.7490   17.6214 O   0  0  0  0  0  0  0  0  0  0  0  0
    8.6846  -14.8757   19.6084 C   0  0  0  0  0  0  0  0  0  0  0  0
    8.0441  -14.2864   20.8386 C   0  0  0  0  0  0  0  0  0  0  0  0
    8.1861  -15.1677   22.0691 C   0  0  2  0  0  0  0  0  0  0  0  0
    7.5226  -14.4577   23.1596 N   0  0  0  0  0  0  0  0  0  0  0  0
    9.5374  -15.5290   22.4147 C   0  0  0  0  0  0  0  0  0  0  0  0
   10.1693  -14.7768   23.2212 O   0  0  0  0  0  0  0  0  0  0  0  0
   10.2191  -16.6704   21.9193 N   0  0  0  0  0  0  0  0  0  0  0  0
   11.4650  -17.1272   22.5423 C   0  0  1  0  0  0  0  0  0  0  0  0
   12.6828  -16.6115   21.8496 C   0  0  0  0  0  0  0  0  0  0  0  0
   12.8576  -17.1570   20.4902 C   0  0  0  0  0  0  0  0  0  0  0  0
   12.7511  -18.3718   20.2537 O   0  0  0  0  0  0  0  0  0  0  0  0
   11.4438  -16.7684   23.9865 C   0  0  0  0  0  0  0  0  0  0  0  0
   12.1056  -15.6557   24.4876 O   0  0  0  0  0  0  0  0  0  0  0  0
   13.1484  -16.2761   19.4595 O   0  0  0  0  0  0  0  0  0  0  0  0
   10.8103  -17.4828   24.8044 O   0  0  0  0  0  0  0  0  0  0  0  0
  1  2  1  0
  2  3  1  0
  3  5  1  0
  3  4  1  6
  5  7  1  0
  5  6  1  1
  7  8  2  0
  9 10  1  0
 10 12  1  0
 10 11  2  0
 12 13  1  0
 14 13  1  6
 15 14  1  0
 15  7  1  0
 16 17  2  0
 16 14  1  0
 18 16  1  0
 19 18  1  0
 19 23  1  0
 19 20  1  6
 21 20  1  0
 22 21  2  0
 23 24  1  0
 25 21  1  0
 26 23  2  0
M  END
$$$$
