IQD.pdb
     RDKit          3D

 26 25  0  0  1  0  0  0  0  0999 V2000
    7.9121  -11.4813   19.8228 C   0  0  0  0  0  0  0  0  0  0  0  0
    7.4640  -12.9155   19.7807 C   0  0  0  0  0  0  0  0  0  0  0  0
    8.3728  -13.8491   20.4903 C   0  0  2  0  0  0  0  0  0  0  0  0
    9.7777  -13.5968   19.9816 C   0  0  0  0  0  0  0  0  0  0  0  0
    8.0191  -15.2890   20.4829 C   0  0  2  0  0  0  0  0  0  0  0  0
    6.6322  -15.3497   21.0183 N   0  0  0  0  0  0  0  0  0  0  0  0
    8.8046  -16.1775   21.3355 C   0  0  0  0  0  0  0  0  0  0  0  0
    8.6484  -16.1882   22.6046 O   0  0  0  0  0  0  0  0  0  0  0  0
   10.3045  -22.7425   22.6899 N   0  0  0  0  0  0  0  0  0  0  0  0
   10.7320  -21.7403   21.7857 C   0  0  0  0  0  0  0  0  0  0  0  0
   10.8590  -22.0421   20.5760 O   0  0  0  0  0  0  0  0  0  0  0  0
   11.0338  -20.3371   22.2388 C   0  0  0  0  0  0  0  0  0  0  0  0
   10.2285  -19.3457   21.4391 C   0  0  0  0  0  0  0  0  0  0  0  0
   10.5766  -17.8993   21.7518 C   0  0  2  0  0  0  0  0  0  0  0  0
    9.7735  -17.0805   20.8472 N   0  0  0  0  0  0  0  0  0  0  0  0
   11.9767  -17.5706   21.6646 C   0  0  0  0  0  0  0  0  0  0  0  0
   12.4531  -17.2847   20.5215 O   0  0  0  0  0  0  0  0  0  0  0  0
   12.8686  -17.5408   22.7676 N   0  0  0  0  0  0  0  0  0  0  0  0
   14.2759  -17.1745   22.5826 C   0  0  1  0  0  0  0  0  0  0  0  0
   14.6414  -15.9056   23.2791 C   0  0  0  0  0  0  0  0  0  0  0  0
   16.0689  -15.5574   23.1492 C   0  0  0  0  0  0  0  0  0  0  0  0
   16.7847  -15.3483   24.1426 O   0  0  0  0  0  0  0  0  0  0  0  0
   15.1325  -18.3159   23.0050 C   0  0  0  0  0  0  0  0  0  0  0  0
   14.6107  -19.4651   23.5833 O   0  0  0  0  0  0  0  0  0  0  0  0
   16.6110  -15.4649   21.8762 O   0  0  0  0  0  0  0  0  0  0  0  0
   16.3782  -18.2631   22.8433 O   0  0  0  0  0  0  0  0  0  0  0  0
  1  2  1  0
  2  3  1  0
  3  5  1  0
  3  4  1  6
  5  7  1  0
  5  6  1  1
  7  8  2  0
  9 10  1  0
 10 12  1  0
 10 11  2  0
 12 13  1  0
 14 13  1  6
 15 14  1  0
 15  7  1  0
 16 17  2  0
 16 14  1  0
 18 16  1  0
 19 18  1  0
 19 23  1  0
 19 20  1  1
 21 20  1  0
 22 21  2  0
 23 24  1  0
 25 21  1  0
 26 23  2  0
M  END
$$$$
