IQD.pdb
     RDKit          3D

 26 25  0  0  1  0  0  0  0  0999 V2000
    6.5519  -12.0970   28.2950 C   0  0  0  0  0  0  0  0  0  0  0  0
    5.9684  -13.1842   27.4366 C   0  0  0  0  0  0  0  0  0  0  0  0
    6.8648  -13.6308   26.3420 C   0  0  2  0  0  0  0  0  0  0  0  0
    7.3217  -12.3964   25.5912 C   0  0  0  0  0  0  0  0  0  0  0  0
    6.3639  -14.6911   25.4347 C   0  0  2  0  0  0  0  0  0  0  0  0
    6.1140  -15.8659   26.3130 N   0  0  0  0  0  0  0  0  0  0  0  0
    7.2717  -15.1687   24.3949 C   0  0  0  0  0  0  0  0  0  0  0  0
    8.0247  -16.1841   24.5870 O   0  0  0  0  0  0  0  0  0  0  0  0
    7.5835  -12.8804   18.4867 N   0  0  0  0  0  0  0  0  0  0  0  0
    8.5487  -13.9157   18.4538 C   0  0  0  0  0  0  0  0  0  0  0  0
    9.1474  -14.1403   17.3758 O   0  0  0  0  0  0  0  0  0  0  0  0
    8.8686  -14.7434   19.6696 C   0  0  0  0  0  0  0  0  0  0  0  0
    8.0088  -14.3180   20.8317 C   0  0  0  0  0  0  0  0  0  0  0  0
    8.2209  -15.1650   22.0761 C   0  0  2  0  0  0  0  0  0  0  0  0
    7.3902  -14.5721   23.1211 N   0  0  0  0  0  0  0  0  0  0  0  0
    9.5909  -15.3028   22.5006 C   0  0  0  0  0  0  0  0  0  0  0  0
    9.9985  -14.5656   23.4523 O   0  0  0  0  0  0  0  0  0  0  0  0
   10.5245  -16.2075   21.9322 N   0  0  0  0  0  0  0  0  0  0  0  0
   11.7383  -16.5870   22.6612 C   0  0  1  0  0  0  0  0  0  0  0  0
   11.5501  -17.8016   23.5085 C   0  0  0  0  0  0  0  0  0  0  0  0
   12.0690  -17.6439   24.8803 C   0  0  0  0  0  0  0  0  0  0  0  0
   12.6980  -16.6313   25.2299 O   0  0  0  0  0  0  0  0  0  0  0  0
   12.8560  -16.7443   21.6912 C   0  0  0  0  0  0  0  0  0  0  0  0
   12.6678  -16.6644   20.3181 O   0  0  0  0  0  0  0  0  0  0  0  0
   11.8397  -18.6630   25.7924 O   0  0  0  0  0  0  0  0  0  0  0  0
   14.0240  -16.9584   22.1043 O   0  0  0  0  0  0  0  0  0  0  0  0
  1  2  1  0
  2  3  1  0
  3  5  1  0
  3  4  1  6
  5  7  1  0
  5  6  1  1
  7  8  2  0
  9 10  1  0
 10 12  1  0
 10 11  2  0
 12 13  1  0
 14 13  1  6
 15 14  1  0
 15  7  1  0
 16 17  2  0
 16 14  1  0
 18 16  1  0
 19 18  1  0
 19 23  1  0
 19 20  1  6
 21 20  1  0
 22 21  2  0
 23 24  1  0
 25 21  1  0
 26 23  2  0
M  END
$$$$
