IQD.pdb
     RDKit          3D

 26 25  0  0  1  0  0  0  0  0999 V2000
    7.5597  -12.0574   19.8916 C   0  0  0  0  0  0  0  0  0  0  0  0
    7.5298  -13.5600   19.9189 C   0  0  0  0  0  0  0  0  0  0  0  0
    7.3979  -14.1330   21.2810 C   0  0  2  0  0  0  0  0  0  0  0  0
    8.5586  -13.6195   22.1088 C   0  0  0  0  0  0  0  0  0  0  0  0
    7.2292  -15.6017   21.3939 C   0  0  2  0  0  0  0  0  0  0  0  0
    6.0492  -15.9222   20.5462 N   0  0  0  0  0  0  0  0  0  0  0  0
    6.9177  -16.1419   22.7148 C   0  0  0  0  0  0  0  0  0  0  0  0
    5.8905  -15.7485   23.3669 O   0  0  0  0  0  0  0  0  0  0  0  0
    6.0612  -21.6066   24.6039 N   0  0  0  0  0  0  0  0  0  0  0  0
    5.6403  -20.7302   23.5747 C   0  0  0  0  0  0  0  0  0  0  0  0
    4.9077  -21.1852   22.6652 O   0  0  0  0  0  0  0  0  0  0  0  0
    6.0476  -19.2815   23.5479 C   0  0  0  0  0  0  0  0  0  0  0  0
    6.9972  -18.9852   24.6799 C   0  0  0  0  0  0  0  0  0  0  0  0
    7.4191  -17.5261   24.7422 C   0  0  2  0  0  0  0  0  0  0  0  0
    7.6975  -17.1216   23.3664 N   0  0  0  0  0  0  0  0  0  0  0  0
    8.5306  -17.2436   25.6143 C   0  0  0  0  0  0  0  0  0  0  0  0
    9.6900  -17.1671   25.0990 O   0  0  0  0  0  0  0  0  0  0  0  0
    8.4262  -17.0417   27.0148 N   0  0  0  0  0  0  0  0  0  0  0  0
    9.6254  -16.8418   27.8339 C   0  0  1  0  0  0  0  0  0  0  0  0
    9.4897  -15.7062   28.7934 C   0  0  0  0  0  0  0  0  0  0  0  0
   10.6899  -15.4968   29.6251 C   0  0  0  0  0  0  0  0  0  0  0  0
   11.7198  -16.1738   29.4704 O   0  0  0  0  0  0  0  0  0  0  0  0
    9.9629  -18.1199   28.5176 C   0  0  0  0  0  0  0  0  0  0  0  0
   11.2690  -18.4820   28.8181 O   0  0  0  0  0  0  0  0  0  0  0  0
   10.6508  -14.5132   30.6019 O   0  0  0  0  0  0  0  0  0  0  0  0
    9.0499  -18.9194   28.8461 O   0  0  0  0  0  0  0  0  0  0  0  0
  1  2  1  0
  2  3  1  0
  3  5  1  0
  3  4  1  1
  5  7  1  0
  5  6  1  6
  7  8  2  0
  9 10  1  0
 10 12  1  0
 10 11  2  0
 12 13  1  0
 14 13  1  6
 15 14  1  0
 15  7  1  0
 16 17  2  0
 16 14  1  0
 18 16  1  0
 19 18  1  0
 19 23  1  0
 19 20  1  1
 21 20  1  0
 22 21  2  0
 23 24  1  0
 25 21  1  0
 26 23  2  0
M  END
$$$$
