MVR.pdb
     RDKit          3D

 27 26  0  0  1  0  0  0  0  0999 V2000
   29.6461  -19.4264   -5.6984 C   0  0  0  0  0  0  0  0  0  0  0  0
   28.1108  -19.3859   -4.7385 S   0  0  0  0  0  0  0  0  0  0  0  0
   26.7449  -20.1808   -5.6819 C   0  0  0  0  0  0  0  0  0  0  0  0
   26.8990  -19.7253   -7.0915 C   0  0  0  0  0  0  0  0  0  0  0  0
   25.8359  -20.2118   -8.0469 C   0  0  2  0  0  0  0  0  0  0  0  0
   25.9173  -21.6944   -7.9444 N   0  0  0  0  0  0  0  0  0  0  0  0
   26.1227  -19.8393   -9.4383 C   0  0  0  0  0  0  0  0  0  0  0  0
   26.0464  -18.6324   -9.8527 O   0  0  0  0  0  0  0  0  0  0  0  0
   29.1190  -20.1548  -11.4124 C   0  0  0  0  0  0  0  0  0  0  0  0
   28.0971  -20.9074  -12.2050 C   0  0  1  0  0  0  0  0  0  0  0  0
   28.2773  -22.3773  -11.9710 C   0  0  0  0  0  0  0  0  0  0  0  0
   26.7131  -20.4265  -11.7940 C   0  0  2  0  0  0  0  0  0  0  0  0
   26.5001  -20.8045  -10.3788 N   0  0  0  0  0  0  0  0  0  0  0  0
   25.6382  -21.0415  -12.6213 C   0  0  0  0  0  0  0  0  0  0  0  0
   25.2186  -22.1857  -12.2537 O   0  0  0  0  0  0  0  0  0  0  0  0
   18.3026  -19.6976  -13.1649 N   0  0  0  0  0  0  0  0  0  0  0  0
   18.2891  -20.9488  -13.8351 C   0  0  0  0  0  0  0  0  0  0  0  0
   17.2659  -21.3981  -14.4969 N   0  0  0  0  0  0  0  0  0  0  0  0
   19.4459  -21.7669  -13.7904 N   0  0  0  0  0  0  0  0  0  0  0  0
   20.5391  -21.5508  -12.8847 C   0  0  0  0  0  0  0  0  0  0  0  0
   21.2800  -20.2865  -13.3061 C   0  0  0  0  0  0  0  0  0  0  0  0
   22.7434  -20.3413  -12.9906 C   0  0  0  0  0  0  0  0  0  0  0  0
   23.6626  -20.4840  -14.1409 C   0  0  2  0  0  0  0  0  0  0  0  0
   25.0613  -20.4541  -13.7612 N   0  0  0  0  0  0  0  0  0  0  0  0
   23.3560  -19.6355  -15.3217 C   0  0  0  0  0  0  0  0  0  0  0  0
   22.5396  -20.0574  -16.3745 O   0  0  0  0  0  0  0  0  0  0  0  0
   23.8162  -18.4742  -15.4496 O   0  0  0  0  0  0  0  0  0  0  0  0
  2  1  1  0
  3  2  1  0
  4  5  1  0
  4  3  1  0
  5  6  1  6
  7 13  1  0
  7  5  1  0
  8  7  2  0
 10  9  1  1
 10 12  1  0
 11 10  1  0
 12 13  1  1
 14 15  2  0
 14 12  1  0
 16 17  1  0
 17 19  1  0
 18 17  2  0
 19 20  1  0
 20 21  1  0
 21 22  1  0
 23 22  1  1
 23 24  1  0
 24 14  1  0
 25 23  1  0
 26 25  1  0
 27 25  2  0
M  END
$$$$
