MVR.pdb
     RDKit          3D

 27 26  0  0  1  0  0  0  0  0999 V2000
   29.1821  -18.6101   -5.6065 C   0  0  0  0  0  0  0  0  0  0  0  0
   28.3972  -19.9213   -4.6344 S   0  0  0  0  0  0  0  0  0  0  0  0
   26.8966  -20.5468   -5.4972 C   0  0  0  0  0  0  0  0  0  0  0  0
   26.9875  -20.0453   -6.8967 C   0  0  0  0  0  0  0  0  0  0  0  0
   25.8050  -20.3711   -7.7771 C   0  0  2  0  0  0  0  0  0  0  0  0
   25.7485  -21.8583   -7.7605 N   0  0  0  0  0  0  0  0  0  0  0  0
   26.0089  -19.9429   -9.1671 C   0  0  0  0  0  0  0  0  0  0  0  0
   26.0450  -18.7104   -9.5047 O   0  0  0  0  0  0  0  0  0  0  0  0
   28.8412  -20.4536  -11.2954 C   0  0  0  0  0  0  0  0  0  0  0  0
   27.7096  -21.0546  -12.0682 C   0  0  1  0  0  0  0  0  0  0  0  0
   27.7271  -22.5431  -11.8891 C   0  0  0  0  0  0  0  0  0  0  0  0
   26.4073  -20.4339  -11.5844 C   0  0  2  0  0  0  0  0  0  0  0  0
   26.1781  -20.8808  -10.1920 N   0  0  0  0  0  0  0  0  0  0  0  0
   25.2453  -20.8493  -12.4184 C   0  0  0  0  0  0  0  0  0  0  0  0
   24.3783  -21.5947  -11.8590 O   0  0  0  0  0  0  0  0  0  0  0  0
   17.9387  -20.6856  -12.4785 N   0  0  0  0  0  0  0  0  0  0  0  0
   18.3254  -19.3315  -12.3001 C   0  0  0  0  0  0  0  0  0  0  0  0
   17.6039  -18.4558  -11.6685 N   0  0  0  0  0  0  0  0  0  0  0  0
   19.5629  -18.8923  -12.8343 N   0  0  0  0  0  0  0  0  0  0  0  0
   20.4384  -19.7287  -13.6063 C   0  0  0  0  0  0  0  0  0  0  0  0
   21.5977  -18.8810  -14.1187 C   0  0  0  0  0  0  0  0  0  0  0  0
   22.9156  -19.2905  -13.5361 C   0  0  0  0  0  0  0  0  0  0  0  0
   23.7775  -20.1419  -14.3851 C   0  0  2  0  0  0  0  0  0  0  0  0
   25.0410  -20.4787  -13.7594 N   0  0  0  0  0  0  0  0  0  0  0  0
   23.9192  -19.7099  -15.7999 C   0  0  0  0  0  0  0  0  0  0  0  0
   25.1108  -19.2075  -16.3297 O   0  0  0  0  0  0  0  0  0  0  0  0
   22.9676  -19.7692  -16.6168 O   0  0  0  0  0  0  0  0  0  0  0  0
  2  1  1  0
  3  2  1  0
  4  5  1  0
  4  3  1  0
  5  6  1  6
  7 13  1  0
  7  5  1  0
  8  7  2  0
 10  9  1  1
 10 12  1  0
 11 10  1  0
 12 13  1  1
 14 15  2  0
 14 12  1  0
 16 17  1  0
 17 19  1  0
 18 17  2  0
 19 20  1  0
 20 21  1  0
 21 22  1  0
 23 22  1  1
 23 24  1  0
 24 14  1  0
 25 23  1  0
 26 25  1  0
 27 25  2  0
M  END
$$$$
