MVR.pdb
     RDKit          3D

 27 26  0  0  1  0  0  0  0  0999 V2000
   33.2097  -21.3204  -19.8755 C   0  0  0  0  0  0  0  0  0  0  0  0
   32.1807  -22.2917  -21.0060 S   0  0  0  0  0  0  0  0  0  0  0  0
   31.3159  -23.6342  -20.0909 C   0  0  0  0  0  0  0  0  0  0  0  0
   30.8792  -23.0360  -18.7987 C   0  0  0  0  0  0  0  0  0  0  0  0
   29.3879  -23.0281  -18.5625 C   0  0  2  0  0  0  0  0  0  0  0  0
   28.8459  -22.2914  -19.7366 N   0  0  0  0  0  0  0  0  0  0  0  0
   29.0182  -22.2826  -17.3523 C   0  0  0  0  0  0  0  0  0  0  0  0
   29.3759  -22.6560  -16.1831 O   0  0  0  0  0  0  0  0  0  0  0  0
   27.5476  -18.3770  -17.5510 C   0  0  0  0  0  0  0  0  0  0  0  0
   28.2432  -18.9400  -16.3518 C   0  0  1  0  0  0  0  0  0  0  0  0
   27.8798  -18.1275  -15.1452 C   0  0  0  0  0  0  0  0  0  0  0  0
   27.8451  -20.4009  -16.2008 C   0  0  2  0  0  0  0  0  0  0  0  0
   28.2514  -21.1146  -17.4322 N   0  0  0  0  0  0  0  0  0  0  0  0
   26.3765  -20.5646  -16.0145 C   0  0  0  0  0  0  0  0  0  0  0  0
   25.6249  -19.9748  -16.8557 O   0  0  0  0  0  0  0  0  0  0  0  0
   24.1281  -20.8204   -8.0904 N   0  0  0  0  0  0  0  0  0  0  0  0
   22.8130  -20.7679   -8.6222 C   0  0  0  0  0  0  0  0  0  0  0  0
   21.7693  -20.4335   -7.9255 N   0  0  0  0  0  0  0  0  0  0  0  0
   22.6077  -21.0959   -9.9860 N   0  0  0  0  0  0  0  0  0  0  0  0
   23.6253  -21.6522  -10.8328 C   0  0  0  0  0  0  0  0  0  0  0  0
   24.3414  -20.5126  -11.5495 C   0  0  0  0  0  0  0  0  0  0  0  0
   25.2717  -20.9961  -12.6194 C   0  0  0  0  0  0  0  0  0  0  0  0
   24.8101  -20.8409  -14.0163 C   0  0  2  0  0  0  0  0  0  0  0  0
   25.7715  -21.3162  -14.9915 N   0  0  0  0  0  0  0  0  0  0  0  0
   24.2287  -19.5175  -14.3611 C   0  0  0  0  0  0  0  0  0  0  0  0
   22.8689  -19.3242  -14.6193 O   0  0  0  0  0  0  0  0  0  0  0  0
   24.9295  -18.4790  -14.4434 O   0  0  0  0  0  0  0  0  0  0  0  0
  2  1  1  0
  3  2  1  0
  4  5  1  0
  4  3  1  0
  5  6  1  6
  7 13  1  0
  7  5  1  0
  8  7  2  0
 10  9  1  6
 10 12  1  0
 11 10  1  0
 12 13  1  6
 14 15  2  0
 14 12  1  0
 16 17  1  0
 17 19  1  0
 18 17  2  0
 19 20  1  0
 20 21  1  0
 21 22  1  0
 23 22  1  1
 23 24  1  0
 24 14  1  0
 25 23  1  0
 26 25  1  0
 27 25  2  0
M  END
$$$$
