MVR.pdb
     RDKit          3D

 27 26  0  0  1  0  0  0  0  0999 V2000
   24.6617  -24.1216  -19.5069 C   0  0  0  0  0  0  0  0  0  0  0  0
   24.1741  -22.9774  -20.8234 S   0  0  0  0  0  0  0  0  0  0  0  0
   22.6631  -22.0467  -20.3355 C   0  0  0  0  0  0  0  0  0  0  0  0
   22.6964  -21.9583  -18.8491 C   0  0  0  0  0  0  0  0  0  0  0  0
   21.5395  -22.6175  -18.1373 C   0  0  2  0  0  0  0  0  0  0  0  0
   20.3910  -21.7110  -18.4104 N   0  0  0  0  0  0  0  0  0  0  0  0
   21.7360  -22.6709  -16.6828 C   0  0  0  0  0  0  0  0  0  0  0  0
   22.6736  -23.3526  -16.1440 O   0  0  0  0  0  0  0  0  0  0  0  0
   20.6124  -20.7946  -12.2951 C   0  0  0  0  0  0  0  0  0  0  0  0
   20.8195  -20.6579  -13.7706 C   0  0  1  0  0  0  0  0  0  0  0  0
   21.9448  -19.6999  -14.0232 C   0  0  0  0  0  0  0  0  0  0  0  0
   21.0983  -22.0363  -14.3518 C   0  0  2  0  0  0  0  0  0  0  0  0
   20.8945  -21.9642  -15.8161 N   0  0  0  0  0  0  0  0  0  0  0  0
   20.1888  -23.0744  -13.7919 C   0  0  0  0  0  0  0  0  0  0  0  0
   19.0103  -23.1194  -14.2708 O   0  0  0  0  0  0  0  0  0  0  0  0
   18.9917  -31.0263   -8.6582 N   0  0  0  0  0  0  0  0  0  0  0  0
   20.0294  -30.4237   -9.4163 C   0  0  0  0  0  0  0  0  0  0  0  0
   21.2857  -30.4898   -9.0940 N   0  0  0  0  0  0  0  0  0  0  0  0
   19.6958  -29.7055  -10.5922 N   0  0  0  0  0  0  0  0  0  0  0  0
   20.5249  -28.6803  -11.1609 C   0  0  0  0  0  0  0  0  0  0  0  0
   19.6627  -27.4544  -11.4416 C   0  0  0  0  0  0  0  0  0  0  0  0
   20.4498  -26.3097  -12.0022 C   0  0  0  0  0  0  0  0  0  0  0  0
   19.7048  -25.0572  -12.2566 C   0  0  2  0  0  0  0  0  0  0  0  0
   20.5368  -23.9959  -12.7884 N   0  0  0  0  0  0  0  0  0  0  0  0
   18.8060  -24.6067  -11.1622 C   0  0  0  0  0  0  0  0  0  0  0  0
   17.5473  -25.1667  -10.9279 O   0  0  0  0  0  0  0  0  0  0  0  0
   19.1238  -23.6848  -10.3712 O   0  0  0  0  0  0  0  0  0  0  0  0
  2  1  1  0
  3  2  1  0
  4  5  1  0
  4  3  1  0
  5  6  1  1
  7 13  1  0
  7  5  1  0
  8  7  2  0
 10  9  1  1
 10 12  1  0
 11 10  1  0
 12 13  1  6
 14 15  2  0
 14 12  1  0
 16 17  1  0
 17 19  1  0
 18 17  2  0
 19 20  1  0
 20 21  1  0
 21 22  1  0
 23 22  1  1
 23 24  1  0
 24 14  1  0
 25 23  1  0
 26 25  1  0
 27 25  2  0
M  END
$$$$
