MVR.pdb
     RDKit          3D

 27 26  0  0  1  0  0  0  0  0999 V2000
   26.8188  -17.7140  -18.9082 C   0  0  0  0  0  0  0  0  0  0  0  0
   28.0568  -17.0667  -17.7555 S   0  0  0  0  0  0  0  0  0  0  0  0
   28.8456  -18.4439  -16.8235 C   0  0  0  0  0  0  0  0  0  0  0  0
   27.7342  -19.1826  -16.1621 C   0  0  0  0  0  0  0  0  0  0  0  0
   28.1588  -20.3288  -15.2758 C   0  0  2  0  0  0  0  0  0  0  0  0
   28.6267  -21.3659  -16.2353 N   0  0  0  0  0  0  0  0  0  0  0  0
   27.0359  -20.8921  -14.5150 C   0  0  0  0  0  0  0  0  0  0  0  0
   26.2858  -21.8146  -14.9848 O   0  0  0  0  0  0  0  0  0  0  0  0
   26.4559  -19.7521  -10.5525 C   0  0  0  0  0  0  0  0  0  0  0  0
   25.9938  -21.0994  -11.0111 C   0  0  1  0  0  0  0  0  0  0  0  0
   24.8567  -21.5510  -10.1445 C   0  0  0  0  0  0  0  0  0  0  0  0
   25.5952  -21.0033  -12.4765 C   0  0  2  0  0  0  0  0  0  0  0  0
   26.7401  -20.4373  -13.2249 N   0  0  0  0  0  0  0  0  0  0  0  0
   24.4097  -20.1246  -12.6779 C   0  0  0  0  0  0  0  0  0  0  0  0
   24.6328  -18.9639  -13.1502 O   0  0  0  0  0  0  0  0  0  0  0  0
   20.6654  -17.7452  -19.1799 N   0  0  0  0  0  0  0  0  0  0  0  0
   21.8063  -17.3146  -18.4533 C   0  0  0  0  0  0  0  0  0  0  0  0
   22.4771  -16.2402  -18.7401 N   0  0  0  0  0  0  0  0  0  0  0  0
   22.2536  -18.0869  -17.3519 N   0  0  0  0  0  0  0  0  0  0  0  0
   21.6189  -19.3008  -16.9208 C   0  0  0  0  0  0  0  0  0  0  0  0
   21.3193  -19.1926  -15.4296 C   0  0  0  0  0  0  0  0  0  0  0  0
   22.1051  -20.1694  -14.6094 C   0  0  0  0  0  0  0  0  0  0  0  0
   21.8988  -20.1194  -13.1454 C   0  0  2  0  0  0  0  0  0  0  0  0
   23.0810  -20.4835  -12.3895 N   0  0  0  0  0  0  0  0  0  0  0  0
   20.6588  -20.7680  -12.6453 C   0  0  0  0  0  0  0  0  0  0  0  0
   19.4796  -20.0643  -12.3863 O   0  0  0  0  0  0  0  0  0  0  0  0
   20.5918  -22.0016  -12.4213 O   0  0  0  0  0  0  0  0  0  0  0  0
  2  1  1  0
  3  2  1  0
  4  5  1  0
  4  3  1  0
  5  6  1  6
  7 13  1  0
  7  5  1  0
  8  7  2  0
 10  9  1  1
 10 12  1  0
 11 10  1  0
 12 13  1  6
 14 15  2  0
 14 12  1  0
 16 17  1  0
 17 19  1  0
 18 17  2  0
 19 20  1  0
 20 21  1  0
 21 22  1  0
 23 22  1  6
 23 24  1  0
 24 14  1  0
 25 23  1  0
 26 25  1  0
 27 25  2  0
M  END
$$$$
