MVR.pdb
     RDKit          3D

 27 26  0  0  1  0  0  0  0  0999 V2000
   29.4534  -21.1365   -7.0238 C   0  0  0  0  0  0  0  0  0  0  0  0
   28.8461  -19.4743   -6.6385 S   0  0  0  0  0  0  0  0  0  0  0  0
   27.0794  -19.3090   -7.1270 C   0  0  0  0  0  0  0  0  0  0  0  0
   26.9190  -20.1147   -8.3695 C   0  0  0  0  0  0  0  0  0  0  0  0
   25.5152  -20.1767   -8.9217 C   0  0  2  0  0  0  0  0  0  0  0  0
   24.7843  -21.0246   -7.9408 N   0  0  0  0  0  0  0  0  0  0  0  0
   25.4578  -20.8463  -10.2276 C   0  0  0  0  0  0  0  0  0  0  0  0
   25.7393  -22.0847  -10.3741 O   0  0  0  0  0  0  0  0  0  0  0  0
   22.9883  -22.0022  -12.1220 C   0  0  0  0  0  0  0  0  0  0  0  0
   23.6068  -21.0406  -13.0872 C   0  0  1  0  0  0  0  0  0  0  0  0
   22.8243  -19.7617  -13.0777 C   0  0  0  0  0  0  0  0  0  0  0  0
   25.0612  -20.8262  -12.6945 C   0  0  2  0  0  0  0  0  0  0  0  0
   25.0837  -20.1459  -11.3801 N   0  0  0  0  0  0  0  0  0  0  0  0
   25.7896  -19.9831  -13.6829 C   0  0  0  0  0  0  0  0  0  0  0  0
   26.7498  -19.2780  -13.2344 O   0  0  0  0  0  0  0  0  0  0  0  0
   30.5875  -23.9309  -15.5295 N   0  0  0  0  0  0  0  0  0  0  0  0
   30.8808  -23.5462  -16.8640 C   0  0  0  0  0  0  0  0  0  0  0  0
   31.3475  -24.3617  -17.7605 N   0  0  0  0  0  0  0  0  0  0  0  0
   30.6597  -22.2025  -17.2582 N   0  0  0  0  0  0  0  0  0  0  0  0
   29.8899  -21.2643  -16.4906 C   0  0  0  0  0  0  0  0  0  0  0  0
   28.4724  -21.2211  -17.0509 C   0  0  0  0  0  0  0  0  0  0  0  0
   27.4315  -21.0900  -15.9815 C   0  0  0  0  0  0  0  0  0  0  0  0
   26.4420  -20.0036  -16.1521 C   0  0  2  0  0  0  0  0  0  0  0  0
   25.4969  -19.9151  -15.0566 N   0  0  0  0  0  0  0  0  0  0  0  0
   25.8006  -19.9184  -17.4898 C   0  0  0  0  0  0  0  0  0  0  0  0
   25.7823  -18.7494  -18.2553 O   0  0  0  0  0  0  0  0  0  0  0  0
   25.2285  -20.9012  -18.0221 O   0  0  0  0  0  0  0  0  0  0  0  0
  2  1  1  0
  3  2  1  0
  4  5  1  0
  4  3  1  0
  5  6  1  1
  7 13  1  0
  7  5  1  0
  8  7  2  0
 10  9  1  1
 10 12  1  0
 11 10  1  0
 12 13  1  1
 14 15  2  0
 14 12  1  0
 16 17  1  0
 17 19  1  0
 18 17  2  0
 19 20  1  0
 20 21  1  0
 21 22  1  0
 23 22  1  6
 23 24  1  0
 24 14  1  0
 25 23  1  0
 26 25  1  0
 27 25  2  0
M  END
$$$$
