MVR.pdb
     RDKit          3D

 27 26  0  0  1  0  0  0  0  0999 V2000
   24.3194  -16.7952  -17.0525 C   0  0  0  0  0  0  0  0  0  0  0  0
   25.6874  -17.0567  -18.2102 S   0  0  0  0  0  0  0  0  0  0  0  0
   27.0669  -17.9485  -17.3802 C   0  0  0  0  0  0  0  0  0  0  0  0
   26.4627  -19.1670  -16.7730 C   0  0  0  0  0  0  0  0  0  0  0  0
   27.2839  -19.8229  -15.6891 C   0  0  2  0  0  0  0  0  0  0  0  0
   28.2915  -20.6205  -16.4399 N   0  0  0  0  0  0  0  0  0  0  0  0
   26.4913  -20.7513  -14.8724 C   0  0  0  0  0  0  0  0  0  0  0  0
   26.1563  -21.9128  -15.2881 O   0  0  0  0  0  0  0  0  0  0  0  0
   25.1579  -19.6160  -11.0416 C   0  0  0  0  0  0  0  0  0  0  0  0
   25.5602  -21.0341  -11.2987 C   0  0  1  0  0  0  0  0  0  0  0  0
   24.7981  -21.9370  -10.3757 C   0  0  0  0  0  0  0  0  0  0  0  0
   25.2972  -21.3558  -12.7625 C   0  0  2  0  0  0  0  0  0  0  0  0
   26.0680  -20.3975  -13.5862 N   0  0  0  0  0  0  0  0  0  0  0  0
   23.8544  -21.2356  -13.1117 C   0  0  0  0  0  0  0  0  0  0  0  0
   23.4008  -20.0565  -13.2671 O   0  0  0  0  0  0  0  0  0  0  0  0
   17.0865  -27.2448  -14.2379 N   0  0  0  0  0  0  0  0  0  0  0  0
   16.6379  -25.9801  -14.7007 C   0  0  0  0  0  0  0  0  0  0  0  0
   15.4380  -25.7632  -15.1477 N   0  0  0  0  0  0  0  0  0  0  0  0
   17.5343  -24.8821  -14.6823 N   0  0  0  0  0  0  0  0  0  0  0  0
   18.8929  -24.9713  -14.2259 C   0  0  0  0  0  0  0  0  0  0  0  0
   19.4738  -23.5638  -14.1428 C   0  0  0  0  0  0  0  0  0  0  0  0
   20.9377  -23.5601  -13.8248 C   0  0  0  0  0  0  0  0  0  0  0  0
   21.5446  -22.2456  -13.5211 C   0  0  2  0  0  0  0  0  0  0  0  0
   22.9725  -22.3176  -13.2818 N   0  0  0  0  0  0  0  0  0  0  0  0
   20.8224  -21.4163  -12.5215 C   0  0  0  0  0  0  0  0  0  0  0  0
   19.8484  -20.4764  -12.8690 O   0  0  0  0  0  0  0  0  0  0  0  0
   21.0443  -21.5084  -11.2891 O   0  0  0  0  0  0  0  0  0  0  0  0
  2  1  1  0
  3  2  1  0
  4  5  1  0
  4  3  1  0
  5  6  1  6
  7 13  1  0
  7  5  1  0
  8  7  2  0
 10  9  1  6
 10 12  1  0
 11 10  1  0
 12 13  1  6
 14 15  2  0
 14 12  1  0
 16 17  1  0
 17 19  1  0
 18 17  2  0
 19 20  1  0
 20 21  1  0
 21 22  1  0
 23 22  1  1
 23 24  1  0
 24 14  1  0
 25 23  1  0
 26 25  1  0
 27 25  2  0
M  END
$$$$
