MVR.pdb
     RDKit          3D

 27 26  0  0  1  0  0  0  0  0999 V2000
   29.6334  -21.1999   -4.0940 C   0  0  0  0  0  0  0  0  0  0  0  0
   29.4036  -19.4369   -3.7487 S   0  0  0  0  0  0  0  0  0  0  0  0
   28.8127  -18.5611   -5.2558 C   0  0  0  0  0  0  0  0  0  0  0  0
   28.6030  -19.6142   -6.2880 C   0  0  0  0  0  0  0  0  0  0  0  0
   28.2239  -19.1078   -7.6589 C   0  0  2  0  0  0  0  0  0  0  0  0
   27.2090  -18.0552   -7.3810 N   0  0  0  0  0  0  0  0  0  0  0  0
   27.5854  -20.1444   -8.4803 C   0  0  0  0  0  0  0  0  0  0  0  0
   28.1742  -21.2390   -8.7794 O   0  0  0  0  0  0  0  0  0  0  0  0
   23.5468  -19.9777   -9.3400 C   0  0  0  0  0  0  0  0  0  0  0  0
   24.2968  -21.2625   -9.4999 C   0  0  1  0  0  0  0  0  0  0  0  0
   23.5818  -22.1297  -10.4923 C   0  0  0  0  0  0  0  0  0  0  0  0
   25.7191  -20.9436   -9.9367 C   0  0  2  0  0  0  0  0  0  0  0  0
   26.2864  -19.9744   -8.9725 N   0  0  0  0  0  0  0  0  0  0  0  0
   25.7653  -20.3460  -11.3002 C   0  0  0  0  0  0  0  0  0  0  0  0
   25.5034  -19.1035  -11.3883 O   0  0  0  0  0  0  0  0  0  0  0  0
   29.1964  -24.0827  -16.6763 N   0  0  0  0  0  0  0  0  0  0  0  0
   27.8054  -24.2827  -16.8762 C   0  0  0  0  0  0  0  0  0  0  0  0
   27.2357  -25.4494  -16.8451 N   0  0  0  0  0  0  0  0  0  0  0  0
   26.9767  -23.1599  -17.1255 N   0  0  0  0  0  0  0  0  0  0  0  0
   27.4613  -21.8092  -17.1794 C   0  0  0  0  0  0  0  0  0  0  0  0
   26.6107  -20.9476  -16.2524 C   0  0  0  0  0  0  0  0  0  0  0  0
   26.7164  -21.3637  -14.8172 C   0  0  0  0  0  0  0  0  0  0  0  0
   25.9510  -20.5610  -13.8383 C   0  0  2  0  0  0  0  0  0  0  0  0
   26.0762  -21.0475  -12.4786 N   0  0  0  0  0  0  0  0  0  0  0  0
   24.5515  -20.2390  -14.2206 C   0  0  0  0  0  0  0  0  0  0  0  0
   24.1775  -19.0218  -14.7963 O   0  0  0  0  0  0  0  0  0  0  0  0
   23.6071  -21.0483  -14.0484 O   0  0  0  0  0  0  0  0  0  0  0  0
  2  1  1  0
  3  2  1  0
  4  5  1  0
  4  3  1  0
  5  6  1  1
  7 13  1  0
  7  5  1  0
  8  7  2  0
 10  9  1  6
 10 12  1  0
 11 10  1  0
 12 13  1  1
 14 15  2  0
 14 12  1  0
 16 17  1  0
 17 19  1  0
 18 17  2  0
 19 20  1  0
 20 21  1  0
 21 22  1  0
 23 22  1  6
 23 24  1  0
 24 14  1  0
 25 23  1  0
 26 25  1  0
 27 25  2  0
M  END
$$$$
