MVR.pdb
     RDKit          3D

 27 26  0  0  1  0  0  0  0  0999 V2000
   30.1829  -20.6187  -10.0536 C   0  0  0  0  0  0  0  0  0  0  0  0
   29.2492  -22.1475  -10.3205 S   0  0  0  0  0  0  0  0  0  0  0  0
   27.4640  -21.8781   -9.9628 C   0  0  0  0  0  0  0  0  0  0  0  0
   27.0741  -20.6531  -10.7150 C   0  0  0  0  0  0  0  0  0  0  0  0
   25.9799  -20.8446  -11.7375 C   0  0  2  0  0  0  0  0  0  0  0  0
   26.4924  -21.9394  -12.6059 N   0  0  0  0  0  0  0  0  0  0  0  0
   25.7863  -19.6556  -12.5777 C   0  0  0  0  0  0  0  0  0  0  0  0
   25.1191  -18.6396  -12.1815 O   0  0  0  0  0  0  0  0  0  0  0  0
   27.8005  -19.2155  -16.2554 C   0  0  0  0  0  0  0  0  0  0  0  0
   27.3309  -18.0430  -15.4531 C   0  0  1  0  0  0  0  0  0  0  0  0
   27.1420  -16.8671  -16.3639 C   0  0  0  0  0  0  0  0  0  0  0  0
   26.0437  -18.4277  -14.7385 C   0  0  2  0  0  0  0  0  0  0  0  0
   26.3359  -19.5848  -13.8628 N   0  0  0  0  0  0  0  0  0  0  0  0
   24.9659  -18.8092  -15.6930 C   0  0  0  0  0  0  0  0  0  0  0  0
   25.0537  -19.9637  -16.2217 O   0  0  0  0  0  0  0  0  0  0  0  0
   17.7297  -20.9961  -14.1566 N   0  0  0  0  0  0  0  0  0  0  0  0
   18.7359  -21.9818  -13.9807 C   0  0  0  0  0  0  0  0  0  0  0  0
   18.5342  -23.2530  -14.1539 N   0  0  0  0  0  0  0  0  0  0  0  0
   20.0381  -21.5758  -13.5944 N   0  0  0  0  0  0  0  0  0  0  0  0
   20.3925  -20.2164  -13.2967 C   0  0  0  0  0  0  0  0  0  0  0  0
   20.6715  -19.4864  -14.6061 C   0  0  0  0  0  0  0  0  0  0  0  0
   22.1130  -19.1099  -14.7626 C   0  0  0  0  0  0  0  0  0  0  0  0
   22.4697  -18.3535  -15.9829 C   0  0  2  0  0  0  0  0  0  0  0  0
   23.8733  -17.9963  -16.0433 N   0  0  0  0  0  0  0  0  0  0  0  0
   21.5620  -17.2309  -16.3353 C   0  0  0  0  0  0  0  0  0  0  0  0
   20.3218  -17.4159  -16.9521 O   0  0  0  0  0  0  0  0  0  0  0  0
   21.8553  -16.0331  -16.0991 O   0  0  0  0  0  0  0  0  0  0  0  0
  2  1  1  0
  3  2  1  0
  4  5  1  0
  4  3  1  0
  5  6  1  6
  7 13  1  0
  7  5  1  0
  8  7  2  0
 10  9  1  6
 10 12  1  0
 11 10  1  0
 12 13  1  1
 14 15  2  0
 14 12  1  0
 16 17  1  0
 17 19  1  0
 18 17  2  0
 19 20  1  0
 20 21  1  0
 21 22  1  0
 23 22  1  1
 23 24  1  0
 24 14  1  0
 25 23  1  0
 26 25  1  0
 27 25  2  0
M  END
$$$$
