MVR.pdb
     RDKit          3D

 27 26  0  0  1  0  0  0  0  0999 V2000
   21.2792  -15.6893  -22.5091 C   0  0  0  0  0  0  0  0  0  0  0  0
   21.2005  -14.7275  -20.9765 S   0  0  0  0  0  0  0  0  0  0  0  0
   22.7589  -14.9231  -20.0172 C   0  0  0  0  0  0  0  0  0  0  0  0
   22.6650  -13.9657  -18.8800 C   0  0  0  0  0  0  0  0  0  0  0  0
   23.8997  -13.8661  -18.0167 C   0  0  2  0  0  0  0  0  0  0  0  0
   23.9734  -15.1934  -17.3472 N   0  0  0  0  0  0  0  0  0  0  0  0
   23.7700  -12.8410  -16.9729 C   0  0  0  0  0  0  0  0  0  0  0  0
   23.0953  -13.0345  -15.9044 O   0  0  0  0  0  0  0  0  0  0  0  0
   26.5964  -11.3572  -15.3565 C   0  0  0  0  0  0  0  0  0  0  0  0
   25.7753  -10.1600  -15.7193 C   0  0  1  0  0  0  0  0  0  0  0  0
   26.3933   -9.4798  -16.9039 C   0  0  0  0  0  0  0  0  0  0  0  0
   24.3502  -10.6149  -15.9979 C   0  0  2  0  0  0  0  0  0  0  0  0
   24.3921  -11.5945  -17.1067 N   0  0  0  0  0  0  0  0  0  0  0  0
   23.4679   -9.4818  -16.3927 C   0  0  0  0  0  0  0  0  0  0  0  0
   23.4977   -9.1346  -17.6169 O   0  0  0  0  0  0  0  0  0  0  0  0
   14.9280   -7.8686  -15.4379 N   0  0  0  0  0  0  0  0  0  0  0  0
   15.4758   -6.6752  -15.9770 C   0  0  0  0  0  0  0  0  0  0  0  0
   14.7558   -5.6709  -16.3765 N   0  0  0  0  0  0  0  0  0  0  0  0
   16.8834   -6.5548  -16.0945 N   0  0  0  0  0  0  0  0  0  0  0  0
   17.8045   -7.5933  -15.7268 C   0  0  0  0  0  0  0  0  0  0  0  0
   19.2215   -7.1203  -16.0329 C   0  0  0  0  0  0  0  0  0  0  0  0
   20.2621   -8.1312  -15.6594 C   0  0  0  0  0  0  0  0  0  0  0  0
   21.6719   -7.7403  -15.8785 C   0  0  2  0  0  0  0  0  0  0  0  0
   22.6152   -8.7813  -15.5211 N   0  0  0  0  0  0  0  0  0  0  0  0
   22.0567   -6.3985  -15.3688 C   0  0  0  0  0  0  0  0  0  0  0  0
   21.7151   -5.2082  -16.0166 O   0  0  0  0  0  0  0  0  0  0  0  0
   22.7202   -6.2478  -14.3135 O   0  0  0  0  0  0  0  0  0  0  0  0
  2  1  1  0
  3  2  1  0
  4  5  1  0
  4  3  1  0
  5  6  1  1
  7 13  1  0
  7  5  1  0
  8  7  2  0
 10  9  1  6
 10 12  1  0
 11 10  1  0
 12 13  1  6
 14 15  2  0
 14 12  1  0
 16 17  1  0
 17 19  1  0
 18 17  2  0
 19 20  1  0
 20 21  1  0
 21 22  1  0
 23 22  1  1
 23 24  1  0
 24 14  1  0
 25 23  1  0
 26 25  1  0
 27 25  2  0
M  END
$$$$
