HVR.pdb
     RDKit          3D

 29 29  0  0  1  0  0  0  0  0999 V2000
   28.9243  -20.6703  -15.6059 N   0  0  0  0  0  0  0  0  0  0  0  0
   27.9414  -19.7763  -15.0457 C   0  0  1  0  0  0  0  0  0  0  0  0
   27.0786  -19.1963  -16.1569 C   0  0  0  0  0  0  0  0  0  0  0  0
   27.8367  -18.1324  -16.8632 C   0  0  0  0  0  0  0  0  0  0  0  0
   29.1092  -17.6803  -16.5489 C   0  0  0  0  0  0  0  0  0  0  0  0
   29.4726  -16.7120  -17.4080 N   0  0  0  0  0  0  0  0  0  0  0  0
   28.4299  -16.5605  -18.2557 C   0  0  0  0  0  0  0  0  0  0  0  0
   27.4509  -17.4128  -17.9271 N   0  0  0  0  0  0  0  0  0  0  0  0
   27.0370  -20.5364  -14.1529 C   0  0  0  0  0  0  0  0  0  0  0  0
   26.7680  -21.7263  -14.4420 O   0  0  0  0  0  0  0  0  0  0  0  0
   26.9443  -20.2264  -10.1318 C   0  0  0  0  0  0  0  0  0  0  0  0
   25.5728  -20.2088  -10.7302 C   0  0  2  0  0  0  0  0  0  0  0  0
   24.5537  -20.9649   -9.9016 C   0  0  0  0  0  0  0  0  0  0  0  0
   25.6099  -20.7830  -12.1570 C   0  0  2  0  0  0  0  0  0  0  0  0
   26.4651  -19.9736  -12.9872 N   0  0  0  0  0  0  0  0  0  0  0  0
   24.1910  -20.7469  -12.6189 C   0  0  0  0  0  0  0  0  0  0  0  0
   23.5554  -19.6601  -12.6514 O   0  0  0  0  0  0  0  0  0  0  0  0
   19.8919  -28.2516  -14.8836 N   0  0  0  0  0  0  0  0  0  0  0  0
   20.3392  -27.6592  -13.6810 C   0  0  0  0  0  0  0  0  0  0  0  0
   20.5743  -28.3628  -12.6155 N   0  0  0  0  0  0  0  0  0  0  0  0
   20.5615  -26.2601  -13.5544 N   0  0  0  0  0  0  0  0  0  0  0  0
   20.2849  -25.2964  -14.6010 C   0  0  0  0  0  0  0  0  0  0  0  0
   20.5593  -23.9000  -14.2321 C   0  0  0  0  0  0  0  0  0  0  0  0
   21.8685  -23.4282  -13.8263 C   0  0  0  0  0  0  0  0  0  0  0  0
   22.1778  -22.0378  -13.4624 C   0  0  2  0  0  0  0  0  0  0  0  0
   23.5899  -21.9605  -13.0143 N   0  0  0  0  0  0  0  0  0  0  0  0
   21.3726  -21.3758  -12.4483 C   0  0  0  0  0  0  0  0  0  0  0  0
   20.3408  -20.5044  -12.8782 O   0  0  0  0  0  0  0  0  0  0  0  0
   21.5008  -21.4993  -11.2314 O   0  0  0  0  0  0  0  0  0  0  0  0
  2  1  1  6
  3  4  1  0
  3  2  1  0
  4  8  1  0
  5  6  1  0
  5  4  2  0
  6  7  1  0
  7  8  2  0
  9  2  1  0
  9 10  2  0
 12 14  1  0
 12 11  1  1
 13 12  1  0
 14 15  1  6
 15  9  1  0
 16 14  1  0
 17 16  2  0
 18 19  1  0
 19 20  2  0
 19 21  1  0
 21 22  1  0
 22 23  1  0
 23 24  1  0
 25 24  1  1
 25 27  1  0
 25 26  1  0
 26 16  1  0
 27 28  1  0
 29 27  2  0
M  END
$$$$
