HVR.pdb
     RDKit          3D

 29 29  0  0  1  0  0  0  0  0999 V2000
   20.7176  -18.9887  -14.8578 N   0  0  0  0  0  0  0  0  0  0  0  0
   21.9781  -18.4203  -14.4492 C   0  0  1  0  0  0  0  0  0  0  0  0
   21.7570  -17.0220  -13.8912 C   0  0  0  0  0  0  0  0  0  0  0  0
   21.5127  -16.0786  -15.0117 C   0  0  0  0  0  0  0  0  0  0  0  0
   22.4728  -15.5138  -15.8376 C   0  0  0  0  0  0  0  0  0  0  0  0
   21.8810  -14.7124  -16.7406 N   0  0  0  0  0  0  0  0  0  0  0  0
   20.5559  -14.7770  -16.4788 C   0  0  0  0  0  0  0  0  0  0  0  0
   20.3377  -15.5963  -15.4424 N   0  0  0  0  0  0  0  0  0  0  0  0
   22.5525  -19.2337  -13.3532 C   0  0  0  0  0  0  0  0  0  0  0  0
   21.7718  -19.7928  -12.5472 O   0  0  0  0  0  0  0  0  0  0  0  0
   25.1303  -21.6822  -14.6244 C   0  0  0  0  0  0  0  0  0  0  0  0
   24.2656  -21.8114  -13.4100 C   0  0  2  0  0  0  0  0  0  0  0  0
   22.7993  -22.0015  -13.7426 C   0  0  0  0  0  0  0  0  0  0  0  0
   24.4364  -20.5797  -12.5043 C   0  0  2  0  0  0  0  0  0  0  0  0
   23.9465  -19.4051  -13.1798 N   0  0  0  0  0  0  0  0  0  0  0  0
   25.9038  -20.4994  -12.2434 C   0  0  0  0  0  0  0  0  0  0  0  0
   26.7018  -20.1827  -13.1648 O   0  0  0  0  0  0  0  0  0  0  0  0
   27.8721  -18.5275   -4.0314 N   0  0  0  0  0  0  0  0  0  0  0  0
   26.9099  -19.3926   -4.5999 C   0  0  0  0  0  0  0  0  0  0  0  0
   25.8847  -19.8164   -3.9254 N   0  0  0  0  0  0  0  0  0  0  0  0
   26.9967  -19.8566   -5.9415 N   0  0  0  0  0  0  0  0  0  0  0  0
   28.0129  -19.4311   -6.8834 C   0  0  0  0  0  0  0  0  0  0  0  0
   27.6205  -19.5436   -8.2957 C   0  0  0  0  0  0  0  0  0  0  0  0
   27.9232  -20.7010   -9.1144 C   0  0  0  0  0  0  0  0  0  0  0  0
   27.8017  -20.7411  -10.5789 C   0  0  2  0  0  0  0  0  0  0  0  0
   26.3639  -20.7882  -10.9413 N   0  0  0  0  0  0  0  0  0  0  0  0
   28.4613  -21.8081  -11.3148 C   0  0  0  0  0  0  0  0  0  0  0  0
   27.7940  -23.0534  -11.4274 O   0  0  0  0  0  0  0  0  0  0  0  0
   29.5617  -21.7358  -11.8591 O   0  0  0  0  0  0  0  0  0  0  0  0
  2  1  1  1
  3  4  1  0
  3  2  1  0
  4  8  1  0
  5  6  1  0
  5  4  2  0
  6  7  1  0
  7  8  2  0
  9  2  1  0
  9 10  2  0
 12 14  1  0
 12 11  1  6
 13 12  1  0
 14 15  1  6
 15  9  1  0
 16 14  1  0
 17 16  2  0
 18 19  1  0
 19 20  2  0
 19 21  1  0
 21 22  1  0
 22 23  1  0
 23 24  1  0
 25 24  1  1
 25 27  1  0
 25 26  1  0
 26 16  1  0
 27 28  1  0
 29 27  2  0
M  END
$$$$
