HVR.pdb
     RDKit          3D

 29 29  0  0  1  0  0  0  0  0999 V2000
   30.0236  -23.8090  -16.6300 N   0  0  0  0  0  0  0  0  0  0  0  0
   28.9248  -23.2891  -17.4054 C   0  0  1  0  0  0  0  0  0  0  0  0
   28.1576  -24.4361  -18.0468 C   0  0  0  0  0  0  0  0  0  0  0  0
   28.9038  -24.9228  -19.2350 C   0  0  0  0  0  0  0  0  0  0  0  0
   29.3152  -26.2254  -19.4728 C   0  0  0  0  0  0  0  0  0  0  0  0
   29.9605  -26.2903  -20.6506 N   0  0  0  0  0  0  0  0  0  0  0  0
   29.9517  -25.0320  -21.1459 C   0  0  0  0  0  0  0  0  0  0  0  0
   29.3178  -24.2144  -20.2958 N   0  0  0  0  0  0  0  0  0  0  0  0
   27.9777  -22.5882  -16.5085 C   0  0  0  0  0  0  0  0  0  0  0  0
   27.7938  -23.0434  -15.3550 O   0  0  0  0  0  0  0  0  0  0  0  0
   26.2208  -18.8066  -17.4786 C   0  0  0  0  0  0  0  0  0  0  0  0
   26.5739  -19.2352  -16.0891 C   0  0  2  0  0  0  0  0  0  0  0  0
   27.9733  -18.8232  -15.6782 C   0  0  0  0  0  0  0  0  0  0  0  0
   26.4203  -20.7596  -15.9497 C   0  0  2  0  0  0  0  0  0  0  0  0
   27.2729  -21.4255  -16.9013 N   0  0  0  0  0  0  0  0  0  0  0  0
   24.9759  -21.0229  -16.2181 C   0  0  0  0  0  0  0  0  0  0  0  0
   24.5704  -21.2334  -17.3917 O   0  0  0  0  0  0  0  0  0  0  0  0
   18.8072  -24.1819  -10.3147 N   0  0  0  0  0  0  0  0  0  0  0  0
   18.1380  -23.7332  -11.4759 C   0  0  0  0  0  0  0  0  0  0  0  0
   16.8663  -23.9257  -11.6524 N   0  0  0  0  0  0  0  0  0  0  0  0
   18.8064  -23.0443  -12.5254 N   0  0  0  0  0  0  0  0  0  0  0  0
   20.2374  -22.8177  -12.5653 C   0  0  0  0  0  0  0  0  0  0  0  0
   20.7282  -22.2393  -13.8245 C   0  0  0  0  0  0  0  0  0  0  0  0
   22.1007  -21.8172  -14.0231 C   0  0  0  0  0  0  0  0  0  0  0  0
   22.6326  -21.2754  -15.2820 C   0  0  2  0  0  0  0  0  0  0  0  0
   24.0866  -21.0276  -15.1228 N   0  0  0  0  0  0  0  0  0  0  0  0
   22.0514  -20.0605  -15.8310 C   0  0  0  0  0  0  0  0  0  0  0  0
   20.9470  -20.1865  -16.7103 O   0  0  0  0  0  0  0  0  0  0  0  0
   22.4306  -18.9128  -15.6039 O   0  0  0  0  0  0  0  0  0  0  0  0
  2  1  1  1
  3  4  1  0
  3  2  1  0
  4  8  1  0
  5  6  1  0
  5  4  2  0
  6  7  1  0
  7  8  2  0
  9  2  1  0
  9 10  2  0
 12 14  1  0
 12 11  1  6
 13 12  1  0
 14 15  1  6
 15  9  1  0
 16 14  1  0
 17 16  2  0
 18 19  1  0
 19 20  2  0
 19 21  1  0
 21 22  1  0
 22 23  1  0
 23 24  1  0
 25 24  1  1
 25 27  1  0
 25 26  1  0
 26 16  1  0
 27 28  1  0
 29 27  2  0
M  END
$$$$
