HVR.pdb
     RDKit          3D

 29 29  0  0  1  0  0  0  0  0999 V2000
   23.8426  -19.9066  -18.3654 N   0  0  0  0  0  0  0  0  0  0  0  0
   23.9450  -19.0630  -17.2005 C   0  0  1  0  0  0  0  0  0  0  0  0
   22.5575  -18.6178  -16.7622 C   0  0  0  0  0  0  0  0  0  0  0  0
   22.1653  -17.4070  -17.5273 C   0  0  0  0  0  0  0  0  0  0  0  0
   22.2234  -16.0955  -17.0809 C   0  0  0  0  0  0  0  0  0  0  0  0
   21.7907  -15.2669  -18.0473 N   0  0  0  0  0  0  0  0  0  0  0  0
   21.4636  -16.0590  -19.0933 C   0  0  0  0  0  0  0  0  0  0  0  0
   21.6890  -17.3410  -18.7792 N   0  0  0  0  0  0  0  0  0  0  0  0
   24.5203  -19.8403  -16.0791 C   0  0  0  0  0  0  0  0  0  0  0  0
   23.9209  -20.8716  -15.6931 O   0  0  0  0  0  0  0  0  0  0  0  0
   28.1424  -20.6801  -12.8323 C   0  0  0  0  0  0  0  0  0  0  0  0
   27.6688  -19.9324  -14.0389 C   0  0  2  0  0  0  0  0  0  0  0  0
   27.8682  -18.4343  -13.9253 C   0  0  0  0  0  0  0  0  0  0  0  0
   26.1848  -20.2393  -14.3039 C   0  0  2  0  0  0  0  0  0  0  0  0
   25.7190  -19.4658  -15.4266 N   0  0  0  0  0  0  0  0  0  0  0  0
   25.4863  -19.8611  -13.0402 C   0  0  0  0  0  0  0  0  0  0  0  0
   25.1523  -18.6659  -12.8259 O   0  0  0  0  0  0  0  0  0  0  0  0
   18.9104  -23.9868   -8.2491 N   0  0  0  0  0  0  0  0  0  0  0  0
   18.9399  -22.5862   -8.4357 C   0  0  0  0  0  0  0  0  0  0  0  0
   17.8592  -21.8673   -8.4071 N   0  0  0  0  0  0  0  0  0  0  0  0
   20.1473  -21.8709   -8.6666 N   0  0  0  0  0  0  0  0  0  0  0  0
   21.1144  -22.2194   -9.6884 C   0  0  0  0  0  0  0  0  0  0  0  0
   22.2742  -21.3190   -9.7626 C   0  0  0  0  0  0  0  0  0  0  0  0
   23.3633  -21.5023  -10.7015 C   0  0  0  0  0  0  0  0  0  0  0  0
   24.5249  -20.6085  -10.8157 C   0  0  2  0  0  0  0  0  0  0  0  0
   25.2150  -20.8784  -12.1010 N   0  0  0  0  0  0  0  0  0  0  0  0
   25.5401  -20.6308   -9.7746 C   0  0  0  0  0  0  0  0  0  0  0  0
   25.4283  -19.6993   -8.7123 O   0  0  0  0  0  0  0  0  0  0  0  0
   26.5046  -21.3922   -9.7237 O   0  0  0  0  0  0  0  0  0  0  0  0
  2  1  1  6
  3  4  1  0
  3  2  1  0
  4  8  1  0
  5  6  1  0
  5  4  2  0
  6  7  1  0
  7  8  2  0
  9  2  1  0
  9 10  2  0
 12 14  1  0
 12 11  1  1
 13 12  1  0
 14 15  1  6
 15  9  1  0
 16 14  1  0
 17 16  2  0
 18 19  1  0
 19 20  2  0
 19 21  1  0
 21 22  1  0
 22 23  1  0
 23 24  1  0
 25 24  1  1
 25 27  1  0
 25 26  1  0
 26 16  1  0
 27 28  1  0
 29 27  2  0
M  END
$$$$
