HVR.pdb
     RDKit          3D

 29 29  0  0  1  0  0  0  0  0999 V2000
   29.6157  -24.1884  -16.9275 N   0  0  0  0  0  0  0  0  0  0  0  0
   28.9337  -23.0717  -17.5331 C   0  0  1  0  0  0  0  0  0  0  0  0
   28.0766  -23.5577  -18.6927 C   0  0  0  0  0  0  0  0  0  0  0  0
   28.9353  -23.7610  -19.8871 C   0  0  0  0  0  0  0  0  0  0  0  0
   30.2781  -23.4349  -20.0017 C   0  0  0  0  0  0  0  0  0  0  0  0
   30.7233  -23.7662  -21.2264 N   0  0  0  0  0  0  0  0  0  0  0  0
   29.6615  -24.2974  -21.8738 C   0  0  0  0  0  0  0  0  0  0  0  0
   28.5913  -24.2932  -21.0691 N   0  0  0  0  0  0  0  0  0  0  0  0
   28.0137  -22.4626  -16.5455 C   0  0  0  0  0  0  0  0  0  0  0  0
   27.4517  -23.2079  -15.7085 O   0  0  0  0  0  0  0  0  0  0  0  0
   26.4700  -18.4527  -14.1461 C   0  0  0  0  0  0  0  0  0  0  0  0
   27.3228  -19.0449  -15.2238 C   0  0  2  0  0  0  0  0  0  0  0  0
   27.2006  -18.3147  -16.5462 C   0  0  0  0  0  0  0  0  0  0  0  0
   26.9753  -20.5309  -15.4179 C   0  0  2  0  0  0  0  0  0  0  0  0
   27.7441  -21.0738  -16.5087 N   0  0  0  0  0  0  0  0  0  0  0  0
   25.5114  -20.5448  -15.7087 C   0  0  0  0  0  0  0  0  0  0  0  0
   25.0773  -20.1682  -16.8293 O   0  0  0  0  0  0  0  0  0  0  0  0
   18.7036  -22.0841  -12.5975 N   0  0  0  0  0  0  0  0  0  0  0  0
   18.3745  -23.2646  -13.3014 C   0  0  0  0  0  0  0  0  0  0  0  0
   17.1434  -23.5984  -13.5434 N   0  0  0  0  0  0  0  0  0  0  0  0
   19.3621  -24.1637  -13.7904 N   0  0  0  0  0  0  0  0  0  0  0  0
   20.7898  -23.9429  -13.6735 C   0  0  0  0  0  0  0  0  0  0  0  0
   21.2709  -22.7112  -14.3159 C   0  0  0  0  0  0  0  0  0  0  0  0
   22.6650  -22.3140  -14.3281 C   0  0  0  0  0  0  0  0  0  0  0  0
   23.1666  -21.0492  -14.8847 C   0  0  2  0  0  0  0  0  0  0  0  0
   24.6368  -20.9897  -14.6949 N   0  0  0  0  0  0  0  0  0  0  0  0
   22.6226  -19.7939  -14.3916 C   0  0  0  0  0  0  0  0  0  0  0  0
   21.5070  -19.2383  -15.0665 O   0  0  0  0  0  0  0  0  0  0  0  0
   23.0429  -19.1541  -13.4290 O   0  0  0  0  0  0  0  0  0  0  0  0
  2  1  1  1
  3  4  1  0
  3  2  1  0
  4  8  1  0
  5  6  1  0
  5  4  2  0
  6  7  1  0
  7  8  2  0
  9  2  1  0
  9 10  2  0
 12 14  1  0
 12 11  1  1
 13 12  1  0
 14 15  1  6
 15  9  1  0
 16 14  1  0
 17 16  2  0
 18 19  1  0
 19 20  2  0
 19 21  1  0
 21 22  1  0
 22 23  1  0
 23 24  1  0
 25 24  1  1
 25 27  1  0
 25 26  1  0
 26 16  1  0
 27 28  1  0
 29 27  2  0
M  END
$$$$
