HVR.pdb
     RDKit          3D

 29 29  0  0  1  0  0  0  0  0999 V2000
   28.4743  -24.0327  -17.1283 N   0  0  0  0  0  0  0  0  0  0  0  0
   27.7591  -22.8254  -17.4600 C   0  0  1  0  0  0  0  0  0  0  0  0
   26.8093  -23.0901  -18.6190 C   0  0  0  0  0  0  0  0  0  0  0  0
   27.5831  -23.1478  -19.8852 C   0  0  0  0  0  0  0  0  0  0  0  0
   28.4298  -22.1669  -20.3788 C   0  0  0  0  0  0  0  0  0  0  0  0
   28.9586  -22.5692  -21.5478 N   0  0  0  0  0  0  0  0  0  0  0  0
   28.4432  -23.7972  -21.7826 C   0  0  0  0  0  0  0  0  0  0  0  0
   27.6193  -24.1417  -20.7849 N   0  0  0  0  0  0  0  0  0  0  0  0
   26.9252  -22.4150  -16.3072 C   0  0  0  0  0  0  0  0  0  0  0  0
   26.4200  -23.3056  -15.5838 O   0  0  0  0  0  0  0  0  0  0  0  0
   26.5281  -18.3193  -15.0291 C   0  0  0  0  0  0  0  0  0  0  0  0
   26.6278  -19.4999  -14.1151 C   0  0  2  0  0  0  0  0  0  0  0  0
   28.0535  -19.8221  -13.7146 C   0  0  0  0  0  0  0  0  0  0  0  0
   25.9819  -20.7331  -14.7701 C   0  0  2  0  0  0  0  0  0  0  0  0
   26.6765  -21.0584  -15.9897 N   0  0  0  0  0  0  0  0  0  0  0  0
   24.5675  -20.3313  -15.0263 C   0  0  0  0  0  0  0  0  0  0  0  0
   24.2793  -19.5876  -16.0009 O   0  0  0  0  0  0  0  0  0  0  0  0
   19.9242  -23.7572  -12.5270 N   0  0  0  0  0  0  0  0  0  0  0  0
   19.7559  -24.8471  -13.4109 C   0  0  0  0  0  0  0  0  0  0  0  0
   18.8819  -25.7813  -13.1897 N   0  0  0  0  0  0  0  0  0  0  0  0
   20.5272  -24.9960  -14.5966 N   0  0  0  0  0  0  0  0  0  0  0  0
   21.3735  -23.9576  -15.1501 C   0  0  0  0  0  0  0  0  0  0  0  0
   20.8419  -22.5949  -15.0028 C   0  0  0  0  0  0  0  0  0  0  0  0
   21.3272  -21.6560  -14.0106 C   0  0  0  0  0  0  0  0  0  0  0  0
   22.1374  -20.4673  -14.3137 C   0  0  2  0  0  0  0  0  0  0  0  0
   23.5718  -20.8077  -14.1474 N   0  0  0  0  0  0  0  0  0  0  0  0
   21.9017  -19.2412  -13.5680 C   0  0  0  0  0  0  0  0  0  0  0  0
   20.7845  -18.4459  -13.9259 O   0  0  0  0  0  0  0  0  0  0  0  0
   22.5888  -18.8177  -12.6401 O   0  0  0  0  0  0  0  0  0  0  0  0
  2  1  1  1
  3  4  1  0
  3  2  1  0
  4  8  1  0
  5  6  1  0
  5  4  2  0
  6  7  1  0
  7  8  2  0
  9  2  1  0
  9 10  2  0
 12 14  1  0
 12 11  1  6
 13 12  1  0
 14 15  1  6
 15  9  1  0
 16 14  1  0
 17 16  2  0
 18 19  1  0
 19 20  2  0
 19 21  1  0
 21 22  1  0
 22 23  1  0
 23 24  1  0
 25 24  1  1
 25 27  1  0
 25 26  1  0
 26 16  1  0
 27 28  1  0
 29 27  2  0
M  END
$$$$
