HVR.pdb
     RDKit          3D

 29 29  0  0  1  0  0  0  0  0999 V2000
   29.8412  -21.4030  -18.9041 N   0  0  0  0  0  0  0  0  0  0  0  0
   28.7998  -22.0664  -18.1596 C   0  0  1  0  0  0  0  0  0  0  0  0
   29.4170  -23.0060  -17.1340 C   0  0  0  0  0  0  0  0  0  0  0  0
   30.1036  -24.1190  -17.8377 C   0  0  0  0  0  0  0  0  0  0  0  0
   31.4326  -24.4882  -17.6961 C   0  0  0  0  0  0  0  0  0  0  0  0
   31.6986  -25.5414  -18.4884 N   0  0  0  0  0  0  0  0  0  0  0  0
   30.5392  -25.8283  -19.1224 C   0  0  0  0  0  0  0  0  0  0  0  0
   29.5848  -24.9746  -18.7308 N   0  0  0  0  0  0  0  0  0  0  0  0
   28.0180  -21.0609  -17.4042 C   0  0  0  0  0  0  0  0  0  0  0  0
   28.6352  -20.1821  -16.7574 O   0  0  0  0  0  0  0  0  0  0  0  0
   24.0448  -18.4378  -16.5473 C   0  0  0  0  0  0  0  0  0  0  0  0
   24.7955  -19.4158  -17.3953 C   0  0  2  0  0  0  0  0  0  0  0  0
   23.9049  -20.4807  -18.0034 C   0  0  0  0  0  0  0  0  0  0  0  0
   25.9128  -20.0814  -16.5735 C   0  0  2  0  0  0  0  0  0  0  0  0
   26.6029  -21.0524  -17.3839 N   0  0  0  0  0  0  0  0  0  0  0  0
   25.2100  -20.7183  -15.4210 C   0  0  0  0  0  0  0  0  0  0  0  0
   24.4344  -21.6936  -15.6033 O   0  0  0  0  0  0  0  0  0  0  0  0
   26.9925  -19.3664   -6.5208 N   0  0  0  0  0  0  0  0  0  0  0  0
   25.8051  -20.1195   -6.6630 C   0  0  0  0  0  0  0  0  0  0  0  0
   25.0809  -20.4582   -5.6400 N   0  0  0  0  0  0  0  0  0  0  0  0
   25.3235  -20.5563   -7.9279 N   0  0  0  0  0  0  0  0  0  0  0  0
   25.8872  -20.1432   -9.1977 C   0  0  0  0  0  0  0  0  0  0  0  0
   25.2348  -20.7339  -10.3753 C   0  0  0  0  0  0  0  0  0  0  0  0
   25.5683  -20.3647  -11.7369 C   0  0  0  0  0  0  0  0  0  0  0  0
   24.7871  -20.7514  -12.9207 C   0  0  2  0  0  0  0  0  0  0  0  0
   25.4407  -20.1955  -14.1310 N   0  0  0  0  0  0  0  0  0  0  0  0
   23.3810  -20.3868  -12.9909 C   0  0  0  0  0  0  0  0  0  0  0  0
   22.4196  -21.3568  -12.6122 O   0  0  0  0  0  0  0  0  0  0  0  0
   22.9349  -19.2995  -13.3534 O   0  0  0  0  0  0  0  0  0  0  0  0
  2  1  1  1
  3  4  1  0
  3  2  1  0
  4  8  1  0
  5  6  1  0
  5  4  2  0
  6  7  1  0
  7  8  2  0
  9  2  1  0
  9 10  2  0
 12 14  1  0
 12 11  1  1
 13 12  1  0
 14 15  1  6
 15  9  1  0
 16 14  1  0
 17 16  2  0
 18 19  1  0
 19 20  2  0
 19 21  1  0
 21 22  1  0
 22 23  1  0
 23 24  1  0
 25 24  1  1
 25 27  1  0
 25 26  1  0
 26 16  1  0
 27 28  1  0
 29 27  2  0
M  END
$$$$
