HVR.pdb
     RDKit          3D

 29 29  0  0  1  0  0  0  0  0999 V2000
   28.5156  -22.7559  -17.0516 N   0  0  0  0  0  0  0  0  0  0  0  0
   27.3323  -21.9354  -16.9752 C   0  0  1  0  0  0  0  0  0  0  0  0
   26.4842  -22.1355  -18.2228 C   0  0  0  0  0  0  0  0  0  0  0  0
   26.8822  -21.1418  -19.2521 C   0  0  0  0  0  0  0  0  0  0  0  0
   26.9851  -19.7702  -19.0770 C   0  0  0  0  0  0  0  0  0  0  0  0
   27.3741  -19.1931  -20.2275 N   0  0  0  0  0  0  0  0  0  0  0  0
   27.5133  -20.2016  -21.1175 C   0  0  0  0  0  0  0  0  0  0  0  0
   27.2180  -21.3684  -20.5306 N   0  0  0  0  0  0  0  0  0  0  0  0
   26.5083  -22.3663  -15.8228 C   0  0  0  0  0  0  0  0  0  0  0  0
   26.2575  -23.5870  -15.6866 O   0  0  0  0  0  0  0  0  0  0  0  0
   25.4648  -19.7734  -12.5715 C   0  0  0  0  0  0  0  0  0  0  0  0
   25.6980  -21.2472  -12.4584 C   0  0  2  0  0  0  0  0  0  0  0  0
   27.1426  -21.5988  -12.1642 C   0  0  0  0  0  0  0  0  0  0  0  0
   25.2436  -21.9560  -13.7459 C   0  0  2  0  0  0  0  0  0  0  0  0
   25.9936  -21.4556  -14.8697 N   0  0  0  0  0  0  0  0  0  0  0  0
   23.7898  -21.6389  -13.8624 C   0  0  0  0  0  0  0  0  0  0  0  0
   23.4068  -20.6003  -14.4629 O   0  0  0  0  0  0  0  0  0  0  0  0
   16.7303  -26.6535  -14.1835 N   0  0  0  0  0  0  0  0  0  0  0  0
   18.1356  -26.7899  -14.2463 C   0  0  0  0  0  0  0  0  0  0  0  0
   18.7074  -27.6416  -15.0421 N   0  0  0  0  0  0  0  0  0  0  0  0
   19.0160  -26.0093  -13.4473 N   0  0  0  0  0  0  0  0  0  0  0  0
   18.5843  -24.9311  -12.5801 C   0  0  0  0  0  0  0  0  0  0  0  0
   19.2640  -23.6492  -12.8165 C   0  0  0  0  0  0  0  0  0  0  0  0
   20.7026  -23.5247  -12.9447 C   0  0  0  0  0  0  0  0  0  0  0  0
   21.4045  -22.2789  -13.2860 C   0  0  2  0  0  0  0  0  0  0  0  0
   22.8661  -22.5335  -13.2817 N   0  0  0  0  0  0  0  0  0  0  0  0
   21.1766  -21.0933  -12.4752 C   0  0  0  0  0  0  0  0  0  0  0  0
   20.1631  -20.1901  -12.8824 O   0  0  0  0  0  0  0  0  0  0  0  0
   21.7880  -20.7906  -11.4519 O   0  0  0  0  0  0  0  0  0  0  0  0
  2  1  1  6
  3  4  1  0
  3  2  1  0
  4  8  1  0
  5  6  1  0
  5  4  2  0
  6  7  1  0
  7  8  2  0
  9  2  1  0
  9 10  2  0
 12 14  1  0
 12 11  1  6
 13 12  1  0
 14 15  1  6
 15  9  1  0
 16 14  1  0
 17 16  2  0
 18 19  1  0
 19 20  2  0
 19 21  1  0
 21 22  1  0
 22 23  1  0
 23 24  1  0
 25 24  1  1
 25 27  1  0
 25 26  1  0
 26 16  1  0
 27 28  1  0
 29 27  2  0
M  END
$$$$
