HMT.pdb
     RDKit          3D

 26 26  0  0  1  0  0  0  0  0999 V2000
   18.1037  -11.4438  -18.3433 N   0  0  0  0  0  0  0  0  0  0  0  0
   18.8808  -10.2404  -18.4274 C   0  0  1  0  0  0  0  0  0  0  0  0
   17.9625   -9.1329  -18.9435 C   0  0  0  0  0  0  0  0  0  0  0  0
   17.7753   -9.2614  -20.4033 C   0  0  0  0  0  0  0  0  0  0  0  0
   18.4688  -10.0251  -21.3124 C   0  0  0  0  0  0  0  0  0  0  0  0
   17.9508   -9.8276  -22.5342 N   0  0  0  0  0  0  0  0  0  0  0  0
   16.9505   -8.9599  -22.4143 C   0  0  0  0  0  0  0  0  0  0  0  0
   16.8409   -8.6103  -21.1039 N   0  0  0  0  0  0  0  0  0  0  0  0
   19.4592   -9.8343  -17.1207 C   0  0  0  0  0  0  0  0  0  0  0  0
   18.7998  -10.1184  -16.0963 O   0  0  0  0  0  0  0  0  0  0  0  0
   22.9354  -10.2608  -11.3808 C   0  0  0  0  0  0  0  0  0  0  0  0
   22.2286  -10.4699  -13.0379 S   0  0  0  0  0  0  0  0  0  0  0  0
   23.1940   -9.5440  -14.2531 C   0  0  0  0  0  0  0  0  0  0  0  0
   22.5861   -9.7190  -15.6212 C   0  0  0  0  0  0  0  0  0  0  0  0
   21.3490   -8.8832  -15.8047 C   0  0  2  0  0  0  0  0  0  0  0  0
   20.6995   -9.1581  -17.0519 N   0  0  0  0  0  0  0  0  0  0  0  0
   21.6617   -7.4233  -15.6926 C   0  0  0  0  0  0  0  0  0  0  0  0
   22.4057   -6.7970  -16.4813 O   0  0  0  0  0  0  0  0  0  0  0  0
   19.5458   -4.5558  -15.9042 C   0  0  0  0  0  0  0  0  0  0  0  0
   20.1332   -4.4819  -14.5313 C   0  0  1  0  0  0  0  0  0  0  0  0
   19.1674   -4.9128  -13.6236 O   0  0  0  0  0  0  0  0  0  0  0  0
   21.4158   -5.2791  -14.3916 C   0  0  2  0  0  0  0  0  0  0  0  0
   21.0969   -6.6514  -14.6316 N   0  0  0  0  0  0  0  0  0  0  0  0
   22.1165   -5.0229  -13.1396 C   0  0  0  0  0  0  0  0  0  0  0  0
   22.6970   -3.7866  -12.8874 O   0  0  0  0  0  0  0  0  0  0  0  0
   22.2445   -5.8802  -12.2181 O   0  0  0  0  0  0  0  0  0  0  0  0
  2  1  1  1
  2  3  1  0
  3  4  1  0
  4  5  2  0
  5  6  1  0
  7  6  1  0
  8  4  1  0
  8  7  2  0
  9  2  1  0
 10  9  2  0
 11 12  1  0
 13 12  1  0
 15 14  1  6
 14 13  1  0
 15 16  1  0
 16  9  1  0
 17 18  2  0
 17 15  1  0
 20 22  1  0
 20 19  1  6
 21 20  1  0
 22 23  1  1
 23 17  1  0
 24 22  1  0
 25 24  1  0
 26 24  2  0
M  END
$$$$
