HMT.pdb
     RDKit          3D

 26 26  0  0  1  0  0  0  0  0999 V2000
   28.2730  -21.2894  -15.8405 N   0  0  0  0  0  0  0  0  0  0  0  0
   27.8105  -20.3521  -14.8572 C   0  0  1  0  0  0  0  0  0  0  0  0
   27.0804  -19.2306  -15.5956 C   0  0  0  0  0  0  0  0  0  0  0  0
   28.0312  -18.4561  -16.4196 C   0  0  0  0  0  0  0  0  0  0  0  0
   28.2126  -18.4562  -17.7825 C   0  0  0  0  0  0  0  0  0  0  0  0
   29.1915  -17.5928  -18.0929 N   0  0  0  0  0  0  0  0  0  0  0  0
   29.6284  -17.0516  -16.9596 C   0  0  0  0  0  0  0  0  0  0  0  0
   28.9156  -17.5815  -15.9288 N   0  0  0  0  0  0  0  0  0  0  0  0
   26.8954  -20.9656  -13.8606 C   0  0  0  0  0  0  0  0  0  0  0  0
   26.2336  -21.9590  -14.2351 O   0  0  0  0  0  0  0  0  0  0  0  0
   27.3436  -20.0353   -7.5513 C   0  0  0  0  0  0  0  0  0  0  0  0
   25.6983  -20.7983   -7.5373 S   0  0  0  0  0  0  0  0  0  0  0  0
   25.1367  -21.1092   -9.2267 C   0  0  0  0  0  0  0  0  0  0  0  0
   26.1905  -20.6507  -10.2020 C   0  0  0  0  0  0  0  0  0  0  0  0
   25.7865  -20.8924  -11.6307 C   0  0  2  0  0  0  0  0  0  0  0  0
   26.7868  -20.4408  -12.5517 N   0  0  0  0  0  0  0  0  0  0  0  0
   24.4701  -20.2479  -11.9364 C   0  0  0  0  0  0  0  0  0  0  0  0
   24.3355  -19.0663  -12.3281 O   0  0  0  0  0  0  0  0  0  0  0  0
   22.7416  -22.0366  -14.4194 C   0  0  0  0  0  0  0  0  0  0  0  0
   22.2962  -20.6932  -13.9376 C   0  0  1  0  0  0  0  0  0  0  0  0
   21.1608  -20.3292  -14.6591 O   0  0  0  0  0  0  0  0  0  0  0  0
   22.0357  -20.6558  -12.4439 C   0  0  2  0  0  0  0  0  0  0  0  0
   23.2592  -20.9908  -11.7859 N   0  0  0  0  0  0  0  0  0  0  0  0
   20.8852  -21.4555  -12.0425 C   0  0  0  0  0  0  0  0  0  0  0  0
   19.5907  -21.0069  -12.2698 O   0  0  0  0  0  0  0  0  0  0  0  0
   20.9769  -22.5825  -11.4748 O   0  0  0  0  0  0  0  0  0  0  0  0
  2  1  1  6
  2  3  1  0
  3  4  1  0
  4  5  2  0
  5  6  1  0
  7  6  1  0
  8  4  1  0
  8  7  2  0
  9  2  1  0
 10  9  2  0
 11 12  1  0
 13 12  1  0
 15 14  1  1
 14 13  1  0
 15 16  1  0
 16  9  1  0
 17 18  2  0
 17 15  1  0
 20 22  1  0
 20 19  1  6
 21 20  1  0
 22 23  1  1
 23 17  1  0
 24 22  1  0
 25 24  1  0
 26 24  2  0
M  END
$$$$
