HMT.pdb
     RDKit          3D

 26 26  0  0  1  0  0  0  0  0999 V2000
   27.7941  -20.7975  -16.4905 N   0  0  0  0  0  0  0  0  0  0  0  0
   27.4071  -20.0624  -15.3204 C   0  0  1  0  0  0  0  0  0  0  0  0
   26.7362  -18.7709  -15.7874 C   0  0  0  0  0  0  0  0  0  0  0  0
   27.6973  -17.9371  -16.5383 C   0  0  0  0  0  0  0  0  0  0  0  0
   28.8098  -17.2636  -16.0917 C   0  0  0  0  0  0  0  0  0  0  0  0
   29.3848  -16.6345  -17.1279 N   0  0  0  0  0  0  0  0  0  0  0  0
   28.6613  -16.8964  -18.2125 C   0  0  0  0  0  0  0  0  0  0  0  0
   27.6226  -17.6977  -17.8517 N   0  0  0  0  0  0  0  0  0  0  0  0
   26.4719  -20.8177  -14.4474 C   0  0  0  0  0  0  0  0  0  0  0  0
   25.5293  -21.4167  -15.0111 O   0  0  0  0  0  0  0  0  0  0  0  0
   24.2159  -20.4425   -8.0530 C   0  0  0  0  0  0  0  0  0  0  0  0
   26.0071  -20.3987   -8.3345 S   0  0  0  0  0  0  0  0  0  0  0  0
   26.3610  -20.2404  -10.0996 C   0  0  0  0  0  0  0  0  0  0  0  0
   26.2264  -21.5863  -10.7647 C   0  0  0  0  0  0  0  0  0  0  0  0
   25.7032  -21.4758  -12.1707 C   0  0  2  0  0  0  0  0  0  0  0  0
   26.6503  -20.8498  -13.0448 N   0  0  0  0  0  0  0  0  0  0  0  0
   24.3992  -20.7408  -12.2058 C   0  0  0  0  0  0  0  0  0  0  0  0
   24.2866  -19.4966  -12.1219 O   0  0  0  0  0  0  0  0  0  0  0  0
   21.9099  -21.6949  -14.8965 C   0  0  0  0  0  0  0  0  0  0  0  0
   21.7796  -20.5005  -14.0067 C   0  0  1  0  0  0  0  0  0  0  0  0
   20.5600  -19.8855  -14.2836 O   0  0  0  0  0  0  0  0  0  0  0  0
   21.9028  -20.8423  -12.5342 C   0  0  2  0  0  0  0  0  0  0  0  0
   23.1751  -21.4642  -12.3426 N   0  0  0  0  0  0  0  0  0  0  0  0
   20.7672  -21.6006  -12.0247 C   0  0  0  0  0  0  0  0  0  0  0  0
   20.9390  -22.8736  -11.4966 O   0  0  0  0  0  0  0  0  0  0  0  0
   19.5776  -21.1698  -12.0256 O   0  0  0  0  0  0  0  0  0  0  0  0
  2  1  1  6
  2  3  1  0
  3  4  1  0
  4  5  2  0
  5  6  1  0
  7  6  1  0
  8  4  1  0
  8  7  2  0
  9  2  1  0
 10  9  2  0
 11 12  1  0
 13 12  1  0
 15 14  1  1
 14 13  1  0
 15 16  1  0
 16  9  1  0
 17 18  2  0
 17 15  1  0
 20 22  1  0
 20 19  1  6
 21 20  1  0
 22 23  1  6
 23 17  1  0
 24 22  1  0
 25 24  1  0
 26 24  2  0
M  END
$$$$
