HMT.pdb
     RDKit          3D

 26 26  0  0  1  0  0  0  0  0999 V2000
   17.6385  -10.8359  -16.3533 N   0  0  0  0  0  0  0  0  0  0  0  0
   17.4140   -9.4849  -15.9249 C   0  0  1  0  0  0  0  0  0  0  0  0
   15.9241   -9.1884  -16.0936 C   0  0  0  0  0  0  0  0  0  0  0  0
   15.5645   -9.1702  -17.5265 C   0  0  0  0  0  0  0  0  0  0  0  0
   14.7889  -10.0475  -18.2471 C   0  0  0  0  0  0  0  0  0  0  0  0
   14.7343   -9.6359  -19.5229 N   0  0  0  0  0  0  0  0  0  0  0  0
   15.4556   -8.5231  -19.6205 C   0  0  0  0  0  0  0  0  0  0  0  0
   15.9673   -8.2350  -18.3931 N   0  0  0  0  0  0  0  0  0  0  0  0
   17.8068   -9.2550  -14.5107 C   0  0  0  0  0  0  0  0  0  0  0  0
   17.4669  -10.1259  -13.6795 O   0  0  0  0  0  0  0  0  0  0  0  0
   23.6757  -10.5721  -13.5388 C   0  0  0  0  0  0  0  0  0  0  0  0
   22.8999   -9.0253  -12.9955 S   0  0  0  0  0  0  0  0  0  0  0  0
   21.0999   -9.1637  -13.0780 C   0  0  0  0  0  0  0  0  0  0  0  0
   20.4736   -7.8486  -12.6904 C   0  0  0  0  0  0  0  0  0  0  0  0
   18.9730   -7.8826  -12.7891 C   0  0  2  0  0  0  0  0  0  0  0  0
   18.5317   -8.1002  -14.1348 N   0  0  0  0  0  0  0  0  0  0  0  0
   18.3669   -6.6284  -12.2401 C   0  0  0  0  0  0  0  0  0  0  0  0
   18.5257   -5.4902  -12.7369 O   0  0  0  0  0  0  0  0  0  0  0  0
   15.1150   -5.6574  -12.2166 C   0  0  0  0  0  0  0  0  0  0  0  0
   15.4387   -5.6308  -10.7573 C   0  0  1  0  0  0  0  0  0  0  0  0
   14.8842   -6.7667  -10.1702 O   0  0  0  0  0  0  0  0  0  0  0  0
   16.9274   -5.5389  -10.4820 C   0  0  2  0  0  0  0  0  0  0  0  0
   17.5450   -6.6841  -11.0730 N   0  0  0  0  0  0  0  0  0  0  0  0
   17.2381   -5.3339   -9.0728 C   0  0  0  0  0  0  0  0  0  0  0  0
   16.8150   -4.1901   -8.4083 O   0  0  0  0  0  0  0  0  0  0  0  0
   17.8958   -6.1565   -8.3717 O   0  0  0  0  0  0  0  0  0  0  0  0
  2  1  1  1
  2  3  1  0
  3  4  1  0
  4  5  2  0
  5  6  1  0
  7  6  1  0
  8  4  1  0
  8  7  2  0
  9  2  1  0
 10  9  2  0
 11 12  1  0
 13 12  1  0
 15 14  1  6
 14 13  1  0
 15 16  1  0
 16  9  1  0
 17 18  2  0
 17 15  1  0
 20 22  1  0
 20 19  1  6
 21 20  1  0
 22 23  1  1
 23 17  1  0
 24 22  1  0
 25 24  1  0
 26 24  2  0
M  END
$$$$
