HMT.pdb
     RDKit          3D

 26 26  0  0  1  0  0  0  0  0999 V2000
   32.0626  -25.3929  -15.2671 N   0  0  0  0  0  0  0  0  0  0  0  0
   31.8115  -25.9026  -16.5848 C   0  0  1  0  0  0  0  0  0  0  0  0
   31.0696  -24.8182  -17.3657 C   0  0  0  0  0  0  0  0  0  0  0  0
   29.7823  -24.5057  -16.7114 C   0  0  0  0  0  0  0  0  0  0  0  0
   28.7248  -25.3336  -16.4167 C   0  0  0  0  0  0  0  0  0  0  0  0
   27.7617  -24.6159  -15.8189 N   0  0  0  0  0  0  0  0  0  0  0  0
   28.1883  -23.3595  -15.7313 C   0  0  0  0  0  0  0  0  0  0  0  0
   29.4315  -23.2897  -16.2799 N   0  0  0  0  0  0  0  0  0  0  0  0
   33.0559  -26.2694  -17.3086 C   0  0  0  0  0  0  0  0  0  0  0  0
   33.9452  -25.3931  -17.3868 O   0  0  0  0  0  0  0  0  0  0  0  0
   38.7955  -30.0787  -15.1831 C   0  0  0  0  0  0  0  0  0  0  0  0
   37.1959  -29.2295  -15.0854 S   0  0  0  0  0  0  0  0  0  0  0  0
   36.5157  -28.9806  -16.7411 C   0  0  0  0  0  0  0  0  0  0  0  0
   35.1473  -28.3573  -16.6369 C   0  0  0  0  0  0  0  0  0  0  0  0
   34.4958  -28.1879  -17.9821 C   0  0  2  0  0  0  0  0  0  0  0  0
   33.2150  -27.5540  -17.8786 N   0  0  0  0  0  0  0  0  0  0  0  0
   34.3698  -29.5009  -18.6906 C   0  0  0  0  0  0  0  0  0  0  0  0
   33.3851  -30.2675  -18.5886 O   0  0  0  0  0  0  0  0  0  0  0  0
   34.0262  -31.8053  -22.4582 C   0  0  0  0  0  0  0  0  0  0  0  0
   34.0992  -30.8455  -21.3142 C   0  0  1  0  0  0  0  0  0  0  0  0
   32.9077  -30.9357  -20.5970 O   0  0  0  0  0  0  0  0  0  0  0  0
   35.3007  -31.0807  -20.4190 C   0  0  2  0  0  0  0  0  0  0  0  0
   35.4172  -29.9515  -19.5510 N   0  0  0  0  0  0  0  0  0  0  0  0
   36.5115  -31.4116  -21.1598 C   0  0  0  0  0  0  0  0  0  0  0  0
   36.5495  -32.5086  -22.0107 O   0  0  0  0  0  0  0  0  0  0  0  0
   37.5845  -30.7454  -21.0855 O   0  0  0  0  0  0  0  0  0  0  0  0
  2  1  1  1
  2  3  1  0
  3  4  1  0
  4  5  2  0
  5  6  1  0
  7  6  1  0
  8  4  1  0
  8  7  2  0
  9  2  1  0
 10  9  2  0
 11 12  1  0
 13 12  1  0
 15 14  1  1
 14 13  1  0
 15 16  1  0
 16  9  1  0
 17 18  2  0
 17 15  1  0
 20 22  1  0
 20 19  1  6
 21 20  1  0
 22 23  1  6
 23 17  1  0
 24 22  1  0
 25 24  1  0
 26 24  2  0
M  END
$$$$
