HMT.pdb
     RDKit          3D

 26 26  0  0  1  0  0  0  0  0999 V2000
   14.5792  -22.6347   -5.0472 N   0  0  0  0  0  0  0  0  0  0  0  0
   14.0477  -23.4920   -4.0266 C   0  0  1  0  0  0  0  0  0  0  0  0
   13.8926  -24.8876   -4.6303 C   0  0  0  0  0  0  0  0  0  0  0  0
   12.9760  -24.8458   -5.7882 C   0  0  0  0  0  0  0  0  0  0  0  0
   13.2624  -24.8103   -7.1325 C   0  0  0  0  0  0  0  0  0  0  0  0
   12.1128  -24.7794   -7.8235 N   0  0  0  0  0  0  0  0  0  0  0  0
   11.1131  -24.7947   -6.9469 C   0  0  0  0  0  0  0  0  0  0  0  0
   11.6422  -24.8355   -5.6940 N   0  0  0  0  0  0  0  0  0  0  0  0
   14.9179  -23.5671   -2.8248 C   0  0  0  0  0  0  0  0  0  0  0  0
   16.1522  -23.4906   -3.0134 O   0  0  0  0  0  0  0  0  0  0  0  0
   17.5909  -19.2555    1.7132 C   0  0  0  0  0  0  0  0  0  0  0  0
   16.0558  -20.2143    1.5974 S   0  0  0  0  0  0  0  0  0  0  0  0
   16.3227  -21.7100    0.6189 C   0  0  0  0  0  0  0  0  0  0  0  0
   15.0119  -22.4288    0.4265 C   0  0  0  0  0  0  0  0  0  0  0  0
   15.1730  -23.7068   -0.3504 C   0  0  2  0  0  0  0  0  0  0  0  0
   14.3635  -23.7182   -1.5325 N   0  0  0  0  0  0  0  0  0  0  0  0
   14.8656  -24.8992    0.5012 C   0  0  0  0  0  0  0  0  0  0  0  0
   13.7092  -25.3013    0.7636 O   0  0  0  0  0  0  0  0  0  0  0  0
   16.5133  -28.3476    0.0108 C   0  0  0  0  0  0  0  0  0  0  0  0
   16.7490  -27.8661    1.4064 C   0  0  1  0  0  0  0  0  0  0  0  0
   18.0450  -27.3585    1.4759 O   0  0  0  0  0  0  0  0  0  0  0  0
   15.7294  -26.8385    1.8589 C   0  0  2  0  0  0  0  0  0  0  0  0
   15.9295  -25.6607    1.0746 N   0  0  0  0  0  0  0  0  0  0  0  0
   15.7339  -26.6228    3.3003 C   0  0  0  0  0  0  0  0  0  0  0  0
   15.3992  -27.6478    4.1757 O   0  0  0  0  0  0  0  0  0  0  0  0
   16.0333  -25.5207    3.8448 O   0  0  0  0  0  0  0  0  0  0  0  0
  2  1  1  6
  2  3  1  0
  3  4  1  0
  4  5  2  0
  5  6  1  0
  7  6  1  0
  8  4  1  0
  8  7  2  0
  9  2  1  0
 10  9  2  0
 11 12  1  0
 13 12  1  0
 15 14  1  1
 14 13  1  0
 15 16  1  0
 16  9  1  0
 17 18  2  0
 17 15  1  0
 20 22  1  0
 20 19  1  6
 21 20  1  0
 22 23  1  6
 23 17  1  0
 24 22  1  0
 25 24  1  0
 26 24  2  0
M  END
$$$$
