HMT.pdb
     RDKit          3D

 26 26  0  0  1  0  0  0  0  0999 V2000
   26.8844  -19.0321  -16.7661 N   0  0  0  0  0  0  0  0  0  0  0  0
   26.2869  -18.5770  -15.5433 C   0  0  1  0  0  0  0  0  0  0  0  0
   25.3402  -17.4286  -15.8915 C   0  0  0  0  0  0  0  0  0  0  0  0
   26.1109  -16.2237  -16.2615 C   0  0  0  0  0  0  0  0  0  0  0  0
   27.3693  -15.8330  -15.8688 C   0  0  0  0  0  0  0  0  0  0  0  0
   27.6670  -14.6641  -16.4564 N   0  0  0  0  0  0  0  0  0  0  0  0
   26.6275  -14.3121  -17.2072 C   0  0  0  0  0  0  0  0  0  0  0  0
   25.6690  -15.2705  -17.0886 N   0  0  0  0  0  0  0  0  0  0  0  0
   25.5314  -19.6441  -14.8380 C   0  0  0  0  0  0  0  0  0  0  0  0
   24.9881  -20.5183  -15.5491 O   0  0  0  0  0  0  0  0  0  0  0  0
   29.2975  -21.8269   -9.9282 C   0  0  0  0  0  0  0  0  0  0  0  0
   27.5206  -21.4778   -9.8272 S   0  0  0  0  0  0  0  0  0  0  0  0
   26.8354  -21.2283  -11.4807 C   0  0  0  0  0  0  0  0  0  0  0  0
   25.3532  -20.9729  -11.3804 C   0  0  0  0  0  0  0  0  0  0  0  0
   24.7335  -20.6879  -12.7211 C   0  0  2  0  0  0  0  0  0  0  0  0
   25.4384  -19.6593  -13.4268 N   0  0  0  0  0  0  0  0  0  0  0  0
   23.2876  -20.3250  -12.5818 C   0  0  0  0  0  0  0  0  0  0  0  0
   22.8676  -19.3158  -11.9711 O   0  0  0  0  0  0  0  0  0  0  0  0
   20.9148  -19.6417  -15.2340 C   0  0  0  0  0  0  0  0  0  0  0  0
   20.3301  -20.7855  -14.4690 C   0  0  1  0  0  0  0  0  0  0  0  0
   20.5539  -21.9525  -15.1971 O   0  0  0  0  0  0  0  0  0  0  0  0
   20.8813  -20.9001  -13.0607 C   0  0  2  0  0  0  0  0  0  0  0  0
   22.2834  -21.1550  -13.1677 N   0  0  0  0  0  0  0  0  0  0  0  0
   20.1473  -21.8493  -12.2334 C   0  0  0  0  0  0  0  0  0  0  0  0
   18.8778  -21.5479  -11.7577 O   0  0  0  0  0  0  0  0  0  0  0  0
   20.5975  -22.9829  -11.8971 O   0  0  0  0  0  0  0  0  0  0  0  0
  2  1  1  6
  2  3  1  0
  3  4  1  0
  4  5  2  0
  5  6  1  0
  7  6  1  0
  8  4  1  0
  8  7  2  0
  9  2  1  0
 10  9  2  0
 11 12  1  0
 13 12  1  0
 15 14  1  1
 14 13  1  0
 15 16  1  0
 16  9  1  0
 17 18  2  0
 17 15  1  0
 20 22  1  0
 20 19  1  6
 21 20  1  0
 22 23  1  6
 23 17  1  0
 24 22  1  0
 25 24  1  0
 26 24  2  0
M  END
$$$$
