HMT.pdb
     RDKit          3D

 26 26  0  0  1  0  0  0  0  0999 V2000
   20.7648  -12.8728  -17.4340 N   0  0  0  0  0  0  0  0  0  0  0  0
   21.0714  -11.5212  -17.8063 C   0  0  1  0  0  0  0  0  0  0  0  0
   19.7803  -10.8770  -18.3106 C   0  0  0  0  0  0  0  0  0  0  0  0
   19.3724  -11.4842  -19.5942 C   0  0  0  0  0  0  0  0  0  0  0  0
   19.4031  -10.9557  -20.8632 C   0  0  0  0  0  0  0  0  0  0  0  0
   18.9346  -11.8683  -21.7279 N   0  0  0  0  0  0  0  0  0  0  0  0
   18.6109  -12.9552  -21.0336 C   0  0  0  0  0  0  0  0  0  0  0  0
   18.8796  -12.7208  -19.7204 N   0  0  0  0  0  0  0  0  0  0  0  0
   21.6155  -10.7213  -16.6788 C   0  0  0  0  0  0  0  0  0  0  0  0
   21.0640  -10.8637  -15.5650 O   0  0  0  0  0  0  0  0  0  0  0  0
   27.5003  -12.4916  -15.2778 C   0  0  0  0  0  0  0  0  0  0  0  0
   26.9779  -10.7764  -15.5511 S   0  0  0  0  0  0  0  0  0  0  0  0
   25.1789  -10.6438  -15.4432 C   0  0  0  0  0  0  0  0  0  0  0  0
   24.7593   -9.2224  -15.7185 C   0  0  0  0  0  0  0  0  0  0  0  0
   23.2643   -9.0757  -15.7951 C   0  0  2  0  0  0  0  0  0  0  0  0
   22.7073   -9.8428  -16.8696 N   0  0  0  0  0  0  0  0  0  0  0  0
   22.8684   -7.6375  -15.9241 C   0  0  0  0  0  0  0  0  0  0  0  0
   23.1950   -6.8973  -16.8797 O   0  0  0  0  0  0  0  0  0  0  0  0
   19.7328   -6.3201  -16.4433 C   0  0  0  0  0  0  0  0  0  0  0  0
   20.1435   -5.6507  -15.1712 C   0  0  1  0  0  0  0  0  0  0  0  0
   19.4762   -6.2747  -14.1187 O   0  0  0  0  0  0  0  0  0  0  0  0
   21.6446   -5.6594  -14.9547 C   0  0  2  0  0  0  0  0  0  0  0  0
   22.0648   -7.0247  -14.9144 N   0  0  0  0  0  0  0  0  0  0  0  0
   22.0638   -4.8554  -13.8136 C   0  0  0  0  0  0  0  0  0  0  0  0
   21.9009   -3.4762  -13.8147 O   0  0  0  0  0  0  0  0  0  0  0  0
   22.5910   -5.3384  -12.7697 O   0  0  0  0  0  0  0  0  0  0  0  0
  2  1  1  1
  2  3  1  0
  3  4  1  0
  4  5  2  0
  5  6  1  0
  7  6  1  0
  8  4  1  0
  8  7  2  0
  9  2  1  0
 10  9  2  0
 11 12  1  0
 13 12  1  0
 15 14  1  6
 14 13  1  0
 15 16  1  0
 16  9  1  0
 17 18  2  0
 17 15  1  0
 20 22  1  0
 20 19  1  6
 21 20  1  0
 22 23  1  1
 23 17  1  0
 24 22  1  0
 25 24  1  0
 26 24  2  0
M  END
$$$$
