IQF.pdb
     RDKit          3D

 29 29  0  0  1  0  0  0  0  0999 V2000
    7.5102  -11.8370   18.7624 C   0  0  0  0  0  0  0  0  0  0  0  0
    7.9204  -13.2181   18.2491 C   0  0  0  0  0  0  0  0  0  0  0  0
    8.2433  -14.0594   19.4344 C   0  0  2  0  0  0  0  0  0  0  0  0
    9.3033  -13.3726   20.2814 C   0  0  0  0  0  0  0  0  0  0  0  0
    8.5475  -15.4881   19.1872 C   0  0  2  0  0  0  0  0  0  0  0  0
    7.4611  -16.0398   18.3330 N   0  0  0  0  0  0  0  0  0  0  0  0
    8.7161  -16.3857   20.3168 C   0  0  0  0  0  0  0  0  0  0  0  0
    7.6736  -16.7210   20.9944 O   0  0  0  0  0  0  0  0  0  0  0  0
   13.6330  -20.0805   21.8055 N   0  0  0  0  0  0  0  0  0  0  0  0
   12.9086  -20.0797   23.0128 C   0  0  0  0  0  0  0  0  0  0  0  0
   13.3386  -20.8172   23.9554 O   0  0  0  0  0  0  0  0  0  0  0  0
   11.6764  -19.2384   23.1807 C   0  0  0  0  0  0  0  0  0  0  0  0
   11.3847  -18.4549   21.9409 C   0  0  0  0  0  0  0  0  0  0  0  0
   10.1040  -17.6262   22.0566 C   0  0  2  0  0  0  0  0  0  0  0  0
    9.9119  -16.9702   20.7896 N   0  0  0  0  0  0  0  0  0  0  0  0
   10.1126  -16.8132   23.2470 C   0  0  0  0  0  0  0  0  0  0  0  0
   10.5842  -15.6239   23.1246 O   0  0  0  0  0  0  0  0  0  0  0  0
    9.6740  -17.1404   24.5523 N   0  0  0  0  0  0  0  0  0  0  0  0
    9.3089  -16.0845   25.4836 C   0  0  1  0  0  0  0  0  0  0  0  0
    8.2978  -15.1209   25.0264 C   0  0  0  0  0  0  0  0  0  0  0  0
    7.9275  -14.0305   25.9207 C   0  0  0  0  0  0  0  0  0  0  0  0
    6.6485  -13.9941   26.4435 C   0  0  0  0  0  0  0  0  0  0  0  0
    6.2163  -12.9899   27.3039 C   0  0  0  0  0  0  0  0  0  0  0  0
    7.0778  -11.9839   27.6637 C   0  0  0  0  0  0  0  0  0  0  0  0
    8.3568  -12.0026   27.1541 C   0  0  0  0  0  0  0  0  0  0  0  0
    8.7806  -13.0230   26.2859 C   0  0  0  0  0  0  0  0  0  0  0  0
    8.9209  -16.7113   26.8035 C   0  0  0  0  0  0  0  0  0  0  0  0
    9.3560  -16.1330   27.9513 O   0  0  0  0  0  0  0  0  0  0  0  0
    8.2241  -17.7272   26.7971 O   0  0  0  0  0  0  0  0  0  0  0  0
  2  3  1  0
  2  1  1  0
  3  5  1  0
  3  4  1  6
  5  7  1  0
  5  6  1  6
  7  8  2  0
  7 15  1  0
  9 10  1  0
 10 11  2  0
 10 12  1  0
 12 13  1  0
 14 13  1  6
 14 16  1  0
 15 14  1  0
 16 17  2  0
 18 16  1  0
 18 19  1  0
 19 27  1  0
 19 20  1  6
 21 26  2  0
 21 20  1  0
 22 21  1  0
 23 24  1  0
 23 22  2  0
 24 25  2  0
 25 26  1  0
 27 28  1  0
 29 27  2  0
M  END
$$$$
