IQF.pdb
     RDKit          3D

 29 29  0  0  1  0  0  0  0  0999 V2000
    7.9939  -12.2416   18.9674 C   0  0  0  0  0  0  0  0  0  0  0  0
    7.6207  -13.7179   18.8248 C   0  0  0  0  0  0  0  0  0  0  0  0
    7.7988  -14.3564   20.1582 C   0  0  2  0  0  0  0  0  0  0  0  0
    9.1742  -14.0189   20.7123 C   0  0  0  0  0  0  0  0  0  0  0  0
    7.4780  -15.7987   20.2658 C   0  0  2  0  0  0  0  0  0  0  0  0
    6.1362  -16.0094   19.6581 N   0  0  0  0  0  0  0  0  0  0  0  0
    7.4715  -16.4307   21.5737 C   0  0  0  0  0  0  0  0  0  0  0  0
    6.4018  -16.3534   22.2867 O   0  0  0  0  0  0  0  0  0  0  0  0
    5.9798  -19.9939   23.9619 N   0  0  0  0  0  0  0  0  0  0  0  0
    7.0038  -20.3249   24.8697 C   0  0  0  0  0  0  0  0  0  0  0  0
    6.6612  -20.8645   25.9692 O   0  0  0  0  0  0  0  0  0  0  0  0
    8.4453  -20.0525   24.5503 C   0  0  0  0  0  0  0  0  0  0  0  0
    8.5793  -19.2787   23.2777 C   0  0  0  0  0  0  0  0  0  0  0  0
    8.4783  -17.7677   23.4948 C   0  0  2  0  0  0  0  0  0  0  0  0
    8.5152  -17.1528   22.1936 N   0  0  0  0  0  0  0  0  0  0  0  0
    9.4240  -17.3170   24.4851 C   0  0  0  0  0  0  0  0  0  0  0  0
   10.0650  -18.2308   25.1224 O   0  0  0  0  0  0  0  0  0  0  0  0
    9.7518  -15.9940   24.8664 N   0  0  0  0  0  0  0  0  0  0  0  0
    9.2469  -15.4510   26.1177 C   0  0  1  0  0  0  0  0  0  0  0  0
    7.8062  -15.1673   26.1812 C   0  0  0  0  0  0  0  0  0  0  0  0
    7.3823  -13.8094   26.5014 C   0  0  0  0  0  0  0  0  0  0  0  0
    6.1725  -13.6157   27.1413 C   0  0  0  0  0  0  0  0  0  0  0  0
    5.6962  -12.3539   27.4827 C   0  0  0  0  0  0  0  0  0  0  0  0
    6.4410  -11.2408   27.1829 C   0  0  0  0  0  0  0  0  0  0  0  0
    7.6496  -11.4127   26.5461 C   0  0  0  0  0  0  0  0  0  0  0  0
    8.1192  -12.6930   26.2070 C   0  0  0  0  0  0  0  0  0  0  0  0
    9.6857  -16.3496   27.2515 C   0  0  0  0  0  0  0  0  0  0  0  0
    9.1627  -17.5990   27.3314 O   0  0  0  0  0  0  0  0  0  0  0  0
   10.5022  -15.9204   28.0682 O   0  0  0  0  0  0  0  0  0  0  0  0
  2  3  1  0
  2  1  1  0
  3  5  1  0
  3  4  1  6
  5  7  1  0
  5  6  1  1
  7  8  2  0
  7 15  1  0
  9 10  1  0
 10 11  2  0
 10 12  1  0
 12 13  1  0
 14 13  1  6
 14 16  1  0
 15 14  1  0
 16 17  2  0
 18 16  1  0
 18 19  1  0
 19 27  1  0
 19 20  1  6
 21 26  2  0
 21 20  1  0
 22 21  1  0
 23 24  1  0
 23 22  2  0
 24 25  2  0
 25 26  1  0
 27 28  1  0
 29 27  2  0
M  END
$$$$
