IQF.pdb
     RDKit          3D

 29 29  0  0  1  0  0  0  0  0999 V2000
    7.4006  -12.2665   20.5081 C   0  0  0  0  0  0  0  0  0  0  0  0
    6.9029  -13.6960   20.7275 C   0  0  0  0  0  0  0  0  0  0  0  0
    8.0678  -14.6076   20.5566 C   0  0  2  0  0  0  0  0  0  0  0  0
    8.7728  -14.3035   19.2439 C   0  0  0  0  0  0  0  0  0  0  0  0
    7.8277  -16.0562   20.7534 C   0  0  2  0  0  0  0  0  0  0  0  0
    7.0043  -16.5367   19.6108 N   0  0  0  0  0  0  0  0  0  0  0  0
    7.1897  -16.5122   21.9762 C   0  0  0  0  0  0  0  0  0  0  0  0
    5.9210  -16.7327   21.9605 O   0  0  0  0  0  0  0  0  0  0  0  0
    9.1766  -20.2461   26.4590 N   0  0  0  0  0  0  0  0  0  0  0  0
    8.0156  -19.7243   27.0608 C   0  0  0  0  0  0  0  0  0  0  0  0
    7.6766  -20.1992   28.1908 O   0  0  0  0  0  0  0  0  0  0  0  0
    7.2101  -18.6469   26.3940 C   0  0  0  0  0  0  0  0  0  0  0  0
    7.9315  -18.0888   25.2090 C   0  0  0  0  0  0  0  0  0  0  0  0
    7.1155  -17.0261   24.4707 C   0  0  2  0  0  0  0  0  0  0  0  0
    7.7936  -16.7637   23.2281 N   0  0  0  0  0  0  0  0  0  0  0  0
    6.8151  -15.9074   25.3288 C   0  0  0  0  0  0  0  0  0  0  0  0
    5.9360  -16.1082   26.2447 O   0  0  0  0  0  0  0  0  0  0  0  0
    7.3530  -14.5984   25.3068 N   0  0  0  0  0  0  0  0  0  0  0  0
    6.9050  -13.6110   26.2763 C   0  0  1  0  0  0  0  0  0  0  0  0
    7.9490  -12.9208   27.0469 C   0  0  0  0  0  0  0  0  0  0  0  0
    8.9332  -13.7294   27.7565 C   0  0  0  0  0  0  0  0  0  0  0  0
    8.9603  -13.6969   29.1381 C   0  0  0  0  0  0  0  0  0  0  0  0
    9.8661  -14.4385   29.8899 C   0  0  0  0  0  0  0  0  0  0  0  0
   10.7792  -15.2435   29.2560 C   0  0  0  0  0  0  0  0  0  0  0  0
   10.7680  -15.2901   27.8799 C   0  0  0  0  0  0  0  0  0  0  0  0
    9.8476  -14.5360   27.1325 C   0  0  0  0  0  0  0  0  0  0  0  0
    5.9864  -12.6299   25.5842 C   0  0  0  0  0  0  0  0  0  0  0  0
    5.3179  -11.7212   26.3381 O   0  0  0  0  0  0  0  0  0  0  0  0
    5.8716  -12.6860   24.3588 O   0  0  0  0  0  0  0  0  0  0  0  0
  2  3  1  0
  2  1  1  0
  3  5  1  0
  3  4  1  6
  5  7  1  0
  5  6  1  6
  7  8  2  0
  7 15  1  0
  9 10  1  0
 10 11  2  0
 10 12  1  0
 12 13  1  0
 14 13  1  1
 14 16  1  0
 15 14  1  0
 16 17  2  0
 18 16  1  0
 18 19  1  0
 19 27  1  0
 19 20  1  6
 21 26  2  0
 21 20  1  0
 22 21  1  0
 23 24  1  0
 23 22  2  0
 24 25  2  0
 25 26  1  0
 27 28  1  0
 29 27  2  0
M  END
$$$$
