IQF.pdb
     RDKit          3D

 29 29  0  0  1  0  0  0  0  0999 V2000
    7.1898  -11.7704   19.5978 C   0  0  0  0  0  0  0  0  0  0  0  0
    7.2321  -13.2439   19.1901 C   0  0  0  0  0  0  0  0  0  0  0  0
    7.8703  -13.9991   20.3035 C   0  0  2  0  0  0  0  0  0  0  0  0
    9.2082  -13.3675   20.6551 C   0  0  0  0  0  0  0  0  0  0  0  0
    7.9537  -15.4714   20.1616 C   0  0  2  0  0  0  0  0  0  0  0  0
    6.5953  -15.9691   19.8132 N   0  0  0  0  0  0  0  0  0  0  0  0
    8.4403  -16.2673   21.2751 C   0  0  0  0  0  0  0  0  0  0  0  0
    7.6142  -16.5806   22.2121 O   0  0  0  0  0  0  0  0  0  0  0  0
   13.8671  -19.5211   21.6558 N   0  0  0  0  0  0  0  0  0  0  0  0
   13.4725  -19.4848   23.0069 C   0  0  0  0  0  0  0  0  0  0  0  0
   14.2143  -20.0804   23.8508 O   0  0  0  0  0  0  0  0  0  0  0  0
   12.2241  -18.7685   23.4342 C   0  0  0  0  0  0  0  0  0  0  0  0
   11.5559  -18.1078   22.2711 C   0  0  0  0  0  0  0  0  0  0  0  0
   10.2322  -17.4428   22.6533 C   0  0  2  0  0  0  0  0  0  0  0  0
    9.7444  -16.7709   21.4772 N   0  0  0  0  0  0  0  0  0  0  0  0
   10.3631  -16.6763   23.8672 C   0  0  0  0  0  0  0  0  0  0  0  0
   10.6959  -15.4422   23.7321 O   0  0  0  0  0  0  0  0  0  0  0  0
   10.1792  -17.0924   25.2074 N   0  0  0  0  0  0  0  0  0  0  0  0
    9.4874  -16.2271   26.1499 C   0  0  1  0  0  0  0  0  0  0  0  0
    8.2831  -15.5435   25.6577 C   0  0  0  0  0  0  0  0  0  0  0  0
    8.0184  -14.1876   26.1241 C   0  0  0  0  0  0  0  0  0  0  0  0
    6.8106  -13.5925   25.8113 C   0  0  0  0  0  0  0  0  0  0  0  0
    6.4798  -12.3038   26.2183 C   0  0  0  0  0  0  0  0  0  0  0  0
    7.3729  -11.5744   26.9627 C   0  0  0  0  0  0  0  0  0  0  0  0
    8.5814  -12.1499   27.2852 C   0  0  0  0  0  0  0  0  0  0  0  0
    8.9030  -13.4526   26.8679 C   0  0  0  0  0  0  0  0  0  0  0  0
    9.2045  -17.0090   27.4125 C   0  0  0  0  0  0  0  0  0  0  0  0
    9.3058  -16.3742   28.6074 O   0  0  0  0  0  0  0  0  0  0  0  0
    8.8927  -18.1971   27.3186 O   0  0  0  0  0  0  0  0  0  0  0  0
  2  3  1  0
  2  1  1  0
  3  5  1  0
  3  4  1  6
  5  7  1  0
  5  6  1  1
  7  8  2  0
  7 15  1  0
  9 10  1  0
 10 11  2  0
 10 12  1  0
 12 13  1  0
 14 13  1  6
 14 16  1  0
 15 14  1  0
 16 17  2  0
 18 16  1  0
 18 19  1  0
 19 27  1  0
 19 20  1  6
 21 26  2  0
 21 20  1  0
 22 21  1  0
 23 24  1  0
 23 22  2  0
 24 25  2  0
 25 26  1  0
 27 28  1  0
 29 27  2  0
M  END
$$$$
