IQF.pdb
     RDKit          3D

 29 29  0  0  1  0  0  0  0  0999 V2000
    7.6929  -11.9087   18.5279 C   0  0  0  0  0  0  0  0  0  0  0  0
    8.1847  -13.2729   18.0416 C   0  0  0  0  0  0  0  0  0  0  0  0
    8.4067  -14.1240   19.2431 C   0  0  2  0  0  0  0  0  0  0  0  0
    9.3003  -13.3947   20.2342 C   0  0  0  0  0  0  0  0  0  0  0  0
    8.8344  -15.5233   19.0111 C   0  0  2  0  0  0  0  0  0  0  0  0
    7.9097  -16.1177   18.0082 N   0  0  0  0  0  0  0  0  0  0  0  0
    8.9102  -16.4401   20.1354 C   0  0  0  0  0  0  0  0  0  0  0  0
    7.8198  -16.9717   20.5676 O   0  0  0  0  0  0  0  0  0  0  0  0
   11.0927  -21.8704   21.1074 N   0  0  0  0  0  0  0  0  0  0  0  0
   11.8804  -20.7415   21.4034 C   0  0  0  0  0  0  0  0  0  0  0  0
   12.9338  -20.9254   22.0917 O   0  0  0  0  0  0  0  0  0  0  0  0
   11.4917  -19.3733   20.9225 C   0  0  0  0  0  0  0  0  0  0  0  0
   11.4024  -18.4067   22.0599 C   0  0  0  0  0  0  0  0  0  0  0  0
   10.0907  -17.6193   22.0609 C   0  0  2  0  0  0  0  0  0  0  0  0
   10.0610  -16.8505   20.8441 N   0  0  0  0  0  0  0  0  0  0  0  0
    9.8997  -16.9224   23.3084 C   0  0  0  0  0  0  0  0  0  0  0  0
   10.7740  -16.0280   23.6042 O   0  0  0  0  0  0  0  0  0  0  0  0
    8.8756  -17.0851   24.2716 N   0  0  0  0  0  0  0  0  0  0  0  0
    8.6219  -16.0375   25.2483 C   0  0  1  0  0  0  0  0  0  0  0  0
    7.7553  -14.9306   24.8197 C   0  0  0  0  0  0  0  0  0  0  0  0
    7.4603  -13.8723   25.7784 C   0  0  0  0  0  0  0  0  0  0  0  0
    6.1821  -13.7692   26.2944 C   0  0  0  0  0  0  0  0  0  0  0  0
    5.8191  -12.7898   27.2134 C   0  0  0  0  0  0  0  0  0  0  0  0
    6.7516  -11.8780   27.6409 C   0  0  0  0  0  0  0  0  0  0  0  0
    8.0309  -11.9643   27.1392 C   0  0  0  0  0  0  0  0  0  0  0  0
    8.3844  -12.9587   26.2113 C   0  0  0  0  0  0  0  0  0  0  0  0
    8.1201  -16.6725   26.5252 C   0  0  0  0  0  0  0  0  0  0  0  0
    8.6335  -16.2494   27.7078 O   0  0  0  0  0  0  0  0  0  0  0  0
    7.2629  -17.5545   26.4534 O   0  0  0  0  0  0  0  0  0  0  0  0
  2  3  1  0
  2  1  1  0
  3  5  1  0
  3  4  1  1
  5  7  1  0
  5  6  1  6
  7  8  2  0
  7 15  1  0
  9 10  1  0
 10 11  2  0
 10 12  1  0
 12 13  1  0
 14 13  1  1
 14 16  1  0
 15 14  1  0
 16 17  2  0
 18 16  1  0
 18 19  1  0
 19 27  1  0
 19 20  1  6
 21 26  2  0
 21 20  1  0
 22 21  1  0
 23 24  1  0
 23 22  2  0
 24 25  2  0
 25 26  1  0
 27 28  1  0
 29 27  2  0
M  END
$$$$
