IQF.pdb
     RDKit          3D

 29 29  0  0  1  0  0  0  0  0999 V2000
    7.8985  -11.7415   21.2054 C   0  0  0  0  0  0  0  0  0  0  0  0
    7.4697  -13.1816   21.4911 C   0  0  0  0  0  0  0  0  0  0  0  0
    7.8879  -14.0130   20.3287 C   0  0  2  0  0  0  0  0  0  0  0  0
    7.2981  -13.4433   19.0480 C   0  0  0  0  0  0  0  0  0  0  0  0
    7.6988  -15.4780   20.4421 C   0  0  2  0  0  0  0  0  0  0  0  0
    6.2365  -15.7495   20.3933 N   0  0  0  0  0  0  0  0  0  0  0  0
    8.2367  -16.1780   21.5956 C   0  0  0  0  0  0  0  0  0  0  0  0
    7.4334  -16.4918   22.5519 O   0  0  0  0  0  0  0  0  0  0  0  0
   12.6349  -20.9127   21.6432 N   0  0  0  0  0  0  0  0  0  0  0  0
   12.1743  -19.7822   20.9414 C   0  0  0  0  0  0  0  0  0  0  0  0
   12.8280  -19.4252   19.9106 O   0  0  0  0  0  0  0  0  0  0  0  0
   10.9566  -19.0287   21.3926 C   0  0  0  0  0  0  0  0  0  0  0  0
   11.2844  -18.0946   22.5134 C   0  0  0  0  0  0  0  0  0  0  0  0
   10.0734  -17.2814   22.9744 C   0  0  2  0  0  0  0  0  0  0  0  0
    9.5710  -16.5842   21.8195 N   0  0  0  0  0  0  0  0  0  0  0  0
   10.3795  -16.5093   24.1528 C   0  0  0  0  0  0  0  0  0  0  0  0
   10.5701  -15.2503   23.9788 O   0  0  0  0  0  0  0  0  0  0  0  0
   10.5064  -16.9436   25.4939 N   0  0  0  0  0  0  0  0  0  0  0  0
    9.8512  -16.2062   26.5628 C   0  0  1  0  0  0  0  0  0  0  0  0
    8.4862  -15.7308   26.2970 C   0  0  0  0  0  0  0  0  0  0  0  0
    8.2377  -14.2942   26.3196 C   0  0  0  0  0  0  0  0  0  0  0  0
    7.1119  -13.7963   25.6908 C   0  0  0  0  0  0  0  0  0  0  0  0
    6.8019  -12.4403   25.6671 C   0  0  0  0  0  0  0  0  0  0  0  0
    7.6323  -11.5408   26.2876 C   0  0  0  0  0  0  0  0  0  0  0  0
    8.7587  -12.0171   26.9203 C   0  0  0  0  0  0  0  0  0  0  0  0
    9.0602  -13.3895   26.9369 C   0  0  0  0  0  0  0  0  0  0  0  0
    9.9159  -17.0261   27.8314 C   0  0  0  0  0  0  0  0  0  0  0  0
    9.8294  -18.3770   27.7383 O   0  0  0  0  0  0  0  0  0  0  0  0
   10.0433  -16.4437   28.9095 O   0  0  0  0  0  0  0  0  0  0  0  0
  2  3  1  0
  2  1  1  0
  3  5  1  0
  3  4  1  6
  5  7  1  0
  5  6  1  1
  7  8  2  0
  7 15  1  0
  9 10  1  0
 10 11  2  0
 10 12  1  0
 12 13  1  0
 14 13  1  6
 14 16  1  0
 15 14  1  0
 16 17  2  0
 18 16  1  0
 18 19  1  0
 19 27  1  0
 19 20  1  6
 21 26  2  0
 21 20  1  0
 22 21  1  0
 23 24  1  0
 23 22  2  0
 24 25  2  0
 25 26  1  0
 27 28  1  0
 29 27  2  0
M  END
$$$$
