IQF.pdb
     RDKit          3D

 29 29  0  0  1  0  0  0  0  0999 V2000
    8.4774  -11.7852   20.6702 C   0  0  0  0  0  0  0  0  0  0  0  0
    7.9543  -13.2056   20.8896 C   0  0  0  0  0  0  0  0  0  0  0  0
    8.5918  -14.0812   19.8678 C   0  0  2  0  0  0  0  0  0  0  0  0
    8.2707  -13.5655   18.4736 C   0  0  0  0  0  0  0  0  0  0  0  0
    8.3779  -15.5412   19.9998 C   0  0  2  0  0  0  0  0  0  0  0  0
    6.9669  -15.8267   19.6232 N   0  0  0  0  0  0  0  0  0  0  0  0
    8.6297  -16.1848   21.2775 C   0  0  0  0  0  0  0  0  0  0  0  0
    7.6578  -16.2831   22.1166 O   0  0  0  0  0  0  0  0  0  0  0  0
   12.4827  -21.0681   20.9492 N   0  0  0  0  0  0  0  0  0  0  0  0
   12.0865  -19.7195   20.8669 C   0  0  0  0  0  0  0  0  0  0  0  0
   12.8587  -18.9178   20.2518 O   0  0  0  0  0  0  0  0  0  0  0  0
   10.8002  -19.2472   21.4805 C   0  0  0  0  0  0  0  0  0  0  0  0
   11.0481  -18.5306   22.7693 C   0  0  0  0  0  0  0  0  0  0  0  0
   10.0535  -17.3935   23.0107 C   0  0  2  0  0  0  0  0  0  0  0  0
    9.8396  -16.7461   21.7427 N   0  0  0  0  0  0  0  0  0  0  0  0
   10.4531  -16.5776   24.1299 C   0  0  0  0  0  0  0  0  0  0  0  0
   11.4617  -15.8032   23.9428 O   0  0  0  0  0  0  0  0  0  0  0  0
    9.8900  -16.5070   25.4265 N   0  0  0  0  0  0  0  0  0  0  0  0
   10.5189  -15.6862   26.4495 C   0  0  1  0  0  0  0  0  0  0  0  0
   10.2943  -14.2364   26.3635 C   0  0  0  0  0  0  0  0  0  0  0  0
    8.9201  -13.7501   26.3320 C   0  0  0  0  0  0  0  0  0  0  0  0
    8.1751  -13.9131   25.1791 C   0  0  0  0  0  0  0  0  0  0  0  0
    6.8581  -13.4789   25.0674 C   0  0  0  0  0  0  0  0  0  0  0  0
    6.2518  -12.8616   26.1329 C   0  0  0  0  0  0  0  0  0  0  0  0
    6.9770  -12.6904   27.2907 C   0  0  0  0  0  0  0  0  0  0  0  0
    8.3067  -13.1338   27.3903 C   0  0  0  0  0  0  0  0  0  0  0  0
   10.1395  -16.2266   27.8095 C   0  0  0  0  0  0  0  0  0  0  0  0
   10.7314  -15.6956   28.9089 O   0  0  0  0  0  0  0  0  0  0  0  0
    9.3070  -17.1322   27.8782 O   0  0  0  0  0  0  0  0  0  0  0  0
  2  3  1  0
  2  1  1  0
  3  5  1  0
  3  4  1  6
  5  7  1  0
  5  6  1  1
  7  8  2  0
  7 15  1  0
  9 10  1  0
 10 11  2  0
 10 12  1  0
 12 13  1  0
 14 13  1  6
 14 16  1  0
 15 14  1  0
 16 17  2  0
 18 16  1  0
 18 19  1  0
 19 27  1  0
 19 20  1  1
 21 26  2  0
 21 20  1  0
 22 21  1  0
 23 24  1  0
 23 22  2  0
 24 25  2  0
 25 26  1  0
 27 28  1  0
 29 27  2  0
M  END
$$$$
