IQF.pdb
     RDKit          3D

 29 29  0  0  1  0  0  0  0  0999 V2000
    7.6975  -11.5963   19.0566 C   0  0  0  0  0  0  0  0  0  0  0  0
    8.1206  -13.0012   18.6246 C   0  0  0  0  0  0  0  0  0  0  0  0
    8.2701  -13.8235   19.8569 C   0  0  2  0  0  0  0  0  0  0  0  0
    9.2388  -13.1469   20.8143 C   0  0  0  0  0  0  0  0  0  0  0  0
    8.5586  -15.2654   19.6772 C   0  0  2  0  0  0  0  0  0  0  0  0
    7.5553  -15.8110   18.7231 N   0  0  0  0  0  0  0  0  0  0  0  0
    8.5789  -16.1374   20.8387 C   0  0  0  0  0  0  0  0  0  0  0  0
    7.4568  -16.5636   21.3052 O   0  0  0  0  0  0  0  0  0  0  0  0
   12.0031  -20.9077   21.9941 N   0  0  0  0  0  0  0  0  0  0  0  0
   11.9751  -19.9018   21.0092 C   0  0  0  0  0  0  0  0  0  0  0  0
   12.6418  -20.1040   19.9452 O   0  0  0  0  0  0  0  0  0  0  0  0
   11.1865  -18.6398   21.2076 C   0  0  0  0  0  0  0  0  0  0  0  0
   10.4508  -18.6620   22.5093 C   0  0  0  0  0  0  0  0  0  0  0  0
    9.6901  -17.3621   22.7772 C   0  0  2  0  0  0  0  0  0  0  0  0
    9.7044  -16.6066   21.5518 N   0  0  0  0  0  0  0  0  0  0  0  0
   10.1621  -16.7173   23.9771 C   0  0  0  0  0  0  0  0  0  0  0  0
   11.3109  -16.1455   23.9058 O   0  0  0  0  0  0  0  0  0  0  0  0
    9.5364  -16.6243   25.2432 N   0  0  0  0  0  0  0  0  0  0  0  0
   10.2120  -15.9507   26.3412 C   0  0  1  0  0  0  0  0  0  0  0  0
    9.9853  -14.5042   26.4684 C   0  0  0  0  0  0  0  0  0  0  0  0
    8.6109  -14.0241   26.5487 C   0  0  0  0  0  0  0  0  0  0  0  0
    7.5877  -14.8341   26.0930 C   0  0  0  0  0  0  0  0  0  0  0  0
    6.2507  -14.4517   26.1349 C   0  0  0  0  0  0  0  0  0  0  0  0
    5.9090  -13.2247   26.6463 C   0  0  0  0  0  0  0  0  0  0  0  0
    6.9138  -12.4033   27.1060 C   0  0  0  0  0  0  0  0  0  0  0  0
    8.2605  -12.8019   27.0580 C   0  0  0  0  0  0  0  0  0  0  0  0
    9.8942  -16.6773   27.6283 C   0  0  0  0  0  0  0  0  0  0  0  0
    9.0444  -17.7343   27.5862 O   0  0  0  0  0  0  0  0  0  0  0  0
   10.4141  -16.2874   28.6749 O   0  0  0  0  0  0  0  0  0  0  0  0
  2  3  1  0
  2  1  1  0
  3  5  1  0
  3  4  1  1
  5  7  1  0
  5  6  1  6
  7  8  2  0
  7 15  1  0
  9 10  1  0
 10 11  2  0
 10 12  1  0
 12 13  1  0
 14 13  1  6
 14 16  1  0
 15 14  1  0
 16 17  2  0
 18 16  1  0
 18 19  1  0
 19 27  1  0
 19 20  1  1
 21 26  2  0
 21 20  1  0
 22 21  1  0
 23 24  1  0
 23 22  2  0
 24 25  2  0
 25 26  1  0
 27 28  1  0
 29 27  2  0
M  END
$$$$
