IQF.pdb
     RDKit          3D

 29 29  0  0  1  0  0  0  0  0999 V2000
    7.4039  -12.0408   18.9830 C   0  0  0  0  0  0  0  0  0  0  0  0
    7.5970  -13.5207   18.6483 C   0  0  0  0  0  0  0  0  0  0  0  0
    8.2212  -14.1709   19.8335 C   0  0  2  0  0  0  0  0  0  0  0  0
    9.4742  -13.4103   20.2390 C   0  0  0  0  0  0  0  0  0  0  0  0
    8.4388  -15.6347   19.7657 C   0  0  2  0  0  0  0  0  0  0  0  0
    7.1497  -16.2650   19.3717 N   0  0  0  0  0  0  0  0  0  0  0  0
    8.9296  -16.3365   20.9390 C   0  0  0  0  0  0  0  0  0  0  0  0
    8.1225  -16.5211   21.9253 O   0  0  0  0  0  0  0  0  0  0  0  0
   12.5761  -20.9066   22.3167 N   0  0  0  0  0  0  0  0  0  0  0  0
   12.3881  -20.0216   23.3956 C   0  0  0  0  0  0  0  0  0  0  0  0
   11.8835  -20.4960   24.4622 O   0  0  0  0  0  0  0  0  0  0  0  0
   12.7710  -18.5737   23.2906 C   0  0  0  0  0  0  0  0  0  0  0  0
   12.1381  -17.9333   22.0967 C   0  0  0  0  0  0  0  0  0  0  0  0
   10.7312  -17.4078   22.3878 C   0  0  2  0  0  0  0  0  0  0  0  0
   10.2192  -16.8714   21.1538 N   0  0  0  0  0  0  0  0  0  0  0  0
   10.7204  -16.5586   23.5526 C   0  0  0  0  0  0  0  0  0  0  0  0
   11.1767  -15.3672   23.3969 O   0  0  0  0  0  0  0  0  0  0  0  0
   10.2771  -16.8517   24.8644 N   0  0  0  0  0  0  0  0  0  0  0  0
    9.7423  -15.7926   25.7057 C   0  0  1  0  0  0  0  0  0  0  0  0
    8.6355  -15.0020   25.1488 C   0  0  0  0  0  0  0  0  0  0  0  0
    7.9997  -14.0054   26.0024 C   0  0  0  0  0  0  0  0  0  0  0  0
    6.6432  -13.7743   25.8713 C   0  0  0  0  0  0  0  0  0  0  0  0
    5.9610  -12.8424   26.6471 C   0  0  0  0  0  0  0  0  0  0  0  0
    6.6413  -12.1113   27.5885 C   0  0  0  0  0  0  0  0  0  0  0  0
    7.9932  -12.3273   27.7350 C   0  0  0  0  0  0  0  0  0  0  0  0
    8.6703  -13.2718   26.9449 C   0  0  0  0  0  0  0  0  0  0  0  0
    9.3845  -16.3748   27.0542 C   0  0  0  0  0  0  0  0  0  0  0  0
    8.8238  -17.6095   27.1019 O   0  0  0  0  0  0  0  0  0  0  0  0
    9.6109  -15.7112   28.0671 O   0  0  0  0  0  0  0  0  0  0  0  0
  2  3  1  0
  2  1  1  0
  3  5  1  0
  3  4  1  6
  5  7  1  0
  5  6  1  1
  7  8  2  0
  7 15  1  0
  9 10  1  0
 10 11  2  0
 10 12  1  0
 12 13  1  0
 14 13  1  6
 14 16  1  0
 15 14  1  0
 16 17  2  0
 18 16  1  0
 18 19  1  0
 19 27  1  0
 19 20  1  6
 21 26  2  0
 21 20  1  0
 22 21  1  0
 23 24  1  0
 23 22  2  0
 24 25  2  0
 25 26  1  0
 27 28  1  0
 29 27  2  0
M  END
$$$$
