IQF.pdb
     RDKit          3D

 29 29  0  0  1  0  0  0  0  0999 V2000
    7.9804  -11.9901   20.5435 C   0  0  0  0  0  0  0  0  0  0  0  0
    7.7252  -13.4979   20.5743 C   0  0  0  0  0  0  0  0  0  0  0  0
    8.2673  -14.0704   19.3112 C   0  0  2  0  0  0  0  0  0  0  0  0
    7.6575  -13.3538   18.1164 C   0  0  0  0  0  0  0  0  0  0  0  0
    8.2369  -15.5448   19.1690 C   0  0  2  0  0  0  0  0  0  0  0  0
    6.8173  -15.9515   18.9856 N   0  0  0  0  0  0  0  0  0  0  0  0
    8.7980  -16.3730   20.2223 C   0  0  0  0  0  0  0  0  0  0  0  0
    8.0182  -16.7811   21.1624 O   0  0  0  0  0  0  0  0  0  0  0  0
   14.9902  -19.9076   22.3063 N   0  0  0  0  0  0  0  0  0  0  0  0
   13.8855  -19.6948   21.4596 C   0  0  0  0  0  0  0  0  0  0  0  0
   14.0089  -20.0299   20.2390 O   0  0  0  0  0  0  0  0  0  0  0  0
   12.6102  -19.0968   21.9792 C   0  0  0  0  0  0  0  0  0  0  0  0
   11.9903  -18.1855   20.9686 C   0  0  0  0  0  0  0  0  0  0  0  0
   10.6763  -17.5728   21.4569 C   0  0  2  0  0  0  0  0  0  0  0  0
   10.1322  -16.8159   20.3599 N   0  0  0  0  0  0  0  0  0  0  0  0
   10.8492  -16.9043   22.7224 C   0  0  0  0  0  0  0  0  0  0  0  0
   11.3355  -15.7154   22.6802 O   0  0  0  0  0  0  0  0  0  0  0  0
   10.5604  -17.3757   24.0253 N   0  0  0  0  0  0  0  0  0  0  0  0
   10.7881  -16.5170   25.1771 C   0  0  1  0  0  0  0  0  0  0  0  0
    9.6043  -16.1325   25.9587 C   0  0  0  0  0  0  0  0  0  0  0  0
    9.8022  -15.3532   27.1751 C   0  0  0  0  0  0  0  0  0  0  0  0
    9.4973  -14.0050   27.1674 C   0  0  0  0  0  0  0  0  0  0  0  0
    9.6561  -13.1920   28.2851 C   0  0  0  0  0  0  0  0  0  0  0  0
   10.1326  -13.7282   29.4552 C   0  0  0  0  0  0  0  0  0  0  0  0
   10.4415  -15.0697   29.4835 C   0  0  0  0  0  0  0  0  0  0  0  0
   10.2762  -15.8799   28.3473 C   0  0  0  0  0  0  0  0  0  0  0  0
   11.8498  -17.1450   26.0511 C   0  0  0  0  0  0  0  0  0  0  0  0
   11.9087  -18.4981   26.1329 O   0  0  0  0  0  0  0  0  0  0  0  0
   12.6270  -16.4106   26.6629 O   0  0  0  0  0  0  0  0  0  0  0  0
  2  3  1  0
  2  1  1  0
  3  5  1  0
  3  4  1  6
  5  7  1  0
  5  6  1  1
  7  8  2  0
  7 15  1  0
  9 10  1  0
 10 11  2  0
 10 12  1  0
 12 13  1  0
 14 13  1  6
 14 16  1  0
 15 14  1  0
 16 17  2  0
 18 16  1  0
 18 19  1  0
 19 27  1  0
 19 20  1  1
 21 26  2  0
 21 20  1  0
 22 21  1  0
 23 24  1  0
 23 22  2  0
 24 25  2  0
 25 26  1  0
 27 28  1  0
 29 27  2  0
M  END
$$$$
