FLK.pdb
     RDKit          3D

 29 29  0  0  1  0  0  0  0  0999 V2000
    5.5644  -17.6346   25.1059 N   0  0  0  0  0  0  0  0  0  0  0  0
    6.2934  -16.3909   24.9746 C   0  0  1  0  0  0  0  0  0  0  0  0
    6.7480  -16.0102   26.3782 C   0  0  0  0  0  0  0  0  0  0  0  0
    6.7639  -14.5290   26.4455 C   0  0  0  0  0  0  0  0  0  0  0  0
    7.9254  -13.8430   26.6666 C   0  0  0  0  0  0  0  0  0  0  0  0
    7.9972  -12.4723   26.7318 C   0  0  0  0  0  0  0  0  0  0  0  0
    6.8275  -11.7709   26.5633 C   0  0  0  0  0  0  0  0  0  0  0  0
    5.6358  -12.4138   26.3392 C   0  0  0  0  0  0  0  0  0  0  0  0
    5.5862  -13.8064   26.2765 C   0  0  0  0  0  0  0  0  0  0  0  0
    7.4012  -16.4236   24.0256 C   0  0  0  0  0  0  0  0  0  0  0  0
    8.0253  -17.4988   23.8777 O   0  0  0  0  0  0  0  0  0  0  0  0
    7.9082  -12.1821   20.3078 C   0  0  0  0  0  0  0  0  0  0  0  0
    7.7402  -13.6026   20.8171 C   0  0  1  0  0  0  0  0  0  0  0  0
    7.1653  -14.5432   19.8087 C   0  0  0  0  0  0  0  0  0  0  0  0
    8.9472  -14.0829   21.5329 C   0  0  0  0  0  0  0  0  0  0  0  0
    8.8254  -15.4149   22.2191 C   0  0  2  0  0  0  0  0  0  0  0  0
    7.8193  -15.3055   23.2531 N   0  0  0  0  0  0  0  0  0  0  0  0
   10.1299  -15.7443   22.9075 C   0  0  0  0  0  0  0  0  0  0  0  0
   10.5018  -15.1075   23.9268 O   0  0  0  0  0  0  0  0  0  0  0  0
   10.9772  -16.7625   22.4487 N   0  0  0  0  0  0  0  0  0  0  0  0
   12.2415  -17.0929   23.1871 C   0  0  1  0  0  0  0  0  0  0  0  0
   12.5689  -18.4977   22.9210 C   0  0  0  0  0  0  0  0  0  0  0  0
   13.7250  -19.1008   23.5829 C   0  0  0  0  0  0  0  0  0  0  0  0
   14.1720  -20.4795   23.3804 C   0  0  0  0  0  0  0  0  0  0  0  0
   15.3874  -20.9145   24.1532 C   0  0  0  0  0  0  0  0  0  0  0  0
   15.7316  -22.2905   23.9690 N   0  0  0  0  0  0  0  0  0  0  0  0
   13.2065  -16.1137   22.6974 C   0  0  0  0  0  0  0  0  0  0  0  0
   13.0472  -15.7010   21.4712 O   0  0  0  0  0  0  0  0  0  0  0  0
   14.2691  -15.5404   23.3304 O   0  0  0  0  0  0  0  0  0  0  0  0
  2  1  1  1
  3  2  1  0
  3  4  1  0
  4  5  2  0
  5  6  1  0
  7  6  2  0
  8  7  1  0
  9  4  1  0
  9  8  2  0
 10 17  1  0
 10  2  1  0
 11 10  2  0
 13 12  1  6
 14 13  1  0
 16 15  1  1
 15 13  1  0
 16 17  1  0
 18 16  1  0
 19 18  2  0
 20 18  1  0
 21 20  1  0
 21 22  1  6
 22 23  1  0
 23 24  1  0
 24 25  1  0
 26 25  1  0
 27 29  1  0
 27 21  1  0
 28 27  2  0
M  END
$$$$
