FLK.pdb
     RDKit          3D

 29 29  0  0  1  0  0  0  0  0999 V2000
    7.3338  -16.9620   26.1063 N   0  0  0  0  0  0  0  0  0  0  0  0
    8.1337  -16.0867   25.2759 C   0  0  1  0  0  0  0  0  0  0  0  0
    9.5340  -16.0878   25.8764 C   0  0  0  0  0  0  0  0  0  0  0  0
    9.5488  -15.0673   26.9521 C   0  0  0  0  0  0  0  0  0  0  0  0
    8.9972  -13.8310   26.7625 C   0  0  0  0  0  0  0  0  0  0  0  0
    8.9781  -12.8519   27.7264 C   0  0  0  0  0  0  0  0  0  0  0  0
    9.5495  -13.1507   28.9400 C   0  0  0  0  0  0  0  0  0  0  0  0
   10.1165  -14.3775   29.1792 C   0  0  0  0  0  0  0  0  0  0  0  0
   10.1244  -15.3569   28.1861 C   0  0  0  0  0  0  0  0  0  0  0  0
    8.1418  -16.4227   23.8561 C   0  0  0  0  0  0  0  0  0  0  0  0
    7.7493  -17.5608   23.5125 O   0  0  0  0  0  0  0  0  0  0  0  0
    8.3518  -12.1593   20.4041 C   0  0  0  0  0  0  0  0  0  0  0  0
    7.8598  -13.4459   21.0427 C   0  0  1  0  0  0  0  0  0  0  0  0
    6.3772  -13.6217   20.9855 C   0  0  0  0  0  0  0  0  0  0  0  0
    8.6651  -14.6185   20.6229 C   0  0  0  0  0  0  0  0  0  0  0  0
    8.4786  -15.8741   21.4282 C   0  0  2  0  0  0  0  0  0  0  0  0
    8.5694  -15.5342   22.8316 N   0  0  0  0  0  0  0  0  0  0  0  0
    9.6107  -16.8308   21.1328 C   0  0  0  0  0  0  0  0  0  0  0  0
    9.5846  -17.5683   20.1138 O   0  0  0  0  0  0  0  0  0  0  0  0
   10.7300  -16.9406   21.9696 N   0  0  0  0  0  0  0  0  0  0  0  0
   11.8393  -17.8958   21.6379 C   0  0  1  0  0  0  0  0  0  0  0  0
   12.7928  -17.1995   20.7674 C   0  0  0  0  0  0  0  0  0  0  0  0
   12.6387  -17.2952   19.3163 C   0  0  0  0  0  0  0  0  0  0  0  0
   13.6192  -16.8117   18.3435 C   0  0  0  0  0  0  0  0  0  0  0  0
   13.3088  -17.0610   16.8926 C   0  0  0  0  0  0  0  0  0  0  0  0
   14.3795  -16.7300   16.0039 N   0  0  0  0  0  0  0  0  0  0  0  0
   12.3545  -18.3094   22.9391 C   0  0  0  0  0  0  0  0  0  0  0  0
   11.9412  -17.6305   23.9724 O   0  0  0  0  0  0  0  0  0  0  0  0
   13.2127  -19.3190   23.2595 O   0  0  0  0  0  0  0  0  0  0  0  0
  2  1  1  1
  3  2  1  0
  3  4  1  0
  4  5  2  0
  5  6  1  0
  7  6  2  0
  8  7  1  0
  9  4  1  0
  9  8  2  0
 10 17  1  0
 10  2  1  0
 11 10  2  0
 13 12  1  6
 14 13  1  0
 16 15  1  6
 15 13  1  0
 16 17  1  0
 18 16  1  0
 19 18  2  0
 20 18  1  0
 21 20  1  0
 21 22  1  6
 22 23  1  0
 23 24  1  0
 24 25  1  0
 26 25  1  0
 27 29  1  0
 27 21  1  0
 28 27  2  0
M  END
$$$$
