FLK.pdb
     RDKit          3D

 29 29  0  0  1  0  0  0  0  0999 V2000
    8.6680  -17.5590   26.8397 N   0  0  0  0  0  0  0  0  0  0  0  0
    7.4817  -17.1577   26.1136 C   0  0  1  0  0  0  0  0  0  0  0  0
    6.9411  -15.9232   26.8244 C   0  0  0  0  0  0  0  0  0  0  0  0
    8.1108  -15.1441   27.2971 C   0  0  0  0  0  0  0  0  0  0  0  0
    9.0562  -15.7079   28.1077 C   0  0  0  0  0  0  0  0  0  0  0  0
   10.1613  -15.0339   28.5686 C   0  0  0  0  0  0  0  0  0  0  0  0
   10.3064  -13.7228   28.1832 C   0  0  0  0  0  0  0  0  0  0  0  0
    9.3844  -13.1116   27.3707 C   0  0  0  0  0  0  0  0  0  0  0  0
    8.2699  -13.8152   26.9141 C   0  0  0  0  0  0  0  0  0  0  0  0
    7.6810  -16.9298   24.6863 C   0  0  0  0  0  0  0  0  0  0  0  0
    7.6196  -17.9127   23.9133 O   0  0  0  0  0  0  0  0  0  0  0  0
    6.6690  -13.9934   20.4908 C   0  0  0  0  0  0  0  0  0  0  0  0
    8.0245  -13.5569   21.0177 C   0  0  1  0  0  0  0  0  0  0  0  0
    8.3584  -12.1310   20.7219 C   0  0  0  0  0  0  0  0  0  0  0  0
    8.2437  -13.9937   22.4180 C   0  0  0  0  0  0  0  0  0  0  0  0
    8.0848  -15.4642   22.6868 C   0  0  2  0  0  0  0  0  0  0  0  0
    7.9419  -15.6546   24.1139 N   0  0  0  0  0  0  0  0  0  0  0  0
    9.3444  -16.1880   22.2701 C   0  0  0  0  0  0  0  0  0  0  0  0
    9.3069  -17.3898   21.8996 O   0  0  0  0  0  0  0  0  0  0  0  0
   10.5990  -15.5627   22.2764 N   0  0  0  0  0  0  0  0  0  0  0  0
   11.8090  -16.2758   21.7470 C   0  0  1  0  0  0  0  0  0  0  0  0
   12.4666  -15.3946   20.7760 C   0  0  0  0  0  0  0  0  0  0  0  0
   13.7150  -15.8264   20.1486 C   0  0  0  0  0  0  0  0  0  0  0  0
   14.5580  -14.9773   19.3061 C   0  0  0  0  0  0  0  0  0  0  0  0
   15.8221  -15.5969   18.7755 C   0  0  0  0  0  0  0  0  0  0  0  0
   16.6828  -14.6749   18.1011 N   0  0  0  0  0  0  0  0  0  0  0  0
   12.5856  -16.5946   22.9407 C   0  0  0  0  0  0  0  0  0  0  0  0
   13.6889  -17.2643   22.7569 O   0  0  0  0  0  0  0  0  0  0  0  0
   12.3440  -16.2929   24.2480 O   0  0  0  0  0  0  0  0  0  0  0  0
  2  1  1  1
  3  2  1  0
  3  4  1  0
  4  5  2  0
  5  6  1  0
  7  6  2  0
  8  7  1  0
  9  4  1  0
  9  8  2  0
 10 17  1  0
 10  2  1  0
 11 10  2  0
 13 12  1  1
 14 13  1  0
 16 15  1  1
 15 13  1  0
 16 17  1  0
 18 16  1  0
 19 18  2  0
 20 18  1  0
 21 20  1  0
 21 22  1  6
 22 23  1  0
 23 24  1  0
 24 25  1  0
 26 25  1  0
 27 29  1  0
 27 21  1  0
 28 27  2  0
M  END
$$$$
