FLK.pdb
     RDKit          3D

 29 29  0  0  1  0  0  0  0  0999 V2000
    8.7841  -19.6880   27.2044 N   0  0  0  0  0  0  0  0  0  0  0  0
    8.9435  -18.2657   27.4216 C   0  0  1  0  0  0  0  0  0  0  0  0
   10.4413  -17.9900   27.3744 C   0  0  0  0  0  0  0  0  0  0  0  0
   10.6620  -16.6670   28.0065 C   0  0  0  0  0  0  0  0  0  0  0  0
   10.7062  -16.5305   29.3659 C   0  0  0  0  0  0  0  0  0  0  0  0
   10.9139  -15.3306   30.0025 C   0  0  0  0  0  0  0  0  0  0  0  0
   11.0842  -14.2190   29.2126 C   0  0  0  0  0  0  0  0  0  0  0  0
   11.0480  -14.3042   27.8432 C   0  0  0  0  0  0  0  0  0  0  0  0
   10.8360  -15.5330   27.2180 C   0  0  0  0  0  0  0  0  0  0  0  0
    8.1964  -17.4147   26.5016 C   0  0  0  0  0  0  0  0  0  0  0  0
    7.7705  -17.9196   25.4381 O   0  0  0  0  0  0  0  0  0  0  0  0
    4.9363  -12.6732   26.2241 C   0  0  0  0  0  0  0  0  0  0  0  0
    6.2585  -12.8961   25.5117 C   0  0  1  0  0  0  0  0  0  0  0  0
    6.9049  -11.6391   25.0278 C   0  0  0  0  0  0  0  0  0  0  0  0
    7.1396  -13.8301   26.2542 C   0  0  0  0  0  0  0  0  0  0  0  0
    6.9932  -15.2882   25.9190 C   0  0  2  0  0  0  0  0  0  0  0  0
    7.9193  -16.0401   26.7376 N   0  0  0  0  0  0  0  0  0  0  0  0
    7.3949  -15.5135   24.4795 C   0  0  0  0  0  0  0  0  0  0  0  0
    6.5263  -15.6673   23.5824 O   0  0  0  0  0  0  0  0  0  0  0  0
    8.7378  -15.5611   24.0802 N   0  0  0  0  0  0  0  0  0  0  0  0
    9.0977  -15.7891   22.6409 C   0  0  1  0  0  0  0  0  0  0  0  0
    9.0691  -14.4928   21.9550 C   0  0  0  0  0  0  0  0  0  0  0  0
    8.9515  -14.4568   20.4979 C   0  0  0  0  0  0  0  0  0  0  0  0
    8.3352  -13.3663   19.7412 C   0  0  0  0  0  0  0  0  0  0  0  0
    8.3231  -13.5076   18.2434 C   0  0  0  0  0  0  0  0  0  0  0  0
    7.8226  -12.3581   17.5551 N   0  0  0  0  0  0  0  0  0  0  0  0
   10.3992  -16.4467   22.6988 C   0  0  0  0  0  0  0  0  0  0  0  0
   10.9709  -16.7094   21.5571 O   0  0  0  0  0  0  0  0  0  0  0  0
   11.1364  -16.8342   23.7781 O   0  0  0  0  0  0  0  0  0  0  0  0
  2  1  1  6
  3  2  1  0
  3  4  1  0
  4  5  2  0
  5  6  1  0
  7  6  2  0
  8  7  1  0
  9  4  1  0
  9  8  2  0
 10 17  1  0
 10  2  1  0
 11 10  2  0
 13 12  1  1
 14 13  1  0
 16 15  1  1
 15 13  1  0
 16 17  1  0
 18 16  1  0
 19 18  2  0
 20 18  1  0
 21 20  1  0
 21 22  1  6
 22 23  1  0
 23 24  1  0
 24 25  1  0
 26 25  1  0
 27 29  1  0
 27 21  1  0
 28 27  2  0
M  END
$$$$
