FLK.pdb
     RDKit          3D

 29 29  0  0  1  0  0  0  0  0999 V2000
    8.5451  -18.9016   27.1175 N   0  0  0  0  0  0  0  0  0  0  0  0
    8.5765  -17.4569   27.0315 C   0  0  1  0  0  0  0  0  0  0  0  0
   10.0449  -17.0659   26.9204 C   0  0  0  0  0  0  0  0  0  0  0  0
   10.2821  -15.9767   27.8982 C   0  0  0  0  0  0  0  0  0  0  0  0
   10.2303  -14.6637   27.5217 C   0  0  0  0  0  0  0  0  0  0  0  0
   10.4356  -13.6166   28.3874 C   0  0  0  0  0  0  0  0  0  0  0  0
   10.7067  -13.9264   29.6986 C   0  0  0  0  0  0  0  0  0  0  0  0
   10.7698  -15.2292   30.1257 C   0  0  0  0  0  0  0  0  0  0  0  0
   10.5576  -16.2767   29.2294 C   0  0  0  0  0  0  0  0  0  0  0  0
    7.7706  -16.8863   25.9574 C   0  0  0  0  0  0  0  0  0  0  0  0
    7.1861  -17.6680   25.1735 O   0  0  0  0  0  0  0  0  0  0  0  0
    7.6917  -11.6469   26.1982 C   0  0  0  0  0  0  0  0  0  0  0  0
    6.9712  -12.9800   26.2940 C   0  0  1  0  0  0  0  0  0  0  0  0
    5.9259  -13.0278   27.3604 C   0  0  0  0  0  0  0  0  0  0  0  0
    6.5580  -13.4856   24.9624 C   0  0  0  0  0  0  0  0  0  0  0  0
    6.7063  -14.9648   24.7391 C   0  0  2  0  0  0  0  0  0  0  0  0
    7.6056  -15.4903   25.7433 N   0  0  0  0  0  0  0  0  0  0  0  0
    7.3570  -15.2054   23.3963 C   0  0  0  0  0  0  0  0  0  0  0  0
    6.6795  -15.1831   22.3364 O   0  0  0  0  0  0  0  0  0  0  0  0
    8.7293  -15.4615   23.2694 N   0  0  0  0  0  0  0  0  0  0  0  0
    9.3353  -15.7196   21.9206 C   0  0  1  0  0  0  0  0  0  0  0  0
    9.2952  -14.4673   21.1578 C   0  0  0  0  0  0  0  0  0  0  0  0
    8.6326  -14.4444   19.8544 C   0  0  0  0  0  0  0  0  0  0  0  0
    8.6197  -13.2943   18.9495 C   0  0  0  0  0  0  0  0  0  0  0  0
    7.7823  -13.4241   17.7063 C   0  0  0  0  0  0  0  0  0  0  0  0
    7.8486  -12.2882   16.8397 N   0  0  0  0  0  0  0  0  0  0  0  0
   10.6667  -16.2361   22.2209 C   0  0  0  0  0  0  0  0  0  0  0  0
   11.4854  -16.3585   21.2139 O   0  0  0  0  0  0  0  0  0  0  0  0
   11.2102  -16.6139   23.4127 O   0  0  0  0  0  0  0  0  0  0  0  0
  2  1  1  6
  3  2  1  0
  3  4  1  0
  4  5  2  0
  5  6  1  0
  7  6  2  0
  8  7  1  0
  9  4  1  0
  9  8  2  0
 10 17  1  0
 10  2  1  0
 11 10  2  0
 13 12  1  6
 14 13  1  0
 16 15  1  1
 15 13  1  0
 16 17  1  0
 18 16  1  0
 19 18  2  0
 20 18  1  0
 21 20  1  0
 21 22  1  6
 22 23  1  0
 23 24  1  0
 24 25  1  0
 26 25  1  0
 27 29  1  0
 27 21  1  0
 28 27  2  0
M  END
$$$$
