FLK.pdb
     RDKit          3D

 29 29  0  0  1  0  0  0  0  0999 V2000
    8.5548  -17.7168   21.2140 N   0  0  0  0  0  0  0  0  0  0  0  0
    8.4564  -16.4463   21.9008 C   0  0  1  0  0  0  0  0  0  0  0  0
    7.1259  -15.8340   21.4808 C   0  0  0  0  0  0  0  0  0  0  0  0
    7.4172  -14.4834   20.9424 C   0  0  0  0  0  0  0  0  0  0  0  0
    7.7519  -14.3018   19.6296 C   0  0  0  0  0  0  0  0  0  0  0  0
    8.0250  -13.0731   19.0783 C   0  0  0  0  0  0  0  0  0  0  0  0
    7.9526  -11.9798   19.9078 C   0  0  0  0  0  0  0  0  0  0  0  0
    7.6210  -12.1102   21.2332 C   0  0  0  0  0  0  0  0  0  0  0  0
    7.3474  -13.3675   21.7717 C   0  0  0  0  0  0  0  0  0  0  0  0
    8.5977  -16.5178   23.3512 C   0  0  0  0  0  0  0  0  0  0  0  0
    9.3273  -17.4135   23.8337 O   0  0  0  0  0  0  0  0  0  0  0  0
    6.3389  -12.2352   26.4888 C   0  0  0  0  0  0  0  0  0  0  0  0
    7.4681  -12.9789   25.7981 C   0  0  1  0  0  0  0  0  0  0  0  0
    8.7498  -12.2136   25.7387 C   0  0  0  0  0  0  0  0  0  0  0  0
    7.5760  -14.3829   26.2640 C   0  0  0  0  0  0  0  0  0  0  0  0
    8.5499  -15.2551   25.5220 C   0  0  2  0  0  0  0  0  0  0  0  0
    7.9559  -15.6293   24.2570 N   0  0  0  0  0  0  0  0  0  0  0  0
    8.7707  -16.5323   26.2995 C   0  0  0  0  0  0  0  0  0  0  0  0
    7.8013  -17.1651   26.7920 O   0  0  0  0  0  0  0  0  0  0  0  0
   10.0504  -17.0661   26.5062 N   0  0  0  0  0  0  0  0  0  0  0  0
   10.2279  -18.3495   27.2640 C   0  0  1  0  0  0  0  0  0  0  0  0
   11.2084  -19.1696   26.5446 C   0  0  0  0  0  0  0  0  0  0  0  0
   11.1002  -19.3051   25.0925 C   0  0  0  0  0  0  0  0  0  0  0  0
   11.9654  -20.1524   24.2708 C   0  0  0  0  0  0  0  0  0  0  0  0
   11.8223  -20.0163   22.7793 C   0  0  0  0  0  0  0  0  0  0  0  0
   12.6359  -20.9249   22.0321 N   0  0  0  0  0  0  0  0  0  0  0  0
   10.6203  -17.9216   28.6028 C   0  0  0  0  0  0  0  0  0  0  0  0
   10.5365  -18.8151   29.5484 O   0  0  0  0  0  0  0  0  0  0  0  0
   11.0784  -16.7128   29.0359 O   0  0  0  0  0  0  0  0  0  0  0  0
  2  1  1  6
  3  2  1  0
  3  4  1  0
  4  5  2  0
  5  6  1  0
  7  6  2  0
  8  7  1  0
  9  4  1  0
  9  8  2  0
 10 17  1  0
 10  2  1  0
 11 10  2  0
 13 12  1  1
 14 13  1  0
 16 15  1  1
 15 13  1  0
 16 17  1  0
 18 16  1  0
 19 18  2  0
 20 18  1  0
 21 20  1  0
 21 22  1  6
 22 23  1  0
 23 24  1  0
 24 25  1  0
 26 25  1  0
 27 29  1  0
 27 21  1  0
 28 27  2  0
M  END
$$$$
