FLK.pdb
     RDKit          3D

 29 29  0  0  1  0  0  0  0  0999 V2000
    5.4140  -17.7939   24.2099 N   0  0  0  0  0  0  0  0  0  0  0  0
    6.1476  -16.5503   24.3128 C   0  0  1  0  0  0  0  0  0  0  0  0
    6.4343  -16.3430   25.7948 C   0  0  0  0  0  0  0  0  0  0  0  0
    6.7035  -14.8979   25.9897 C   0  0  0  0  0  0  0  0  0  0  0  0
    5.7020  -13.9723   25.8957 C   0  0  0  0  0  0  0  0  0  0  0  0
    5.8953  -12.6235   26.0733 C   0  0  0  0  0  0  0  0  0  0  0  0
    7.1714  -12.2018   26.3601 C   0  0  0  0  0  0  0  0  0  0  0  0
    8.2107  -13.0921   26.4647 C   0  0  0  0  0  0  0  0  0  0  0  0
    7.9916  -14.4573   26.2808 C   0  0  0  0  0  0  0  0  0  0  0  0
    7.3583  -16.4806   23.5015 C   0  0  0  0  0  0  0  0  0  0  0  0
    7.9680  -17.5451   23.2512 O   0  0  0  0  0  0  0  0  0  0  0  0
    8.0283  -11.8204   20.5494 C   0  0  0  0  0  0  0  0  0  0  0  0
    7.8561  -13.2878   20.8996 C   0  0  1  0  0  0  0  0  0  0  0  0
    7.1722  -14.0870   19.8387 C   0  0  0  0  0  0  0  0  0  0  0  0
    9.1004  -13.8777   21.4504 C   0  0  0  0  0  0  0  0  0  0  0  0
    8.9817  -15.2635   22.0208 C   0  0  2  0  0  0  0  0  0  0  0  0
    7.8929  -15.2734   22.9735 N   0  0  0  0  0  0  0  0  0  0  0  0
   10.2404  -15.5986   22.7874 C   0  0  0  0  0  0  0  0  0  0  0  0
   11.3644  -15.5850   22.2223 O   0  0  0  0  0  0  0  0  0  0  0  0
   10.2158  -15.9361   24.1478 N   0  0  0  0  0  0  0  0  0  0  0  0
   11.4768  -16.3354   24.8572 C   0  0  1  0  0  0  0  0  0  0  0  0
   11.1685  -16.4809   26.2839 C   0  0  0  0  0  0  0  0  0  0  0  0
   12.1925  -17.0037   27.1875 C   0  0  0  0  0  0  0  0  0  0  0  0
   12.0130  -17.1874   28.6282 C   0  0  0  0  0  0  0  0  0  0  0  0
   13.1922  -17.7272   29.3910 C   0  0  0  0  0  0  0  0  0  0  0  0
   13.0182  -17.7213   30.8106 N   0  0  0  0  0  0  0  0  0  0  0  0
   11.9004  -17.5529   24.1732 C   0  0  0  0  0  0  0  0  0  0  0  0
   10.9539  -18.3371   23.7389 O   0  0  0  0  0  0  0  0  0  0  0  0
   13.1548  -18.0121   23.9008 O   0  0  0  0  0  0  0  0  0  0  0  0
  2  1  1  1
  3  2  1  0
  3  4  1  0
  4  5  2  0
  5  6  1  0
  7  6  2  0
  8  7  1  0
  9  4  1  0
  9  8  2  0
 10 17  1  0
 10  2  1  0
 11 10  2  0
 13 12  1  6
 14 13  1  0
 16 15  1  1
 15 13  1  0
 16 17  1  0
 18 16  1  0
 19 18  2  0
 20 18  1  0
 21 20  1  0
 21 22  1  1
 22 23  1  0
 23 24  1  0
 24 25  1  0
 26 25  1  0
 27 29  1  0
 27 21  1  0
 28 27  2  0
M  END
$$$$
