FLK.pdb
     RDKit          3D

 29 29  0  0  1  0  0  0  0  0999 V2000
    6.1898  -18.2100   24.8997 N   0  0  0  0  0  0  0  0  0  0  0  0
    6.7868  -16.8922   24.8506 C   0  0  1  0  0  0  0  0  0  0  0  0
    7.3901  -16.6433   26.2275 C   0  0  0  0  0  0  0  0  0  0  0  0
    7.3790  -15.1775   26.4508 C   0  0  0  0  0  0  0  0  0  0  0  0
    8.2962  -14.5791   27.2689 C   0  0  0  0  0  0  0  0  0  0  0  0
    8.3347  -13.2261   27.5052 C   0  0  0  0  0  0  0  0  0  0  0  0
    7.3918  -12.4491   26.8762 C   0  0  0  0  0  0  0  0  0  0  0  0
    6.4497  -13.0025   26.0456 C   0  0  0  0  0  0  0  0  0  0  0  0
    6.4293  -14.3788   25.8197 C   0  0  0  0  0  0  0  0  0  0  0  0
    7.7573  -16.6954   23.7791 C   0  0  0  0  0  0  0  0  0  0  0  0
    8.1980  -17.7047   23.1837 O   0  0  0  0  0  0  0  0  0  0  0  0
    7.6101  -11.8756   20.9662 C   0  0  0  0  0  0  0  0  0  0  0  0
    7.6447  -13.3717   21.2230 C   0  0  1  0  0  0  0  0  0  0  0  0
    7.0780  -14.1903   20.1090 C   0  0  0  0  0  0  0  0  0  0  0  0
    8.9596  -13.8159   21.7457 C   0  0  0  0  0  0  0  0  0  0  0  0
    9.0499  -15.2521   22.1806 C   0  0  2  0  0  0  0  0  0  0  0  0
    8.2371  -15.4224   23.3653 N   0  0  0  0  0  0  0  0  0  0  0  0
   10.4745  -15.5668   22.5752 C   0  0  0  0  0  0  0  0  0  0  0  0
   11.4200  -15.4144   21.7593 O   0  0  0  0  0  0  0  0  0  0  0  0
   10.8062  -16.0376   23.8532 N   0  0  0  0  0  0  0  0  0  0  0  0
   12.2105  -16.4636   24.1682 C   0  0  1  0  0  0  0  0  0  0  0  0
   12.2463  -16.9132   25.5639 C   0  0  0  0  0  0  0  0  0  0  0  0
   11.3676  -16.2759   26.5438 C   0  0  0  0  0  0  0  0  0  0  0  0
   11.3960  -16.5432   27.9823 C   0  0  0  0  0  0  0  0  0  0  0  0
   10.4271  -15.7662   28.8315 C   0  0  0  0  0  0  0  0  0  0  0  0
    9.3097  -16.5334   29.2883 N   0  0  0  0  0  0  0  0  0  0  0  0
   12.5071  -17.4826   23.1665 C   0  0  0  0  0  0  0  0  0  0  0  0
   11.4904  -17.9704   22.5123 O   0  0  0  0  0  0  0  0  0  0  0  0
   13.7034  -18.0157   22.7884 O   0  0  0  0  0  0  0  0  0  0  0  0
  2  1  1  1
  3  2  1  0
  3  4  1  0
  4  5  2  0
  5  6  1  0
  7  6  2  0
  8  7  1  0
  9  4  1  0
  9  8  2  0
 10 17  1  0
 10  2  1  0
 11 10  2  0
 13 12  1  6
 14 13  1  0
 16 15  1  1
 15 13  1  0
 16 17  1  0
 18 16  1  0
 19 18  2  0
 20 18  1  0
 21 20  1  0
 21 22  1  1
 22 23  1  0
 23 24  1  0
 24 25  1  0
 26 25  1  0
 27 29  1  0
 27 21  1  0
 28 27  2  0
M  END
$$$$
