ICC.pdb
     RDKit          3D

 21 20  0  0  1  0  0  0  0  0999 V2000
    7.5822  -11.6703   24.9870 C   0  0  0  0  0  0  0  0  0  0  0  0
    8.0369  -12.7658   25.9618 C   0  0  0  0  0  0  0  0  0  0  0  0
    6.8466  -13.6287   26.2277 C   0  0  2  0  0  0  0  0  0  0  0  0
    5.6985  -12.8485   26.8472 C   0  0  0  0  0  0  0  0  0  0  0  0
    7.1512  -14.8865   26.9843 C   0  0  2  0  0  0  0  0  0  0  0  0
    8.0052  -14.5104   28.1109 N   0  0  0  0  0  0  0  0  0  0  0  0
    7.7630  -15.9448   26.1770 C   0  0  0  0  0  0  0  0  0  0  0  0
    9.0183  -16.0118   26.1399 O   0  0  0  0  0  0  0  0  0  0  0  0
    7.0461  -16.9115   25.4252 N   0  0  0  0  0  0  0  0  0  0  0  0
    7.6439  -17.9118   24.5926 C   0  0  1  0  0  0  0  0  0  0  0  0
    6.9458  -19.2398   24.6405 C   0  0  0  0  0  0  0  0  0  0  0  0
    7.1925  -19.9614   26.2726 S   0  0  0  0  0  0  0  0  0  0  0  0
    7.7787  -17.3911   23.1980 C   0  0  0  0  0  0  0  0  0  0  0  0
    6.7938  -17.4533   22.3872 O   0  0  0  0  0  0  0  0  0  0  0  0
    8.9667  -16.8150   22.7032 N   0  0  0  0  0  0  0  0  0  0  0  0
    9.0627  -16.2316   21.3618 C   0  0  1  0  0  0  0  0  0  0  0  0
    8.6194  -14.7671   21.4873 C   0  0  0  0  0  0  0  0  0  0  0  0
    6.8901  -14.6630   21.9958 S   0  0  0  0  0  0  0  0  0  0  0  0
   10.4267  -16.3217   20.8252 C   0  0  0  0  0  0  0  0  0  0  0  0
   10.7519  -15.8760   19.5591 O   0  0  0  0  0  0  0  0  0  0  0  0
   11.3341  -16.8179   21.5310 O   0  0  0  0  0  0  0  0  0  0  0  0
  1  2  1  0
  3  4  1  1
  3  2  1  0
  3  5  1  0
  5  6  1  1
  7  8  2  0
  7  5  1  0
  9  7  1  0
 10  9  1  0
 10 13  1  0
 10 11  1  6
 12 11  1  0
 13 14  2  0
 15 13  1  0
 15 16  1  0
 16 17  1  1
 17 18  1  0
 19 20  1  0
 19 16  1  0
 21 19  2  0
M  END
$$$$
