ICC.pdb
     RDKit          3D

 21 20  0  0  1  0  0  0  0  0999 V2000
    7.4449  -11.9365   18.3626 C   0  0  0  0  0  0  0  0  0  0  0  0
    7.1248  -13.3373   18.9033 C   0  0  0  0  0  0  0  0  0  0  0  0
    8.4089  -13.9084   19.4106 C   0  0  2  0  0  0  0  0  0  0  0  0
    9.1125  -12.9699   20.3774 C   0  0  0  0  0  0  0  0  0  0  0  0
    9.3279  -14.4122   18.3388 C   0  0  2  0  0  0  0  0  0  0  0  0
    8.5224  -15.2391   17.4403 N   0  0  0  0  0  0  0  0  0  0  0  0
   10.4958  -15.1425   18.8375 C   0  0  0  0  0  0  0  0  0  0  0  0
   10.3100  -16.2687   19.3656 O   0  0  0  0  0  0  0  0  0  0  0  0
   11.8347  -14.6771   18.7723 N   0  0  0  0  0  0  0  0  0  0  0  0
   12.9592  -15.3257   19.3773 C   0  0  1  0  0  0  0  0  0  0  0  0
   14.2866  -14.7943   18.9200 C   0  0  0  0  0  0  0  0  0  0  0  0
   15.5928  -15.7288   19.7360 S   0  0  0  0  0  0  0  0  0  0  0  0
   12.8175  -15.2953   20.8650 C   0  0  0  0  0  0  0  0  0  0  0  0
   12.4731  -14.2185   21.4592 O   0  0  0  0  0  0  0  0  0  0  0  0
   13.0480  -16.4203   21.6831 N   0  0  0  0  0  0  0  0  0  0  0  0
   12.8971  -16.3814   23.1407 C   0  0  1  0  0  0  0  0  0  0  0  0
   11.4087  -16.6165   23.4344 C   0  0  0  0  0  0  0  0  0  0  0  0
   11.1145  -16.7123   25.2132 S   0  0  0  0  0  0  0  0  0  0  0  0
   13.7279  -17.3961   23.8014 C   0  0  0  0  0  0  0  0  0  0  0  0
   14.2638  -17.2051   25.0598 O   0  0  0  0  0  0  0  0  0  0  0  0
   13.9651  -18.4756   23.2129 O   0  0  0  0  0  0  0  0  0  0  0  0
  1  2  1  0
  3  4  1  6
  3  2  1  0
  3  5  1  0
  5  6  1  6
  7  8  2  0
  7  5  1  0
  9  7  1  0
 10  9  1  0
 10 13  1  0
 10 11  1  1
 12 11  1  0
 13 14  2  0
 15 13  1  0
 15 16  1  0
 16 17  1  6
 17 18  1  0
 19 20  1  0
 19 16  1  0
 21 19  2  0
M  END
$$$$
