ICC.pdb
     RDKit          3D

 21 20  0  0  1  0  0  0  0  0999 V2000
    5.5259  -11.3043   26.4338 C   0  0  0  0  0  0  0  0  0  0  0  0
    6.1208  -12.3962   27.3344 C   0  0  0  0  0  0  0  0  0  0  0  0
    7.0578  -13.1929   26.4860 C   0  0  2  0  0  0  0  0  0  0  0  0
    8.0656  -12.3145   25.7627 C   0  0  0  0  0  0  0  0  0  0  0  0
    6.3835  -14.1618   25.5621 C   0  0  2  0  0  0  0  0  0  0  0  0
    5.5535  -15.0352   26.3918 N   0  0  0  0  0  0  0  0  0  0  0  0
    7.3011  -14.9341   24.7210 C   0  0  0  0  0  0  0  0  0  0  0  0
    7.8574  -15.9444   25.2225 O   0  0  0  0  0  0  0  0  0  0  0  0
    7.6167  -14.6315   23.3711 N   0  0  0  0  0  0  0  0  0  0  0  0
    8.4675  -15.4196   22.5307 C   0  0  1  0  0  0  0  0  0  0  0  0
    8.4644  -14.9937   21.0913 C   0  0  0  0  0  0  0  0  0  0  0  0
    6.7946  -15.1769   20.4404 S   0  0  0  0  0  0  0  0  0  0  0  0
    9.8458  -15.4613   23.1075 C   0  0  0  0  0  0  0  0  0  0  0  0
   10.4791  -14.3782   23.3466 O   0  0  0  0  0  0  0  0  0  0  0  0
   10.5151  -16.6635   23.4154 N   0  0  0  0  0  0  0  0  0  0  0  0
   11.9101  -16.6985   23.8644 C   0  0  1  0  0  0  0  0  0  0  0  0
   11.9833  -17.7406   24.9893 C   0  0  0  0  0  0  0  0  0  0  0  0
   10.9627  -17.2408   26.3924 S   0  0  0  0  0  0  0  0  0  0  0  0
   12.8259  -17.0444   22.7698 C   0  0  0  0  0  0  0  0  0  0  0  0
   14.1984  -17.0216   22.9216 O   0  0  0  0  0  0  0  0  0  0  0  0
   12.3574  -17.3727   21.6560 O   0  0  0  0  0  0  0  0  0  0  0  0
  1  2  1  0
  3  4  1  6
  3  2  1  0
  3  5  1  0
  5  6  1  1
  7  8  2  0
  7  5  1  0
  9  7  1  0
 10  9  1  0
 10 13  1  0
 10 11  1  6
 12 11  1  0
 13 14  2  0
 15 13  1  0
 15 16  1  0
 16 17  1  1
 17 18  1  0
 19 20  1  0
 19 16  1  0
 21 19  2  0
M  END
$$$$
