ICC.pdb
     RDKit          3D

 21 20  0  0  1  0  0  0  0  0999 V2000
    7.6345  -12.4467   18.9478 C   0  0  0  0  0  0  0  0  0  0  0  0
    7.8712  -13.9508   19.1450 C   0  0  0  0  0  0  0  0  0  0  0  0
    7.7346  -14.2215   20.6080 C   0  0  2  0  0  0  0  0  0  0  0  0
    8.6963  -13.3874   21.4386 C   0  0  0  0  0  0  0  0  0  0  0  0
    7.7807  -15.6741   20.9752 C   0  0  2  0  0  0  0  0  0  0  0  0
    6.7686  -16.3513   20.1645 N   0  0  0  0  0  0  0  0  0  0  0  0
    7.5931  -15.9435   22.4028 C   0  0  0  0  0  0  0  0  0  0  0  0
    6.4452  -15.7825   22.8909 O   0  0  0  0  0  0  0  0  0  0  0  0
    8.6127  -16.3761   23.2897 N   0  0  0  0  0  0  0  0  0  0  0  0
    8.4316  -16.6283   24.6878 C   0  0  1  0  0  0  0  0  0  0  0  0
    8.9978  -17.9402   25.1478 C   0  0  0  0  0  0  0  0  0  0  0  0
    7.6922  -19.1804   25.0963 S   0  0  0  0  0  0  0  0  0  0  0  0
    8.9568  -15.4744   25.4796 C   0  0  0  0  0  0  0  0  0  0  0  0
   10.1446  -15.0462   25.2871 O   0  0  0  0  0  0  0  0  0  0  0  0
    8.1969  -14.8048   26.4605 N   0  0  0  0  0  0  0  0  0  0  0  0
    8.7862  -13.8413   27.3949 C   0  0  1  0  0  0  0  0  0  0  0  0
    7.6384  -12.9482   27.8868 C   0  0  0  0  0  0  0  0  0  0  0  0
    6.4965  -12.5731   26.5395 S   0  0  0  0  0  0  0  0  0  0  0  0
    9.4486  -14.5107   28.5216 C   0  0  0  0  0  0  0  0  0  0  0  0
   10.2354  -13.8261   29.4270 O   0  0  0  0  0  0  0  0  0  0  0  0
    9.3022  -15.7446   28.6766 O   0  0  0  0  0  0  0  0  0  0  0  0
  1  2  1  0
  3  4  1  1
  3  2  1  0
  3  5  1  0
  5  6  1  6
  7  8  2  0
  7  5  1  0
  9  7  1  0
 10  9  1  0
 10 13  1  0
 10 11  1  1
 12 11  1  0
 13 14  2  0
 15 13  1  0
 15 16  1  0
 16 17  1  1
 17 18  1  0
 19 20  1  0
 19 16  1  0
 21 19  2  0
M  END
$$$$
