ICC.pdb
     RDKit          3D

 21 20  0  0  1  0  0  0  0  0999 V2000
    6.9124  -11.9335   27.6716 C   0  0  0  0  0  0  0  0  0  0  0  0
    6.1310  -13.0471   26.9600 C   0  0  0  0  0  0  0  0  0  0  0  0
    7.0752  -13.6896   25.9966 C   0  0  2  0  0  0  0  0  0  0  0  0
    7.7490  -12.6736   25.0887 C   0  0  0  0  0  0  0  0  0  0  0  0
    6.4901  -14.8365   25.2288 C   0  0  2  0  0  0  0  0  0  0  0  0
    5.9701  -15.7868   26.2119 N   0  0  0  0  0  0  0  0  0  0  0  0
    7.4221  -15.4809   24.3004 C   0  0  0  0  0  0  0  0  0  0  0  0
    8.1825  -16.3764   24.7494 O   0  0  0  0  0  0  0  0  0  0  0  0
    7.5378  -15.1735   22.9199 N   0  0  0  0  0  0  0  0  0  0  0  0
    8.4865  -15.7642   22.0244 C   0  0  1  0  0  0  0  0  0  0  0  0
    8.2047  -15.4942   20.5748 C   0  0  0  0  0  0  0  0  0  0  0  0
    6.4707  -15.8575   20.2481 S   0  0  0  0  0  0  0  0  0  0  0  0
    9.8704  -15.3598   22.4187 C   0  0  0  0  0  0  0  0  0  0  0  0
   10.0750  -14.2435   23.0046 O   0  0  0  0  0  0  0  0  0  0  0  0
   11.0048  -16.1612   22.1760 N   0  0  0  0  0  0  0  0  0  0  0  0
   12.1246  -16.2511   23.1177 C   0  0  1  0  0  0  0  0  0  0  0  0
   11.5495  -16.7951   24.4331 C   0  0  0  0  0  0  0  0  0  0  0  0
   12.8568  -17.0243   25.6572 S   0  0  0  0  0  0  0  0  0  0  0  0
   13.1922  -17.1237   22.6125 C   0  0  0  0  0  0  0  0  0  0  0  0
   12.9305  -18.3516   22.0367 O   0  0  0  0  0  0  0  0  0  0  0  0
   14.3846  -16.7521   22.7015 O   0  0  0  0  0  0  0  0  0  0  0  0
  1  2  1  0
  3  4  1  6
  3  2  1  0
  3  5  1  0
  5  6  1  1
  7  8  2  0
  7  5  1  0
  9  7  1  0
 10  9  1  0
 10 13  1  0
 10 11  1  6
 12 11  1  0
 13 14  2  0
 15 13  1  0
 15 16  1  0
 16 17  1  1
 17 18  1  0
 19 20  1  0
 19 16  1  0
 21 19  2  0
M  END
$$$$
