ICC.pdb
     RDKit          3D

 21 20  0  0  1  0  0  0  0  0999 V2000
    6.9515  -11.5749   27.0224 C   0  0  0  0  0  0  0  0  0  0  0  0
    6.1650  -12.7615   26.4474 C   0  0  0  0  0  0  0  0  0  0  0  0
    7.1600  -13.6609   25.7890 C   0  0  2  0  0  0  0  0  0  0  0  0
    8.0666  -12.9088   24.8283 C   0  0  0  0  0  0  0  0  0  0  0  0
    6.5667  -14.8884   25.1659 C   0  0  2  0  0  0  0  0  0  0  0  0
    5.7157  -15.5124   26.1791 N   0  0  0  0  0  0  0  0  0  0  0  0
    7.5518  -15.8343   24.6360 C   0  0  0  0  0  0  0  0  0  0  0  0
    8.0671  -16.6615   25.4310 O   0  0  0  0  0  0  0  0  0  0  0  0
    7.9766  -15.8937   23.2834 N   0  0  0  0  0  0  0  0  0  0  0  0
    8.7709  -16.9428   22.7181 C   0  0  1  0  0  0  0  0  0  0  0  0
    8.2866  -17.4184   21.3792 C   0  0  0  0  0  0  0  0  0  0  0  0
    6.5022  -17.6514   21.4621 S   0  0  0  0  0  0  0  0  0  0  0  0
   10.2063  -16.5267   22.6877 C   0  0  0  0  0  0  0  0  0  0  0  0
   10.5219  -15.3119   22.4514 O   0  0  0  0  0  0  0  0  0  0  0  0
   11.2720  -17.4225   22.9113 N   0  0  0  0  0  0  0  0  0  0  0  0
   12.5411  -17.0055   23.5147 C   0  0  1  0  0  0  0  0  0  0  0  0
   12.1885  -16.0451   24.6593 C   0  0  0  0  0  0  0  0  0  0  0  0
   13.1950  -14.5486   24.5725 S   0  0  0  0  0  0  0  0  0  0  0  0
   13.3105  -18.1530   24.0123 C   0  0  0  0  0  0  0  0  0  0  0  0
   12.7264  -19.1751   24.7346 O   0  0  0  0  0  0  0  0  0  0  0  0
   14.5392  -18.2176   23.7798 O   0  0  0  0  0  0  0  0  0  0  0  0
  1  2  1  0
  3  4  1  6
  3  2  1  0
  3  5  1  0
  5  6  1  1
  7  8  2  0
  7  5  1  0
  9  7  1  0
 10  9  1  0
 10 13  1  0
 10 11  1  6
 12 11  1  0
 13 14  2  0
 15 13  1  0
 15 16  1  0
 16 17  1  1
 17 18  1  0
 19 20  1  0
 19 16  1  0
 21 19  2  0
M  END
$$$$
