ICC.pdb
     RDKit          3D

 21 20  0  0  1  0  0  0  0  0999 V2000
    8.0648  -15.6707   16.5398 C   0  0  0  0  0  0  0  0  0  0  0  0
    7.2490  -15.2337   17.7648 C   0  0  0  0  0  0  0  0  0  0  0  0
    8.2213  -15.0284   18.8805 C   0  0  2  0  0  0  0  0  0  0  0  0
    9.1975  -16.1861   19.0119 C   0  0  0  0  0  0  0  0  0  0  0  0
    7.5909  -14.6662   20.1914 C   0  0  2  0  0  0  0  0  0  0  0  0
    6.8131  -13.4475   19.9684 N   0  0  0  0  0  0  0  0  0  0  0  0
    8.5407  -14.5022   21.2945 C   0  0  0  0  0  0  0  0  0  0  0  0
    9.2890  -13.4913   21.2876 O   0  0  0  0  0  0  0  0  0  0  0  0
    8.6868  -15.4013   22.3825 N   0  0  0  0  0  0  0  0  0  0  0  0
    9.6414  -15.2607   23.4408 C   0  0  1  0  0  0  0  0  0  0  0  0
    9.0278  -15.2004   24.8095 C   0  0  0  0  0  0  0  0  0  0  0  0
    7.5452  -16.2237   24.8213 S   0  0  0  0  0  0  0  0  0  0  0  0
   10.6774  -16.3324   23.3298 C   0  0  0  0  0  0  0  0  0  0  0  0
   10.3532  -17.5074   22.9482 O   0  0  0  0  0  0  0  0  0  0  0  0
   12.0386  -16.1208   23.6304 N   0  0  0  0  0  0  0  0  0  0  0  0
   13.0531  -17.1682   23.4793 C   0  0  1  0  0  0  0  0  0  0  0  0
   14.1342  -16.6013   22.5484 C   0  0  0  0  0  0  0  0  0  0  0  0
   14.8445  -15.0909   23.2371 S   0  0  0  0  0  0  0  0  0  0  0  0
   13.6283  -17.5596   24.7725 C   0  0  0  0  0  0  0  0  0  0  0  0
   14.5796  -18.5545   24.8856 O   0  0  0  0  0  0  0  0  0  0  0  0
   13.2509  -16.9781   25.8152 O   0  0  0  0  0  0  0  0  0  0  0  0
  1  2  1  0
  3  4  1  1
  3  2  1  0
  3  5  1  0
  5  6  1  6
  7  8  2  0
  7  5  1  0
  9  7  1  0
 10  9  1  0
 10 13  1  0
 10 11  1  1
 12 11  1  0
 13 14  2  0
 15 13  1  0
 15 16  1  0
 16 17  1  6
 17 18  1  0
 19 20  1  0
 19 16  1  0
 21 19  2  0
M  END
$$$$
