ICC.pdb
     RDKit          3D

 21 20  0  0  1  0  0  0  0  0999 V2000
   13.1255  -16.8481   19.6678 C   0  0  0  0  0  0  0  0  0  0  0  0
   11.7853  -17.5780   19.8362 C   0  0  0  0  0  0  0  0  0  0  0  0
   11.1326  -17.0075   21.0532 C   0  0  2  0  0  0  0  0  0  0  0  0
   12.1033  -16.8710   22.2149 C   0  0  0  0  0  0  0  0  0  0  0  0
    9.8620  -17.6950   21.4533 C   0  0  2  0  0  0  0  0  0  0  0  0
    8.9741  -17.6604   20.2912 N   0  0  0  0  0  0  0  0  0  0  0  0
    9.2156  -17.1288   22.6396 C   0  0  0  0  0  0  0  0  0  0  0  0
    8.5818  -16.0500   22.5117 O   0  0  0  0  0  0  0  0  0  0  0  0
    9.2467  -17.7050   23.9359 N   0  0  0  0  0  0  0  0  0  0  0  0
    8.6283  -17.1428   25.0989 C   0  0  1  0  0  0  0  0  0  0  0  0
    7.5969  -18.0325   25.7298 C   0  0  0  0  0  0  0  0  0  0  0  0
    6.5542  -18.7167   24.4298 S   0  0  0  0  0  0  0  0  0  0  0  0
    9.6800  -16.7148   26.0710 C   0  0  0  0  0  0  0  0  0  0  0  0
   10.8220  -17.2865   26.0807 O   0  0  0  0  0  0  0  0  0  0  0  0
    9.4841  -15.6828   27.0117 N   0  0  0  0  0  0  0  0  0  0  0  0
   10.5049  -15.3046   27.9935 C   0  0  1  0  0  0  0  0  0  0  0  0
   10.0724  -13.9524   28.5778 C   0  0  0  0  0  0  0  0  0  0  0  0
    9.4890  -12.8485   27.2735 S   0  0  0  0  0  0  0  0  0  0  0  0
   10.6420  -16.3128   29.0523 C   0  0  0  0  0  0  0  0  0  0  0  0
   11.6671  -16.2762   29.9771 O   0  0  0  0  0  0  0  0  0  0  0  0
    9.8064  -17.2422   29.1290 O   0  0  0  0  0  0  0  0  0  0  0  0
  1  2  1  0
  3  4  1  1
  3  2  1  0
  3  5  1  0
  5  6  1  6
  7  8  2  0
  7  5  1  0
  9  7  1  0
 10  9  1  0
 10 13  1  0
 10 11  1  1
 12 11  1  0
 13 14  2  0
 15 13  1  0
 15 16  1  0
 16 17  1  1
 17 18  1  0
 19 20  1  0
 19 16  1  0
 21 19  2  0
M  END
$$$$
