ICC.pdb
     RDKit          3D

 21 20  0  0  1  0  0  0  0  0999 V2000
    7.1782  -12.3117   19.4674 C   0  0  0  0  0  0  0  0  0  0  0  0
    7.9656  -13.6254   19.3620 C   0  0  0  0  0  0  0  0  0  0  0  0
    7.8133  -14.3268   20.6724 C   0  0  2  0  0  0  0  0  0  0  0  0
    8.2327  -13.4533   21.8435 C   0  0  0  0  0  0  0  0  0  0  0  0
    8.4441  -15.6857   20.7236 C   0  0  2  0  0  0  0  0  0  0  0  0
    7.8858  -16.4572   19.6132 N   0  0  0  0  0  0  0  0  0  0  0  0
    8.2748  -16.3835   22.0005 C   0  0  0  0  0  0  0  0  0  0  0  0
    7.3444  -17.2240   22.0982 O   0  0  0  0  0  0  0  0  0  0  0  0
    9.0844  -16.1858   23.1489 N   0  0  0  0  0  0  0  0  0  0  0  0
    8.9526  -16.9061   24.3797 C   0  0  1  0  0  0  0  0  0  0  0  0
    9.0669  -18.3952   24.2283 C   0  0  0  0  0  0  0  0  0  0  0  0
   10.6134  -18.7710   23.3843 S   0  0  0  0  0  0  0  0  0  0  0  0
    9.9143  -16.3624   25.3866 C   0  0  0  0  0  0  0  0  0  0  0  0
   11.1194  -16.1015   25.0537 O   0  0  0  0  0  0  0  0  0  0  0  0
    9.5627  -16.1103   26.7285 N   0  0  0  0  0  0  0  0  0  0  0  0
   10.5059  -15.5492   27.7003 C   0  0  1  0  0  0  0  0  0  0  0  0
    9.8211  -14.3223   28.3190 C   0  0  0  0  0  0  0  0  0  0  0  0
   10.8924  -13.5411   29.5444 S   0  0  0  0  0  0  0  0  0  0  0  0
   10.8659  -16.5258   28.7362 C   0  0  0  0  0  0  0  0  0  0  0  0
   12.0578  -16.4586   29.4307 O   0  0  0  0  0  0  0  0  0  0  0  0
   10.0726  -17.4559   29.0075 O   0  0  0  0  0  0  0  0  0  0  0  0
  1  2  1  0
  3  4  1  1
  3  2  1  0
  3  5  1  0
  5  6  1  6
  7  8  2  0
  7  5  1  0
  9  7  1  0
 10  9  1  0
 10 13  1  0
 10 11  1  6
 12 11  1  0
 13 14  2  0
 15 13  1  0
 15 16  1  0
 16 17  1  1
 17 18  1  0
 19 20  1  0
 19 16  1  0
 21 19  2  0
M  END
$$$$
