ICC.pdb
     RDKit          3D

 21 20  0  0  1  0  0  0  0  0999 V2000
    4.3673  -21.0120   18.8476 C   0  0  0  0  0  0  0  0  0  0  0  0
    4.4158  -22.0362   19.9903 C   0  0  0  0  0  0  0  0  0  0  0  0
    4.7022  -21.2731   21.2425 C   0  0  2  0  0  0  0  0  0  0  0  0
    5.8505  -20.2926   21.0676 C   0  0  0  0  0  0  0  0  0  0  0  0
    4.8665  -22.1273   22.4634 C   0  0  2  0  0  0  0  0  0  0  0  0
    3.6505  -22.9309   22.5884 N   0  0  0  0  0  0  0  0  0  0  0  0
    5.1441  -21.3794   23.6920 C   0  0  0  0  0  0  0  0  0  0  0  0
    4.1676  -20.9668   24.3686 O   0  0  0  0  0  0  0  0  0  0  0  0
    6.4399  -21.0793   24.1862 N   0  0  0  0  0  0  0  0  0  0  0  0
    6.7126  -20.4318   25.4342 C   0  0  1  0  0  0  0  0  0  0  0  0
    6.1146  -21.1261   26.6232 C   0  0  0  0  0  0  0  0  0  0  0  0
    7.0540  -22.6292   26.9447 S   0  0  0  0  0  0  0  0  0  0  0  0
    8.1852  -20.2214   25.5809 C   0  0  0  0  0  0  0  0  0  0  0  0
    8.9448  -20.2322   24.5542 O   0  0  0  0  0  0  0  0  0  0  0  0
    8.8111  -20.0040   26.8255 N   0  0  0  0  0  0  0  0  0  0  0  0
    9.7717  -18.9192   27.0479 C   0  0  1  0  0  0  0  0  0  0  0  0
    9.0181  -17.6063   26.7927 C   0  0  0  0  0  0  0  0  0  0  0  0
   10.0080  -16.4864   25.7798 S   0  0  0  0  0  0  0  0  0  0  0  0
   10.3230  -18.9506   28.4086 C   0  0  0  0  0  0  0  0  0  0  0  0
   11.6583  -18.7123   28.6689 O   0  0  0  0  0  0  0  0  0  0  0  0
    9.5657  -19.2009   29.3738 O   0  0  0  0  0  0  0  0  0  0  0  0
  1  2  1  0
  3  4  1  6
  3  2  1  0
  3  5  1  0
  5  6  1  1
  7  8  2  0
  7  5  1  0
  9  7  1  0
 10  9  1  0
 10 13  1  0
 10 11  1  1
 12 11  1  0
 13 14  2  0
 15 13  1  0
 15 16  1  0
 16 17  1  1
 17 18  1  0
 19 20  1  0
 19 16  1  0
 21 19  2  0
M  END
$$$$
