GPH.pdb
     RDKit          3D

 22 23  0  0  1  0  0  0  0  0999 V2000
   28.5301  -34.6349   -6.8025 N   0  0  0  0  0  0  0  0  0  0  0  0
   29.7396  -34.0911   -6.2463 C   0  0  0  0  0  0  0  0  0  0  0  0
   30.3606  -35.0622   -5.3070 C   0  0  0  0  0  0  0  0  0  0  0  0
   29.6298  -35.9052   -4.7523 O   0  0  0  0  0  0  0  0  0  0  0  0
   31.7730  -35.0354   -5.0394 N   0  0  0  0  0  0  0  0  0  0  0  0
   32.7477  -34.1863   -5.6757 C   0  0  0  0  0  0  0  0  0  0  0  0
   33.7065  -33.8716   -4.5582 C   0  0  0  0  0  0  0  0  0  0  0  0
   33.8961  -35.2965   -4.0009 C   0  0  0  0  0  0  0  0  0  0  0  0
   32.4691  -35.8598   -4.0883 C   0  0  1  0  0  0  0  0  0  0  0  0
   31.8481  -35.8660   -2.7383 C   0  0  0  0  0  0  0  0  0  0  0  0
   31.3563  -34.8168   -2.2989 O   0  0  0  0  0  0  0  0  0  0  0  0
   31.8293  -37.0630   -1.9826 N   0  0  0  0  0  0  0  0  0  0  0  0
   31.2996  -37.0748   -0.6182 C   0  0  1  0  0  0  0  0  0  0  0  0
   30.8725  -38.5253   -0.3659 C   0  0  0  0  0  0  0  0  0  0  0  0
   30.3686  -38.7121    1.0097 C   0  0  0  0  0  0  0  0  0  0  0  0
   29.3705  -37.9912    1.6209 C   0  0  0  0  0  0  0  0  0  0  0  0
   29.2399  -38.4989    2.8671 N   0  0  0  0  0  0  0  0  0  0  0  0
   30.1171  -39.4864    3.0160 C   0  0  0  0  0  0  0  0  0  0  0  0
   30.8186  -39.6246    1.8725 N   0  0  0  0  0  0  0  0  0  0  0  0
   32.3342  -36.6503    0.3530 C   0  0  0  0  0  0  0  0  0  0  0  0
   32.0033  -36.3730    1.5127 O   0  0  0  0  0  0  0  0  0  0  0  0
   33.6619  -36.5583   -0.0124 O   0  0  0  0  0  0  0  0  0  0  0  0
  2  1  1  0
  2  3  1  0
  3  4  2  0
  5  3  1  0
  5  6  1  0
  7  6  1  0
  8  7  1  0
  9  8  1  0
  9  5  1  0
  9 10  1  1
 11 10  2  0
 12 10  1  0
 13 14  1  1
 13 12  1  0
 14 15  1  0
 15 16  2  0
 17 16  1  0
 18 17  1  0
 19 18  2  0
 19 15  1  0
 20 13  1  0
 20 22  1  0
 21 20  2  0
M  END
$$$$
