GPH.pdb
     RDKit          3D

 22 23  0  0  1  0  0  0  0  0999 V2000
   23.9378  -14.3514  -18.4757 N   0  0  0  0  0  0  0  0  0  0  0  0
   24.5014  -13.0354  -18.6107 C   0  0  0  0  0  0  0  0  0  0  0  0
   24.1594  -12.2012  -17.4284 C   0  0  0  0  0  0  0  0  0  0  0  0
   22.9651  -12.1180  -17.0834 O   0  0  0  0  0  0  0  0  0  0  0  0
   25.1791  -11.5026  -16.6939 N   0  0  0  0  0  0  0  0  0  0  0  0
   26.5936  -11.7751  -16.7249 C   0  0  0  0  0  0  0  0  0  0  0  0
   27.2069  -10.4041  -16.6179 C   0  0  0  0  0  0  0  0  0  0  0  0
   26.3624   -9.8576  -15.4497 C   0  0  0  0  0  0  0  0  0  0  0  0
   24.9672  -10.4056  -15.7881 C   0  0  1  0  0  0  0  0  0  0  0  0
   24.1251   -9.3199  -16.3541 C   0  0  0  0  0  0  0  0  0  0  0  0
   24.2079   -9.0646  -17.5638 O   0  0  0  0  0  0  0  0  0  0  0  0
   23.2482   -8.6009  -15.5064 N   0  0  0  0  0  0  0  0  0  0  0  0
   22.3203   -7.6132  -16.0592 C   0  0  1  0  0  0  0  0  0  0  0  0
   21.3849   -8.4101  -16.9756 C   0  0  0  0  0  0  0  0  0  0  0  0
   20.4549   -9.2558  -16.2002 C   0  0  0  0  0  0  0  0  0  0  0  0
   20.5652  -10.6088  -15.9845 C   0  0  0  0  0  0  0  0  0  0  0  0
   19.5024  -10.9635  -15.2278 N   0  0  0  0  0  0  0  0  0  0  0  0
   18.7720   -9.8790  -14.9889 C   0  0  0  0  0  0  0  0  0  0  0  0
   19.3539   -8.8192  -15.5864 N   0  0  0  0  0  0  0  0  0  0  0  0
   21.5598   -6.9419  -14.9799 C   0  0  0  0  0  0  0  0  0  0  0  0
   20.8237   -5.9867  -15.2574 O   0  0  0  0  0  0  0  0  0  0  0  0
   21.6574   -7.3629  -13.6692 O   0  0  0  0  0  0  0  0  0  0  0  0
  2  1  1  0
  2  3  1  0
  3  4  2  0
  5  3  1  0
  5  6  1  0
  7  6  1  0
  8  7  1  0
  9  8  1  0
  9  5  1  0
  9 10  1  6
 11 10  2  0
 12 10  1  0
 13 14  1  6
 13 12  1  0
 14 15  1  0
 15 16  2  0
 17 16  1  0
 18 17  1  0
 19 18  2  0
 19 15  1  0
 20 13  1  0
 20 22  1  0
 21 20  2  0
M  END
$$$$
