GPH.pdb
     RDKit          3D

 22 23  0  0  1  0  0  0  0  0999 V2000
    9.7088  -16.5601   -0.8791 N   0  0  0  0  0  0  0  0  0  0  0  0
   10.1406  -16.7776    0.4752 C   0  0  0  0  0  0  0  0  0  0  0  0
   11.3506  -17.6415    0.5011 C   0  0  0  0  0  0  0  0  0  0  0  0
   11.5965  -18.3522   -0.4922 O   0  0  0  0  0  0  0  0  0  0  0  0
   12.2227  -17.6618    1.6440 N   0  0  0  0  0  0  0  0  0  0  0  0
   12.1684  -16.7731    2.7767 C   0  0  0  0  0  0  0  0  0  0  0  0
   12.5428  -17.6669    3.9291 C   0  0  0  0  0  0  0  0  0  0  0  0
   13.7764  -18.3509    3.3068 C   0  0  0  0  0  0  0  0  0  0  0  0
   13.3142  -18.5736    1.8584 C   0  0  1  0  0  0  0  0  0  0  0  0
   12.9462  -19.9999    1.6624 C   0  0  0  0  0  0  0  0  0  0  0  0
   11.7510  -20.3235    1.7104 O   0  0  0  0  0  0  0  0  0  0  0  0
   13.9613  -20.9579    1.4258 N   0  0  0  0  0  0  0  0  0  0  0  0
   13.6210  -22.3621    1.1916 C   0  0  1  0  0  0  0  0  0  0  0  0
   12.8120  -22.3673   -0.1105 C   0  0  0  0  0  0  0  0  0  0  0  0
   12.4175  -23.7362   -0.4998 C   0  0  0  0  0  0  0  0  0  0  0  0
   11.8992  -24.7049    0.3262 C   0  0  0  0  0  0  0  0  0  0  0  0
   11.6862  -25.7933   -0.4470 N   0  0  0  0  0  0  0  0  0  0  0  0
   12.0564  -25.5077   -1.6913 C   0  0  0  0  0  0  0  0  0  0  0  0
   12.5095  -24.2382   -1.7324 N   0  0  0  0  0  0  0  0  0  0  0  0
   14.8444  -23.1864    1.0590 C   0  0  0  0  0  0  0  0  0  0  0  0
   15.9016  -22.6532    0.6996 O   0  0  0  0  0  0  0  0  0  0  0  0
   14.8265  -24.5397    1.3293 O   0  0  0  0  0  0  0  0  0  0  0  0
  2  1  1  0
  2  3  1  0
  3  4  2  0
  5  3  1  0
  5  6  1  0
  7  6  1  0
  8  7  1  0
  9  8  1  0
  9  5  1  0
  9 10  1  1
 11 10  2  0
 12 10  1  0
 13 14  1  6
 13 12  1  0
 14 15  1  0
 15 16  2  0
 17 16  1  0
 18 17  1  0
 19 18  2  0
 19 15  1  0
 20 13  1  0
 20 22  1  0
 21 20  2  0
M  END
$$$$
