GPH.pdb
     RDKit          3D

 22 23  0  0  1  0  0  0  0  0999 V2000
   23.3888  -18.4199  -15.1272 N   0  0  0  0  0  0  0  0  0  0  0  0
   23.8654  -17.4214  -16.0457 C   0  0  0  0  0  0  0  0  0  0  0  0
   23.9220  -16.0917  -15.3825 C   0  0  0  0  0  0  0  0  0  0  0  0
   22.8983  -15.6652  -14.8147 O   0  0  0  0  0  0  0  0  0  0  0  0
   25.1282  -15.3092  -15.3920 N   0  0  0  0  0  0  0  0  0  0  0  0
   26.4349  -15.7575  -15.8010 C   0  0  0  0  0  0  0  0  0  0  0  0
   27.0183  -14.5414  -16.4700 C   0  0  0  0  0  0  0  0  0  0  0  0
   26.6576  -13.4885  -15.4032 C   0  0  0  0  0  0  0  0  0  0  0  0
   25.2470  -13.9341  -14.9872 C   0  0  1  0  0  0  0  0  0  0  0  0
   24.2347  -13.0408  -15.6080 C   0  0  0  0  0  0  0  0  0  0  0  0
   23.8270  -13.2975  -16.7497 O   0  0  0  0  0  0  0  0  0  0  0  0
   23.7569  -11.9190  -14.8886 N   0  0  0  0  0  0  0  0  0  0  0  0
   22.7332  -11.0454  -15.4640 C   0  0  1  0  0  0  0  0  0  0  0  0
   21.5629  -11.0928  -14.4750 C   0  0  0  0  0  0  0  0  0  0  0  0
   20.5104  -10.1199  -14.8314 C   0  0  0  0  0  0  0  0  0  0  0  0
   19.6303  -10.2146  -15.8830 C   0  0  0  0  0  0  0  0  0  0  0  0
   18.8504   -9.1114  -15.8298 N   0  0  0  0  0  0  0  0  0  0  0  0
   19.2329   -8.3722  -14.7935 C   0  0  0  0  0  0  0  0  0  0  0  0
   20.2584   -8.9884  -14.1711 N   0  0  0  0  0  0  0  0  0  0  0  0
   23.2436   -9.6632  -15.6155 C   0  0  0  0  0  0  0  0  0  0  0  0
   24.2284   -9.3027  -14.9587 O   0  0  0  0  0  0  0  0  0  0  0  0
   22.6402   -8.7695  -16.4768 O   0  0  0  0  0  0  0  0  0  0  0  0
  2  1  1  0
  2  3  1  0
  3  4  2  0
  5  3  1  0
  5  6  1  0
  7  6  1  0
  8  7  1  0
  9  8  1  0
  9  5  1  0
  9 10  1  6
 11 10  2  0
 12 10  1  0
 13 14  1  1
 13 12  1  0
 14 15  1  0
 15 16  2  0
 17 16  1  0
 18 17  1  0
 19 18  2  0
 19 15  1  0
 20 13  1  0
 20 22  1  0
 21 20  2  0
M  END
$$$$
