GPH.pdb
     RDKit          3D

 22 23  0  0  1  0  0  0  0  0999 V2000
   21.0252  -13.9437  -17.6765 N   0  0  0  0  0  0  0  0  0  0  0  0
   22.0368  -13.0226  -17.2339 C   0  0  0  0  0  0  0  0  0  0  0  0
   21.4180  -11.8839  -16.5049 C   0  0  0  0  0  0  0  0  0  0  0  0
   20.3234  -11.4442  -16.9058 O   0  0  0  0  0  0  0  0  0  0  0  0
   22.0627  -11.2975  -15.3613 N   0  0  0  0  0  0  0  0  0  0  0  0
   23.1848  -11.8418  -14.6399 C   0  0  0  0  0  0  0  0  0  0  0  0
   23.9719  -10.6161  -14.2591 C   0  0  0  0  0  0  0  0  0  0  0  0
   22.8157   -9.7505  -13.7200 C   0  0  0  0  0  0  0  0  0  0  0  0
   21.6967  -10.0597  -14.7268 C   0  0  1  0  0  0  0  0  0  0  0  0
   21.5471   -8.9256  -15.6752 C   0  0  0  0  0  0  0  0  0  0  0  0
   21.9342   -9.0653  -16.8440 O   0  0  0  0  0  0  0  0  0  0  0  0
   20.9684   -7.7128  -15.2294 N   0  0  0  0  0  0  0  0  0  0  0  0
   20.6116   -6.6621  -16.1840 C   0  0  1  0  0  0  0  0  0  0  0  0
   19.4603   -7.2453  -17.0111 C   0  0  0  0  0  0  0  0  0  0  0  0
   18.9146   -6.2526  -17.9587 C   0  0  0  0  0  0  0  0  0  0  0  0
   18.4305   -5.0042  -17.6479 C   0  0  0  0  0  0  0  0  0  0  0  0
   18.0379   -4.4447  -18.8145 N   0  0  0  0  0  0  0  0  0  0  0  0
   18.2697   -5.3088  -19.7975 C   0  0  0  0  0  0  0  0  0  0  0  0
   18.8115   -6.4287  -19.2771 N   0  0  0  0  0  0  0  0  0  0  0  0
   20.1871   -5.4307  -15.4788 C   0  0  0  0  0  0  0  0  0  0  0  0
   19.4324   -5.5181  -14.5021 O   0  0  0  0  0  0  0  0  0  0  0  0
   20.6186   -4.1865  -15.8917 O   0  0  0  0  0  0  0  0  0  0  0  0
  2  1  1  0
  2  3  1  0
  3  4  2  0
  5  3  1  0
  5  6  1  0
  7  6  1  0
  8  7  1  0
  9  8  1  0
  9  5  1  0
  9 10  1  6
 11 10  2  0
 12 10  1  0
 13 14  1  6
 13 12  1  0
 14 15  1  0
 15 16  2  0
 17 16  1  0
 18 17  1  0
 19 18  2  0
 19 15  1  0
 20 13  1  0
 20 22  1  0
 21 20  2  0
M  END
$$$$
