GPH.pdb
     RDKit          3D

 22 23  0  0  1  0  0  0  0  0999 V2000
   28.3651  -20.8715  -14.6855 N   0  0  0  0  0  0  0  0  0  0  0  0
   27.5865  -20.0526  -13.7963 C   0  0  0  0  0  0  0  0  0  0  0  0
   26.2801  -20.7004  -13.5052 C   0  0  0  0  0  0  0  0  0  0  0  0
   25.5561  -21.0375  -14.4615 O   0  0  0  0  0  0  0  0  0  0  0  0
   25.8545  -20.9361  -12.1522 N   0  0  0  0  0  0  0  0  0  0  0  0
   26.6298  -20.7061  -10.9598 C   0  0  0  0  0  0  0  0  0  0  0  0
   25.6004  -20.2255   -9.9717 C   0  0  0  0  0  0  0  0  0  0  0  0
   24.5180  -21.2951  -10.2186 C   0  0  0  0  0  0  0  0  0  0  0  0
   24.5747  -21.4518  -11.7462 C   0  0  1  0  0  0  0  0  0  0  0  0
   23.4239  -20.7456  -12.3665 C   0  0  0  0  0  0  0  0  0  0  0  0
   23.4081  -19.5065  -12.3647 O   0  0  0  0  0  0  0  0  0  0  0  0
   22.3721  -21.4962  -12.9451 N   0  0  0  0  0  0  0  0  0  0  0  0
   21.2618  -20.8244  -13.6221 C   0  0  1  0  0  0  0  0  0  0  0  0
   21.2955  -21.3463  -15.0631 C   0  0  0  0  0  0  0  0  0  0  0  0
   21.3386  -20.2402  -16.0408 C   0  0  0  0  0  0  0  0  0  0  0  0
   21.3143  -18.8955  -15.7572 C   0  0  0  0  0  0  0  0  0  0  0  0
   21.3718  -18.2528  -16.9452 N   0  0  0  0  0  0  0  0  0  0  0  0
   21.4288  -19.1599  -17.9151 C   0  0  0  0  0  0  0  0  0  0  0  0
   21.4088  -20.3909  -17.3645 N   0  0  0  0  0  0  0  0  0  0  0  0
   19.9722  -21.1497  -12.9704 C   0  0  0  0  0  0  0  0  0  0  0  0
   19.8407  -22.2338  -12.3884 O   0  0  0  0  0  0  0  0  0  0  0  0
   18.9135  -20.2648  -13.0005 O   0  0  0  0  0  0  0  0  0  0  0  0
  2  1  1  0
  2  3  1  0
  3  4  2  0
  5  3  1  0
  5  6  1  0
  7  6  1  0
  8  7  1  0
  9  8  1  0
  9  5  1  0
  9 10  1  6
 11 10  2  0
 12 10  1  0
 13 14  1  6
 13 12  1  0
 14 15  1  0
 15 16  2  0
 17 16  1  0
 18 17  1  0
 19 18  2  0
 19 15  1  0
 20 13  1  0
 20 22  1  0
 21 20  2  0
M  END
$$$$
