GPH.pdb
     RDKit          3D

 22 23  0  0  1  0  0  0  0  0999 V2000
   23.8432  -14.6355  -18.1391 N   0  0  0  0  0  0  0  0  0  0  0  0
   24.1363  -13.2381  -18.3096 C   0  0  0  0  0  0  0  0  0  0  0  0
   23.6670  -12.4624  -17.1311 C   0  0  0  0  0  0  0  0  0  0  0  0
   22.4424  -12.3960  -16.9110 O   0  0  0  0  0  0  0  0  0  0  0  0
   24.5996  -11.8004  -16.2598 N   0  0  0  0  0  0  0  0  0  0  0  0
   26.0336  -11.9394  -16.2786 C   0  0  0  0  0  0  0  0  0  0  0  0
   26.5145  -10.5535  -15.9391 C   0  0  0  0  0  0  0  0  0  0  0  0
   25.5953  -10.2729  -14.7337 C   0  0  0  0  0  0  0  0  0  0  0  0
   24.2654  -10.8815  -15.2050 C   0  0  1  0  0  0  0  0  0  0  0  0
   23.3400   -9.7990  -15.6290 C   0  0  0  0  0  0  0  0  0  0  0  0
   23.4619   -9.3149  -16.7632 O   0  0  0  0  0  0  0  0  0  0  0  0
   22.3414   -9.3426  -14.7353 N   0  0  0  0  0  0  0  0  0  0  0  0
   21.3646   -8.3382  -15.1589 C   0  0  1  0  0  0  0  0  0  0  0  0
   19.9949   -8.9731  -14.8929 C   0  0  0  0  0  0  0  0  0  0  0  0
   19.7192  -10.0824  -15.8281 C   0  0  0  0  0  0  0  0  0  0  0  0
   19.8180  -10.0414  -17.1985 C   0  0  0  0  0  0  0  0  0  0  0  0
   19.4750  -11.2711  -17.6438 N   0  0  0  0  0  0  0  0  0  0  0  0
   19.1789  -12.0334  -16.5960 C   0  0  0  0  0  0  0  0  0  0  0  0
   19.3273  -11.3063  -15.4700 N   0  0  0  0  0  0  0  0  0  0  0  0
   21.5272   -7.0852  -14.3861 C   0  0  0  0  0  0  0  0  0  0  0  0
   22.1899   -7.0963  -13.3411 O   0  0  0  0  0  0  0  0  0  0  0  0
   20.9525   -5.9045  -14.8107 O   0  0  0  0  0  0  0  0  0  0  0  0
  2  1  1  0
  2  3  1  0
  3  4  2  0
  5  3  1  0
  5  6  1  0
  7  6  1  0
  8  7  1  0
  9  8  1  0
  9  5  1  0
  9 10  1  6
 11 10  2  0
 12 10  1  0
 13 14  1  1
 13 12  1  0
 14 15  1  0
 15 16  2  0
 17 16  1  0
 18 17  1  0
 19 18  2  0
 19 15  1  0
 20 13  1  0
 20 22  1  0
 21 20  2  0
M  END
$$$$
