GPH.pdb
     RDKit          3D

 22 23  0  0  1  0  0  0  0  0999 V2000
   19.7334  -12.0061  -17.6849 N   0  0  0  0  0  0  0  0  0  0  0  0
   20.3443  -10.8404  -18.2642 C   0  0  0  0  0  0  0  0  0  0  0  0
   20.8316   -9.9262  -17.1976 C   0  0  0  0  0  0  0  0  0  0  0  0
   20.0052   -9.4566  -16.3921 O   0  0  0  0  0  0  0  0  0  0  0  0
   22.2247   -9.5866  -17.0914 N   0  0  0  0  0  0  0  0  0  0  0  0
   23.3039  -10.1543  -17.8589 C   0  0  0  0  0  0  0  0  0  0  0  0
   24.2270   -8.9830  -18.0664 C   0  0  0  0  0  0  0  0  0  0  0  0
   24.2582   -8.4475  -16.6210 C   0  0  0  0  0  0  0  0  0  0  0  0
   22.7929   -8.6193  -16.1913 C   0  0  1  0  0  0  0  0  0  0  0  0
   22.1038   -7.3031  -16.2190 C   0  0  0  0  0  0  0  0  0  0  0  0
   21.7354   -6.8411  -17.3083 O   0  0  0  0  0  0  0  0  0  0  0  0
   21.8817   -6.6043  -15.0079 N   0  0  0  0  0  0  0  0  0  0  0  0
   21.1905   -5.3141  -15.0078 C   0  0  1  0  0  0  0  0  0  0  0  0
   19.8970   -5.5517  -14.2201 C   0  0  0  0  0  0  0  0  0  0  0  0
   18.9096   -6.3116  -15.0131 C   0  0  0  0  0  0  0  0  0  0  0  0
   18.4018   -5.9610  -16.2414 C   0  0  0  0  0  0  0  0  0  0  0  0
   17.5364   -6.9391  -16.5910 N   0  0  0  0  0  0  0  0  0  0  0  0
   17.5127   -7.8494  -15.6227 C   0  0  0  0  0  0  0  0  0  0  0  0
   18.3586   -7.4691  -14.6437 N   0  0  0  0  0  0  0  0  0  0  0  0
   22.0204   -4.2710  -14.3621 C   0  0  0  0  0  0  0  0  0  0  0  0
   23.0769   -4.5929  -13.8040 O   0  0  0  0  0  0  0  0  0  0  0  0
   21.6364   -2.9454  -14.3717 O   0  0  0  0  0  0  0  0  0  0  0  0
  2  1  1  0
  2  3  1  0
  3  4  2  0
  5  3  1  0
  5  6  1  0
  7  6  1  0
  8  7  1  0
  9  8  1  0
  9  5  1  0
  9 10  1  6
 11 10  2  0
 12 10  1  0
 13 14  1  1
 13 12  1  0
 14 15  1  0
 15 16  2  0
 17 16  1  0
 18 17  1  0
 19 18  2  0
 19 15  1  0
 20 13  1  0
 20 22  1  0
 21 20  2  0
M  END
$$$$
