VVC.pdb
     RDKit          3D

 21 20  0  0  1  0  0  0  0  0999 V2000
    7.2550  -12.7239   20.4257 C   0  0  0  0  0  0  0  0  0  0  0  0
    8.4824  -13.5783   20.1781 C   0  0  2  0  0  0  0  0  0  0  0  0
    8.8760  -13.3450   18.7170 C   0  0  0  0  0  0  0  0  0  0  0  0
    8.1779  -15.0542   20.3010 C   0  0  2  0  0  0  0  0  0  0  0  0
    7.2745  -15.3932   19.2202 N   0  0  0  0  0  0  0  0  0  0  0  0
    7.5707  -15.3974   21.6126 C   0  0  0  0  0  0  0  0  0  0  0  0
    6.3413  -15.3244   21.7675 O   0  0  0  0  0  0  0  0  0  0  0  0
    7.5417  -18.4944   23.3796 C   0  0  0  0  0  0  0  0  0  0  0  0
    8.0934  -17.5119   24.3444 C   0  0  2  0  0  0  0  0  0  0  0  0
    7.6604  -17.9212   25.7323 C   0  0  0  0  0  0  0  0  0  0  0  0
    7.8438  -16.0767   24.0371 C   0  0  2  0  0  0  0  0  0  0  0  0
    8.3858  -15.8114   22.7001 N   0  0  0  0  0  0  0  0  0  0  0  0
    8.4082  -15.1431   25.0229 C   0  0  0  0  0  0  0  0  0  0  0  0
    9.6832  -14.9974   25.0609 O   0  0  0  0  0  0  0  0  0  0  0  0
    7.6919  -14.3822   25.9383 N   0  0  0  0  0  0  0  0  0  0  0  0
    8.3062  -13.4444   26.8847 C   0  0  1  0  0  0  0  0  0  0  0  0
    7.1465  -12.5804   27.3960 C   0  0  0  0  0  0  0  0  0  0  0  0
    6.0852  -12.0570   26.0330 S   0  0  0  0  0  0  0  0  0  0  0  0
    8.9118  -14.1242   28.0226 C   0  0  0  0  0  0  0  0  0  0  0  0
    9.7250  -13.4402   28.9023 O   0  0  0  0  0  0  0  0  0  0  0  0
    8.7030  -15.3393   28.2192 O   0  0  0  0  0  0  0  0  0  0  0  0
  2  1  1  6
  3  2  1  0
  4  2  1  0
  4  5  1  6
  6  4  1  0
  7  6  2  0
  9  8  1  6
  9 11  1  0
 10  9  1  0
 11 12  1  6
 12  6  1  0
 13 11  1  0
 13 15  1  0
 14 13  2  0
 16 15  1  0
 16 17  1  1
 16 19  1  0
 18 17  1  0
 19 21  2  0
 19 20  1  0
M  END
$$$$
