VVC.pdb
     RDKit          3D

 21 20  0  0  1  0  0  0  0  0999 V2000
    7.1705  -12.8955   21.8475 C   0  0  0  0  0  0  0  0  0  0  0  0
    8.2503  -13.4358   20.9312 C   0  0  2  0  0  0  0  0  0  0  0  0
    7.9551  -12.8642   19.5418 C   0  0  0  0  0  0  0  0  0  0  0  0
    8.1735  -14.9394   20.7922 C   0  0  2  0  0  0  0  0  0  0  0  0
    6.8830  -15.2471   20.2100 N   0  0  0  0  0  0  0  0  0  0  0  0
    8.3350  -15.6351   22.0949 C   0  0  0  0  0  0  0  0  0  0  0  0
    7.3403  -15.8872   22.7933 O   0  0  0  0  0  0  0  0  0  0  0  0
   10.2113  -18.8653   22.7718 C   0  0  0  0  0  0  0  0  0  0  0  0
   10.7241  -17.8091   23.6783 C   0  0  2  0  0  0  0  0  0  0  0  0
   11.1546  -18.4650   24.9689 C   0  0  0  0  0  0  0  0  0  0  0  0
    9.8438  -16.6242   23.8723 C   0  0  2  0  0  0  0  0  0  0  0  0
    9.6234  -16.0184   22.5546 N   0  0  0  0  0  0  0  0  0  0  0  0
   10.3707  -15.6318   24.8207 C   0  0  0  0  0  0  0  0  0  0  0  0
   11.4366  -14.9917   24.5005 O   0  0  0  0  0  0  0  0  0  0  0  0
    9.8242  -15.3034   26.0549 N   0  0  0  0  0  0  0  0  0  0  0  0
   10.5230  -14.5193   27.0793 C   0  0  1  0  0  0  0  0  0  0  0  0
    9.7294  -13.2111   27.1873 C   0  0  0  0  0  0  0  0  0  0  0  0
    7.9544  -13.5268   27.0996 S   0  0  0  0  0  0  0  0  0  0  0  0
   10.5116  -15.1747   28.3809 C   0  0  0  0  0  0  0  0  0  0  0  0
   11.2003  -14.6365   29.4481 O   0  0  0  0  0  0  0  0  0  0  0  0
    9.8764  -16.2360   28.5502 O   0  0  0  0  0  0  0  0  0  0  0  0
  2  1  1  1
  3  2  1  0
  4  2  1  0
  4  5  1  1
  6  4  1  0
  7  6  2  0
  9  8  1  6
  9 11  1  0
 10  9  1  0
 11 12  1  6
 12  6  1  0
 13 11  1  0
 13 15  1  0
 14 13  2  0
 16 15  1  0
 16 17  1  1
 16 19  1  0
 18 17  1  0
 19 21  2  0
 19 20  1  0
M  END
$$$$
