VVC.pdb
     RDKit          3D

 21 20  0  0  1  0  0  0  0  0999 V2000
    5.5104  -20.6420   24.1298 C   0  0  0  0  0  0  0  0  0  0  0  0
    6.5671  -19.6504   23.6848 C   0  0  2  0  0  0  0  0  0  0  0  0
    6.6782  -18.6145   24.8067 C   0  0  0  0  0  0  0  0  0  0  0  0
    6.1430  -18.8887   22.4496 C   0  0  2  0  0  0  0  0  0  0  0  0
    5.8687  -19.8692   21.4188 N   0  0  0  0  0  0  0  0  0  0  0  0
    7.1831  -17.9315   21.9925 C   0  0  0  0  0  0  0  0  0  0  0  0
    8.2561  -18.3518   21.5311 O   0  0  0  0  0  0  0  0  0  0  0  0
    6.2326  -14.3144   20.3479 C   0  0  0  0  0  0  0  0  0  0  0  0
    7.2760  -14.2666   21.4011 C   0  0  2  0  0  0  0  0  0  0  0  0
    8.2060  -13.1177   21.0903 C   0  0  0  0  0  0  0  0  0  0  0  0
    7.9796  -15.5467   21.6888 C   0  0  2  0  0  0  0  0  0  0  0  0
    6.9633  -16.5305   22.0775 N   0  0  0  0  0  0  0  0  0  0  0  0
    9.0237  -15.4413   22.7187 C   0  0  0  0  0  0  0  0  0  0  0  0
    8.6691  -15.1351   23.9141 O   0  0  0  0  0  0  0  0  0  0  0  0
   10.3853  -15.6444   22.5325 N   0  0  0  0  0  0  0  0  0  0  0  0
   11.3660  -15.6819   23.6230 C   0  0  1  0  0  0  0  0  0  0  0  0
   10.9912  -16.9173   24.4513 C   0  0  0  0  0  0  0  0  0  0  0  0
   11.9494  -16.9815   25.9797 S   0  0  0  0  0  0  0  0  0  0  0  0
   12.7291  -15.8494   23.1355 C   0  0  0  0  0  0  0  0  0  0  0  0
   13.8085  -15.5685   23.9473 O   0  0  0  0  0  0  0  0  0  0  0  0
   12.9411  -16.2510   21.9726 O   0  0  0  0  0  0  0  0  0  0  0  0
  2  1  1  1
  3  2  1  0
  4  2  1  0
  4  5  1  6
  6  4  1  0
  7  6  2  0
  9  8  1  6
  9 11  1  0
 10  9  1  0
 11 12  1  1
 12  6  1  0
 13 11  1  0
 13 15  1  0
 14 13  2  0
 16 15  1  0
 16 17  1  1
 16 19  1  0
 18 17  1  0
 19 21  2  0
 19 20  1  0
M  END
$$$$
