VVC.pdb
     RDKit          3D

 21 20  0  0  1  0  0  0  0  0999 V2000
    6.5924  -16.6754   19.6088 C   0  0  0  0  0  0  0  0  0  0  0  0
    7.3200  -16.3470   20.8973 C   0  0  2  0  0  0  0  0  0  0  0  0
    6.5402  -17.0430   22.0160 C   0  0  0  0  0  0  0  0  0  0  0  0
    7.2754  -14.8685   21.2107 C   0  0  2  0  0  0  0  0  0  0  0  0
    7.9017  -14.1797   20.1005 N   0  0  0  0  0  0  0  0  0  0  0  0
    7.9684  -14.5406   22.4832 C   0  0  0  0  0  0  0  0  0  0  0  0
    9.2086  -14.5424   22.5348 O   0  0  0  0  0  0  0  0  0  0  0  0
    6.4410  -11.9197   25.2480 C   0  0  0  0  0  0  0  0  0  0  0  0
    6.8908  -13.2253   25.7895 C   0  0  2  0  0  0  0  0  0  0  0  0
    7.3541  -13.0107   27.2110 C   0  0  0  0  0  0  0  0  0  0  0  0
    7.8578  -13.9869   24.9520 C   0  0  2  0  0  0  0  0  0  0  0  0
    7.2237  -14.2226   23.6504 N   0  0  0  0  0  0  0  0  0  0  0  0
    8.3055  -15.2532   25.5505 C   0  0  0  0  0  0  0  0  0  0  0  0
    7.4396  -16.1866   25.7156 O   0  0  0  0  0  0  0  0  0  0  0  0
    9.5967  -15.5554   25.9645 N   0  0  0  0  0  0  0  0  0  0  0  0
    9.9846  -16.8308   26.5771 C   0  0  1  0  0  0  0  0  0  0  0  0
   11.2818  -17.2345   25.8650 C   0  0  0  0  0  0  0  0  0  0  0  0
   12.0272  -18.6760   26.6554 S   0  0  0  0  0  0  0  0  0  0  0  0
   10.2622  -16.6984   28.0016 C   0  0  0  0  0  0  0  0  0  0  0  0
   10.1302  -17.7783   28.8497 O   0  0  0  0  0  0  0  0  0  0  0  0
   10.6249  -15.6026   28.4772 O   0  0  0  0  0  0  0  0  0  0  0  0
  2  1  1  6
  3  2  1  0
  4  2  1  0
  4  5  1  6
  6  4  1  0
  7  6  2  0
  9  8  1  6
  9 11  1  0
 10  9  1  0
 11 12  1  6
 12  6  1  0
 13 11  1  0
 13 15  1  0
 14 13  2  0
 16 15  1  0
 16 17  1  6
 16 19  1  0
 18 17  1  0
 19 21  2  0
 19 20  1  0
M  END
$$$$
