VVC.pdb
     RDKit          3D

 21 20  0  0  1  0  0  0  0  0999 V2000
   14.2875  -16.8115   16.9299 C   0  0  0  0  0  0  0  0  0  0  0  0
   13.6506  -16.2523   18.1867 C   0  0  2  0  0  0  0  0  0  0  0  0
   12.6134  -17.2858   18.6345 C   0  0  0  0  0  0  0  0  0  0  0  0
   12.8837  -14.9784   17.9130 C   0  0  2  0  0  0  0  0  0  0  0  0
   13.8506  -13.9797   17.5043 N   0  0  0  0  0  0  0  0  0  0  0  0
   12.1245  -14.5108   19.1012 C   0  0  0  0  0  0  0  0  0  0  0  0
   12.7291  -14.0797   20.0960 O   0  0  0  0  0  0  0  0  0  0  0  0
    8.4540  -12.6525   18.9258 C   0  0  0  0  0  0  0  0  0  0  0  0
    8.5483  -13.8277   19.8261 C   0  0  2  0  0  0  0  0  0  0  0  0
    7.5496  -13.6449   20.9444 C   0  0  0  0  0  0  0  0  0  0  0  0
    9.9142  -14.1894   20.2950 C   0  0  2  0  0  0  0  0  0  0  0  0
   10.7045  -14.5511   19.1133 N   0  0  0  0  0  0  0  0  0  0  0  0
    9.9419  -15.2704   21.2913 C   0  0  0  0  0  0  0  0  0  0  0  0
    9.6916  -16.4664   20.8971 O   0  0  0  0  0  0  0  0  0  0  0  0
   10.2185  -15.1329   22.6458 N   0  0  0  0  0  0  0  0  0  0  0  0
   10.1839  -16.2408   23.6069 C   0  0  1  0  0  0  0  0  0  0  0  0
   10.4822  -15.5959   24.9664 C   0  0  0  0  0  0  0  0  0  0  0  0
   10.3306  -16.8047   26.2983 S   0  0  0  0  0  0  0  0  0  0  0  0
    8.8730  -16.8738   23.6743 C   0  0  0  0  0  0  0  0  0  0  0  0
    8.7559  -18.2402   23.8233 O   0  0  0  0  0  0  0  0  0  0  0  0
    7.8332  -16.1871   23.5980 O   0  0  0  0  0  0  0  0  0  0  0  0
  2  1  1  6
  3  2  1  0
  4  2  1  0
  4  5  1  1
  6  4  1  0
  7  6  2  0
  9  8  1  1
  9 11  1  0
 10  9  1  0
 11 12  1  6
 12  6  1  0
 13 11  1  0
 13 15  1  0
 14 13  2  0
 16 15  1  0
 16 17  1  1
 16 19  1  0
 18 17  1  0
 19 21  2  0
 19 20  1  0
M  END
$$$$
