VVC.pdb
     RDKit          3D

 21 20  0  0  1  0  0  0  0  0999 V2000
    8.1080  -17.2951   21.7970 C   0  0  0  0  0  0  0  0  0  0  0  0
    7.0807  -16.2201   21.5026 C   0  0  2  0  0  0  0  0  0  0  0  0
    6.6220  -16.4530   20.0606 C   0  0  0  0  0  0  0  0  0  0  0  0
    7.6871  -14.8354   21.5325 C   0  0  2  0  0  0  0  0  0  0  0  0
    8.7399  -14.8108   20.5373 N   0  0  0  0  0  0  0  0  0  0  0  0
    8.2290  -14.4858   22.8708 C   0  0  0  0  0  0  0  0  0  0  0  0
    9.4384  -14.6305   23.1098 O   0  0  0  0  0  0  0  0  0  0  0  0
    6.5563  -11.5401   25.2164 C   0  0  0  0  0  0  0  0  0  0  0  0
    6.8382  -12.8255   25.9011 C   0  0  2  0  0  0  0  0  0  0  0  0
    7.1358  -12.5303   27.3521 C   0  0  0  0  0  0  0  0  0  0  0  0
    7.8431  -13.7108   25.2508 C   0  0  2  0  0  0  0  0  0  0  0  0
    7.3738  -13.9839   23.8881 N   0  0  0  0  0  0  0  0  0  0  0  0
    8.0990  -14.9645   25.9750 C   0  0  0  0  0  0  0  0  0  0  0  0
    7.2558  -15.9240   25.8451 O   0  0  0  0  0  0  0  0  0  0  0  0
    9.1825  -15.2289   26.8033 N   0  0  0  0  0  0  0  0  0  0  0  0
    9.5796  -16.5751   27.2305 C   0  0  1  0  0  0  0  0  0  0  0  0
   10.4028  -17.1349   26.0636 C   0  0  0  0  0  0  0  0  0  0  0  0
   11.0719  -18.7611   26.4707 S   0  0  0  0  0  0  0  0  0  0  0  0
   10.4214  -16.5521   28.4199 C   0  0  0  0  0  0  0  0  0  0  0  0
   10.4227  -17.6109   29.3041 O   0  0  0  0  0  0  0  0  0  0  0  0
   11.1563  -15.5712   28.6570 O   0  0  0  0  0  0  0  0  0  0  0  0
  2  1  1  6
  3  2  1  0
  4  2  1  0
  4  5  1  6
  6  4  1  0
  7  6  2  0
  9  8  1  6
  9 11  1  0
 10  9  1  0
 11 12  1  6
 12  6  1  0
 13 11  1  0
 13 15  1  0
 14 13  2  0
 16 15  1  0
 16 17  1  6
 16 19  1  0
 18 17  1  0
 19 21  2  0
 19 20  1  0
M  END
$$$$
