VWD.pdb
     RDKit          3D

 30 31  0  0  1  0  0  0  0  0999 V2000
   26.2675  -20.5118  -17.0373 C   0  0  0  0  0  0  0  0  0  0  0  0
   27.0564  -21.7912  -17.0711 C   0  0  1  0  0  0  0  0  0  0  0  0
   28.0939  -21.6635  -18.1717 C   0  0  0  0  0  0  0  0  0  0  0  0
   27.8080  -22.0513  -15.7846 C   0  0  2  0  0  0  0  0  0  0  0  0
   28.4979  -23.3021  -15.9292 N   0  0  0  0  0  0  0  0  0  0  0  0
   26.9161  -22.0145  -14.6031 C   0  0  0  0  0  0  0  0  0  0  0  0
   26.1423  -22.9885  -14.4316 O   0  0  0  0  0  0  0  0  0  0  0  0
   26.9374  -20.9110  -13.6941 N   0  0  0  0  0  0  0  0  0  0  0  0
   26.0043  -20.8448  -12.6053 C   0  0  1  0  0  0  0  0  0  0  0  0
   26.5241  -19.7938  -11.6155 C   0  0  0  0  0  0  0  0  0  0  0  0
   27.6529  -20.3427  -10.8209 C   0  0  0  0  0  0  0  0  0  0  0  0
   28.7486  -20.9994  -11.3195 C   0  0  0  0  0  0  0  0  0  0  0  0
   29.5275  -21.3308  -10.2832 N   0  0  0  0  0  0  0  0  0  0  0  0
   28.9750  -20.9127   -9.1397 C   0  0  0  0  0  0  0  0  0  0  0  0
   29.3652  -20.9994   -7.8060 C   0  0  0  0  0  0  0  0  0  0  0  0
   28.5872  -20.4694   -6.7966 C   0  0  0  0  0  0  0  0  0  0  0  0
   27.4026  -19.8419   -7.1029 C   0  0  0  0  0  0  0  0  0  0  0  0
   27.0152  -19.7553   -8.4233 C   0  0  0  0  0  0  0  0  0  0  0  0
   27.7959  -20.2890   -9.4553 C   0  0  0  0  0  0  0  0  0  0  0  0
   24.6282  -20.5477  -13.0216 C   0  0  0  0  0  0  0  0  0  0  0  0
   24.4565  -19.9178  -14.0999 O   0  0  0  0  0  0  0  0  0  0  0  0
   23.5136  -20.9594  -12.2301 N   0  0  0  0  0  0  0  0  0  0  0  0
   22.1889  -20.8013  -12.7693 C   0  0  1  0  0  0  0  0  0  0  0  0
   21.9447  -21.8612  -13.8078 C   0  0  0  0  0  0  0  0  0  0  0  0
   21.7391  -21.2894  -15.1614 C   0  0  0  0  0  0  0  0  0  0  0  0
   21.7489  -20.0298  -15.3148 O   0  0  0  0  0  0  0  0  0  0  0  0
   21.1805  -21.0042  -11.6905 C   0  0  0  0  0  0  0  0  0  0  0  0
   19.8518  -20.8212  -12.0131 O   0  0  0  0  0  0  0  0  0  0  0  0
   21.5299  -22.0389  -16.3085 O   0  0  0  0  0  0  0  0  0  0  0  0
   21.4971  -21.3256  -10.5386 O   0  0  0  0  0  0  0  0  0  0  0  0
  2  1  1  1
  2  3  1  0
  2  4  1  0
  4  5  1  6
  6  4  1  0
  6  7  2  0
  8  6  1  0
  9  8  1  0
  9 20  1  0
  9 10  1  1
 11 10  1  0
 11 12  2  0
 13 12  1  0
 14 19  2  0
 14 13  1  0
 15 14  1  0
 16 17  1  0
 16 15  2  0
 17 18  2  0
 18 19  1  0
 19 11  1  0
 20 21  2  0
 20 22  1  0
 22 23  1  0
 23 27  1  0
 23 24  1  6
 25 24  1  0
 26 25  2  0
 27 30  2  0
 27 28  1  0
 29 25  1  0
M  END
$$$$
