VWD.pdb
     RDKit          3D

 30 31  0  0  1  0  0  0  0  0999 V2000
   24.8387  -19.9802  -17.5574 C   0  0  0  0  0  0  0  0  0  0  0  0
   25.8481  -20.9904  -18.0274 C   0  0  1  0  0  0  0  0  0  0  0  0
   26.3452  -20.5447  -19.3906 C   0  0  0  0  0  0  0  0  0  0  0  0
   27.0575  -21.0760  -17.1232 C   0  0  2  0  0  0  0  0  0  0  0  0
   27.9382  -22.0706  -17.6677 N   0  0  0  0  0  0  0  0  0  0  0  0
   26.6813  -21.3427  -15.7161 C   0  0  0  0  0  0  0  0  0  0  0  0
   26.1980  -22.4708  -15.4502 O   0  0  0  0  0  0  0  0  0  0  0  0
   26.8624  -20.3519  -14.7012 N   0  0  0  0  0  0  0  0  0  0  0  0
   26.3192  -20.5464  -13.3868 C   0  0  1  0  0  0  0  0  0  0  0  0
   27.0717  -19.6089  -12.4333 C   0  0  0  0  0  0  0  0  0  0  0  0
   27.6559  -20.3771  -11.3039 C   0  0  0  0  0  0  0  0  0  0  0  0
   28.6132  -21.3541  -11.4002 C   0  0  0  0  0  0  0  0  0  0  0  0
   28.8663  -21.7954  -10.1626 N   0  0  0  0  0  0  0  0  0  0  0  0
   28.1094  -21.1403   -9.2764 C   0  0  0  0  0  0  0  0  0  0  0  0
   27.9859  -21.2132   -7.8915 C   0  0  0  0  0  0  0  0  0  0  0  0
   27.1047  -20.4002   -7.2076 C   0  0  0  0  0  0  0  0  0  0  0  0
   26.3295  -19.4979   -7.8973 C   0  0  0  0  0  0  0  0  0  0  0  0
   26.4510  -19.4248   -9.2688 C   0  0  0  0  0  0  0  0  0  0  0  0
   27.3412  -20.2441   -9.9729 C   0  0  0  0  0  0  0  0  0  0  0  0
   24.8689  -20.3325  -13.3075 C   0  0  0  0  0  0  0  0  0  0  0  0
   24.3880  -19.3087  -13.8638 O   0  0  0  0  0  0  0  0  0  0  0  0
   24.0242  -21.2561  -12.6208 N   0  0  0  0  0  0  0  0  0  0  0  0
   22.6068  -21.0094  -12.5987 C   0  0  1  0  0  0  0  0  0  0  0  0
   21.8892  -22.1738  -13.2240 C   0  0  0  0  0  0  0  0  0  0  0  0
   20.4159  -21.9991  -13.2177 C   0  0  0  0  0  0  0  0  0  0  0  0
   19.9176  -20.9168  -12.7811 O   0  0  0  0  0  0  0  0  0  0  0  0
   22.1363  -20.9113  -11.1877 C   0  0  0  0  0  0  0  0  0  0  0  0
   20.8329  -20.5139  -10.9733 O   0  0  0  0  0  0  0  0  0  0  0  0
   19.5092  -22.9488  -13.6620 O   0  0  0  0  0  0  0  0  0  0  0  0
   22.8683  -21.1716  -10.2249 O   0  0  0  0  0  0  0  0  0  0  0  0
  2  1  1  1
  2  3  1  0
  2  4  1  0
  4  5  1  6
  6  4  1  0
  6  7  2  0
  8  6  1  0
  9  8  1  0
  9 20  1  0
  9 10  1  1
 11 10  1  0
 11 12  2  0
 13 12  1  0
 14 19  2  0
 14 13  1  0
 15 14  1  0
 16 17  1  0
 16 15  2  0
 17 18  2  0
 18 19  1  0
 19 11  1  0
 20 21  2  0
 20 22  1  0
 22 23  1  0
 23 27  1  0
 23 24  1  1
 25 24  1  0
 26 25  2  0
 27 30  2  0
 27 28  1  0
 29 25  1  0
M  END
$$$$
