VWD.pdb
     RDKit          3D

 30 31  0  0  1  0  0  0  0  0999 V2000
   26.3128  -19.5368  -16.0748 C   0  0  0  0  0  0  0  0  0  0  0  0
   27.3302  -20.6403  -16.1596 C   0  0  1  0  0  0  0  0  0  0  0  0
   28.4625  -20.1556  -17.0467 C   0  0  0  0  0  0  0  0  0  0  0  0
   27.9373  -20.9833  -14.8173 C   0  0  2  0  0  0  0  0  0  0  0  0
   28.9049  -22.0224  -15.0303 N   0  0  0  0  0  0  0  0  0  0  0  0
   26.9068  -21.3468  -13.8182 C   0  0  0  0  0  0  0  0  0  0  0  0
   26.3365  -22.4575  -13.9528 O   0  0  0  0  0  0  0  0  0  0  0  0
   26.5756  -20.4651  -12.7424 N   0  0  0  0  0  0  0  0  0  0  0  0
   25.5557  -20.8194  -11.7964 C   0  0  1  0  0  0  0  0  0  0  0  0
   25.8322  -20.0377  -10.5054 C   0  0  0  0  0  0  0  0  0  0  0  0
   27.0991  -20.4983   -9.8811 C   0  0  0  0  0  0  0  0  0  0  0  0
   28.0467  -21.2963  -10.4689 C   0  0  0  0  0  0  0  0  0  0  0  0
   29.0293  -21.4794   -9.5793 N   0  0  0  0  0  0  0  0  0  0  0  0
   28.7497  -20.8305   -8.4443 C   0  0  0  0  0  0  0  0  0  0  0  0
   29.4230  -20.6973   -7.2329 C   0  0  0  0  0  0  0  0  0  0  0  0
   28.8958  -19.9497   -6.1993 C   0  0  0  0  0  0  0  0  0  0  0  0
   27.6835  -19.3205   -6.3585 C   0  0  0  0  0  0  0  0  0  0  0  0
   27.0159  -19.4517   -7.5577 C   0  0  0  0  0  0  0  0  0  0  0  0
   27.5407  -20.2072   -8.6128 C   0  0  0  0  0  0  0  0  0  0  0  0
   24.1903  -20.5803  -12.2801 C   0  0  0  0  0  0  0  0  0  0  0  0
   23.9258  -19.4538  -12.7801 O   0  0  0  0  0  0  0  0  0  0  0  0
   23.1882  -21.5930  -12.1886 N   0  0  0  0  0  0  0  0  0  0  0  0
   21.8833  -21.3230  -12.7316 C   0  0  1  0  0  0  0  0  0  0  0  0
   21.2245  -22.6203  -13.1120 C   0  0  0  0  0  0  0  0  0  0  0  0
   19.8532  -22.4233  -13.6433 C   0  0  0  0  0  0  0  0  0  0  0  0
   19.3929  -21.2468  -13.7617 O   0  0  0  0  0  0  0  0  0  0  0  0
   21.0281  -20.6862  -11.6899 C   0  0  0  0  0  0  0  0  0  0  0  0
   21.4250  -20.8061  -10.3742 O   0  0  0  0  0  0  0  0  0  0  0  0
   19.0058  -23.4486  -14.0329 O   0  0  0  0  0  0  0  0  0  0  0  0
   19.9944  -20.0663  -11.9685 O   0  0  0  0  0  0  0  0  0  0  0  0
  2  1  1  1
  2  3  1  0
  2  4  1  0
  4  5  1  6
  6  4  1  0
  6  7  2  0
  8  6  1  0
  9  8  1  0
  9 20  1  0
  9 10  1  1
 11 10  1  0
 11 12  2  0
 13 12  1  0
 14 19  2  0
 14 13  1  0
 15 14  1  0
 16 17  1  0
 16 15  2  0
 17 18  2  0
 18 19  1  0
 19 11  1  0
 20 21  2  0
 20 22  1  0
 22 23  1  0
 23 27  1  0
 23 24  1  1
 25 24  1  0
 26 25  2  0
 27 30  2  0
 27 28  1  0
 29 25  1  0
M  END
$$$$
