VWD.pdb
     RDKit          3D

 30 31  0  0  1  0  0  0  0  0999 V2000
   28.6244  -18.1955  -17.0618 C   0  0  0  0  0  0  0  0  0  0  0  0
   27.2033  -17.7075  -17.0103 C   0  0  1  0  0  0  0  0  0  0  0  0
   27.2133  -16.2252  -17.3370 C   0  0  0  0  0  0  0  0  0  0  0  0
   26.3148  -18.3789  -18.0338 C   0  0  2  0  0  0  0  0  0  0  0  0
   26.8284  -18.0549  -19.3349 N   0  0  0  0  0  0  0  0  0  0  0  0
   24.8918  -18.0068  -17.8632 C   0  0  0  0  0  0  0  0  0  0  0  0
   24.6196  -16.7840  -17.7771 O   0  0  0  0  0  0  0  0  0  0  0  0
   23.8689  -19.0039  -17.7994 N   0  0  0  0  0  0  0  0  0  0  0  0
   22.4845  -18.6269  -17.7554 C   0  0  1  0  0  0  0  0  0  0  0  0
   21.9213  -18.7729  -19.1752 C   0  0  0  0  0  0  0  0  0  0  0  0
   22.2260  -17.5629  -19.9814 C   0  0  0  0  0  0  0  0  0  0  0  0
   23.4033  -17.3015  -20.6340 C   0  0  0  0  0  0  0  0  0  0  0  0
   23.2749  -16.1155  -21.2400 N   0  0  0  0  0  0  0  0  0  0  0  0
   22.0620  -15.6057  -21.0021 C   0  0  0  0  0  0  0  0  0  0  0  0
   21.4324  -14.4257  -21.3890 C   0  0  0  0  0  0  0  0  0  0  0  0
   20.1416  -14.1398  -20.9925 C   0  0  0  0  0  0  0  0  0  0  0  0
   19.4555  -15.0303  -20.2005 C   0  0  0  0  0  0  0  0  0  0  0  0
   20.0780  -16.1992  -19.8168 C   0  0  0  0  0  0  0  0  0  0  0  0
   21.3866  -16.4998  -20.2128 C   0  0  0  0  0  0  0  0  0  0  0  0
   21.6917  -19.3954  -16.7878 C   0  0  0  0  0  0  0  0  0  0  0  0
   22.0385  -20.5827  -16.5451 O   0  0  0  0  0  0  0  0  0  0  0  0
   20.5595  -18.8172  -16.1382 N   0  0  0  0  0  0  0  0  0  0  0  0
   19.8173  -19.6194  -15.2021 C   0  0  1  0  0  0  0  0  0  0  0  0
   18.9096  -18.7316  -14.3961 C   0  0  0  0  0  0  0  0  0  0  0  0
   19.5713  -18.2042  -13.1774 C   0  0  0  0  0  0  0  0  0  0  0  0
   20.7562  -18.5669  -12.9040 O   0  0  0  0  0  0  0  0  0  0  0  0
   18.9485  -20.5787  -15.9415 C   0  0  0  0  0  0  0  0  0  0  0  0
   18.6288  -21.7662  -15.3165 O   0  0  0  0  0  0  0  0  0  0  0  0
   18.9855  -17.3213  -12.2838 O   0  0  0  0  0  0  0  0  0  0  0  0
   18.5160  -20.3429  -17.0763 O   0  0  0  0  0  0  0  0  0  0  0  0
  2  1  1  6
  2  3  1  0
  2  4  1  0
  4  5  1  6
  6  4  1  0
  6  7  2  0
  8  6  1  0
  9  8  1  0
  9 20  1  0
  9 10  1  6
 11 10  1  0
 11 12  2  0
 13 12  1  0
 14 19  2  0
 14 13  1  0
 15 14  1  0
 16 17  1  0
 16 15  2  0
 17 18  2  0
 18 19  1  0
 19 11  1  0
 20 21  2  0
 20 22  1  0
 22 23  1  0
 23 27  1  0
 23 24  1  6
 25 24  1  0
 26 25  2  0
 27 30  2  0
 27 28  1  0
 29 25  1  0
M  END
$$$$
