VWD.pdb
     RDKit          3D

 30 31  0  0  1  0  0  0  0  0999 V2000
   28.9388  -19.7173  -17.1993 C   0  0  0  0  0  0  0  0  0  0  0  0
   28.0081  -19.9730  -16.0466 C   0  0  1  0  0  0  0  0  0  0  0  0
   26.6143  -20.1693  -16.6150 C   0  0  0  0  0  0  0  0  0  0  0  0
   28.3535  -21.2311  -15.2813 C   0  0  2  0  0  0  0  0  0  0  0  0
   28.2252  -22.3392  -16.1852 N   0  0  0  0  0  0  0  0  0  0  0  0
   27.5307  -21.3815  -14.0594 C   0  0  0  0  0  0  0  0  0  0  0  0
   26.4954  -22.0872  -14.1421 O   0  0  0  0  0  0  0  0  0  0  0  0
   27.9033  -20.7462  -12.8338 N   0  0  0  0  0  0  0  0  0  0  0  0
   27.1011  -20.9092  -11.6546 C   0  0  1  0  0  0  0  0  0  0  0  0
   27.8770  -20.2976  -10.4806 C   0  0  0  0  0  0  0  0  0  0  0  0
   27.0772  -20.3790   -9.2313 C   0  0  0  0  0  0  0  0  0  0  0  0
   25.7433  -20.6846   -9.1438 C   0  0  0  0  0  0  0  0  0  0  0  0
   25.4056  -20.6534   -7.8494 N   0  0  0  0  0  0  0  0  0  0  0  0
   26.4698  -20.3402   -7.1032 C   0  0  0  0  0  0  0  0  0  0  0  0
   26.6580  -20.1791   -5.7332 C   0  0  0  0  0  0  0  0  0  0  0  0
   27.8928  -19.8451   -5.2146 C   0  0  0  0  0  0  0  0  0  0  0  0
   28.9638  -19.6656   -6.0582 C   0  0  0  0  0  0  0  0  0  0  0  0
   28.7786  -19.8248   -7.4152 C   0  0  0  0  0  0  0  0  0  0  0  0
   27.5311  -20.1635   -7.9524 C   0  0  0  0  0  0  0  0  0  0  0  0
   25.7587  -20.3252  -11.7659 C   0  0  0  0  0  0  0  0  0  0  0  0
   25.6654  -19.0988  -12.0421 O   0  0  0  0  0  0  0  0  0  0  0  0
   24.5901  -21.1209  -11.5677 N   0  0  0  0  0  0  0  0  0  0  0  0
   23.3236  -20.6115  -12.0226 C   0  0  1  0  0  0  0  0  0  0  0  0
   22.7084  -21.5925  -12.9823 C   0  0  0  0  0  0  0  0  0  0  0  0
   21.3556  -21.1756  -13.4268 C   0  0  0  0  0  0  0  0  0  0  0  0
   20.9409  -20.0080  -13.1528 O   0  0  0  0  0  0  0  0  0  0  0  0
   22.3899  -20.4839  -10.8678 C   0  0  0  0  0  0  0  0  0  0  0  0
   21.1796  -19.8598  -11.0885 O   0  0  0  0  0  0  0  0  0  0  0  0
   20.4788  -21.9796  -14.1382 O   0  0  0  0  0  0  0  0  0  0  0  0
   22.6659  -20.9138   -9.7411 O   0  0  0  0  0  0  0  0  0  0  0  0
  2  1  1  6
  2  3  1  0
  2  4  1  0
  4  5  1  6
  6  4  1  0
  6  7  2  0
  8  6  1  0
  9  8  1  0
  9 20  1  0
  9 10  1  1
 11 10  1  0
 11 12  2  0
 13 12  1  0
 14 19  2  0
 14 13  1  0
 15 14  1  0
 16 17  1  0
 16 15  2  0
 17 18  2  0
 18 19  1  0
 19 11  1  0
 20 21  2  0
 20 22  1  0
 22 23  1  0
 23 27  1  0
 23 24  1  6
 25 24  1  0
 26 25  2  0
 27 30  2  0
 27 28  1  0
 29 25  1  0
M  END
$$$$
