VWD.pdb
     RDKit          3D

 30 31  0  0  1  0  0  0  0  0999 V2000
   28.8748  -22.5430  -18.2590 C   0  0  0  0  0  0  0  0  0  0  0  0
   28.1380  -22.8037  -16.9747 C   0  0  1  0  0  0  0  0  0  0  0  0
   29.1662  -22.8757  -15.8604 C   0  0  0  0  0  0  0  0  0  0  0  0
   27.1749  -21.6942  -16.6151 C   0  0  2  0  0  0  0  0  0  0  0  0
   27.8659  -20.4470  -16.7828 N   0  0  0  0  0  0  0  0  0  0  0  0
   26.6113  -21.8666  -15.2567 C   0  0  0  0  0  0  0  0  0  0  0  0
   25.8284  -22.8311  -15.0730 O   0  0  0  0  0  0  0  0  0  0  0  0
   26.9473  -20.9677  -14.1967 N   0  0  0  0  0  0  0  0  0  0  0  0
   26.3279  -21.0955  -12.9080 C   0  0  1  0  0  0  0  0  0  0  0  0
   27.2449  -20.4116  -11.8855 C   0  0  0  0  0  0  0  0  0  0  0  0
   26.6035  -20.3907  -10.5456 C   0  0  0  0  0  0  0  0  0  0  0  0
   25.2556  -20.4050  -10.2942 C   0  0  0  0  0  0  0  0  0  0  0  0
   25.0918  -20.3770   -8.9665 N   0  0  0  0  0  0  0  0  0  0  0  0
   26.2810  -20.3454   -8.3563 C   0  0  0  0  0  0  0  0  0  0  0  0
   26.6640  -20.3090   -7.0183 C   0  0  0  0  0  0  0  0  0  0  0  0
   27.9954  -20.2808   -6.6553 C   0  0  0  0  0  0  0  0  0  0  0  0
   28.9699  -20.2884   -7.6255 C   0  0  0  0  0  0  0  0  0  0  0  0
   28.5917  -20.3245   -8.9509 C   0  0  0  0  0  0  0  0  0  0  0  0
   27.2448  -20.3534   -9.3308 C   0  0  0  0  0  0  0  0  0  0  0  0
   24.9661  -20.5500  -12.8486 C   0  0  0  0  0  0  0  0  0  0  0  0
   24.7932  -19.3462  -13.1802 O   0  0  0  0  0  0  0  0  0  0  0  0
   23.8665  -21.3575  -12.4280 N   0  0  0  0  0  0  0  0  0  0  0  0
   22.5411  -20.9941  -12.8543 C   0  0  1  0  0  0  0  0  0  0  0  0
   21.9527  -22.1178  -13.6623 C   0  0  0  0  0  0  0  0  0  0  0  0
   20.5330  -21.8747  -14.0183 C   0  0  0  0  0  0  0  0  0  0  0  0
   20.1488  -20.6942  -14.2813 O   0  0  0  0  0  0  0  0  0  0  0  0
   21.6649  -20.8052  -11.6633 C   0  0  0  0  0  0  0  0  0  0  0  0
   20.5649  -19.9842  -11.8012 O   0  0  0  0  0  0  0  0  0  0  0  0
   19.5601  -22.8595  -14.0894 O   0  0  0  0  0  0  0  0  0  0  0  0
   21.8933  -21.3536  -10.5782 O   0  0  0  0  0  0  0  0  0  0  0  0
  2  1  1  6
  2  3  1  0
  2  4  1  0
  4  5  1  1
  6  4  1  0
  6  7  2  0
  8  6  1  0
  9  8  1  0
  9 20  1  0
  9 10  1  1
 11 10  1  0
 11 12  2  0
 13 12  1  0
 14 19  2  0
 14 13  1  0
 15 14  1  0
 16 17  1  0
 16 15  2  0
 17 18  2  0
 18 19  1  0
 19 11  1  0
 20 21  2  0
 20 22  1  0
 22 23  1  0
 23 27  1  0
 23 24  1  6
 25 24  1  0
 26 25  2  0
 27 30  2  0
 27 28  1  0
 29 25  1  0
M  END
$$$$
