VWD.pdb
     RDKit          3D

 30 31  0  0  1  0  0  0  0  0999 V2000
   26.8048  -16.4685  -17.9909 C   0  0  0  0  0  0  0  0  0  0  0  0
   26.2817  -17.3599  -16.8992 C   0  0  1  0  0  0  0  0  0  0  0  0
   25.1848  -18.2232  -17.4955 C   0  0  0  0  0  0  0  0  0  0  0  0
   27.3343  -18.2989  -16.3534 C   0  0  2  0  0  0  0  0  0  0  0  0
   27.8919  -19.0196  -17.4630 N   0  0  0  0  0  0  0  0  0  0  0  0
   26.7937  -19.1865  -15.2986 C   0  0  0  0  0  0  0  0  0  0  0  0
   26.3158  -20.2901  -15.6597 O   0  0  0  0  0  0  0  0  0  0  0  0
   26.8164  -18.7991  -13.9223 N   0  0  0  0  0  0  0  0  0  0  0  0
   26.3116  -19.6806  -12.9081 C   0  0  1  0  0  0  0  0  0  0  0  0
   26.7195  -19.1001  -11.5476 C   0  0  0  0  0  0  0  0  0  0  0  0
   26.3728  -20.0453  -10.4551 C   0  0  0  0  0  0  0  0  0  0  0  0
   25.7494  -21.2577  -10.6025 C   0  0  0  0  0  0  0  0  0  0  0  0
   25.6202  -21.7965   -9.3845 N   0  0  0  0  0  0  0  0  0  0  0  0
   26.1360  -20.9779   -8.4618 C   0  0  0  0  0  0  0  0  0  0  0  0
   26.2552  -21.0586   -7.0770 C   0  0  0  0  0  0  0  0  0  0  0  0
   26.8457  -20.0455   -6.3490 C   0  0  0  0  0  0  0  0  0  0  0  0
   27.3287  -18.9310   -6.9937 C   0  0  0  0  0  0  0  0  0  0  0  0
   27.2113  -18.8500   -8.3650 C   0  0  0  0  0  0  0  0  0  0  0  0
   26.6145  -19.8712   -9.1137 C   0  0  0  0  0  0  0  0  0  0  0  0
   24.8613  -19.8974  -12.9799 C   0  0  0  0  0  0  0  0  0  0  0  0
   24.1187  -18.8945  -13.1582 O   0  0  0  0  0  0  0  0  0  0  0  0
   24.3045  -21.2057  -12.8520 N   0  0  0  0  0  0  0  0  0  0  0  0
   22.8762  -21.3587  -12.9366 C   0  0  1  0  0  0  0  0  0  0  0  0
   22.2112  -20.2738  -12.1350 C   0  0  0  0  0  0  0  0  0  0  0  0
   20.7335  -20.4065  -12.1209 C   0  0  0  0  0  0  0  0  0  0  0  0
   20.1939  -21.4297  -12.6425 O   0  0  0  0  0  0  0  0  0  0  0  0
   22.4363  -21.1908  -14.3509 C   0  0  0  0  0  0  0  0  0  0  0  0
   22.4531  -22.3054  -15.1635 O   0  0  0  0  0  0  0  0  0  0  0  0
   19.8655  -19.4774  -11.5692 O   0  0  0  0  0  0  0  0  0  0  0  0
   22.0645  -20.1017  -14.8049 O   0  0  0  0  0  0  0  0  0  0  0  0
  2  1  1  6
  2  3  1  0
  2  4  1  0
  4  5  1  6
  6  4  1  0
  6  7  2  0
  8  6  1  0
  9  8  1  0
  9 20  1  0
  9 10  1  1
 11 10  1  0
 11 12  2  0
 13 12  1  0
 14 19  2  0
 14 13  1  0
 15 14  1  0
 16 17  1  0
 16 15  2  0
 17 18  2  0
 18 19  1  0
 19 11  1  0
 20 21  2  0
 20 22  1  0
 22 23  1  0
 23 27  1  0
 23 24  1  1
 25 24  1  0
 26 25  2  0
 27 30  2  0
 27 28  1  0
 29 25  1  0
M  END
$$$$
