VWD.pdb
     RDKit          3D

 30 31  0  0  1  0  0  0  0  0999 V2000
   25.6946  -23.0439  -11.8143 C   0  0  0  0  0  0  0  0  0  0  0  0
   25.4114  -21.9287  -12.7819 C   0  0  1  0  0  0  0  0  0  0  0  0
   24.4155  -22.4471  -13.8034 C   0  0  0  0  0  0  0  0  0  0  0  0
   24.7786  -20.7245  -12.1207 C   0  0  2  0  0  0  0  0  0  0  0  0
   23.5704  -21.1640  -11.4816 N   0  0  0  0  0  0  0  0  0  0  0  0
   24.5580  -19.6169  -13.0783 C   0  0  0  0  0  0  0  0  0  0  0  0
   23.3809  -19.4119  -13.4649 O   0  0  0  0  0  0  0  0  0  0  0  0
   25.6453  -18.8132  -13.5434 N   0  0  0  0  0  0  0  0  0  0  0  0
   25.4241  -17.7758  -14.5106 C   0  0  1  0  0  0  0  0  0  0  0  0
   26.6942  -16.9165  -14.5642 C   0  0  0  0  0  0  0  0  0  0  0  0
   26.5367  -15.8188  -15.5527 C   0  0  0  0  0  0  0  0  0  0  0  0
   25.8111  -14.6689  -15.3753 C   0  0  0  0  0  0  0  0  0  0  0  0
   25.9223  -13.9440  -16.4945 N   0  0  0  0  0  0  0  0  0  0  0  0
   26.6905  -14.5832  -17.3827 C   0  0  0  0  0  0  0  0  0  0  0  0
   27.1134  -14.2741  -18.6727 C   0  0  0  0  0  0  0  0  0  0  0  0
   27.9241  -15.1342  -19.3856 C   0  0  0  0  0  0  0  0  0  0  0  0
   28.3274  -16.3212  -18.8205 C   0  0  0  0  0  0  0  0  0  0  0  0
   27.9092  -16.6283  -17.5431 C   0  0  0  0  0  0  0  0  0  0  0  0
   27.0871  -15.7639  -16.8106 C   0  0  0  0  0  0  0  0  0  0  0  0
   25.0641  -18.2754  -15.8433 C   0  0  0  0  0  0  0  0  0  0  0  0
   25.4484  -19.4311  -16.1684 O   0  0  0  0  0  0  0  0  0  0  0  0
   24.3002  -17.4776  -16.7479 N   0  0  0  0  0  0  0  0  0  0  0  0
   23.7984  -18.0876  -17.9506 C   0  0  1  0  0  0  0  0  0  0  0  0
   22.7892  -19.1426  -17.5898 C   0  0  0  0  0  0  0  0  0  0  0  0
   22.1896  -19.7837  -18.7860 C   0  0  0  0  0  0  0  0  0  0  0  0
   21.4030  -19.1153  -19.5240 O   0  0  0  0  0  0  0  0  0  0  0  0
   23.0898  -17.0665  -18.7734 C   0  0  0  0  0  0  0  0  0  0  0  0
   22.4249  -16.0572  -18.1084 O   0  0  0  0  0  0  0  0  0  0  0  0
   22.4233  -21.0928  -19.1773 O   0  0  0  0  0  0  0  0  0  0  0  0
   23.0827  -17.0996  -20.0100 O   0  0  0  0  0  0  0  0  0  0  0  0
  2  1  1  1
  2  3  1  0
  2  4  1  0
  4  5  1  6
  6  4  1  0
  6  7  2  0
  8  6  1  0
  9  8  1  0
  9 20  1  0
  9 10  1  6
 11 10  1  0
 11 12  2  0
 13 12  1  0
 14 19  2  0
 14 13  1  0
 15 14  1  0
 16 17  1  0
 16 15  2  0
 17 18  2  0
 18 19  1  0
 19 11  1  0
 20 21  2  0
 20 22  1  0
 22 23  1  0
 23 27  1  0
 23 24  1  1
 25 24  1  0
 26 25  2  0
 27 30  2  0
 27 28  1  0
 29 25  1  0
M  END
$$$$
