VWD.pdb
     RDKit          3D

 30 31  0  0  1  0  0  0  0  0999 V2000
   25.1067  -18.5652  -20.7692 C   0  0  0  0  0  0  0  0  0  0  0  0
   23.7208  -19.1427  -20.6907 C   0  0  1  0  0  0  0  0  0  0  0  0
   23.7479  -20.4991  -21.3717 C   0  0  0  0  0  0  0  0  0  0  0  0
   23.2604  -19.3724  -19.2684 C   0  0  2  0  0  0  0  0  0  0  0  0
   24.2898  -20.1097  -18.5917 N   0  0  0  0  0  0  0  0  0  0  0  0
   21.9388  -20.0380  -19.2131 C   0  0  0  0  0  0  0  0  0  0  0  0
   20.9509  -19.4007  -19.6543 O   0  0  0  0  0  0  0  0  0  0  0  0
   21.7960  -21.3560  -18.6773 N   0  0  0  0  0  0  0  0  0  0  0  0
   20.5136  -22.0007  -18.6585 C   0  0  1  0  0  0  0  0  0  0  0  0
   20.7550  -23.5115  -18.7757 C   0  0  0  0  0  0  0  0  0  0  0  0
   19.4800  -24.2205  -19.0560 C   0  0  0  0  0  0  0  0  0  0  0  0
   18.2556  -23.6352  -19.2521 C   0  0  0  0  0  0  0  0  0  0  0  0
   17.3706  -24.6139  -19.4745 N   0  0  0  0  0  0  0  0  0  0  0  0
   17.9787  -25.8037  -19.4289 C   0  0  0  0  0  0  0  0  0  0  0  0
   17.5268  -27.1108  -19.5889 C   0  0  0  0  0  0  0  0  0  0  0  0
   18.3893  -28.1838  -19.4887 C   0  0  0  0  0  0  0  0  0  0  0  0
   19.7219  -27.9688  -19.2261 C   0  0  0  0  0  0  0  0  0  0  0  0
   20.1705  -26.6748  -19.0675 C   0  0  0  0  0  0  0  0  0  0  0  0
   19.3052  -25.5790  -19.1670 C   0  0  0  0  0  0  0  0  0  0  0  0
   19.7076  -21.6820  -17.4735 C   0  0  0  0  0  0  0  0  0  0  0  0
   20.2791  -21.6774  -16.3499 O   0  0  0  0  0  0  0  0  0  0  0  0
   18.3159  -21.3848  -17.5870 N   0  0  0  0  0  0  0  0  0  0  0  0
   17.6094  -20.9335  -16.4175 C   0  0  1  0  0  0  0  0  0  0  0  0
   16.6848  -19.8099  -16.7974 C   0  0  0  0  0  0  0  0  0  0  0  0
   17.2678  -18.4764  -16.5092 C   0  0  0  0  0  0  0  0  0  0  0  0
   18.4067  -18.3997  -15.9548 O   0  0  0  0  0  0  0  0  0  0  0  0
   16.7614  -22.0382  -15.8861 C   0  0  0  0  0  0  0  0  0  0  0  0
   16.0407  -21.7955  -14.7351 O   0  0  0  0  0  0  0  0  0  0  0  0
   16.6535  -17.2691  -16.8032 O   0  0  0  0  0  0  0  0  0  0  0  0
   16.6884  -23.1428  -16.4383 O   0  0  0  0  0  0  0  0  0  0  0  0
  2  1  1  1
  2  3  1  0
  2  4  1  0
  4  5  1  1
  6  4  1  0
  6  7  2  0
  8  6  1  0
  9  8  1  0
  9 20  1  0
  9 10  1  1
 11 10  1  0
 11 12  2  0
 13 12  1  0
 14 19  2  0
 14 13  1  0
 15 14  1  0
 16 17  1  0
 16 15  2  0
 17 18  2  0
 18 19  1  0
 19 11  1  0
 20 21  2  0
 20 22  1  0
 22 23  1  0
 23 27  1  0
 23 24  1  6
 25 24  1  0
 26 25  2  0
 27 30  2  0
 27 28  1  0
 29 25  1  0
M  END
$$$$
