VWD.pdb
     RDKit          3D

 30 31  0  0  1  0  0  0  0  0999 V2000
   28.8882  -18.6546  -16.0298 C   0  0  0  0  0  0  0  0  0  0  0  0
   27.9425  -19.1056  -14.9516 C   0  0  1  0  0  0  0  0  0  0  0  0
   26.5474  -19.1419  -15.5485 C   0  0  0  0  0  0  0  0  0  0  0  0
   28.2449  -20.5008  -14.4517 C   0  0  2  0  0  0  0  0  0  0  0  0
   28.0813  -21.4035  -15.5561 N   0  0  0  0  0  0  0  0  0  0  0  0
   27.4156  -20.8626  -13.2796 C   0  0  0  0  0  0  0  0  0  0  0  0
   26.4144  -21.5930  -13.4823 O   0  0  0  0  0  0  0  0  0  0  0  0
   27.7446  -20.3968  -11.9683 N   0  0  0  0  0  0  0  0  0  0  0  0
   27.0027  -20.8497  -10.8259 C   0  0  1  0  0  0  0  0  0  0  0  0
   27.9132  -20.7088   -9.5990 C   0  0  0  0  0  0  0  0  0  0  0  0
   27.1098  -20.7435   -8.3499 C   0  0  0  0  0  0  0  0  0  0  0  0
   25.8214  -21.1970   -8.2295 C   0  0  0  0  0  0  0  0  0  0  0  0
   25.4624  -21.0594   -6.9479 N   0  0  0  0  0  0  0  0  0  0  0  0
   26.4694  -20.5358   -6.2413 C   0  0  0  0  0  0  0  0  0  0  0  0
   26.6157  -20.1976   -4.8987 C   0  0  0  0  0  0  0  0  0  0  0  0
   27.7931  -19.6588   -4.4203 C   0  0  0  0  0  0  0  0  0  0  0  0
   28.8475  -19.4479   -5.2775 C   0  0  0  0  0  0  0  0  0  0  0  0
   28.7037  -19.7826   -6.6073 C   0  0  0  0  0  0  0  0  0  0  0  0
   27.5147  -20.3296   -7.1036 C   0  0  0  0  0  0  0  0  0  0  0  0
   25.7309  -20.1434  -10.6275 C   0  0  0  0  0  0  0  0  0  0  0  0
   25.7335  -18.8847  -10.6950 O   0  0  0  0  0  0  0  0  0  0  0  0
   24.5236  -20.8590  -10.3657 N   0  0  0  0  0  0  0  0  0  0  0  0
   23.2973  -20.3775  -10.9442 C   0  0  1  0  0  0  0  0  0  0  0  0
   23.4173  -20.3860  -12.4433 C   0  0  0  0  0  0  0  0  0  0  0  0
   22.6779  -19.2659  -13.0758 C   0  0  0  0  0  0  0  0  0  0  0  0
   22.0494  -18.4412  -12.3444 O   0  0  0  0  0  0  0  0  0  0  0  0
   22.1796  -21.2975  -10.5890 C   0  0  0  0  0  0  0  0  0  0  0  0
   22.4890  -22.6218  -10.3576 O   0  0  0  0  0  0  0  0  0  0  0  0
   22.6133  -19.0377  -14.4415 O   0  0  0  0  0  0  0  0  0  0  0  0
   21.0073  -20.9129  -10.4980 O   0  0  0  0  0  0  0  0  0  0  0  0
  2  1  1  6
  2  3  1  0
  2  4  1  0
  4  5  1  6
  6  4  1  0
  6  7  2  0
  8  6  1  0
  9  8  1  0
  9 20  1  0
  9 10  1  1
 11 10  1  0
 11 12  2  0
 13 12  1  0
 14 19  2  0
 14 13  1  0
 15 14  1  0
 16 17  1  0
 16 15  2  0
 17 18  2  0
 18 19  1  0
 19 11  1  0
 20 21  2  0
 20 22  1  0
 22 23  1  0
 23 27  1  0
 23 24  1  6
 25 24  1  0
 26 25  2  0
 27 30  2  0
 27 28  1  0
 29 25  1  0
M  END
$$$$
