CHI.pdb
     RDKit          3D

 25 25  0  0  1  0  0  0  0  0999 V2000
   21.5996   -7.1941  -12.7774 N   0  0  0  0  0  0  0  0  0  0  0  0
   20.7293   -6.2672  -13.4708 C   0  0  1  0  0  0  0  0  0  0  0  0
   21.1969   -6.1935  -14.9037 C   0  0  0  0  0  0  0  0  0  0  0  0
   22.6293   -5.0806  -14.9642 S   0  0  0  0  0  0  0  0  0  0  0  0
   19.3422   -6.6981  -13.3302 C   0  0  0  0  0  0  0  0  0  0  0  0
   18.4305   -6.0510  -13.9117 O   0  0  0  0  0  0  0  0  0  0  0  0
   19.0245   -7.8312  -12.5486 N   0  0  0  0  0  0  0  0  0  0  0  0
   17.7175   -8.4159  -12.6081 C   0  0  1  0  0  0  0  0  0  0  0  0
   17.8053   -9.8786  -13.0711 C   0  0  0  0  0  0  0  0  0  0  0  0
   18.1764  -10.0023  -14.4686 C   0  0  0  0  0  0  0  0  0  0  0  0
   19.3512  -10.5157  -14.9641 C   0  0  0  0  0  0  0  0  0  0  0  0
   19.3329  -10.4652  -16.3232 N   0  0  0  0  0  0  0  0  0  0  0  0
   18.1475   -9.9208  -16.6718 C   0  0  0  0  0  0  0  0  0  0  0  0
   17.4459   -9.6404  -15.5336 N   0  0  0  0  0  0  0  0  0  0  0  0
   17.0797   -8.4985  -11.2613 C   0  0  0  0  0  0  0  0  0  0  0  0
   17.7809   -8.9151  -10.3071 O   0  0  0  0  0  0  0  0  0  0  0  0
   14.8404   -6.0647   -6.8704 C   0  0  0  0  0  0  0  0  0  0  0  0
   14.0180   -6.8226   -7.9004 C   0  0  0  0  0  0  0  0  0  0  0  0
   14.7752   -6.7827   -9.1934 C   0  0  2  0  0  0  0  0  0  0  0  0
   14.0430   -5.9754  -10.2106 C   0  0  0  0  0  0  0  0  0  0  0  0
   15.1108   -8.1605   -9.7159 C   0  0  2  0  0  0  0  0  0  0  0  0
   15.7459   -8.1402  -10.9924 N   0  0  0  0  0  0  0  0  0  0  0  0
   13.8805   -8.9699   -9.8051 C   0  0  0  0  0  0  0  0  0  0  0  0
   13.2615   -9.0311  -10.8886 O   0  0  0  0  0  0  0  0  0  0  0  0
   13.3666   -9.6778   -8.7325 O   0  0  0  0  0  0  0  0  0  0  0  0
  2  1  1  1
  3  2  1  0
  3  4  1  0
  5  6  2  0
  5  2  1  0
  7  5  1  0
  8  7  1  0
  8  9  1  1
 10  9  1  0
 11 10  2  0
 12 11  1  0
 13 12  1  0
 13 14  2  0
 14 10  1  0
 15 22  1  0
 15  8  1  0
 16 15  2  0
 18 17  1  0
 19 21  1  0
 19 18  1  0
 19 20  1  6
 21 23  1  0
 21 22  1  6
 23 25  1  0
 24 23  2  0
M  END
$$$$
