CHI.pdb
     RDKit          3D

 25 25  0  0  1  0  0  0  0  0999 V2000
   27.3941  -20.7638  -17.5190 N   0  0  0  0  0  0  0  0  0  0  0  0
   27.0570  -21.6192  -16.4002 C   0  0  1  0  0  0  0  0  0  0  0  0
   28.3239  -22.3132  -15.9637 C   0  0  0  0  0  0  0  0  0  0  0  0
   29.4344  -22.3957  -17.3969 S   0  0  0  0  0  0  0  0  0  0  0  0
   26.4325  -20.8258  -15.3467 C   0  0  0  0  0  0  0  0  0  0  0  0
   26.6173  -19.5795  -15.3177 O   0  0  0  0  0  0  0  0  0  0  0  0
   25.6276  -21.4499  -14.3677 N   0  0  0  0  0  0  0  0  0  0  0  0
   24.8969  -20.6666  -13.4157 C   0  0  1  0  0  0  0  0  0  0  0  0
   23.3862  -20.7825  -13.6731 C   0  0  0  0  0  0  0  0  0  0  0  0
   22.9600  -20.0444  -14.8476 C   0  0  0  0  0  0  0  0  0  0  0  0
   22.7021  -18.6962  -14.9216 C   0  0  0  0  0  0  0  0  0  0  0  0
   22.3265  -18.3733  -16.1883 N   0  0  0  0  0  0  0  0  0  0  0  0
   22.3509  -19.5200  -16.9007 C   0  0  0  0  0  0  0  0  0  0  0  0
   22.7390  -20.5370  -16.0752 N   0  0  0  0  0  0  0  0  0  0  0  0
   25.0686  -21.1752  -12.0232 C   0  0  0  0  0  0  0  0  0  0  0  0
   24.7564  -22.3694  -11.7945 O   0  0  0  0  0  0  0  0  0  0  0  0
   27.8957  -19.5736   -6.7438 C   0  0  0  0  0  0  0  0  0  0  0  0
   26.8831  -20.4894   -7.4130 C   0  0  0  0  0  0  0  0  0  0  0  0
   26.7238  -20.0209   -8.8278 C   0  0  2  0  0  0  0  0  0  0  0  0
   26.3853  -18.5696   -8.8697 C   0  0  0  0  0  0  0  0  0  0  0  0
   25.7254  -20.8457   -9.6068 C   0  0  2  0  0  0  0  0  0  0  0  0
   25.5569  -20.4045  -10.9522 N   0  0  0  0  0  0  0  0  0  0  0  0
   24.4176  -20.8148   -8.9246 C   0  0  0  0  0  0  0  0  0  0  0  0
   23.5267  -20.0420   -9.3368 O   0  0  0  0  0  0  0  0  0  0  0  0
   24.1200  -21.6112   -7.8324 O   0  0  0  0  0  0  0  0  0  0  0  0
  2  1  1  6
  3  2  1  0
  3  4  1  0
  5  6  2  0
  5  2  1  0
  7  5  1  0
  8  7  1  0
  8  9  1  6
 10  9  1  0
 11 10  2  0
 12 11  1  0
 13 12  1  0
 13 14  2  0
 14 10  1  0
 15 22  1  0
 15  8  1  0
 16 15  2  0
 18 17  1  0
 19 21  1  0
 19 18  1  0
 19 20  1  1
 21 23  1  0
 21 22  1  6
 23 25  1  0
 24 23  2  0
M  END
$$$$
