CHI.pdb
     RDKit          3D

 25 25  0  0  1  0  0  0  0  0999 V2000
   17.8500   -8.9526  -20.6549 N   0  0  0  0  0  0  0  0  0  0  0  0
   19.0901   -8.4550  -20.0966 C   0  0  1  0  0  0  0  0  0  0  0  0
   19.3215   -7.0767  -20.6659 C   0  0  0  0  0  0  0  0  0  0  0  0
   19.9647   -7.2726  -22.3517 S   0  0  0  0  0  0  0  0  0  0  0  0
   19.0173   -8.4808  -18.6394 C   0  0  0  0  0  0  0  0  0  0  0  0
   18.0202   -7.9729  -18.0598 O   0  0  0  0  0  0  0  0  0  0  0  0
   20.0561   -9.0703  -17.8851 N   0  0  0  0  0  0  0  0  0  0  0  0
   20.0250   -9.0416  -16.4526 C   0  0  1  0  0  0  0  0  0  0  0  0
   20.4536  -10.4017  -15.8798 C   0  0  0  0  0  0  0  0  0  0  0  0
   19.3704  -11.3673  -15.8596 C   0  0  0  0  0  0  0  0  0  0  0  0
   18.0543  -11.1320  -16.1792 C   0  0  0  0  0  0  0  0  0  0  0  0
   17.3397  -12.2809  -16.0408 N   0  0  0  0  0  0  0  0  0  0  0  0
   18.2111  -13.2293  -15.6356 C   0  0  0  0  0  0  0  0  0  0  0  0
   19.4501  -12.6640  -15.5270 N   0  0  0  0  0  0  0  0  0  0  0  0
   21.0191   -8.0808  -15.8906 C   0  0  0  0  0  0  0  0  0  0  0  0
   22.2079   -8.1735  -16.2828 O   0  0  0  0  0  0  0  0  0  0  0  0
   23.0554   -3.1515  -15.5711 C   0  0  0  0  0  0  0  0  0  0  0  0
   22.2832   -3.6901  -14.3773 C   0  0  0  0  0  0  0  0  0  0  0  0
   21.3043   -4.6992  -14.8970 C   0  0  2  0  0  0  0  0  0  0  0  0
   19.9074   -4.3061  -14.5552 C   0  0  0  0  0  0  0  0  0  0  0  0
   21.6137   -6.1043  -14.4348 C   0  0  2  0  0  0  0  0  0  0  0  0
   20.7107   -7.0796  -14.9514 N   0  0  0  0  0  0  0  0  0  0  0  0
   21.5861   -6.1584  -12.9607 C   0  0  0  0  0  0  0  0  0  0  0  0
   20.5473   -6.5356  -12.3781 O   0  0  0  0  0  0  0  0  0  0  0  0
   22.6699   -5.8071  -12.1748 O   0  0  0  0  0  0  0  0  0  0  0  0
  2  1  1  6
  3  2  1  0
  3  4  1  0
  5  6  2  0
  5  2  1  0
  7  5  1  0
  8  7  1  0
  8  9  1  1
 10  9  1  0
 11 10  2  0
 12 11  1  0
 13 12  1  0
 13 14  2  0
 14 10  1  0
 15 22  1  0
 15  8  1  0
 16 15  2  0
 18 17  1  0
 19 21  1  0
 19 18  1  0
 19 20  1  1
 21 23  1  0
 21 22  1  6
 23 25  1  0
 24 23  2  0
M  END
$$$$
