CHI.pdb
     RDKit          3D

 25 25  0  0  1  0  0  0  0  0999 V2000
   16.6207  -12.5050  -15.1707 N   0  0  0  0  0  0  0  0  0  0  0  0
   15.7643  -11.4120  -14.7594 C   0  0  1  0  0  0  0  0  0  0  0  0
   14.4557  -12.0096  -14.3038 C   0  0  0  0  0  0  0  0  0  0  0  0
   13.3443  -10.6439  -13.8639 S   0  0  0  0  0  0  0  0  0  0  0  0
   16.4356  -10.6227  -13.7320 C   0  0  0  0  0  0  0  0  0  0  0  0
   16.9806  -11.2084  -12.7582 O   0  0  0  0  0  0  0  0  0  0  0  0
   16.4740   -9.2138  -13.8284 N   0  0  0  0  0  0  0  0  0  0  0  0
   17.0570   -8.4261  -12.7827 C   0  0  1  0  0  0  0  0  0  0  0  0
   18.0567   -7.4155  -13.3667 C   0  0  0  0  0  0  0  0  0  0  0  0
   19.2774   -8.0435  -13.8372 C   0  0  0  0  0  0  0  0  0  0  0  0
   20.2532   -8.6247  -13.0629 C   0  0  0  0  0  0  0  0  0  0  0  0
   21.2431   -9.1050  -13.8626 N   0  0  0  0  0  0  0  0  0  0  0  0
   20.8826   -8.8224  -15.1327 C   0  0  0  0  0  0  0  0  0  0  0  0
   19.6804   -8.1737  -15.1097 N   0  0  0  0  0  0  0  0  0  0  0  0
   16.0435   -7.5768  -12.0908 C   0  0  0  0  0  0  0  0  0  0  0  0
   15.2181   -6.9545  -12.8030 O   0  0  0  0  0  0  0  0  0  0  0  0
   12.2795   -7.5669   -7.4845 C   0  0  0  0  0  0  0  0  0  0  0  0
   13.1395   -6.6179   -8.3039 C   0  0  0  0  0  0  0  0  0  0  0  0
   14.1754   -7.4451   -9.0034 C   0  0  2  0  0  0  0  0  0  0  0  0
   15.0461   -8.1471   -8.0176 C   0  0  0  0  0  0  0  0  0  0  0  0
   14.9910   -6.6449   -9.9925 C   0  0  2  0  0  0  0  0  0  0  0  0
   15.9534   -7.4286  -10.6945 N   0  0  0  0  0  0  0  0  0  0  0  0
   15.6854   -5.5488   -9.2902 C   0  0  0  0  0  0  0  0  0  0  0  0
   16.8983   -5.6655   -9.0145 O   0  0  0  0  0  0  0  0  0  0  0  0
   15.0526   -4.3768   -8.9138 O   0  0  0  0  0  0  0  0  0  0  0  0
  2  1  1  1
  3  2  1  0
  3  4  1  0
  5  6  2  0
  5  2  1  0
  7  5  1  0
  8  7  1  0
  8  9  1  6
 10  9  1  0
 11 10  2  0
 12 11  1  0
 13 12  1  0
 13 14  2  0
 14 10  1  0
 15 22  1  0
 15  8  1  0
 16 15  2  0
 18 17  1  0
 19 21  1  0
 19 18  1  0
 19 20  1  1
 21 23  1  0
 21 22  1  1
 23 25  1  0
 24 23  2  0
M  END
$$$$
