CHI.pdb
     RDKit          3D

 25 25  0  0  1  0  0  0  0  0999 V2000
   29.4440  -21.0042  -17.0716 N   0  0  0  0  0  0  0  0  0  0  0  0
   28.9280  -21.6995  -15.9107 C   0  0  1  0  0  0  0  0  0  0  0  0
   30.0870  -21.9374  -14.9739 C   0  0  0  0  0  0  0  0  0  0  0  0
   30.7855  -23.5681  -15.3570 S   0  0  0  0  0  0  0  0  0  0  0  0
   27.8450  -20.9236  -15.3153 C   0  0  0  0  0  0  0  0  0  0  0  0
   28.0685  -19.7466  -14.9243 O   0  0  0  0  0  0  0  0  0  0  0  0
   26.5570  -21.4876  -15.1786 N   0  0  0  0  0  0  0  0  0  0  0  0
   25.5029  -20.7544  -14.5421 C   0  0  1  0  0  0  0  0  0  0  0  0
   24.1957  -20.8953  -15.3378 C   0  0  0  0  0  0  0  0  0  0  0  0
   23.1123  -20.1081  -14.7788 C   0  0  0  0  0  0  0  0  0  0  0  0
   23.1749  -19.2922  -13.6744 C   0  0  0  0  0  0  0  0  0  0  0  0
   21.9589  -18.7217  -13.4602 N   0  0  0  0  0  0  0  0  0  0  0  0
   21.1415  -19.1828  -14.4309 C   0  0  0  0  0  0  0  0  0  0  0  0
   21.8529  -20.0295  -15.2330 N   0  0  0  0  0  0  0  0  0  0  0  0
   25.1707  -21.3071  -13.1962 C   0  0  0  0  0  0  0  0  0  0  0  0
   25.0361  -22.5508  -13.0920 O   0  0  0  0  0  0  0  0  0  0  0  0
   27.6798  -19.9816   -8.5892 C   0  0  0  0  0  0  0  0  0  0  0  0
   26.9580  -20.7774   -9.6650 C   0  0  0  0  0  0  0  0  0  0  0  0
   25.5211  -20.3512   -9.6473 C   0  0  2  0  0  0  0  0  0  0  0  0
   24.9214  -20.5683   -8.2998 C   0  0  0  0  0  0  0  0  0  0  0  0
   24.7026  -21.0131  -10.7317 C   0  0  2  0  0  0  0  0  0  0  0  0
   24.9990  -20.5259  -12.0386 N   0  0  0  0  0  0  0  0  0  0  0  0
   23.2663  -20.8137  -10.4598 C   0  0  0  0  0  0  0  0  0  0  0  0
   22.6665  -19.8555  -10.9919 O   0  0  0  0  0  0  0  0  0  0  0  0
   22.5348  -21.6471   -9.6315 O   0  0  0  0  0  0  0  0  0  0  0  0
  2  1  1  6
  3  2  1  0
  3  4  1  0
  5  6  2  0
  5  2  1  0
  7  5  1  0
  8  7  1  0
  8  9  1  6
 10  9  1  0
 11 10  2  0
 12 11  1  0
 13 12  1  0
 13 14  2  0
 14 10  1  0
 15 22  1  0
 15  8  1  0
 16 15  2  0
 18 17  1  0
 19 21  1  0
 19 18  1  0
 19 20  1  1
 21 23  1  0
 21 22  1  6
 23 25  1  0
 24 23  2  0
M  END
$$$$
