CHI.pdb
     RDKit          3D

 25 25  0  0  1  0  0  0  0  0999 V2000
   15.9949  -13.6213  -18.1735 N   0  0  0  0  0  0  0  0  0  0  0  0
   16.0655  -12.5639  -17.1864 C   0  0  1  0  0  0  0  0  0  0  0  0
   16.0310  -13.2134  -15.8247 C   0  0  0  0  0  0  0  0  0  0  0  0
   16.1027  -11.8959  -14.5786 S   0  0  0  0  0  0  0  0  0  0  0  0
   17.2580  -11.7554  -17.4182 C   0  0  0  0  0  0  0  0  0  0  0  0
   18.3517  -12.3249  -17.6784 O   0  0  0  0  0  0  0  0  0  0  0  0
   17.1866  -10.3461  -17.3513 N   0  0  0  0  0  0  0  0  0  0  0  0
   18.3576   -9.5454  -17.5543 C   0  0  1  0  0  0  0  0  0  0  0  0
   18.0340   -8.3402  -18.4513 C   0  0  0  0  0  0  0  0  0  0  0  0
   17.9082   -8.7018  -19.8511 C   0  0  0  0  0  0  0  0  0  0  0  0
   18.9119   -8.7114  -20.7903 C   0  0  0  0  0  0  0  0  0  0  0  0
   18.4085   -9.1062  -21.9906 N   0  0  0  0  0  0  0  0  0  0  0  0
   17.0931   -9.3416  -21.7973 C   0  0  0  0  0  0  0  0  0  0  0  0
   16.7943   -9.0925  -20.4876 N   0  0  0  0  0  0  0  0  0  0  0  0
   18.8436   -8.9325  -16.2832 C   0  0  0  0  0  0  0  0  0  0  0  0
   17.9835   -8.5463  -15.4544 O   0  0  0  0  0  0  0  0  0  0  0  0
   23.7027  -10.5737  -14.0836 C   0  0  0  0  0  0  0  0  0  0  0  0
   22.8438   -9.6012  -14.8761 C   0  0  0  0  0  0  0  0  0  0  0  0
   21.6426   -9.2814  -14.0384 C   0  0  2  0  0  0  0  0  0  0  0  0
   20.9275  -10.5278  -13.6413 C   0  0  0  0  0  0  0  0  0  0  0  0
   20.7110   -8.2965  -14.7061 C   0  0  2  0  0  0  0  0  0  0  0  0
   20.2006   -8.7600  -15.9543 N   0  0  0  0  0  0  0  0  0  0  0  0
   21.4137   -7.0171  -14.9207 C   0  0  0  0  0  0  0  0  0  0  0  0
   21.7588   -6.6908  -16.0763 O   0  0  0  0  0  0  0  0  0  0  0  0
   21.7162   -6.1432  -13.8908 O   0  0  0  0  0  0  0  0  0  0  0  0
  2  1  1  6
  3  2  1  0
  3  4  1  0
  5  6  2  0
  5  2  1  0
  7  5  1  0
  8  7  1  0
  8  9  1  6
 10  9  1  0
 11 10  2  0
 12 11  1  0
 13 12  1  0
 13 14  2  0
 14 10  1  0
 15 22  1  0
 15  8  1  0
 16 15  2  0
 18 17  1  0
 19 21  1  0
 19 18  1  0
 19 20  1  6
 21 23  1  0
 21 22  1  6
 23 25  1  0
 24 23  2  0
M  END
$$$$
