CHI.pdb
     RDKit          3D

 25 25  0  0  1  0  0  0  0  0999 V2000
   27.6356  -24.8801  -17.7842 N   0  0  0  0  0  0  0  0  0  0  0  0
   26.3495  -24.9061  -17.1190 C   0  0  1  0  0  0  0  0  0  0  0  0
   26.4384  -25.9172  -16.0022 C   0  0  0  0  0  0  0  0  0  0  0  0
   25.5560  -27.4114  -16.5340 S   0  0  0  0  0  0  0  0  0  0  0  0
   26.0047  -23.5628  -16.6651 C   0  0  0  0  0  0  0  0  0  0  0  0
   26.9215  -22.7747  -16.3093 O   0  0  0  0  0  0  0  0  0  0  0  0
   24.6544  -23.1496  -16.6250 N   0  0  0  0  0  0  0  0  0  0  0  0
   24.3013  -21.8565  -16.1180 C   0  0  1  0  0  0  0  0  0  0  0  0
   23.1132  -21.2790  -16.9032 C   0  0  0  0  0  0  0  0  0  0  0  0
   22.6511  -20.0118  -16.3678 C   0  0  0  0  0  0  0  0  0  0  0  0
   21.5349  -19.8059  -15.5924 C   0  0  0  0  0  0  0  0  0  0  0  0
   21.4317  -18.4851  -15.2846 N   0  0  0  0  0  0  0  0  0  0  0  0
   22.4829  -17.8709  -15.8683 C   0  0  0  0  0  0  0  0  0  0  0  0
   23.2238  -18.8098  -16.5285 N   0  0  0  0  0  0  0  0  0  0  0  0
   23.8093  -21.9228  -14.7105 C   0  0  0  0  0  0  0  0  0  0  0  0
   22.9891  -22.8275  -14.4201 O   0  0  0  0  0  0  0  0  0  0  0  0
   27.0451  -21.0577  -10.3906 C   0  0  0  0  0  0  0  0  0  0  0  0
   26.0289  -21.5896  -11.3887 C   0  0  0  0  0  0  0  0  0  0  0  0
   24.8424  -20.6746  -11.3486 C   0  0  2  0  0  0  0  0  0  0  0  0
   24.3030  -20.5680   -9.9629 C   0  0  0  0  0  0  0  0  0  0  0  0
   23.7666  -21.0704  -12.3334 C   0  0  2  0  0  0  0  0  0  0  0  0
   24.2046  -21.0385  -13.6900 N   0  0  0  0  0  0  0  0  0  0  0  0
   22.6039  -20.1746  -12.1837 C   0  0  0  0  0  0  0  0  0  0  0  0
   22.6705  -19.0030  -12.6122 O   0  0  0  0  0  0  0  0  0  0  0  0
   21.4217  -20.5709  -11.5826 O   0  0  0  0  0  0  0  0  0  0  0  0
  2  1  1  1
  3  2  1  0
  3  4  1  0
  5  6  2  0
  5  2  1  0
  7  5  1  0
  8  7  1  0
  8  9  1  6
 10  9  1  0
 11 10  2  0
 12 11  1  0
 13 12  1  0
 13 14  2  0
 14 10  1  0
 15 22  1  0
 15  8  1  0
 16 15  2  0
 18 17  1  0
 19 21  1  0
 19 18  1  0
 19 20  1  1
 21 23  1  0
 21 22  1  6
 23 25  1  0
 24 23  2  0
M  END
$$$$
