IIY.pdb
     RDKit          3D

 29 29  0  0  1  0  0  0  0  0999 V2000
    3.2810  -19.3653   20.4009 C   0  0  0  0  0  0  0  0  0  0  0  0
    4.5764  -20.1495   20.6775 C   0  0  0  0  0  0  0  0  0  0  0  0
    5.6545  -19.2055   21.0743 C   0  0  2  0  0  0  0  0  0  0  0  0
    5.4626  -18.7800   22.5129 C   0  0  0  0  0  0  0  0  0  0  0  0
    5.8686  -18.0588   20.1491 C   0  0  2  0  0  0  0  0  0  0  0  0
    6.2321  -18.6256   18.8331 N   0  0  0  0  0  0  0  0  0  0  0  0
    6.9395  -17.1241   20.5269 C   0  0  0  0  0  0  0  0  0  0  0  0
    8.1395  -17.5142   20.4776 O   0  0  0  0  0  0  0  0  0  0  0  0
    7.1196  -11.8320   19.4337 C   0  0  0  0  0  0  0  0  0  0  0  0
    7.5955  -13.2931   19.5811 C   0  0  0  0  0  0  0  0  0  0  0  0
    7.5797  -13.5855   21.0334 C   0  0  2  0  0  0  0  0  0  0  0  0
    8.4511  -12.5531   21.7224 C   0  0  0  0  0  0  0  0  0  0  0  0
    7.8960  -14.9778   21.4611 C   0  0  2  0  0  0  0  0  0  0  0  0
    6.7509  -15.7837   20.9532 N   0  0  0  0  0  0  0  0  0  0  0  0
    7.9939  -15.1453   22.9277 C   0  0  0  0  0  0  0  0  0  0  0  0
    7.0007  -14.8090   23.6506 O   0  0  0  0  0  0  0  0  0  0  0  0
    8.1402  -20.3069   29.7350 O   0  0  0  0  0  0  0  0  0  0  0  0
    8.0801  -19.5877   28.5483 C   0  0  0  0  0  0  0  0  0  0  0  0
    7.3184  -20.0159   27.4687 C   0  0  0  0  0  0  0  0  0  0  0  0
    7.2850  -19.2817   26.3199 C   0  0  0  0  0  0  0  0  0  0  0  0
    7.9859  -18.1111   26.1770 C   0  0  0  0  0  0  0  0  0  0  0  0
    7.9516  -17.3168   24.9306 C   0  0  0  0  0  0  0  0  0  0  0  0
    9.0547  -16.2974   24.8962 C   0  0  2  0  0  0  0  0  0  0  0  0
    9.1298  -15.6640   23.5834 N   0  0  0  0  0  0  0  0  0  0  0  0
   10.3287  -16.8728   25.3112 C   0  0  0  0  0  0  0  0  0  0  0  0
   10.7407  -16.9388   26.4861 O   0  0  0  0  0  0  0  0  0  0  0  0
    8.7493  -17.6737   27.2469 C   0  0  0  0  0  0  0  0  0  0  0  0
    8.7873  -18.4085   28.4068 C   0  0  0  0  0  0  0  0  0  0  0  0
   11.1979  -17.4106   24.3400 O   0  0  0  0  0  0  0  0  0  0  0  0
  2  1  1  0
  3  5  1  0
  3  2  1  0
  3  4  1  1
  5  6  1  6
  7  5  1  0
  7  8  2  0
  9 10  1  0
 11 10  1  0
 11 13  1  0
 11 12  1  1
 13 14  1  1
 14  7  1  0
 15 24  1  0
 15 13  1  0
 16 15  2  0
 17 18  1  0
 18 28  2  0
 19 20  2  0
 19 18  1  0
 20 21  1  0
 21 22  1  0
 21 27  2  0
 23 22  1  6
 23 24  1  0
 23 25  1  0
 25 29  1  0
 26 25  2  0
 28 27  1  0
M  END
$$$$
