IIY.pdb
     RDKit          3D

 29 29  0  0  1  0  0  0  0  0999 V2000
    5.6334  -21.9564   24.3187 C   0  0  0  0  0  0  0  0  0  0  0  0
    5.1586  -20.9855   23.2227 C   0  0  0  0  0  0  0  0  0  0  0  0
    6.1686  -19.9097   23.0393 C   0  0  2  0  0  0  0  0  0  0  0  0
    6.5941  -19.3680   24.3858 C   0  0  0  0  0  0  0  0  0  0  0  0
    5.7927  -18.8422   22.0720 C   0  0  2  0  0  0  0  0  0  0  0  0
    5.4337  -19.5126   20.8044 N   0  0  0  0  0  0  0  0  0  0  0  0
    6.8452  -17.8635   21.7594 C   0  0  0  0  0  0  0  0  0  0  0  0
    7.8233  -18.2219   21.0456 O   0  0  0  0  0  0  0  0  0  0  0  0
    5.9225  -13.0009   20.1937 C   0  0  0  0  0  0  0  0  0  0  0  0
    6.6369  -14.3685   20.2444 C   0  0  0  0  0  0  0  0  0  0  0  0
    7.4628  -14.3547   21.4742 C   0  0  2  0  0  0  0  0  0  0  0  0
    8.5045  -13.2633   21.3196 C   0  0  0  0  0  0  0  0  0  0  0  0
    8.0520  -15.6476   21.9250 C   0  0  2  0  0  0  0  0  0  0  0  0
    6.8694  -16.5126   22.1934 N   0  0  0  0  0  0  0  0  0  0  0  0
    8.8622  -15.5380   23.1580 C   0  0  0  0  0  0  0  0  0  0  0  0
    8.6367  -14.5710   23.9557 O   0  0  0  0  0  0  0  0  0  0  0  0
    7.0745  -20.1978   27.9856 O   0  0  0  0  0  0  0  0  0  0  0  0
    7.7672  -19.1121   27.4654 C   0  0  0  0  0  0  0  0  0  0  0  0
    7.1357  -17.9094   27.1760 C   0  0  0  0  0  0  0  0  0  0  0  0
    7.8503  -16.8659   26.6659 C   0  0  0  0  0  0  0  0  0  0  0  0
    9.1972  -16.9505   26.4191 C   0  0  0  0  0  0  0  0  0  0  0  0
    9.9712  -15.8201   25.8636 C   0  0  0  0  0  0  0  0  0  0  0  0
   10.7607  -16.2341   24.6543 C   0  0  2  0  0  0  0  0  0  0  0  0
    9.8780  -16.4502   23.5122 N   0  0  0  0  0  0  0  0  0  0  0  0
   11.6027  -17.3910   24.9348 C   0  0  0  0  0  0  0  0  0  0  0  0
   12.4215  -17.4761   25.8712 O   0  0  0  0  0  0  0  0  0  0  0  0
    9.8383  -18.1451   26.7036 C   0  0  0  0  0  0  0  0  0  0  0  0
    9.1241  -19.1999   27.2175 C   0  0  0  0  0  0  0  0  0  0  0  0
   11.5182  -18.5294   24.1071 O   0  0  0  0  0  0  0  0  0  0  0  0
  2  1  1  0
  3  5  1  0
  3  2  1  0
  3  4  1  1
  5  6  1  6
  7  5  1  0
  7  8  2  0
  9 10  1  0
 11 10  1  0
 11 13  1  0
 11 12  1  6
 13 14  1  1
 14  7  1  0
 15 24  1  0
 15 13  1  0
 16 15  2  0
 17 18  1  0
 18 28  2  0
 19 20  2  0
 19 18  1  0
 20 21  1  0
 21 22  1  0
 21 27  2  0
 23 22  1  1
 23 24  1  0
 23 25  1  0
 25 29  1  0
 26 25  2  0
 28 27  1  0
M  END
$$$$
