IIY.pdb
     RDKit          3D

 29 29  0  0  1  0  0  0  0  0999 V2000
    7.2874  -12.7095   18.5614 C   0  0  0  0  0  0  0  0  0  0  0  0
    7.2144  -14.0173   19.3699 C   0  0  0  0  0  0  0  0  0  0  0  0
    7.9912  -13.8681   20.6289 C   0  0  2  0  0  0  0  0  0  0  0  0
    9.3968  -13.4060   20.3149 C   0  0  0  0  0  0  0  0  0  0  0  0
    7.9524  -15.0422   21.5435 C   0  0  2  0  0  0  0  0  0  0  0  0
    6.5337  -15.4303   21.6906 N   0  0  0  0  0  0  0  0  0  0  0  0
    8.4802  -14.8153   22.8975 C   0  0  0  0  0  0  0  0  0  0  0  0
    9.7121  -14.5791   23.0437 O   0  0  0  0  0  0  0  0  0  0  0  0
    5.5971  -12.0331   26.2762 C   0  0  0  0  0  0  0  0  0  0  0  0
    6.7721  -12.5370   25.4111 C   0  0  0  0  0  0  0  0  0  0  0  0
    7.3312  -13.7106   26.1218 C   0  0  2  0  0  0  0  0  0  0  0  0
    7.8115  -13.2419   27.4818 C   0  0  0  0  0  0  0  0  0  0  0  0
    8.3506  -14.5299   25.4066 C   0  0  2  0  0  0  0  0  0  0  0  0
    7.7168  -14.8345   24.0935 N   0  0  0  0  0  0  0  0  0  0  0  0
    8.6844  -15.7989   26.0898 C   0  0  0  0  0  0  0  0  0  0  0  0
    7.9495  -16.8183   25.8826 O   0  0  0  0  0  0  0  0  0  0  0  0
   14.6609  -15.5831   22.9854 O   0  0  0  0  0  0  0  0  0  0  0  0
   13.6859  -16.1841   23.7711 C   0  0  0  0  0  0  0  0  0  0  0  0
   13.6900  -16.0758   25.1558 C   0  0  0  0  0  0  0  0  0  0  0  0
   12.7149  -16.6806   25.8930 C   0  0  0  0  0  0  0  0  0  0  0  0
   11.7051  -17.4088   25.3167 C   0  0  0  0  0  0  0  0  0  0  0  0
   10.6497  -18.0665   26.1162 C   0  0  0  0  0  0  0  0  0  0  0  0
   10.3036  -17.2642   27.3383 C   0  0  2  0  0  0  0  0  0  0  0  0
    9.7809  -15.9540   26.9633 N   0  0  0  0  0  0  0  0  0  0  0  0
   11.4330  -17.1718   28.2559 C   0  0  0  0  0  0  0  0  0  0  0  0
   12.0635  -18.1412   28.7222 O   0  0  0  0  0  0  0  0  0  0  0  0
   11.6903  -17.5240   23.9363 C   0  0  0  0  0  0  0  0  0  0  0  0
   12.6696  -16.9174   23.1881 C   0  0  0  0  0  0  0  0  0  0  0  0
   11.8846  -15.9044   28.6774 O   0  0  0  0  0  0  0  0  0  0  0  0
  2  1  1  0
  3  5  1  0
  3  2  1  0
  3  4  1  6
  5  6  1  1
  7  5  1  0
  7  8  2  0
  9 10  1  0
 11 10  1  0
 11 13  1  0
 11 12  1  1
 13 14  1  6
 14  7  1  0
 15 24  1  0
 15 13  1  0
 16 15  2  0
 17 18  1  0
 18 28  2  0
 19 20  2  0
 19 18  1  0
 20 21  1  0
 21 22  1  0
 21 27  2  0
 23 22  1  6
 23 24  1  0
 23 25  1  0
 25 29  1  0
 26 25  2  0
 28 27  1  0
M  END
$$$$
