IIY.pdb
     RDKit          3D

 29 29  0  0  1  0  0  0  0  0999 V2000
    2.5378  -18.5331   21.2676 C   0  0  0  0  0  0  0  0  0  0  0  0
    3.5844  -18.8145   22.3607 C   0  0  0  0  0  0  0  0  0  0  0  0
    4.5867  -17.7165   22.3846 C   0  0  2  0  0  0  0  0  0  0  0  0
    5.0809  -17.4398   20.9821 C   0  0  0  0  0  0  0  0  0  0  0  0
    5.6895  -17.8830   23.3708 C   0  0  2  0  0  0  0  0  0  0  0  0
    5.0615  -18.1381   24.6844 N   0  0  0  0  0  0  0  0  0  0  0  0
    6.5796  -16.7237   23.5360 C   0  0  0  0  0  0  0  0  0  0  0  0
    7.3351  -16.3898   22.5807 O   0  0  0  0  0  0  0  0  0  0  0  0
    5.4298  -12.4701   26.7030 C   0  0  0  0  0  0  0  0  0  0  0  0
    5.8561  -13.2678   25.4520 C   0  0  0  0  0  0  0  0  0  0  0  0
    7.1589  -13.8892   25.7858 C   0  0  2  0  0  0  0  0  0  0  0  0
    8.1304  -12.7744   26.1224 C   0  0  0  0  0  0  0  0  0  0  0  0
    7.7260  -14.8681   24.8152 C   0  0  2  0  0  0  0  0  0  0  0  0
    6.6745  -15.9168   24.6995 N   0  0  0  0  0  0  0  0  0  0  0  0
    8.9880  -15.4947   25.2662 C   0  0  0  0  0  0  0  0  0  0  0  0
    9.0494  -15.9684   26.4468 O   0  0  0  0  0  0  0  0  0  0  0  0
    9.3970  -18.8792   30.3953 O   0  0  0  0  0  0  0  0  0  0  0  0
    9.7237  -18.6407   29.0665 C   0  0  0  0  0  0  0  0  0  0  0  0
    8.8178  -18.8622   28.0372 C   0  0  0  0  0  0  0  0  0  0  0  0
    9.1762  -18.6160   26.7446 C   0  0  0  0  0  0  0  0  0  0  0  0
   10.4204  -18.1483   26.4048 C   0  0  0  0  0  0  0  0  0  0  0  0
   10.8095  -17.8841   25.0033 C   0  0  0  0  0  0  0  0  0  0  0  0
   11.2649  -16.4647   24.8160 C   0  0  2  0  0  0  0  0  0  0  0  0
   10.1400  -15.6056   24.4599 N   0  0  0  0  0  0  0  0  0  0  0  0
   12.3597  -16.3756   23.8570 C   0  0  0  0  0  0  0  0  0  0  0  0
   12.3337  -15.7276   22.7921 O   0  0  0  0  0  0  0  0  0  0  0  0
   11.3326  -17.9235   27.4227 C   0  0  0  0  0  0  0  0  0  0  0  0
   10.9779  -18.1695   28.7267 C   0  0  0  0  0  0  0  0  0  0  0  0
   13.5652  -17.0607   24.1126 O   0  0  0  0  0  0  0  0  0  0  0  0
  2  1  1  0
  3  5  1  0
  3  2  1  0
  3  4  1  6
  5  6  1  1
  7  5  1  0
  7  8  2  0
  9 10  1  0
 11 10  1  0
 11 13  1  0
 11 12  1  6
 13 14  1  1
 14  7  1  0
 15 24  1  0
 15 13  1  0
 16 15  2  0
 17 18  1  0
 18 28  2  0
 19 20  2  0
 19 18  1  0
 20 21  1  0
 21 22  1  0
 21 27  2  0
 23 22  1  6
 23 24  1  0
 23 25  1  0
 25 29  1  0
 26 25  2  0
 28 27  1  0
M  END
$$$$
