IIY.pdb
     RDKit          3D

 29 29  0  0  1  0  0  0  0  0999 V2000
    5.2026  -21.2622   24.0190 C   0  0  0  0  0  0  0  0  0  0  0  0
    4.9330  -20.4361   22.7485 C   0  0  0  0  0  0  0  0  0  0  0  0
    5.9345  -19.3420   22.6444 C   0  0  2  0  0  0  0  0  0  0  0  0
    5.9737  -18.5553   23.9355 C   0  0  0  0  0  0  0  0  0  0  0  0
    5.8110  -18.4790   21.4374 C   0  0  2  0  0  0  0  0  0  0  0  0
    5.8134  -19.3751   20.2618 N   0  0  0  0  0  0  0  0  0  0  0  0
    6.8919  -17.5018   21.2373 C   0  0  0  0  0  0  0  0  0  0  0  0
    8.0324  -17.9128   20.8835 O   0  0  0  0  0  0  0  0  0  0  0  0
    6.3177  -12.6170   19.1587 C   0  0  0  0  0  0  0  0  0  0  0  0
    6.9211  -14.0120   19.4287 C   0  0  0  0  0  0  0  0  0  0  0  0
    7.5052  -13.9502   20.7889 C   0  0  2  0  0  0  0  0  0  0  0  0
    8.5725  -12.8727   20.7853 C   0  0  0  0  0  0  0  0  0  0  0  0
    7.9828  -15.2259   21.3940 C   0  0  2  0  0  0  0  0  0  0  0  0
    6.7750  -16.0976   21.4062 N   0  0  0  0  0  0  0  0  0  0  0  0
    8.4887  -15.0795   22.7765 C   0  0  0  0  0  0  0  0  0  0  0  0
    7.8698  -14.3061   23.5770 O   0  0  0  0  0  0  0  0  0  0  0  0
   10.6954  -14.9963   30.9579 O   0  0  0  0  0  0  0  0  0  0  0  0
   10.2739  -15.1718   29.6461 C   0  0  0  0  0  0  0  0  0  0  0  0
    9.9340  -14.0969   28.8349 C   0  0  0  0  0  0  0  0  0  0  0  0
    9.5244  -14.3099   27.5516 C   0  0  0  0  0  0  0  0  0  0  0  0
    9.4299  -15.5673   27.0111 C   0  0  0  0  0  0  0  0  0  0  0  0
    8.9833  -15.7982   25.6208 C   0  0  0  0  0  0  0  0  0  0  0  0
   10.1011  -15.5841   24.6401 C   0  0  2  0  0  0  0  0  0  0  0  0
    9.6247  -15.7537   23.2710 N   0  0  0  0  0  0  0  0  0  0  0  0
   11.2473  -16.4339   24.9407 C   0  0  0  0  0  0  0  0  0  0  0  0
   11.3815  -17.6183   24.5750 O   0  0  0  0  0  0  0  0  0  0  0  0
    9.7662  -16.6475   27.8105 C   0  0  0  0  0  0  0  0  0  0  0  0
   10.1795  -16.4397   29.1039 C   0  0  0  0  0  0  0  0  0  0  0  0
   12.3148  -15.9173   25.7033 O   0  0  0  0  0  0  0  0  0  0  0  0
  2  1  1  0
  3  5  1  0
  3  2  1  0
  3  4  1  1
  5  6  1  6
  7  5  1  0
  7  8  2  0
  9 10  1  0
 11 10  1  0
 11 13  1  0
 11 12  1  6
 13 14  1  1
 14  7  1  0
 15 24  1  0
 15 13  1  0
 16 15  2  0
 17 18  1  0
 18 28  2  0
 19 20  2  0
 19 18  1  0
 20 21  1  0
 21 22  1  0
 21 27  2  0
 23 22  1  1
 23 24  1  0
 23 25  1  0
 25 29  1  0
 26 25  2  0
 28 27  1  0
M  END
$$$$
