IIY.pdb
     RDKit          3D

 29 29  0  0  1  0  0  0  0  0999 V2000
    6.6517  -11.7731   28.2684 C   0  0  0  0  0  0  0  0  0  0  0  0
    5.8677  -12.7836   27.4118 C   0  0  0  0  0  0  0  0  0  0  0  0
    6.7984  -13.4739   26.4800 C   0  0  2  0  0  0  0  0  0  0  0  0
    7.7369  -12.4684   25.8509 C   0  0  0  0  0  0  0  0  0  0  0  0
    6.1519  -14.3726   25.4846 C   0  0  2  0  0  0  0  0  0  0  0  0
    5.4162  -15.4045   26.2457 N   0  0  0  0  0  0  0  0  0  0  0  0
    7.0650  -15.0782   24.5727 C   0  0  0  0  0  0  0  0  0  0  0  0
    7.3857  -16.2725   24.8289 O   0  0  0  0  0  0  0  0  0  0  0  0
    7.5181  -13.1884   19.6156 C   0  0  0  0  0  0  0  0  0  0  0  0
    7.2630  -14.3375   20.6143 C   0  0  0  0  0  0  0  0  0  0  0  0
    8.5723  -14.6356   21.2403 C   0  0  2  0  0  0  0  0  0  0  0  0
    9.4289  -15.3413   20.2067 C   0  0  0  0  0  0  0  0  0  0  0  0
    8.5654  -15.3395   22.5541 C   0  0  2  0  0  0  0  0  0  0  0  0
    7.6379  -14.5322   23.3948 N   0  0  0  0  0  0  0  0  0  0  0  0
    9.8904  -15.3946   23.2100 C   0  0  0  0  0  0  0  0  0  0  0  0
   10.3071  -14.3672   23.8370 O   0  0  0  0  0  0  0  0  0  0  0  0
    9.5688  -13.9840   29.2958 O   0  0  0  0  0  0  0  0  0  0  0  0
   10.0590  -14.8376   28.3159 C   0  0  0  0  0  0  0  0  0  0  0  0
    9.5570  -16.1209   28.1428 C   0  0  0  0  0  0  0  0  0  0  0  0
   10.0647  -16.9296   27.1690 C   0  0  0  0  0  0  0  0  0  0  0  0
   11.0732  -16.5247   26.3317 C   0  0  0  0  0  0  0  0  0  0  0  0
   11.6253  -17.4024   25.2779 C   0  0  0  0  0  0  0  0  0  0  0  0
   11.9230  -16.6347   24.0212 C   0  0  2  0  0  0  0  0  0  0  0  0
   10.7294  -16.5281   23.1880 N   0  0  0  0  0  0  0  0  0  0  0  0
   13.0562  -17.2041   23.3016 C   0  0  0  0  0  0  0  0  0  0  0  0
   14.2298  -17.2427   23.7205 O   0  0  0  0  0  0  0  0  0  0  0  0
   11.5823  -15.2468   26.4945 C   0  0  0  0  0  0  0  0  0  0  0  0
   11.0752  -14.4274   27.4734 C   0  0  0  0  0  0  0  0  0  0  0  0
   12.8564  -17.7687   22.0251 O   0  0  0  0  0  0  0  0  0  0  0  0
  2  1  1  0
  3  5  1  0
  3  2  1  0
  3  4  1  6
  5  6  1  1
  7  5  1  0
  7  8  2  0
  9 10  1  0
 11 10  1  0
 11 13  1  0
 11 12  1  6
 13 14  1  1
 14  7  1  0
 15 24  1  0
 15 13  1  0
 16 15  2  0
 17 18  1  0
 18 28  2  0
 19 20  2  0
 19 18  1  0
 20 21  1  0
 21 22  1  0
 21 27  2  0
 23 22  1  1
 23 24  1  0
 23 25  1  0
 25 29  1  0
 26 25  2  0
 28 27  1  0
M  END
$$$$
