IIY.pdb
     RDKit          3D

 29 29  0  0  1  0  0  0  0  0999 V2000
    6.6326  -12.6145   18.0208 C   0  0  0  0  0  0  0  0  0  0  0  0
    6.9496  -13.9471   18.7230 C   0  0  0  0  0  0  0  0  0  0  0  0
    7.6906  -13.6810   19.9844 C   0  0  2  0  0  0  0  0  0  0  0  0
    8.9035  -12.8239   19.6980 C   0  0  0  0  0  0  0  0  0  0  0  0
    8.0049  -14.8838   20.8036 C   0  0  2  0  0  0  0  0  0  0  0  0
    6.7231  -15.5648   21.0833 N   0  0  0  0  0  0  0  0  0  0  0  0
    8.6472  -14.6235   22.1008 C   0  0  0  0  0  0  0  0  0  0  0  0
    9.8551  -14.2557   22.1241 O   0  0  0  0  0  0  0  0  0  0  0  0
    5.8209  -12.2316   25.8912 C   0  0  0  0  0  0  0  0  0  0  0  0
    6.8801  -12.6254   24.8395 C   0  0  0  0  0  0  0  0  0  0  0  0
    7.6823  -13.7104   25.4512 C   0  0  2  0  0  0  0  0  0  0  0  0
    8.2196  -13.1989   26.7740 C   0  0  0  0  0  0  0  0  0  0  0  0
    8.7381  -14.3458   24.6125 C   0  0  2  0  0  0  0  0  0  0  0  0
    8.0228  -14.7471   23.3691 N   0  0  0  0  0  0  0  0  0  0  0  0
    9.3501  -15.5439   25.2278 C   0  0  0  0  0  0  0  0  0  0  0  0
    8.9570  -15.9083   26.3831 O   0  0  0  0  0  0  0  0  0  0  0  0
   10.0095  -16.2323   31.4350 O   0  0  0  0  0  0  0  0  0  0  0  0
   10.5037  -16.0588   30.1486 C   0  0  0  0  0  0  0  0  0  0  0  0
   10.2991  -14.8841   29.4363 C   0  0  0  0  0  0  0  0  0  0  0  0
   10.8004  -14.7518   28.1749 C   0  0  0  0  0  0  0  0  0  0  0  0
   11.5151  -15.7492   27.5614 C   0  0  0  0  0  0  0  0  0  0  0  0
   12.0562  -15.6065   26.1930 C   0  0  0  0  0  0  0  0  0  0  0  0
   11.5778  -16.7105   25.2933 C   0  0  2  0  0  0  0  0  0  0  0  0
   10.3507  -16.3198   24.6063 N   0  0  0  0  0  0  0  0  0  0  0  0
   11.4348  -17.9678   26.0178 C   0  0  0  0  0  0  0  0  0  0  0  0
   12.3368  -18.5305   26.6692 O   0  0  0  0  0  0  0  0  0  0  0  0
   11.7259  -16.9256   28.2618 C   0  0  0  0  0  0  0  0  0  0  0  0
   11.2235  -17.0653   29.5326 C   0  0  0  0  0  0  0  0  0  0  0  0
   10.1940  -18.6374   26.0101 O   0  0  0  0  0  0  0  0  0  0  0  0
  2  1  1  0
  3  5  1  0
  3  2  1  0
  3  4  1  6
  5  6  1  1
  7  5  1  0
  7  8  2  0
  9 10  1  0
 11 10  1  0
 11 13  1  0
 11 12  1  1
 13 14  1  6
 14  7  1  0
 15 24  1  0
 15 13  1  0
 16 15  2  0
 17 18  1  0
 18 28  2  0
 19 20  2  0
 19 18  1  0
 20 21  1  0
 21 22  1  0
 21 27  2  0
 23 22  1  1
 23 24  1  0
 23 25  1  0
 25 29  1  0
 26 25  2  0
 28 27  1  0
M  END
$$$$
