IIY.pdb
     RDKit          3D

 29 29  0  0  1  0  0  0  0  0999 V2000
    5.1399  -21.6807   23.7626 C   0  0  0  0  0  0  0  0  0  0  0  0
    4.9571  -20.7052   22.5860 C   0  0  0  0  0  0  0  0  0  0  0  0
    5.9958  -19.6434   22.6539 C   0  0  2  0  0  0  0  0  0  0  0  0
    6.0416  -19.0563   24.0471 C   0  0  0  0  0  0  0  0  0  0  0  0
    5.9191  -18.6090   21.5858 C   0  0  2  0  0  0  0  0  0  0  0  0
    5.9590  -19.3199   20.2904 N   0  0  0  0  0  0  0  0  0  0  0  0
    7.0108  -17.6235   21.5710 C   0  0  0  0  0  0  0  0  0  0  0  0
    8.1569  -17.9839   21.1822 O   0  0  0  0  0  0  0  0  0  0  0  0
    6.6922  -12.7894   19.5923 C   0  0  0  0  0  0  0  0  0  0  0  0
    7.1429  -14.2152   19.9758 C   0  0  0  0  0  0  0  0  0  0  0  0
    7.6621  -14.1232   21.3603 C   0  0  2  0  0  0  0  0  0  0  0  0
    8.7360  -13.0526   21.3812 C   0  0  0  0  0  0  0  0  0  0  0  0
    8.1011  -15.3864   22.0186 C   0  0  2  0  0  0  0  0  0  0  0  0
    6.8988  -16.2637   21.9613 N   0  0  0  0  0  0  0  0  0  0  0  0
    8.5089  -15.2146   23.4303 C   0  0  0  0  0  0  0  0  0  0  0  0
    7.9640  -14.2911   24.1177 O   0  0  0  0  0  0  0  0  0  0  0  0
    5.8924  -10.9806   26.5982 O   0  0  0  0  0  0  0  0  0  0  0  0
    6.5417  -12.2067   26.5313 C   0  0  0  0  0  0  0  0  0  0  0  0
    5.8702  -13.3749   26.1945 C   0  0  0  0  0  0  0  0  0  0  0  0
    6.5429  -14.5600   26.1394 C   0  0  0  0  0  0  0  0  0  0  0  0
    7.8850  -14.6546   26.4077 C   0  0  0  0  0  0  0  0  0  0  0  0
    8.6134  -15.9398   26.3505 C   0  0  0  0  0  0  0  0  0  0  0  0
    9.8310  -15.8447   25.4755 C   0  0  2  0  0  0  0  0  0  0  0  0
    9.4716  -16.0213   24.0719 N   0  0  0  0  0  0  0  0  0  0  0  0
   10.8726  -16.7703   25.9049 C   0  0  0  0  0  0  0  0  0  0  0  0
   11.6618  -16.5782   26.8509 O   0  0  0  0  0  0  0  0  0  0  0  0
    8.5656  -13.4962   26.7448 C   0  0  0  0  0  0  0  0  0  0  0  0
    7.8939  -12.2994   26.8022 C   0  0  0  0  0  0  0  0  0  0  0  0
   11.0381  -17.9946   25.2254 O   0  0  0  0  0  0  0  0  0  0  0  0
  2  1  1  0
  3  5  1  0
  3  2  1  0
  3  4  1  1
  5  6  1  6
  7  5  1  0
  7  8  2  0
  9 10  1  0
 11 10  1  0
 11 13  1  0
 11 12  1  6
 13 14  1  1
 14  7  1  0
 15 24  1  0
 15 13  1  0
 16 15  2  0
 17 18  1  0
 18 28  2  0
 19 20  2  0
 19 18  1  0
 20 21  1  0
 21 22  1  0
 21 27  2  0
 23 22  1  1
 23 24  1  0
 23 25  1  0
 25 29  1  0
 26 25  2  0
 28 27  1  0
M  END
$$$$
