IIY.pdb
     RDKit          3D

 29 29  0  0  1  0  0  0  0  0999 V2000
    5.6966  -21.8730   24.3534 C   0  0  0  0  0  0  0  0  0  0  0  0
    5.3086  -21.0005   23.1461 C   0  0  0  0  0  0  0  0  0  0  0  0
    6.3086  -19.9133   22.9759 C   0  0  2  0  0  0  0  0  0  0  0  0
    6.5074  -19.1866   24.2873 C   0  0  0  0  0  0  0  0  0  0  0  0
    6.0615  -18.9951   21.8302 C   0  0  2  0  0  0  0  0  0  0  0  0
    6.0233  -19.8267   20.6087 N   0  0  0  0  0  0  0  0  0  0  0  0
    7.0795  -17.9559   21.6130 C   0  0  0  0  0  0  0  0  0  0  0  0
    8.1423  -18.2571   21.0012 O   0  0  0  0  0  0  0  0  0  0  0  0
    6.2553  -13.0686   19.8419 C   0  0  0  0  0  0  0  0  0  0  0  0
    6.8850  -14.4617   20.0562 C   0  0  0  0  0  0  0  0  0  0  0  0
    7.5398  -14.4162   21.3844 C   0  0  2  0  0  0  0  0  0  0  0  0
    8.5265  -13.2645   21.3744 C   0  0  0  0  0  0  0  0  0  0  0  0
    8.1398  -15.6786   21.9021 C   0  0  2  0  0  0  0  0  0  0  0  0
    6.9807  -16.6047   22.0352 N   0  0  0  0  0  0  0  0  0  0  0  0
    8.7969  -15.5321   23.2195 C   0  0  0  0  0  0  0  0  0  0  0  0
    8.0689  -15.4088   24.2572 O   0  0  0  0  0  0  0  0  0  0  0  0
   10.5787  -15.7733   31.0401 O   0  0  0  0  0  0  0  0  0  0  0  0
   10.4220  -15.4277   29.7039 C   0  0  0  0  0  0  0  0  0  0  0  0
   10.3247  -14.1039   29.2951 C   0  0  0  0  0  0  0  0  0  0  0  0
   10.1714  -13.8047   27.9734 C   0  0  0  0  0  0  0  0  0  0  0  0
   10.1072  -14.7741   27.0047 C   0  0  0  0  0  0  0  0  0  0  0  0
    9.9383  -14.4496   25.5723 C   0  0  0  0  0  0  0  0  0  0  0  0
   10.8142  -15.3091   24.7056 C   0  0  2  0  0  0  0  0  0  0  0  0
   10.1956  -15.5244   23.4013 N   0  0  0  0  0  0  0  0  0  0  0  0
   11.1635  -16.5591   25.3700 C   0  0  0  0  0  0  0  0  0  0  0  0
   11.7682  -16.6531   26.4563 O   0  0  0  0  0  0  0  0  0  0  0  0
   10.2030  -16.0982   27.4001 C   0  0  0  0  0  0  0  0  0  0  0  0
   10.3575  -16.4062   28.7298 C   0  0  0  0  0  0  0  0  0  0  0  0
   10.8089  -17.7864   24.7732 O   0  0  0  0  0  0  0  0  0  0  0  0
  2  1  1  0
  3  5  1  0
  3  2  1  0
  3  4  1  1
  5  6  1  6
  7  5  1  0
  7  8  2  0
  9 10  1  0
 11 10  1  0
 11 13  1  0
 11 12  1  6
 13 14  1  1
 14  7  1  0
 15 24  1  0
 15 13  1  0
 16 15  2  0
 17 18  1  0
 18 28  2  0
 19 20  2  0
 19 18  1  0
 20 21  1  0
 21 22  1  0
 21 27  2  0
 23 22  1  1
 23 24  1  0
 23 25  1  0
 25 29  1  0
 26 25  2  0
 28 27  1  0
M  END
$$$$
