IIY.pdb
     RDKit          3D

 29 29  0  0  1  0  0  0  0  0999 V2000
    6.2599  -11.5463   27.4071 C   0  0  0  0  0  0  0  0  0  0  0  0
    5.7425  -12.8392   26.7513 C   0  0  0  0  0  0  0  0  0  0  0  0
    6.7711  -13.3698   25.8178 C   0  0  2  0  0  0  0  0  0  0  0  0
    7.3209  -12.2477   24.9657 C   0  0  0  0  0  0  0  0  0  0  0  0
    6.3563  -14.5583   25.0228 C   0  0  2  0  0  0  0  0  0  0  0  0
    6.0445  -15.6362   25.9851 N   0  0  0  0  0  0  0  0  0  0  0  0
    7.3647  -15.0886   24.0926 C   0  0  0  0  0  0  0  0  0  0  0  0
    7.9456  -16.1746   24.3720 O   0  0  0  0  0  0  0  0  0  0  0  0
    7.4849  -12.8011   19.2515 C   0  0  0  0  0  0  0  0  0  0  0  0
    7.2840  -14.0271   20.1677 C   0  0  0  0  0  0  0  0  0  0  0  0
    8.6265  -14.3736   20.6898 C   0  0  2  0  0  0  0  0  0  0  0  0
    9.4169  -14.9974   19.5557 C   0  0  0  0  0  0  0  0  0  0  0  0
    8.6937  -15.1775   21.9433 C   0  0  2  0  0  0  0  0  0  0  0  0
    7.7602  -14.4817   22.8724 N   0  0  0  0  0  0  0  0  0  0  0  0
   10.0407  -15.2225   22.5533 C   0  0  0  0  0  0  0  0  0  0  0  0
   10.7982  -14.2046   22.4424 O   0  0  0  0  0  0  0  0  0  0  0  0
   11.3170  -15.6316   30.9852 O   0  0  0  0  0  0  0  0  0  0  0  0
   10.9529  -15.6541   29.6450 C   0  0  0  0  0  0  0  0  0  0  0  0
   10.9228  -14.4995   28.8736 C   0  0  0  0  0  0  0  0  0  0  0  0
   10.5597  -14.5623   27.5605 C   0  0  0  0  0  0  0  0  0  0  0  0
   10.2144  -15.7417   26.9507 C   0  0  0  0  0  0  0  0  0  0  0  0
    9.8183  -15.8092   25.5280 C   0  0  0  0  0  0  0  0  0  0  0  0
   10.9619  -16.2474   24.6578 C   0  0  2  0  0  0  0  0  0  0  0  0
   10.5435  -16.3335   23.2621 N   0  0  0  0  0  0  0  0  0  0  0  0
   11.5560  -17.4890   25.1391 C   0  0  0  0  0  0  0  0  0  0  0  0
   12.6284  -17.5778   25.7689 O   0  0  0  0  0  0  0  0  0  0  0  0
   10.2406  -16.9002   27.7098 C   0  0  0  0  0  0  0  0  0  0  0  0
   10.6053  -16.8437   29.0329 C   0  0  0  0  0  0  0  0  0  0  0  0
   10.9000  -18.7133   24.8967 O   0  0  0  0  0  0  0  0  0  0  0  0
  2  1  1  0
  3  5  1  0
  3  2  1  0
  3  4  1  6
  5  6  1  1
  7  5  1  0
  7  8  2  0
  9 10  1  0
 11 10  1  0
 11 13  1  0
 11 12  1  6
 13 14  1  1
 14  7  1  0
 15 24  1  0
 15 13  1  0
 16 15  2  0
 17 18  1  0
 18 28  2  0
 19 20  2  0
 19 18  1  0
 20 21  1  0
 21 22  1  0
 21 27  2  0
 23 22  1  1
 23 24  1  0
 23 25  1  0
 25 29  1  0
 26 25  2  0
 28 27  1  0
M  END
$$$$
