KMI.pdb
     RDKit          3D

 26 25  0  0  1  0  0  0  0  0999 V2000
   28.5362  -20.3990  -14.1916 N   0  0  0  0  0  0  0  0  0  0  0  0
   27.4180  -21.1478  -14.6728 C   0  0  1  0  0  0  0  0  0  0  0  0
   27.8052  -22.4105  -15.3891 C   0  0  0  0  0  0  0  0  0  0  0  0
   28.9563  -22.1023  -16.3111 C   0  0  0  0  0  0  0  0  0  0  0  0
   28.5245  -21.6013  -17.6523 C   0  0  0  0  0  0  0  0  0  0  0  0
   28.6151  -20.1164  -17.8050 C   0  0  0  0  0  0  0  0  0  0  0  0
   28.0779  -19.6274  -19.0417 N   0  0  0  0  0  0  0  0  0  0  0  0
   26.5188  -21.4345  -13.5116 C   0  0  0  0  0  0  0  0  0  0  0  0
   25.5965  -22.2737  -13.7006 O   0  0  0  0  0  0  0  0  0  0  0  0
   26.3684  -19.8679   -6.9012 C   0  0  0  0  0  0  0  0  0  0  0  0
   27.8507  -20.1079   -7.9117 S   0  0  0  0  0  0  0  0  0  0  0  0
   27.4210  -21.0480   -9.4483 C   0  0  0  0  0  0  0  0  0  0  0  0
   26.1575  -20.4590   -9.9393 C   0  0  0  0  0  0  0  0  0  0  0  0
   25.6679  -21.0617  -11.2255 C   0  0  2  0  0  0  0  0  0  0  0  0
   26.6709  -20.8140  -12.2600 N   0  0  0  0  0  0  0  0  0  0  0  0
   24.3690  -20.4647  -11.6186 C   0  0  0  0  0  0  0  0  0  0  0  0
   24.2296  -19.1848  -11.6501 O   0  0  0  0  0  0  0  0  0  0  0  0
   20.5498  -20.6069  -16.0017 C   0  0  0  0  0  0  0  0  0  0  0  0
   20.6407  -20.2930  -14.5160 C   0  0  0  0  0  0  0  0  0  0  0  0
   21.8600  -20.8735  -13.8920 C   0  0  2  0  0  0  0  0  0  0  0  0
   22.0044  -22.3608  -14.0575 C   0  0  0  0  0  0  0  0  0  0  0  0
   21.9925  -20.4985  -12.4504 C   0  0  2  0  0  0  0  0  0  0  0  0
   23.2141  -21.1987  -11.9865 N   0  0  0  0  0  0  0  0  0  0  0  0
   20.8218  -20.9176  -11.6732 C   0  0  0  0  0  0  0  0  0  0  0  0
   19.6701  -20.1541  -11.7127 O   0  0  0  0  0  0  0  0  0  0  0  0
   20.8259  -21.9460  -10.9710 O   0  0  0  0  0  0  0  0  0  0  0  0
  2  1  1  1
  3  2  1  0
  4  3  1  0
  5  4  1  0
  5  6  1  0
  7  6  1  0
  8  9  2  0
  8  2  1  0
 11 10  1  0
 11 12  1  0
 12 13  1  0
 14 13  1  1
 14 15  1  0
 15  8  1  0
 16 14  1  0
 17 16  2  0
 19 18  1  0
 19 20  1  0
 20 21  1  1
 20 22  1  0
 22 24  1  0
 22 23  1  1
 23 16  1  0
 24 25  1  0
 26 24  2  0
M  END
$$$$
