KMI.pdb
     RDKit          3D

 26 25  0  0  1  0  0  0  0  0999 V2000
   28.5017  -20.7905  -15.5309 N   0  0  0  0  0  0  0  0  0  0  0  0
   27.9559  -19.8444  -14.6091 C   0  0  1  0  0  0  0  0  0  0  0  0
   27.0946  -18.8002  -15.2611 C   0  0  0  0  0  0  0  0  0  0  0  0
   27.9886  -17.7185  -15.8095 C   0  0  0  0  0  0  0  0  0  0  0  0
   28.7638  -18.1441  -17.0154 C   0  0  0  0  0  0  0  0  0  0  0  0
   29.6379  -17.0731  -17.5858 C   0  0  0  0  0  0  0  0  0  0  0  0
   30.4273  -17.5037  -18.7032 N   0  0  0  0  0  0  0  0  0  0  0  0
   27.1974  -20.6009  -13.5643 C   0  0  0  0  0  0  0  0  0  0  0  0
   26.5216  -21.5905  -13.9574 O   0  0  0  0  0  0  0  0  0  0  0  0
   27.9456  -19.7786   -7.3843 C   0  0  0  0  0  0  0  0  0  0  0  0
   26.2088  -20.2731   -7.2616 S   0  0  0  0  0  0  0  0  0  0  0  0
   25.6314  -20.9556   -8.8835 C   0  0  0  0  0  0  0  0  0  0  0  0
   26.5682  -20.4282   -9.8976 C   0  0  0  0  0  0  0  0  0  0  0  0
   26.2772  -20.8993  -11.2942 C   0  0  2  0  0  0  0  0  0  0  0  0
   27.2186  -20.2486  -12.2041 N   0  0  0  0  0  0  0  0  0  0  0  0
   24.8837  -20.5668  -11.6757 C   0  0  0  0  0  0  0  0  0  0  0  0
   24.5452  -19.3413  -11.8814 O   0  0  0  0  0  0  0  0  0  0  0  0
   20.7305  -22.9798  -15.0309 C   0  0  0  0  0  0  0  0  0  0  0  0
   21.4552  -21.6837  -14.7005 C   0  0  0  0  0  0  0  0  0  0  0  0
   22.6558  -21.9109  -13.8521 C   0  0  2  0  0  0  0  0  0  0  0  0
   22.9646  -23.3555  -13.5726 C   0  0  0  0  0  0  0  0  0  0  0  0
   22.6013  -21.1371  -12.5736 C   0  0  2  0  0  0  0  0  0  0  0  0
   23.8408  -21.5100  -11.8508 N   0  0  0  0  0  0  0  0  0  0  0  0
   21.4128  -21.4786  -11.7855 C   0  0  0  0  0  0  0  0  0  0  0  0
   21.5282  -22.3622  -10.7287 O   0  0  0  0  0  0  0  0  0  0  0  0
   20.2914  -20.9982  -12.0351 O   0  0  0  0  0  0  0  0  0  0  0  0
  2  1  1  6
  3  2  1  0
  4  3  1  0
  5  4  1  0
  5  6  1  0
  7  6  1  0
  8  9  2  0
  8  2  1  0
 11 10  1  0
 11 12  1  0
 12 13  1  0
 14 13  1  1
 14 15  1  0
 15  8  1  0
 16 14  1  0
 17 16  2  0
 19 18  1  0
 19 20  1  0
 20 21  1  1
 20 22  1  0
 22 24  1  0
 22 23  1  1
 23 16  1  0
 24 25  1  0
 26 24  2  0
M  END
$$$$
