KMI.pdb
     RDKit          3D

 26 25  0  0  1  0  0  0  0  0999 V2000
   28.6840  -20.5810  -16.4250 N   0  0  0  0  0  0  0  0  0  0  0  0
   28.1652  -19.6989  -15.4272 C   0  0  1  0  0  0  0  0  0  0  0  0
   27.5623  -18.4437  -15.9914 C   0  0  0  0  0  0  0  0  0  0  0  0
   28.6728  -17.5850  -16.5385 C   0  0  0  0  0  0  0  0  0  0  0  0
   28.7140  -17.5493  -18.0330 C   0  0  0  0  0  0  0  0  0  0  0  0
   29.7265  -16.6008  -18.5911 C   0  0  0  0  0  0  0  0  0  0  0  0
   29.6760  -16.4737  -20.0188 N   0  0  0  0  0  0  0  0  0  0  0  0
   27.1706  -20.4602  -14.6085 C   0  0  0  0  0  0  0  0  0  0  0  0
   26.4552  -21.3000  -15.2196 O   0  0  0  0  0  0  0  0  0  0  0  0
   26.4823  -19.6010   -8.2737 C   0  0  0  0  0  0  0  0  0  0  0  0
   25.6312  -21.1873   -8.4618 S   0  0  0  0  0  0  0  0  0  0  0  0
   25.0960  -21.4111  -10.2205 C   0  0  0  0  0  0  0  0  0  0  0  0
   26.1836  -20.8460  -11.0463 C   0  0  0  0  0  0  0  0  0  0  0  0
   25.9660  -21.0032  -12.5245 C   0  0  2  0  0  0  0  0  0  0  0  0
   27.0193  -20.2696  -13.2245 N   0  0  0  0  0  0  0  0  0  0  0  0
   24.6338  -20.4811  -12.9127 C   0  0  0  0  0  0  0  0  0  0  0  0
   24.4280  -19.2107  -12.9648 O   0  0  0  0  0  0  0  0  0  0  0  0
   20.9475  -19.0848  -16.2658 C   0  0  0  0  0  0  0  0  0  0  0  0
   20.8648  -20.5129  -15.7483 C   0  0  0  0  0  0  0  0  0  0  0  0
   22.1495  -20.9715  -15.1549 C   0  0  2  0  0  0  0  0  0  0  0  0
   22.4697  -22.4214  -15.3911 C   0  0  0  0  0  0  0  0  0  0  0  0
   22.2472  -20.6513  -13.6974 C   0  0  2  0  0  0  0  0  0  0  0  0
   23.5146  -21.2801  -13.2545 N   0  0  0  0  0  0  0  0  0  0  0  0
   21.1066  -21.1884  -12.9485 C   0  0  0  0  0  0  0  0  0  0  0  0
   21.2593  -22.3526  -12.2189 O   0  0  0  0  0  0  0  0  0  0  0  0
   19.9936  -20.6300  -12.9452 O   0  0  0  0  0  0  0  0  0  0  0  0
  2  1  1  6
  3  2  1  0
  4  3  1  0
  5  4  1  0
  5  6  1  0
  7  6  1  0
  8  9  2  0
  8  2  1  0
 11 10  1  0
 11 12  1  0
 12 13  1  0
 14 13  1  1
 14 15  1  0
 15  8  1  0
 16 14  1  0
 17 16  2  0
 19 18  1  0
 19 20  1  0
 20 21  1  1
 20 22  1  0
 22 24  1  0
 22 23  1  1
 23 16  1  0
 24 25  1  0
 26 24  2  0
M  END
$$$$
