KMI.pdb
     RDKit          3D

 26 25  0  0  1  0  0  0  0  0999 V2000
   28.4765  -19.6550  -14.7258 N   0  0  0  0  0  0  0  0  0  0  0  0
   27.2517  -20.2541  -15.1542 C   0  0  1  0  0  0  0  0  0  0  0  0
   27.4123  -21.1685  -16.3355 C   0  0  0  0  0  0  0  0  0  0  0  0
   28.2521  -20.4670  -17.3713 C   0  0  0  0  0  0  0  0  0  0  0  0
   27.4435  -19.7329  -18.3929 C   0  0  0  0  0  0  0  0  0  0  0  0
   27.8843  -19.9695  -19.8022 C   0  0  0  0  0  0  0  0  0  0  0  0
   28.7952  -18.9789  -20.2982 N   0  0  0  0  0  0  0  0  0  0  0  0
   26.6552  -20.9740  -13.9858 C   0  0  0  0  0  0  0  0  0  0  0  0
   25.9335  -21.9756  -14.2434 O   0  0  0  0  0  0  0  0  0  0  0  0
   27.9975  -20.6710   -7.4505 C   0  0  0  0  0  0  0  0  0  0  0  0
   26.2942  -20.0987   -7.6670 S   0  0  0  0  0  0  0  0  0  0  0  0
   25.5471  -20.8937   -9.1634 C   0  0  0  0  0  0  0  0  0  0  0  0
   26.3914  -20.4779  -10.3029 C   0  0  0  0  0  0  0  0  0  0  0  0
   25.9380  -21.0282  -11.6253 C   0  0  2  0  0  0  0  0  0  0  0  0
   26.8716  -20.5759  -12.6556 N   0  0  0  0  0  0  0  0  0  0  0  0
   24.5653  -20.5642  -11.9389 C   0  0  0  0  0  0  0  0  0  0  0  0
   24.3163  -19.3045  -12.0384 O   0  0  0  0  0  0  0  0  0  0  0  0
   20.4758  -21.0710  -15.9776 C   0  0  0  0  0  0  0  0  0  0  0  0
   20.6496  -20.7233  -14.5068 C   0  0  0  0  0  0  0  0  0  0  0  0
   21.9691  -21.1611  -13.9774 C   0  0  2  0  0  0  0  0  0  0  0  0
   22.3013  -22.6053  -14.2312 C   0  0  0  0  0  0  0  0  0  0  0  0
   22.1322  -20.8405  -12.5258 C   0  0  2  0  0  0  0  0  0  0  0  0
   23.4500  -21.4106  -12.1567 N   0  0  0  0  0  0  0  0  0  0  0  0
   21.0610  -21.4322  -11.7180 C   0  0  0  0  0  0  0  0  0  0  0  0
   19.8734  -20.7439  -11.5539 O   0  0  0  0  0  0  0  0  0  0  0  0
   21.1818  -22.5428  -11.1679 O   0  0  0  0  0  0  0  0  0  0  0  0
  2  1  1  1
  3  2  1  0
  4  3  1  0
  5  4  1  0
  5  6  1  0
  7  6  1  0
  8  9  2  0
  8  2  1  0
 11 10  1  0
 11 12  1  0
 12 13  1  0
 14 13  1  1
 14 15  1  0
 15  8  1  0
 16 14  1  0
 17 16  2  0
 19 18  1  0
 19 20  1  0
 20 21  1  1
 20 22  1  0
 22 24  1  0
 22 23  1  1
 23 16  1  0
 24 25  1  0
 26 24  2  0
M  END
$$$$
