KMI.pdb
     RDKit          3D

 26 25  0  0  1  0  0  0  0  0999 V2000
   20.7899  -21.1536   -9.6751 N   0  0  0  0  0  0  0  0  0  0  0  0
   20.7817  -21.7765  -10.9614 C   0  0  1  0  0  0  0  0  0  0  0  0
   19.4319  -21.7719  -11.6213 C   0  0  0  0  0  0  0  0  0  0  0  0
   18.9870  -23.1993  -11.8076 C   0  0  0  0  0  0  0  0  0  0  0  0
   18.5558  -23.8572  -10.5358 C   0  0  0  0  0  0  0  0  0  0  0  0
   18.1622  -25.2911  -10.6958 C   0  0  0  0  0  0  0  0  0  0  0  0
   17.9379  -25.9722   -9.4536 N   0  0  0  0  0  0  0  0  0  0  0  0
   21.8060  -21.0943  -11.8125 C   0  0  0  0  0  0  0  0  0  0  0  0
   21.4175  -20.0975  -12.4803 O   0  0  0  0  0  0  0  0  0  0  0  0
   28.2854  -21.2761  -10.8045 C   0  0  0  0  0  0  0  0  0  0  0  0
   28.1311  -21.3174  -12.6074 S   0  0  0  0  0  0  0  0  0  0  0  0
   26.5380  -20.5259  -13.1222 C   0  0  0  0  0  0  0  0  0  0  0  0
   25.4778  -21.2334  -12.3740 C   0  0  0  0  0  0  0  0  0  0  0  0
   24.0918  -20.7345  -12.6697 C   0  0  2  0  0  0  0  0  0  0  0  0
   23.1429  -21.5214  -11.8836 N   0  0  0  0  0  0  0  0  0  0  0  0
   23.7898  -20.8634  -14.1155 C   0  0  0  0  0  0  0  0  0  0  0  0
   23.5204  -22.0180  -14.6186 O   0  0  0  0  0  0  0  0  0  0  0  0
   21.0624  -17.9999  -18.6564 C   0  0  0  0  0  0  0  0  0  0  0  0
   22.0832  -19.0630  -18.2798 C   0  0  0  0  0  0  0  0  0  0  0  0
   22.4551  -19.0011  -16.8407 C   0  0  2  0  0  0  0  0  0  0  0  0
   22.8981  -17.6461  -16.3629 C   0  0  0  0  0  0  0  0  0  0  0  0
   23.4694  -20.0363  -16.4721 C   0  0  2  0  0  0  0  0  0  0  0  0
   23.7607  -19.7897  -15.0396 N   0  0  0  0  0  0  0  0  0  0  0  0
   24.6855  -19.9138  -17.2823 C   0  0  0  0  0  0  0  0  0  0  0  0
   25.7572  -19.1890  -16.7953 O   0  0  0  0  0  0  0  0  0  0  0  0
   24.7905  -20.4431  -18.4046 O   0  0  0  0  0  0  0  0  0  0  0  0
  2  1  1  1
  3  2  1  0
  4  3  1  0
  5  4  1  0
  5  6  1  0
  7  6  1  0
  8  9  2  0
  8  2  1  0
 11 10  1  0
 11 12  1  0
 12 13  1  0
 14 13  1  6
 14 15  1  0
 15  8  1  0
 16 14  1  0
 17 16  2  0
 19 18  1  0
 19 20  1  0
 20 21  1  6
 20 22  1  0
 22 24  1  0
 22 23  1  1
 23 16  1  0
 24 25  1  0
 26 24  2  0
M  END
$$$$
