KMI.pdb
     RDKit          3D

 26 25  0  0  1  0  0  0  0  0999 V2000
   28.5522  -20.5963  -16.0413 N   0  0  0  0  0  0  0  0  0  0  0  0
   28.2306  -19.7332  -14.9485 C   0  0  1  0  0  0  0  0  0  0  0  0
   27.7666  -18.3701  -15.3772 C   0  0  0  0  0  0  0  0  0  0  0  0
   27.5740  -18.3796  -16.8715 C   0  0  0  0  0  0  0  0  0  0  0  0
   28.7442  -17.8315  -17.6241 C   0  0  0  0  0  0  0  0  0  0  0  0
   28.4380  -17.4639  -19.0410 C   0  0  0  0  0  0  0  0  0  0  0  0
   27.6072  -16.3021  -19.1714 N   0  0  0  0  0  0  0  0  0  0  0  0
   27.2017  -20.4182  -14.1051 C   0  0  0  0  0  0  0  0  0  0  0  0
   26.4744  -21.2738  -14.6790 O   0  0  0  0  0  0  0  0  0  0  0  0
   26.3573  -19.2219   -7.8443 C   0  0  0  0  0  0  0  0  0  0  0  0
   25.8071  -20.9449   -7.9106 S   0  0  0  0  0  0  0  0  0  0  0  0
   25.3220  -21.3858   -9.6426 C   0  0  0  0  0  0  0  0  0  0  0  0
   26.2768  -20.6767  -10.5200 C   0  0  0  0  0  0  0  0  0  0  0  0
   26.0336  -20.9002  -11.9856 C   0  0  2  0  0  0  0  0  0  0  0  0
   27.0317  -20.1417  -12.7378 N   0  0  0  0  0  0  0  0  0  0  0  0
   24.6679  -20.4605  -12.3593 C   0  0  0  0  0  0  0  0  0  0  0  0
   24.4069  -19.2063  -12.4923 O   0  0  0  0  0  0  0  0  0  0  0  0
   20.7871  -21.3509  -16.5780 C   0  0  0  0  0  0  0  0  0  0  0  0
   20.8912  -20.8641  -15.1405 C   0  0  0  0  0  0  0  0  0  0  0  0
   22.1443  -21.3208  -14.4814 C   0  0  2  0  0  0  0  0  0  0  0  0
   22.3528  -22.8097  -14.4890 C   0  0  0  0  0  0  0  0  0  0  0  0
   22.2807  -20.7867  -13.0912 C   0  0  2  0  0  0  0  0  0  0  0  0
   23.5724  -21.3257  -12.6024 N   0  0  0  0  0  0  0  0  0  0  0  0
   21.1736  -21.2223  -12.2339 C   0  0  0  0  0  0  0  0  0  0  0  0
   19.9724  -20.5395  -12.2747 O   0  0  0  0  0  0  0  0  0  0  0  0
   21.2758  -22.1940  -11.4619 O   0  0  0  0  0  0  0  0  0  0  0  0
  2  1  1  6
  3  2  1  0
  4  3  1  0
  5  4  1  0
  5  6  1  0
  7  6  1  0
  8  9  2  0
  8  2  1  0
 11 10  1  0
 11 12  1  0
 12 13  1  0
 14 13  1  1
 14 15  1  0
 15  8  1  0
 16 14  1  0
 17 16  2  0
 19 18  1  0
 19 20  1  0
 20 21  1  1
 20 22  1  0
 22 24  1  0
 22 23  1  1
 23 16  1  0
 24 25  1  0
 26 24  2  0
M  END
$$$$
