KMI.pdb
     RDKit          3D

 26 25  0  0  1  0  0  0  0  0999 V2000
   15.9225  -11.6039  -13.9666 N   0  0  0  0  0  0  0  0  0  0  0  0
   16.0040  -10.2138  -14.2885 C   0  0  1  0  0  0  0  0  0  0  0  0
   14.7082   -9.6355  -14.7821 C   0  0  0  0  0  0  0  0  0  0  0  0
   14.4418  -10.1724  -16.1645 C   0  0  0  0  0  0  0  0  0  0  0  0
   13.3637  -11.2080  -16.2013 C   0  0  0  0  0  0  0  0  0  0  0  0
   12.9925  -11.6509  -17.5806 C   0  0  0  0  0  0  0  0  0  0  0  0
   11.9230  -12.6060  -17.6141 N   0  0  0  0  0  0  0  0  0  0  0  0
   16.4985   -9.4866  -13.0778 C   0  0  0  0  0  0  0  0  0  0  0  0
   16.0211   -9.8432  -11.9662 O   0  0  0  0  0  0  0  0  0  0  0  0
   22.0865   -6.7465   -9.0617 C   0  0  0  0  0  0  0  0  0  0  0  0
   21.3633   -7.3774  -10.5962 S   0  0  0  0  0  0  0  0  0  0  0  0
   19.7749   -6.4953  -10.9542 C   0  0  0  0  0  0  0  0  0  0  0  0
   19.2086   -7.1565  -12.1485 C   0  0  0  0  0  0  0  0  0  0  0  0
   17.8774   -7.8094  -11.9054 C   0  0  2  0  0  0  0  0  0  0  0  0
   17.4480   -8.4529  -13.1459 N   0  0  0  0  0  0  0  0  0  0  0  0
   16.8755   -6.8042  -11.4766 C   0  0  0  0  0  0  0  0  0  0  0  0
   16.3797   -5.9803  -12.3334 O   0  0  0  0  0  0  0  0  0  0  0  0
   12.2241   -6.1099   -7.7215 C   0  0  0  0  0  0  0  0  0  0  0  0
   13.3177   -5.3748   -8.4817 C   0  0  0  0  0  0  0  0  0  0  0  0
   14.4182   -6.2831   -8.9025 C   0  0  2  0  0  0  0  0  0  0  0  0
   15.1643   -6.9340   -7.7712 C   0  0  0  0  0  0  0  0  0  0  0  0
   15.3761   -5.6174   -9.8383 C   0  0  2  0  0  0  0  0  0  0  0  0
   16.3821   -6.6589  -10.1563 N   0  0  0  0  0  0  0  0  0  0  0  0
   16.0102   -4.4482   -9.2211 C   0  0  0  0  0  0  0  0  0  0  0  0
   17.3367   -4.5165   -8.8382 O   0  0  0  0  0  0  0  0  0  0  0  0
   15.3923   -3.3847   -9.0261 O   0  0  0  0  0  0  0  0  0  0  0  0
  2  1  1  1
  3  2  1  0
  4  3  1  0
  5  4  1  0
  5  6  1  0
  7  6  1  0
  8  9  2  0
  8  2  1  0
 11 10  1  0
 11 12  1  0
 12 13  1  0
 14 13  1  6
 14 15  1  0
 15  8  1  0
 16 14  1  0
 17 16  2  0
 19 18  1  0
 19 20  1  0
 20 21  1  1
 20 22  1  0
 22 24  1  0
 22 23  1  1
 23 16  1  0
 24 25  1  0
 26 24  2  0
M  END
$$$$
