KMI.pdb
     RDKit          3D

 26 25  0  0  1  0  0  0  0  0999 V2000
   23.6555  -19.6157  -12.6494 N   0  0  0  0  0  0  0  0  0  0  0  0
   23.0494  -20.3938  -11.6151 C   0  0  1  0  0  0  0  0  0  0  0  0
   22.2779  -21.5765  -12.1283 C   0  0  0  0  0  0  0  0  0  0  0  0
   20.9153  -21.1045  -12.5647 C   0  0  0  0  0  0  0  0  0  0  0  0
   20.9599  -19.9002  -13.4502 C   0  0  0  0  0  0  0  0  0  0  0  0
   19.6159  -19.4351  -13.9125 C   0  0  0  0  0  0  0  0  0  0  0  0
   18.7855  -20.4847  -14.4282 N   0  0  0  0  0  0  0  0  0  0  0  0
   24.1242  -20.8162  -10.6636 C   0  0  0  0  0  0  0  0  0  0  0  0
   23.7922  -21.6229   -9.7528 O   0  0  0  0  0  0  0  0  0  0  0  0
   29.8846  -21.0319  -12.5921 C   0  0  0  0  0  0  0  0  0  0  0  0
   30.2252  -21.9432  -11.0658 S   0  0  0  0  0  0  0  0  0  0  0  0
   28.8223  -21.7277   -9.8763 C   0  0  0  0  0  0  0  0  0  0  0  0
   27.7103  -21.1580  -10.6657 C   0  0  0  0  0  0  0  0  0  0  0  0
   26.4577  -20.9272   -9.8688 C   0  0  2  0  0  0  0  0  0  0  0  0
   25.4477  -20.3530  -10.7563 N   0  0  0  0  0  0  0  0  0  0  0  0
   26.7240  -20.0097   -8.7350 C   0  0  0  0  0  0  0  0  0  0  0  0
   26.6010  -18.7372   -8.8913 O   0  0  0  0  0  0  0  0  0  0  0  0
   27.5738  -19.9925   -2.6195 C   0  0  0  0  0  0  0  0  0  0  0  0
   27.5562  -19.2307   -3.9361 C   0  0  0  0  0  0  0  0  0  0  0  0
   27.3256  -20.1264   -5.1013 C   0  0  2  0  0  0  0  0  0  0  0  0
   28.1564  -21.3794   -5.1059 C   0  0  0  0  0  0  0  0  0  0  0  0
   27.4663  -19.4079   -6.4053 C   0  0  2  0  0  0  0  0  0  0  0  0
   27.1123  -20.4151   -7.4340 N   0  0  0  0  0  0  0  0  0  0  0  0
   28.8322  -18.9133   -6.6051 C   0  0  0  0  0  0  0  0  0  0  0  0
   29.1944  -17.6858   -6.0826 O   0  0  0  0  0  0  0  0  0  0  0  0
   29.6873  -19.5637   -7.2348 O   0  0  0  0  0  0  0  0  0  0  0  0
  2  1  1  6
  3  2  1  0
  4  3  1  0
  5  4  1  0
  5  6  1  0
  7  6  1  0
  8  9  2  0
  8  2  1  0
 11 10  1  0
 11 12  1  0
 12 13  1  0
 14 13  1  6
 14 15  1  0
 15  8  1  0
 16 14  1  0
 17 16  2  0
 19 18  1  0
 19 20  1  0
 20 21  1  6
 20 22  1  0
 22 24  1  0
 22 23  1  6
 23 16  1  0
 24 25  1  0
 26 24  2  0
M  END
$$$$
