KHY.pdb
     RDKit          3D

 32 33  0  0  1  0  0  0  0  0999 V2000
    6.7489  -18.6522   19.3960 N   0  0  0  0  0  0  0  0  0  0  0  0
    6.1752  -17.6543   20.3950 C   0  0  1  0  0  0  0  0  0  0  0  0
    5.5180  -18.4694   21.4240 C   0  0  0  0  0  0  0  0  0  0  0  0
    4.8885  -19.7572   21.1225 C   0  0  0  0  0  0  0  0  0  0  0  0
    4.2145  -20.5732   22.1358 C   0  0  0  0  0  0  0  0  0  0  0  0
    3.6187  -21.8618   21.7710 C   0  0  0  0  0  0  0  0  0  0  0  0
    2.9474  -22.4932   22.9326 N   0  0  0  0  0  0  0  0  0  0  0  0
    7.3887  -16.9110   20.8182 C   0  0  0  0  0  0  0  0  0  0  0  0
    8.5475  -17.4809   20.8357 O   0  0  0  0  0  0  0  0  0  0  0  0
    7.4344  -15.5561   21.2318 N   0  0  0  0  0  0  0  0  0  0  0  0
    8.6807  -14.9125   21.6414 C   0  0  1  0  0  0  0  0  0  0  0  0
    8.5524  -13.4681   21.1323 C   0  0  0  0  0  0  0  0  0  0  0  0
    8.5354  -13.5373   19.6489 C   0  0  0  0  0  0  0  0  0  0  0  0
    7.6300  -12.9361   18.7909 C   0  0  0  0  0  0  0  0  0  0  0  0
    7.9399  -13.2279   17.4967 N   0  0  0  0  0  0  0  0  0  0  0  0
    9.0301  -14.0046   17.5533 C   0  0  0  0  0  0  0  0  0  0  0  0
    9.4020  -14.2017   18.8256 N   0  0  0  0  0  0  0  0  0  0  0  0
    8.8485  -14.8132   23.0980 C   0  0  0  0  0  0  0  0  0  0  0  0
    8.1644  -13.8902   23.6593 O   0  0  0  0  0  0  0  0  0  0  0  0
    5.1780  -11.3070   26.9662 O   0  0  0  0  0  0  0  0  0  0  0  0
    5.9016  -12.4599   26.6441 C   0  0  0  0  0  0  0  0  0  0  0  0
    5.5394  -13.2740   25.5894 C   0  0  0  0  0  0  0  0  0  0  0  0
    6.2987  -14.4158   25.3104 C   0  0  0  0  0  0  0  0  0  0  0  0
    7.3996  -14.7394   26.0701 C   0  0  0  0  0  0  0  0  0  0  0  0
    8.1732  -15.9509   25.7710 C   0  0  0  0  0  0  0  0  0  0  0  0
    9.5628  -15.5808   25.3310 C   0  0  2  0  0  0  0  0  0  0  0  0
    9.6851  -15.6431   23.8777 N   0  0  0  0  0  0  0  0  0  0  0  0
   10.6256  -16.4370   25.8872 C   0  0  0  0  0  0  0  0  0  0  0  0
   11.1653  -17.3534   25.2141 O   0  0  0  0  0  0  0  0  0  0  0  0
    7.7492  -13.9219   27.1164 C   0  0  0  0  0  0  0  0  0  0  0  0
    7.0051  -12.7736   27.4153 C   0  0  0  0  0  0  0  0  0  0  0  0
   11.0951  -16.2820   27.1910 O   0  0  0  0  0  0  0  0  0  0  0  0
  2  1  1  6
  3  2  1  0
  3  4  1  0
  5  4  1  0
  6  5  1  0
  7  6  1  0
  8  2  1  0
  8  9  2  0
 10  8  1  0
 11 18  1  0
 11 10  1  0
 12 13  1  0
 11 12  1  6
 13 17  1  0
 14 15  1  0
 14 13  2  0
 15 16  1  0
 16 17  2  0
 18 27  1  0
 19 18  2  0
 20 21  1  0
 21 31  2  0
 21 22  1  0
 22 23  2  0
 23 24  1  0
 24 25  1  0
 26 25  1  6
 26 28  1  0
 27 26  1  0
 28 29  2  0
 28 32  1  0
 30 24  2  0
 31 30  1  0
M  END
$$$$
