KHY.pdb
     RDKit          3D

 32 33  0  0  1  0  0  0  0  0999 V2000
    8.5393  -16.4945   18.2333 N   0  0  0  0  0  0  0  0  0  0  0  0
    9.2785  -15.5013   19.1223 C   0  0  1  0  0  0  0  0  0  0  0  0
    8.2793  -14.4900   19.4888 C   0  0  0  0  0  0  0  0  0  0  0  0
    7.8287  -13.4563   18.5540 C   0  0  0  0  0  0  0  0  0  0  0  0
    7.4062  -13.7498   17.1821 C   0  0  0  0  0  0  0  0  0  0  0  0
    7.0624  -12.6593   16.2649 C   0  0  0  0  0  0  0  0  0  0  0  0
    6.8720  -13.1583   14.8817 N   0  0  0  0  0  0  0  0  0  0  0  0
    9.7658  -16.3746   20.2196 C   0  0  0  0  0  0  0  0  0  0  0  0
    8.9477  -17.0961   20.9109 O   0  0  0  0  0  0  0  0  0  0  0  0
   11.1146  -16.5258   20.6280 N   0  0  0  0  0  0  0  0  0  0  0  0
   11.5105  -17.4890   21.6532 C   0  0  1  0  0  0  0  0  0  0  0  0
   12.9610  -17.8528   21.2986 C   0  0  0  0  0  0  0  0  0  0  0  0
   12.8964  -18.9971   20.3543 C   0  0  0  0  0  0  0  0  0  0  0  0
   11.7709  -19.7080   19.9728 C   0  0  0  0  0  0  0  0  0  0  0  0
   12.1082  -20.6881   19.0886 N   0  0  0  0  0  0  0  0  0  0  0  0
   13.4338  -20.5844   18.9238 C   0  0  0  0  0  0  0  0  0  0  0  0
   13.9238  -19.5837   19.6683 N   0  0  0  0  0  0  0  0  0  0  0  0
   11.5557  -16.9283   23.0108 C   0  0  0  0  0  0  0  0  0  0  0  0
   12.0916  -15.7707   23.1001 O   0  0  0  0  0  0  0  0  0  0  0  0
   10.8563  -14.4946   31.2803 O   0  0  0  0  0  0  0  0  0  0  0  0
   10.6421  -14.9806   29.9863 C   0  0  0  0  0  0  0  0  0  0  0  0
   10.4712  -16.3275   29.7353 C   0  0  0  0  0  0  0  0  0  0  0  0
   10.2598  -16.7602   28.4214 C   0  0  0  0  0  0  0  0  0  0  0  0
   10.2196  -15.8650   27.3770 C   0  0  0  0  0  0  0  0  0  0  0  0
   10.0130  -16.3413   26.0036 C   0  0  0  0  0  0  0  0  0  0  0  0
   11.2880  -16.9279   25.4632 C   0  0  2  0  0  0  0  0  0  0  0  0
   11.0625  -17.5674   24.1704 N   0  0  0  0  0  0  0  0  0  0  0  0
   11.9120  -17.9372   26.3372 C   0  0  0  0  0  0  0  0  0  0  0  0
   11.5677  -19.1475   26.3109 O   0  0  0  0  0  0  0  0  0  0  0  0
   10.3913  -14.5283   27.6397 C   0  0  0  0  0  0  0  0  0  0  0  0
   10.6042  -14.0709   28.9462 C   0  0  0  0  0  0  0  0  0  0  0  0
   12.9198  -17.6105   27.2438 O   0  0  0  0  0  0  0  0  0  0  0  0
  2  1  1  6
  3  2  1  0
  3  4  1  0
  5  4  1  0
  6  5  1  0
  7  6  1  0
  8  2  1  0
  8  9  2  0
 10  8  1  0
 11 18  1  0
 11 10  1  0
 12 13  1  0
 11 12  1  6
 13 17  1  0
 14 15  1  0
 14 13  2  0
 15 16  1  0
 16 17  2  0
 18 27  1  0
 19 18  2  0
 20 21  1  0
 21 31  2  0
 21 22  1  0
 22 23  2  0
 23 24  1  0
 24 25  1  0
 26 25  1  1
 26 28  1  0
 27 26  1  0
 28 29  2  0
 28 32  1  0
 30 24  2  0
 31 30  1  0
M  END
$$$$
