KHY.pdb
     RDKit          3D

 32 33  0  0  1  0  0  0  0  0999 V2000
    5.2916  -16.9629   20.5000 N   0  0  0  0  0  0  0  0  0  0  0  0
    6.5324  -16.2818   21.0652 C   0  0  1  0  0  0  0  0  0  0  0  0
    6.2609  -14.8419   20.9731 C   0  0  0  0  0  0  0  0  0  0  0  0
    7.3219  -13.8356   21.0577 C   0  0  0  0  0  0  0  0  0  0  0  0
    8.1054  -13.4021   19.8978 C   0  0  0  0  0  0  0  0  0  0  0  0
    9.0920  -12.3263   20.0324 C   0  0  0  0  0  0  0  0  0  0  0  0
    9.7490  -12.0326   18.7360 N   0  0  0  0  0  0  0  0  0  0  0  0
    6.6004  -16.8536   22.4336 C   0  0  0  0  0  0  0  0  0  0  0  0
    5.6173  -16.7225   23.2607 O   0  0  0  0  0  0  0  0  0  0  0  0
    7.6880  -17.5793   22.9807 N   0  0  0  0  0  0  0  0  0  0  0  0
    7.6958  -18.0346   24.3693 C   0  0  1  0  0  0  0  0  0  0  0  0
    8.2533  -19.4651   24.3013 C   0  0  0  0  0  0  0  0  0  0  0  0
    8.0043  -20.0847   25.6278 C   0  0  0  0  0  0  0  0  0  0  0  0
    7.0050  -19.7621   26.5305 C   0  0  0  0  0  0  0  0  0  0  0  0
    7.0967  -20.5498   27.6384 N   0  0  0  0  0  0  0  0  0  0  0  0
    8.1458  -21.3547   27.4226 C   0  0  0  0  0  0  0  0  0  0  0  0
    8.7012  -21.0950   26.2311 N   0  0  0  0  0  0  0  0  0  0  0  0
    8.6149  -17.2843   25.2364 C   0  0  0  0  0  0  0  0  0  0  0  0
    9.7374  -16.9836   24.7027 O   0  0  0  0  0  0  0  0  0  0  0  0
    5.6539  -11.2785   25.0732 O   0  0  0  0  0  0  0  0  0  0  0  0
    6.3909  -12.1869   25.8402 C   0  0  0  0  0  0  0  0  0  0  0  0
    7.6228  -11.8586   26.3701 C   0  0  0  0  0  0  0  0  0  0  0  0
    8.3181  -12.8055   27.1306 C   0  0  0  0  0  0  0  0  0  0  0  0
    7.7934  -14.0572   27.3581 C   0  0  0  0  0  0  0  0  0  0  0  0
    8.5466  -15.0418   28.1449 C   0  0  0  0  0  0  0  0  0  0  0  0
    9.2733  -15.9878   27.2292 C   0  0  2  0  0  0  0  0  0  0  0  0
    8.3403  -16.8939   26.5663 N   0  0  0  0  0  0  0  0  0  0  0  0
   10.2832  -16.8272   27.8982 C   0  0  0  0  0  0  0  0  0  0  0  0
   10.1478  -18.0736   28.0093 O   0  0  0  0  0  0  0  0  0  0  0  0
    6.5677  -14.3715   26.8253 C   0  0  0  0  0  0  0  0  0  0  0  0
    5.8526  -13.4409   26.0609 C   0  0  0  0  0  0  0  0  0  0  0  0
   11.4470  -16.2899   28.4470 O   0  0  0  0  0  0  0  0  0  0  0  0
  2  1  1  6
  3  2  1  0
  3  4  1  0
  5  4  1  0
  6  5  1  0
  7  6  1  0
  8  2  1  0
  8  9  2  0
 10  8  1  0
 11 18  1  0
 11 10  1  0
 12 13  1  0
 11 12  1  6
 13 17  1  0
 14 15  1  0
 14 13  2  0
 15 16  1  0
 16 17  2  0
 18 27  1  0
 19 18  2  0
 20 21  1  0
 21 31  2  0
 21 22  1  0
 22 23  2  0
 23 24  1  0
 24 25  1  0
 26 25  1  1
 26 28  1  0
 27 26  1  0
 28 29  2  0
 28 32  1  0
 30 24  2  0
 31 30  1  0
M  END
$$$$
