KHY.pdb
     RDKit          3D

 32 33  0  0  1  0  0  0  0  0999 V2000
   10.0861  -17.5231   20.3130 N   0  0  0  0  0  0  0  0  0  0  0  0
   11.1044  -16.9364   21.2835 C   0  0  1  0  0  0  0  0  0  0  0  0
   11.2295  -15.5228   20.9073 C   0  0  0  0  0  0  0  0  0  0  0  0
   12.3536  -15.0171   20.1160 C   0  0  0  0  0  0  0  0  0  0  0  0
   12.5368  -13.5967   19.8062 C   0  0  0  0  0  0  0  0  0  0  0  0
   13.7161  -13.1490   19.0595 C   0  0  0  0  0  0  0  0  0  0  0  0
   13.9606  -14.0057   17.8742 N   0  0  0  0  0  0  0  0  0  0  0  0
   10.4727  -17.2154   22.5978 C   0  0  0  0  0  0  0  0  0  0  0  0
    9.1930  -17.1359   22.7528 O   0  0  0  0  0  0  0  0  0  0  0  0
   11.1499  -17.5873   23.7859 N   0  0  0  0  0  0  0  0  0  0  0  0
   10.4349  -17.8792   25.0266 C   0  0  1  0  0  0  0  0  0  0  0  0
   11.0713  -19.1807   25.5396 C   0  0  0  0  0  0  0  0  0  0  0  0
   10.3216  -20.2992   24.9133 C   0  0  0  0  0  0  0  0  0  0  0  0
    9.2378  -20.2073   24.0562 C   0  0  0  0  0  0  0  0  0  0  0  0
    8.8196  -21.4506   23.6882 N   0  0  0  0  0  0  0  0  0  0  0  0
    9.6392  -22.3064   24.3134 C   0  0  0  0  0  0  0  0  0  0  0  0
   10.5416  -21.6422   25.0485 N   0  0  0  0  0  0  0  0  0  0  0  0
   10.6477  -16.8818   26.0847 C   0  0  0  0  0  0  0  0  0  0  0  0
   11.8042  -16.3363   26.0889 O   0  0  0  0  0  0  0  0  0  0  0  0
    6.7963  -11.9430   24.0886 O   0  0  0  0  0  0  0  0  0  0  0  0
    7.3431  -12.6080   25.1910 C   0  0  0  0  0  0  0  0  0  0  0  0
    8.5140  -12.1846   25.7874 C   0  0  0  0  0  0  0  0  0  0  0  0
    9.0174  -12.8865   26.8884 C   0  0  0  0  0  0  0  0  0  0  0  0
    8.3639  -13.9911   27.3852 C   0  0  0  0  0  0  0  0  0  0  0  0
    8.9176  -14.7234   28.5310 C   0  0  0  0  0  0  0  0  0  0  0  0
   10.0860  -15.5623   28.0920 C   0  0  2  0  0  0  0  0  0  0  0  0
    9.6894  -16.5086   27.0537 N   0  0  0  0  0  0  0  0  0  0  0  0
   10.7109  -16.3478   29.1711 C   0  0  0  0  0  0  0  0  0  0  0  0
   11.2383  -15.8015   30.1750 O   0  0  0  0  0  0  0  0  0  0  0  0
    7.2006  -14.4024   26.7830 C   0  0  0  0  0  0  0  0  0  0  0  0
    6.6769  -13.7163   25.6800 C   0  0  0  0  0  0  0  0  0  0  0  0
   10.7545  -17.7412   29.1430 O   0  0  0  0  0  0  0  0  0  0  0  0
  2  1  1  6
  3  2  1  0
  3  4  1  0
  5  4  1  0
  6  5  1  0
  7  6  1  0
  8  2  1  0
  8  9  2  0
 10  8  1  0
 11 18  1  0
 11 10  1  0
 12 13  1  0
 11 12  1  1
 13 17  1  0
 14 15  1  0
 14 13  2  0
 15 16  1  0
 16 17  2  0
 18 27  1  0
 19 18  2  0
 20 21  1  0
 21 31  2  0
 21 22  1  0
 22 23  2  0
 23 24  1  0
 24 25  1  0
 26 25  1  1
 26 28  1  0
 27 26  1  0
 28 29  2  0
 28 32  1  0
 30 24  2  0
 31 30  1  0
M  END
$$$$
