KHY.pdb
     RDKit          3D

 32 33  0  0  1  0  0  0  0  0999 V2000
    7.4454  -19.3639   19.9410 N   0  0  0  0  0  0  0  0  0  0  0  0
    6.7570  -18.5605   21.0382 C   0  0  1  0  0  0  0  0  0  0  0  0
    6.5021  -19.5198   22.1199 C   0  0  0  0  0  0  0  0  0  0  0  0
    6.7852  -20.9505   21.9838 C   0  0  0  0  0  0  0  0  0  0  0  0
    5.7621  -21.9862   22.1502 C   0  0  0  0  0  0  0  0  0  0  0  0
    6.0899  -23.3946   21.9104 C   0  0  0  0  0  0  0  0  0  0  0  0
    4.9028  -24.2634   22.0965 N   0  0  0  0  0  0  0  0  0  0  0  0
    7.7592  -17.5017   21.3186 C   0  0  0  0  0  0  0  0  0  0  0  0
    9.0083  -17.7903   21.4745 O   0  0  0  0  0  0  0  0  0  0  0  0
    7.4942  -16.1149   21.4419 N   0  0  0  0  0  0  0  0  0  0  0  0
    8.5424  -15.1521   21.7736 C   0  0  1  0  0  0  0  0  0  0  0  0
    8.0214  -13.8136   21.2267 C   0  0  0  0  0  0  0  0  0  0  0  0
    8.0401  -13.9204   19.7456 C   0  0  0  0  0  0  0  0  0  0  0  0
    8.4597  -15.0004   18.9871 C   0  0  0  0  0  0  0  0  0  0  0  0
    8.3271  -14.7254   17.6594 N   0  0  0  0  0  0  0  0  0  0  0  0
    7.8287  -13.4834   17.5964 C   0  0  0  0  0  0  0  0  0  0  0  0
    7.6499  -12.9850   18.8274 N   0  0  0  0  0  0  0  0  0  0  0  0
    8.7312  -14.9518   23.2172 C   0  0  0  0  0  0  0  0  0  0  0  0
    7.9277  -14.1162   23.7567 O   0  0  0  0  0  0  0  0  0  0  0  0
    5.9134  -10.5517   26.9161 O   0  0  0  0  0  0  0  0  0  0  0  0
    6.5099  -11.7951   26.6826 C   0  0  0  0  0  0  0  0  0  0  0  0
    7.8778  -11.9689   26.7514 C   0  0  0  0  0  0  0  0  0  0  0  0
    8.4228  -13.2349   26.5091 C   0  0  0  0  0  0  0  0  0  0  0  0
    7.6170  -14.3080   26.2037 C   0  0  0  0  0  0  0  0  0  0  0  0
    8.2100  -15.6243   25.9367 C   0  0  0  0  0  0  0  0  0  0  0  0
    9.6266  -15.4650   25.4578 C   0  0  2  0  0  0  0  0  0  0  0  0
    9.7065  -15.6015   24.0066 N   0  0  0  0  0  0  0  0  0  0  0  0
   10.5759  -16.4352   26.0320 C   0  0  0  0  0  0  0  0  0  0  0  0
   10.7974  -16.5003   27.2692 O   0  0  0  0  0  0  0  0  0  0  0  0
    6.2582  -14.1220   26.1380 C   0  0  0  0  0  0  0  0  0  0  0  0
    5.6893  -12.8647   26.3766 C   0  0  0  0  0  0  0  0  0  0  0  0
   11.2838  -17.3372   25.2384 O   0  0  0  0  0  0  0  0  0  0  0  0
  2  1  1  6
  3  2  1  0
  3  4  1  0
  5  4  1  0
  6  5  1  0
  7  6  1  0
  8  2  1  0
  8  9  2  0
 10  8  1  0
 11 18  1  0
 11 10  1  0
 12 13  1  0
 11 12  1  6
 13 17  1  0
 14 15  1  0
 14 13  2  0
 15 16  1  0
 16 17  2  0
 18 27  1  0
 19 18  2  0
 20 21  1  0
 21 31  2  0
 21 22  1  0
 22 23  2  0
 23 24  1  0
 24 25  1  0
 26 25  1  1
 26 28  1  0
 27 26  1  0
 28 29  2  0
 28 32  1  0
 30 24  2  0
 31 30  1  0
M  END
$$$$
