KHY.pdb
     RDKit          3D

 32 33  0  0  1  0  0  0  0  0999 V2000
    9.6108  -17.2688   17.9321 N   0  0  0  0  0  0  0  0  0  0  0  0
   10.0216  -18.1278   19.1223 C   0  0  1  0  0  0  0  0  0  0  0  0
   11.3893  -18.5721   18.8267 C   0  0  0  0  0  0  0  0  0  0  0  0
   11.6739  -19.8341   18.1396 C   0  0  0  0  0  0  0  0  0  0  0  0
   10.8457  -21.0327   18.2960 C   0  0  0  0  0  0  0  0  0  0  0  0
   11.1786  -22.2614   17.5692 C   0  0  0  0  0  0  0  0  0  0  0  0
   12.1241  -23.1041   18.3402 N   0  0  0  0  0  0  0  0  0  0  0  0
    9.8666  -17.1792   20.2539 C   0  0  0  0  0  0  0  0  0  0  0  0
   10.7289  -16.2400   20.4595 O   0  0  0  0  0  0  0  0  0  0  0  0
    8.8123  -17.1767   21.2010 N   0  0  0  0  0  0  0  0  0  0  0  0
    8.7687  -16.2256   22.3096 C   0  0  1  0  0  0  0  0  0  0  0  0
    7.3912  -16.4493   22.9536 C   0  0  0  0  0  0  0  0  0  0  0  0
    7.1736  -15.3253   23.8994 C   0  0  0  0  0  0  0  0  0  0  0  0
    7.7431  -14.0640   23.8494 C   0  0  0  0  0  0  0  0  0  0  0  0
    7.3008  -13.3042   24.8901 N   0  0  0  0  0  0  0  0  0  0  0  0
    6.4631  -14.0900   25.5798 C   0  0  0  0  0  0  0  0  0  0  0  0
    6.3724  -15.2983   25.0074 N   0  0  0  0  0  0  0  0  0  0  0  0
    9.7556  -16.4956   23.3645 C   0  0  0  0  0  0  0  0  0  0  0  0
    9.7313  -17.6839   23.8363 O   0  0  0  0  0  0  0  0  0  0  0  0
   11.0173  -15.0582   31.6085 O   0  0  0  0  0  0  0  0  0  0  0  0
   10.7718  -14.9481   30.2359 C   0  0  0  0  0  0  0  0  0  0  0  0
   10.7874  -13.7276   29.5907 C   0  0  0  0  0  0  0  0  0  0  0  0
   10.5353  -13.6741   28.2152 C   0  0  0  0  0  0  0  0  0  0  0  0
   10.2725  -14.8180   27.4967 C   0  0  0  0  0  0  0  0  0  0  0  0
    9.9942  -14.7384   26.0573 C   0  0  0  0  0  0  0  0  0  0  0  0
   10.9858  -15.5715   25.2928 C   0  0  2  0  0  0  0  0  0  0  0  0
   10.6878  -15.5585   23.8638 N   0  0  0  0  0  0  0  0  0  0  0  0
   11.0400  -16.9851   25.7061 C   0  0  0  0  0  0  0  0  0  0  0  0
   10.1015  -17.7879   25.4635 O   0  0  0  0  0  0  0  0  0  0  0  0
   10.2595  -16.0256   28.1500 C   0  0  0  0  0  0  0  0  0  0  0  0
   10.5089  -16.1048   29.5259 C   0  0  0  0  0  0  0  0  0  0  0  0
   12.1335  -17.5154   26.3896 O   0  0  0  0  0  0  0  0  0  0  0  0
  2  1  1  6
  3  2  1  0
  3  4  1  0
  5  4  1  0
  6  5  1  0
  7  6  1  0
  8  2  1  0
  8  9  2  0
 10  8  1  0
 11 18  1  0
 11 10  1  0
 12 13  1  0
 11 12  1  1
 13 17  1  0
 14 15  1  0
 14 13  2  0
 15 16  1  0
 16 17  2  0
 18 27  1  0
 19 18  2  0
 20 21  1  0
 21 31  2  0
 21 22  1  0
 22 23  2  0
 23 24  1  0
 24 25  1  0
 26 25  1  1
 26 28  1  0
 27 26  1  0
 28 29  2  0
 28 32  1  0
 30 24  2  0
 31 30  1  0
M  END
$$$$
