KHY.pdb
     RDKit          3D

 32 33  0  0  1  0  0  0  0  0999 V2000
    5.3035  -19.1865   20.4855 N   0  0  0  0  0  0  0  0  0  0  0  0
    4.8811  -17.8803   21.1477 C   0  0  1  0  0  0  0  0  0  0  0  0
    4.2341  -18.2740   22.4053 C   0  0  0  0  0  0  0  0  0  0  0  0
    3.1164  -19.2196   22.4511 C   0  0  0  0  0  0  0  0  0  0  0  0
    1.7762  -18.8963   21.9548 C   0  0  0  0  0  0  0  0  0  0  0  0
    0.6906  -19.8750   22.0656 C   0  0  0  0  0  0  0  0  0  0  0  0
    0.1459  -19.9217   23.4439 N   0  0  0  0  0  0  0  0  0  0  0  0
    6.1761  -17.1643   21.2685 C   0  0  0  0  0  0  0  0  0  0  0  0
    7.2802  -17.8092   21.4495 O   0  0  0  0  0  0  0  0  0  0  0  0
    6.3619  -15.7608   21.2019 N   0  0  0  0  0  0  0  0  0  0  0  0
    7.6909  -15.1534   21.2175 C   0  0  1  0  0  0  0  0  0  0  0  0
    7.4733  -13.7389   20.6573 C   0  0  0  0  0  0  0  0  0  0  0  0
    7.6872  -13.8223   19.1901 C   0  0  0  0  0  0  0  0  0  0  0  0
    8.0472  -14.9403   18.4566 C   0  0  0  0  0  0  0  0  0  0  0  0
    8.1473  -14.6262   17.1347 N   0  0  0  0  0  0  0  0  0  0  0  0
    7.8511  -13.3222   17.0506 C   0  0  0  0  0  0  0  0  0  0  0  0
    7.5738  -12.8233   18.2630 N   0  0  0  0  0  0  0  0  0  0  0  0
    8.2465  -14.9721   22.5659 C   0  0  0  0  0  0  0  0  0  0  0  0
    7.5660  -14.2080   23.3328 O   0  0  0  0  0  0  0  0  0  0  0  0
   10.4909  -15.2772   30.7317 O   0  0  0  0  0  0  0  0  0  0  0  0
   10.0576  -15.3598   29.4044 C   0  0  0  0  0  0  0  0  0  0  0  0
    9.6904  -14.2376   28.6888 C   0  0  0  0  0  0  0  0  0  0  0  0
    9.2644  -14.3768   27.3632 C   0  0  0  0  0  0  0  0  0  0  0  0
    9.2059  -15.6135   26.7625 C   0  0  0  0  0  0  0  0  0  0  0  0
    8.7403  -15.7397   25.3758 C   0  0  0  0  0  0  0  0  0  0  0  0
    9.8290  -15.3232   24.4255 C   0  0  2  0  0  0  0  0  0  0  0  0
    9.4364  -15.5679   23.0410 N   0  0  0  0  0  0  0  0  0  0  0  0
   11.1152  -16.0118   24.6340 C   0  0  0  0  0  0  0  0  0  0  0  0
   11.3707  -17.1240   24.1031 O   0  0  0  0  0  0  0  0  0  0  0  0
    9.5733  -16.7219   27.4848 C   0  0  0  0  0  0  0  0  0  0  0  0
   10.0032  -16.6081   28.8129 C   0  0  0  0  0  0  0  0  0  0  0  0
   12.1237  -15.4717   25.4312 O   0  0  0  0  0  0  0  0  0  0  0  0
  2  1  1  6
  3  2  1  0
  3  4  1  0
  5  4  1  0
  6  5  1  0
  7  6  1  0
  8  2  1  0
  8  9  2  0
 10  8  1  0
 11 18  1  0
 11 10  1  0
 12 13  1  0
 11 12  1  1
 13 17  1  0
 14 15  1  0
 14 13  2  0
 15 16  1  0
 16 17  2  0
 18 27  1  0
 19 18  2  0
 20 21  1  0
 21 31  2  0
 21 22  1  0
 22 23  2  0
 23 24  1  0
 24 25  1  0
 26 25  1  1
 26 28  1  0
 27 26  1  0
 28 29  2  0
 28 32  1  0
 30 24  2  0
 31 30  1  0
M  END
$$$$
