ITQ.pdb
     RDKit          3D

 25 24  0  0  1  0  0  0  0  0999 V2000
    7.3466  -10.9441   25.9446 C   0  0  0  0  0  0  0  0  0  0  0  0
    7.5466  -12.4233   26.1186 C   0  0  0  0  0  0  0  0  0  0  0  0
    6.2884  -13.2146   25.9973 C   0  0  2  0  0  0  0  0  0  0  0  0
    5.2809  -12.7119   26.9845 C   0  0  0  0  0  0  0  0  0  0  0  0
    6.5686  -14.6909   26.1263 C   0  0  2  0  0  0  0  0  0  0  0  0
    7.6632  -14.8377   27.0683 N   0  0  0  0  0  0  0  0  0  0  0  0
    6.8282  -15.3489   24.8461 C   0  0  0  0  0  0  0  0  0  0  0  0
    5.9914  -16.1110   24.3233 O   0  0  0  0  0  0  0  0  0  0  0  0
    7.1723  -14.5454   21.5090 C   0  0  0  0  0  0  0  0  0  0  0  0
    8.5412  -15.0881   21.8605 C   0  0  1  0  0  0  0  0  0  0  0  0
    9.3192  -13.9542   22.1564 O   0  0  0  0  0  0  0  0  0  0  0  0
    8.5023  -16.0155   23.0797 C   0  0  2  0  0  0  0  0  0  0  0  0
    8.0482  -15.1297   24.1700 N   0  0  0  0  0  0  0  0  0  0  0  0
    9.8901  -16.3974   23.4020 C   0  0  0  0  0  0  0  0  0  0  0  0
   10.5349  -15.6748   24.2175 O   0  0  0  0  0  0  0  0  0  0  0  0
   11.2088  -20.8106   27.1046 N   0  0  0  0  0  0  0  0  0  0  0  0
   11.8373  -19.8589   26.2747 C   0  0  0  0  0  0  0  0  0  0  0  0
   12.9828  -19.4560   26.5291 O   0  0  0  0  0  0  0  0  0  0  0  0
   11.1175  -19.3406   25.0912 C   0  0  0  0  0  0  0  0  0  0  0  0
   12.0523  -19.1197   23.9348 C   0  0  0  0  0  0  0  0  0  0  0  0
   11.9418  -17.7744   23.3102 C   0  0  2  0  0  0  0  0  0  0  0  0
   10.5605  -17.5096   22.8742 N   0  0  0  0  0  0  0  0  0  0  0  0
   12.8336  -17.5657   22.1521 C   0  0  0  0  0  0  0  0  0  0  0  0
   12.3583  -17.4767   20.9806 O   0  0  0  0  0  0  0  0  0  0  0  0
   14.2169  -17.4489   22.2216 O   0  0  0  0  0  0  0  0  0  0  0  0
  2  1  1  0
  3  5  1  0
  3  2  1  0
  3  4  1  1
  5  7  1  0
  5  6  1  1
  7  8  2  0
 10 12  1  0
 10  9  1  1
 11 10  1  0
 12 14  1  0
 13  7  1  0
 12 13  1  1
 14 22  1  0
 15 14  2  0
 17 19  1  0
 17 16  1  0
 18 17  2  0
 19 20  1  0
 21 20  1  6
 21 23  1  0
 22 21  1  0
 23 25  1  0
 24 23  2  0
M  END
$$$$
