ITQ.pdb
     RDKit          3D

 25 24  0  0  1  0  0  0  0  0999 V2000
    7.7147  -12.0503   19.3858 C   0  0  0  0  0  0  0  0  0  0  0  0
    7.9660  -13.5196   19.5767 C   0  0  0  0  0  0  0  0  0  0  0  0
    7.7269  -13.9902   20.9714 C   0  0  2  0  0  0  0  0  0  0  0  0
    8.5796  -13.2058   21.9201 C   0  0  0  0  0  0  0  0  0  0  0  0
    7.9294  -15.4811   21.0766 C   0  0  2  0  0  0  0  0  0  0  0  0
    6.9958  -16.1054   20.1568 N   0  0  0  0  0  0  0  0  0  0  0  0
    7.8086  -15.9907   22.4421 C   0  0  0  0  0  0  0  0  0  0  0  0
    6.6957  -16.1949   22.9658 O   0  0  0  0  0  0  0  0  0  0  0  0
   10.0220  -18.6923   25.8552 C   0  0  0  0  0  0  0  0  0  0  0  0
    9.9333  -17.9593   24.5335 C   0  0  1  0  0  0  0  0  0  0  0  0
    9.5530  -18.9379   23.5974 O   0  0  0  0  0  0  0  0  0  0  0  0
    8.8865  -16.8406   24.5595 C   0  0  2  0  0  0  0  0  0  0  0  0
    8.9664  -16.2646   23.2026 N   0  0  0  0  0  0  0  0  0  0  0  0
    9.3634  -15.7963   25.4857 C   0  0  0  0  0  0  0  0  0  0  0  0
   10.4033  -15.1468   25.1699 O   0  0  0  0  0  0  0  0  0  0  0  0
    6.2372  -13.1707   25.2971 N   0  0  0  0  0  0  0  0  0  0  0  0
    7.0698  -12.8258   26.3821 C   0  0  0  0  0  0  0  0  0  0  0  0
    7.8860  -11.8968   26.2827 O   0  0  0  0  0  0  0  0  0  0  0  0
    6.9630  -13.5835   27.6477 C   0  0  0  0  0  0  0  0  0  0  0  0
    8.2977  -13.7026   28.3291 C   0  0  0  0  0  0  0  0  0  0  0  0
    9.3397  -14.3825   27.5141 C   0  0  2  0  0  0  0  0  0  0  0  0
    8.7505  -15.4591   26.7004 N   0  0  0  0  0  0  0  0  0  0  0  0
   10.4477  -14.9596   28.3009 C   0  0  0  0  0  0  0  0  0  0  0  0
   11.2705  -14.2070   28.9035 O   0  0  0  0  0  0  0  0  0  0  0  0
   10.6914  -16.3192   28.4571 O   0  0  0  0  0  0  0  0  0  0  0  0
  2  1  1  0
  3  5  1  0
  3  2  1  0
  3  4  1  1
  5  7  1  0
  5  6  1  6
  7  8  2  0
 10 12  1  0
 10  9  1  1
 11 10  1  0
 12 14  1  0
 13  7  1  0
 12 13  1  6
 14 22  1  0
 15 14  2  0
 17 19  1  0
 17 16  1  0
 18 17  2  0
 19 20  1  0
 21 20  1  1
 21 23  1  0
 22 21  1  0
 23 25  1  0
 24 23  2  0
M  END
$$$$
