ITQ.pdb
     RDKit          3D

 25 24  0  0  1  0  0  0  0  0999 V2000
    5.8138  -11.5385   26.8730 C   0  0  0  0  0  0  0  0  0  0  0  0
    5.5130  -12.8093   26.1293 C   0  0  0  0  0  0  0  0  0  0  0  0
    6.7312  -13.5228   25.6489 C   0  0  2  0  0  0  0  0  0  0  0  0
    7.5559  -12.5991   24.8068 C   0  0  0  0  0  0  0  0  0  0  0  0
    6.3598  -14.8040   24.9450 C   0  0  2  0  0  0  0  0  0  0  0  0
    5.4625  -15.5307   25.8248 N   0  0  0  0  0  0  0  0  0  0  0  0
    7.5163  -15.5978   24.5309 C   0  0  0  0  0  0  0  0  0  0  0  0
    8.1578  -16.2895   25.3460 O   0  0  0  0  0  0  0  0  0  0  0  0
    7.4883  -16.6288   20.6767 C   0  0  0  0  0  0  0  0  0  0  0  0
    8.8966  -16.3780   21.1727 C   0  0  1  0  0  0  0  0  0  0  0  0
    9.1957  -15.0626   20.7745 O   0  0  0  0  0  0  0  0  0  0  0  0
    9.0032  -16.4889   22.6972 C   0  0  2  0  0  0  0  0  0  0  0  0
    7.9328  -15.5950   23.1818 N   0  0  0  0  0  0  0  0  0  0  0  0
   10.2794  -15.8733   23.1073 C   0  0  0  0  0  0  0  0  0  0  0  0
   10.3155  -14.6169   23.2593 O   0  0  0  0  0  0  0  0  0  0  0  0
   10.1038  -16.7368   28.0827 N   0  0  0  0  0  0  0  0  0  0  0  0
   11.4451  -16.3270   28.2334 C   0  0  0  0  0  0  0  0  0  0  0  0
   11.9323  -16.1595   29.3620 O   0  0  0  0  0  0  0  0  0  0  0  0
   12.2726  -16.0966   27.0295 C   0  0  0  0  0  0  0  0  0  0  0  0
   11.4788  -16.3078   25.7705 C   0  0  0  0  0  0  0  0  0  0  0  0
   12.2799  -16.2099   24.5211 C   0  0  2  0  0  0  0  0  0  0  0  0
   11.4691  -16.5747   23.3473 N   0  0  0  0  0  0  0  0  0  0  0  0
   13.4976  -17.0447   24.5117 C   0  0  0  0  0  0  0  0  0  0  0  0
   14.4850  -16.7525   25.2507 O   0  0  0  0  0  0  0  0  0  0  0  0
   13.6792  -18.1816   23.7329 O   0  0  0  0  0  0  0  0  0  0  0  0
  2  1  1  0
  3  5  1  0
  3  2  1  0
  3  4  1  6
  5  7  1  0
  5  6  1  1
  7  8  2  0
 10 12  1  0
 10  9  1  1
 11 10  1  0
 12 14  1  0
 13  7  1  0
 12 13  1  1
 14 22  1  0
 15 14  2  0
 17 19  1  0
 17 16  1  0
 18 17  2  0
 19 20  1  0
 21 20  1  1
 21 23  1  0
 22 21  1  0
 23 25  1  0
 24 23  2  0
M  END
$$$$
