ITQ.pdb
     RDKit          3D

 25 24  0  0  1  0  0  0  0  0999 V2000
    7.4207  -11.9892   19.4926 C   0  0  0  0  0  0  0  0  0  0  0  0
    7.9357  -13.3965   19.3791 C   0  0  0  0  0  0  0  0  0  0  0  0
    7.9626  -14.1292   20.6778 C   0  0  2  0  0  0  0  0  0  0  0  0
    8.8104  -13.3813   21.6598 C   0  0  0  0  0  0  0  0  0  0  0  0
    8.3978  -15.5594   20.4778 C   0  0  2  0  0  0  0  0  0  0  0  0
    7.5287  -16.1335   19.4668 N   0  0  0  0  0  0  0  0  0  0  0  0
    8.4233  -16.3392   21.7149 C   0  0  0  0  0  0  0  0  0  0  0  0
    7.3797  -16.5894   22.3495 O   0  0  0  0  0  0  0  0  0  0  0  0
    9.4717  -19.7353   21.8609 C   0  0  0  0  0  0  0  0  0  0  0  0
   10.3671  -18.9944   22.8311 C   0  0  1  0  0  0  0  0  0  0  0  0
   11.5019  -18.6362   22.0810 O   0  0  0  0  0  0  0  0  0  0  0  0
    9.7007  -17.7316   23.3873 C   0  0  2  0  0  0  0  0  0  0  0  0
    9.6474  -16.8295   22.2198 N   0  0  0  0  0  0  0  0  0  0  0  0
   10.6328  -17.1148   24.3499 C   0  0  0  0  0  0  0  0  0  0  0  0
   11.5614  -16.3826   23.8976 O   0  0  0  0  0  0  0  0  0  0  0  0
    8.8028  -13.0342   27.5876 N   0  0  0  0  0  0  0  0  0  0  0  0
    9.2436  -14.2404   28.1711 C   0  0  0  0  0  0  0  0  0  0  0  0
    9.2714  -14.3734   29.4043 O   0  0  0  0  0  0  0  0  0  0  0  0
    9.6756  -15.3531   27.2978 C   0  0  0  0  0  0  0  0  0  0  0  0
   11.1539  -15.5993   27.4150 C   0  0  0  0  0  0  0  0  0  0  0  0
   11.6559  -16.7114   26.5645 C   0  0  2  0  0  0  0  0  0  0  0  0
   10.5721  -17.2736   25.7413 N   0  0  0  0  0  0  0  0  0  0  0  0
   12.2795  -17.8189   27.3158 C   0  0  0  0  0  0  0  0  0  0  0  0
   11.7750  -18.9813   27.2874 O   0  0  0  0  0  0  0  0  0  0  0  0
   13.4275  -17.7093   28.0918 O   0  0  0  0  0  0  0  0  0  0  0  0
  2  1  1  0
  3  5  1  0
  3  2  1  0
  3  4  1  1
  5  7  1  0
  5  6  1  6
  7  8  2  0
 10 12  1  0
 10  9  1  6
 11 10  1  0
 12 14  1  0
 13  7  1  0
 12 13  1  6
 14 22  1  0
 15 14  2  0
 17 19  1  0
 17 16  1  0
 18 17  2  0
 19 20  1  0
 21 20  1  1
 21 23  1  0
 22 21  1  0
 23 25  1  0
 24 23  2  0
M  END
$$$$
