ITQ.pdb
     RDKit          3D

 25 24  0  0  1  0  0  0  0  0999 V2000
    6.0516  -11.6079   27.2752 C   0  0  0  0  0  0  0  0  0  0  0  0
    5.6700  -12.8501   26.5203 C   0  0  0  0  0  0  0  0  0  0  0  0
    6.8252  -13.5308   25.8673 C   0  0  2  0  0  0  0  0  0  0  0  0
    7.5560  -12.5566   24.9960 C   0  0  0  0  0  0  0  0  0  0  0  0
    6.3736  -14.7688   25.1339 C   0  0  2  0  0  0  0  0  0  0  0  0
    5.5916  -15.5581   26.0682 N   0  0  0  0  0  0  0  0  0  0  0  0
    7.4727  -15.5238   24.5331 C   0  0  0  0  0  0  0  0  0  0  0  0
    8.1540  -16.3264   25.2009 O   0  0  0  0  0  0  0  0  0  0  0  0
    7.1095  -15.9934   20.5807 C   0  0  0  0  0  0  0  0  0  0  0  0
    8.5604  -15.8866   20.9996 C   0  0  1  0  0  0  0  0  0  0  0  0
    8.9091  -14.5433   20.7707 O   0  0  0  0  0  0  0  0  0  0  0  0
    8.7631  -16.2236   22.4806 C   0  0  2  0  0  0  0  0  0  0  0  0
    7.7864  -15.3548   23.1667 N   0  0  0  0  0  0  0  0  0  0  0  0
   10.1004  -15.7421   22.8751 C   0  0  0  0  0  0  0  0  0  0  0  0
   10.1720  -14.8032   23.7215 O   0  0  0  0  0  0  0  0  0  0  0  0
   10.5491  -18.9198   26.0987 N   0  0  0  0  0  0  0  0  0  0  0  0
   11.1656  -17.7714   26.6378 C   0  0  0  0  0  0  0  0  0  0  0  0
   11.0294  -17.4843   27.8371 O   0  0  0  0  0  0  0  0  0  0  0  0
   11.9810  -16.9056   25.7586 C   0  0  0  0  0  0  0  0  0  0  0  0
   12.0588  -17.4600   24.3634 C   0  0  0  0  0  0  0  0  0  0  0  0
   12.4238  -16.4563   23.3283 C   0  0  2  0  0  0  0  0  0  0  0  0
   11.3127  -16.2467   22.3849 N   0  0  0  0  0  0  0  0  0  0  0  0
   13.6280  -16.7990   22.5458 C   0  0  0  0  0  0  0  0  0  0  0  0
   13.5227  -17.3462   21.4074 O   0  0  0  0  0  0  0  0  0  0  0  0
   14.9366  -16.5676   22.9534 O   0  0  0  0  0  0  0  0  0  0  0  0
  2  1  1  0
  3  5  1  0
  3  2  1  0
  3  4  1  6
  5  7  1  0
  5  6  1  1
  7  8  2  0
 10 12  1  0
 10  9  1  1
 11 10  1  0
 12 14  1  0
 13  7  1  0
 12 13  1  1
 14 22  1  0
 15 14  2  0
 17 19  1  0
 17 16  1  0
 18 17  2  0
 19 20  1  0
 21 20  1  1
 21 23  1  0
 22 21  1  0
 23 25  1  0
 24 23  2  0
M  END
$$$$
