ITQ.pdb
     RDKit          3D

 25 24  0  0  1  0  0  0  0  0999 V2000
    7.5646  -11.8085   19.2995 C   0  0  0  0  0  0  0  0  0  0  0  0
    7.9142  -13.2556   19.0947 C   0  0  0  0  0  0  0  0  0  0  0  0
    8.0214  -14.0298   20.3648 C   0  0  2  0  0  0  0  0  0  0  0  0
    9.0027  -13.3633   21.2788 C   0  0  0  0  0  0  0  0  0  0  0  0
    8.3489  -15.4754   20.0858 C   0  0  2  0  0  0  0  0  0  0  0  0
    7.3930  -15.9481   19.1009 N   0  0  0  0  0  0  0  0  0  0  0  0
    8.3846  -16.3073   21.2882 C   0  0  0  0  0  0  0  0  0  0  0  0
    7.3435  -16.6049   21.9062 O   0  0  0  0  0  0  0  0  0  0  0  0
    9.9769  -19.6294   21.3498 C   0  0  0  0  0  0  0  0  0  0  0  0
   10.5984  -18.8272   22.4733 C   0  0  1  0  0  0  0  0  0  0  0  0
   11.7775  -18.2874   21.9285 O   0  0  0  0  0  0  0  0  0  0  0  0
    9.6865  -17.6913   22.9486 C   0  0  2  0  0  0  0  0  0  0  0  0
    9.6159  -16.7953   21.7774 N   0  0  0  0  0  0  0  0  0  0  0  0
   10.4025  -16.9470   24.0018 C   0  0  0  0  0  0  0  0  0  0  0  0
   10.9202  -15.8319   23.6990 O   0  0  0  0  0  0  0  0  0  0  0  0
    9.7476  -13.9246   29.4795 N   0  0  0  0  0  0  0  0  0  0  0  0
    9.1228  -14.0524   28.2214 C   0  0  0  0  0  0  0  0  0  0  0  0
    8.4572  -13.1186   27.7480 O   0  0  0  0  0  0  0  0  0  0  0  0
    9.2670  -15.3151   27.4650 C   0  0  0  0  0  0  0  0  0  0  0  0
   10.3673  -15.2200   26.4451 C   0  0  0  0  0  0  0  0  0  0  0  0
   11.1733  -16.4616   26.3005 C   0  0  2  0  0  0  0  0  0  0  0  0
   10.5565  -17.3779   25.3267 N   0  0  0  0  0  0  0  0  0  0  0  0
   11.3780  -17.2047   27.5598 C   0  0  0  0  0  0  0  0  0  0  0  0
   10.7369  -18.2738   27.7887 O   0  0  0  0  0  0  0  0  0  0  0  0
   12.2519  -16.8303   28.5738 O   0  0  0  0  0  0  0  0  0  0  0  0
  2  1  1  0
  3  5  1  0
  3  2  1  0
  3  4  1  1
  5  7  1  0
  5  6  1  6
  7  8  2  0
 10 12  1  0
 10  9  1  6
 11 10  1  0
 12 14  1  0
 13  7  1  0
 12 13  1  6
 14 22  1  0
 15 14  2  0
 17 19  1  0
 17 16  1  0
 18 17  2  0
 19 20  1  0
 21 20  1  1
 21 23  1  0
 22 21  1  0
 23 25  1  0
 24 23  2  0
M  END
$$$$
