LMD.pdb
     RDKit          3D

 25 24  0  0  1  0  0  0  0  0999 V2000
   26.7487  -11.8231  -16.3685 C   0  0  0  0  0  0  0  0  0  0  0  0
   26.5472  -10.3236  -16.3108 C   0  0  2  0  0  0  0  0  0  0  0  0
   26.8720   -9.8358  -14.9198 C   0  0  0  0  0  0  0  0  0  0  0  0
   25.1144   -9.9579  -16.7084 C   0  0  0  0  0  0  0  0  0  0  0  0
   24.2221  -10.6172  -15.6781 C   0  0  2  0  0  0  0  0  0  0  0  0
   24.2232  -12.0407  -15.9526 N   0  0  0  0  0  0  0  0  0  0  0  0
   22.8407  -10.1124  -15.6996 C   0  0  0  0  0  0  0  0  0  0  0  0
   22.0472  -10.5494  -16.5694 O   0  0  0  0  0  0  0  0  0  0  0  0
   18.9089   -9.8394  -11.0775 C   0  0  0  0  0  0  0  0  0  0  0  0
   18.1531   -8.4461  -11.9495 S   0  0  0  0  0  0  0  0  0  0  0  0
   18.8493   -8.2645  -13.6203 C   0  0  0  0  0  0  0  0  0  0  0  0
   20.2521   -8.7686  -13.5850 C   0  0  0  0  0  0  0  0  0  0  0  0
   21.0072   -8.5894  -14.8656 C   0  0  2  0  0  0  0  0  0  0  0  0
   22.3231   -9.1495  -14.7951 N   0  0  0  0  0  0  0  0  0  0  0  0
   21.0003   -7.1868  -15.3489 C   0  0  0  0  0  0  0  0  0  0  0  0
   21.6182   -6.2507  -14.7807 O   0  0  0  0  0  0  0  0  0  0  0  0
   20.2641   -6.8535  -16.5148 N   0  0  0  0  0  0  0  0  0  0  0  0
   20.1605   -5.5545  -17.1074 C   0  0  1  0  0  0  0  0  0  0  0  0
   19.6523   -5.6979  -18.5145 C   0  0  0  0  0  0  0  0  0  0  0  0
   20.7191   -6.1761  -19.3915 C   0  0  0  0  0  0  0  0  0  0  0  0
   21.9090   -5.8479  -19.3147 O   0  0  0  0  0  0  0  0  0  0  0  0
   19.3502   -4.6168  -16.3086 C   0  0  0  0  0  0  0  0  0  0  0  0
   18.3789   -5.0366  -15.6565 O   0  0  0  0  0  0  0  0  0  0  0  0
   20.3985   -7.0856  -20.4178 O   0  0  0  0  0  0  0  0  0  0  0  0
   19.6698   -3.2818  -16.2865 O   0  0  0  0  0  0  0  0  0  0  0  0
  2  1  1  1
  3  2  1  0
  4  2  1  0
  4  5  1  0
  5  6  1  6
  7  5  1  0
  7  8  2  0
 10 11  1  0
 10  9  1  0
 11 12  1  0
 13 12  1  1
 13 14  1  0
 14  7  1  0
 15 13  1  0
 16 15  2  0
 17 15  1  0
 18 22  1  0
 18 17  1  0
 18 19  1  6
 20 19  1  0
 20 21  2  0
 22 25  1  0
 23 22  2  0
 24 20  1  0
M  END
$$$$
