LMD.pdb
     RDKit          3D

 25 24  0  0  1  0  0  0  0  0999 V2000
   26.1424  -17.5361  -16.6656 C   0  0  0  0  0  0  0  0  0  0  0  0
   26.9410  -18.2545  -15.5986 C   0  0  2  0  0  0  0  0  0  0  0  0
   27.8875  -17.2751  -14.9481 C   0  0  0  0  0  0  0  0  0  0  0  0
   27.6967  -19.4423  -16.2010 C   0  0  0  0  0  0  0  0  0  0  0  0
   28.1893  -20.2551  -15.0224 C   0  0  2  0  0  0  0  0  0  0  0  0
   28.9739  -21.3530  -15.5520 N   0  0  0  0  0  0  0  0  0  0  0  0
   27.1000  -20.7854  -14.1882 C   0  0  0  0  0  0  0  0  0  0  0  0
   26.4263  -21.7563  -14.6132 O   0  0  0  0  0  0  0  0  0  0  0  0
   27.1170  -20.6874   -7.7750 C   0  0  0  0  0  0  0  0  0  0  0  0
   25.3341  -20.5028   -8.0199 S   0  0  0  0  0  0  0  0  0  0  0  0
   24.8568  -20.9505   -9.7173 C   0  0  0  0  0  0  0  0  0  0  0  0
   25.9327  -20.4727  -10.6325 C   0  0  0  0  0  0  0  0  0  0  0  0
   25.7212  -20.8226  -12.0730 C   0  0  2  0  0  0  0  0  0  0  0  0
   26.7430  -20.2750  -12.9133 N   0  0  0  0  0  0  0  0  0  0  0  0
   24.3513  -20.5094  -12.5484 C   0  0  0  0  0  0  0  0  0  0  0  0
   23.8953  -19.3413  -12.6403 O   0  0  0  0  0  0  0  0  0  0  0  0
   23.4849  -21.5668  -12.9276 N   0  0  0  0  0  0  0  0  0  0  0  0
   22.0938  -21.4486  -13.2439 C   0  0  1  0  0  0  0  0  0  0  0  0
   21.3882  -22.7078  -12.8256 C   0  0  0  0  0  0  0  0  0  0  0  0
   19.9850  -22.6603  -13.2316 C   0  0  0  0  0  0  0  0  0  0  0  0
   19.0165  -22.7047  -12.4638 O   0  0  0  0  0  0  0  0  0  0  0  0
   21.4717  -20.2388  -12.6751 C   0  0  0  0  0  0  0  0  0  0  0  0
   21.4876  -20.0524  -11.4464 O   0  0  0  0  0  0  0  0  0  0  0  0
   19.6774  -22.5556  -14.6019 O   0  0  0  0  0  0  0  0  0  0  0  0
   20.8759  -19.3203  -13.5037 O   0  0  0  0  0  0  0  0  0  0  0  0
  2  1  1  6
  3  2  1  0
  4  2  1  0
  4  5  1  0
  5  6  1  6
  7  5  1  0
  7  8  2  0
 10 11  1  0
 10  9  1  0
 11 12  1  0
 13 12  1  1
 13 14  1  0
 14  7  1  0
 15 13  1  0
 16 15  2  0
 17 15  1  0
 18 22  1  0
 18 17  1  0
 18 19  1  1
 20 19  1  0
 20 21  2  0
 22 25  1  0
 23 22  2  0
 24 20  1  0
M  END
$$$$
