LMD.pdb
     RDKit          3D

 25 24  0  0  1  0  0  0  0  0999 V2000
   27.5757  -17.7442  -18.0339 C   0  0  0  0  0  0  0  0  0  0  0  0
   28.6854  -18.0988  -17.0668 C   0  0  2  0  0  0  0  0  0  0  0  0
   29.9004  -18.5347  -17.8492 C   0  0  0  0  0  0  0  0  0  0  0  0
   28.2256  -19.1919  -16.0982 C   0  0  0  0  0  0  0  0  0  0  0  0
   26.9474  -18.6745  -15.4729 C   0  0  2  0  0  0  0  0  0  0  0  0
   27.2886  -17.4920  -14.7069 N   0  0  0  0  0  0  0  0  0  0  0  0
   26.2917  -19.6571  -14.5964 C   0  0  0  0  0  0  0  0  0  0  0  0
   25.8838  -20.7367  -15.0916 O   0  0  0  0  0  0  0  0  0  0  0  0
   27.3218  -20.6721   -8.3370 C   0  0  0  0  0  0  0  0  0  0  0  0
   25.5221  -20.8558   -8.3298 S   0  0  0  0  0  0  0  0  0  0  0  0
   24.8821  -21.0972  -10.0154 C   0  0  0  0  0  0  0  0  0  0  0  0
   25.6825  -20.2361  -10.9326 C   0  0  0  0  0  0  0  0  0  0  0  0
   25.3087  -20.3553  -12.3776 C   0  0  2  0  0  0  0  0  0  0  0  0
   26.0796  -19.4770  -13.2051 N   0  0  0  0  0  0  0  0  0  0  0  0
   23.8482  -20.2344  -12.6084 C   0  0  0  0  0  0  0  0  0  0  0  0
   23.2128  -19.1545  -12.5028 O   0  0  0  0  0  0  0  0  0  0  0  0
   23.1006  -21.3846  -12.9696 N   0  0  0  0  0  0  0  0  0  0  0  0
   21.7157  -21.4146  -13.3306 C   0  0  1  0  0  0  0  0  0  0  0  0
   21.4948  -22.5135  -14.3316 C   0  0  0  0  0  0  0  0  0  0  0  0
   20.1099  -22.5015  -14.7987 C   0  0  0  0  0  0  0  0  0  0  0  0
   19.2547  -21.6674  -14.4792 O   0  0  0  0  0  0  0  0  0  0  0  0
   20.8166  -21.5235  -12.1671 C   0  0  0  0  0  0  0  0  0  0  0  0
   19.5971  -21.3274  -12.3052 O   0  0  0  0  0  0  0  0  0  0  0  0
   19.6834  -23.5087  -15.6859 O   0  0  0  0  0  0  0  0  0  0  0  0
   21.3279  -21.8413  -10.9332 O   0  0  0  0  0  0  0  0  0  0  0  0
  2  1  1  6
  3  2  1  0
  4  2  1  0
  4  5  1  0
  5  6  1  1
  7  5  1  0
  7  8  2  0
 10 11  1  0
 10  9  1  0
 11 12  1  0
 13 12  1  1
 13 14  1  0
 14  7  1  0
 15 13  1  0
 16 15  2  0
 17 15  1  0
 18 22  1  0
 18 17  1  0
 18 19  1  6
 20 19  1  0
 20 21  2  0
 22 25  1  0
 23 22  2  0
 24 20  1  0
M  END
$$$$
