LMD.pdb
     RDKit          3D

 25 24  0  0  1  0  0  0  0  0999 V2000
   28.3581  -21.3618  -17.7447 C   0  0  0  0  0  0  0  0  0  0  0  0
   27.3335  -22.3108  -18.3296 C   0  0  2  0  0  0  0  0  0  0  0  0
   26.8940  -21.7921  -19.6773 C   0  0  0  0  0  0  0  0  0  0  0  0
   26.1433  -22.4694  -17.3793 C   0  0  0  0  0  0  0  0  0  0  0  0
   26.7204  -23.0023  -16.0849 C   0  0  2  0  0  0  0  0  0  0  0  0
   26.9246  -24.4272  -16.2568 N   0  0  0  0  0  0  0  0  0  0  0  0
   25.8513  -22.7658  -14.9220 C   0  0  0  0  0  0  0  0  0  0  0  0
   24.9454  -23.5956  -14.6613 O   0  0  0  0  0  0  0  0  0  0  0  0
   24.3031  -20.8198   -7.9071 C   0  0  0  0  0  0  0  0  0  0  0  0
   25.4257  -21.0604   -9.3051 S   0  0  0  0  0  0  0  0  0  0  0  0
   24.8469  -20.1547  -10.7727 C   0  0  0  0  0  0  0  0  0  0  0  0
   25.7344  -20.5232  -11.9129 C   0  0  0  0  0  0  0  0  0  0  0  0
   25.0863  -21.3906  -12.9471 C   0  0  2  0  0  0  0  0  0  0  0  0
   25.9585  -21.6494  -14.0528 N   0  0  0  0  0  0  0  0  0  0  0  0
   23.7531  -20.8923  -13.3659 C   0  0  0  0  0  0  0  0  0  0  0  0
   23.5759  -19.8151  -13.9898 O   0  0  0  0  0  0  0  0  0  0  0  0
   22.5954  -21.6526  -13.0591 N   0  0  0  0  0  0  0  0  0  0  0  0
   21.2383  -21.2521  -13.2757 C   0  0  1  0  0  0  0  0  0  0  0  0
   20.3342  -22.1169  -12.4431 C   0  0  0  0  0  0  0  0  0  0  0  0
   18.9347  -21.7953  -12.7155 C   0  0  0  0  0  0  0  0  0  0  0  0
   18.5406  -20.9326  -13.5091 O   0  0  0  0  0  0  0  0  0  0  0  0
   21.0148  -19.8137  -13.0412 C   0  0  0  0  0  0  0  0  0  0  0  0
   20.5989  -19.0922  -13.9637 O   0  0  0  0  0  0  0  0  0  0  0  0
   17.9289  -22.5083  -12.0349 O   0  0  0  0  0  0  0  0  0  0  0  0
   21.2665  -19.2739  -11.8042 O   0  0  0  0  0  0  0  0  0  0  0  0
  2  1  1  1
  3  2  1  0
  4  2  1  0
  4  5  1  0
  5  6  1  6
  7  5  1  0
  7  8  2  0
 10 11  1  0
 10  9  1  0
 11 12  1  0
 13 12  1  1
 13 14  1  0
 14  7  1  0
 15 13  1  0
 16 15  2  0
 17 15  1  0
 18 22  1  0
 18 17  1  0
 18 19  1  1
 20 19  1  0
 20 21  2  0
 22 25  1  0
 23 22  2  0
 24 20  1  0
M  END
$$$$
