LMD.pdb
     RDKit          3D

 25 24  0  0  1  0  0  0  0  0999 V2000
   16.9048  -10.9516  -19.6553 C   0  0  0  0  0  0  0  0  0  0  0  0
   17.2292  -11.9961  -18.6084 C   0  0  2  0  0  0  0  0  0  0  0  0
   15.9415  -12.5713  -18.0704 C   0  0  0  0  0  0  0  0  0  0  0  0
   18.0783  -11.3889  -17.4881 C   0  0  0  0  0  0  0  0  0  0  0  0
   19.2812  -10.7748  -18.1724 C   0  0  2  0  0  0  0  0  0  0  0  0
   20.0912  -11.8636  -18.6824 N   0  0  0  0  0  0  0  0  0  0  0  0
   20.0917   -9.9353  -17.2768 C   0  0  0  0  0  0  0  0  0  0  0  0
   19.5132   -9.2463  -16.4007 O   0  0  0  0  0  0  0  0  0  0  0  0
   26.1199  -11.3728  -14.9083 C   0  0  0  0  0  0  0  0  0  0  0  0
   26.2029   -9.6246  -15.3658 S   0  0  0  0  0  0  0  0  0  0  0  0
   24.5524   -8.8603  -15.3329 C   0  0  0  0  0  0  0  0  0  0  0  0
   23.7144   -9.5453  -16.3586 C   0  0  0  0  0  0  0  0  0  0  0  0
   22.3026   -9.0522  -16.4349 C   0  0  2  0  0  0  0  0  0  0  0  0
   21.5066   -9.8411  -17.3262 N   0  0  0  0  0  0  0  0  0  0  0  0
   22.2129   -7.5976  -16.7123 C   0  0  0  0  0  0  0  0  0  0  0  0
   22.5092   -7.0794  -17.8190 O   0  0  0  0  0  0  0  0  0  0  0  0
   21.7712   -6.7178  -15.6910 N   0  0  0  0  0  0  0  0  0  0  0  0
   21.6205   -5.2987  -15.8035 C   0  0  1  0  0  0  0  0  0  0  0  0
   20.1648   -4.9745  -15.9892 C   0  0  0  0  0  0  0  0  0  0  0  0
   19.9899   -3.5404  -16.2101 C   0  0  0  0  0  0  0  0  0  0  0  0
   19.7981   -2.6986  -15.3246 O   0  0  0  0  0  0  0  0  0  0  0  0
   22.2225   -4.5616  -14.6773 C   0  0  0  0  0  0  0  0  0  0  0  0
   22.3407   -5.1112  -13.5688 O   0  0  0  0  0  0  0  0  0  0  0  0
   20.0385   -3.0451  -17.5275 O   0  0  0  0  0  0  0  0  0  0  0  0
   22.6514   -3.2695  -14.8549 O   0  0  0  0  0  0  0  0  0  0  0  0
  2  1  1  6
  3  2  1  0
  4  2  1  0
  4  5  1  0
  5  6  1  1
  7  5  1  0
  7  8  2  0
 10 11  1  0
 10  9  1  0
 11 12  1  0
 13 12  1  6
 13 14  1  0
 14  7  1  0
 15 13  1  0
 16 15  2  0
 17 15  1  0
 18 22  1  0
 18 17  1  0
 18 19  1  1
 20 19  1  0
 20 21  2  0
 22 25  1  0
 23 22  2  0
 24 20  1  0
M  END
$$$$
