LMD.pdb
     RDKit          3D

 25 24  0  0  1  0  0  0  0  0999 V2000
   25.4801  -14.3105  -16.2034 C   0  0  0  0  0  0  0  0  0  0  0  0
   26.9840  -14.1862  -16.3271 C   0  0  2  0  0  0  0  0  0  0  0  0
   27.6387  -15.1863  -15.4054 C   0  0  0  0  0  0  0  0  0  0  0  0
   27.4336  -12.7577  -16.0077 C   0  0  0  0  0  0  0  0  0  0  0  0
   26.7048  -11.8686  -16.9930 C   0  0  2  0  0  0  0  0  0  0  0  0
   26.9513  -12.3999  -18.3192 N   0  0  0  0  0  0  0  0  0  0  0  0
   27.1380  -10.4640  -16.9367 C   0  0  0  0  0  0  0  0  0  0  0  0
   27.0159   -9.8330  -15.8578 O   0  0  0  0  0  0  0  0  0  0  0  0
   32.3000   -6.6664  -18.8248 C   0  0  0  0  0  0  0  0  0  0  0  0
   31.7538   -7.9221  -17.6427 S   0  0  0  0  0  0  0  0  0  0  0  0
   30.4520   -8.9722  -18.3581 C   0  0  0  0  0  0  0  0  0  0  0  0
   29.3148   -8.0873  -18.7420 C   0  0  0  0  0  0  0  0  0  0  0  0
   28.0406   -8.3614  -18.0048 C   0  0  2  0  0  0  0  0  0  0  0  0
   27.6951   -9.7507  -18.0294 N   0  0  0  0  0  0  0  0  0  0  0  0
   26.9258   -7.4800  -18.4307 C   0  0  0  0  0  0  0  0  0  0  0  0
   26.8452   -6.9604  -19.5728 O   0  0  0  0  0  0  0  0  0  0  0  0
   25.8778   -7.1898  -17.5197 N   0  0  0  0  0  0  0  0  0  0  0  0
   24.6744   -6.4729  -17.8150 C   0  0  1  0  0  0  0  0  0  0  0  0
   23.9662   -7.1533  -18.9525 C   0  0  0  0  0  0  0  0  0  0  0  0
   22.7258   -6.4486  -19.2702 C   0  0  0  0  0  0  0  0  0  0  0  0
   22.6521   -5.3061  -19.7380 O   0  0  0  0  0  0  0  0  0  0  0  0
   23.8051   -6.2918  -16.6379 C   0  0  0  0  0  0  0  0  0  0  0  0
   23.9343   -7.0361  -15.6510 O   0  0  0  0  0  0  0  0  0  0  0  0
   21.4974   -7.0961  -19.0361 O   0  0  0  0  0  0  0  0  0  0  0  0
   22.8544   -5.3012  -16.6340 O   0  0  0  0  0  0  0  0  0  0  0  0
  2  1  1  1
  3  2  1  0
  4  2  1  0
  4  5  1  0
  5  6  1  6
  7  5  1  0
  7  8  2  0
 10 11  1  0
 10  9  1  0
 11 12  1  0
 13 12  1  6
 13 14  1  0
 14  7  1  0
 15 13  1  0
 16 15  2  0
 17 15  1  0
 18 22  1  0
 18 17  1  0
 18 19  1  6
 20 19  1  0
 20 21  2  0
 22 25  1  0
 23 22  2  0
 24 20  1  0
M  END
$$$$
