LMD.pdb
     RDKit          3D

 25 24  0  0  1  0  0  0  0  0999 V2000
   25.1947  -20.8689  -16.0969 C   0  0  0  0  0  0  0  0  0  0  0  0
   26.4052  -21.6703  -15.6671 C   0  0  2  0  0  0  0  0  0  0  0  0
   26.5766  -22.8435  -16.6013 C   0  0  0  0  0  0  0  0  0  0  0  0
   26.2562  -22.1325  -14.2149 C   0  0  0  0  0  0  0  0  0  0  0  0
   26.1206  -20.8675  -13.3940 C   0  0  2  0  0  0  0  0  0  0  0  0
   27.4167  -20.2184  -13.3825 N   0  0  0  0  0  0  0  0  0  0  0  0
   25.6825  -21.1174  -12.0122 C   0  0  0  0  0  0  0  0  0  0  0  0
   25.2346  -22.2516  -11.7122 O   0  0  0  0  0  0  0  0  0  0  0  0
   27.0286  -20.0225   -4.5872 C   0  0  0  0  0  0  0  0  0  0  0  0
   27.2075  -19.5209   -6.3161 S   0  0  0  0  0  0  0  0  0  0  0  0
   25.6467  -19.7370   -7.2251 C   0  0  0  0  0  0  0  0  0  0  0  0
   25.9102  -19.4274   -8.6598 C   0  0  0  0  0  0  0  0  0  0  0  0
   25.2935  -20.3919   -9.6249 C   0  0  2  0  0  0  0  0  0  0  0  0
   25.7273  -20.1566  -10.9691 N   0  0  0  0  0  0  0  0  0  0  0  0
   23.8174  -20.4713   -9.4986 C   0  0  0  0  0  0  0  0  0  0  0  0
   23.0221  -19.7464  -10.1489 O   0  0  0  0  0  0  0  0  0  0  0  0
   23.2427  -21.4083   -8.6019 N   0  0  0  0  0  0  0  0  0  0  0  0
   21.8453  -21.6661   -8.4285 C   0  0  1  0  0  0  0  0  0  0  0  0
   21.6576  -22.5660   -7.2396 C   0  0  0  0  0  0  0  0  0  0  0  0
   20.2652  -23.0009   -7.1490 C   0  0  0  0  0  0  0  0  0  0  0  0
   19.3985  -22.8083   -8.0098 O   0  0  0  0  0  0  0  0  0  0  0  0
   21.0369  -20.4363   -8.3373 C   0  0  0  0  0  0  0  0  0  0  0  0
   21.4187  -19.4948   -7.6215 O   0  0  0  0  0  0  0  0  0  0  0  0
   19.8448  -23.6986   -6.0002 O   0  0  0  0  0  0  0  0  0  0  0  0
   19.8638  -20.3335   -9.0431 O   0  0  0  0  0  0  0  0  0  0  0  0
  2  1  1  6
  3  2  1  0
  4  2  1  0
  4  5  1  0
  5  6  1  1
  7  5  1  0
  7  8  2  0
 10 11  1  0
 10  9  1  0
 11 12  1  0
 13 12  1  1
 13 14  1  0
 14  7  1  0
 15 13  1  0
 16 15  2  0
 17 15  1  0
 18 22  1  0
 18 17  1  0
 18 19  1  1
 20 19  1  0
 20 21  2  0
 22 25  1  0
 23 22  2  0
 24 20  1  0
M  END
$$$$
