LMD.pdb
     RDKit          3D

 25 24  0  0  1  0  0  0  0  0999 V2000
   12.4990  -10.6270  -11.4532 C   0  0  0  0  0  0  0  0  0  0  0  0
   12.8155  -11.6318  -10.3657 C   0  0  2  0  0  0  0  0  0  0  0  0
   11.6082  -11.7893   -9.4736 C   0  0  0  0  0  0  0  0  0  0  0  0
   14.0444  -11.1896   -9.5663 C   0  0  0  0  0  0  0  0  0  0  0  0
   15.1417  -10.9740  -10.5869 C   0  0  2  0  0  0  0  0  0  0  0  0
   15.8947  -12.2093  -10.6798 N   0  0  0  0  0  0  0  0  0  0  0  0
   16.0483   -9.8693  -10.2387 C   0  0  0  0  0  0  0  0  0  0  0  0
   16.7110   -9.9393   -9.1743 O   0  0  0  0  0  0  0  0  0  0  0  0
   21.8435   -5.1404  -11.6804 C   0  0  0  0  0  0  0  0  0  0  0  0
   20.5759   -6.3119  -12.2221 S   0  0  0  0  0  0  0  0  0  0  0  0
   19.1661   -6.3287  -11.0726 C   0  0  0  0  0  0  0  0  0  0  0  0
   18.2693   -7.4516  -11.4704 C   0  0  0  0  0  0  0  0  0  0  0  0
   17.0289   -7.5773  -10.6410 C   0  0  2  0  0  0  0  0  0  0  0  0
   16.2370   -8.7056  -11.0283 N   0  0  0  0  0  0  0  0  0  0  0  0
   16.2482   -6.3175  -10.5747 C   0  0  0  0  0  0  0  0  0  0  0  0
   15.6414   -5.8210  -11.5576 O   0  0  0  0  0  0  0  0  0  0  0  0
   16.1637   -5.6120   -9.3469 N   0  0  0  0  0  0  0  0  0  0  0  0
   15.4815   -4.3727   -9.1285 C   0  0  1  0  0  0  0  0  0  0  0  0
   14.9611   -4.3425   -7.7189 C   0  0  0  0  0  0  0  0  0  0  0  0
   14.2169   -3.1073   -7.4807 C   0  0  0  0  0  0  0  0  0  0  0  0
   13.9796   -2.2403   -8.3300 O   0  0  0  0  0  0  0  0  0  0  0  0
   16.3064   -3.1935   -9.4497 C   0  0  0  0  0  0  0  0  0  0  0  0
   17.5413   -3.3052   -9.5349 O   0  0  0  0  0  0  0  0  0  0  0  0
   13.7161   -2.8543   -6.1890 O   0  0  0  0  0  0  0  0  0  0  0  0
   15.7090   -1.9744   -9.6542 O   0  0  0  0  0  0  0  0  0  0  0  0
  2  1  1  6
  3  2  1  0
  4  2  1  0
  4  5  1  0
  5  6  1  1
  7  5  1  0
  7  8  2  0
 10 11  1  0
 10  9  1  0
 11 12  1  0
 13 12  1  6
 13 14  1  0
 14  7  1  0
 15 13  1  0
 16 15  2  0
 17 15  1  0
 18 22  1  0
 18 17  1  0
 18 19  1  1
 20 19  1  0
 20 21  2  0
 22 25  1  0
 23 22  2  0
 24 20  1  0
M  END
$$$$
