LMD.pdb
     RDKit          3D

 25 24  0  0  1  0  0  0  0  0999 V2000
   28.8512  -17.9573  -15.7154 C   0  0  0  0  0  0  0  0  0  0  0  0
   28.5040  -18.7532  -16.9557 C   0  0  2  0  0  0  0  0  0  0  0  0
   28.1010  -17.8012  -18.0555 C   0  0  0  0  0  0  0  0  0  0  0  0
   27.3897  -19.7594  -16.6545 C   0  0  0  0  0  0  0  0  0  0  0  0
   27.8447  -20.5197  -15.4268 C   0  0  2  0  0  0  0  0  0  0  0  0
   28.6252  -21.6524  -15.8843 N   0  0  0  0  0  0  0  0  0  0  0  0
   26.7298  -20.9942  -14.5927 C   0  0  0  0  0  0  0  0  0  0  0  0
   26.0341  -21.9577  -14.9986 O   0  0  0  0  0  0  0  0  0  0  0  0
   25.2114  -20.5022   -7.9890 C   0  0  0  0  0  0  0  0  0  0  0  0
   26.8481  -20.6780   -8.7393 S   0  0  0  0  0  0  0  0  0  0  0  0
   26.7202  -21.2385  -10.4651 C   0  0  0  0  0  0  0  0  0  0  0  0
   25.5231  -20.5846  -11.0674 C   0  0  0  0  0  0  0  0  0  0  0  0
   25.3012  -20.9091  -12.5122 C   0  0  2  0  0  0  0  0  0  0  0  0
   26.3711  -20.4366  -13.3383 N   0  0  0  0  0  0  0  0  0  0  0  0
   23.9645  -20.4890  -13.0000 C   0  0  0  0  0  0  0  0  0  0  0  0
   23.6323  -19.2893  -13.1766 O   0  0  0  0  0  0  0  0  0  0  0  0
   22.9863  -21.4741  -13.2917 N   0  0  0  0  0  0  0  0  0  0  0  0
   21.6580  -21.2325  -13.7676 C   0  0  1  0  0  0  0  0  0  0  0  0
   21.1988  -22.4228  -14.5619 C   0  0  0  0  0  0  0  0  0  0  0  0
   21.0325  -22.0594  -15.9677 C   0  0  0  0  0  0  0  0  0  0  0  0
   21.1784  -20.9237  -16.4348 O   0  0  0  0  0  0  0  0  0  0  0  0
   20.7143  -20.8745  -12.6927 C   0  0  0  0  0  0  0  0  0  0  0  0
   19.8043  -20.0572  -12.9131 O   0  0  0  0  0  0  0  0  0  0  0  0
   20.6773  -23.0617  -16.8911 O   0  0  0  0  0  0  0  0  0  0  0  0
   20.8424  -21.4447  -11.4503 O   0  0  0  0  0  0  0  0  0  0  0  0
  2  1  1  1
  3  2  1  0
  4  2  1  0
  4  5  1  0
  5  6  1  6
  7  5  1  0
  7  8  2  0
 10 11  1  0
 10  9  1  0
 11 12  1  0
 13 12  1  1
 13 14  1  0
 14  7  1  0
 15 13  1  0
 16 15  2  0
 17 15  1  0
 18 22  1  0
 18 17  1  0
 18 19  1  1
 20 19  1  0
 20 21  2  0
 22 25  1  0
 23 22  2  0
 24 20  1  0
M  END
$$$$
