LMD.pdb
     RDKit          3D

 25 24  0  0  1  0  0  0  0  0999 V2000
   16.0515  -12.9138  -16.4720 C   0  0  0  0  0  0  0  0  0  0  0  0
   17.1139  -13.9703  -16.2542 C   0  0  2  0  0  0  0  0  0  0  0  0
   16.5267  -15.1000  -15.4434 C   0  0  0  0  0  0  0  0  0  0  0  0
   18.3388  -13.3663  -15.5616 C   0  0  0  0  0  0  0  0  0  0  0  0
   18.7794  -12.2141  -16.4394 C   0  0  2  0  0  0  0  0  0  0  0  0
   19.2382  -12.7771  -17.6941 N   0  0  0  0  0  0  0  0  0  0  0  0
   19.8528  -11.4064  -15.8401 C   0  0  0  0  0  0  0  0  0  0  0  0
   19.6309  -10.8059  -14.7597 O   0  0  0  0  0  0  0  0  0  0  0  0
   27.6154  -10.1357  -15.1899 C   0  0  0  0  0  0  0  0  0  0  0  0
   26.2107  -10.9502  -15.9874 S   0  0  0  0  0  0  0  0  0  0  0  0
   24.6463  -10.1279  -15.5563 C   0  0  0  0  0  0  0  0  0  0  0  0
   23.5410  -10.8805  -16.2160 C   0  0  0  0  0  0  0  0  0  0  0  0
   22.1676  -10.3973  -15.8660 C   0  0  2  0  0  0  0  0  0  0  0  0
   21.1475  -11.2492  -16.3991 N   0  0  0  0  0  0  0  0  0  0  0  0
   21.9572   -8.9663  -16.1957 C   0  0  0  0  0  0  0  0  0  0  0  0
   21.9982   -8.5070  -17.3655 O   0  0  0  0  0  0  0  0  0  0  0  0
   21.6931   -8.0410  -15.1534 N   0  0  0  0  0  0  0  0  0  0  0  0
   21.4636   -6.6364  -15.3069 C   0  0  1  0  0  0  0  0  0  0  0  0
   20.0042   -6.3522  -15.0877 C   0  0  0  0  0  0  0  0  0  0  0  0
   19.7287   -4.9319  -15.2945 C   0  0  0  0  0  0  0  0  0  0  0  0
   20.4503   -4.1473  -15.9216 O   0  0  0  0  0  0  0  0  0  0  0  0
   22.3332   -5.8107  -14.4490 C   0  0  0  0  0  0  0  0  0  0  0  0
   22.6612   -6.2196  -13.3220 O   0  0  0  0  0  0  0  0  0  0  0  0
   18.5536   -4.3811  -14.7476 O   0  0  0  0  0  0  0  0  0  0  0  0
   22.7793   -4.5917  -14.8964 O   0  0  0  0  0  0  0  0  0  0  0  0
  2  1  1  1
  3  2  1  0
  4  2  1  0
  4  5  1  0
  5  6  1  6
  7  5  1  0
  7  8  2  0
 10 11  1  0
 10  9  1  0
 11 12  1  0
 13 12  1  6
 13 14  1  0
 14  7  1  0
 15 13  1  0
 16 15  2  0
 17 15  1  0
 18 22  1  0
 18 17  1  0
 18 19  1  1
 20 19  1  0
 20 21  2  0
 22 25  1  0
 23 22  2  0
 24 20  1  0
M  END
$$$$
