CMY.pdb
     RDKit          3D

 27 27  0  0  1  0  0  0  0  0999 V2000
   28.1205  -20.8275  -15.0262 N   0  0  0  0  0  0  0  0  0  0  0  0
   27.7111  -20.0801  -13.8536 C   0  0  1  0  0  0  0  0  0  0  0  0
   26.9753  -18.8057  -14.2509 C   0  0  0  0  0  0  0  0  0  0  0  0
   28.0995  -17.6169  -15.0161 S   0  0  0  0  0  0  0  0  0  0  0  0
   26.7749  -20.8692  -13.0105 C   0  0  0  0  0  0  0  0  0  0  0  0
   26.0904  -21.7334  -13.5649 O   0  0  0  0  0  0  0  0  0  0  0  0
   27.5344  -19.0683   -6.0763 C   0  0  0  0  0  0  0  0  0  0  0  0
   27.3340  -20.5821   -7.0484 S   0  0  0  0  0  0  0  0  0  0  0  0
   26.4777  -20.2335   -8.6003 C   0  0  0  0  0  0  0  0  0  0  0  0
   26.3943  -21.5565   -9.3763 C   0  0  0  0  0  0  0  0  0  0  0  0
   25.8143  -21.2667  -10.7109 C   0  0  2  0  0  0  0  0  0  0  0  0
   26.6977  -20.6102  -11.6198 N   0  0  0  0  0  0  0  0  0  0  0  0
   24.4881  -20.6232  -10.7120 C   0  0  0  0  0  0  0  0  0  0  0  0
   24.3509  -19.4307  -10.3715 O   0  0  0  0  0  0  0  0  0  0  0  0
   19.5187  -17.8528  -16.9885 O   0  0  0  0  0  0  0  0  0  0  0  0
   20.3883  -18.4429  -16.0628 C   0  0  0  0  0  0  0  0  0  0  0  0
   20.2559  -18.1593  -14.7206 C   0  0  0  0  0  0  0  0  0  0  0  0
   21.1081  -18.7330  -13.7784 C   0  0  0  0  0  0  0  0  0  0  0  0
   22.1101  -19.6017  -14.1556 C   0  0  0  0  0  0  0  0  0  0  0  0
   23.0126  -20.2065  -13.1641 C   0  0  0  0  0  0  0  0  0  0  0  0
   22.3256  -20.8107  -11.9769 C   0  0  2  0  0  0  0  0  0  0  0  0
   23.3464  -21.3672  -11.1058 N   0  0  0  0  0  0  0  0  0  0  0  0
   21.2684  -21.7705  -12.2912 C   0  0  0  0  0  0  0  0  0  0  0  0
   21.5732  -23.0486  -12.7184 O   0  0  0  0  0  0  0  0  0  0  0  0
   22.2285  -19.8743  -15.5014 C   0  0  0  0  0  0  0  0  0  0  0  0
   21.3841  -19.3070  -16.4442 C   0  0  0  0  0  0  0  0  0  0  0  0
   20.0698  -21.4444  -12.1768 O   0  0  0  0  0  0  0  0  0  0  0  0
  2  1  1  6
  3  2  1  0
  3  4  1  0
  5  6  2  0
  5  2  1  0
  7  8  1  0
  8  9  1  0
 11 10  1  1
 10  9  1  0
 11 12  1  0
 12  5  1  0
 13 14  2  0
 13 11  1  0
 16 15  1  0
 17 16  2  0
 18 17  1  0
 19 25  1  0
 19 18  2  0
 20 19  1  0
 21 20  1  6
 21 22  1  0
 22 13  1  0
 23 21  1  0
 24 23  1  0
 25 26  2  0
 26 16  1  0
 27 23  2  0
M  END
$$$$
