CMY.pdb
     RDKit          3D

 27 27  0  0  1  0  0  0  0  0999 V2000
   30.1194   -0.0105   -2.2938 N   0  0  0  0  0  0  0  0  0  0  0  0
   29.3945    0.9693   -3.0786 C   0  0  1  0  0  0  0  0  0  0  0  0
   29.8994    0.9952   -4.5166 C   0  0  0  0  0  0  0  0  0  0  0  0
   31.7049    0.9850   -4.5725 S   0  0  0  0  0  0  0  0  0  0  0  0
   27.9449    0.6456   -3.1403 C   0  0  0  0  0  0  0  0  0  0  0  0
   27.5528   -0.3565   -2.5362 O   0  0  0  0  0  0  0  0  0  0  0  0
   22.1863    3.4179    0.2552 C   0  0  0  0  0  0  0  0  0  0  0  0
   23.8906    2.9195   -0.0972 S   0  0  0  0  0  0  0  0  0  0  0  0
   24.0698    2.4459   -1.8312 C   0  0  0  0  0  0  0  0  0  0  0  0
   25.5673    2.2144   -2.0828 C   0  0  0  0  0  0  0  0  0  0  0  0
   25.7343    1.8086   -3.5002 C   0  0  2  0  0  0  0  0  0  0  0  0
   27.0717    1.4827   -3.8778 N   0  0  0  0  0  0  0  0  0  0  0  0
   25.1069    2.6898   -4.5017 C   0  0  0  0  0  0  0  0  0  0  0  0
   23.8683    2.8325   -4.5478 O   0  0  0  0  0  0  0  0  0  0  0  0
   24.5797    9.4113  -10.2795 O   0  0  0  0  0  0  0  0  0  0  0  0
   24.9463    8.4736   -9.3060 C   0  0  0  0  0  0  0  0  0  0  0  0
   25.9612    7.5779   -9.5649 C   0  0  0  0  0  0  0  0  0  0  0  0
   26.3458    6.6344   -8.6135 C   0  0  0  0  0  0  0  0  0  0  0  0
   25.7259    6.5650   -7.3840 C   0  0  0  0  0  0  0  0  0  0  0  0
   26.1276    5.5689   -6.3790 C   0  0  0  0  0  0  0  0  0  0  0  0
   25.3581    4.2836   -6.4273 C   0  0  2  0  0  0  0  0  0  0  0  0
   25.9201    3.3891   -5.4300 N   0  0  0  0  0  0  0  0  0  0  0  0
   25.2615    3.6652   -7.7486 C   0  0  0  0  0  0  0  0  0  0  0  0
   24.2620    4.0274   -8.6311 O   0  0  0  0  0  0  0  0  0  0  0  0
   24.7133    7.4679   -7.1416 C   0  0  0  0  0  0  0  0  0  0  0  0
   24.3256    8.4092   -8.0836 C   0  0  0  0  0  0  0  0  0  0  0  0
   26.0861    2.7966   -8.0974 O   0  0  0  0  0  0  0  0  0  0  0  0
  2  1  1  1
  3  2  1  0
  3  4  1  0
  5  6  2  0
  5  2  1  0
  7  8  1  0
  8  9  1  0
 11 10  1  1
 10  9  1  0
 11 12  1  0
 12  5  1  0
 13 14  2  0
 13 11  1  0
 16 15  1  0
 17 16  2  0
 18 17  1  0
 19 25  1  0
 19 18  2  0
 20 19  1  0
 21 20  1  6
 21 22  1  0
 22 13  1  0
 23 21  1  0
 24 23  1  0
 25 26  2  0
 26 16  1  0
 27 23  2  0
M  END
$$$$
