CMY.pdb
     RDKit          3D

 27 27  0  0  1  0  0  0  0  0999 V2000
   27.7510  -21.1551  -15.8044 N   0  0  0  0  0  0  0  0  0  0  0  0
   27.8306  -20.3572  -14.5969 C   0  0  1  0  0  0  0  0  0  0  0  0
   27.3253  -18.9410  -14.8469 C   0  0  0  0  0  0  0  0  0  0  0  0
   28.3820  -18.0719  -16.0262 S   0  0  0  0  0  0  0  0  0  0  0  0
   26.9848  -20.9283  -13.5161 C   0  0  0  0  0  0  0  0  0  0  0  0
   26.1118  -21.7396  -13.8364 O   0  0  0  0  0  0  0  0  0  0  0  0
   28.1956  -20.8604   -6.9338 C   0  0  0  0  0  0  0  0  0  0  0  0
   26.4450  -20.4245   -7.0842 S   0  0  0  0  0  0  0  0  0  0  0  0
   25.8066  -20.9035   -8.7047 C   0  0  0  0  0  0  0  0  0  0  0  0
   26.8509  -20.4733   -9.7458 C   0  0  0  0  0  0  0  0  0  0  0  0
   26.3008  -20.7672  -11.0921 C   0  0  2  0  0  0  0  0  0  0  0  0
   27.2021  -20.5313  -12.1735 N   0  0  0  0  0  0  0  0  0  0  0  0
   24.9720  -20.1998  -11.3840 C   0  0  0  0  0  0  0  0  0  0  0  0
   24.7855  -18.9662  -11.3881 O   0  0  0  0  0  0  0  0  0  0  0  0
   18.2500  -17.5174  -15.8211 O   0  0  0  0  0  0  0  0  0  0  0  0
   19.3948  -18.0499  -15.2153 C   0  0  0  0  0  0  0  0  0  0  0  0
   19.7480  -17.6483  -13.9450 C   0  0  0  0  0  0  0  0  0  0  0  0
   20.8824  -18.1626  -13.3191 C   0  0  0  0  0  0  0  0  0  0  0  0
   21.6881  -19.0885  -13.9474 C   0  0  0  0  0  0  0  0  0  0  0  0
   22.8871  -19.6310  -13.2907 C   0  0  0  0  0  0  0  0  0  0  0  0
   22.6101  -20.5702  -12.1560 C   0  0  2  0  0  0  0  0  0  0  0  0
   23.8846  -21.0660  -11.6656 N   0  0  0  0  0  0  0  0  0  0  0  0
   21.6642  -21.6445  -12.4538 C   0  0  0  0  0  0  0  0  0  0  0  0
   22.0809  -22.8060  -13.0753 O   0  0  0  0  0  0  0  0  0  0  0  0
   21.3204  -19.4791  -15.2170 C   0  0  0  0  0  0  0  0  0  0  0  0
   20.1931  -18.9714  -15.8456 C   0  0  0  0  0  0  0  0  0  0  0  0
   20.4607  -21.5243  -12.1483 O   0  0  0  0  0  0  0  0  0  0  0  0
  2  1  1  6
  3  2  1  0
  3  4  1  0
  5  6  2  0
  5  2  1  0
  7  8  1  0
  8  9  1  0
 11 10  1  1
 10  9  1  0
 11 12  1  0
 12  5  1  0
 13 14  2  0
 13 11  1  0
 16 15  1  0
 17 16  2  0
 18 17  1  0
 19 25  1  0
 19 18  2  0
 20 19  1  0
 21 20  1  6
 21 22  1  0
 22 13  1  0
 23 21  1  0
 24 23  1  0
 25 26  2  0
 26 16  1  0
 27 23  2  0
M  END
$$$$
