CMY.pdb
     RDKit          3D

 27 27  0  0  1  0  0  0  0  0999 V2000
   27.2623  -22.0311  -13.4407 N   0  0  0  0  0  0  0  0  0  0  0  0
   25.9666  -21.6782  -12.8950 C   0  0  1  0  0  0  0  0  0  0  0  0
   26.1089  -20.6526  -11.7764 C   0  0  0  0  0  0  0  0  0  0  0  0
   27.1794  -21.2707  -10.4593 S   0  0  0  0  0  0  0  0  0  0  0  0
   25.0945  -21.0636  -13.9302 C   0  0  0  0  0  0  0  0  0  0  0  0
   25.6390  -20.4375  -14.8436 O   0  0  0  0  0  0  0  0  0  0  0  0
   23.1922  -24.5129  -17.9724 C   0  0  0  0  0  0  0  0  0  0  0  0
   22.1626  -23.0727  -18.3505 S   0  0  0  0  0  0  0  0  0  0  0  0
   22.6726  -21.6485  -17.3633 C   0  0  0  0  0  0  0  0  0  0  0  0
   23.2333  -22.1939  -16.0413 C   0  0  0  0  0  0  0  0  0  0  0  0
   22.7976  -21.2858  -14.9518 C   0  0  2  0  0  0  0  0  0  0  0  0
   23.6885  -21.2123  -13.8390 N   0  0  0  0  0  0  0  0  0  0  0  0
   21.4041  -21.4449  -14.4979 C   0  0  0  0  0  0  0  0  0  0  0  0
   21.0255  -22.4931  -13.9370 O   0  0  0  0  0  0  0  0  0  0  0  0
   22.0799  -20.6254   -8.4613 O   0  0  0  0  0  0  0  0  0  0  0  0
   21.3334  -20.3265   -9.6079 C   0  0  0  0  0  0  0  0  0  0  0  0
   20.0473  -20.8059   -9.7328 C   0  0  0  0  0  0  0  0  0  0  0  0
   19.2827  -20.5233  -10.8635 C   0  0  0  0  0  0  0  0  0  0  0  0
   19.7852  -19.7564  -11.8933 C   0  0  0  0  0  0  0  0  0  0  0  0
   18.9819  -19.4587  -13.0889 C   0  0  0  0  0  0  0  0  0  0  0  0
   19.1132  -20.4585  -14.1978 C   0  0  2  0  0  0  0  0  0  0  0  0
   20.4749  -20.3923  -14.6996 N   0  0  0  0  0  0  0  0  0  0  0  0
   18.1149  -20.3448  -15.2599 C   0  0  0  0  0  0  0  0  0  0  0  0
   16.7680  -20.4882  -14.9873 O   0  0  0  0  0  0  0  0  0  0  0  0
   21.0727  -19.2852  -11.7522 C   0  0  0  0  0  0  0  0  0  0  0  0
   21.8390  -19.5625  -10.6300 C   0  0  0  0  0  0  0  0  0  0  0  0
   18.4699  -20.1155  -16.4336 O   0  0  0  0  0  0  0  0  0  0  0  0
  2  1  1  6
  3  2  1  0
  3  4  1  0
  5  6  2  0
  5  2  1  0
  7  8  1  0
  8  9  1  0
 11 10  1  6
 10  9  1  0
 11 12  1  0
 12  5  1  0
 13 14  2  0
 13 11  1  0
 16 15  1  0
 17 16  2  0
 18 17  1  0
 19 25  1  0
 19 18  2  0
 20 19  1  0
 21 20  1  1
 21 22  1  0
 22 13  1  0
 23 21  1  0
 24 23  1  0
 25 26  2  0
 26 16  1  0
 27 23  2  0
M  END
$$$$
