CMY.pdb
     RDKit          3D

 27 27  0  0  1  0  0  0  0  0999 V2000
   12.1555  -11.3534  -13.6172 N   0  0  0  0  0  0  0  0  0  0  0  0
   12.7065  -10.2752  -14.4141 C   0  0  1  0  0  0  0  0  0  0  0  0
   12.1341   -8.9309  -13.9797 C   0  0  0  0  0  0  0  0  0  0  0  0
   10.3294   -8.9367  -14.0571 S   0  0  0  0  0  0  0  0  0  0  0  0
   14.1815  -10.1841  -14.2524 C   0  0  0  0  0  0  0  0  0  0  0  0
   14.6345  -10.1657  -13.1047 O   0  0  0  0  0  0  0  0  0  0  0  0
   21.1429  -12.7676  -15.1770 C   0  0  0  0  0  0  0  0  0  0  0  0
   19.3418  -12.8907  -15.3124 S   0  0  0  0  0  0  0  0  0  0  0  0
   18.5959  -11.2477  -15.3967 C   0  0  0  0  0  0  0  0  0  0  0  0
   17.0740  -11.4461  -15.4580 C   0  0  0  0  0  0  0  0  0  0  0  0
   16.4362  -10.1085  -15.3836 C   0  0  2  0  0  0  0  0  0  0  0  0
   15.0089  -10.1221  -15.4007 N   0  0  0  0  0  0  0  0  0  0  0  0
   16.9618   -9.0907  -16.3114 C   0  0  0  0  0  0  0  0  0  0  0  0
   16.5479   -9.0154  -17.4860 O   0  0  0  0  0  0  0  0  0  0  0  0
   14.5893   -3.3067  -13.1148 O   0  0  0  0  0  0  0  0  0  0  0  0
   15.2236   -4.0630  -14.1082 C   0  0  0  0  0  0  0  0  0  0  0  0
   16.3371   -3.5603  -14.7461 C   0  0  0  0  0  0  0  0  0  0  0  0
   16.9874   -4.2923  -15.7384 C   0  0  0  0  0  0  0  0  0  0  0  0
   16.5404   -5.5411  -16.1148 C   0  0  0  0  0  0  0  0  0  0  0  0
   17.2227   -6.3147  -17.1632 C   0  0  0  0  0  0  0  0  0  0  0  0
   18.4219   -7.0829  -16.6959 C   0  0  2  0  0  0  0  0  0  0  0  0
   17.9540   -8.1799  -15.8664 N   0  0  0  0  0  0  0  0  0  0  0  0
   19.4571   -6.2837  -16.0422 C   0  0  0  0  0  0  0  0  0  0  0  0
   20.0540   -5.2226  -16.6956 O   0  0  0  0  0  0  0  0  0  0  0  0
   15.4259   -6.0286  -15.4669 C   0  0  0  0  0  0  0  0  0  0  0  0
   14.7741   -5.3057  -14.4788 C   0  0  0  0  0  0  0  0  0  0  0  0
   19.8167   -6.5524  -14.8783 O   0  0  0  0  0  0  0  0  0  0  0  0
  2  1  1  1
  3  2  1  0
  3  4  1  0
  5  6  2  0
  5  2  1  0
  7  8  1  0
  8  9  1  0
 11 10  1  6
 10  9  1  0
 11 12  1  0
 12  5  1  0
 13 14  2  0
 13 11  1  0
 16 15  1  0
 17 16  2  0
 18 17  1  0
 19 25  1  0
 19 18  2  0
 20 19  1  0
 21 20  1  1
 21 22  1  0
 22 13  1  0
 23 21  1  0
 24 23  1  0
 25 26  2  0
 26 16  1  0
 27 23  2  0
M  END
$$$$
