CMY.pdb
     RDKit          3D

 27 27  0  0  1  0  0  0  0  0999 V2000
   21.7046   -9.9638  -20.5828 N   0  0  0  0  0  0  0  0  0  0  0  0
   21.7645   -8.6846  -19.9038 C   0  0  1  0  0  0  0  0  0  0  0  0
   21.0250   -7.6132  -20.6966 C   0  0  0  0  0  0  0  0  0  0  0  0
   22.1029   -6.8600  -21.9351 S   0  0  0  0  0  0  0  0  0  0  0  0
   21.1158   -8.7519  -18.5679 C   0  0  0  0  0  0  0  0  0  0  0  0
   19.9598   -9.1800  -18.5104 O   0  0  0  0  0  0  0  0  0  0  0  0
   21.6213   -9.7578  -10.8993 C   0  0  0  0  0  0  0  0  0  0  0  0
   22.4893   -9.6139  -12.4814 S   0  0  0  0  0  0  0  0  0  0  0  0
   21.4405   -8.8087  -13.7121 C   0  0  0  0  0  0  0  0  0  0  0  0
   22.1769   -8.8944  -15.0574 C   0  0  0  0  0  0  0  0  0  0  0  0
   21.3048   -8.2892  -16.0942 C   0  0  2  0  0  0  0  0  0  0  0  0
   21.8315   -8.3301  -17.4202 N   0  0  0  0  0  0  0  0  0  0  0  0
   20.7673   -6.9520  -15.7847 C   0  0  0  0  0  0  0  0  0  0  0  0
   21.5151   -5.9549  -15.7277 O   0  0  0  0  0  0  0  0  0  0  0  0
   15.6959    0.1387  -15.7605 O   0  0  0  0  0  0  0  0  0  0  0  0
   16.3141   -1.1059  -15.9343 C   0  0  0  0  0  0  0  0  0  0  0  0
   17.6893   -1.1889  -15.9720 C   0  0  0  0  0  0  0  0  0  0  0  0
   18.3298   -2.4150  -16.1438 C   0  0  0  0  0  0  0  0  0  0  0  0
   17.6117   -3.5839  -16.2816 C   0  0  0  0  0  0  0  0  0  0  0  0
   18.2845   -4.8788  -16.4657 C   0  0  0  0  0  0  0  0  0  0  0  0
   18.7983   -5.5038  -15.2040 C   0  0  2  0  0  0  0  0  0  0  0  0
   19.3781   -6.7908  -15.5472 N   0  0  0  0  0  0  0  0  0  0  0  0
   17.8274   -5.5955  -14.1146 C   0  0  0  0  0  0  0  0  0  0  0  0
   17.4945   -4.4841  -13.3642 O   0  0  0  0  0  0  0  0  0  0  0  0
   16.2377   -3.4829  -16.2416 C   0  0  0  0  0  0  0  0  0  0  0  0
   15.5940   -2.2663  -16.0709 C   0  0  0  0  0  0  0  0  0  0  0  0
   17.2842   -6.6863  -13.8476 O   0  0  0  0  0  0  0  0  0  0  0  0
  2  1  1  6
  3  2  1  0
  3  4  1  0
  5  6  2  0
  5  2  1  0
  7  8  1  0
  8  9  1  0
 11 10  1  1
 10  9  1  0
 11 12  1  0
 12  5  1  0
 13 14  2  0
 13 11  1  0
 16 15  1  0
 17 16  2  0
 18 17  1  0
 19 25  1  0
 19 18  2  0
 20 19  1  0
 21 20  1  6
 21 22  1  0
 22 13  1  0
 23 21  1  0
 24 23  1  0
 25 26  2  0
 26 16  1  0
 27 23  2  0
M  END
$$$$
