NNH.pdb
     RDKit          3D

 27 27  0  0  1  0  0  0  0  0999 V2000
    8.0698  -15.1769   11.5474 N   0  0  0  0  0  0  0  0  0  0  0  0
    7.7305  -16.4944   11.8947 C   0  0  0  0  0  0  0  0  0  0  0  0
    6.9886  -17.1628   11.1386 O   0  0  0  0  0  0  0  0  0  0  0  0
    8.2409  -17.1015   13.1452 C   0  0  0  0  0  0  0  0  0  0  0  0
    9.0463  -16.1108   13.9636 C   0  0  2  0  0  0  0  0  0  0  0  0
   10.2625  -15.7248   13.2960 N   0  0  0  0  0  0  0  0  0  0  0  0
    9.3897  -16.7615   15.2392 C   0  0  0  0  0  0  0  0  0  0  0  0
    8.4753  -17.1592   15.9966 O   0  0  0  0  0  0  0  0  0  0  0  0
   12.2294  -20.9680   17.2422 N   0  0  0  0  0  0  0  0  0  0  0  0
   12.2238  -19.5970   17.6587 C   0  0  0  0  0  0  0  0  0  0  0  0
   12.2560  -19.3079   18.8812 O   0  0  0  0  0  0  0  0  0  0  0  0
   12.1800  -18.5546   16.6332 C   0  0  0  0  0  0  0  0  0  0  0  0
   10.9899  -17.6375   16.8821 C   0  0  2  0  0  0  0  0  0  0  0  0
   10.7345  -16.9559   15.6449 N   0  0  0  0  0  0  0  0  0  0  0  0
   11.2939  -16.6202   17.9059 C   0  0  0  0  0  0  0  0  0  0  0  0
   12.0875  -15.6487   17.6771 O   0  0  0  0  0  0  0  0  0  0  0  0
   10.7149  -16.6758   19.1968 N   0  0  0  0  0  0  0  0  0  0  0  0
   11.0094  -15.5719   20.1673 C   0  0  1  0  0  0  0  0  0  0  0  0
    9.6470  -15.1723   20.6650 C   0  0  0  0  0  0  0  0  0  0  0  0
    8.9294  -14.2125   19.8240 C   0  0  0  0  0  0  0  0  0  0  0  0
    9.2365  -13.5858   18.6518 C   0  0  0  0  0  0  0  0  0  0  0  0
    8.1581  -12.8442   18.2963 N   0  0  0  0  0  0  0  0  0  0  0  0
    7.1908  -12.9910   19.2092 C   0  0  0  0  0  0  0  0  0  0  0  0
    7.6629  -13.8222   20.1340 N   0  0  0  0  0  0  0  0  0  0  0  0
   11.7091  -16.2233   21.3288 C   0  0  0  0  0  0  0  0  0  0  0  0
   11.1042  -17.1396   21.9324 O   0  0  0  0  0  0  0  0  0  0  0  0
   12.9343  -15.8543   21.7228 O   0  0  0  0  0  0  0  0  0  0  0  0
  2  1  1  0
  3  2  2  0
  4  2  1  0
  5  4  1  0
  5  6  1  6
  7  5  1  0
  7  8  2  0
  9 10  1  0
 10 12  1  0
 10 11  2  0
 13 12  1  6
 13 14  1  0
 14  7  1  0
 15 13  1  0
 15 17  1  0
 16 15  2  0
 18 17  1  0
 18 19  1  1
 20 19  1  0
 20 21  2  0
 22 21  1  0
 23 22  1  0
 24 23  2  0
 24 20  1  0
 25 18  1  0
 26 25  2  0
 27 25  1  0
M  END
$$$$
