NNH.pdb
     RDKit          3D

 27 27  0  0  1  0  0  0  0  0999 V2000
    9.6834  -17.4039   13.8322 N   0  0  0  0  0  0  0  0  0  0  0  0
   10.5997  -17.9211   14.7619 C   0  0  0  0  0  0  0  0  0  0  0  0
   10.7973  -19.1568   14.8151 O   0  0  0  0  0  0  0  0  0  0  0  0
   11.3346  -17.0208   15.6797 C   0  0  0  0  0  0  0  0  0  0  0  0
   11.1620  -17.4322   17.1291 C   0  0  2  0  0  0  0  0  0  0  0  0
    9.8083  -17.8295   17.4178 N   0  0  0  0  0  0  0  0  0  0  0  0
   11.5057  -16.2705   17.9661 C   0  0  0  0  0  0  0  0  0  0  0  0
   12.6793  -15.8336   17.9660 O   0  0  0  0  0  0  0  0  0  0  0  0
    8.8368  -12.8865   17.2886 N   0  0  0  0  0  0  0  0  0  0  0  0
   10.0777  -13.0187   17.9926 C   0  0  0  0  0  0  0  0  0  0  0  0
   11.1663  -12.8177   17.3977 O   0  0  0  0  0  0  0  0  0  0  0  0
   10.0432  -13.3900   19.4072 C   0  0  0  0  0  0  0  0  0  0  0  0
   10.9779  -14.5669   19.6533 C   0  0  2  0  0  0  0  0  0  0  0  0
   10.5440  -15.6216   18.7815 N   0  0  0  0  0  0  0  0  0  0  0  0
   10.8799  -15.0565   21.0411 C   0  0  0  0  0  0  0  0  0  0  0  0
   11.1353  -14.3072   22.0407 O   0  0  0  0  0  0  0  0  0  0  0  0
   10.4953  -16.3885   21.3287 N   0  0  0  0  0  0  0  0  0  0  0  0
   10.4314  -16.8273   22.7608 C   0  0  1  0  0  0  0  0  0  0  0  0
    8.9994  -17.2561   22.9305 C   0  0  0  0  0  0  0  0  0  0  0  0
    8.0001  -16.2149   22.6840 C   0  0  0  0  0  0  0  0  0  0  0  0
    7.7024  -15.0396   23.3095 C   0  0  0  0  0  0  0  0  0  0  0  0
    6.7105  -14.4454   22.6009 N   0  0  0  0  0  0  0  0  0  0  0  0
    6.3834  -15.2130   21.5547 C   0  0  0  0  0  0  0  0  0  0  0  0
    7.1685  -16.2852   21.6089 N   0  0  0  0  0  0  0  0  0  0  0  0
   11.2600  -18.0802   22.8427 C   0  0  0  0  0  0  0  0  0  0  0  0
   11.3914  -18.6179   23.9666 O   0  0  0  0  0  0  0  0  0  0  0  0
   11.8466  -18.6201   21.7670 O   0  0  0  0  0  0  0  0  0  0  0  0
  2  1  1  0
  3  2  2  0
  4  2  1  0
  5  4  1  0
  5  6  1  6
  7  5  1  0
  7  8  2  0
  9 10  1  0
 10 12  1  0
 10 11  2  0
 13 12  1  1
 13 14  1  0
 14  7  1  0
 15 13  1  0
 15 17  1  0
 16 15  2  0
 18 17  1  0
 18 19  1  6
 20 19  1  0
 20 21  2  0
 22 21  1  0
 23 22  1  0
 24 23  2  0
 24 20  1  0
 25 18  1  0
 26 25  2  0
 27 25  1  0
M  END
$$$$
