NNH.pdb
     RDKit          3D

 27 27  0  0  1  0  0  0  0  0999 V2000
    9.2494  -16.7116   13.7454 N   0  0  0  0  0  0  0  0  0  0  0  0
    8.3653  -15.6634   14.0473 C   0  0  0  0  0  0  0  0  0  0  0  0
    7.4480  -15.3761   13.2442 O   0  0  0  0  0  0  0  0  0  0  0  0
    8.5065  -14.8943   15.3048 C   0  0  0  0  0  0  0  0  0  0  0  0
    9.6393  -15.4229   16.1634 C   0  0  2  0  0  0  0  0  0  0  0  0
    9.4362  -16.7997   16.5336 N   0  0  0  0  0  0  0  0  0  0  0  0
    9.6913  -14.6042   17.3863 C   0  0  0  0  0  0  0  0  0  0  0  0
    9.4010  -13.3874   17.3288 O   0  0  0  0  0  0  0  0  0  0  0  0
    8.4607  -12.2901   18.8664 N   0  0  0  0  0  0  0  0  0  0  0  0
    7.5680  -13.2983   19.3560 C   0  0  0  0  0  0  0  0  0  0  0  0
    6.3259  -13.1089   19.3305 O   0  0  0  0  0  0  0  0  0  0  0  0
    8.1356  -14.5403   19.8806 C   0  0  0  0  0  0  0  0  0  0  0  0
    9.6563  -14.4697   19.8374 C   0  0  2  0  0  0  0  0  0  0  0  0
   10.0624  -15.1510   18.6409 N   0  0  0  0  0  0  0  0  0  0  0  0
   10.2646  -15.1679   20.9854 C   0  0  0  0  0  0  0  0  0  0  0  0
   10.1124  -14.7570   22.1829 O   0  0  0  0  0  0  0  0  0  0  0  0
   11.0496  -16.3331   20.8095 N   0  0  0  0  0  0  0  0  0  0  0  0
   12.3054  -16.4846   21.6141 C   0  0  1  0  0  0  0  0  0  0  0  0
   13.0106  -15.1714   21.4106 C   0  0  0  0  0  0  0  0  0  0  0  0
   13.7159  -15.0300   20.1354 C   0  0  0  0  0  0  0  0  0  0  0  0
   13.8285  -15.8310   19.0368 C   0  0  0  0  0  0  0  0  0  0  0  0
   14.5637  -15.1557   18.1189 N   0  0  0  0  0  0  0  0  0  0  0  0
   14.9103  -13.9607   18.6113 C   0  0  0  0  0  0  0  0  0  0  0  0
   14.3936  -13.8886   19.8347 N   0  0  0  0  0  0  0  0  0  0  0  0
   11.8689  -16.5111   23.0535 C   0  0  0  0  0  0  0  0  0  0  0  0
   10.6773  -16.2173   23.3053 O   0  0  0  0  0  0  0  0  0  0  0  0
   12.7058  -16.8334   24.0478 O   0  0  0  0  0  0  0  0  0  0  0  0
  2  1  1  0
  3  2  2  0
  4  2  1  0
  5  4  1  0
  5  6  1  1
  7  5  1  0
  7  8  2  0
  9 10  1  0
 10 12  1  0
 10 11  2  0
 13 12  1  1
 13 14  1  0
 14  7  1  0
 15 13  1  0
 15 17  1  0
 16 15  2  0
 18 17  1  0
 18 19  1  1
 20 19  1  0
 20 21  2  0
 22 21  1  0
 23 22  1  0
 24 23  2  0
 24 20  1  0
 25 18  1  0
 26 25  2  0
 27 25  1  0
M  END
$$$$
