NNH.pdb
     RDKit          3D

 27 27  0  0  1  0  0  0  0  0999 V2000
    6.8391  -16.2135   13.2727 N   0  0  0  0  0  0  0  0  0  0  0  0
    7.7808  -15.7174   14.1884 C   0  0  0  0  0  0  0  0  0  0  0  0
    8.6564  -14.9100   13.8004 O   0  0  0  0  0  0  0  0  0  0  0  0
    7.7494  -16.1388   15.6077 C   0  0  0  0  0  0  0  0  0  0  0  0
    9.1015  -16.6416   16.0753 C   0  0  2  0  0  0  0  0  0  0  0  0
    9.5283  -17.8022   15.3373 N   0  0  0  0  0  0  0  0  0  0  0  0
    8.9756  -17.0019   17.4976 C   0  0  0  0  0  0  0  0  0  0  0  0
    8.2171  -16.3367   18.2394 O   0  0  0  0  0  0  0  0  0  0  0  0
   12.4729  -20.2116   19.8911 N   0  0  0  0  0  0  0  0  0  0  0  0
   11.3626  -19.8950   19.0426 C   0  0  0  0  0  0  0  0  0  0  0  0
   11.5448  -19.6776   17.8183 O   0  0  0  0  0  0  0  0  0  0  0  0
   10.0260  -19.8324   19.6338 C   0  0  0  0  0  0  0  0  0  0  0  0
    9.4383  -18.4420   19.4313 C   0  0  2  0  0  0  0  0  0  0  0  0
    9.6908  -18.0879   18.0633 N   0  0  0  0  0  0  0  0  0  0  0  0
   10.1024  -17.4423   20.2885 C   0  0  0  0  0  0  0  0  0  0  0  0
   11.2821  -17.0230   20.0465 O   0  0  0  0  0  0  0  0  0  0  0  0
    9.4569  -16.8992   21.4256 N   0  0  0  0  0  0  0  0  0  0  0  0
   10.1564  -15.8300   22.2098 C   0  0  1  0  0  0  0  0  0  0  0  0
    9.0975  -14.7756   22.3835 C   0  0  0  0  0  0  0  0  0  0  0  0
    8.8085  -13.9756   21.1919 C   0  0  0  0  0  0  0  0  0  0  0  0
    9.3300  -13.9559   19.9314 C   0  0  0  0  0  0  0  0  0  0  0  0
    8.6264  -13.0422   19.2179 N   0  0  0  0  0  0  0  0  0  0  0  0
    7.6839  -12.4945   19.9941 C   0  0  0  0  0  0  0  0  0  0  0  0
    7.7979  -13.0639   21.1907 N   0  0  0  0  0  0  0  0  0  0  0  0
   10.3980  -16.4148   23.5747 C   0  0  0  0  0  0  0  0  0  0  0  0
    9.8356  -17.5000   23.8502 O   0  0  0  0  0  0  0  0  0  0  0  0
   11.1814  -15.8155   24.4800 O   0  0  0  0  0  0  0  0  0  0  0  0
  2  1  1  0
  3  2  2  0
  4  2  1  0
  5  4  1  0
  5  6  1  6
  7  5  1  0
  7  8  2  0
  9 10  1  0
 10 12  1  0
 10 11  2  0
 13 12  1  1
 13 14  1  0
 14  7  1  0
 15 13  1  0
 15 17  1  0
 16 15  2  0
 18 17  1  0
 18 19  1  1
 20 19  1  0
 20 21  2  0
 22 21  1  0
 23 22  1  0
 24 23  2  0
 24 20  1  0
 25 18  1  0
 26 25  2  0
 27 25  1  0
M  END
$$$$
