NNH.pdb
     RDKit          3D

 27 27  0  0  1  0  0  0  0  0999 V2000
   13.1824  -17.6074   16.7819 N   0  0  0  0  0  0  0  0  0  0  0  0
   11.9204  -17.6927   17.3916 C   0  0  0  0  0  0  0  0  0  0  0  0
   11.3067  -18.7846   17.3952 O   0  0  0  0  0  0  0  0  0  0  0  0
   11.3080  -16.5053   18.0303 C   0  0  0  0  0  0  0  0  0  0  0  0
   11.1668  -16.6830   19.5297 C   0  0  2  0  0  0  0  0  0  0  0  0
   10.2369  -17.7312   19.8618 N   0  0  0  0  0  0  0  0  0  0  0  0
   10.6697  -15.4126   20.0843 C   0  0  0  0  0  0  0  0  0  0  0  0
   11.3459  -14.3685   19.9409 O   0  0  0  0  0  0  0  0  0  0  0  0
    8.8549  -12.9313   18.9532 N   0  0  0  0  0  0  0  0  0  0  0  0
    7.6055  -13.2561   19.5749 C   0  0  0  0  0  0  0  0  0  0  0  0
    6.5256  -13.0629   18.9618 O   0  0  0  0  0  0  0  0  0  0  0  0
    7.6211  -13.8128   20.9276 C   0  0  0  0  0  0  0  0  0  0  0  0
    9.0579  -14.0714   21.3611 C   0  0  2  0  0  0  0  0  0  0  0  0
    9.4384  -15.3288   20.7826 N   0  0  0  0  0  0  0  0  0  0  0  0
    9.1685  -14.1946   22.8267 C   0  0  0  0  0  0  0  0  0  0  0  0
    8.8589  -13.2369   23.6097 O   0  0  0  0  0  0  0  0  0  0  0  0
    9.6258  -15.3886   23.4350 N   0  0  0  0  0  0  0  0  0  0  0  0
    9.7582  -15.4326   24.9276 C   0  0  1  0  0  0  0  0  0  0  0  0
    8.3762  -15.8069   25.3894 C   0  0  0  0  0  0  0  0  0  0  0  0
    7.4880  -14.6812   25.6848 C   0  0  0  0  0  0  0  0  0  0  0  0
    7.6394  -13.5391   26.4155 C   0  0  0  0  0  0  0  0  0  0  0  0
    6.4949  -12.8230   26.2866 N   0  0  0  0  0  0  0  0  0  0  0  0
    5.6381  -13.4828   25.4984 C   0  0  0  0  0  0  0  0  0  0  0  0
    6.2448  -14.6094   25.1354 N   0  0  0  0  0  0  0  0  0  0  0  0
   10.6382  -16.6156   25.2261 C   0  0  0  0  0  0  0  0  0  0  0  0
   11.0292  -17.3084   24.2582 O   0  0  0  0  0  0  0  0  0  0  0  0
   11.0037  -16.9373   26.4734 O   0  0  0  0  0  0  0  0  0  0  0  0
  2  1  1  0
  3  2  2  0
  4  2  1  0
  5  4  1  0
  5  6  1  6
  7  5  1  0
  7  8  2  0
  9 10  1  0
 10 12  1  0
 10 11  2  0
 13 12  1  1
 13 14  1  0
 14  7  1  0
 15 13  1  0
 15 17  1  0
 16 15  2  0
 18 17  1  0
 18 19  1  1
 20 19  1  0
 20 21  2  0
 22 21  1  0
 23 22  1  0
 24 23  2  0
 24 20  1  0
 25 18  1  0
 26 25  2  0
 27 25  1  0
M  END
$$$$
