NNH.pdb
     RDKit          3D

 27 27  0  0  1  0  0  0  0  0999 V2000
    8.8409  -14.4899   13.7238 N   0  0  0  0  0  0  0  0  0  0  0  0
    8.5251  -14.2382   15.0685 C   0  0  0  0  0  0  0  0  0  0  0  0
    7.4846  -13.6010   15.3517 O   0  0  0  0  0  0  0  0  0  0  0  0
    9.4095  -14.7181   16.1550 C   0  0  0  0  0  0  0  0  0  0  0  0
   10.6617  -15.3782   15.6109 C   0  0  2  0  0  0  0  0  0  0  0  0
   10.3620  -16.5884   14.8902 N   0  0  0  0  0  0  0  0  0  0  0  0
   11.5254  -15.7084   16.7569 C   0  0  0  0  0  0  0  0  0  0  0  0
   11.4270  -16.8313   17.3023 O   0  0  0  0  0  0  0  0  0  0  0  0
   16.1356  -16.3736   17.5392 N   0  0  0  0  0  0  0  0  0  0  0  0
   15.4479  -15.1738   17.1644 C   0  0  0  0  0  0  0  0  0  0  0  0
   15.5387  -14.7338   15.9908 O   0  0  0  0  0  0  0  0  0  0  0  0
   14.6461  -14.4825   18.1741 C   0  0  0  0  0  0  0  0  0  0  0  0
   13.3170  -15.2030   18.3575 C   0  0  2  0  0  0  0  0  0  0  0  0
   12.4756  -14.7896   17.2705 N   0  0  0  0  0  0  0  0  0  0  0  0
   12.6567  -14.8108   19.6167 C   0  0  0  0  0  0  0  0  0  0  0  0
   12.9041  -13.6994   20.1907 O   0  0  0  0  0  0  0  0  0  0  0  0
   11.7123  -15.6550   20.2493 N   0  0  0  0  0  0  0  0  0  0  0  0
   11.1270  -15.2265   21.5612 C   0  0  1  0  0  0  0  0  0  0  0  0
    9.6442  -15.3496   21.3385 C   0  0  0  0  0  0  0  0  0  0  0  0
    9.0481  -14.3082   20.4997 C   0  0  0  0  0  0  0  0  0  0  0  0
    9.5532  -13.1967   19.8909 C   0  0  0  0  0  0  0  0  0  0  0  0
    8.5442  -12.6304   19.1836 N   0  0  0  0  0  0  0  0  0  0  0  0
    7.4290  -13.3550   19.3324 C   0  0  0  0  0  0  0  0  0  0  0  0
    7.7394  -14.3720   20.1313 N   0  0  0  0  0  0  0  0  0  0  0  0
   11.4970  -16.3022   22.5456 C   0  0  0  0  0  0  0  0  0  0  0  0
   12.0260  -17.3450   22.0959 O   0  0  0  0  0  0  0  0  0  0  0  0
   11.2782  -16.1732   23.8603 O   0  0  0  0  0  0  0  0  0  0  0  0
  2  1  1  0
  3  2  2  0
  4  2  1  0
  5  4  1  0
  5  6  1  1
  7  5  1  0
  7  8  2  0
  9 10  1  0
 10 12  1  0
 10 11  2  0
 13 12  1  6
 13 14  1  0
 14  7  1  0
 15 13  1  0
 15 17  1  0
 16 15  2  0
 18 17  1  0
 18 19  1  6
 20 19  1  0
 20 21  2  0
 22 21  1  0
 23 22  1  0
 24 23  2  0
 24 20  1  0
 25 18  1  0
 26 25  2  0
 27 25  1  0
M  END
$$$$
