NNH.pdb
     RDKit          3D

 27 27  0  0  1  0  0  0  0  0999 V2000
   10.1129  -18.3211   15.4366 N   0  0  0  0  0  0  0  0  0  0  0  0
    8.7764  -17.9675   15.6820 C   0  0  0  0  0  0  0  0  0  0  0  0
    7.9021  -18.8617   15.7532 O   0  0  0  0  0  0  0  0  0  0  0  0
    8.3901  -16.5488   15.8575 C   0  0  0  0  0  0  0  0  0  0  0  0
    9.5789  -15.6193   15.7069 C   0  0  2  0  0  0  0  0  0  0  0  0
   10.6862  -16.0242   16.5338 N   0  0  0  0  0  0  0  0  0  0  0  0
    9.1465  -14.2726   16.1167 C   0  0  0  0  0  0  0  0  0  0  0  0
    8.1302  -13.7629   15.5919 O   0  0  0  0  0  0  0  0  0  0  0  0
    7.9166  -13.2849   20.6986 N   0  0  0  0  0  0  0  0  0  0  0  0
    7.3809  -14.1911   19.7267 C   0  0  0  0  0  0  0  0  0  0  0  0
    6.3487  -14.8591   19.9870 O   0  0  0  0  0  0  0  0  0  0  0  0
    8.0607  -14.3162   18.4374 C   0  0  0  0  0  0  0  0  0  0  0  0
    9.2854  -13.4114   18.4115 C   0  0  2  0  0  0  0  0  0  0  0  0
    9.8480  -13.5241   17.0957 N   0  0  0  0  0  0  0  0  0  0  0  0
   10.3062  -13.8524   19.3804 C   0  0  0  0  0  0  0  0  0  0  0  0
   10.0411  -14.0022   20.6187 O   0  0  0  0  0  0  0  0  0  0  0  0
   11.6347  -14.1315   18.9779 N   0  0  0  0  0  0  0  0  0  0  0  0
   12.5446  -14.8399   19.9357 C   0  0  1  0  0  0  0  0  0  0  0  0
   12.0430  -16.2580   19.9093 C   0  0  0  0  0  0  0  0  0  0  0  0
   10.9864  -16.5668   20.8745 C   0  0  0  0  0  0  0  0  0  0  0  0
   10.8603  -16.3641   22.2177 C   0  0  0  0  0  0  0  0  0  0  0  0
    9.6280  -16.8010   22.5777 N   0  0  0  0  0  0  0  0  0  0  0  0
    8.9841  -17.2674   21.5013 C   0  0  0  0  0  0  0  0  0  0  0  0
    9.8118  -17.1231   20.4703 N   0  0  0  0  0  0  0  0  0  0  0  0
   13.8975  -14.8581   19.2780 C   0  0  0  0  0  0  0  0  0  0  0  0
   13.9577  -14.5571   18.0634 O   0  0  0  0  0  0  0  0  0  0  0  0
   15.0120  -15.1817   19.9458 O   0  0  0  0  0  0  0  0  0  0  0  0
  2  1  1  0
  3  2  2  0
  4  2  1  0
  5  4  1  0
  5  6  1  1
  7  5  1  0
  7  8  2  0
  9 10  1  0
 10 12  1  0
 10 11  2  0
 13 12  1  6
 13 14  1  0
 14  7  1  0
 15 13  1  0
 15 17  1  0
 16 15  2  0
 18 17  1  0
 18 19  1  6
 20 19  1  0
 20 21  2  0
 22 21  1  0
 23 22  1  0
 24 23  2  0
 24 20  1  0
 25 18  1  0
 26 25  2  0
 27 25  1  0
M  END
$$$$
