ECA.pdb
     RDKit          3D

 21 20  0  0  1  0  0  0  0  0999 V2000
    7.7685  -12.9258   16.6626 N   0  0  0  0  0  0  0  0  0  0  0  0
    7.8025  -14.2508   17.3179 C   0  0  1  0  0  0  0  0  0  0  0  0
    8.6400  -15.1451   16.4631 C   0  0  0  0  0  0  0  0  0  0  0  0
    8.7502  -16.5199   17.0099 C   0  0  0  0  0  0  0  0  0  0  0  0
    9.4907  -17.3979   16.0896 C   0  0  0  0  0  0  0  0  0  0  0  0
   10.0375  -17.0516   15.0319 O   0  0  0  0  0  0  0  0  0  0  0  0
    8.3822  -14.1304   18.6634 C   0  0  0  0  0  0  0  0  0  0  0  0
    9.4229  -13.4662   18.8430 O   0  0  0  0  0  0  0  0  0  0  0  0
    9.5780  -18.7533   16.4568 O   0  0  0  0  0  0  0  0  0  0  0  0
    7.8016  -14.7495   19.8041 N   0  0  0  0  0  0  0  0  0  0  0  0
    8.3258  -14.6191   21.1467 C   0  0  1  0  0  0  0  0  0  0  0  0
    7.1405  -14.4097   22.0639 C   0  0  0  0  0  0  0  0  0  0  0  0
    7.5844  -14.4668   23.7974 S   0  0  0  0  0  0  0  0  0  0  0  0
    9.0995  -15.8320   21.5179 C   0  0  0  0  0  0  0  0  0  0  0  0
    8.6661  -16.9976   21.2350 O   0  0  0  0  0  0  0  0  0  0  0  0
   12.6209  -16.5831   22.5305 C   0  0  0  0  0  0  0  0  0  0  0  0
   11.1498  -16.8700   22.5543 C   0  0  2  0  0  0  0  0  0  0  0  0
   10.3310  -15.7460   22.1906 N   0  0  0  0  0  0  0  0  0  0  0  0
   10.7985  -17.3151   23.9287 C   0  0  0  0  0  0  0  0  0  0  0  0
   11.3554  -18.4061   24.5538 O   0  0  0  0  0  0  0  0  0  0  0  0
    9.9269  -16.6681   24.6053 O   0  0  0  0  0  0  0  0  0  0  0  0
  2  1  1  6
  3  2  1  0
  3  4  1  0
  4  5  1  0
  5  9  1  0
  5  6  2  0
  7  2  1  0
  7 10  1  0
  8  7  2  0
 11 10  1  0
 11 12  1  1
 13 12  1  0
 14 18  1  0
 14 11  1  0
 15 14  2  0
 17 18  1  0
 17 16  1  1
 19 17  1  0
 20 19  1  0
 21 19  2  0
M  END
$$$$
