ECA.pdb
     RDKit          3D

 21 20  0  0  1  0  0  0  0  0999 V2000
    9.3601  -18.0417   21.5041 N   0  0  0  0  0  0  0  0  0  0  0  0
   10.6246  -17.4656   22.0093 C   0  0  1  0  0  0  0  0  0  0  0  0
   11.3985  -16.9900   20.8232 C   0  0  0  0  0  0  0  0  0  0  0  0
   11.1174  -17.7834   19.6015 C   0  0  0  0  0  0  0  0  0  0  0  0
   12.1615  -17.5776   18.5847 C   0  0  0  0  0  0  0  0  0  0  0  0
   13.1720  -16.8697   18.7091 O   0  0  0  0  0  0  0  0  0  0  0  0
   10.3382  -16.3489   22.9213 C   0  0  0  0  0  0  0  0  0  0  0  0
   11.2329  -15.5304   23.2144 O   0  0  0  0  0  0  0  0  0  0  0  0
   11.9834  -18.2530   17.3634 O   0  0  0  0  0  0  0  0  0  0  0  0
    9.0570  -16.1471   23.5039 N   0  0  0  0  0  0  0  0  0  0  0  0
    8.7686  -15.1202   24.4819 C   0  0  1  0  0  0  0  0  0  0  0  0
    7.2702  -15.1217   24.6938 C   0  0  0  0  0  0  0  0  0  0  0  0
    6.7292  -13.8595   25.8423 S   0  0  0  0  0  0  0  0  0  0  0  0
    9.5018  -15.3914   25.7455 C   0  0  0  0  0  0  0  0  0  0  0  0
    9.7526  -16.5863   26.1138 O   0  0  0  0  0  0  0  0  0  0  0  0
   10.7031  -13.2982   28.6727 C   0  0  0  0  0  0  0  0  0  0  0  0
   10.6340  -14.5352   27.8287 C   0  0  2  0  0  0  0  0  0  0  0  0
    9.9460  -14.3510   26.5803 N   0  0  0  0  0  0  0  0  0  0  0  0
    9.9459  -15.5865   28.6236 C   0  0  0  0  0  0  0  0  0  0  0  0
   10.5670  -16.3757   29.5631 O   0  0  0  0  0  0  0  0  0  0  0  0
    8.6968  -15.8010   28.4514 O   0  0  0  0  0  0  0  0  0  0  0  0
  2  1  1  6
  3  2  1  0
  3  4  1  0
  4  5  1  0
  5  9  1  0
  5  6  2  0
  7  2  1  0
  7 10  1  0
  8  7  2  0
 11 10  1  0
 11 12  1  1
 13 12  1  0
 14 18  1  0
 14 11  1  0
 15 14  2  0
 17 18  1  0
 17 16  1  1
 19 17  1  0
 20 19  1  0
 21 19  2  0
M  END
$$$$
