ECA.pdb
     RDKit          3D

 21 20  0  0  1  0  0  0  0  0999 V2000
   11.1715  -18.3081   21.4832 N   0  0  0  0  0  0  0  0  0  0  0  0
   11.0151  -16.8794   21.1363 C   0  0  1  0  0  0  0  0  0  0  0  0
   10.4259  -16.8197   19.7648 C   0  0  0  0  0  0  0  0  0  0  0  0
   10.8529  -17.9538   18.9090 C   0  0  0  0  0  0  0  0  0  0  0  0
   11.5151  -17.4738   17.6853 C   0  0  0  0  0  0  0  0  0  0  0  0
   10.9584  -16.9316   16.7189 O   0  0  0  0  0  0  0  0  0  0  0  0
   10.1304  -16.2209   22.1082 C   0  0  0  0  0  0  0  0  0  0  0  0
    9.7494  -15.0482   21.9186 O   0  0  0  0  0  0  0  0  0  0  0  0
   12.9089  -17.6534   17.6199 O   0  0  0  0  0  0  0  0  0  0  0  0
    9.6729  -16.8700   23.2876 N   0  0  0  0  0  0  0  0  0  0  0  0
    8.8942  -16.2162   24.3174 C   0  0  1  0  0  0  0  0  0  0  0  0
    7.7922  -17.1752   24.7122 C   0  0  0  0  0  0  0  0  0  0  0  0
    6.8308  -16.5936   26.1060 S   0  0  0  0  0  0  0  0  0  0  0  0
    9.7590  -15.8676   25.4742 C   0  0  0  0  0  0  0  0  0  0  0  0
   10.7547  -16.5986   25.7915 O   0  0  0  0  0  0  0  0  0  0  0  0
    9.8876  -13.0352   28.0096 C   0  0  0  0  0  0  0  0  0  0  0  0
   10.2487  -14.3770   27.4474 C   0  0  2  0  0  0  0  0  0  0  0  0
    9.5178  -14.7273   26.2604 N   0  0  0  0  0  0  0  0  0  0  0  0
    9.9951  -15.3924   28.5034 C   0  0  0  0  0  0  0  0  0  0  0  0
   10.7168  -15.4913   29.6698 O   0  0  0  0  0  0  0  0  0  0  0  0
    9.0544  -16.2461   28.3544 O   0  0  0  0  0  0  0  0  0  0  0  0
  2  1  1  1
  3  2  1  0
  3  4  1  0
  4  5  1  0
  5  9  1  0
  5  6  2  0
  7  2  1  0
  7 10  1  0
  8  7  2  0
 11 10  1  0
 11 12  1  1
 13 12  1  0
 14 18  1  0
 14 11  1  0
 15 14  2  0
 17 18  1  0
 17 16  1  1
 19 17  1  0
 20 19  1  0
 21 19  2  0
M  END
$$$$
