ECA.pdb
     RDKit          3D

 21 20  0  0  1  0  0  0  0  0999 V2000
    7.5347  -17.0881   21.9096 N   0  0  0  0  0  0  0  0  0  0  0  0
    8.8855  -16.4869   21.9045 C   0  0  1  0  0  0  0  0  0  0  0  0
    9.0950  -15.8823   20.5545 C   0  0  0  0  0  0  0  0  0  0  0  0
    8.2033  -16.4655   19.5221 C   0  0  0  0  0  0  0  0  0  0  0  0
    8.4817  -15.8907   18.1960 C   0  0  0  0  0  0  0  0  0  0  0  0
    7.8674  -14.9548   17.6626 O   0  0  0  0  0  0  0  0  0  0  0  0
    8.9816  -15.4597   22.9515 C   0  0  0  0  0  0  0  0  0  0  0  0
    9.9700  -14.6998   22.9988 O   0  0  0  0  0  0  0  0  0  0  0  0
    9.5462  -16.4665   17.4786 O   0  0  0  0  0  0  0  0  0  0  0  0
    7.9774  -15.2817   23.9422 N   0  0  0  0  0  0  0  0  0  0  0  0
    8.1423  -14.4543   25.1180 C   0  0  1  0  0  0  0  0  0  0  0  0
    6.7857  -14.3558   25.7813 C   0  0  0  0  0  0  0  0  0  0  0  0
    5.7674  -13.0549   25.0915 S   0  0  0  0  0  0  0  0  0  0  0  0
    9.1562  -15.0478   26.0277 C   0  0  0  0  0  0  0  0  0  0  0  0
    9.5857  -16.2346   25.8448 O   0  0  0  0  0  0  0  0  0  0  0  0
   11.0308  -13.8711   29.1241 C   0  0  0  0  0  0  0  0  0  0  0  0
   10.6234  -14.8544   28.0685 C   0  0  2  0  0  0  0  0  0  0  0  0
    9.6799  -14.3318   27.1185 N   0  0  0  0  0  0  0  0  0  0  0  0
   10.0344  -16.0350   28.7540 C   0  0  0  0  0  0  0  0  0  0  0  0
   10.7634  -16.9588   29.4656 O   0  0  0  0  0  0  0  0  0  0  0  0
    8.7729  -16.2390   28.7017 O   0  0  0  0  0  0  0  0  0  0  0  0
  2  1  1  6
  3  2  1  0
  3  4  1  0
  4  5  1  0
  5  9  1  0
  5  6  2  0
  7  2  1  0
  7 10  1  0
  8  7  2  0
 11 10  1  0
 11 12  1  1
 13 12  1  0
 14 18  1  0
 14 11  1  0
 15 14  2  0
 17 18  1  0
 17 16  1  1
 19 17  1  0
 20 19  1  0
 21 19  2  0
M  END
$$$$
