ECA.pdb
     RDKit          3D

 21 20  0  0  1  0  0  0  0  0999 V2000
    9.7022  -15.4270   20.5514 N   0  0  0  0  0  0  0  0  0  0  0  0
    9.0231  -16.0885   21.6861 C   0  0  1  0  0  0  0  0  0  0  0  0
    9.7178  -17.3904   21.9186 C   0  0  0  0  0  0  0  0  0  0  0  0
   10.9589  -17.5275   21.1174 C   0  0  0  0  0  0  0  0  0  0  0  0
   11.6041  -18.8282   21.3590 C   0  0  0  0  0  0  0  0  0  0  0  0
   12.8238  -19.0316   21.4528 O   0  0  0  0  0  0  0  0  0  0  0  0
    9.1030  -15.2389   22.8830 C   0  0  0  0  0  0  0  0  0  0  0  0
   10.1137  -14.5375   23.0905 O   0  0  0  0  0  0  0  0  0  0  0  0
   10.7451  -19.9342   21.4938 O   0  0  0  0  0  0  0  0  0  0  0  0
    8.0578  -15.1729   23.8447 N   0  0  0  0  0  0  0  0  0  0  0  0
    8.0722  -14.2909   24.9919 C   0  0  1  0  0  0  0  0  0  0  0  0
    6.6333  -14.1030   25.4213 C   0  0  0  0  0  0  0  0  0  0  0  0
    6.4739  -13.1113   26.9033 S   0  0  0  0  0  0  0  0  0  0  0  0
    8.8980  -14.8747   26.0805 C   0  0  0  0  0  0  0  0  0  0  0  0
    8.9951  -16.1382   26.2234 O   0  0  0  0  0  0  0  0  0  0  0  0
   10.9840  -13.5160   28.9510 C   0  0  0  0  0  0  0  0  0  0  0  0
   10.5599  -14.5453   27.9472 C   0  0  2  0  0  0  0  0  0  0  0  0
    9.6008  -14.0654   26.9902 N   0  0  0  0  0  0  0  0  0  0  0  0
    9.9827  -15.6940   28.6941 C   0  0  0  0  0  0  0  0  0  0  0  0
   10.7168  -16.5549   29.4758 O   0  0  0  0  0  0  0  0  0  0  0  0
    8.7271  -15.9295   28.6310 O   0  0  0  0  0  0  0  0  0  0  0  0
  2  1  1  6
  3  2  1  0
  3  4  1  0
  4  5  1  0
  5  9  1  0
  5  6  2  0
  7  2  1  0
  7 10  1  0
  8  7  2  0
 11 10  1  0
 11 12  1  1
 13 12  1  0
 14 18  1  0
 14 11  1  0
 15 14  2  0
 17 18  1  0
 17 16  1  1
 19 17  1  0
 20 19  1  0
 21 19  2  0
M  END
$$$$
