ECA.pdb
     RDKit          3D

 21 20  0  0  1  0  0  0  0  0999 V2000
    9.5565  -24.7793   25.7056 N   0  0  0  0  0  0  0  0  0  0  0  0
   10.9338  -24.3241   25.9919 C   0  0  1  0  0  0  0  0  0  0  0  0
   11.4607  -23.6973   24.7424 C   0  0  0  0  0  0  0  0  0  0  0  0
   12.8339  -24.1504   24.4104 C   0  0  0  0  0  0  0  0  0  0  0  0
   13.3051  -23.5382   23.1576 C   0  0  0  0  0  0  0  0  0  0  0  0
   14.4410  -23.6496   22.6729 O   0  0  0  0  0  0  0  0  0  0  0  0
   10.9218  -23.3506   27.0933 C   0  0  0  0  0  0  0  0  0  0  0  0
   10.4647  -22.2036   26.9143 O   0  0  0  0  0  0  0  0  0  0  0  0
   12.3691  -22.7568   22.4555 O   0  0  0  0  0  0  0  0  0  0  0  0
   11.4185  -23.6570   28.3898 N   0  0  0  0  0  0  0  0  0  0  0  0
   11.3859  -22.7347   29.5045 C   0  0  1  0  0  0  0  0  0  0  0  0
   10.2649  -23.1847   30.4161 C   0  0  0  0  0  0  0  0  0  0  0  0
    8.6419  -22.8856   29.7220 S   0  0  0  0  0  0  0  0  0  0  0  0
   12.6953  -22.7285   30.2068 C   0  0  0  0  0  0  0  0  0  0  0  0
   13.2169  -23.8126   30.6298 O   0  0  0  0  0  0  0  0  0  0  0  0
   15.2883  -20.0853   31.0752 C   0  0  0  0  0  0  0  0  0  0  0  0
   14.6710  -21.4508   31.1117 C   0  0  2  0  0  0  0  0  0  0  0  0
   13.4076  -21.5375   30.4320 N   0  0  0  0  0  0  0  0  0  0  0  0
   14.4931  -21.8282   32.5388 C   0  0  0  0  0  0  0  0  0  0  0  0
   13.2717  -21.9625   33.1562 O   0  0  0  0  0  0  0  0  0  0  0  0
   15.5172  -22.0502   33.2721 O   0  0  0  0  0  0  0  0  0  0  0  0
  2  1  1  6
  3  2  1  0
  3  4  1  0
  4  5  1  0
  5  9  1  0
  5  6  2  0
  7  2  1  0
  7 10  1  0
  8  7  2  0
 11 10  1  0
 11 12  1  1
 13 12  1  0
 14 18  1  0
 14 11  1  0
 15 14  2  0
 17 18  1  0
 17 16  1  1
 19 17  1  0
 20 19  1  0
 21 19  2  0
M  END
$$$$
