ECA.pdb
     RDKit          3D

 21 20  0  0  1  0  0  0  0  0999 V2000
    8.3673  -15.3028   20.1360 N   0  0  0  0  0  0  0  0  0  0  0  0
    8.1544  -15.9697   21.4384 C   0  0  1  0  0  0  0  0  0  0  0  0
    9.0542  -17.1616   21.4767 C   0  0  0  0  0  0  0  0  0  0  0  0
   10.4063  -16.8750   20.9374 C   0  0  0  0  0  0  0  0  0  0  0  0
   11.2648  -18.0690   20.9987 C   0  0  0  0  0  0  0  0  0  0  0  0
   10.9371  -19.1818   21.4368 O   0  0  0  0  0  0  0  0  0  0  0  0
    8.4751  -15.0443   22.5345 C   0  0  0  0  0  0  0  0  0  0  0  0
    9.3542  -14.1719   22.3845 O   0  0  0  0  0  0  0  0  0  0  0  0
   12.5761  -17.9190   20.5116 O   0  0  0  0  0  0  0  0  0  0  0  0
    7.8162  -15.0930   23.7935 N   0  0  0  0  0  0  0  0  0  0  0  0
    8.0596  -14.1544   24.8678 C   0  0  1  0  0  0  0  0  0  0  0  0
    6.7165  -13.8377   25.4889 C   0  0  0  0  0  0  0  0  0  0  0  0
    5.9774  -15.2495   26.3047 S   0  0  0  0  0  0  0  0  0  0  0  0
    8.9989  -14.7388   25.8597 C   0  0  0  0  0  0  0  0  0  0  0  0
    9.4494  -15.9233   25.7166 O   0  0  0  0  0  0  0  0  0  0  0  0
   10.6692  -13.5098   29.0512 C   0  0  0  0  0  0  0  0  0  0  0  0
   10.3734  -14.4924   27.9585 C   0  0  2  0  0  0  0  0  0  0  0  0
    9.4265  -14.0165   26.9876 N   0  0  0  0  0  0  0  0  0  0  0  0
    9.8518  -15.7312   28.5940 C   0  0  0  0  0  0  0  0  0  0  0  0
   10.5970  -16.5588   29.4007 O   0  0  0  0  0  0  0  0  0  0  0  0
    8.6373  -16.0836   28.4020 O   0  0  0  0  0  0  0  0  0  0  0  0
  2  1  1  6
  3  2  1  0
  3  4  1  0
  4  5  1  0
  5  9  1  0
  5  6  2  0
  7  2  1  0
  7 10  1  0
  8  7  2  0
 11 10  1  0
 11 12  1  1
 13 12  1  0
 14 18  1  0
 14 11  1  0
 15 14  2  0
 17 18  1  0
 17 16  1  1
 19 17  1  0
 20 19  1  0
 21 19  2  0
M  END
$$$$
