ECA.pdb
     RDKit          3D

 21 20  0  0  1  0  0  0  0  0999 V2000
    9.5870  -15.4882   20.6049 N   0  0  0  0  0  0  0  0  0  0  0  0
    8.6818  -15.9572   21.6758 C   0  0  1  0  0  0  0  0  0  0  0  0
    9.0231  -17.3858   21.9487 C   0  0  0  0  0  0  0  0  0  0  0  0
   10.3407  -17.7759   21.3893 C   0  0  0  0  0  0  0  0  0  0  0  0
   10.6167  -19.2015   21.6295 C   0  0  0  0  0  0  0  0  0  0  0  0
   11.7166  -19.7619   21.5117 O   0  0  0  0  0  0  0  0  0  0  0  0
    8.8687  -15.1411   22.8841 C   0  0  0  0  0  0  0  0  0  0  0  0
    9.9585  -14.5725   23.0970 O   0  0  0  0  0  0  0  0  0  0  0  0
    9.5217  -19.9893   22.0292 O   0  0  0  0  0  0  0  0  0  0  0  0
    7.8420  -14.9607   23.8510 N   0  0  0  0  0  0  0  0  0  0  0  0
    7.9785  -14.1270   25.0260 C   0  0  1  0  0  0  0  0  0  0  0  0
    6.5887  -13.9329   25.5924 C   0  0  0  0  0  0  0  0  0  0  0  0
    6.5320  -12.6984   26.8877 S   0  0  0  0  0  0  0  0  0  0  0  0
    8.8876  -14.7689   26.0105 C   0  0  0  0  0  0  0  0  0  0  0  0
    9.0137  -16.0371   26.0560 O   0  0  0  0  0  0  0  0  0  0  0  0
   11.0226  -13.5712   28.9137 C   0  0  0  0  0  0  0  0  0  0  0  0
   10.5621  -14.5574   27.8830 C   0  0  2  0  0  0  0  0  0  0  0  0
    9.6403  -14.0113   26.9249 N   0  0  0  0  0  0  0  0  0  0  0  0
    9.9198  -15.6916   28.5982 C   0  0  0  0  0  0  0  0  0  0  0  0
   10.6109  -16.6703   29.2734 O   0  0  0  0  0  0  0  0  0  0  0  0
    8.6454  -15.7989   28.6091 O   0  0  0  0  0  0  0  0  0  0  0  0
  2  1  1  6
  3  2  1  0
  3  4  1  0
  4  5  1  0
  5  9  1  0
  5  6  2  0
  7  2  1  0
  7 10  1  0
  8  7  2  0
 11 10  1  0
 11 12  1  1
 13 12  1  0
 14 18  1  0
 14 11  1  0
 15 14  2  0
 17 18  1  0
 17 16  1  1
 19 17  1  0
 20 19  1  0
 21 19  2  0
M  END
$$$$
