AHS.pdb
     RDKit          3D

 22 22  0  0  1  0  0  0  0  0999 V2000
   15.5631  -12.9554  -14.2084 C   0  0  0  0  0  0  0  0  0  0  0  0
   15.8313  -13.1844  -15.6857 C   0  0  2  0  0  0  0  0  0  0  0  0
   15.9839  -14.5859  -15.9160 N   0  0  0  0  0  0  0  0  0  0  0  0
   17.0789  -12.4694  -16.0589 C   0  0  0  0  0  0  0  0  0  0  0  0
   18.1862  -12.9766  -15.7284 O   0  0  0  0  0  0  0  0  0  0  0  0
   17.0123  -11.2205  -16.7849 N   0  0  0  0  0  0  0  0  0  0  0  0
   18.2055  -10.5747  -17.2214 C   0  0  1  0  0  0  0  0  0  0  0  0
   18.2643  -10.1384  -18.6295 C   0  0  0  0  0  0  0  0  0  0  0  0
   18.2504  -11.2677  -19.5863 C   0  0  0  0  0  0  0  0  0  0  0  0
   19.2919  -11.9187  -20.2077 C   0  0  0  0  0  0  0  0  0  0  0  0
   18.7977  -12.8846  -21.0227 N   0  0  0  0  0  0  0  0  0  0  0  0
   17.4627  -12.8572  -20.9292 C   0  0  0  0  0  0  0  0  0  0  0  0
   17.1258  -11.8908  -20.0703 N   0  0  0  0  0  0  0  0  0  0  0  0
   18.6064   -9.4863  -16.2653 C   0  0  0  0  0  0  0  0  0  0  0  0
   17.6864   -8.8344  -15.7238 O   0  0  0  0  0  0  0  0  0  0  0  0
   21.6261   -7.7436  -13.0065 O   0  0  0  0  0  0  0  0  0  0  0  0
   21.2098   -8.7066  -13.9036 C   0  0  0  0  0  0  0  0  0  0  0  0
   20.3224   -8.1533  -14.9880 C   0  0  2  0  0  0  0  0  0  0  0  0
   19.9407   -9.1658  -15.9511 N   0  0  0  0  0  0  0  0  0  0  0  0
   21.0054   -7.0153  -15.6542 C   0  0  0  0  0  0  0  0  0  0  0  0
   21.4916   -7.1029  -16.8073 O   0  0  0  0  0  0  0  0  0  0  0  0
   21.1227   -5.8001  -14.9974 O   0  0  0  0  0  0  0  0  0  0  0  0
  2  1  1  1
  2  4  1  0
  3  2  1  0
  4  5  2  0
  4  6  1  0
  6  7  1  0
  7  8  1  6
  7 14  1  0
  9 10  2  0
  9  8  1  0
 11 10  1  0
 12 13  2  0
 12 11  1  0
 13  9  1  0
 14 19  1  0
 15 14  2  0
 17 16  1  0
 18 20  1  0
 18 17  1  1
 19 18  1  0
 20 22  1  0
 21 20  2  0
M  END
$$$$
