AHS.pdb
     RDKit          3D

 22 22  0  0  1  0  0  0  0  0999 V2000
   17.4254  -11.6534  -16.3033 C   0  0  0  0  0  0  0  0  0  0  0  0
   18.5849  -11.1409  -17.1398 C   0  0  2  0  0  0  0  0  0  0  0  0
   19.5771  -12.1645  -17.2307 N   0  0  0  0  0  0  0  0  0  0  0  0
   19.1542   -9.9389  -16.4778 C   0  0  0  0  0  0  0  0  0  0  0  0
   19.0897   -9.8561  -15.2202 O   0  0  0  0  0  0  0  0  0  0  0  0
   19.7659   -8.8940  -17.2685 N   0  0  0  0  0  0  0  0  0  0  0  0
   20.3119   -7.7380  -16.6386 C   0  0  1  0  0  0  0  0  0  0  0  0
   21.7740   -7.6980  -16.4451 C   0  0  0  0  0  0  0  0  0  0  0  0
   22.2759   -8.8025  -15.5969 C   0  0  0  0  0  0  0  0  0  0  0  0
   22.2745   -8.9425  -14.2277 C   0  0  0  0  0  0  0  0  0  0  0  0
   22.8629  -10.1189  -13.8942 N   0  0  0  0  0  0  0  0  0  0  0  0
   23.2372  -10.7263  -15.0267 C   0  0  0  0  0  0  0  0  0  0  0  0
   22.8893   -9.9441  -16.0526 N   0  0  0  0  0  0  0  0  0  0  0  0
   19.7815   -6.4818  -17.2711 C   0  0  0  0  0  0  0  0  0  0  0  0
   19.6637   -6.4752  -18.5165 O   0  0  0  0  0  0  0  0  0  0  0  0
   16.8680   -4.3147  -15.7437 O   0  0  0  0  0  0  0  0  0  0  0  0
   17.8519   -3.4703  -16.2175 C   0  0  0  0  0  0  0  0  0  0  0  0
   18.8148   -4.1572  -17.1506 C   0  0  2  0  0  0  0  0  0  0  0  0
   19.4155   -5.3301  -16.5491 N   0  0  0  0  0  0  0  0  0  0  0  0
   19.8545   -3.1915  -17.5880 C   0  0  0  0  0  0  0  0  0  0  0  0
   21.0751   -3.3637  -17.3548 O   0  0  0  0  0  0  0  0  0  0  0  0
   19.4875   -2.0488  -18.2820 O   0  0  0  0  0  0  0  0  0  0  0  0
  2  1  1  1
  2  4  1  0
  3  2  1  0
  4  5  2  0
  4  6  1  0
  6  7  1  0
  7  8  1  6
  7 14  1  0
  9 10  2  0
  9  8  1  0
 11 10  1  0
 12 13  2  0
 12 11  1  0
 13  9  1  0
 14 19  1  0
 15 14  2  0
 17 16  1  0
 18 20  1  0
 18 17  1  1
 19 18  1  0
 20 22  1  0
 21 20  2  0
M  END
$$$$
