AHS.pdb
     RDKit          3D

 22 22  0  0  1  0  0  0  0  0999 V2000
   20.5762  -12.0706  -19.6958 C   0  0  0  0  0  0  0  0  0  0  0  0
   20.6217  -13.0914  -18.5720 C   0  0  2  0  0  0  0  0  0  0  0  0
   20.5151  -14.4009  -19.1325 N   0  0  0  0  0  0  0  0  0  0  0  0
   19.4825  -12.8377  -17.6529 C   0  0  0  0  0  0  0  0  0  0  0  0
   18.3130  -13.0778  -18.0619 O   0  0  0  0  0  0  0  0  0  0  0  0
   19.7218  -12.3269  -16.3213 N   0  0  0  0  0  0  0  0  0  0  0  0
   18.6314  -12.0654  -15.4416 C   0  0  1  0  0  0  0  0  0  0  0  0
   18.6769  -12.6836  -14.1028 C   0  0  0  0  0  0  0  0  0  0  0  0
   18.4867  -14.1512  -14.1363 C   0  0  0  0  0  0  0  0  0  0  0  0
   18.1342  -14.9780  -15.1787 C   0  0  0  0  0  0  0  0  0  0  0  0
   18.0594  -16.2577  -14.7336 N   0  0  0  0  0  0  0  0  0  0  0  0
   18.3575  -16.2567  -13.4287 C   0  0  0  0  0  0  0  0  0  0  0  0
   18.6150  -14.9979  -13.0620 N   0  0  0  0  0  0  0  0  0  0  0  0
   18.3290  -10.5941  -15.3852 C   0  0  0  0  0  0  0  0  0  0  0  0
   19.2911   -9.8207  -15.1826 O   0  0  0  0  0  0  0  0  0  0  0  0
   16.7159   -8.4115  -17.9212 O   0  0  0  0  0  0  0  0  0  0  0  0
   16.0159   -8.1770  -16.7548 C   0  0  0  0  0  0  0  0  0  0  0  0
   16.7593   -8.6270  -15.5241 C   0  0  2  0  0  0  0  0  0  0  0  0
   17.0416  -10.0477  -15.5457 N   0  0  0  0  0  0  0  0  0  0  0  0
   15.9829   -8.2569  -14.3136 C   0  0  0  0  0  0  0  0  0  0  0  0
   15.5133   -9.1132  -13.5262 O   0  0  0  0  0  0  0  0  0  0  0  0
   15.7551   -6.9210  -14.0211 O   0  0  0  0  0  0  0  0  0  0  0  0
  2  1  1  6
  2  4  1  0
  3  2  1  0
  4  5  2  0
  4  6  1  0
  6  7  1  0
  7  8  1  1
  7 14  1  0
  9 10  2  0
  9  8  1  0
 11 10  1  0
 12 13  2  0
 12 11  1  0
 13  9  1  0
 14 19  1  0
 15 14  2  0
 17 16  1  0
 18 20  1  0
 18 17  1  6
 19 18  1  0
 20 22  1  0
 21 20  2  0
M  END
$$$$
