WWW.pdb
     RDKit          3D

 43 48  0  0  1  0  0  0  0  0999 V2000
   27.5556  -20.6543   -9.1454 N   0  0  0  0  0  0  0  0  0  0  0  0
   26.1562  -20.7118   -8.8137 C   0  0  1  0  0  0  0  0  0  0  0  0
   25.8350  -19.9363   -7.5565 C   0  0  0  0  0  0  0  0  0  0  0  0
   27.1640  -19.4493   -7.0447 C   0  0  0  0  0  0  0  0  0  0  0  0
   27.8793  -18.3949   -7.5478 C   0  0  0  0  0  0  0  0  0  0  0  0
   29.0090  -18.2572   -6.8601 N   0  0  0  0  0  0  0  0  0  0  0  0
   29.0762  -19.2096   -5.8865 C   0  0  0  0  0  0  0  0  0  0  0  0
   30.0343  -19.4775   -4.9358 C   0  0  0  0  0  0  0  0  0  0  0  0
   29.7932  -20.5459   -4.0782 C   0  0  0  0  0  0  0  0  0  0  0  0
   28.6320  -21.2825   -4.2057 C   0  0  0  0  0  0  0  0  0  0  0  0
   27.6775  -21.0070   -5.1623 C   0  0  0  0  0  0  0  0  0  0  0  0
   27.9147  -19.9552   -6.0074 C   0  0  0  0  0  0  0  0  0  0  0  0
   25.2915  -20.3165   -9.9735 C   0  0  0  0  0  0  0  0  0  0  0  0
   24.7989  -19.1657   -9.9863 O   0  0  0  0  0  0  0  0  0  0  0  0
   25.0527  -21.2418  -11.0181 N   0  0  0  0  0  0  0  0  0  0  0  0
   24.7010  -20.9395  -12.3760 C   0  0  1  0  0  0  0  0  0  0  0  0
   25.4640  -21.7655  -13.4183 C   0  0  0  0  0  0  0  0  0  0  0  0
   26.8231  -21.2748  -13.6731 C   0  0  0  0  0  0  0  0  0  0  0  0
   28.0308  -21.7781  -13.3010 C   0  0  0  0  0  0  0  0  0  0  0  0
   28.9785  -20.9549  -13.7964 N   0  0  0  0  0  0  0  0  0  0  0  0
   28.4065  -19.9460  -14.4717 C   0  0  0  0  0  0  0  0  0  0  0  0
   28.9372  -18.8641  -15.1577 C   0  0  0  0  0  0  0  0  0  0  0  0
   28.0866  -17.9771  -15.7721 C   0  0  0  0  0  0  0  0  0  0  0  0
   26.7128  -18.1620  -15.7067 C   0  0  0  0  0  0  0  0  0  0  0  0
   26.1712  -19.2324  -15.0281 C   0  0  0  0  0  0  0  0  0  0  0  0
   27.0551  -20.1152  -14.4149 C   0  0  0  0  0  0  0  0  0  0  0  0
   23.2592  -21.0715  -12.5971 C   0  0  0  0  0  0  0  0  0  0  0  0
   22.6586  -22.0389  -12.0767 O   0  0  0  0  0  0  0  0  0  0  0  0
   22.5560  -20.1434  -13.3705 N   0  0  0  0  0  0  0  0  0  0  0  0
   21.1555  -20.1944  -13.7211 C   0  0  1  0  0  0  0  0  0  0  0  0
   20.5506  -18.8302  -13.8813 C   0  0  0  0  0  0  0  0  0  0  0  0
   19.1386  -18.9000  -14.2622 C   0  0  0  0  0  0  0  0  0  0  0  0
   18.0916  -19.0215  -13.4007 C   0  0  0  0  0  0  0  0  0  0  0  0
   16.9692  -19.0939  -14.1328 N   0  0  0  0  0  0  0  0  0  0  0  0
   17.2859  -19.0193  -15.4289 C   0  0  0  0  0  0  0  0  0  0  0  0
   16.4315  -19.0369  -16.5341 C   0  0  0  0  0  0  0  0  0  0  0  0
   16.9940  -18.9235  -17.7835 C   0  0  0  0  0  0  0  0  0  0  0  0
   18.3566  -18.7973  -17.9237 C   0  0  0  0  0  0  0  0  0  0  0  0
   19.1747  -18.7835  -16.8234 C   0  0  0  0  0  0  0  0  0  0  0  0
   18.6447  -18.8967  -15.5378 C   0  0  0  0  0  0  0  0  0  0  0  0
   20.8526  -21.1496  -14.7714 C   0  0  0  0  0  0  0  0  0  0  0  0
   19.7622  -21.9945  -14.8396 O   0  0  0  0  0  0  0  0  0  0  0  0
   21.6888  -21.2234  -15.7395 O   0  0  0  0  0  0  0  0  0  0  0  0
  2  1  1  6
  3  2  1  0
  4  5  2  0
  4  3  1  0
  6  5  1  0
  7 12  2  0
  7  6  1  0
  8  7  1  0
  9 10  1  0
  9  8  2  0
 10 11  2  0
 11 12  1  0
 12  4  1  0
 13 15  1  0
 13  2  1  0
 14 13  2  0
 16 27  1  0
 16 15  1  0
 16 17  1  6
 18 26  1  0
 18 17  1  0
 19 18  2  0
 20 19  1  0
 20 21  1  0
 21 22  1  0
 21 26  2  0
 22 23  2  0
 23 24  1  0
 25 24  2  0
 26 25  1  0
 27 28  2  0
 29 30  1  0
 29 27  1  0
 30 41  1  0
 30 31  1  6
 32 31  1  0
 33 32  2  0
 34 35  1  0
 34 33  1  0
 35 40  2  0
 36 37  2  0
 36 35  1  0
 37 38  1  0
 38 39  2  0
 40 39  1  0
 40 32  1  0
 41 42  1  0
 43 41  2  0
M  END
$$$$
