WWW.pdb
     RDKit          3D

 43 48  0  0  1  0  0  0  0  0999 V2000
   25.7584  -20.5163  -18.6433 N   0  0  0  0  0  0  0  0  0  0  0  0
   25.5299  -21.4582  -17.5792 C   0  0  1  0  0  0  0  0  0  0  0  0
   25.7778  -22.8841  -18.0157 C   0  0  0  0  0  0  0  0  0  0  0  0
   24.7947  -23.1311  -19.1283 C   0  0  0  0  0  0  0  0  0  0  0  0
   25.1054  -23.2821  -20.4538 C   0  0  0  0  0  0  0  0  0  0  0  0
   23.9898  -23.4733  -21.1517 N   0  0  0  0  0  0  0  0  0  0  0  0
   22.9129  -23.4553  -20.3153 C   0  0  0  0  0  0  0  0  0  0  0  0
   21.5662  -23.6017  -20.5575 C   0  0  0  0  0  0  0  0  0  0  0  0
   20.7143  -23.5262  -19.4604 C   0  0  0  0  0  0  0  0  0  0  0  0
   21.2340  -23.3126  -18.1987 C   0  0  0  0  0  0  0  0  0  0  0  0
   22.5854  -23.1663  -17.9658 C   0  0  0  0  0  0  0  0  0  0  0  0
   23.4247  -23.2401  -19.0460 C   0  0  0  0  0  0  0  0  0  0  0  0
   26.2895  -21.0931  -16.3387 C   0  0  0  0  0  0  0  0  0  0  0  0
   27.5069  -21.3787  -16.2780 O   0  0  0  0  0  0  0  0  0  0  0  0
   25.6225  -20.4407  -15.2740 N   0  0  0  0  0  0  0  0  0  0  0  0
   26.2102  -19.9392  -14.0648 C   0  0  1  0  0  0  0  0  0  0  0  0
   26.1213  -18.4162  -13.9112 C   0  0  0  0  0  0  0  0  0  0  0  0
   26.6658  -17.6797  -15.0575 C   0  0  0  0  0  0  0  0  0  0  0  0
   26.0752  -16.7897  -15.8998 C   0  0  0  0  0  0  0  0  0  0  0  0
   27.0132  -16.3911  -16.7843 N   0  0  0  0  0  0  0  0  0  0  0  0
   28.1802  -17.0018  -16.5263 C   0  0  0  0  0  0  0  0  0  0  0  0
   29.4252  -16.9278  -17.1322 C   0  0  0  0  0  0  0  0  0  0  0  0
   30.4598  -17.6815  -16.6330 C   0  0  0  0  0  0  0  0  0  0  0  0
   30.2608  -18.5071  -15.5354 C   0  0  0  0  0  0  0  0  0  0  0  0
   29.0287  -18.5911  -14.9234 C   0  0  0  0  0  0  0  0  0  0  0  0
   27.9985  -17.8173  -15.4492 C   0  0  0  0  0  0  0  0  0  0  0  0
   25.6409  -20.5910  -12.8832 C   0  0  0  0  0  0  0  0  0  0  0  0
   24.4095  -20.8152  -12.8566 O   0  0  0  0  0  0  0  0  0  0  0  0
   26.4446  -20.9607  -11.8008 N   0  0  0  0  0  0  0  0  0  0  0  0
   26.0099  -21.2067  -10.4453 C   0  0  1  0  0  0  0  0  0  0  0  0
   27.1485  -21.5367   -9.5249 C   0  0  0  0  0  0  0  0  0  0  0  0
   27.0412  -20.8291   -8.2476 C   0  0  0  0  0  0  0  0  0  0  0  0
   25.9200  -20.2216   -7.7712 C   0  0  0  0  0  0  0  0  0  0  0  0
   26.2339  -19.6519   -6.5974 N   0  0  0  0  0  0  0  0  0  0  0  0
   27.5209  -19.8883   -6.3260 C   0  0  0  0  0  0  0  0  0  0  0  0
   28.2581  -19.4979   -5.2053 C   0  0  0  0  0  0  0  0  0  0  0  0
   29.5766  -19.8814   -5.1375 C   0  0  0  0  0  0  0  0  0  0  0  0
   30.1371  -20.6258   -6.1495 C   0  0  0  0  0  0  0  0  0  0  0  0
   29.3931  -20.9960   -7.2402 C   0  0  0  0  0  0  0  0  0  0  0  0
   28.0520  -20.6271   -7.3485 C   0  0  0  0  0  0  0  0  0  0  0  0
   25.0593  -20.2268   -9.9519 C   0  0  0  0  0  0  0  0  0  0  0  0
   23.8556  -20.4774   -9.3228 O   0  0  0  0  0  0  0  0  0  0  0  0
   25.3646  -18.9939  -10.1218 O   0  0  0  0  0  0  0  0  0  0  0  0
  2  1  1  6
  3  2  1  0
  4  5  2  0
  4  3  1  0
  6  5  1  0
  7 12  2  0
  7  6  1  0
  8  7  1  0
  9 10  1  0
  9  8  2  0
 10 11  2  0
 11 12  1  0
 12  4  1  0
 13 15  1  0
 13  2  1  0
 14 13  2  0
 16 27  1  0
 16 15  1  0
 16 17  1  1
 18 26  1  0
 18 17  1  0
 19 18  2  0
 20 19  1  0
 20 21  1  0
 21 22  1  0
 21 26  2  0
 22 23  2  0
 23 24  1  0
 25 24  2  0
 26 25  1  0
 27 28  2  0
 29 30  1  0
 29 27  1  0
 30 41  1  0
 30 31  1  1
 32 31  1  0
 33 32  2  0
 34 35  1  0
 34 33  1  0
 35 40  2  0
 36 37  2  0
 36 35  1  0
 37 38  1  0
 38 39  2  0
 40 39  1  0
 40 32  1  0
 41 42  1  0
 43 41  2  0
M  END
$$$$
