WWW.pdb
     RDKit          3D

 43 48  0  0  1  0  0  0  0  0999 V2000
   26.3918  -19.8868  -17.5040 N   0  0  0  0  0  0  0  0  0  0  0  0
   26.6499  -19.1910  -16.2708 C   0  0  1  0  0  0  0  0  0  0  0  0
   25.8299  -17.9273  -16.1458 C   0  0  0  0  0  0  0  0  0  0  0  0
   26.2323  -17.0796  -17.3225 C   0  0  0  0  0  0  0  0  0  0  0  0
   25.3828  -16.5552  -18.2605 C   0  0  0  0  0  0  0  0  0  0  0  0
   26.0835  -15.8708  -19.1599 N   0  0  0  0  0  0  0  0  0  0  0  0
   27.4099  -15.9203  -18.8471 C   0  0  0  0  0  0  0  0  0  0  0  0
   28.5144  -15.3799  -19.4650 C   0  0  0  0  0  0  0  0  0  0  0  0
   29.7514  -15.6264  -18.8782 C   0  0  0  0  0  0  0  0  0  0  0  0
   29.8281  -16.3846  -17.7264 C   0  0  0  0  0  0  0  0  0  0  0  0
   28.7154  -16.9227  -17.1145 C   0  0  0  0  0  0  0  0  0  0  0  0
   27.4971  -16.6806  -17.6923 C   0  0  0  0  0  0  0  0  0  0  0  0
   26.5069  -20.0930  -15.0812 C   0  0  0  0  0  0  0  0  0  0  0  0
   25.6342  -20.9900  -15.1133 O   0  0  0  0  0  0  0  0  0  0  0  0
   27.3516  -19.9138  -13.9593 N   0  0  0  0  0  0  0  0  0  0  0  0
   27.0782  -20.2941  -12.6029 C   0  0  1  0  0  0  0  0  0  0  0  0
   28.1371  -19.8274  -11.5971 C   0  0  0  0  0  0  0  0  0  0  0  0
   28.0838  -20.5426  -10.3170 C   0  0  0  0  0  0  0  0  0  0  0  0
   28.3864  -21.8327  -10.0100 C   0  0  0  0  0  0  0  0  0  0  0  0
   28.1770  -21.9899   -8.6861 N   0  0  0  0  0  0  0  0  0  0  0  0
   27.7517  -20.8373   -8.1460 C   0  0  0  0  0  0  0  0  0  0  0  0
   27.4112  -20.4852   -6.8488 C   0  0  0  0  0  0  0  0  0  0  0  0
   27.0078  -19.1982   -6.5872 C   0  0  0  0  0  0  0  0  0  0  0  0
   26.9420  -18.2618   -7.6093 C   0  0  0  0  0  0  0  0  0  0  0  0
   27.2769  -18.5976   -8.9034 C   0  0  0  0  0  0  0  0  0  0  0  0
   27.6818  -19.9077   -9.1405 C   0  0  0  0  0  0  0  0  0  0  0  0
   25.7534  -19.8378  -12.1762 C   0  0  0  0  0  0  0  0  0  0  0  0
   25.4228  -18.6533  -12.4107 O   0  0  0  0  0  0  0  0  0  0  0  0
   24.8669  -20.6967  -11.5203 N   0  0  0  0  0  0  0  0  0  0  0  0
   23.6227  -20.3329  -10.8828 C   0  0  1  0  0  0  0  0  0  0  0  0
   22.7036  -19.5790  -11.7989 C   0  0  0  0  0  0  0  0  0  0  0  0
   22.4286  -20.3225  -13.0299 C   0  0  0  0  0  0  0  0  0  0  0  0
   22.3771  -21.6784  -13.1407 C   0  0  0  0  0  0  0  0  0  0  0  0
   22.1433  -21.9723  -14.4290 N   0  0  0  0  0  0  0  0  0  0  0  0
   22.0454  -20.8368  -15.1267 C   0  0  0  0  0  0  0  0  0  0  0  0
   21.7904  -20.6747  -16.4907 C   0  0  0  0  0  0  0  0  0  0  0  0
   21.7130  -19.3932  -16.9825 C   0  0  0  0  0  0  0  0  0  0  0  0
   21.8837  -18.3155  -16.1448 C   0  0  0  0  0  0  0  0  0  0  0  0
   22.1340  -18.5002  -14.8094 C   0  0  0  0  0  0  0  0  0  0  0  0
   22.2210  -19.7840  -14.2699 C   0  0  0  0  0  0  0  0  0  0  0  0
   23.0175  -21.4146  -10.1271 C   0  0  0  0  0  0  0  0  0  0  0  0
   23.4565  -22.7215  -10.0465 O   0  0  0  0  0  0  0  0  0  0  0  0
   21.9573  -21.1306   -9.4659 O   0  0  0  0  0  0  0  0  0  0  0  0
  2  1  1  6
  3  2  1  0
  4  5  2  0
  4  3  1  0
  6  5  1  0
  7 12  2  0
  7  6  1  0
  8  7  1  0
  9 10  1  0
  9  8  2  0
 10 11  2  0
 11 12  1  0
 12  4  1  0
 13 15  1  0
 13  2  1  0
 14 13  2  0
 16 27  1  0
 16 15  1  0
 16 17  1  1
 18 26  1  0
 18 17  1  0
 19 18  2  0
 20 19  1  0
 20 21  1  0
 21 22  1  0
 21 26  2  0
 22 23  2  0
 23 24  1  0
 25 24  2  0
 26 25  1  0
 27 28  2  0
 29 30  1  0
 29 27  1  0
 30 41  1  0
 30 31  1  6
 32 31  1  0
 33 32  2  0
 34 35  1  0
 34 33  1  0
 35 40  2  0
 36 37  2  0
 36 35  1  0
 37 38  1  0
 38 39  2  0
 40 39  1  0
 40 32  1  0
 41 42  1  0
 43 41  2  0
M  END
$$$$
