WWW.pdb
     RDKit          3D

 43 48  0  0  1  0  0  0  0  0999 V2000
   26.5937  -20.1840  -18.8358 N   0  0  0  0  0  0  0  0  0  0  0  0
   26.4685  -19.1964  -17.7962 C   0  0  1  0  0  0  0  0  0  0  0  0
   25.5012  -18.0958  -18.1677 C   0  0  0  0  0  0  0  0  0  0  0  0
   26.2081  -17.2916  -19.2254 C   0  0  0  0  0  0  0  0  0  0  0  0
   25.9156  -17.2944  -20.5637 C   0  0  0  0  0  0  0  0  0  0  0  0
   26.7479  -16.4763  -21.2011 N   0  0  0  0  0  0  0  0  0  0  0  0
   27.6114  -15.9101  -20.3105 C   0  0  0  0  0  0  0  0  0  0  0  0
   28.6422  -15.0146  -20.4813 C   0  0  0  0  0  0  0  0  0  0  0  0
   29.3443  -14.6334  -19.3425 C   0  0  0  0  0  0  0  0  0  0  0  0
   28.9932  -15.1520  -18.1116 C   0  0  0  0  0  0  0  0  0  0  0  0
   27.9588  -16.0497  -17.9501 C   0  0  0  0  0  0  0  0  0  0  0  0
   27.2675  -16.4258  -19.0715 C   0  0  0  0  0  0  0  0  0  0  0  0
   26.1524  -19.8204  -16.4695 C   0  0  0  0  0  0  0  0  0  0  0  0
   25.4744  -20.8726  -16.4508 O   0  0  0  0  0  0  0  0  0  0  0  0
   26.6215  -19.2140  -15.2794 N   0  0  0  0  0  0  0  0  0  0  0  0
   26.3186  -19.6064  -13.9328 C   0  0  1  0  0  0  0  0  0  0  0  0
   27.4006  -19.2306  -12.9136 C   0  0  0  0  0  0  0  0  0  0  0  0
   27.5352  -20.1986  -11.8191 C   0  0  0  0  0  0  0  0  0  0  0  0
   28.2011  -21.3833  -11.7613 C   0  0  0  0  0  0  0  0  0  0  0  0
   28.0198  -21.8855  -10.5219 N   0  0  0  0  0  0  0  0  0  0  0  0
   27.2595  -21.0534   -9.7933 C   0  0  0  0  0  0  0  0  0  0  0  0
   26.8022  -21.1125   -8.4856 C   0  0  0  0  0  0  0  0  0  0  0  0
   26.0289  -20.0865   -7.9986 C   0  0  0  0  0  0  0  0  0  0  0  0
   25.7095  -19.0041   -8.8062 C   0  0  0  0  0  0  0  0  0  0  0  0
   26.1565  -18.9322  -10.1080 C   0  0  0  0  0  0  0  0  0  0  0  0
   26.9377  -19.9846  -10.5757 C   0  0  0  0  0  0  0  0  0  0  0  0
   25.0237  -19.0764  -13.4998 C   0  0  0  0  0  0  0  0  0  0  0  0
   24.8594  -17.8355  -13.4809 O   0  0  0  0  0  0  0  0  0  0  0  0
   23.9842  -19.9274  -13.1135 N   0  0  0  0  0  0  0  0  0  0  0  0
   22.6736  -20.0195  -13.7141 C   0  0  1  0  0  0  0  0  0  0  0  0
   22.7137  -19.8937  -15.2091 C   0  0  0  0  0  0  0  0  0  0  0  0
   21.3724  -19.7707  -15.7832 C   0  0  0  0  0  0  0  0  0  0  0  0
   20.2784  -19.2780  -15.1401 C   0  0  0  0  0  0  0  0  0  0  0  0
   19.2370  -19.3689  -15.9815 N   0  0  0  0  0  0  0  0  0  0  0  0
   19.6505  -19.9038  -17.1342 C   0  0  0  0  0  0  0  0  0  0  0  0
   18.9066  -20.1618  -18.2882 C   0  0  0  0  0  0  0  0  0  0  0  0
   19.5627  -20.7024  -19.3687 C   0  0  0  0  0  0  0  0  0  0  0  0
   20.9093  -20.9748  -19.2994 C   0  0  0  0  0  0  0  0  0  0  0  0
   21.6179  -20.7135  -18.1549 C   0  0  0  0  0  0  0  0  0  0  0  0
   20.9903  -20.1657  -17.0357 C   0  0  0  0  0  0  0  0  0  0  0  0
   21.8684  -21.1081  -13.1907 C   0  0  0  0  0  0  0  0  0  0  0  0
   20.5057  -21.1031  -12.9667 O   0  0  0  0  0  0  0  0  0  0  0  0
   22.4873  -22.1915  -12.8986 O   0  0  0  0  0  0  0  0  0  0  0  0
  2  1  1  6
  3  2  1  0
  4  5  2  0
  4  3  1  0
  6  5  1  0
  7 12  2  0
  7  6  1  0
  8  7  1  0
  9 10  1  0
  9  8  2  0
 10 11  2  0
 11 12  1  0
 12  4  1  0
 13 15  1  0
 13  2  1  0
 14 13  2  0
 16 27  1  0
 16 15  1  0
 16 17  1  1
 18 26  1  0
 18 17  1  0
 19 18  2  0
 20 19  1  0
 20 21  1  0
 21 22  1  0
 21 26  2  0
 22 23  2  0
 23 24  1  0
 25 24  2  0
 26 25  1  0
 27 28  2  0
 29 30  1  0
 29 27  1  0
 30 41  1  0
 30 31  1  6
 32 31  1  0
 33 32  2  0
 34 35  1  0
 34 33  1  0
 35 40  2  0
 36 37  2  0
 36 35  1  0
 37 38  1  0
 38 39  2  0
 40 39  1  0
 40 32  1  0
 41 42  1  0
 43 41  2  0
M  END
$$$$
