WWW.pdb
     RDKit          3D

 43 48  0  0  1  0  0  0  0  0999 V2000
   23.5846  -20.2406  -16.9965 N   0  0  0  0  0  0  0  0  0  0  0  0
   23.1657  -20.3794  -15.6265 C   0  0  1  0  0  0  0  0  0  0  0  0
   21.9128  -21.2148  -15.4944 C   0  0  0  0  0  0  0  0  0  0  0  0
   20.8429  -20.4348  -16.2099 C   0  0  0  0  0  0  0  0  0  0  0  0
   20.0096  -20.9224  -17.1816 C   0  0  0  0  0  0  0  0  0  0  0  0
   19.1991  -19.9538  -17.5976 N   0  0  0  0  0  0  0  0  0  0  0  0
   19.4687  -18.8024  -16.9185 C   0  0  0  0  0  0  0  0  0  0  0  0
   18.9115  -17.5463  -16.9935 C   0  0  0  0  0  0  0  0  0  0  0  0
   19.4304  -16.5726  -16.1463 C   0  0  0  0  0  0  0  0  0  0  0  0
   20.4595  -16.8898  -15.2816 C   0  0  0  0  0  0  0  0  0  0  0  0
   21.0121  -18.1515  -15.2140 C   0  0  0  0  0  0  0  0  0  0  0  0
   20.5018  -19.1107  -16.0485 C   0  0  0  0  0  0  0  0  0  0  0  0
   24.2803  -20.8663  -14.7492 C   0  0  0  0  0  0  0  0  0  0  0  0
   24.7149  -22.0271  -14.9245 O   0  0  0  0  0  0  0  0  0  0  0  0
   24.8122  -20.0134  -13.7522 N   0  0  0  0  0  0  0  0  0  0  0  0
   25.8694  -20.3165  -12.8305 C   0  0  1  0  0  0  0  0  0  0  0  0
   26.8819  -19.1802  -12.6447 C   0  0  0  0  0  0  0  0  0  0  0  0
   27.5213  -18.7556  -13.8953 C   0  0  0  0  0  0  0  0  0  0  0  0
   27.4848  -17.5629  -14.5481 C   0  0  0  0  0  0  0  0  0  0  0  0
   28.2509  -17.6862  -15.6523 N   0  0  0  0  0  0  0  0  0  0  0  0
   28.7718  -18.9213  -15.7171 C   0  0  0  0  0  0  0  0  0  0  0  0
   29.6128  -19.5315  -16.6353 C   0  0  0  0  0  0  0  0  0  0  0  0
   29.9936  -20.8359  -16.4323 C   0  0  0  0  0  0  0  0  0  0  0  0
   29.5418  -21.5342  -15.3214 C   0  0  0  0  0  0  0  0  0  0  0  0
   28.7052  -20.9408  -14.4008 C   0  0  0  0  0  0  0  0  0  0  0  0
   28.3349  -19.6192  -14.6307 C   0  0  0  0  0  0  0  0  0  0  0  0
   25.3415  -20.7286  -11.5279 C   0  0  0  0  0  0  0  0  0  0  0  0
   24.1081  -20.6500  -11.3285 O   0  0  0  0  0  0  0  0  0  0  0  0
   26.1863  -21.2021  -10.5199 N   0  0  0  0  0  0  0  0  0  0  0  0
   25.7975  -21.6290   -9.1956 C   0  0  1  0  0  0  0  0  0  0  0  0
   26.9689  -21.7731   -8.2685 C   0  0  0  0  0  0  0  0  0  0  0  0
   27.2492  -20.5313   -7.5452 C   0  0  0  0  0  0  0  0  0  0  0  0
   26.7832  -19.2972   -7.8815 C   0  0  0  0  0  0  0  0  0  0  0  0
   27.2921  -18.4178   -7.0047 N   0  0  0  0  0  0  0  0  0  0  0  0
   28.0625  -19.0690   -6.1282 C   0  0  0  0  0  0  0  0  0  0  0  0
   28.7694  -18.5506   -5.0404 C   0  0  0  0  0  0  0  0  0  0  0  0
   29.4828  -19.4291   -4.2597 C   0  0  0  0  0  0  0  0  0  0  0  0
   29.4900  -20.7729   -4.5538 C   0  0  0  0  0  0  0  0  0  0  0  0
   28.7887  -21.2576   -5.6278 C   0  0  0  0  0  0  0  0  0  0  0  0
   28.0524  -20.4002   -6.4459 C   0  0  0  0  0  0  0  0  0  0  0  0
   24.6533  -20.9104   -8.6647 C   0  0  0  0  0  0  0  0  0  0  0  0
   23.7899  -21.3348   -7.6739 O   0  0  0  0  0  0  0  0  0  0  0  0
   24.4121  -19.7588   -9.1723 O   0  0  0  0  0  0  0  0  0  0  0  0
  2  1  1  6
  3  2  1  0
  4  5  2  0
  4  3  1  0
  6  5  1  0
  7 12  2  0
  7  6  1  0
  8  7  1  0
  9 10  1  0
  9  8  2  0
 10 11  2  0
 11 12  1  0
 12  4  1  0
 13 15  1  0
 13  2  1  0
 14 13  2  0
 16 27  1  0
 16 15  1  0
 16 17  1  1
 18 26  1  0
 18 17  1  0
 19 18  2  0
 20 19  1  0
 20 21  1  0
 21 22  1  0
 21 26  2  0
 22 23  2  0
 23 24  1  0
 25 24  2  0
 26 25  1  0
 27 28  2  0
 29 30  1  0
 29 27  1  0
 30 41  1  0
 30 31  1  1
 32 31  1  0
 33 32  2  0
 34 35  1  0
 34 33  1  0
 35 40  2  0
 36 37  2  0
 36 35  1  0
 37 38  1  0
 38 39  2  0
 40 39  1  0
 40 32  1  0
 41 42  1  0
 43 41  2  0
M  END
$$$$
