PTT.pdb
     RDKit          3D

 22 22  0  0  1  0  0  0  0  0999 V2000
    8.3013  -14.7482   19.1828 N   0  0  0  0  0  0  0  0  0  0  0  0
    7.8224  -13.7232   18.2446 C   0  0  0  0  0  0  0  0  0  0  0  0
    7.1975  -12.7359   19.2392 C   0  0  0  0  0  0  0  0  0  0  0  0
    8.3066  -12.6336   20.2635 C   0  0  0  0  0  0  0  0  0  0  0  0
    8.8851  -14.0267   20.2847 C   0  0  1  0  0  0  0  0  0  0  0  0
    8.6357  -14.7347   21.5405 C   0  0  0  0  0  0  0  0  0  0  0  0
    7.4681  -14.7750   22.0055 O   0  0  0  0  0  0  0  0  0  0  0  0
    9.2275  -18.1465   22.3921 C   0  0  0  0  0  0  0  0  0  0  0  0
    9.9382  -17.4278   23.5202 C   0  0  1  0  0  0  0  0  0  0  0  0
   11.3099  -17.3078   23.2318 O   0  0  0  0  0  0  0  0  0  0  0  0
    9.3977  -15.9930   23.5891 C   0  0  2  0  0  0  0  0  0  0  0  0
    9.6291  -15.4038   22.3079 N   0  0  0  0  0  0  0  0  0  0  0  0
   10.0783  -15.3326   24.7005 C   0  0  0  0  0  0  0  0  0  0  0  0
   11.1209  -14.6653   24.5319 O   0  0  0  0  0  0  0  0  0  0  0  0
    8.9210  -12.5406   26.8070 C   0  0  0  0  0  0  0  0  0  0  0  0
    9.1051  -13.7262   27.6982 C   0  0  1  0  0  0  0  0  0  0  0  0
    7.8667  -14.3553   27.8479 O   0  0  0  0  0  0  0  0  0  0  0  0
   10.0688  -14.7496   27.1470 C   0  0  2  0  0  0  0  0  0  0  0  0
    9.5454  -15.4494   26.0066 N   0  0  0  0  0  0  0  0  0  0  0  0
   10.3845  -15.6984   28.2252 C   0  0  0  0  0  0  0  0  0  0  0  0
   11.0008  -15.2714   29.3748 O   0  0  0  0  0  0  0  0  0  0  0  0
   10.0924  -16.8994   28.0983 O   0  0  0  0  0  0  0  0  0  0  0  0
  1  2  1  0
  1  5  1  0
  2  3  1  0
  3  4  1  0
  5  4  1  0
  6 12  1  0
  5  6  1  1
  7  6  2  0
  9  8  1  6
  9 11  1  0
 10  9  1  0
 11 12  1  6
 11 13  1  0
 13 19  1  0
 14 13  2  0
 16 17  1  0
 16 15  1  6
 18 20  1  0
 18 16  1  0
 18 19  1  6
 20 21  1  0
 22 20  2  0
M  END
$$$$
