PTT.pdb
     RDKit          3D

 22 22  0  0  1  0  0  0  0  0999 V2000
    8.9500  -14.7181   19.1551 N   0  0  0  0  0  0  0  0  0  0  0  0
    8.5988  -14.4181   17.7599 C   0  0  0  0  0  0  0  0  0  0  0  0
    7.2941  -13.6421   17.9840 C   0  0  0  0  0  0  0  0  0  0  0  0
    7.7232  -12.6863   19.0758 C   0  0  0  0  0  0  0  0  0  0  0  0
    8.6900  -13.5077   19.8921 C   0  0  1  0  0  0  0  0  0  0  0  0
    8.1880  -13.8283   21.2284 C   0  0  0  0  0  0  0  0  0  0  0  0
    7.7094  -12.9122   21.9446 O   0  0  0  0  0  0  0  0  0  0  0  0
    7.3350  -17.7068   22.1568 C   0  0  0  0  0  0  0  0  0  0  0  0
    7.9010  -16.9336   23.3298 C   0  0  1  0  0  0  0  0  0  0  0  0
    9.2998  -17.0764   23.3762 O   0  0  0  0  0  0  0  0  0  0  0  0
    7.6404  -15.4403   23.0891 C   0  0  2  0  0  0  0  0  0  0  0  0
    8.1931  -15.1268   21.8091 N   0  0  0  0  0  0  0  0  0  0  0  0
    8.2366  -14.7163   24.2094 C   0  0  0  0  0  0  0  0  0  0  0  0
    9.3859  -14.2311   24.1436 O   0  0  0  0  0  0  0  0  0  0  0  0
    6.7467  -11.6084   26.1009 C   0  0  0  0  0  0  0  0  0  0  0  0
    6.9060  -12.7899   27.0022 C   0  0  1  0  0  0  0  0  0  0  0  0
    5.6831  -13.4630   27.0585 O   0  0  0  0  0  0  0  0  0  0  0  0
    7.9440  -13.7764   26.5238 C   0  0  2  0  0  0  0  0  0  0  0  0
    7.4952  -14.5575   25.4046 N   0  0  0  0  0  0  0  0  0  0  0  0
    8.2859  -14.6546   27.6526 C   0  0  0  0  0  0  0  0  0  0  0  0
    8.7939  -14.1329   28.8161 O   0  0  0  0  0  0  0  0  0  0  0  0
    8.1148  -15.8815   27.5565 O   0  0  0  0  0  0  0  0  0  0  0  0
  1  2  1  0
  1  5  1  0
  2  3  1  0
  3  4  1  0
  5  4  1  0
  6 12  1  0
  5  6  1  1
  7  6  2  0
  9  8  1  6
  9 11  1  0
 10  9  1  0
 11 12  1  6
 11 13  1  0
 13 19  1  0
 14 13  2  0
 16 17  1  0
 16 15  1  6
 18 20  1  0
 18 16  1  0
 18 19  1  6
 20 21  1  0
 22 20  2  0
M  END
$$$$
