PTT.pdb
     RDKit          3D

 22 22  0  0  1  0  0  0  0  0999 V2000
    7.7579  -17.2368   19.7552 N   0  0  0  0  0  0  0  0  0  0  0  0
    7.0425  -16.8679   18.5256 C   0  0  0  0  0  0  0  0  0  0  0  0
    7.3539  -15.3658   18.4875 C   0  0  0  0  0  0  0  0  0  0  0  0
    8.8454  -15.3846   18.7422 C   0  0  0  0  0  0  0  0  0  0  0  0
    9.0166  -16.5383   19.6991 C   0  0  1  0  0  0  0  0  0  0  0  0
    9.4212  -16.1182   21.0410 C   0  0  0  0  0  0  0  0  0  0  0  0
   10.5447  -15.5784   21.2068 O   0  0  0  0  0  0  0  0  0  0  0  0
    7.8717  -13.8240   23.3569 C   0  0  0  0  0  0  0  0  0  0  0  0
    8.0036  -15.0881   24.1807 C   0  0  1  0  0  0  0  0  0  0  0  0
    6.8121  -15.8337   24.1205 O   0  0  0  0  0  0  0  0  0  0  0  0
    9.0820  -15.9694   23.5357 C   0  0  2  0  0  0  0  0  0  0  0  0
    8.6308  -16.2711   22.2137 N   0  0  0  0  0  0  0  0  0  0  0  0
    9.2604  -17.1310   24.4037 C   0  0  0  0  0  0  0  0  0  0  0  0
    8.4212  -18.0554   24.4484 O   0  0  0  0  0  0  0  0  0  0  0  0
   12.4258  -20.1555   26.5093 C   0  0  0  0  0  0  0  0  0  0  0  0
   12.0764  -18.9625   25.6795 C   0  0  1  0  0  0  0  0  0  0  0  0
   12.0197  -19.3632   24.3423 O   0  0  0  0  0  0  0  0  0  0  0  0
   10.7372  -18.3582   26.0279 C   0  0  2  0  0  0  0  0  0  0  0  0
   10.4147  -17.2160   25.2184 N   0  0  0  0  0  0  0  0  0  0  0  0
   10.7681  -17.9822   27.4492 C   0  0  0  0  0  0  0  0  0  0  0  0
   10.8215  -18.9443   28.4265 O   0  0  0  0  0  0  0  0  0  0  0  0
   10.7459  -16.7828   27.7729 O   0  0  0  0  0  0  0  0  0  0  0  0
  1  2  1  0
  1  5  1  0
  2  3  1  0
  3  4  1  0
  5  4  1  0
  6 12  1  0
  5  6  1  1
  7  6  2  0
  9  8  1  6
  9 11  1  0
 10  9  1  0
 11 12  1  6
 11 13  1  0
 13 19  1  0
 14 13  2  0
 16 17  1  0
 16 15  1  1
 18 20  1  0
 18 16  1  0
 18 19  1  6
 20 21  1  0
 22 20  2  0
M  END
$$$$
