PTT.pdb
     RDKit          3D

 22 22  0  0  1  0  0  0  0  0999 V2000
    7.3020  -15.3971   20.5686 N   0  0  0  0  0  0  0  0  0  0  0  0
    6.5953  -14.7054   19.4814 C   0  0  0  0  0  0  0  0  0  0  0  0
    7.0371  -13.2633   19.7638 C   0  0  0  0  0  0  0  0  0  0  0  0
    8.5262  -13.4595   19.9469 C   0  0  0  0  0  0  0  0  0  0  0  0
    8.6159  -14.8081   20.6171 C   0  0  1  0  0  0  0  0  0  0  0  0
    9.0850  -14.7334   22.0009 C   0  0  0  0  0  0  0  0  0  0  0  0
   10.2281  -14.2680   22.2414 O   0  0  0  0  0  0  0  0  0  0  0  0
    7.8068  -13.0762   24.9639 C   0  0  0  0  0  0  0  0  0  0  0  0
    7.8772  -14.5293   25.3855 C   0  0  1  0  0  0  0  0  0  0  0  0
    6.6347  -15.1558   25.1783 O   0  0  0  0  0  0  0  0  0  0  0  0
    8.8682  -15.2486   24.4602 C   0  0  2  0  0  0  0  0  0  0  0  0
    8.3385  -15.1542   23.1363 N   0  0  0  0  0  0  0  0  0  0  0  0
    9.0148  -16.6110   24.9672 C   0  0  0  0  0  0  0  0  0  0  0  0
    8.1908  -17.5088   24.6920 O   0  0  0  0  0  0  0  0  0  0  0  0
   11.9841  -20.1869   26.2931 C   0  0  0  0  0  0  0  0  0  0  0  0
   11.6802  -18.8215   25.7667 C   0  0  1  0  0  0  0  0  0  0  0  0
   11.5630  -18.9062   24.3772 O   0  0  0  0  0  0  0  0  0  0  0  0
   10.3882  -18.2464   26.2956 C   0  0  2  0  0  0  0  0  0  0  0  0
   10.1196  -16.9273   25.7936 N   0  0  0  0  0  0  0  0  0  0  0  0
   10.4715  -18.2247   27.7636 C   0  0  0  0  0  0  0  0  0  0  0  0
   10.4542  -19.3936   28.4827 O   0  0  0  0  0  0  0  0  0  0  0  0
   10.5587  -17.1398   28.3629 O   0  0  0  0  0  0  0  0  0  0  0  0
  1  2  1  0
  1  5  1  0
  2  3  1  0
  3  4  1  0
  5  4  1  0
  6 12  1  0
  5  6  1  1
  7  6  2  0
  9  8  1  6
  9 11  1  0
 10  9  1  0
 11 12  1  6
 11 13  1  0
 13 19  1  0
 14 13  2  0
 16 17  1  0
 16 15  1  1
 18 20  1  0
 18 16  1  0
 18 19  1  6
 20 21  1  0
 22 20  2  0
M  END
$$$$
