PTT.pdb
     RDKit          3D

 22 22  0  0  1  0  0  0  0  0999 V2000
    8.7833  -14.9354   19.1770 N   0  0  0  0  0  0  0  0  0  0  0  0
    8.3857  -14.5449   17.8171 C   0  0  0  0  0  0  0  0  0  0  0  0
    7.2379  -13.5827   18.1510 C   0  0  0  0  0  0  0  0  0  0  0  0
    7.8877  -12.7366   19.2241 C   0  0  0  0  0  0  0  0  0  0  0  0
    8.7691  -13.7210   19.9519 C   0  0  1  0  0  0  0  0  0  0  0  0
    8.3189  -13.9980   21.3162 C   0  0  0  0  0  0  0  0  0  0  0  0
    8.1668  -13.0447   22.1219 O   0  0  0  0  0  0  0  0  0  0  0  0
    6.7779  -17.6819   22.1644 C   0  0  0  0  0  0  0  0  0  0  0  0
    7.5262  -17.0695   23.3302 C   0  0  1  0  0  0  0  0  0  0  0  0
    8.8757  -17.4663   23.3035 O   0  0  0  0  0  0  0  0  0  0  0  0
    7.5342  -15.5457   23.1464 C   0  0  2  0  0  0  0  0  0  0  0  0
    8.0283  -15.2923   21.8295 N   0  0  0  0  0  0  0  0  0  0  0  0
    8.3476  -14.9892   24.2250 C   0  0  0  0  0  0  0  0  0  0  0  0
    9.5677  -14.7630   24.0808 O   0  0  0  0  0  0  0  0  0  0  0  0
    7.3853  -11.7577   26.2802 C   0  0  0  0  0  0  0  0  0  0  0  0
    7.5854  -12.9380   27.1749 C   0  0  1  0  0  0  0  0  0  0  0  0
    6.3317  -13.4797   27.4687 O   0  0  0  0  0  0  0  0  0  0  0  0
    8.4164  -14.0329   26.5501 C   0  0  2  0  0  0  0  0  0  0  0  0
    7.7407  -14.6965   25.4698 N   0  0  0  0  0  0  0  0  0  0  0  0
    8.7582  -14.9980   27.6056 C   0  0  0  0  0  0  0  0  0  0  0  0
    9.4158  -14.5910   28.7395 O   0  0  0  0  0  0  0  0  0  0  0  0
    8.4505  -16.1945   27.4738 O   0  0  0  0  0  0  0  0  0  0  0  0
  1  2  1  0
  1  5  1  0
  2  3  1  0
  3  4  1  0
  5  4  1  0
  6 12  1  0
  5  6  1  1
  7  6  2  0
  9  8  1  6
  9 11  1  0
 10  9  1  0
 11 12  1  6
 11 13  1  0
 13 19  1  0
 14 13  2  0
 16 17  1  0
 16 15  1  6
 18 20  1  0
 18 16  1  0
 18 19  1  6
 20 21  1  0
 22 20  2  0
M  END
$$$$
