PTT.pdb
     RDKit          3D

 22 22  0  0  1  0  0  0  0  0999 V2000
    8.2191  -15.0738   18.6314 N   0  0  0  0  0  0  0  0  0  0  0  0
    7.4948  -14.2829   17.6266 C   0  0  0  0  0  0  0  0  0  0  0  0
    7.6430  -12.8855   18.2432 C   0  0  0  0  0  0  0  0  0  0  0  0
    9.1219  -12.8783   18.5633 C   0  0  0  0  0  0  0  0  0  0  0  0
    9.3960  -14.3088   18.9562 C   0  0  1  0  0  0  0  0  0  0  0  0
    9.7237  -14.4640   20.3737 C   0  0  0  0  0  0  0  0  0  0  0  0
   10.7375  -13.8848   20.8402 O   0  0  0  0  0  0  0  0  0  0  0  0
    7.6252  -13.7534   23.2684 C   0  0  0  0  0  0  0  0  0  0  0  0
    8.0712  -15.1817   23.5033 C   0  0  1  0  0  0  0  0  0  0  0  0
    7.1053  -16.0792   23.0126 O   0  0  0  0  0  0  0  0  0  0  0  0
    9.3360  -15.4312   22.6704 C   0  0  2  0  0  0  0  0  0  0  0  0
    8.9728  -15.2373   21.3019 N   0  0  0  0  0  0  0  0  0  0  0  0
    9.8043  -16.7762   22.9966 C   0  0  0  0  0  0  0  0  0  0  0  0
    9.8791  -17.6756   22.1328 O   0  0  0  0  0  0  0  0  0  0  0  0
   12.3922  -18.2884   22.7684 C   0  0  0  0  0  0  0  0  0  0  0  0
   12.2423  -18.4098   24.2505 C   0  0  1  0  0  0  0  0  0  0  0  0
   12.9573  -17.3688   24.8476 O   0  0  0  0  0  0  0  0  0  0  0  0
   10.8116  -18.3045   24.7214 C   0  0  2  0  0  0  0  0  0  0  0  0
   10.1852  -17.0732   24.3271 N   0  0  0  0  0  0  0  0  0  0  0  0
   10.8085  -18.4305   26.1865 C   0  0  0  0  0  0  0  0  0  0  0  0
   11.2544  -19.5793   26.7909 O   0  0  0  0  0  0  0  0  0  0  0  0
   10.3990  -17.4902   26.8879 O   0  0  0  0  0  0  0  0  0  0  0  0
  1  2  1  0
  1  5  1  0
  2  3  1  0
  3  4  1  0
  5  4  1  0
  6 12  1  0
  5  6  1  1
  7  6  2  0
  9  8  1  6
  9 11  1  0
 10  9  1  0
 11 12  1  6
 11 13  1  0
 13 19  1  0
 14 13  2  0
 16 17  1  0
 16 15  1  6
 18 20  1  0
 18 16  1  0
 18 19  1  1
 20 21  1  0
 22 20  2  0
M  END
$$$$
