PTT.pdb
     RDKit          3D

 22 22  0  0  1  0  0  0  0  0999 V2000
    8.5918  -14.9521   19.9580 N   0  0  0  0  0  0  0  0  0  0  0  0
    7.9733  -14.5003   18.7036 C   0  0  0  0  0  0  0  0  0  0  0  0
    6.8709  -13.5964   19.2713 C   0  0  0  0  0  0  0  0  0  0  0  0
    7.6631  -12.7899   20.2771 C   0  0  0  0  0  0  0  0  0  0  0  0
    8.6724  -13.7835   20.7966 C   0  0  1  0  0  0  0  0  0  0  0  0
    8.4521  -14.1500   22.1958 C   0  0  0  0  0  0  0  0  0  0  0  0
    8.4241  -13.2497   23.0731 O   0  0  0  0  0  0  0  0  0  0  0  0
    6.2022  -17.2356   23.2368 C   0  0  0  0  0  0  0  0  0  0  0  0
    7.4753  -17.2432   24.0572 C   0  0  1  0  0  0  0  0  0  0  0  0
    8.4401  -18.0671   23.4492 O   0  0  0  0  0  0  0  0  0  0  0  0
    8.0642  -15.8260   24.0401 C   0  0  2  0  0  0  0  0  0  0  0  0
    8.2604  -15.4780   22.6680 N   0  0  0  0  0  0  0  0  0  0  0  0
    9.2829  -15.8596   24.8453 C   0  0  0  0  0  0  0  0  0  0  0  0
   10.4173  -15.7859   24.3272 O   0  0  0  0  0  0  0  0  0  0  0  0
    9.0708  -14.1165   28.5378 C   0  0  0  0  0  0  0  0  0  0  0  0
   10.3250  -14.4556   27.7991 C   0  0  1  0  0  0  0  0  0  0  0  0
   11.3826  -14.4534   28.7118 O   0  0  0  0  0  0  0  0  0  0  0  0
   10.2911  -15.8180   27.1490 C   0  0  2  0  0  0  0  0  0  0  0  0
    9.1805  -15.9790   26.2520 N   0  0  0  0  0  0  0  0  0  0  0  0
   10.2322  -16.8263   28.2176 C   0  0  0  0  0  0  0  0  0  0  0  0
   11.2726  -16.9712   29.1010 O   0  0  0  0  0  0  0  0  0  0  0  0
    9.2327  -17.5565   28.3256 O   0  0  0  0  0  0  0  0  0  0  0  0
  1  2  1  0
  1  5  1  0
  2  3  1  0
  3  4  1  0
  5  4  1  0
  6 12  1  0
  5  6  1  1
  7  6  2  0
  9  8  1  6
  9 11  1  0
 10  9  1  0
 11 12  1  6
 11 13  1  0
 13 19  1  0
 14 13  2  0
 16 17  1  0
 16 15  1  1
 18 20  1  0
 18 16  1  0
 18 19  1  6
 20 21  1  0
 22 20  2  0
M  END
$$$$
