PTT.pdb
     RDKit          3D

 22 22  0  0  1  0  0  0  0  0999 V2000
    8.9554  -14.7381   17.3452 N   0  0  0  0  0  0  0  0  0  0  0  0
    8.3466  -13.8802   16.3188 C   0  0  0  0  0  0  0  0  0  0  0  0
    7.1210  -13.3802   17.0952 C   0  0  0  0  0  0  0  0  0  0  0  0
    7.7664  -12.9752   18.4025 C   0  0  0  0  0  0  0  0  0  0  0  0
    8.8601  -13.9992   18.5783 C   0  0  1  0  0  0  0  0  0  0  0  0
    8.6202  -14.9119   19.6964 C   0  0  0  0  0  0  0  0  0  0  0  0
    7.4412  -15.1235   20.0789 O   0  0  0  0  0  0  0  0  0  0  0  0
   10.1479  -18.2987   20.1618 C   0  0  0  0  0  0  0  0  0  0  0  0
   10.3709  -17.5969   21.4854 C   0  0  1  0  0  0  0  0  0  0  0  0
   11.6616  -17.0388   21.5279 O   0  0  0  0  0  0  0  0  0  0  0  0
    9.3993  -16.4117   21.5683 C   0  0  2  0  0  0  0  0  0  0  0  0
    9.6352  -15.6041   20.4131 N   0  0  0  0  0  0  0  0  0  0  0  0
    9.6464  -15.7448   22.8446 C   0  0  0  0  0  0  0  0  0  0  0  0
   10.5191  -14.8594   22.9674 O   0  0  0  0  0  0  0  0  0  0  0  0
    7.6159  -13.4955   25.0805 C   0  0  0  0  0  0  0  0  0  0  0  0
    7.8433  -14.7988   25.7758 C   0  0  1  0  0  0  0  0  0  0  0  0
    6.7346  -15.6162   25.5430 O   0  0  0  0  0  0  0  0  0  0  0  0
    9.0631  -15.5394   25.2824 C   0  0  2  0  0  0  0  0  0  0  0  0
    8.8780  -16.1086   23.9763 N   0  0  0  0  0  0  0  0  0  0  0  0
    9.3751  -16.5948   26.2576 C   0  0  0  0  0  0  0  0  0  0  0  0
    9.6624  -16.2793   27.5622 O   0  0  0  0  0  0  0  0  0  0  0  0
    9.3798  -17.7852   25.9016 O   0  0  0  0  0  0  0  0  0  0  0  0
  1  2  1  0
  1  5  1  0
  2  3  1  0
  3  4  1  0
  5  4  1  0
  6 12  1  0
  5  6  1  1
  7  6  2  0
  9  8  1  6
  9 11  1  0
 10  9  1  0
 11 12  1  6
 11 13  1  0
 13 19  1  0
 14 13  2  0
 16 17  1  0
 16 15  1  6
 18 20  1  0
 18 16  1  0
 18 19  1  6
 20 21  1  0
 22 20  2  0
M  END
$$$$
