GKP.pdb
     RDKit          3D

 21 21  0  0  1  0  0  0  0  0999 V2000
    8.4732  -12.3096   19.1805 N   0  0  0  0  0  0  0  0  0  0  0  0
    8.9058  -13.4314   19.9527 C   0  0  0  0  0  0  0  0  0  0  0  0
    8.1050  -13.6509   21.1822 C   0  0  0  0  0  0  0  0  0  0  0  0
    7.3083  -12.7327   21.5085 O   0  0  0  0  0  0  0  0  0  0  0  0
    8.2239  -14.8510   21.9725 N   0  0  0  0  0  0  0  0  0  0  0  0
    7.4515  -14.9575   23.1460 C   0  0  1  0  0  0  0  0  0  0  0  0
    7.0311  -16.4263   23.2968 C   0  0  0  0  0  0  0  0  0  0  0  0
    6.3101  -16.9224   22.0864 C   0  0  0  0  0  0  0  0  0  0  0  0
    5.9566  -18.3754   22.3134 C   0  0  0  0  0  0  0  0  0  0  0  0
    5.2348  -18.9971   21.1603 C   0  0  0  0  0  0  0  0  0  0  0  0
    5.0367  -20.4136   21.5078 N   0  0  0  0  0  0  0  0  0  0  0  0
    7.9809  -14.4141   24.3913 C   0  0  0  0  0  0  0  0  0  0  0  0
    9.1486  -14.8755   24.6901 O   0  0  0  0  0  0  0  0  0  0  0  0
    7.4235  -13.4934   25.2862 N   0  0  0  0  0  0  0  0  0  0  0  0
    6.2636  -12.6720   25.0412 C   0  0  0  0  0  0  0  0  0  0  0  0
    6.2124  -11.6460   26.1667 C   0  0  0  0  0  0  0  0  0  0  0  0
    6.8111  -12.4065   27.3146 C   0  0  0  0  0  0  0  0  0  0  0  0
    7.9243  -13.1919   26.6011 C   0  0  1  0  0  0  0  0  0  0  0  0
    8.2753  -14.3880   27.4056 C   0  0  0  0  0  0  0  0  0  0  0  0
    7.9783  -15.5598   27.1788 O   0  0  0  0  0  0  0  0  0  0  0  0
    9.0345  -14.1340   28.5550 O   0  0  0  0  0  0  0  0  0  0  0  0
  2  1  1  0
  3  2  1  0
  4  3  2  0
  5  3  1  0
  6 12  1  0
  6  5  1  0
  6  7  1  1
  8  7  1  0
  9  8  1  0
 10  9  1  0
 11 10  1  0
 12 14  1  0
 13 12  2  0
 14 18  1  0
 14 15  1  0
 15 16  1  0
 17 16  1  0
 18 17  1  0
 19 21  1  0
 18 19  1  1
 20 19  2  0
M  END
$$$$
