GKP.pdb
     RDKit          3D

 21 21  0  0  1  0  0  0  0  0999 V2000
    7.6123  -12.6279   19.0422 N   0  0  0  0  0  0  0  0  0  0  0  0
    8.5156  -13.2871   19.9316 C   0  0  0  0  0  0  0  0  0  0  0  0
    7.8733  -13.7761   21.1763 C   0  0  0  0  0  0  0  0  0  0  0  0
    6.7863  -13.2314   21.5023 O   0  0  0  0  0  0  0  0  0  0  0  0
    8.4542  -14.8219   21.9811 N   0  0  0  0  0  0  0  0  0  0  0  0
    7.7979  -15.1915   23.1718 C   0  0  1  0  0  0  0  0  0  0  0  0
    7.7641  -16.7252   23.2298 C   0  0  0  0  0  0  0  0  0  0  0  0
    6.9729  -17.2173   24.3972 C   0  0  0  0  0  0  0  0  0  0  0  0
    7.0456  -18.7280   24.4101 C   0  0  0  0  0  0  0  0  0  0  0  0
    6.2977  -19.3479   25.5474 C   0  0  0  0  0  0  0  0  0  0  0  0
    6.5435  -20.7969   25.4670 N   0  0  0  0  0  0  0  0  0  0  0  0
    8.2434  -14.6105   24.4329 C   0  0  0  0  0  0  0  0  0  0  0  0
    9.4291  -14.9885   24.7746 O   0  0  0  0  0  0  0  0  0  0  0  0
    7.5913  -13.7299   25.3039 N   0  0  0  0  0  0  0  0  0  0  0  0
    6.2875  -13.1484   25.0988 C   0  0  0  0  0  0  0  0  0  0  0  0
    6.1289  -12.0562   26.1496 C   0  0  0  0  0  0  0  0  0  0  0  0
    6.9336  -12.6004   27.2945 C   0  0  0  0  0  0  0  0  0  0  0  0
    8.1188  -13.2355   26.5481 C   0  0  1  0  0  0  0  0  0  0  0  0
    8.7357  -14.2794   27.4030 C   0  0  0  0  0  0  0  0  0  0  0  0
    9.6677  -14.1481   28.1946 O   0  0  0  0  0  0  0  0  0  0  0  0
    8.1785  -15.5587   27.2810 O   0  0  0  0  0  0  0  0  0  0  0  0
  2  1  1  0
  3  2  1  0
  4  3  2  0
  5  3  1  0
  6 12  1  0
  6  5  1  0
  6  7  1  1
  8  7  1  0
  9  8  1  0
 10  9  1  0
 11 10  1  0
 12 14  1  0
 13 12  2  0
 14 18  1  0
 14 15  1  0
 15 16  1  0
 17 16  1  0
 18 17  1  0
 19 21  1  0
 18 19  1  1
 20 19  2  0
M  END
$$$$
