GKP.pdb
     RDKit          3D

 21 21  0  0  1  0  0  0  0  0999 V2000
   12.1640  -16.8826   20.8485 N   0  0  0  0  0  0  0  0  0  0  0  0
   11.0119  -17.2094   21.6279 C   0  0  0  0  0  0  0  0  0  0  0  0
   10.3578  -16.0296   22.2454 C   0  0  0  0  0  0  0  0  0  0  0  0
   11.0912  -15.2743   22.9354 O   0  0  0  0  0  0  0  0  0  0  0  0
    8.9539  -15.7509   22.0719 N   0  0  0  0  0  0  0  0  0  0  0  0
    8.3839  -14.7007   22.8183 C   0  0  1  0  0  0  0  0  0  0  0  0
    7.1400  -14.2122   22.0627 C   0  0  0  0  0  0  0  0  0  0  0  0
    7.4740  -13.1311   21.0877 C   0  0  0  0  0  0  0  0  0  0  0  0
    7.8054  -13.7803   19.7625 C   0  0  0  0  0  0  0  0  0  0  0  0
    8.2407  -12.8040   18.7164 C   0  0  0  0  0  0  0  0  0  0  0  0
    8.6575  -13.6004   17.5509 N   0  0  0  0  0  0  0  0  0  0  0  0
    8.1109  -14.9090   24.2355 C   0  0  0  0  0  0  0  0  0  0  0  0
    8.2576  -16.1369   24.6051 O   0  0  0  0  0  0  0  0  0  0  0  0
    7.7218  -13.9992   25.2255 N   0  0  0  0  0  0  0  0  0  0  0  0
    7.5930  -12.5724   25.0591 C   0  0  0  0  0  0  0  0  0  0  0  0
    7.4298  -11.9852   26.4557 C   0  0  0  0  0  0  0  0  0  0  0  0
    6.7115  -13.0873   27.1795 C   0  0  0  0  0  0  0  0  0  0  0  0
    7.4017  -14.3284   26.5892 C   0  0  1  0  0  0  0  0  0  0  0  0
    6.5086  -15.5040   26.7359 C   0  0  0  0  0  0  0  0  0  0  0  0
    5.6345  -15.8852   25.9592 O   0  0  0  0  0  0  0  0  0  0  0  0
    6.6973  -16.2566   27.9020 O   0  0  0  0  0  0  0  0  0  0  0  0
  2  1  1  0
  3  2  1  0
  4  3  2  0
  5  3  1  0
  6 12  1  0
  6  5  1  0
  6  7  1  6
  8  7  1  0
  9  8  1  0
 10  9  1  0
 11 10  1  0
 12 14  1  0
 13 12  2  0
 14 18  1  0
 14 15  1  0
 15 16  1  0
 17 16  1  0
 18 17  1  0
 19 21  1  0
 18 19  1  6
 20 19  2  0
M  END
$$$$
