GKP.pdb
     RDKit          3D

 21 21  0  0  1  0  0  0  0  0999 V2000
    8.1868  -12.5453   19.0602 N   0  0  0  0  0  0  0  0  0  0  0  0
    8.8664  -13.3702   20.0086 C   0  0  0  0  0  0  0  0  0  0  0  0
    8.0945  -13.6039   21.2539 C   0  0  0  0  0  0  0  0  0  0  0  0
    7.4660  -12.6188   21.7217 O   0  0  0  0  0  0  0  0  0  0  0  0
    8.0580  -14.8896   21.9054 N   0  0  0  0  0  0  0  0  0  0  0  0
    7.3547  -15.0030   23.1210 C   0  0  1  0  0  0  0  0  0  0  0  0
    6.9114  -16.4653   23.2694 C   0  0  0  0  0  0  0  0  0  0  0  0
    5.9490  -16.8630   22.1986 C   0  0  0  0  0  0  0  0  0  0  0  0
    5.6003  -18.3210   22.3989 C   0  0  0  0  0  0  0  0  0  0  0  0
    4.6446  -18.8481   21.3762 C   0  0  0  0  0  0  0  0  0  0  0  0
    4.4242  -20.2660   21.7036 N   0  0  0  0  0  0  0  0  0  0  0  0
    7.9695  -14.4958   24.3422 C   0  0  0  0  0  0  0  0  0  0  0  0
    9.1425  -14.9873   24.5614 O   0  0  0  0  0  0  0  0  0  0  0  0
    7.4868  -13.5819   25.2861 N   0  0  0  0  0  0  0  0  0  0  0  0
    6.2935  -12.7824   25.1558 C   0  0  0  0  0  0  0  0  0  0  0  0
    6.3355  -11.7532   26.2788 C   0  0  0  0  0  0  0  0  0  0  0  0
    7.0589  -12.4985   27.3631 C   0  0  0  0  0  0  0  0  0  0  0  0
    8.1100  -13.2665   26.5442 C   0  0  1  0  0  0  0  0  0  0  0  0
    8.5608  -14.4531   27.3123 C   0  0  0  0  0  0  0  0  0  0  0  0
    8.2164  -15.6236   27.1575 O   0  0  0  0  0  0  0  0  0  0  0  0
    9.4875  -14.1905   28.3292 O   0  0  0  0  0  0  0  0  0  0  0  0
  2  1  1  0
  3  2  1  0
  4  3  2  0
  5  3  1  0
  6 12  1  0
  6  5  1  0
  6  7  1  1
  8  7  1  0
  9  8  1  0
 10  9  1  0
 11 10  1  0
 12 14  1  0
 13 12  2  0
 14 18  1  0
 14 15  1  0
 15 16  1  0
 17 16  1  0
 18 17  1  0
 19 21  1  0
 18 19  1  1
 20 19  2  0
M  END
$$$$
