GKP.pdb
     RDKit          3D

 21 21  0  0  1  0  0  0  0  0999 V2000
    2.6166  -18.6106   20.2680 N   0  0  0  0  0  0  0  0  0  0  0  0
    3.4010  -18.7803   21.4502 C   0  0  0  0  0  0  0  0  0  0  0  0
    4.3314  -17.6549   21.7128 C   0  0  0  0  0  0  0  0  0  0  0  0
    3.9114  -16.5000   21.4407 O   0  0  0  0  0  0  0  0  0  0  0  0
    5.6527  -17.8602   22.2522 N   0  0  0  0  0  0  0  0  0  0  0  0
    6.4477  -16.7287   22.5217 C   0  0  1  0  0  0  0  0  0  0  0  0
    7.1151  -16.9413   23.8878 C   0  0  0  0  0  0  0  0  0  0  0  0
    7.9388  -15.7622   24.2906 C   0  0  0  0  0  0  0  0  0  0  0  0
    8.6539  -16.1071   25.5779 C   0  0  0  0  0  0  0  0  0  0  0  0
    9.6054  -15.0455   26.0304 C   0  0  0  0  0  0  0  0  0  0  0  0
   10.1526  -15.4985   27.3195 N   0  0  0  0  0  0  0  0  0  0  0  0
    7.4029  -16.2811   21.5149 C   0  0  0  0  0  0  0  0  0  0  0  0
    8.2854  -17.1755   21.2201 O   0  0  0  0  0  0  0  0  0  0  0  0
    7.5021  -15.0577   20.8421 N   0  0  0  0  0  0  0  0  0  0  0  0
    6.5687  -13.9623   20.9373 C   0  0  0  0  0  0  0  0  0  0  0  0
    6.9338  -12.9830   19.8284 C   0  0  0  0  0  0  0  0  0  0  0  0
    8.4199  -13.1683   19.7202 C   0  0  0  0  0  0  0  0  0  0  0  0
    8.5443  -14.6880   19.9215 C   0  0  1  0  0  0  0  0  0  0  0  0
    9.9133  -15.0110   20.3933 C   0  0  0  0  0  0  0  0  0  0  0  0
   10.2897  -15.1727   21.5530 O   0  0  0  0  0  0  0  0  0  0  0  0
   10.8774  -15.1436   19.3859 O   0  0  0  0  0  0  0  0  0  0  0  0
  2  1  1  0
  3  2  1  0
  4  3  2  0
  5  3  1  0
  6 12  1  0
  6  5  1  0
  6  7  1  1
  8  7  1  0
  9  8  1  0
 10  9  1  0
 11 10  1  0
 12 14  1  0
 13 12  2  0
 14 18  1  0
 14 15  1  0
 15 16  1  0
 17 16  1  0
 18 17  1  0
 19 21  1  0
 18 19  1  1
 20 19  2  0
M  END
$$$$
