GKP.pdb
     RDKit          3D

 21 21  0  0  1  0  0  0  0  0999 V2000
    8.5326  -15.0199   13.9151 N   0  0  0  0  0  0  0  0  0  0  0  0
    9.0734  -15.7479   15.0193 C   0  0  0  0  0  0  0  0  0  0  0  0
    8.3365  -15.5355   16.2893 C   0  0  0  0  0  0  0  0  0  0  0  0
    7.9104  -14.3713   16.5069 O   0  0  0  0  0  0  0  0  0  0  0  0
    8.1130  -16.6004   17.2353 N   0  0  0  0  0  0  0  0  0  0  0  0
    7.4717  -16.2907   18.4509 C   0  0  1  0  0  0  0  0  0  0  0  0
    6.6946  -17.5363   18.8997 C   0  0  0  0  0  0  0  0  0  0  0  0
    5.7341  -17.2226   19.9998 C   0  0  0  0  0  0  0  0  0  0  0  0
    5.0910  -18.5172   20.4446 C   0  0  0  0  0  0  0  0  0  0  0  0
    3.9929  -18.3220   21.4412 C   0  0  0  0  0  0  0  0  0  0  0  0
    3.4291  -19.6554   21.7063 N   0  0  0  0  0  0  0  0  0  0  0  0
    8.2580  -15.7206   19.5387 C   0  0  0  0  0  0  0  0  0  0  0  0
    9.1936  -16.5066   19.9541 O   0  0  0  0  0  0  0  0  0  0  0  0
    8.1488  -14.4823   20.1819 N   0  0  0  0  0  0  0  0  0  0  0  0
    7.2419  -13.4199   19.8225 C   0  0  0  0  0  0  0  0  0  0  0  0
    7.6805  -12.1901   20.6082 C   0  0  0  0  0  0  0  0  0  0  0  0
    8.2345  -12.7989   21.8640 C   0  0  0  0  0  0  0  0  0  0  0  0
    8.9381  -14.0461   21.3031 C   0  0  1  0  0  0  0  0  0  0  0  0
    9.0754  -15.0586   22.3789 C   0  0  0  0  0  0  0  0  0  0  0  0
    8.2966  -15.9686   22.6580 O   0  0  0  0  0  0  0  0  0  0  0  0
   10.2343  -14.9500   23.1580 O   0  0  0  0  0  0  0  0  0  0  0  0
  2  1  1  0
  3  2  1  0
  4  3  2  0
  5  3  1  0
  6 12  1  0
  6  5  1  0
  6  7  1  1
  8  7  1  0
  9  8  1  0
 10  9  1  0
 11 10  1  0
 12 14  1  0
 13 12  2  0
 14 18  1  0
 14 15  1  0
 15 16  1  0
 17 16  1  0
 18 17  1  0
 19 21  1  0
 18 19  1  1
 20 19  2  0
M  END
$$$$
