GKP.pdb
     RDKit          3D

 21 21  0  0  1  0  0  0  0  0999 V2000
    7.9186  -12.6312   19.0013 N   0  0  0  0  0  0  0  0  0  0  0  0
    8.7830  -12.9418   20.0959 C   0  0  0  0  0  0  0  0  0  0  0  0
    8.0724  -13.4893   21.2775 C   0  0  0  0  0  0  0  0  0  0  0  0
    7.1303  -12.7952   21.7414 O   0  0  0  0  0  0  0  0  0  0  0  0
    8.4327  -14.7514   21.8742 N   0  0  0  0  0  0  0  0  0  0  0  0
    7.7976  -15.1290   23.0738 C   0  0  1  0  0  0  0  0  0  0  0  0
    7.8139  -16.6623   23.1483 C   0  0  0  0  0  0  0  0  0  0  0  0
    6.4925  -17.2092   23.5797 C   0  0  0  0  0  0  0  0  0  0  0  0
    6.5256  -18.7109   23.4021 C   0  0  0  0  0  0  0  0  0  0  0  0
    5.2480  -19.3826   23.7941 C   0  0  0  0  0  0  0  0  0  0  0  0
    5.4309  -20.8173   23.5210 N   0  0  0  0  0  0  0  0  0  0  0  0
    8.2334  -14.5203   24.3252 C   0  0  0  0  0  0  0  0  0  0  0  0
    9.4582  -14.7967   24.6241 O   0  0  0  0  0  0  0  0  0  0  0  0
    7.5376  -13.7054   25.2256 N   0  0  0  0  0  0  0  0  0  0  0  0
    6.2396  -13.1167   25.0043 C   0  0  0  0  0  0  0  0  0  0  0  0
    6.0273  -12.1010   26.1202 C   0  0  0  0  0  0  0  0  0  0  0  0
    6.7853  -12.7201   27.2589 C   0  0  0  0  0  0  0  0  0  0  0  0
    8.0066  -13.2965   26.5231 C   0  0  1  0  0  0  0  0  0  0  0  0
    8.5935  -14.3947   27.3298 C   0  0  0  0  0  0  0  0  0  0  0  0
    8.3229  -15.5933   27.2769 O   0  0  0  0  0  0  0  0  0  0  0  0
    9.5687  -14.0017   28.2553 O   0  0  0  0  0  0  0  0  0  0  0  0
  2  1  1  0
  3  2  1  0
  4  3  2  0
  5  3  1  0
  6 12  1  0
  6  5  1  0
  6  7  1  1
  8  7  1  0
  9  8  1  0
 10  9  1  0
 11 10  1  0
 12 14  1  0
 13 12  2  0
 14 18  1  0
 14 15  1  0
 15 16  1  0
 17 16  1  0
 18 17  1  0
 19 21  1  0
 18 19  1  1
 20 19  2  0
M  END
$$$$
