KHF.pdb
     RDKit          3D

 31 32  0  0  1  0  0  0  0  0999 V2000
   25.6330  -19.2557  -19.2390 N   0  0  0  0  0  0  0  0  0  0  0  0
   25.2701  -18.6297  -18.0050 C   0  0  1  0  0  0  0  0  0  0  0  0
   23.8596  -18.0895  -18.0704 C   0  0  0  0  0  0  0  0  0  0  0  0
   23.8108  -16.7458  -18.7658 C   0  0  0  0  0  0  0  0  0  0  0  0
   23.2059  -16.8481  -20.1300 C   0  0  0  0  0  0  0  0  0  0  0  0
   23.1925  -15.5552  -20.8830 C   0  0  0  0  0  0  0  0  0  0  0  0
   22.6075  -15.7190  -22.1867 N   0  0  0  0  0  0  0  0  0  0  0  0
   25.4566  -19.5700  -16.8862 C   0  0  0  0  0  0  0  0  0  0  0  0
   24.5124  -20.3340  -16.5711 O   0  0  0  0  0  0  0  0  0  0  0  0
   26.6568  -19.6658  -16.1318 N   0  0  0  0  0  0  0  0  0  0  0  0
   26.7622  -20.5202  -14.9708 C   0  0  1  0  0  0  0  0  0  0  0  0
   28.2430  -20.8067  -14.7809 C   0  0  0  0  0  0  0  0  0  0  0  0
   28.6940  -21.7098  -15.8663 C   0  0  0  0  0  0  0  0  0  0  0  0
   27.9742  -22.2649  -16.8980 C   0  0  0  0  0  0  0  0  0  0  0  0
   28.7991  -23.0152  -17.6352 N   0  0  0  0  0  0  0  0  0  0  0  0
   30.0180  -22.9331  -17.0760 C   0  0  0  0  0  0  0  0  0  0  0  0
   29.9555  -22.1420  -16.0036 N   0  0  0  0  0  0  0  0  0  0  0  0
   26.1255  -19.9641  -13.7660 C   0  0  0  0  0  0  0  0  0  0  0  0
   25.9159  -18.7294  -13.5994 O   0  0  0  0  0  0  0  0  0  0  0  0
   25.7289  -20.8695  -12.7446 N   0  0  0  0  0  0  0  0  0  0  0  0
   24.6713  -20.5740  -11.8110 C   0  0  1  0  0  0  0  0  0  0  0  0
   23.3233  -20.4883  -12.4980 C   0  0  0  0  0  0  0  0  0  0  0  0
   22.2211  -20.1928  -11.5450 C   0  0  0  0  0  0  0  0  0  0  0  0
   21.7211  -18.9020  -11.4513 C   0  0  0  0  0  0  0  0  0  0  0  0
   20.7067  -18.6207  -10.5729 C   0  0  0  0  0  0  0  0  0  0  0  0
   20.1350  -19.5721   -9.7508 C   0  0  0  0  0  0  0  0  0  0  0  0
   20.6392  -20.8531   -9.8513 C   0  0  0  0  0  0  0  0  0  0  0  0
   21.6593  -21.1510  -10.7302 C   0  0  0  0  0  0  0  0  0  0  0  0
   24.5818  -21.5967  -10.7470 C   0  0  0  0  0  0  0  0  0  0  0  0
   24.6261  -22.8172  -11.0407 O   0  0  0  0  0  0  0  0  0  0  0  0
   24.4486  -21.2559   -9.4121 O   0  0  0  0  0  0  0  0  0  0  0  0
  2  1  1  6
  3  2  1  0
  3  4  1  0
  5  4  1  0
  6  5  1  0
  7  6  1  0
  8  9  2  0
  8  2  1  0
 10  8  1  0
 11 10  1  0
 11 12  1  1
 13 17  1  0
 13 12  1  0
 14 13  2  0
 15 14  1  0
 15 16  1  0
 16 17  2  0
 18 11  1  0
 19 18  2  0
 20 18  1  0
 21 29  1  0
 21 20  1  0
 21 22  1  6
 22 23  1  0
 23 28  1  0
 24 23  2  0
 24 25  1  0
 25 26  2  0
 26 27  1  0
 28 27  2  0
 29 31  1  0
 30 29  2  0
M  END
$$$$
