KHF.pdb
     RDKit          3D

 31 32  0  0  1  0  0  0  0  0999 V2000
   14.0870  -11.4046  -14.9133 N   0  0  0  0  0  0  0  0  0  0  0  0
   14.7787  -11.7054  -13.6979 C   0  0  1  0  0  0  0  0  0  0  0  0
   16.1925  -12.1591  -13.9819 C   0  0  0  0  0  0  0  0  0  0  0  0
   16.6163  -11.8076  -15.3919 C   0  0  0  0  0  0  0  0  0  0  0  0
   18.0237  -12.2306  -15.6706 C   0  0  0  0  0  0  0  0  0  0  0  0
   18.5053  -11.8625  -17.0386 C   0  0  0  0  0  0  0  0  0  0  0  0
   19.8892  -12.2123  -17.2141 N   0  0  0  0  0  0  0  0  0  0  0  0
   14.7361  -10.5452  -12.7907 C   0  0  0  0  0  0  0  0  0  0  0  0
   14.5344   -9.4044  -13.2728 O   0  0  0  0  0  0  0  0  0  0  0  0
   14.9119  -10.6404  -11.3840 N   0  0  0  0  0  0  0  0  0  0  0  0
   14.9839   -9.4674  -10.5428 C   0  0  1  0  0  0  0  0  0  0  0  0
   14.3826   -9.8614   -9.2034 C   0  0  0  0  0  0  0  0  0  0  0  0
   12.9060   -9.8740   -9.3320 C   0  0  0  0  0  0  0  0  0  0  0  0
   12.1180   -9.5147  -10.4001 C   0  0  0  0  0  0  0  0  0  0  0  0
   10.8372   -9.6910  -10.0605 N   0  0  0  0  0  0  0  0  0  0  0  0
   10.8202  -10.1536   -8.7992 C   0  0  0  0  0  0  0  0  0  0  0  0
   12.0738  -10.2649   -8.3566 N   0  0  0  0  0  0  0  0  0  0  0  0
   16.3397   -8.9075  -10.4215 C   0  0  0  0  0  0  0  0  0  0  0  0
   17.3186   -9.5556   -9.9551 O   0  0  0  0  0  0  0  0  0  0  0  0
   16.5485   -7.5698  -10.8546 N   0  0  0  0  0  0  0  0  0  0  0  0
   17.8511   -6.9531  -10.8740 C   0  0  1  0  0  0  0  0  0  0  0  0
   18.3829   -6.8079  -12.2857 C   0  0  0  0  0  0  0  0  0  0  0  0
   19.7269   -6.1734  -12.3207 C   0  0  0  0  0  0  0  0  0  0  0  0
   20.8409   -6.9008  -11.9272 C   0  0  0  0  0  0  0  0  0  0  0  0
   22.0835   -6.3220  -11.9538 C   0  0  0  0  0  0  0  0  0  0  0  0
   22.3008   -5.0200  -12.3606 C   0  0  0  0  0  0  0  0  0  0  0  0
   21.1864   -4.3046  -12.7501 C   0  0  0  0  0  0  0  0  0  0  0  0
   19.9304   -4.8734  -12.7286 C   0  0  0  0  0  0  0  0  0  0  0  0
   17.8291   -5.6129  -10.2500 C   0  0  0  0  0  0  0  0  0  0  0  0
   16.8933   -4.8146  -10.5045 O   0  0  0  0  0  0  0  0  0  0  0  0
   18.8191   -5.1941   -9.3780 O   0  0  0  0  0  0  0  0  0  0  0  0
  2  1  1  6
  3  2  1  0
  3  4  1  0
  5  4  1  0
  6  5  1  0
  7  6  1  0
  8  9  2  0
  8  2  1  0
 10  8  1  0
 11 10  1  0
 11 12  1  1
 13 17  1  0
 13 12  1  0
 14 13  2  0
 15 14  1  0
 15 16  1  0
 16 17  2  0
 18 11  1  0
 19 18  2  0
 20 18  1  0
 21 29  1  0
 21 20  1  0
 21 22  1  6
 22 23  1  0
 23 28  1  0
 24 23  2  0
 24 25  1  0
 25 26  2  0
 26 27  1  0
 28 27  2  0
 29 31  1  0
 30 29  2  0
M  END
$$$$
