KHF.pdb
     RDKit          3D

 31 32  0  0  1  0  0  0  0  0999 V2000
   23.8078  -18.1155  -14.1010 N   0  0  0  0  0  0  0  0  0  0  0  0
   23.3352  -19.4503  -14.3035 C   0  0  1  0  0  0  0  0  0  0  0  0
   22.6972  -19.5940  -15.6664 C   0  0  0  0  0  0  0  0  0  0  0  0
   21.9486  -18.3401  -16.0647 C   0  0  0  0  0  0  0  0  0  0  0  0
   20.5371  -18.3552  -15.5701 C   0  0  0  0  0  0  0  0  0  0  0  0
   19.7353  -17.1657  -15.9958 C   0  0  0  0  0  0  0  0  0  0  0  0
   19.1485  -17.3714  -17.2926 N   0  0  0  0  0  0  0  0  0  0  0  0
   24.4314  -20.4125  -14.0958 C   0  0  0  0  0  0  0  0  0  0  0  0
   24.2156  -21.6320  -14.2978 O   0  0  0  0  0  0  0  0  0  0  0  0
   25.7360  -20.0390  -13.6746 N   0  0  0  0  0  0  0  0  0  0  0  0
   26.7974  -21.0089  -13.5276 C   0  0  1  0  0  0  0  0  0  0  0  0
   28.0677  -20.3337  -14.0188 C   0  0  0  0  0  0  0  0  0  0  0  0
   27.8843  -19.9556  -15.4403 C   0  0  0  0  0  0  0  0  0  0  0  0
   27.1664  -20.5880  -16.4279 C   0  0  0  0  0  0  0  0  0  0  0  0
   27.2872  -19.8833  -17.5573 N   0  0  0  0  0  0  0  0  0  0  0  0
   28.0686  -18.8250  -17.2842 C   0  0  0  0  0  0  0  0  0  0  0  0
   28.4311  -18.8678  -16.0010 N   0  0  0  0  0  0  0  0  0  0  0  0
   26.9234  -21.5472  -12.1635 C   0  0  0  0  0  0  0  0  0  0  0  0
   27.6982  -22.4984  -11.8620 O   0  0  0  0  0  0  0  0  0  0  0  0
   26.1300  -20.9602  -11.1405 N   0  0  0  0  0  0  0  0  0  0  0  0
   26.5351  -20.9400   -9.7574 C   0  0  1  0  0  0  0  0  0  0  0  0
   27.4912  -19.8003   -9.4688 C   0  0  0  0  0  0  0  0  0  0  0  0
   27.9620  -19.8011   -8.0586 C   0  0  0  0  0  0  0  0  0  0  0  0
   27.3487  -18.9738   -7.1288 C   0  0  0  0  0  0  0  0  0  0  0  0
   27.7789  -18.9664   -5.8270 C   0  0  0  0  0  0  0  0  0  0  0  0
   28.8164  -19.7558   -5.3707 C   0  0  0  0  0  0  0  0  0  0  0  0
   29.4201  -20.5753   -6.3031 C   0  0  0  0  0  0  0  0  0  0  0  0
   28.9983  -20.5934   -7.6159 C   0  0  0  0  0  0  0  0  0  0  0  0
   25.3743  -20.8080   -8.8513 C   0  0  0  0  0  0  0  0  0  0  0  0
   24.3113  -20.2793   -9.2618 O   0  0  0  0  0  0  0  0  0  0  0  0
   25.4126  -21.2534   -7.5413 O   0  0  0  0  0  0  0  0  0  0  0  0
  2  1  1  6
  3  2  1  0
  3  4  1  0
  5  4  1  0
  6  5  1  0
  7  6  1  0
  8  9  2  0
  8  2  1  0
 10  8  1  0
 11 10  1  0
 11 12  1  1
 13 17  1  0
 13 12  1  0
 14 13  2  0
 15 14  1  0
 15 16  1  0
 16 17  2  0
 18 11  1  0
 19 18  2  0
 20 18  1  0
 21 29  1  0
 21 20  1  0
 21 22  1  6
 22 23  1  0
 23 28  1  0
 24 23  2  0
 24 25  1  0
 25 26  2  0
 26 27  1  0
 28 27  2  0
 29 31  1  0
 30 29  2  0
M  END
$$$$
