KHF.pdb
     RDKit          3D

 31 32  0  0  1  0  0  0  0  0999 V2000
   20.4549  -22.7296  -15.4875 N   0  0  0  0  0  0  0  0  0  0  0  0
   20.9246  -22.4785  -14.1599 C   0  0  1  0  0  0  0  0  0  0  0  0
   20.4200  -23.5338  -13.2023 C   0  0  0  0  0  0  0  0  0  0  0  0
   18.9654  -23.8661  -13.4575 C   0  0  0  0  0  0  0  0  0  0  0  0
   18.1261  -22.6334  -13.5732 C   0  0  0  0  0  0  0  0  0  0  0  0
   16.6610  -22.9099  -13.6986 C   0  0  0  0  0  0  0  0  0  0  0  0
   15.9065  -21.6882  -13.7801 N   0  0  0  0  0  0  0  0  0  0  0  0
   22.3943  -22.3758  -14.1539 C   0  0  0  0  0  0  0  0  0  0  0  0
   22.9869  -22.2079  -13.0606 O   0  0  0  0  0  0  0  0  0  0  0  0
   23.1928  -22.4560  -15.3264 N   0  0  0  0  0  0  0  0  0  0  0  0
   24.6364  -22.4127  -15.2712 C   0  0  1  0  0  0  0  0  0  0  0  0
   25.1365  -23.2440  -16.4415 C   0  0  0  0  0  0  0  0  0  0  0  0
   24.6599  -24.6372  -16.2712 C   0  0  0  0  0  0  0  0  0  0  0  0
   25.2505  -25.6892  -15.6115 C   0  0  0  0  0  0  0  0  0  0  0  0
   24.4555  -26.7583  -15.7206 N   0  0  0  0  0  0  0  0  0  0  0  0
   23.3823  -26.3844  -16.4373 C   0  0  0  0  0  0  0  0  0  0  0  0
   23.5052  -25.0988  -16.7717 N   0  0  0  0  0  0  0  0  0  0  0  0
   25.1882  -21.0482  -15.2582 C   0  0  0  0  0  0  0  0  0  0  0  0
   24.5751  -20.0477  -15.7261 O   0  0  0  0  0  0  0  0  0  0  0  0
   26.4758  -20.8565  -14.6875 N   0  0  0  0  0  0  0  0  0  0  0  0
   27.0178  -19.5495  -14.4128 C   0  0  1  0  0  0  0  0  0  0  0  0
   27.8278  -19.5351  -13.1321 C   0  0  0  0  0  0  0  0  0  0  0  0
   27.0819  -20.1168  -11.9851 C   0  0  0  0  0  0  0  0  0  0  0  0
   25.9850  -19.4440  -11.4663 C   0  0  0  0  0  0  0  0  0  0  0  0
   25.2935  -19.9723  -10.4068 C   0  0  0  0  0  0  0  0  0  0  0  0
   25.6321  -21.1692   -9.8063 C   0  0  0  0  0  0  0  0  0  0  0  0
   26.7247  -21.8309  -10.3295 C   0  0  0  0  0  0  0  0  0  0  0  0
   27.4299  -21.3118  -11.3948 C   0  0  0  0  0  0  0  0  0  0  0  0
   27.8863  -19.0774  -15.5123 C   0  0  0  0  0  0  0  0  0  0  0  0
   28.2570  -19.8750  -16.4093 O   0  0  0  0  0  0  0  0  0  0  0  0
   28.3160  -17.7643  -15.5948 O   0  0  0  0  0  0  0  0  0  0  0  0
  2  1  1  6
  3  2  1  0
  3  4  1  0
  5  4  1  0
  6  5  1  0
  7  6  1  0
  8  9  2  0
  8  2  1  0
 10  8  1  0
 11 10  1  0
 11 12  1  6
 13 17  1  0
 13 12  1  0
 14 13  2  0
 15 14  1  0
 15 16  1  0
 16 17  2  0
 18 11  1  0
 19 18  2  0
 20 18  1  0
 21 29  1  0
 21 20  1  0
 21 22  1  1
 22 23  1  0
 23 28  1  0
 24 23  2  0
 24 25  1  0
 25 26  2  0
 26 27  1  0
 28 27  2  0
 29 31  1  0
 30 29  2  0
M  END
$$$$
