KHF.pdb
     RDKit          3D

 31 32  0  0  1  0  0  0  0  0999 V2000
   27.3025  -20.4726  -14.9732 N   0  0  0  0  0  0  0  0  0  0  0  0
   27.6023  -19.3502  -14.1387 C   0  0  1  0  0  0  0  0  0  0  0  0
   27.4031  -18.0533  -14.8895 C   0  0  0  0  0  0  0  0  0  0  0  0
   28.0472  -18.0992  -16.2585 C   0  0  0  0  0  0  0  0  0  0  0  0
   28.8209  -16.8528  -16.5504 C   0  0  0  0  0  0  0  0  0  0  0  0
   28.8534  -16.4879  -18.0011 C   0  0  0  0  0  0  0  0  0  0  0  0
   29.7713  -17.3241  -18.7270 N   0  0  0  0  0  0  0  0  0  0  0  0
   26.8010  -19.4093  -12.9037 C   0  0  0  0  0  0  0  0  0  0  0  0
   26.7090  -18.3816  -12.1897 O   0  0  0  0  0  0  0  0  0  0  0  0
   26.1168  -20.5749  -12.4656 N   0  0  0  0  0  0  0  0  0  0  0  0
   25.4031  -20.6141  -11.2094 C   0  0  1  0  0  0  0  0  0  0  0  0
   24.2165  -21.5411  -11.4178 C   0  0  0  0  0  0  0  0  0  0  0  0
   23.1729  -20.8117  -12.1768 C   0  0  0  0  0  0  0  0  0  0  0  0
   22.2365  -19.9093  -11.7302 C   0  0  0  0  0  0  0  0  0  0  0  0
   21.5027  -19.5083  -12.7731 N   0  0  0  0  0  0  0  0  0  0  0  0
   21.9702  -20.1484  -13.8580 C   0  0  0  0  0  0  0  0  0  0  0  0
   22.9828  -20.9388  -13.4976 N   0  0  0  0  0  0  0  0  0  0  0  0
   26.2414  -21.0025  -10.0635 C   0  0  0  0  0  0  0  0  0  0  0  0
   26.9968  -22.0150  -10.0685 O   0  0  0  0  0  0  0  0  0  0  0  0
   26.1924  -20.1909   -8.8977 N   0  0  0  0  0  0  0  0  0  0  0  0
   26.9415  -20.4971   -7.7050 C   0  0  1  0  0  0  0  0  0  0  0  0
   27.9090  -19.3864   -7.3487 C   0  0  0  0  0  0  0  0  0  0  0  0
   28.5113  -19.5721   -6.0022 C   0  0  0  0  0  0  0  0  0  0  0  0
   27.9855  -18.8906   -4.9141 C   0  0  0  0  0  0  0  0  0  0  0  0
   28.5371  -19.0540   -3.6696 C   0  0  0  0  0  0  0  0  0  0  0  0
   29.6166  -19.8804   -3.4254 C   0  0  0  0  0  0  0  0  0  0  0  0
   30.1326  -20.5540   -4.5141 C   0  0  0  0  0  0  0  0  0  0  0  0
   29.5884  -20.3994   -5.7717 C   0  0  0  0  0  0  0  0  0  0  0  0
   26.0522  -20.7227   -6.5455 C   0  0  0  0  0  0  0  0  0  0  0  0
   24.9279  -20.1647   -6.4957 O   0  0  0  0  0  0  0  0  0  0  0  0
   26.4165  -21.5416   -5.4908 O   0  0  0  0  0  0  0  0  0  0  0  0
  2  1  1  6
  3  2  1  0
  3  4  1  0
  5  4  1  0
  6  5  1  0
  7  6  1  0
  8  9  2  0
  8  2  1  0
 10  8  1  0
 11 10  1  0
 11 12  1  6
 13 17  1  0
 13 12  1  0
 14 13  2  0
 15 14  1  0
 15 16  1  0
 16 17  2  0
 18 11  1  0
 19 18  2  0
 20 18  1  0
 21 29  1  0
 21 20  1  0
 21 22  1  1
 22 23  1  0
 23 28  1  0
 24 23  2  0
 24 25  1  0
 25 26  2  0
 26 27  1  0
 28 27  2  0
 29 31  1  0
 30 29  2  0
M  END
$$$$
