KHF.pdb
     RDKit          3D

 31 32  0  0  1  0  0  0  0  0999 V2000
   26.3382  -25.6548  -17.0570 N   0  0  0  0  0  0  0  0  0  0  0  0
   26.6376  -24.5540  -16.1941 C   0  0  1  0  0  0  0  0  0  0  0  0
   27.9448  -23.9035  -16.5859 C   0  0  0  0  0  0  0  0  0  0  0  0
   29.0301  -24.9329  -16.8181 C   0  0  0  0  0  0  0  0  0  0  0  0
   30.2435  -24.3278  -17.4496 C   0  0  0  0  0  0  0  0  0  0  0  0
   31.4013  -25.2694  -17.5573 C   0  0  0  0  0  0  0  0  0  0  0  0
   32.5229  -24.6424  -18.2034 N   0  0  0  0  0  0  0  0  0  0  0  0
   25.5175  -23.5968  -16.1873 C   0  0  0  0  0  0  0  0  0  0  0  0
   25.6645  -22.4860  -16.7520 O   0  0  0  0  0  0  0  0  0  0  0  0
   24.2638  -23.8582  -15.5719 N   0  0  0  0  0  0  0  0  0  0  0  0
   23.1750  -22.9093  -15.6249 C   0  0  1  0  0  0  0  0  0  0  0  0
   22.1352  -23.5001  -16.5632 C   0  0  0  0  0  0  0  0  0  0  0  0
   22.5949  -23.3109  -17.9597 C   0  0  0  0  0  0  0  0  0  0  0  0
   23.1751  -24.2137  -18.8194 C   0  0  0  0  0  0  0  0  0  0  0  0
   23.4226  -23.5965  -19.9789 N   0  0  0  0  0  0  0  0  0  0  0  0
   23.0048  -22.3260  -19.8503 C   0  0  0  0  0  0  0  0  0  0  0  0
   22.5029  -22.1518  -18.6266 N   0  0  0  0  0  0  0  0  0  0  0  0
   22.6260  -22.5629  -14.3039 C   0  0  0  0  0  0  0  0  0  0  0  0
   22.4739  -23.4041  -13.3737 O   0  0  0  0  0  0  0  0  0  0  0  0
   22.2521  -21.2112  -14.0722 N   0  0  0  0  0  0  0  0  0  0  0  0
   21.7823  -20.7428  -12.7926 C   0  0  1  0  0  0  0  0  0  0  0  0
   22.6706  -19.6495  -12.2340 C   0  0  0  0  0  0  0  0  0  0  0  0
   23.8599  -20.1937  -11.5270 C   0  0  0  0  0  0  0  0  0  0  0  0
   23.8498  -20.2961  -10.1434 C   0  0  0  0  0  0  0  0  0  0  0  0
   24.9436  -20.7942   -9.4837 C   0  0  0  0  0  0  0  0  0  0  0  0
   26.0894  -21.2129  -10.1316 C   0  0  0  0  0  0  0  0  0  0  0  0
   26.0898  -21.1070  -11.5079 C   0  0  0  0  0  0  0  0  0  0  0  0
   24.9970  -20.6079  -12.1850 C   0  0  0  0  0  0  0  0  0  0  0  0
   20.4030  -20.2171  -12.8774 C   0  0  0  0  0  0  0  0  0  0  0  0
   19.9129  -19.9107  -13.9927 O   0  0  0  0  0  0  0  0  0  0  0  0
   19.6135  -20.0458  -11.7535 O   0  0  0  0  0  0  0  0  0  0  0  0
  2  1  1  6
  3  2  1  0
  3  4  1  0
  5  4  1  0
  6  5  1  0
  7  6  1  0
  8  9  2  0
  8  2  1  0
 10  8  1  0
 11 10  1  0
 11 12  1  6
 13 17  1  0
 13 12  1  0
 14 13  2  0
 15 14  1  0
 15 16  1  0
 16 17  2  0
 18 11  1  0
 19 18  2  0
 20 18  1  0
 21 29  1  0
 21 20  1  0
 21 22  1  6
 22 23  1  0
 23 28  1  0
 24 23  2  0
 24 25  1  0
 25 26  2  0
 26 27  1  0
 28 27  2  0
 29 31  1  0
 30 29  2  0
M  END
$$$$
