KHF.pdb
     RDKit          3D

 31 32  0  0  1  0  0  0  0  0999 V2000
   26.9427  -20.4532  -20.5897 N   0  0  0  0  0  0  0  0  0  0  0  0
   25.5437  -20.3083  -20.8499 C   0  0  1  0  0  0  0  0  0  0  0  0
   24.9700  -21.5808  -21.4303 C   0  0  0  0  0  0  0  0  0  0  0  0
   26.0210  -22.6646  -21.5405 C   0  0  0  0  0  0  0  0  0  0  0  0
   26.1882  -23.4090  -20.2540 C   0  0  0  0  0  0  0  0  0  0  0  0
   27.0777  -24.6074  -20.3609 C   0  0  0  0  0  0  0  0  0  0  0  0
   27.3512  -25.1691  -19.0654 N   0  0  0  0  0  0  0  0  0  0  0  0
   24.8418  -19.8872  -19.6249 C   0  0  0  0  0  0  0  0  0  0  0  0
   25.5074  -19.6982  -18.5781 O   0  0  0  0  0  0  0  0  0  0  0  0
   23.4380  -19.6793  -19.5552 N   0  0  0  0  0  0  0  0  0  0  0  0
   22.7889  -19.2549  -18.3356 C   0  0  1  0  0  0  0  0  0  0  0  0
   21.4934  -18.5769  -18.7515 C   0  0  0  0  0  0  0  0  0  0  0  0
   20.8833  -17.9470  -17.5564 C   0  0  0  0  0  0  0  0  0  0  0  0
   21.2342  -16.7893  -16.9027 C   0  0  0  0  0  0  0  0  0  0  0  0
   20.3995  -16.6138  -15.8734 N   0  0  0  0  0  0  0  0  0  0  0  0
   19.5377  -17.6446  -15.8799 C   0  0  0  0  0  0  0  0  0  0  0  0
   19.8301  -18.4534  -16.8998 N   0  0  0  0  0  0  0  0  0  0  0  0
   22.5826  -20.3420  -17.3650 C   0  0  0  0  0  0  0  0  0  0  0  0
   22.2148  -21.5050  -17.6940 O   0  0  0  0  0  0  0  0  0  0  0  0
   22.8122  -20.0599  -15.9909 N   0  0  0  0  0  0  0  0  0  0  0  0
   22.5921  -21.0323  -14.9501 C   0  0  1  0  0  0  0  0  0  0  0  0
   23.8415  -21.2638  -14.1242 C   0  0  0  0  0  0  0  0  0  0  0  0
   24.9643  -21.8016  -14.9368 C   0  0  0  0  0  0  0  0  0  0  0  0
   25.0203  -23.1590  -15.2184 C   0  0  0  0  0  0  0  0  0  0  0  0
   26.0540  -23.6634  -15.9646 C   0  0  0  0  0  0  0  0  0  0  0  0
   27.0737  -22.8795  -16.4682 C   0  0  0  0  0  0  0  0  0  0  0  0
   27.0091  -21.5306  -16.1826 C   0  0  0  0  0  0  0  0  0  0  0  0
   25.9756  -21.0090  -15.4333 C   0  0  0  0  0  0  0  0  0  0  0  0
   21.5066  -20.6166  -14.0364 C   0  0  0  0  0  0  0  0  0  0  0  0
   21.2345  -19.3985  -13.8940 O   0  0  0  0  0  0  0  0  0  0  0  0
   20.7622  -21.5352  -13.3166 O   0  0  0  0  0  0  0  0  0  0  0  0
  2  1  1  1
  3  2  1  0
  3  4  1  0
  5  4  1  0
  6  5  1  0
  7  6  1  0
  8  9  2  0
  8  2  1  0
 10  8  1  0
 11 10  1  0
 11 12  1  6
 13 17  1  0
 13 12  1  0
 14 13  2  0
 15 14  1  0
 15 16  1  0
 16 17  2  0
 18 11  1  0
 19 18  2  0
 20 18  1  0
 21 29  1  0
 21 20  1  0
 21 22  1  1
 22 23  1  0
 23 28  1  0
 24 23  2  0
 24 25  1  0
 25 26  2  0
 26 27  1  0
 28 27  2  0
 29 31  1  0
 30 29  2  0
M  END
$$$$
