YNW.pdb
     RDKit          3D

 35 37  0  0  1  0  0  0  0  0999 V2000
   17.0916  -14.1877   18.5167 O   0  0  0  0  0  0  0  0  0  0  0  0
   15.7970  -14.2054   19.0264 C   0  0  0  0  0  0  0  0  0  0  0  0
   14.9106  -13.1980   18.6244 C   0  0  0  0  0  0  0  0  0  0  0  0
   13.6194  -13.1838   19.1097 C   0  0  0  0  0  0  0  0  0  0  0  0
   13.2094  -14.1566   19.9840 C   0  0  0  0  0  0  0  0  0  0  0  0
   11.8294  -14.1429   20.5023 C   0  0  0  0  0  0  0  0  0  0  0  0
   11.1013  -15.4017   20.0166 C   0  0  2  0  0  0  0  0  0  0  0  0
   10.3674  -15.1348   18.8233 N   0  0  0  0  0  0  0  0  0  0  0  0
   10.1854  -15.8607   21.1191 C   0  0  0  0  0  0  0  0  0  0  0  0
    9.1603  -15.2075   21.3722 O   0  0  0  0  0  0  0  0  0  0  0  0
   14.0920  -15.1418   20.3714 C   0  0  0  0  0  0  0  0  0  0  0  0
   15.3910  -15.1795   19.9002 C   0  0  0  0  0  0  0  0  0  0  0  0
    8.9498  -20.0317   20.5759 N   0  0  0  0  0  0  0  0  0  0  0  0
    8.4362  -19.3665   21.7573 C   0  0  0  0  0  0  0  0  0  0  0  0
    7.2190  -19.2554   21.8046 O   0  0  0  0  0  0  0  0  0  0  0  0
    9.3889  -18.9215   22.7180 C   0  0  0  0  0  0  0  0  0  0  0  0
    9.6564  -17.4945   22.9883 C   0  0  2  0  0  0  0  0  0  0  0  0
   10.5105  -17.0295   21.8463 N   0  0  0  0  0  0  0  0  0  0  0  0
   10.3060  -17.1160   24.2395 C   0  0  0  0  0  0  0  0  0  0  0  0
   11.4899  -17.5763   24.4949 O   0  0  0  0  0  0  0  0  0  0  0  0
    9.8040  -16.2816   25.2426 N   0  0  0  0  0  0  0  0  0  0  0  0
   10.4197  -16.2466   26.5927 C   0  0  1  0  0  0  0  0  0  0  0  0
    9.7642  -15.0661   27.2448 C   0  0  0  0  0  0  0  0  0  0  0  0
    8.5114  -14.6746   26.5863 C   0  0  0  0  0  0  0  0  0  0  0  0
    7.4467  -15.5294   26.2433 C   0  0  0  0  0  0  0  0  0  0  0  0
    6.4869  -14.8256   25.6286 N   0  0  0  0  0  0  0  0  0  0  0  0
    6.8421  -13.5246   25.5333 C   0  0  0  0  0  0  0  0  0  0  0  0
    6.1803  -12.4359   25.0046 C   0  0  0  0  0  0  0  0  0  0  0  0
    6.7998  -11.2117   25.0768 C   0  0  0  0  0  0  0  0  0  0  0  0
    8.0432  -11.1074   25.6648 C   0  0  0  0  0  0  0  0  0  0  0  0
    8.6896  -12.1992   26.1856 C   0  0  0  0  0  0  0  0  0  0  0  0
    8.0970  -13.4406   26.1293 C   0  0  0  0  0  0  0  0  0  0  0  0
   10.2003  -17.5156   27.2900 C   0  0  0  0  0  0  0  0  0  0  0  0
   10.7610  -17.6931   28.4227 O   0  0  0  0  0  0  0  0  0  0  0  0
    9.4224  -18.5554   26.8284 O   0  0  0  0  0  0  0  0  0  0  0  0
  2  1  1  0
  3  2  2  0
  4  3  1  0
  5 11  1  0
  5  4  2  0
  6  5  1  0
  7  8  1  6
  7  6  1  0
  9  7  1  0
 10  9  2  0
 11 12  2  0
 12  2  1  0
 13 14  1  0
 14 15  2  0
 14 16  1  0
 17 16  1  1
 17 19  1  0
 17 18  1  0
 18  9  1  0
 19 21  1  0
 20 19  2  0
 21 22  1  0
 22 23  1  1
 22 33  1  0
 24 23  1  0
 25 24  2  0
 26 27  1  0
 26 25  1  0
 27 32  2  0
 28 27  1  0
 28 29  2  0
 29 30  1  0
 30 31  2  0
 32 24  1  0
 32 31  1  0
 33 34  2  0
 33 35  1  0
M  END
$$$$
