YNW.pdb
     RDKit          3D

 35 37  0  0  1  0  0  0  0  0999 V2000
    7.6349  -11.8044   16.8099 O   0  0  0  0  0  0  0  0  0  0  0  0
    7.7783  -12.5524   17.9744 C   0  0  0  0  0  0  0  0  0  0  0  0
    9.0672  -12.9451   18.3575 C   0  0  0  0  0  0  0  0  0  0  0  0
    9.2473  -13.6876   19.5060 C   0  0  0  0  0  0  0  0  0  0  0  0
    8.1630  -14.0382   20.2678 C   0  0  0  0  0  0  0  0  0  0  0  0
    8.3545  -14.8308   21.4959 C   0  0  0  0  0  0  0  0  0  0  0  0
    8.5595  -16.3015   21.1139 C   0  0  2  0  0  0  0  0  0  0  0  0
    7.3659  -16.8536   20.5621 N   0  0  0  0  0  0  0  0  0  0  0  0
    8.9734  -17.0480   22.3534 C   0  0  0  0  0  0  0  0  0  0  0  0
    8.1237  -17.3101   23.2201 O   0  0  0  0  0  0  0  0  0  0  0  0
    6.9004  -13.6453   19.8790 C   0  0  0  0  0  0  0  0  0  0  0  0
    6.6920  -12.9008   18.7331 C   0  0  0  0  0  0  0  0  0  0  0  0
   13.0025  -19.5224   21.2386 N   0  0  0  0  0  0  0  0  0  0  0  0
   12.1180  -19.7879   22.3563 C   0  0  0  0  0  0  0  0  0  0  0  0
   11.5130  -20.8495   22.3008 O   0  0  0  0  0  0  0  0  0  0  0  0
   12.0504  -18.8000   23.3801 C   0  0  0  0  0  0  0  0  0  0  0  0
   10.7983  -18.1147   23.7588 C   0  0  2  0  0  0  0  0  0  0  0  0
   10.3244  -17.4375   22.5072 N   0  0  0  0  0  0  0  0  0  0  0  0
   10.8220  -17.1329   24.8387 C   0  0  0  0  0  0  0  0  0  0  0  0
   11.6081  -16.1079   24.7363 O   0  0  0  0  0  0  0  0  0  0  0  0
   10.0737  -17.1456   26.0195 N   0  0  0  0  0  0  0  0  0  0  0  0
   10.6459  -16.6531   27.2974 C   0  0  1  0  0  0  0  0  0  0  0  0
   10.2960  -15.1950   27.2976 C   0  0  0  0  0  0  0  0  0  0  0  0
    8.9137  -14.9409   26.8720 C   0  0  0  0  0  0  0  0  0  0  0  0
    7.9442  -15.9134   26.5620 C   0  0  0  0  0  0  0  0  0  0  0  0
    6.8099  -15.3105   26.1825 N   0  0  0  0  0  0  0  0  0  0  0  0
    6.9539  -13.9667   26.2178 C   0  0  0  0  0  0  0  0  0  0  0  0
    6.0683  -12.9477   25.9350 C   0  0  0  0  0  0  0  0  0  0  0  0
    6.5077  -11.6550   26.0889 C   0  0  0  0  0  0  0  0  0  0  0  0
    7.7981  -11.4167   26.5137 C   0  0  0  0  0  0  0  0  0  0  0  0
    8.6680  -12.4404   26.7904 C   0  0  0  0  0  0  0  0  0  0  0  0
    8.2598  -13.7473   26.6462 C   0  0  0  0  0  0  0  0  0  0  0  0
   10.0952  -17.4023   28.4289 C   0  0  0  0  0  0  0  0  0  0  0  0
    9.2139  -18.2958   28.1968 O   0  0  0  0  0  0  0  0  0  0  0  0
   10.4533  -17.2316   29.7488 O   0  0  0  0  0  0  0  0  0  0  0  0
  2  1  1  0
  3  2  2  0
  4  3  1  0
  5 11  1  0
  5  4  2  0
  6  5  1  0
  7  8  1  1
  7  6  1  0
  9  7  1  0
 10  9  2  0
 11 12  2  0
 12  2  1  0
 13 14  1  0
 14 15  2  0
 14 16  1  0
 17 16  1  6
 17 19  1  0
 17 18  1  0
 18  9  1  0
 19 21  1  0
 20 19  2  0
 21 22  1  0
 22 23  1  1
 22 33  1  0
 24 23  1  0
 25 24  2  0
 26 27  1  0
 26 25  1  0
 27 32  2  0
 28 27  1  0
 28 29  2  0
 29 30  1  0
 30 31  2  0
 32 24  1  0
 32 31  1  0
 33 34  2  0
 33 35  1  0
M  END
$$$$
