YNW.pdb
     RDKit          3D

 35 37  0  0  1  0  0  0  0  0999 V2000
    6.4955  -12.8040   17.1967 O   0  0  0  0  0  0  0  0  0  0  0  0
    7.2483  -13.8306   17.7583 C   0  0  0  0  0  0  0  0  0  0  0  0
    8.5972  -13.5853   18.0451 C   0  0  0  0  0  0  0  0  0  0  0  0
    9.3742  -14.5799   18.6021 C   0  0  0  0  0  0  0  0  0  0  0  0
    8.8218  -15.8049   18.8725 C   0  0  0  0  0  0  0  0  0  0  0  0
    9.6509  -16.8680   19.4688 C   0  0  0  0  0  0  0  0  0  0  0  0
    9.3238  -16.9774   20.9627 C   0  0  2  0  0  0  0  0  0  0  0  0
    8.8479  -15.7325   21.4704 N   0  0  0  0  0  0  0  0  0  0  0  0
   10.5753  -17.4066   21.6800 C   0  0  0  0  0  0  0  0  0  0  0  0
   10.9725  -18.5776   21.5664 O   0  0  0  0  0  0  0  0  0  0  0  0
    7.4931  -16.0327   18.5852 C   0  0  0  0  0  0  0  0  0  0  0  0
    6.6925  -15.0537   18.0272 C   0  0  0  0  0  0  0  0  0  0  0  0
   15.8178  -16.9192   22.8364 N   0  0  0  0  0  0  0  0  0  0  0  0
   14.8558  -16.0369   23.4674 C   0  0  0  0  0  0  0  0  0  0  0  0
   15.2718  -15.4237   24.4405 O   0  0  0  0  0  0  0  0  0  0  0  0
   13.5525  -15.9815   22.8954 C   0  0  0  0  0  0  0  0  0  0  0  0
   12.4529  -16.8783   23.3044 C   0  0  2  0  0  0  0  0  0  0  0  0
   11.2761  -16.4663   22.4706 N   0  0  0  0  0  0  0  0  0  0  0  0
   12.0427  -16.9098   24.7049 C   0  0  0  0  0  0  0  0  0  0  0  0
   12.9537  -16.8707   25.6255 O   0  0  0  0  0  0  0  0  0  0  0  0
   10.7412  -16.9733   25.2112 N   0  0  0  0  0  0  0  0  0  0  0  0
   10.4699  -16.7905   26.6590 C   0  0  1  0  0  0  0  0  0  0  0  0
   10.1231  -15.3358   26.7683 C   0  0  0  0  0  0  0  0  0  0  0  0
    8.7216  -15.0574   26.4293 C   0  0  0  0  0  0  0  0  0  0  0  0
    7.7734  -15.9907   25.9692 C   0  0  0  0  0  0  0  0  0  0  0  0
    6.6105  -15.3692   25.7335 N   0  0  0  0  0  0  0  0  0  0  0  0
    6.7145  -14.0501   26.0112 C   0  0  0  0  0  0  0  0  0  0  0  0
    5.7903  -13.0286   25.9410 C   0  0  0  0  0  0  0  0  0  0  0  0
    6.1944  -11.7709   26.3188 C   0  0  0  0  0  0  0  0  0  0  0  0
    7.4891  -11.5687   26.7496 C   0  0  0  0  0  0  0  0  0  0  0  0
    8.3976  -12.5942   26.8133 C   0  0  0  0  0  0  0  0  0  0  0  0
    8.0253  -13.8665   26.4416 C   0  0  0  0  0  0  0  0  0  0  0  0
    9.4064  -17.6956   27.1002 C   0  0  0  0  0  0  0  0  0  0  0  0
    8.7803  -18.3749   26.2196 O   0  0  0  0  0  0  0  0  0  0  0  0
    9.0154  -17.8898   28.4075 O   0  0  0  0  0  0  0  0  0  0  0  0
  2  1  1  0
  3  2  2  0
  4  3  1  0
  5 11  1  0
  5  4  2  0
  6  5  1  0
  7  8  1  1
  7  6  1  0
  9  7  1  0
 10  9  2  0
 11 12  2  0
 12  2  1  0
 13 14  1  0
 14 15  2  0
 14 16  1  0
 17 16  1  1
 17 19  1  0
 17 18  1  0
 18  9  1  0
 19 21  1  0
 20 19  2  0
 21 22  1  0
 22 23  1  6
 22 33  1  0
 24 23  1  0
 25 24  2  0
 26 27  1  0
 26 25  1  0
 27 32  2  0
 28 27  1  0
 28 29  2  0
 29 30  1  0
 30 31  2  0
 32 24  1  0
 32 31  1  0
 33 34  2  0
 33 35  1  0
M  END
$$$$
