YNW.pdb
     RDKit          3D

 35 37  0  0  1  0  0  0  0  0999 V2000
    3.2805  -23.7636   22.0709 O   0  0  0  0  0  0  0  0  0  0  0  0
    4.5159  -23.1235   22.0857 C   0  0  0  0  0  0  0  0  0  0  0  0
    5.0865  -22.8088   23.3257 C   0  0  0  0  0  0  0  0  0  0  0  0
    6.3100  -22.1739   23.3789 C   0  0  0  0  0  0  0  0  0  0  0  0
    6.9624  -21.8535   22.2167 C   0  0  0  0  0  0  0  0  0  0  0  0
    8.2704  -21.1760   22.2724 C   0  0  0  0  0  0  0  0  0  0  0  0
    8.1017  -19.8216   22.9708 C   0  0  2  0  0  0  0  0  0  0  0  0
    7.1357  -19.0190   22.2950 N   0  0  0  0  0  0  0  0  0  0  0  0
    9.4442  -19.1418   22.9923 C   0  0  0  0  0  0  0  0  0  0  0  0
   10.4602  -19.8057   23.2546 O   0  0  0  0  0  0  0  0  0  0  0  0
    6.3894  -22.1688   21.0034 C   0  0  0  0  0  0  0  0  0  0  0  0
    5.1648  -22.8049   20.9219 C   0  0  0  0  0  0  0  0  0  0  0  0
   11.1387  -18.0835   20.0613 N   0  0  0  0  0  0  0  0  0  0  0  0
   10.9609  -16.6535   20.2211 C   0  0  0  0  0  0  0  0  0  0  0  0
   10.9468  -16.0110   19.1803 O   0  0  0  0  0  0  0  0  0  0  0  0
   10.8249  -16.1603   21.5504 C   0  0  0  0  0  0  0  0  0  0  0  0
   10.8365  -17.0343   22.7406 C   0  0  2  0  0  0  0  0  0  0  0  0
    9.5228  -17.7575   22.7126 N   0  0  0  0  0  0  0  0  0  0  0  0
   11.0111  -16.4374   24.0612 C   0  0  0  0  0  0  0  0  0  0  0  0
   12.0234  -15.6550   24.2661 O   0  0  0  0  0  0  0  0  0  0  0  0
   10.1943  -16.5977   25.1843 N   0  0  0  0  0  0  0  0  0  0  0  0
   10.6632  -16.2083   26.5376 C   0  0  1  0  0  0  0  0  0  0  0  0
   10.1016  -14.8298   26.7185 C   0  0  0  0  0  0  0  0  0  0  0  0
    8.6442  -14.7813   26.5452 C   0  0  0  0  0  0  0  0  0  0  0  0
    7.7902  -15.8833   26.3503 C   0  0  0  0  0  0  0  0  0  0  0  0
    6.5306  -15.4532   26.1996 N   0  0  0  0  0  0  0  0  0  0  0  0
    6.4783  -14.1048   26.2826 C   0  0  0  0  0  0  0  0  0  0  0  0
    5.4161  -13.2280   26.2078 C   0  0  0  0  0  0  0  0  0  0  0  0
    5.6795  -11.8875   26.3553 C   0  0  0  0  0  0  0  0  0  0  0  0
    6.9745  -11.4640   26.5698 C   0  0  0  0  0  0  0  0  0  0  0  0
    8.0210  -12.3478   26.6410 C   0  0  0  0  0  0  0  0  0  0  0  0
    7.7917  -13.6976   26.4970 C   0  0  0  0  0  0  0  0  0  0  0  0
   10.2083  -17.1773   27.5371 C   0  0  0  0  0  0  0  0  0  0  0  0
   10.3148  -16.8740   28.7722 O   0  0  0  0  0  0  0  0  0  0  0  0
    9.6584  -18.4103   27.2602 O   0  0  0  0  0  0  0  0  0  0  0  0
  2  1  1  0
  3  2  2  0
  4  3  1  0
  5 11  1  0
  5  4  2  0
  6  5  1  0
  7  8  1  6
  7  6  1  0
  9  7  1  0
 10  9  2  0
 11 12  2  0
 12  2  1  0
 13 14  1  0
 14 15  2  0
 14 16  1  0
 17 16  1  6
 17 19  1  0
 17 18  1  0
 18  9  1  0
 19 21  1  0
 20 19  2  0
 21 22  1  0
 22 23  1  1
 22 33  1  0
 24 23  1  0
 25 24  2  0
 26 27  1  0
 26 25  1  0
 27 32  2  0
 28 27  1  0
 28 29  2  0
 29 30  1  0
 30 31  2  0
 32 24  1  0
 32 31  1  0
 33 34  2  0
 33 35  1  0
M  END
$$$$
