YNW.pdb
     RDKit          3D

 35 37  0  0  1  0  0  0  0  0999 V2000
    8.9004  -12.4179   17.3861 O   0  0  0  0  0  0  0  0  0  0  0  0
    8.3861  -13.4421   18.1752 C   0  0  0  0  0  0  0  0  0  0  0  0
    7.7145  -13.0985   19.3555 C   0  0  0  0  0  0  0  0  0  0  0  0
    7.1918  -14.0876   20.1626 C   0  0  0  0  0  0  0  0  0  0  0  0
    7.3324  -15.4035   19.8056 C   0  0  0  0  0  0  0  0  0  0  0  0
    6.7733  -16.4612   20.6669 C   0  0  0  0  0  0  0  0  0  0  0  0
    7.3100  -16.2803   22.0917 C   0  0  2  0  0  0  0  0  0  0  0  0
    7.1628  -14.9285   22.5217 N   0  0  0  0  0  0  0  0  0  0  0  0
    8.7580  -16.6905   22.0960 C   0  0  0  0  0  0  0  0  0  0  0  0
    9.0640  -17.8524   21.7827 O   0  0  0  0  0  0  0  0  0  0  0  0
    7.9957  -15.7275   18.6416 C   0  0  0  0  0  0  0  0  0  0  0  0
    8.5287  -14.7563   17.8149 C   0  0  0  0  0  0  0  0  0  0  0  0
   12.2227  -16.0257   19.7252 N   0  0  0  0  0  0  0  0  0  0  0  0
   11.8813  -14.9422   20.6261 C   0  0  0  0  0  0  0  0  0  0  0  0
   11.5183  -13.9082   20.0830 O   0  0  0  0  0  0  0  0  0  0  0  0
   12.0042  -15.1953   22.0224 C   0  0  0  0  0  0  0  0  0  0  0  0
   11.1546  -16.1631   22.7451 C   0  0  2  0  0  0  0  0  0  0  0  0
    9.7439  -15.7427   22.4570 N   0  0  0  0  0  0  0  0  0  0  0  0
   11.3110  -16.3093   24.1890 C   0  0  0  0  0  0  0  0  0  0  0  0
   12.4858  -16.5722   24.6684 O   0  0  0  0  0  0  0  0  0  0  0  0
   10.3219  -16.1932   25.1700 N   0  0  0  0  0  0  0  0  0  0  0  0
   10.6047  -16.5230   26.5894 C   0  0  1  0  0  0  0  0  0  0  0  0
   10.0695  -15.3380   27.3364 C   0  0  0  0  0  0  0  0  0  0  0  0
    8.6665  -15.0479   27.0142 C   0  0  0  0  0  0  0  0  0  0  0  0
    7.6933  -15.9811   26.6096 C   0  0  0  0  0  0  0  0  0  0  0  0
    6.5366  -15.3484   26.3726 N   0  0  0  0  0  0  0  0  0  0  0  0
    6.6690  -14.0216   26.5965 C   0  0  0  0  0  0  0  0  0  0  0  0
    5.7612  -12.9872   26.5045 C   0  0  0  0  0  0  0  0  0  0  0  0
    6.1944  -11.7233   26.8249 C   0  0  0  0  0  0  0  0  0  0  0  0
    7.5008  -11.5278   27.2220 C   0  0  0  0  0  0  0  0  0  0  0  0
    8.3927  -12.5662   27.3079 C   0  0  0  0  0  0  0  0  0  0  0  0
    7.9911  -13.8450   26.9936 C   0  0  0  0  0  0  0  0  0  0  0  0
    9.9788  -17.7954   26.9553 C   0  0  0  0  0  0  0  0  0  0  0  0
   10.0813  -18.2001   28.1613 O   0  0  0  0  0  0  0  0  0  0  0  0
    9.2689  -18.6103   26.1000 O   0  0  0  0  0  0  0  0  0  0  0  0
  2  1  1  0
  3  2  2  0
  4  3  1  0
  5 11  1  0
  5  4  2  0
  6  5  1  0
  7  8  1  6
  7  6  1  0
  9  7  1  0
 10  9  2  0
 11 12  2  0
 12  2  1  0
 13 14  1  0
 14 15  2  0
 14 16  1  0
 17 16  1  1
 17 19  1  0
 17 18  1  0
 18  9  1  0
 19 21  1  0
 20 19  2  0
 21 22  1  0
 22 23  1  1
 22 33  1  0
 24 23  1  0
 25 24  2  0
 26 27  1  0
 26 25  1  0
 27 32  2  0
 28 27  1  0
 28 29  2  0
 29 30  1  0
 30 31  2  0
 32 24  1  0
 32 31  1  0
 33 34  2  0
 33 35  1  0
M  END
$$$$
