YNW.pdb
     RDKit          3D

 35 37  0  0  1  0  0  0  0  0999 V2000
   15.7163  -23.2987   20.4268 O   0  0  0  0  0  0  0  0  0  0  0  0
   14.9738  -22.1523   20.6926 C   0  0  0  0  0  0  0  0  0  0  0  0
   13.5862  -22.2779   20.8373 C   0  0  0  0  0  0  0  0  0  0  0  0
   12.8182  -21.1628   21.1011 C   0  0  0  0  0  0  0  0  0  0  0  0
   13.4172  -19.9357   21.2203 C   0  0  0  0  0  0  0  0  0  0  0  0
   12.5975  -18.7435   21.5032 C   0  0  0  0  0  0  0  0  0  0  0  0
   11.7872  -18.3864   20.2516 C   0  0  2  0  0  0  0  0  0  0  0  0
   12.6504  -18.0606   19.1641 N   0  0  0  0  0  0  0  0  0  0  0  0
   10.8939  -17.2248   20.5946 C   0  0  0  0  0  0  0  0  0  0  0  0
   11.3111  -16.0663   20.4348 O   0  0  0  0  0  0  0  0  0  0  0  0
   14.7835  -19.8264   21.0754 C   0  0  0  0  0  0  0  0  0  0  0  0
   15.5762  -20.9276   20.8112 C   0  0  0  0  0  0  0  0  0  0  0  0
    6.3229  -14.7609   22.0162 N   0  0  0  0  0  0  0  0  0  0  0  0
    6.1501  -16.1737   21.7403 C   0  0  0  0  0  0  0  0  0  0  0  0
    4.9907  -16.5634   21.7257 O   0  0  0  0  0  0  0  0  0  0  0  0
    7.3293  -16.9417   21.5204 C   0  0  0  0  0  0  0  0  0  0  0  0
    8.6819  -16.3501   21.4806 C   0  0  2  0  0  0  0  0  0  0  0  0
    9.5942  -17.4758   21.0928 N   0  0  0  0  0  0  0  0  0  0  0  0
    9.2153  -15.7105   22.6793 C   0  0  0  0  0  0  0  0  0  0  0  0
    8.7480  -14.5551   23.0335 O   0  0  0  0  0  0  0  0  0  0  0  0
   10.2025  -16.2000   23.5396 N   0  0  0  0  0  0  0  0  0  0  0  0
   10.1691  -15.9061   24.9941 C   0  0  1  0  0  0  0  0  0  0  0  0
    8.8790  -16.5229   25.4454 C   0  0  0  0  0  0  0  0  0  0  0  0
    7.8432  -15.5247   25.7408 C   0  0  0  0  0  0  0  0  0  0  0  0
    6.4604  -15.6666   25.5180 C   0  0  0  0  0  0  0  0  0  0  0  0
    5.8304  -14.5410   25.8791 N   0  0  0  0  0  0  0  0  0  0  0  0
    6.7166  -13.6305   26.3411 C   0  0  0  0  0  0  0  0  0  0  0  0
    6.5385  -12.3548   26.8346 C   0  0  0  0  0  0  0  0  0  0  0  0
    7.6518  -11.6697   27.2579 C   0  0  0  0  0  0  0  0  0  0  0  0
    8.8932  -12.2656   27.1790 C   0  0  0  0  0  0  0  0  0  0  0  0
    9.0550  -13.5349   26.6850 C   0  0  0  0  0  0  0  0  0  0  0  0
    7.9603  -14.2487   26.2520 C   0  0  0  0  0  0  0  0  0  0  0  0
   11.3575  -16.4498   25.6551 C   0  0  0  0  0  0  0  0  0  0  0  0
   12.0583  -17.3158   25.0325 O   0  0  0  0  0  0  0  0  0  0  0  0
   11.8014  -16.1001   26.9122 O   0  0  0  0  0  0  0  0  0  0  0  0
  2  1  1  0
  3  2  2  0
  4  3  1  0
  5 11  1  0
  5  4  2  0
  6  5  1  0
  7  8  1  6
  7  6  1  0
  9  7  1  0
 10  9  2  0
 11 12  2  0
 12  2  1  0
 13 14  1  0
 14 15  2  0
 14 16  1  0
 17 16  1  1
 17 19  1  0
 17 18  1  0
 18  9  1  0
 19 21  1  0
 20 19  2  0
 21 22  1  0
 22 23  1  1
 22 33  1  0
 24 23  1  0
 25 24  2  0
 26 27  1  0
 26 25  1  0
 27 32  2  0
 28 27  1  0
 28 29  2  0
 29 30  1  0
 30 31  2  0
 32 24  1  0
 32 31  1  0
 33 34  2  0
 33 35  1  0
M  END
$$$$
