YNW.pdb
     RDKit          3D

 35 37  0  0  1  0  0  0  0  0999 V2000
    8.6205  -19.0346   29.3609 O   0  0  0  0  0  0  0  0  0  0  0  0
    7.9877  -19.2524   28.1409 C   0  0  0  0  0  0  0  0  0  0  0  0
    8.0968  -18.2679   27.1505 C   0  0  0  0  0  0  0  0  0  0  0  0
    7.4824  -18.4498   25.9289 C   0  0  0  0  0  0  0  0  0  0  0  0
    6.7671  -19.5943   25.6897 C   0  0  0  0  0  0  0  0  0  0  0  0
    6.1110  -19.7901   24.3842 C   0  0  0  0  0  0  0  0  0  0  0  0
    7.0474  -20.5886   23.4697 C   0  0  2  0  0  0  0  0  0  0  0  0
    7.5194  -21.7627   24.1274 N   0  0  0  0  0  0  0  0  0  0  0  0
    8.1930  -19.6919   23.0842 C   0  0  0  0  0  0  0  0  0  0  0  0
    9.3581  -20.1024   23.2097 O   0  0  0  0  0  0  0  0  0  0  0  0
    6.6677  -20.5549   26.6732 C   0  0  0  0  0  0  0  0  0  0  0  0
    7.2736  -20.3978   27.9057 C   0  0  0  0  0  0  0  0  0  0  0  0
   10.8383  -16.6689   19.8835 N   0  0  0  0  0  0  0  0  0  0  0  0
    9.5156  -17.0940   19.4689 C   0  0  0  0  0  0  0  0  0  0  0  0
    9.2762  -16.9625   18.2767 O   0  0  0  0  0  0  0  0  0  0  0  0
    8.6528  -17.6093   20.4783 C   0  0  0  0  0  0  0  0  0  0  0  0
    8.9871  -17.5826   21.9165 C   0  0  2  0  0  0  0  0  0  0  0  0
    7.9197  -18.3969   22.5854 N   0  0  0  0  0  0  0  0  0  0  0  0
    9.0891  -16.2972   22.6004 C   0  0  0  0  0  0  0  0  0  0  0  0
    8.0653  -15.5030   22.5973 O   0  0  0  0  0  0  0  0  0  0  0  0
   10.1892  -15.7856   23.2950 N   0  0  0  0  0  0  0  0  0  0  0  0
   10.2113  -15.7470   24.7786 C   0  0  1  0  0  0  0  0  0  0  0  0
    8.9275  -16.4189   25.1645 C   0  0  0  0  0  0  0  0  0  0  0  0
    7.8043  -15.4797   25.2766 C   0  0  0  0  0  0  0  0  0  0  0  0
    6.5211  -15.6438   24.7216 C   0  0  0  0  0  0  0  0  0  0  0  0
    5.7702  -14.5708   25.0031 N   0  0  0  0  0  0  0  0  0  0  0  0
    6.4781  -13.6753   25.7276 C   0  0  0  0  0  0  0  0  0  0  0  0
    6.1277  -12.4503   26.2558 C   0  0  0  0  0  0  0  0  0  0  0  0
    7.0759  -11.7694   26.9804 C   0  0  0  0  0  0  0  0  0  0  0  0
    8.3285  -12.3196   27.1561 C   0  0  0  0  0  0  0  0  0  0  0  0
    8.6629  -13.5387   26.6240 C   0  0  0  0  0  0  0  0  0  0  0  0
    7.7363  -14.2469   25.8922 C   0  0  0  0  0  0  0  0  0  0  0  0
   11.4127  -16.4091   25.2916 C   0  0  0  0  0  0  0  0  0  0  0  0
   11.7768  -16.1668   26.4906 O   0  0  0  0  0  0  0  0  0  0  0  0
   12.1995  -17.2931   24.5853 O   0  0  0  0  0  0  0  0  0  0  0  0
  2  1  1  0
  3  2  2  0
  4  3  1  0
  5 11  1  0
  5  4  2  0
  6  5  1  0
  7  8  1  1
  7  6  1  0
  9  7  1  0
 10  9  2  0
 11 12  2  0
 12  2  1  0
 13 14  1  0
 14 15  2  0
 14 16  1  0
 17 16  1  6
 17 19  1  0
 17 18  1  0
 18  9  1  0
 19 21  1  0
 20 19  2  0
 21 22  1  0
 22 23  1  1
 22 33  1  0
 24 23  1  0
 25 24  2  0
 26 27  1  0
 26 25  1  0
 27 32  2  0
 28 27  1  0
 28 29  2  0
 29 30  1  0
 30 31  2  0
 32 24  1  0
 32 31  1  0
 33 34  2  0
 33 35  1  0
M  END
$$$$
