YNW.pdb
     RDKit          3D

 35 37  0  0  1  0  0  0  0  0999 V2000
    8.3622  -11.8081   16.8871 O   0  0  0  0  0  0  0  0  0  0  0  0
    8.0750  -12.6346   17.9690 C   0  0  0  0  0  0  0  0  0  0  0  0
    6.7917  -12.5764   18.5276 C   0  0  0  0  0  0  0  0  0  0  0  0
    6.4715  -13.3811   19.6012 C   0  0  0  0  0  0  0  0  0  0  0  0
    7.4116  -14.2348   20.1172 C   0  0  0  0  0  0  0  0  0  0  0  0
    7.0701  -15.0960   21.2639 C   0  0  0  0  0  0  0  0  0  0  0  0
    8.2881  -15.9552   21.6231 C   0  0  2  0  0  0  0  0  0  0  0  0
    8.6354  -16.8197   20.5433 N   0  0  0  0  0  0  0  0  0  0  0  0
    7.9479  -16.7470   22.8569 C   0  0  0  0  0  0  0  0  0  0  0  0
    7.1366  -16.2837   23.6747 O   0  0  0  0  0  0  0  0  0  0  0  0
    8.6706  -14.2818   19.5580 C   0  0  0  0  0  0  0  0  0  0  0  0
    9.0175  -13.4865   18.4819 C   0  0  0  0  0  0  0  0  0  0  0  0
    7.8809  -20.9726   26.1590 N   0  0  0  0  0  0  0  0  0  0  0  0
    8.5457  -21.2574   24.9024 C   0  0  0  0  0  0  0  0  0  0  0  0
    8.8710  -22.4251   24.7384 O   0  0  0  0  0  0  0  0  0  0  0  0
    8.7449  -20.1648   24.0107 C   0  0  0  0  0  0  0  0  0  0  0  0
    8.3341  -18.7815   24.3248 C   0  0  2  0  0  0  0  0  0  0  0  0
    8.5598  -18.0057   23.0610 N   0  0  0  0  0  0  0  0  0  0  0  0
    8.9849  -18.0776   25.4255 C   0  0  0  0  0  0  0  0  0  0  0  0
    8.9050  -18.5729   26.6202 O   0  0  0  0  0  0  0  0  0  0  0  0
    9.7212  -16.8909   25.3622 N   0  0  0  0  0  0  0  0  0  0  0  0
   10.1887  -16.2098   26.5954 C   0  0  1  0  0  0  0  0  0  0  0  0
    8.9296  -16.0173   27.3866 C   0  0  0  0  0  0  0  0  0  0  0  0
    7.9115  -15.2490   26.6589 C   0  0  0  0  0  0  0  0  0  0  0  0
    6.7251  -15.7582   26.0977 C   0  0  0  0  0  0  0  0  0  0  0  0
    6.0592  -14.7707   25.4847 N   0  0  0  0  0  0  0  0  0  0  0  0
    6.7330  -13.6041   25.5990 C   0  0  0  0  0  0  0  0  0  0  0  0
    6.4363  -12.3332   25.1525 C   0  0  0  0  0  0  0  0  0  0  0  0
    7.3226  -11.3260   25.4492 C   0  0  0  0  0  0  0  0  0  0  0  0
    8.4630  -11.6087   26.1717 C   0  0  0  0  0  0  0  0  0  0  0  0
    8.7452  -12.8779   26.6085 C   0  0  0  0  0  0  0  0  0  0  0  0
    7.8785  -13.9101   26.3279 C   0  0  0  0  0  0  0  0  0  0  0  0
   11.2058  -17.0166   27.2733 C   0  0  0  0  0  0  0  0  0  0  0  0
   11.8021  -16.5194   28.2862 O   0  0  0  0  0  0  0  0  0  0  0  0
   11.5816  -18.2929   26.9138 O   0  0  0  0  0  0  0  0  0  0  0  0
  2  1  1  0
  3  2  2  0
  4  3  1  0
  5 11  1  0
  5  4  2  0
  6  5  1  0
  7  8  1  6
  7  6  1  0
  9  7  1  0
 10  9  2  0
 11 12  2  0
 12  2  1  0
 13 14  1  0
 14 15  2  0
 14 16  1  0
 17 16  1  6
 17 19  1  0
 17 18  1  0
 18  9  1  0
 19 21  1  0
 20 19  2  0
 21 22  1  0
 22 23  1  1
 22 33  1  0
 24 23  1  0
 25 24  2  0
 26 27  1  0
 26 25  1  0
 27 32  2  0
 28 27  1  0
 28 29  2  0
 29 30  1  0
 30 31  2  0
 32 24  1  0
 32 31  1  0
 33 34  2  0
 33 35  1  0
M  END
$$$$
