DYS.pdb
     RDKit          3D

 27 27  0  0  1  0  0  0  0  0999 V2000
   10.1181  -16.7321   18.8065 N   0  0  0  0  0  0  0  0  0  0  0  0
    9.0155  -17.0296   19.7357 C   0  0  1  0  0  0  0  0  0  0  0  0
    8.8969  -18.5130   19.7758 C   0  0  0  0  0  0  0  0  0  0  0  0
    8.4719  -19.1745   18.5453 C   0  0  0  0  0  0  0  0  0  0  0  0
    9.1524  -19.9870   17.8778 O   0  0  0  0  0  0  0  0  0  0  0  0
    9.2813  -16.3851   21.0408 C   0  0  0  0  0  0  0  0  0  0  0  0
   10.4190  -16.3603   21.5315 O   0  0  0  0  0  0  0  0  0  0  0  0
    7.1894  -18.9152   18.0107 O   0  0  0  0  0  0  0  0  0  0  0  0
    6.9390  -11.7340   28.3968 O   0  0  0  0  0  0  0  0  0  0  0  0
    7.0213  -12.3402   27.1523 C   0  0  0  0  0  0  0  0  0  0  0  0
    6.3400  -13.5115   26.9082 C   0  0  0  0  0  0  0  0  0  0  0  0
    6.4268  -14.1008   25.6811 C   0  0  0  0  0  0  0  0  0  0  0  0
    7.1667  -13.6058   24.6230 C   0  0  0  0  0  0  0  0  0  0  0  0
    7.2452  -14.2606   23.3068 C   0  0  0  0  0  0  0  0  0  0  0  0
    8.4064  -15.1371   23.0728 C   0  0  2  0  0  0  0  0  0  0  0  0
    8.2163  -15.7837   21.7453 N   0  0  0  0  0  0  0  0  0  0  0  0
    8.7374  -16.1795   24.0071 C   0  0  0  0  0  0  0  0  0  0  0  0
    8.0067  -17.2377   24.0272 O   0  0  0  0  0  0  0  0  0  0  0  0
    7.8541  -12.4138   24.8871 C   0  0  0  0  0  0  0  0  0  0  0  0
    7.7706  -11.8129   26.1250 C   0  0  0  0  0  0  0  0  0  0  0  0
   12.2443  -17.3501   25.0223 O   0  0  0  0  0  0  0  0  0  0  0  0
   11.1858  -18.1738   25.3999 C   0  0  0  0  0  0  0  0  0  0  0  0
   10.0125  -17.3113   25.8548 C   0  0  2  0  0  0  0  0  0  0  0  0
    9.8139  -16.1968   24.9475 N   0  0  0  0  0  0  0  0  0  0  0  0
   10.3062  -16.7888   27.2022 C   0  0  0  0  0  0  0  0  0  0  0  0
   10.5339  -17.6455   28.2886 O   0  0  0  0  0  0  0  0  0  0  0  0
   10.3570  -15.5651   27.3979 O   0  0  0  0  0  0  0  0  0  0  0  0
  2  1  1  6
  2  6  1  0
  3  2  1  0
  4  8  1  0
  4  3  1  0
  5  4  2  0
  6 16  1  0
  6  7  2  0
  9 10  1  0
 10 11  2  0
 11 12  1  0
 13 12  2  0
 13 14  1  0
 15 14  1  1
 15 17  1  0
 16 15  1  0
 17 18  2  0
 19 13  1  0
 20 10  1  0
 20 19  2  0
 21 22  1  0
 23 22  1  6
 23 25  1  0
 24 17  1  0
 24 23  1  0
 25 26  1  0
 27 25  2  0
M  END
$$$$
