DYS.pdb
     RDKit          3D

 27 27  0  0  1  0  0  0  0  0999 V2000
   10.2046  -16.4569   18.6137 N   0  0  0  0  0  0  0  0  0  0  0  0
    9.2292  -16.9884   19.5800 C   0  0  1  0  0  0  0  0  0  0  0  0
    9.3848  -18.4687   19.5536 C   0  0  0  0  0  0  0  0  0  0  0  0
    9.0751  -19.1424   18.2956 C   0  0  0  0  0  0  0  0  0  0  0  0
    7.9997  -19.0493   17.6604 O   0  0  0  0  0  0  0  0  0  0  0  0
    9.4472  -16.3572   20.9004 C   0  0  0  0  0  0  0  0  0  0  0  0
   10.5578  -16.3716   21.4501 O   0  0  0  0  0  0  0  0  0  0  0  0
   10.0340  -19.9875   17.6923 O   0  0  0  0  0  0  0  0  0  0  0  0
    6.8184  -11.6009   28.0931 O   0  0  0  0  0  0  0  0  0  0  0  0
    6.9815  -12.1914   26.8490 C   0  0  0  0  0  0  0  0  0  0  0  0
    6.2519  -13.3101   26.5145 C   0  0  0  0  0  0  0  0  0  0  0  0
    6.4188  -13.8843   25.2885 C   0  0  0  0  0  0  0  0  0  0  0  0
    7.2889  -13.4234   24.3176 C   0  0  0  0  0  0  0  0  0  0  0  0
    7.4519  -14.0610   23.0007 C   0  0  0  0  0  0  0  0  0  0  0  0
    8.5107  -15.0795   22.8860 C   0  0  2  0  0  0  0  0  0  0  0  0
    8.3671  -15.7232   21.5513 N   0  0  0  0  0  0  0  0  0  0  0  0
    8.6184  -16.1365   23.8556 C   0  0  0  0  0  0  0  0  0  0  0  0
    7.8517  -17.1616   23.7308 O   0  0  0  0  0  0  0  0  0  0  0  0
    8.0239  -12.2847   24.6730 C   0  0  0  0  0  0  0  0  0  0  0  0
    7.8600  -11.6994   25.9103 C   0  0  0  0  0  0  0  0  0  0  0  0
   10.9876  -19.4034   25.9362 O   0  0  0  0  0  0  0  0  0  0  0  0
   10.7788  -18.2855   25.1312 C   0  0  0  0  0  0  0  0  0  0  0  0
    9.6740  -17.4259   25.7381 C   0  0  2  0  0  0  0  0  0  0  0  0
    9.5011  -16.2023   24.9781 N   0  0  0  0  0  0  0  0  0  0  0  0
   10.0500  -17.0837   27.1225 C   0  0  0  0  0  0  0  0  0  0  0  0
   10.2366  -15.7537   27.5254 O   0  0  0  0  0  0  0  0  0  0  0  0
   10.2092  -17.9806   27.9641 O   0  0  0  0  0  0  0  0  0  0  0  0
  2  1  1  6
  2  6  1  0
  3  2  1  0
  4  8  1  0
  4  3  1  0
  5  4  2  0
  6 16  1  0
  6  7  2  0
  9 10  1  0
 10 11  2  0
 11 12  1  0
 13 12  2  0
 13 14  1  0
 15 14  1  1
 15 17  1  0
 16 15  1  0
 17 18  2  0
 19 13  1  0
 20 10  1  0
 20 19  2  0
 21 22  1  0
 23 22  1  6
 23 25  1  0
 24 17  1  0
 24 23  1  0
 25 26  1  0
 27 25  2  0
M  END
$$$$
