DYS.pdb
     RDKit          3D

 27 27  0  0  1  0  0  0  0  0999 V2000
    9.1200  -16.4200   18.4420 N   0  0  0  0  0  0  0  0  0  0  0  0
    9.6939  -17.2483   19.5154 C   0  0  1  0  0  0  0  0  0  0  0  0
   10.9571  -17.8161   18.9696 C   0  0  0  0  0  0  0  0  0  0  0  0
   10.8310  -18.7753   17.8757 C   0  0  0  0  0  0  0  0  0  0  0  0
    9.7712  -19.3338   17.5100 O   0  0  0  0  0  0  0  0  0  0  0  0
    9.8494  -16.4323   20.7399 C   0  0  0  0  0  0  0  0  0  0  0  0
   10.8981  -15.8175   20.9801 O   0  0  0  0  0  0  0  0  0  0  0  0
   11.9706  -19.1459   17.1264 O   0  0  0  0  0  0  0  0  0  0  0  0
    6.7704  -11.6904   27.7014 O   0  0  0  0  0  0  0  0  0  0  0  0
    6.9638  -12.4462   26.5549 C   0  0  0  0  0  0  0  0  0  0  0  0
    6.4697  -13.7293   26.4821 C   0  0  0  0  0  0  0  0  0  0  0  0
    6.6646  -14.4655   25.3505 C   0  0  0  0  0  0  0  0  0  0  0  0
    7.3400  -14.0184   24.2297 C   0  0  0  0  0  0  0  0  0  0  0  0
    7.5379  -14.8325   23.0191 C   0  0  0  0  0  0  0  0  0  0  0  0
    8.8436  -15.5010   22.8784 C   0  0  2  0  0  0  0  0  0  0  0  0
    8.7800  -16.3506   21.6575 N   0  0  0  0  0  0  0  0  0  0  0  0
    9.3638  -16.3226   23.9383 C   0  0  0  0  0  0  0  0  0  0  0  0
    8.8681  -17.4982   24.1006 O   0  0  0  0  0  0  0  0  0  0  0  0
    7.8365  -12.7114   24.3193 C   0  0  0  0  0  0  0  0  0  0  0  0
    7.6430  -11.9619   25.4600 C   0  0  0  0  0  0  0  0  0  0  0  0
   12.6341  -17.4581   27.3660 O   0  0  0  0  0  0  0  0  0  0  0  0
   12.2463  -16.5627   26.3713 C   0  0  0  0  0  0  0  0  0  0  0  0
   10.8615  -16.9464   25.8589 C   0  0  2  0  0  0  0  0  0  0  0  0
   10.4006  -15.9943   24.8661 N   0  0  0  0  0  0  0  0  0  0  0  0
    9.9223  -16.9489   26.9960 C   0  0  0  0  0  0  0  0  0  0  0  0
    9.9760  -17.9356   27.9907 O   0  0  0  0  0  0  0  0  0  0  0  0
    9.0576  -16.0649   27.0910 O   0  0  0  0  0  0  0  0  0  0  0  0
  2  1  1  6
  2  6  1  0
  3  2  1  0
  4  8  1  0
  4  3  1  0
  5  4  2  0
  6 16  1  0
  6  7  2  0
  9 10  1  0
 10 11  2  0
 11 12  1  0
 13 12  2  0
 13 14  1  0
 15 14  1  1
 15 17  1  0
 16 15  1  0
 17 18  2  0
 19 13  1  0
 20 10  1  0
 20 19  2  0
 21 22  1  0
 23 22  1  1
 23 25  1  0
 24 17  1  0
 24 23  1  0
 25 26  1  0
 27 25  2  0
M  END
$$$$
