DYS.pdb
     RDKit          3D

 27 27  0  0  1  0  0  0  0  0999 V2000
   12.1170  -16.6498   18.8995 N   0  0  0  0  0  0  0  0  0  0  0  0
   13.0067  -15.8327   19.7413 C   0  0  1  0  0  0  0  0  0  0  0  0
   13.3731  -14.6437   18.9238 C   0  0  0  0  0  0  0  0  0  0  0  0
   14.3684  -14.8457   17.8745 C   0  0  0  0  0  0  0  0  0  0  0  0
   14.8708  -15.9441   17.5432 O   0  0  0  0  0  0  0  0  0  0  0  0
   12.3335  -15.5302   21.0237 C   0  0  0  0  0  0  0  0  0  0  0  0
   12.8265  -14.7437   21.8447 O   0  0  0  0  0  0  0  0  0  0  0  0
   14.8459  -13.7418   17.1321 O   0  0  0  0  0  0  0  0  0  0  0  0
    7.8422  -11.9052   18.1032 O   0  0  0  0  0  0  0  0  0  0  0  0
    8.1126  -12.8152   19.1141 C   0  0  0  0  0  0  0  0  0  0  0  0
    7.9732  -14.1654   18.8833 C   0  0  0  0  0  0  0  0  0  0  0  0
    8.2413  -15.0533   19.8835 C   0  0  0  0  0  0  0  0  0  0  0  0
    8.6558  -14.7019   21.1550 C   0  0  0  0  0  0  0  0  0  0  0  0
    8.9391  -15.6794   22.2188 C   0  0  0  0  0  0  0  0  0  0  0  0
   10.3549  -15.8721   22.5794 C   0  0  2  0  0  0  0  0  0  0  0  0
   11.1011  -16.1504   21.3216 N   0  0  0  0  0  0  0  0  0  0  0  0
   10.7378  -16.8813   23.5301 C   0  0  0  0  0  0  0  0  0  0  0  0
   10.9816  -18.0679   23.0979 O   0  0  0  0  0  0  0  0  0  0  0  0
    8.7929  -13.3248   21.3741 C   0  0  0  0  0  0  0  0  0  0  0  0
    8.5236  -12.4221   20.3676 C   0  0  0  0  0  0  0  0  0  0  0  0
   10.9424  -16.3432   27.5969 O   0  0  0  0  0  0  0  0  0  0  0  0
   11.8171  -17.3233   27.1326 C   0  0  0  0  0  0  0  0  0  0  0  0
   11.3305  -17.8341   25.7799 C   0  0  2  0  0  0  0  0  0  0  0  0
   10.8934  -16.7325   24.9433 N   0  0  0  0  0  0  0  0  0  0  0  0
   10.1959  -18.7496   26.0022 C   0  0  0  0  0  0  0  0  0  0  0  0
   10.3393  -19.9300   26.7450 O   0  0  0  0  0  0  0  0  0  0  0  0
    9.0807  -18.4852   25.5282 O   0  0  0  0  0  0  0  0  0  0  0  0
  2  1  1  6
  2  6  1  0
  3  2  1  0
  4  8  1  0
  4  3  1  0
  5  4  2  0
  6 16  1  0
  6  7  2  0
  9 10  1  0
 10 11  2  0
 11 12  1  0
 13 12  2  0
 13 14  1  0
 15 14  1  6
 15 17  1  0
 16 15  1  0
 17 18  2  0
 19 13  1  0
 20 10  1  0
 20 19  2  0
 21 22  1  0
 23 22  1  1
 23 25  1  0
 24 17  1  0
 24 23  1  0
 25 26  1  0
 27 25  2  0
M  END
$$$$
