DYS.pdb
     RDKit          3D

 27 27  0  0  1  0  0  0  0  0999 V2000
    8.1370  -14.5500   19.2519 N   0  0  0  0  0  0  0  0  0  0  0  0
    8.2858  -15.8212   19.9796 C   0  0  1  0  0  0  0  0  0  0  0  0
    9.0443  -16.7291   19.0760 C   0  0  0  0  0  0  0  0  0  0  0  0
    8.2902  -17.3763   18.0061 C   0  0  0  0  0  0  0  0  0  0  0  0
    7.0440  -17.4905   17.9541 O   0  0  0  0  0  0  0  0  0  0  0  0
    8.9198  -15.5680   21.2924 C   0  0  0  0  0  0  0  0  0  0  0  0
    9.9523  -14.8903   21.3935 O   0  0  0  0  0  0  0  0  0  0  0  0
    8.9712  -17.9429   16.9048 O   0  0  0  0  0  0  0  0  0  0  0  0
    6.7032  -10.7120   27.1867 O   0  0  0  0  0  0  0  0  0  0  0  0
    6.9358  -11.9411   26.5880 C   0  0  0  0  0  0  0  0  0  0  0  0
    8.2258  -12.3757   26.3818 C   0  0  0  0  0  0  0  0  0  0  0  0
    8.4452  -13.5860   25.7921 C   0  0  0  0  0  0  0  0  0  0  0  0
    7.4480  -14.4450   25.3682 C   0  0  0  0  0  0  0  0  0  0  0  0
    7.7099  -15.7474   24.7335 C   0  0  0  0  0  0  0  0  0  0  0  0
    8.8639  -15.8170   23.8197 C   0  0  2  0  0  0  0  0  0  0  0  0
    8.3371  -16.1097   22.4583 N   0  0  0  0  0  0  0  0  0  0  0  0
    9.9379  -16.7418   24.0651 C   0  0  0  0  0  0  0  0  0  0  0  0
    9.6540  -17.9901   24.1886 O   0  0  0  0  0  0  0  0  0  0  0  0
    6.1411  -13.9886   25.5850 C   0  0  0  0  0  0  0  0  0  0  0  0
    5.9124  -12.7665   26.1804 C   0  0  0  0  0  0  0  0  0  0  0  0
   14.0311  -15.8439   24.2991 O   0  0  0  0  0  0  0  0  0  0  0  0
   13.6612  -17.0957   23.8116 C   0  0  0  0  0  0  0  0  0  0  0  0
   12.3133  -17.4910   24.4070 C   0  0  2  0  0  0  0  0  0  0  0  0
   11.3309  -16.4459   24.1896 N   0  0  0  0  0  0  0  0  0  0  0  0
   12.4816  -17.6994   25.8572 C   0  0  0  0  0  0  0  0  0  0  0  0
   11.7433  -16.9640   26.7953 O   0  0  0  0  0  0  0  0  0  0  0  0
   13.2909  -18.5411   26.2753 O   0  0  0  0  0  0  0  0  0  0  0  0
  2  1  1  6
  2  6  1  0
  3  2  1  0
  4  8  1  0
  4  3  1  0
  5  4  2  0
  6 16  1  0
  6  7  2  0
  9 10  1  0
 10 11  2  0
 11 12  1  0
 13 12  2  0
 13 14  1  0
 15 14  1  1
 15 17  1  0
 16 15  1  0
 17 18  2  0
 19 13  1  0
 20 10  1  0
 20 19  2  0
 21 22  1  0
 23 22  1  1
 23 25  1  0
 24 17  1  0
 24 23  1  0
 25 26  1  0
 27 25  2  0
M  END
$$$$
