DYS.pdb
     RDKit          3D

 27 27  0  0  1  0  0  0  0  0999 V2000
    9.0988  -18.6774   19.9576 N   0  0  0  0  0  0  0  0  0  0  0  0
   10.4076  -18.0036   19.9790 C   0  0  1  0  0  0  0  0  0  0  0  0
   10.5438  -17.3218   18.6627 C   0  0  0  0  0  0  0  0  0  0  0  0
   10.7540  -18.1749   17.4963 C   0  0  0  0  0  0  0  0  0  0  0  0
   10.6886  -19.4256   17.4824 O   0  0  0  0  0  0  0  0  0  0  0  0
   10.4862  -17.1137   21.1586 C   0  0  0  0  0  0  0  0  0  0  0  0
   11.4761  -16.3974   21.3651 O   0  0  0  0  0  0  0  0  0  0  0  0
   11.0615  -17.5961   16.2441 O   0  0  0  0  0  0  0  0  0  0  0  0
    7.0364  -12.2829   18.7075 O   0  0  0  0  0  0  0  0  0  0  0  0
    7.3207  -13.0477   19.8288 C   0  0  0  0  0  0  0  0  0  0  0  0
    6.5455  -14.1446   20.1314 C   0  0  0  0  0  0  0  0  0  0  0  0
    6.8324  -14.8910   21.2364 C   0  0  0  0  0  0  0  0  0  0  0  0
    7.8722  -14.6321   22.1104 C   0  0  0  0  0  0  0  0  0  0  0  0
    8.1622  -15.4530   23.2976 C   0  0  0  0  0  0  0  0  0  0  0  0
    9.4246  -16.2132   23.2832 C   0  0  2  0  0  0  0  0  0  0  0  0
    9.4101  -17.0778   22.0713 N   0  0  0  0  0  0  0  0  0  0  0  0
    9.7884  -17.0500   24.3951 C   0  0  0  0  0  0  0  0  0  0  0  0
    9.0895  -18.1059   24.6205 O   0  0  0  0  0  0  0  0  0  0  0  0
    8.6516  -13.5131   21.7890 C   0  0  0  0  0  0  0  0  0  0  0  0
    8.3671  -12.7543   20.6737 C   0  0  0  0  0  0  0  0  0  0  0  0
   13.2386  -18.3379   25.4055 O   0  0  0  0  0  0  0  0  0  0  0  0
   12.6341  -17.9590   26.6023 C   0  0  0  0  0  0  0  0  0  0  0  0
   11.1325  -17.8028   26.3819 C   0  0  2  0  0  0  0  0  0  0  0  0
   10.8670  -16.8581   25.3134 N   0  0  0  0  0  0  0  0  0  0  0  0
   10.5226  -17.3037   27.6284 C   0  0  0  0  0  0  0  0  0  0  0  0
   10.5950  -18.0321   28.8243 O   0  0  0  0  0  0  0  0  0  0  0  0
    9.9275  -16.2156   27.6380 O   0  0  0  0  0  0  0  0  0  0  0  0
  2  1  1  6
  2  6  1  0
  3  2  1  0
  4  8  1  0
  4  3  1  0
  5  4  2  0
  6 16  1  0
  6  7  2  0
  9 10  1  0
 10 11  2  0
 11 12  1  0
 13 12  2  0
 13 14  1  0
 15 14  1  1
 15 17  1  0
 16 15  1  0
 17 18  2  0
 19 13  1  0
 20 10  1  0
 20 19  2  0
 21 22  1  0
 23 22  1  1
 23 25  1  0
 24 17  1  0
 24 23  1  0
 25 26  1  0
 27 25  2  0
M  END
$$$$
