DYS.pdb
     RDKit          3D

 27 27  0  0  1  0  0  0  0  0999 V2000
    7.5266  -17.3692   19.1539 N   0  0  0  0  0  0  0  0  0  0  0  0
    8.8661  -16.7653   19.0614 C   0  0  1  0  0  0  0  0  0  0  0  0
    8.8646  -15.9429   17.8205 C   0  0  0  0  0  0  0  0  0  0  0  0
    8.6839  -16.6538   16.5579 C   0  0  0  0  0  0  0  0  0  0  0  0
    8.4873  -17.8844   16.4319 O   0  0  0  0  0  0  0  0  0  0  0  0
    9.1607  -16.0228   20.3069 C   0  0  0  0  0  0  0  0  0  0  0  0
   10.2581  -15.4779   20.4923 O   0  0  0  0  0  0  0  0  0  0  0  0
    8.7242  -15.9447   15.3360 O   0  0  0  0  0  0  0  0  0  0  0  0
    6.9477  -12.1444   28.1179 O   0  0  0  0  0  0  0  0  0  0  0  0
    6.9901  -12.7416   26.8670 C   0  0  0  0  0  0  0  0  0  0  0  0
    7.5223  -12.0615   25.7947 C   0  0  0  0  0  0  0  0  0  0  0  0
    7.5599  -12.6567   24.5679 C   0  0  0  0  0  0  0  0  0  0  0  0
    7.0927  -13.9300   24.2985 C   0  0  0  0  0  0  0  0  0  0  0  0
    7.1440  -14.5513   22.9648 C   0  0  0  0  0  0  0  0  0  0  0  0
    8.4047  -15.2186   22.5946 C   0  0  2  0  0  0  0  0  0  0  0  0
    8.1706  -15.9314   21.3087 N   0  0  0  0  0  0  0  0  0  0  0  0
    9.0276  -16.1561   23.4902 C   0  0  0  0  0  0  0  0  0  0  0  0
    8.5435  -17.3453   23.5647 O   0  0  0  0  0  0  0  0  0  0  0  0
    6.5543  -14.6089   25.3995 C   0  0  0  0  0  0  0  0  0  0  0  0
    6.5133  -14.0132   26.6420 C   0  0  0  0  0  0  0  0  0  0  0  0
   12.5046  -17.0302   23.6016 O   0  0  0  0  0  0  0  0  0  0  0  0
   12.2151  -17.1051   24.9625 C   0  0  0  0  0  0  0  0  0  0  0  0
   10.7073  -16.9898   25.1648 C   0  0  2  0  0  0  0  0  0  0  0  0
   10.1585  -15.9333   24.3358 N   0  0  0  0  0  0  0  0  0  0  0  0
   10.4446  -16.6757   26.5816 C   0  0  0  0  0  0  0  0  0  0  0  0
   10.7942  -17.5647   27.6079 O   0  0  0  0  0  0  0  0  0  0  0  0
    9.9021  -15.6043   26.8914 O   0  0  0  0  0  0  0  0  0  0  0  0
  2  1  1  1
  2  6  1  0
  3  2  1  0
  4  8  1  0
  4  3  1  0
  5  4  2  0
  6 16  1  0
  6  7  2  0
  9 10  1  0
 10 11  2  0
 11 12  1  0
 13 12  2  0
 13 14  1  0
 15 14  1  1
 15 17  1  0
 16 15  1  0
 17 18  2  0
 19 13  1  0
 20 10  1  0
 20 19  2  0
 21 22  1  0
 23 22  1  1
 23 25  1  0
 24 17  1  0
 24 23  1  0
 25 26  1  0
 27 25  2  0
M  END
$$$$
