DYS.pdb
     RDKit          3D

 27 27  0  0  1  0  0  0  0  0999 V2000
   10.5414  -17.0742   19.1496 N   0  0  0  0  0  0  0  0  0  0  0  0
    9.5176  -17.4634   20.1335 C   0  0  1  0  0  0  0  0  0  0  0  0
    9.6882  -18.9260   20.3519 C   0  0  0  0  0  0  0  0  0  0  0  0
    9.3370  -19.8046   19.2397 C   0  0  0  0  0  0  0  0  0  0  0  0
    9.9514  -19.8900   18.1516 O   0  0  0  0  0  0  0  0  0  0  0  0
    9.6544  -16.6268   21.3463 C   0  0  0  0  0  0  0  0  0  0  0  0
   10.7645  -16.2689   21.7648 O   0  0  0  0  0  0  0  0  0  0  0  0
    8.2147  -20.6577   19.3407 O   0  0  0  0  0  0  0  0  0  0  0  0
    6.4264  -11.5960   28.0865 O   0  0  0  0  0  0  0  0  0  0  0  0
    6.6330  -12.3414   26.9356 C   0  0  0  0  0  0  0  0  0  0  0  0
    7.3849  -11.8253   25.9041 C   0  0  0  0  0  0  0  0  0  0  0  0
    7.5828  -12.5656   24.7757 C   0  0  0  0  0  0  0  0  0  0  0  0
    7.0752  -13.8355   24.5707 C   0  0  0  0  0  0  0  0  0  0  0  0
    7.3025  -14.6154   23.3429 C   0  0  0  0  0  0  0  0  0  0  0  0
    8.5577  -15.3841   23.2711 C   0  0  2  0  0  0  0  0  0  0  0  0
    8.4952  -16.2258   22.0447 N   0  0  0  0  0  0  0  0  0  0  0  0
    8.9529  -16.2440   24.3543 C   0  0  0  0  0  0  0  0  0  0  0  0
    8.3294  -17.3581   24.5097 O   0  0  0  0  0  0  0  0  0  0  0  0
    6.3125  -14.3466   25.6291 C   0  0  0  0  0  0  0  0  0  0  0  0
    6.1086  -13.6037   26.7723 C   0  0  0  0  0  0  0  0  0  0  0  0
   11.9502  -17.7024   24.7961 O   0  0  0  0  0  0  0  0  0  0  0  0
   11.6920  -17.5603   26.1579 C   0  0  0  0  0  0  0  0  0  0  0  0
   10.2910  -16.9872   26.3488 C   0  0  2  0  0  0  0  0  0  0  0  0
    9.9887  -16.0174   25.3131 N   0  0  0  0  0  0  0  0  0  0  0  0
   10.2289  -16.3225   27.6638 C   0  0  0  0  0  0  0  0  0  0  0  0
   10.4964  -17.0179   28.8515 O   0  0  0  0  0  0  0  0  0  0  0  0
    9.9347  -15.1201   27.7402 O   0  0  0  0  0  0  0  0  0  0  0  0
  2  1  1  6
  2  6  1  0
  3  2  1  0
  4  8  1  0
  4  3  1  0
  5  4  2  0
  6 16  1  0
  6  7  2  0
  9 10  1  0
 10 11  2  0
 11 12  1  0
 13 12  2  0
 13 14  1  0
 15 14  1  1
 15 17  1  0
 16 15  1  0
 17 18  2  0
 19 13  1  0
 20 10  1  0
 20 19  2  0
 21 22  1  0
 23 22  1  6
 23 25  1  0
 24 17  1  0
 24 23  1  0
 25 26  1  0
 27 25  2  0
M  END
$$$$
