THW.pdb
     RDKit          3D

 32 34  0  0  1  0  0  0  0  0999 V2000
   21.0637   -9.8242  -22.4158 C   0  0  0  0  0  0  0  0  0  0  0  0
   22.4033   -9.8033  -23.1083 C   0  0  1  0  0  0  0  0  0  0  0  0
   22.8885   -8.5050  -23.2468 O   0  0  0  0  0  0  0  0  0  0  0  0
   23.4552  -10.6020  -22.3390 C   0  0  2  0  0  0  0  0  0  0  0  0
   24.6805  -10.4892  -23.0919 N   0  0  0  0  0  0  0  0  0  0  0  0
   23.0475  -11.9871  -22.0742 C   0  0  0  0  0  0  0  0  0  0  0  0
   23.0685  -12.8073  -23.0411 O   0  0  0  0  0  0  0  0  0  0  0  0
   22.6307  -12.4915  -20.8236 N   0  0  0  0  0  0  0  0  0  0  0  0
   22.1201  -13.8707  -20.6972 C   0  0  1  0  0  0  0  0  0  0  0  0
   22.3073  -14.2109  -19.2374 C   0  0  0  0  0  0  0  0  0  0  0  0
   21.7626  -15.5197  -18.8338 C   0  0  0  0  0  0  0  0  0  0  0  0
   20.5469  -15.8278  -18.2101 C   0  0  0  0  0  0  0  0  0  0  0  0
   20.4483  -17.1610  -18.0189 N   0  0  0  0  0  0  0  0  0  0  0  0
   21.5704  -17.7028  -18.5053 C   0  0  0  0  0  0  0  0  0  0  0  0
   22.3601  -16.7392  -18.9938 N   0  0  0  0  0  0  0  0  0  0  0  0
   20.7605  -13.9764  -21.2012 C   0  0  0  0  0  0  0  0  0  0  0  0
   19.9800  -12.9855  -20.9665 O   0  0  0  0  0  0  0  0  0  0  0  0
   20.1910  -15.0346  -21.9209 N   0  0  0  0  0  0  0  0  0  0  0  0
   18.7893  -15.0558  -22.2776 C   0  0  1  0  0  0  0  0  0  0  0  0
   18.5792  -14.6086  -23.7209 C   0  0  0  0  0  0  0  0  0  0  0  0
   17.1388  -14.6091  -24.0596 C   0  0  0  0  0  0  0  0  0  0  0  0
   16.2749  -13.5147  -23.9519 C   0  0  0  0  0  0  0  0  0  0  0  0
   15.0440  -13.8843  -24.3395 N   0  0  0  0  0  0  0  0  0  0  0  0
   15.0743  -15.1804  -24.6961 C   0  0  0  0  0  0  0  0  0  0  0  0
   14.0951  -16.0554  -25.1800 C   0  0  0  0  0  0  0  0  0  0  0  0
   14.3942  -17.3693  -25.4926 C   0  0  0  0  0  0  0  0  0  0  0  0
   15.6817  -17.7855  -25.3108 C   0  0  0  0  0  0  0  0  0  0  0  0
   16.6826  -16.9779  -24.8403 C   0  0  0  0  0  0  0  0  0  0  0  0
   16.3773  -15.6586  -24.5292 C   0  0  0  0  0  0  0  0  0  0  0  0
   18.1013  -16.3149  -21.9573 C   0  0  0  0  0  0  0  0  0  0  0  0
   16.7206  -16.4117  -21.8236 O   0  0  0  0  0  0  0  0  0  0  0  0
   18.7302  -17.4021  -21.7814 O   0  0  0  0  0  0  0  0  0  0  0  0
  2  1  1  1
  2  4  1  0
  3  2  1  0
  4  5  1  6
  6  8  1  0
  6  4  1  0
  7  6  2  0
  9  8  1  0
  9 16  1  0
  9 10  1  1
 11 12  2  0
 11 10  1  0
 13 12  1  0
 14 15  2  0
 14 13  1  0
 15 11  1  0
 16 18  1  0
 17 16  2  0
 18 19  1  0
 19 20  1  6
 19 30  1  0
 21 20  1  0
 22 21  2  0
 23 22  1  0
 24 23  1  0
 24 29  2  0
 25 24  1  0
 26 25  2  0
 26 27  1  0
 27 28  2  0
 28 29  1  0
 29 21  1  0
 30 32  2  0
 30 31  1  0
M  END
$$$$
