THW.pdb
     RDKit          3D

 32 34  0  0  1  0  0  0  0  0999 V2000
   29.6859  -23.4780  -16.2824 C   0  0  0  0  0  0  0  0  0  0  0  0
   29.0069  -22.4756  -15.3832 C   0  0  1  0  0  0  0  0  0  0  0  0
   29.8092  -21.3585  -15.1630 O   0  0  0  0  0  0  0  0  0  0  0  0
   27.6888  -21.9787  -15.9764 C   0  0  2  0  0  0  0  0  0  0  0  0
   28.0200  -21.3549  -17.2342 N   0  0  0  0  0  0  0  0  0  0  0  0
   26.9370  -21.1095  -15.0633 C   0  0  0  0  0  0  0  0  0  0  0  0
   27.1710  -19.8637  -15.1021 O   0  0  0  0  0  0  0  0  0  0  0  0
   25.9649  -21.5436  -14.1365 N   0  0  0  0  0  0  0  0  0  0  0  0
   25.2994  -20.5835  -13.2340 C   0  0  1  0  0  0  0  0  0  0  0  0
   23.9171  -20.4113  -13.8182 C   0  0  0  0  0  0  0  0  0  0  0  0
   23.8305  -19.4395  -14.9230 C   0  0  0  0  0  0  0  0  0  0  0  0
   24.8356  -18.6575  -15.5061 C   0  0  0  0  0  0  0  0  0  0  0  0
   24.3175  -17.8980  -16.4953 N   0  0  0  0  0  0  0  0  0  0  0  0
   23.0110  -18.1798  -16.5517 C   0  0  0  0  0  0  0  0  0  0  0  0
   22.7079  -19.0952  -15.6238 N   0  0  0  0  0  0  0  0  0  0  0  0
   25.3500  -21.0374  -11.8538 C   0  0  0  0  0  0  0  0  0  0  0  0
   25.1858  -22.2941  -11.6538 O   0  0  0  0  0  0  0  0  0  0  0  0
   25.5604  -20.2667  -10.7032 N   0  0  0  0  0  0  0  0  0  0  0  0
   25.3914  -20.8088   -9.3727 C   0  0  1  0  0  0  0  0  0  0  0  0
   26.0281  -19.9043   -8.3222 C   0  0  0  0  0  0  0  0  0  0  0  0
   27.3964  -20.3666   -8.0003 C   0  0  0  0  0  0  0  0  0  0  0  0
   28.1790  -21.2131   -8.7920 C   0  0  0  0  0  0  0  0  0  0  0  0
   29.3573  -21.4215   -8.1837 N   0  0  0  0  0  0  0  0  0  0  0  0
   29.3712  -20.7413   -7.0240 C   0  0  0  0  0  0  0  0  0  0  0  0
   30.3348  -20.5965   -6.0194 C   0  0  0  0  0  0  0  0  0  0  0  0
   30.1019  -19.8093   -4.9059 C   0  0  0  0  0  0  0  0  0  0  0  0
   28.8948  -19.1773   -4.8193 C   0  0  0  0  0  0  0  0  0  0  0  0
   27.9126  -19.2807   -5.7681 C   0  0  0  0  0  0  0  0  0  0  0  0
   28.1522  -20.0714   -6.8852 C   0  0  0  0  0  0  0  0  0  0  0  0
   24.0102  -21.1911   -9.0450 C   0  0  0  0  0  0  0  0  0  0  0  0
   23.6930  -22.1012   -8.0426 O   0  0  0  0  0  0  0  0  0  0  0  0
   23.0120  -20.7099   -9.6618 O   0  0  0  0  0  0  0  0  0  0  0  0
  2  1  1  6
  2  4  1  0
  3  2  1  0
  4  5  1  6
  6  8  1  0
  6  4  1  0
  7  6  2  0
  9  8  1  0
  9 16  1  0
  9 10  1  6
 11 12  2  0
 11 10  1  0
 13 12  1  0
 14 15  2  0
 14 13  1  0
 15 11  1  0
 16 18  1  0
 17 16  2  0
 18 19  1  0
 19 20  1  1
 19 30  1  0
 21 20  1  0
 22 21  2  0
 23 22  1  0
 24 23  1  0
 24 29  2  0
 25 24  1  0
 26 25  2  0
 26 27  1  0
 27 28  2  0
 28 29  1  0
 29 21  1  0
 30 32  2  0
 30 31  1  0
M  END
$$$$
