THW.pdb
     RDKit          3D

 32 34  0  0  1  0  0  0  0  0999 V2000
   29.1826  -20.4254  -16.7572 C   0  0  0  0  0  0  0  0  0  0  0  0
   28.2290  -20.5038  -15.5915 C   0  0  1  0  0  0  0  0  0  0  0  0
   28.9019  -20.7302  -14.3931 O   0  0  0  0  0  0  0  0  0  0  0  0
   27.4252  -19.2145  -15.4249 C   0  0  2  0  0  0  0  0  0  0  0  0
   28.3837  -18.1364  -15.4257 N   0  0  0  0  0  0  0  0  0  0  0  0
   26.5501  -19.2289  -14.2465 C   0  0  0  0  0  0  0  0  0  0  0  0
   26.8125  -18.4241  -13.3022 O   0  0  0  0  0  0  0  0  0  0  0  0
   25.4291  -20.0685  -14.0711 N   0  0  0  0  0  0  0  0  0  0  0  0
   24.6061  -19.9846  -12.8487 C   0  0  1  0  0  0  0  0  0  0  0  0
   23.3430  -20.7393  -13.1906 C   0  0  0  0  0  0  0  0  0  0  0  0
   22.3431  -20.7915  -12.1091 C   0  0  0  0  0  0  0  0  0  0  0  0
   22.3944  -20.2512  -10.8178 C   0  0  0  0  0  0  0  0  0  0  0  0
   21.2562  -20.5372  -10.1495 N   0  0  0  0  0  0  0  0  0  0  0  0
   20.4877  -21.2446  -10.9853 C   0  0  0  0  0  0  0  0  0  0  0  0
   21.1205  -21.4023  -12.1538 N   0  0  0  0  0  0  0  0  0  0  0  0
   25.3367  -20.4684  -11.6886 C   0  0  0  0  0  0  0  0  0  0  0  0
   26.1810  -21.4129  -11.8918 O   0  0  0  0  0  0  0  0  0  0  0  0
   25.2351  -20.0259  -10.3634 N   0  0  0  0  0  0  0  0  0  0  0  0
   26.0800  -20.5474   -9.3114 C   0  0  1  0  0  0  0  0  0  0  0  0
   27.1447  -19.5339   -8.9037 C   0  0  0  0  0  0  0  0  0  0  0  0
   28.0233  -20.0980   -7.8553 C   0  0  0  0  0  0  0  0  0  0  0  0
   28.7818  -21.2674   -7.9685 C   0  0  0  0  0  0  0  0  0  0  0  0
   29.4492  -21.4732   -6.8221 N   0  0  0  0  0  0  0  0  0  0  0  0
   29.1532  -20.4800   -5.9655 C   0  0  0  0  0  0  0  0  0  0  0  0
   29.5697  -20.1963   -4.6599 C   0  0  0  0  0  0  0  0  0  0  0  0
   29.1171  -19.0755   -3.9869 C   0  0  0  0  0  0  0  0  0  0  0  0
   28.2457  -18.2534   -4.6418 C   0  0  0  0  0  0  0  0  0  0  0  0
   27.8012  -18.4779   -5.9175 C   0  0  0  0  0  0  0  0  0  0  0  0
   28.2600  -19.6042   -6.5895 C   0  0  0  0  0  0  0  0  0  0  0  0
   25.3467  -21.1068   -8.1665 C   0  0  0  0  0  0  0  0  0  0  0  0
   25.7924  -22.2097   -7.4464 O   0  0  0  0  0  0  0  0  0  0  0  0
   24.2514  -20.6134   -7.7600 O   0  0  0  0  0  0  0  0  0  0  0  0
  2  1  1  6
  2  4  1  0
  3  2  1  0
  4  5  1  1
  6  8  1  0
  6  4  1  0
  7  6  2  0
  9  8  1  0
  9 16  1  0
  9 10  1  6
 11 12  2  0
 11 10  1  0
 13 12  1  0
 14 15  2  0
 14 13  1  0
 15 11  1  0
 16 18  1  0
 17 16  2  0
 18 19  1  0
 19 20  1  1
 19 30  1  0
 21 20  1  0
 22 21  2  0
 23 22  1  0
 24 23  1  0
 24 29  2  0
 25 24  1  0
 26 25  2  0
 26 27  1  0
 27 28  2  0
 28 29  1  0
 29 21  1  0
 30 32  2  0
 30 31  1  0
M  END
$$$$
