THW.pdb
     RDKit          3D

 32 34  0  0  1  0  0  0  0  0999 V2000
   29.5615  -17.1575  -16.9553 C   0  0  0  0  0  0  0  0  0  0  0  0
   28.3103  -17.7064  -16.3167 C   0  0  1  0  0  0  0  0  0  0  0  0
   27.5390  -18.4201  -17.2308 O   0  0  0  0  0  0  0  0  0  0  0  0
   28.6290  -18.6493  -15.1567 C   0  0  2  0  0  0  0  0  0  0  0  0
   29.4007  -19.7326  -15.7153 N   0  0  0  0  0  0  0  0  0  0  0  0
   27.4343  -19.0879  -14.4254 C   0  0  0  0  0  0  0  0  0  0  0  0
   26.6885  -18.1967  -13.9176 O   0  0  0  0  0  0  0  0  0  0  0  0
   27.0380  -20.4294  -14.2368 N   0  0  0  0  0  0  0  0  0  0  0  0
   25.8631  -20.7607  -13.4068 C   0  0  1  0  0  0  0  0  0  0  0  0
   25.1488  -21.8452  -14.1784 C   0  0  0  0  0  0  0  0  0  0  0  0
   23.9368  -22.3714  -13.5254 C   0  0  0  0  0  0  0  0  0  0  0  0
   23.3710  -22.0364  -12.2886 C   0  0  0  0  0  0  0  0  0  0  0  0
   22.2545  -22.7658  -12.0762 N   0  0  0  0  0  0  0  0  0  0  0  0
   22.1008  -23.5532  -13.1466 C   0  0  0  0  0  0  0  0  0  0  0  0
   23.0926  -23.3285  -14.0164 N   0  0  0  0  0  0  0  0  0  0  0  0
   26.2576  -21.1054  -12.0507 C   0  0  0  0  0  0  0  0  0  0  0  0
   27.4309  -21.6026  -11.9003 O   0  0  0  0  0  0  0  0  0  0  0  0
   25.5103  -20.9586  -10.8750 N   0  0  0  0  0  0  0  0  0  0  0  0
   26.0963  -21.1338   -9.5641 C   0  0  1  0  0  0  0  0  0  0  0  0
   27.3883  -20.3347   -9.4249 C   0  0  0  0  0  0  0  0  0  0  0  0
   27.5678  -19.8783   -8.0288 C   0  0  0  0  0  0  0  0  0  0  0  0
   26.6884  -19.0532   -7.3206 C   0  0  0  0  0  0  0  0  0  0  0  0
   27.1762  -18.8437   -6.0877 N   0  0  0  0  0  0  0  0  0  0  0  0
   28.3420  -19.5025   -5.9665 C   0  0  0  0  0  0  0  0  0  0  0  0
   29.2517  -19.6370   -4.9114 C   0  0  0  0  0  0  0  0  0  0  0  0
   30.3973  -20.4016   -5.0411 C   0  0  0  0  0  0  0  0  0  0  0  0
   30.6119  -21.0215   -6.2384 C   0  0  0  0  0  0  0  0  0  0  0  0
   29.7604  -20.9272   -7.3069 C   0  0  0  0  0  0  0  0  0  0  0  0
   28.6104  -20.1593   -7.1710 C   0  0  0  0  0  0  0  0  0  0  0  0
   25.1622  -20.9201   -8.4492 C   0  0  0  0  0  0  0  0  0  0  0  0
   25.1818  -21.6832   -7.2869 O   0  0  0  0  0  0  0  0  0  0  0  0
   24.2716  -20.0177   -8.4780 O   0  0  0  0  0  0  0  0  0  0  0  0
  2  1  1  6
  2  4  1  0
  3  2  1  0
  4  5  1  6
  6  8  1  0
  6  4  1  0
  7  6  2  0
  9  8  1  0
  9 16  1  0
  9 10  1  6
 11 12  2  0
 11 10  1  0
 13 12  1  0
 14 15  2  0
 14 13  1  0
 15 11  1  0
 16 18  1  0
 17 16  2  0
 18 19  1  0
 19 20  1  1
 19 30  1  0
 21 20  1  0
 22 21  2  0
 23 22  1  0
 24 23  1  0
 24 29  2  0
 25 24  1  0
 26 25  2  0
 26 27  1  0
 27 28  2  0
 28 29  1  0
 29 21  1  0
 30 32  2  0
 30 31  1  0
M  END
$$$$
