THW.pdb
     RDKit          3D

 32 34  0  0  1  0  0  0  0  0999 V2000
   29.1732  -19.9643  -17.8507 C   0  0  0  0  0  0  0  0  0  0  0  0
   28.0593  -19.7378  -16.8596 C   0  0  1  0  0  0  0  0  0  0  0  0
   26.8874  -20.3816  -17.2497 O   0  0  0  0  0  0  0  0  0  0  0  0
   28.4208  -20.2557  -15.4677 C   0  0  2  0  0  0  0  0  0  0  0  0
   28.7441  -21.6526  -15.6264 N   0  0  0  0  0  0  0  0  0  0  0  0
   27.3773  -19.9985  -14.4679 C   0  0  0  0  0  0  0  0  0  0  0  0
   27.0872  -18.7913  -14.2097 O   0  0  0  0  0  0  0  0  0  0  0  0
   26.6600  -20.9881  -13.7620 N   0  0  0  0  0  0  0  0  0  0  0  0
   25.6905  -20.6150  -12.7132 C   0  0  1  0  0  0  0  0  0  0  0  0
   24.3891  -21.2362  -13.1630 C   0  0  0  0  0  0  0  0  0  0  0  0
   23.3119  -20.2722  -13.4504 C   0  0  0  0  0  0  0  0  0  0  0  0
   23.3330  -18.8721  -13.4167 C   0  0  0  0  0  0  0  0  0  0  0  0
   22.1199  -18.3814  -13.7504 N   0  0  0  0  0  0  0  0  0  0  0  0
   21.3330  -19.4355  -13.9935 C   0  0  0  0  0  0  0  0  0  0  0  0
   22.0285  -20.5656  -13.8202 N   0  0  0  0  0  0  0  0  0  0  0  0
   26.1599  -21.0153  -11.3967 C   0  0  0  0  0  0  0  0  0  0  0  0
   27.2062  -21.7570  -11.3587 O   0  0  0  0  0  0  0  0  0  0  0  0
   25.6087  -20.6869  -10.1516 N   0  0  0  0  0  0  0  0  0  0  0  0
   26.1649  -21.1790   -8.9102 C   0  0  1  0  0  0  0  0  0  0  0  0
   27.6497  -20.8472   -8.7997 C   0  0  0  0  0  0  0  0  0  0  0  0
   27.8858  -19.8855   -7.7003 C   0  0  0  0  0  0  0  0  0  0  0  0
   27.3973  -18.5764   -7.6422 C   0  0  0  0  0  0  0  0  0  0  0  0
   27.8155  -17.9993   -6.5048 N   0  0  0  0  0  0  0  0  0  0  0  0
   28.5591  -18.8850   -5.8189 C   0  0  0  0  0  0  0  0  0  0  0  0
   29.2199  -18.8180   -4.5870 C   0  0  0  0  0  0  0  0  0  0  0  0
   29.9214  -19.9000   -4.0862 C   0  0  0  0  0  0  0  0  0  0  0  0
   29.9486  -21.0393   -4.8381 C   0  0  0  0  0  0  0  0  0  0  0  0
   29.3235  -21.1656   -6.0500 C   0  0  0  0  0  0  0  0  0  0  0  0
   28.6189  -20.0763   -6.5479 C   0  0  0  0  0  0  0  0  0  0  0  0
   25.3989  -20.8048   -7.7125 C   0  0  0  0  0  0  0  0  0  0  0  0
   25.3889  -21.5678   -6.5499 O   0  0  0  0  0  0  0  0  0  0  0  0
   24.6927  -19.7526   -7.6641 O   0  0  0  0  0  0  0  0  0  0  0  0
  2  1  1  6
  2  4  1  0
  3  2  1  0
  4  5  1  6
  6  8  1  0
  6  4  1  0
  7  6  2  0
  9  8  1  0
  9 16  1  0
  9 10  1  6
 11 12  2  0
 11 10  1  0
 13 12  1  0
 14 15  2  0
 14 13  1  0
 15 11  1  0
 16 18  1  0
 17 16  2  0
 18 19  1  0
 19 20  1  1
 19 30  1  0
 21 20  1  0
 22 21  2  0
 23 22  1  0
 24 23  1  0
 24 29  2  0
 25 24  1  0
 26 25  2  0
 26 27  1  0
 27 28  2  0
 28 29  1  0
 29 21  1  0
 30 32  2  0
 30 31  1  0
M  END
$$$$
