THW.pdb
     RDKit          3D

 32 34  0  0  1  0  0  0  0  0999 V2000
   28.3745  -20.8830  -13.9021 C   0  0  0  0  0  0  0  0  0  0  0  0
   27.9558  -20.0458  -15.0846 C   0  0  1  0  0  0  0  0  0  0  0  0
   28.5956  -20.4528  -16.2530 O   0  0  0  0  0  0  0  0  0  0  0  0
   26.4508  -20.1292  -15.3377 C   0  0  2  0  0  0  0  0  0  0  0  0
   26.1743  -19.2357  -16.4359 N   0  0  0  0  0  0  0  0  0  0  0  0
   25.6487  -19.8601  -14.1381 C   0  0  0  0  0  0  0  0  0  0  0  0
   25.5185  -18.6538  -13.7693 O   0  0  0  0  0  0  0  0  0  0  0  0
   25.0017  -20.8372  -13.3514 N   0  0  0  0  0  0  0  0  0  0  0  0
   24.3228  -20.4668  -12.0940 C   0  0  1  0  0  0  0  0  0  0  0  0
   22.9606  -21.1118  -12.1956 C   0  0  0  0  0  0  0  0  0  0  0  0
   22.0201  -20.4286  -13.1017 C   0  0  0  0  0  0  0  0  0  0  0  0
   21.7202  -19.0652  -13.2160 C   0  0  0  0  0  0  0  0  0  0  0  0
   20.7936  -18.8730  -14.1795 N   0  0  0  0  0  0  0  0  0  0  0  0
   20.5003  -20.0798  -14.6763 C   0  0  0  0  0  0  0  0  0  0  0  0
   21.2226  -21.0135  -14.0459 N   0  0  0  0  0  0  0  0  0  0  0  0
   25.1165  -20.8458  -10.9364 C   0  0  0  0  0  0  0  0  0  0  0  0
   25.4115  -22.0893  -10.8217 O   0  0  0  0  0  0  0  0  0  0  0  0
   25.6071  -20.0142   -9.9216 N   0  0  0  0  0  0  0  0  0  0  0  0
   26.3149  -20.5371   -8.7735 C   0  0  1  0  0  0  0  0  0  0  0  0
   27.2048  -19.4720   -8.1404 C   0  0  0  0  0  0  0  0  0  0  0  0
   27.9511  -20.0346   -6.9933 C   0  0  0  0  0  0  0  0  0  0  0  0
   28.4296  -21.3450   -6.8947 C   0  0  0  0  0  0  0  0  0  0  0  0
   29.0508  -21.5004   -5.7150 N   0  0  0  0  0  0  0  0  0  0  0  0
   28.9948  -20.3384   -5.0408 C   0  0  0  0  0  0  0  0  0  0  0  0
   29.4824  -19.9414   -3.7905 C   0  0  0  0  0  0  0  0  0  0  0  0
   29.2993  -18.6527   -3.3220 C   0  0  0  0  0  0  0  0  0  0  0  0
   28.6229  -17.7784   -4.1233 C   0  0  0  0  0  0  0  0  0  0  0  0
   28.1215  -18.1074   -5.3546 C   0  0  0  0  0  0  0  0  0  0  0  0
   28.3094  -19.4026   -5.8211 C   0  0  0  0  0  0  0  0  0  0  0  0
   25.4602  -21.2297   -7.7983 C   0  0  0  0  0  0  0  0  0  0  0  0
   25.8543  -22.3832   -7.1291 O   0  0  0  0  0  0  0  0  0  0  0  0
   24.2988  -20.8143   -7.5034 O   0  0  0  0  0  0  0  0  0  0  0  0
  2  1  1  1
  2  4  1  0
  3  2  1  0
  4  5  1  6
  6  8  1  0
  6  4  1  0
  7  6  2  0
  9  8  1  0
  9 16  1  0
  9 10  1  1
 11 12  2  0
 11 10  1  0
 13 12  1  0
 14 15  2  0
 14 13  1  0
 15 11  1  0
 16 18  1  0
 17 16  2  0
 18 19  1  0
 19 20  1  1
 19 30  1  0
 21 20  1  0
 22 21  2  0
 23 22  1  0
 24 23  1  0
 24 29  2  0
 25 24  1  0
 26 25  2  0
 26 27  1  0
 27 28  2  0
 28 29  1  0
 29 21  1  0
 30 32  2  0
 30 31  1  0
M  END
$$$$
