THW.pdb
     RDKit          3D

 32 34  0  0  1  0  0  0  0  0999 V2000
   28.3920  -17.7393  -16.4209 C   0  0  0  0  0  0  0  0  0  0  0  0
   27.5243  -17.9993  -15.2151 C   0  0  1  0  0  0  0  0  0  0  0  0
   27.1795  -16.8155  -14.5669 O   0  0  0  0  0  0  0  0  0  0  0  0
   26.2229  -18.7072  -15.5912 C   0  0  2  0  0  0  0  0  0  0  0  0
   25.5270  -17.8234  -16.4943 N   0  0  0  0  0  0  0  0  0  0  0  0
   25.4275  -19.1095  -14.4249 C   0  0  0  0  0  0  0  0  0  0  0  0
   24.6679  -18.2423  -13.8967 O   0  0  0  0  0  0  0  0  0  0  0  0
   25.4335  -20.3914  -13.8343 N   0  0  0  0  0  0  0  0  0  0  0  0
   24.6418  -20.6673  -12.6194 C   0  0  1  0  0  0  0  0  0  0  0  0
   23.7332  -21.8087  -13.0113 C   0  0  0  0  0  0  0  0  0  0  0  0
   22.6610  -21.4477  -13.9558 C   0  0  0  0  0  0  0  0  0  0  0  0
   21.9862  -20.2313  -14.1195 C   0  0  0  0  0  0  0  0  0  0  0  0
   21.0695  -20.3380  -15.1054 N   0  0  0  0  0  0  0  0  0  0  0  0
   21.1475  -21.5906  -15.5683 C   0  0  0  0  0  0  0  0  0  0  0  0
   22.0899  -22.2611  -14.8951 N   0  0  0  0  0  0  0  0  0  0  0  0
   25.5037  -20.9106  -11.4741 C   0  0  0  0  0  0  0  0  0  0  0  0
   26.7100  -21.2680  -11.7260 O   0  0  0  0  0  0  0  0  0  0  0  0
   25.1794  -20.7996  -10.1159 N   0  0  0  0  0  0  0  0  0  0  0  0
   26.1474  -21.0510   -9.0709 C   0  0  1  0  0  0  0  0  0  0  0  0
   27.2684  -20.0166   -9.0950 C   0  0  0  0  0  0  0  0  0  0  0  0
   28.2977  -20.3436   -8.0836 C   0  0  0  0  0  0  0  0  0  0  0  0
   29.3732  -21.2183   -8.2672 C   0  0  0  0  0  0  0  0  0  0  0  0
   30.0945  -21.2744   -7.1365 N   0  0  0  0  0  0  0  0  0  0  0  0
   29.5280  -20.4675   -6.2222 C   0  0  0  0  0  0  0  0  0  0  0  0
   29.8648  -20.1432   -4.9031 C   0  0  0  0  0  0  0  0  0  0  0  0
   29.1067  -19.2525   -4.1643 C   0  0  0  0  0  0  0  0  0  0  0  0
   28.0138  -18.6997   -4.7676 C   0  0  0  0  0  0  0  0  0  0  0  0
   27.6329  -18.9780   -6.0533 C   0  0  0  0  0  0  0  0  0  0  0  0
   28.3986  -19.8720   -6.7916 C   0  0  0  0  0  0  0  0  0  0  0  0
   25.5626  -21.2375   -7.7351 C   0  0  0  0  0  0  0  0  0  0  0  0
   26.0279  -22.1843   -6.8291 O   0  0  0  0  0  0  0  0  0  0  0  0
   24.5877  -20.5397   -7.3214 O   0  0  0  0  0  0  0  0  0  0  0  0
  2  1  1  6
  2  4  1  0
  3  2  1  0
  4  5  1  6
  6  8  1  0
  6  4  1  0
  7  6  2  0
  9  8  1  0
  9 16  1  0
  9 10  1  6
 11 12  2  0
 11 10  1  0
 13 12  1  0
 14 15  2  0
 14 13  1  0
 15 11  1  0
 16 18  1  0
 17 16  2  0
 18 19  1  0
 19 20  1  1
 19 30  1  0
 21 20  1  0
 22 21  2  0
 23 22  1  0
 24 23  1  0
 24 29  2  0
 25 24  1  0
 26 25  2  0
 26 27  1  0
 27 28  2  0
 28 29  1  0
 29 21  1  0
 30 32  2  0
 30 31  1  0
M  END
$$$$
