THW.pdb
     RDKit          3D

 32 34  0  0  1  0  0  0  0  0999 V2000
   24.7336  -20.5635   -8.0402 C   0  0  0  0  0  0  0  0  0  0  0  0
   24.5760  -20.5539   -9.5401 C   0  0  1  0  0  0  0  0  0  0  0  0
   24.0446  -19.3482   -9.9919 O   0  0  0  0  0  0  0  0  0  0  0  0
   25.9115  -20.7582  -10.2548 C   0  0  2  0  0  0  0  0  0  0  0  0
   26.8247  -19.7943   -9.6908 N   0  0  0  0  0  0  0  0  0  0  0  0
   25.8002  -20.6847  -11.7166 C   0  0  0  0  0  0  0  0  0  0  0  0
   26.3390  -19.6985  -12.3042 O   0  0  0  0  0  0  0  0  0  0  0  0
   25.1398  -21.6267  -12.5344 N   0  0  0  0  0  0  0  0  0  0  0  0
   25.0531  -21.4303  -13.9948 C   0  0  1  0  0  0  0  0  0  0  0  0
   25.0734  -22.8285  -14.5662 C   0  0  0  0  0  0  0  0  0  0  0  0
   26.3278  -23.1997  -15.2451 C   0  0  0  0  0  0  0  0  0  0  0  0
   27.4737  -22.4317  -15.4879 C   0  0  0  0  0  0  0  0  0  0  0  0
   28.3949  -23.1678  -16.1463 N   0  0  0  0  0  0  0  0  0  0  0  0
   27.8601  -24.3807  -16.3260 C   0  0  0  0  0  0  0  0  0  0  0  0
   26.6324  -24.4143  -15.7944 N   0  0  0  0  0  0  0  0  0  0  0  0
   23.8992  -20.6198  -14.3488 C   0  0  0  0  0  0  0  0  0  0  0  0
   22.8432  -20.7784  -13.6375 O   0  0  0  0  0  0  0  0  0  0  0  0
   23.7959  -19.6755  -15.3783 N   0  0  0  0  0  0  0  0  0  0  0  0
   22.5651  -18.9658  -15.6505 C   0  0  1  0  0  0  0  0  0  0  0  0
   22.8414  -17.5494  -16.1451 C   0  0  0  0  0  0  0  0  0  0  0  0
   21.5754  -16.8617  -16.4823 C   0  0  0  0  0  0  0  0  0  0  0  0
   20.5970  -16.4588  -15.5679 C   0  0  0  0  0  0  0  0  0  0  0  0
   19.5870  -15.8742  -16.2313 N   0  0  0  0  0  0  0  0  0  0  0  0
   19.8718  -15.8812  -17.5453 C   0  0  0  0  0  0  0  0  0  0  0  0
   19.1877  -15.4010  -18.6679 C   0  0  0  0  0  0  0  0  0  0  0  0
   19.7165  -15.5231  -19.9404 C   0  0  0  0  0  0  0  0  0  0  0  0
   20.9323  -16.1317  -20.0645 C   0  0  0  0  0  0  0  0  0  0  0  0
   21.6487  -16.6223  -19.0054 C   0  0  0  0  0  0  0  0  0  0  0  0
   21.1138  -16.4957  -17.7292 C   0  0  0  0  0  0  0  0  0  0  0  0
   21.6177  -19.7001  -16.5017 C   0  0  0  0  0  0  0  0  0  0  0  0
   20.2572  -19.7822  -16.2261 O   0  0  0  0  0  0  0  0  0  0  0  0
   21.9856  -20.3105  -17.5508 O   0  0  0  0  0  0  0  0  0  0  0  0
  2  1  1  1
  2  4  1  0
  3  2  1  0
  4  5  1  1
  6  8  1  0
  6  4  1  0
  7  6  2  0
  9  8  1  0
  9 16  1  0
  9 10  1  6
 11 12  2  0
 11 10  1  0
 13 12  1  0
 14 15  2  0
 14 13  1  0
 15 11  1  0
 16 18  1  0
 17 16  2  0
 18 19  1  0
 19 20  1  6
 19 30  1  0
 21 20  1  0
 22 21  2  0
 23 22  1  0
 24 23  1  0
 24 29  2  0
 25 24  1  0
 26 25  2  0
 26 27  1  0
 27 28  2  0
 28 29  1  0
 29 21  1  0
 30 32  2  0
 30 31  1  0
M  END
$$$$
