VWM.pdb
     RDKit          3D

 30 31  0  0  1  0  0  0  0  0999 V2000
   25.6619  -20.1755  -13.4922 C   0  0  0  0  0  0  0  0  0  0  0  0
   26.8572  -21.1216  -13.4466 C   0  0  1  0  0  0  0  0  0  0  0  0
   27.6787  -20.9441  -14.6754 C   0  0  0  0  0  0  0  0  0  0  0  0
   27.5712  -20.8701  -12.1639 C   0  0  2  0  0  0  0  0  0  0  0  0
   28.7992  -21.6401  -12.1000 N   0  0  0  0  0  0  0  0  0  0  0  0
   26.7698  -21.1446  -10.9507 C   0  0  0  0  0  0  0  0  0  0  0  0
   26.8130  -22.2750  -10.3933 O   0  0  0  0  0  0  0  0  0  0  0  0
   25.9204  -20.1805  -10.3473 N   0  0  0  0  0  0  0  0  0  0  0  0
   25.1500  -20.4008   -9.1509 C   0  0  1  0  0  0  0  0  0  0  0  0
   25.2190  -19.1878   -8.2591 C   0  0  0  0  0  0  0  0  0  0  0  0
   26.5112  -19.1375   -7.5297 C   0  0  0  0  0  0  0  0  0  0  0  0
   27.6371  -18.3843   -7.8272 C   0  0  0  0  0  0  0  0  0  0  0  0
   28.5963  -18.6286   -6.9140 N   0  0  0  0  0  0  0  0  0  0  0  0
   28.1432  -19.5245   -6.0136 C   0  0  0  0  0  0  0  0  0  0  0  0
   28.7754  -20.0643   -4.9124 C   0  0  0  0  0  0  0  0  0  0  0  0
   28.0613  -20.9702   -4.1597 C   0  0  0  0  0  0  0  0  0  0  0  0
   26.7619  -21.3069   -4.5179 C   0  0  0  0  0  0  0  0  0  0  0  0
   26.1530  -20.7453   -5.6333 C   0  0  0  0  0  0  0  0  0  0  0  0
   26.8552  -19.8467   -6.3837 C   0  0  0  0  0  0  0  0  0  0  0  0
   23.7718  -20.8313   -9.4253 C   0  0  0  0  0  0  0  0  0  0  0  0
   23.2210  -20.5708  -10.5415 O   0  0  0  0  0  0  0  0  0  0  0  0
   17.8371  -25.0567   -6.1438 C   0  0  0  0  0  0  0  0  0  0  0  0
   19.5090  -24.4502   -6.0671 S   0  0  0  0  0  0  0  0  0  0  0  0
   19.9157  -23.3594   -7.4016 C   0  0  0  0  0  0  0  0  0  0  0  0
   21.3001  -22.8211   -7.4454 C   0  0  0  0  0  0  0  0  0  0  0  0
   21.6648  -22.0412   -8.6783 C   0  0  2  0  0  0  0  0  0  0  0  0
   23.0201  -21.5439   -8.4633 N   0  0  0  0  0  0  0  0  0  0  0  0
   20.8209  -20.8059   -8.7855 C   0  0  0  0  0  0  0  0  0  0  0  0
   21.1941  -19.7243   -8.2993 O   0  0  0  0  0  0  0  0  0  0  0  0
   19.5943  -20.8133   -9.4275 O   0  0  0  0  0  0  0  0  0  0  0  0
  2  1  1  6
  2  3  1  0
  4  2  1  0
  4  5  1  1
  6  7  2  0
  6  4  1  0
  8  6  1  0
  9  8  1  0
 10 11  1  0
  9 10  1  6
 11 12  2  0
 11 19  1  0
 12 13  1  0
 13 14  1  0
 14 15  2  0
 16 15  1  0
 17 16  2  0
 18 19  2  0
 18 17  1  0
 19 14  1  0
 20 21  2  0
 20  9  1  0
 23 22  1  0
 24 25  1  0
 24 23  1  0
 26 25  1  1
 26 27  1  0
 27 20  1  0
 28 26  1  0
 29 28  2  0
 30 28  1  0
M  END
$$$$
