VWM.pdb
     RDKit          3D

 30 31  0  0  1  0  0  0  0  0999 V2000
   30.1895  -20.2553  -16.5588 C   0  0  0  0  0  0  0  0  0  0  0  0
   29.2672  -20.2128  -15.3449 C   0  0  1  0  0  0  0  0  0  0  0  0
   29.9597  -19.5294  -14.2181 C   0  0  0  0  0  0  0  0  0  0  0  0
   27.9907  -19.5817  -15.7817 C   0  0  2  0  0  0  0  0  0  0  0  0
   28.2409  -18.2985  -16.4106 N   0  0  0  0  0  0  0  0  0  0  0  0
   26.9944  -19.4004  -14.7028 C   0  0  0  0  0  0  0  0  0  0  0  0
   27.0015  -18.3612  -13.9885 O   0  0  0  0  0  0  0  0  0  0  0  0
   25.9894  -20.3580  -14.4059 N   0  0  0  0  0  0  0  0  0  0  0  0
   25.0275  -20.2339  -13.3415 C   0  0  1  0  0  0  0  0  0  0  0  0
   23.6603  -20.6400  -13.8284 C   0  0  0  0  0  0  0  0  0  0  0  0
   22.6363  -20.4279  -12.7744 C   0  0  0  0  0  0  0  0  0  0  0  0
   22.7079  -19.6054  -11.6600 C   0  0  0  0  0  0  0  0  0  0  0  0
   21.5639  -19.7011  -10.9557 N   0  0  0  0  0  0  0  0  0  0  0  0
   20.7290  -20.5650  -11.5682 C   0  0  0  0  0  0  0  0  0  0  0  0
   19.4594  -20.9686  -11.2089 C   0  0  0  0  0  0  0  0  0  0  0  0
   18.8316  -21.8752  -12.0342 C   0  0  0  0  0  0  0  0  0  0  0  0
   19.4736  -22.3457  -13.1728 C   0  0  0  0  0  0  0  0  0  0  0  0
   20.7529  -21.9195  -13.5074 C   0  0  0  0  0  0  0  0  0  0  0  0
   21.3809  -21.0210  -12.6937 C   0  0  0  0  0  0  0  0  0  0  0  0
   25.4311  -20.9386  -12.1165 C   0  0  0  0  0  0  0  0  0  0  0  0
   25.7477  -22.1697  -12.1509 O   0  0  0  0  0  0  0  0  0  0  0  0
   28.8457  -18.0746   -7.3395 C   0  0  0  0  0  0  0  0  0  0  0  0
   27.7084  -19.0611   -6.3896 S   0  0  0  0  0  0  0  0  0  0  0  0
   26.8181  -20.2359   -7.3711 C   0  0  0  0  0  0  0  0  0  0  0  0
   26.5220  -19.8641   -8.7790 C   0  0  0  0  0  0  0  0  0  0  0  0
   25.8345  -20.9144   -9.6069 C   0  0  2  0  0  0  0  0  0  0  0  0
   25.4796  -20.2742  -10.8697 N   0  0  0  0  0  0  0  0  0  0  0  0
   24.5198  -21.2899   -8.9903 C   0  0  0  0  0  0  0  0  0  0  0  0
   23.4615  -20.7392   -9.3400 O   0  0  0  0  0  0  0  0  0  0  0  0
   24.4249  -22.2617   -8.0089 O   0  0  0  0  0  0  0  0  0  0  0  0
  2  1  1  6
  2  3  1  0
  4  2  1  0
  4  5  1  1
  6  7  2  0
  6  4  1  0
  8  6  1  0
  9  8  1  0
 10 11  1  0
  9 10  1  6
 11 12  2  0
 11 19  1  0
 12 13  1  0
 13 14  1  0
 14 15  2  0
 16 15  1  0
 17 16  2  0
 18 19  2  0
 18 17  1  0
 19 14  1  0
 20 21  2  0
 20  9  1  0
 23 22  1  0
 24 25  1  0
 24 23  1  0
 26 25  1  1
 26 27  1  0
 27 20  1  0
 28 26  1  0
 29 28  2  0
 30 28  1  0
M  END
$$$$
