VWM.pdb
     RDKit          3D

 30 31  0  0  1  0  0  0  0  0999 V2000
   28.1078  -26.1241  -18.4670 C   0  0  0  0  0  0  0  0  0  0  0  0
   27.7985  -25.0681  -17.4111 C   0  0  1  0  0  0  0  0  0  0  0  0
   28.1518  -25.5939  -16.0638 C   0  0  0  0  0  0  0  0  0  0  0  0
   28.5077  -23.8213  -17.8119 C   0  0  2  0  0  0  0  0  0  0  0  0
   29.9366  -24.0522  -17.9106 N   0  0  0  0  0  0  0  0  0  0  0  0
   28.2697  -22.6652  -16.9195 C   0  0  0  0  0  0  0  0  0  0  0  0
   29.1155  -22.3465  -16.0400 O   0  0  0  0  0  0  0  0  0  0  0  0
   27.1046  -21.8574  -16.9902 N   0  0  0  0  0  0  0  0  0  0  0  0
   26.8198  -20.7508  -16.1139 C   0  0  1  0  0  0  0  0  0  0  0  0
   26.2191  -19.6113  -16.8964 C   0  0  0  0  0  0  0  0  0  0  0  0
   25.9676  -18.4395  -16.0201 C   0  0  0  0  0  0  0  0  0  0  0  0
   26.8167  -17.8689  -15.0836 C   0  0  0  0  0  0  0  0  0  0  0  0
   26.2053  -16.8191  -14.5022 N   0  0  0  0  0  0  0  0  0  0  0  0
   24.9706  -16.6716  -15.0240 C   0  0  0  0  0  0  0  0  0  0  0  0
   23.9967  -15.7384  -14.7335 C   0  0  0  0  0  0  0  0  0  0  0  0
   22.8130  -15.8278  -15.4322 C   0  0  0  0  0  0  0  0  0  0  0  0
   22.6356  -16.8253  -16.3827 C   0  0  0  0  0  0  0  0  0  0  0  0
   23.6363  -17.7505  -16.6523 C   0  0  0  0  0  0  0  0  0  0  0  0
   24.8120  -17.6676  -15.9634 C   0  0  0  0  0  0  0  0  0  0  0  0
   26.0105  -21.1336  -14.9484 C   0  0  0  0  0  0  0  0  0  0  0  0
   25.0408  -21.9472  -15.0710 O   0  0  0  0  0  0  0  0  0  0  0  0
   25.5612  -19.8576   -7.0730 C   0  0  0  0  0  0  0  0  0  0  0  0
   26.4078  -19.6209   -8.6209 S   0  0  0  0  0  0  0  0  0  0  0  0
   25.6079  -20.4238   -9.9817 C   0  0  0  0  0  0  0  0  0  0  0  0
   26.2814  -20.3580  -11.3046 C   0  0  0  0  0  0  0  0  0  0  0  0
   25.5137  -20.9309  -12.4637 C   0  0  2  0  0  0  0  0  0  0  0  0
   26.2828  -20.6126  -13.6628 N   0  0  0  0  0  0  0  0  0  0  0  0
   24.2147  -20.2027  -12.6429 C   0  0  0  0  0  0  0  0  0  0  0  0
   23.1245  -20.7729  -12.4645 O   0  0  0  0  0  0  0  0  0  0  0  0
   24.1704  -18.8694  -13.0131 O   0  0  0  0  0  0  0  0  0  0  0  0
  2  1  1  6
  2  3  1  0
  4  2  1  0
  4  5  1  1
  6  7  2  0
  6  4  1  0
  8  6  1  0
  9  8  1  0
 10 11  1  0
  9 10  1  6
 11 12  2  0
 11 19  1  0
 12 13  1  0
 13 14  1  0
 14 15  2  0
 16 15  1  0
 17 16  2  0
 18 19  2  0
 18 17  1  0
 19 14  1  0
 20 21  2  0
 20  9  1  0
 23 22  1  0
 24 25  1  0
 24 23  1  0
 26 25  1  1
 26 27  1  0
 27 20  1  0
 28 26  1  0
 29 28  2  0
 30 28  1  0
M  END
$$$$
