VWM.pdb
     RDKit          3D

 30 31  0  0  1  0  0  0  0  0999 V2000
   27.1429  -25.7106  -16.4424 C   0  0  0  0  0  0  0  0  0  0  0  0
   27.3471  -24.3615  -17.1236 C   0  0  1  0  0  0  0  0  0  0  0  0
   28.1666  -24.5443  -18.3529 C   0  0  0  0  0  0  0  0  0  0  0  0
   25.9985  -23.7682  -17.3422 C   0  0  2  0  0  0  0  0  0  0  0  0
   26.0963  -22.5364  -18.1025 N   0  0  0  0  0  0  0  0  0  0  0  0
   25.2343  -23.5066  -16.1024 C   0  0  0  0  0  0  0  0  0  0  0  0
   24.8742  -24.4571  -15.3559 O   0  0  0  0  0  0  0  0  0  0  0  0
   24.8640  -22.2030  -15.6797 N   0  0  0  0  0  0  0  0  0  0  0  0
   24.1483  -21.9072  -14.4657 C   0  0  1  0  0  0  0  0  0  0  0  0
   24.5559  -20.5548  -13.9401 C   0  0  0  0  0  0  0  0  0  0  0  0
   24.0872  -20.3639  -12.5443 C   0  0  0  0  0  0  0  0  0  0  0  0
   22.8418  -19.9387  -12.1066 C   0  0  0  0  0  0  0  0  0  0  0  0
   22.8266  -19.9007  -10.7604 N   0  0  0  0  0  0  0  0  0  0  0  0
   24.0275  -20.2888  -10.2854 C   0  0  0  0  0  0  0  0  0  0  0  0
   24.4648  -20.4027   -8.9817 C   0  0  0  0  0  0  0  0  0  0  0  0
   25.7602  -20.8293   -8.7889 C   0  0  0  0  0  0  0  0  0  0  0  0
   26.5687  -21.1249   -9.8792 C   0  0  0  0  0  0  0  0  0  0  0  0
   26.0984  -21.0001  -11.1805 C   0  0  0  0  0  0  0  0  0  0  0  0
   24.8155  -20.5778  -11.3788 C   0  0  0  0  0  0  0  0  0  0  0  0
   22.6925  -22.0509  -14.6067 C   0  0  0  0  0  0  0  0  0  0  0  0
   22.0945  -21.6130  -15.6401 O   0  0  0  0  0  0  0  0  0  0  0  0
   16.7825  -26.4386  -11.5985 C   0  0  0  0  0  0  0  0  0  0  0  0
   18.4279  -25.7792  -11.4347 S   0  0  0  0  0  0  0  0  0  0  0  0
   18.8129  -24.5570  -12.6571 C   0  0  0  0  0  0  0  0  0  0  0  0
   20.2213  -24.0897  -12.7351 C   0  0  0  0  0  0  0  0  0  0  0  0
   20.5025  -23.0114  -13.7447 C   0  0  2  0  0  0  0  0  0  0  0  0
   21.9162  -22.6765  -13.6045 N   0  0  0  0  0  0  0  0  0  0  0  0
   19.7768  -21.7504  -13.3803 C   0  0  0  0  0  0  0  0  0  0  0  0
   18.7301  -21.4163  -13.9618 O   0  0  0  0  0  0  0  0  0  0  0  0
   20.2368  -20.9052  -12.3849 O   0  0  0  0  0  0  0  0  0  0  0  0
  2  1  1  6
  2  3  1  0
  4  2  1  0
  4  5  1  1
  6  7  2  0
  6  4  1  0
  8  6  1  0
  9  8  1  0
 10 11  1  0
  9 10  1  6
 11 12  2  0
 11 19  1  0
 12 13  1  0
 13 14  1  0
 14 15  2  0
 16 15  1  0
 17 16  2  0
 18 19  2  0
 18 17  1  0
 19 14  1  0
 20 21  2  0
 20  9  1  0
 23 22  1  0
 24 25  1  0
 24 23  1  0
 26 25  1  1
 26 27  1  0
 27 20  1  0
 28 26  1  0
 29 28  2  0
 30 28  1  0
M  END
$$$$
