VWM.pdb
     RDKit          3D

 30 31  0  0  1  0  0  0  0  0999 V2000
   28.5008  -24.2663  -17.5994 C   0  0  0  0  0  0  0  0  0  0  0  0
   28.1479  -23.4556  -16.3568 C   0  0  1  0  0  0  0  0  0  0  0  0
   29.3833  -23.1881  -15.5704 C   0  0  0  0  0  0  0  0  0  0  0  0
   27.4116  -22.2443  -16.8138 C   0  0  2  0  0  0  0  0  0  0  0  0
   28.1437  -21.5646  -17.8660 N   0  0  0  0  0  0  0  0  0  0  0  0
   27.1014  -21.2730  -15.7415 C   0  0  0  0  0  0  0  0  0  0  0  0
   27.8804  -20.3113  -15.4995 O   0  0  0  0  0  0  0  0  0  0  0  0
   25.9370  -21.3548  -14.9337 N   0  0  0  0  0  0  0  0  0  0  0  0
   25.6035  -20.4315  -13.8802 C   0  0  1  0  0  0  0  0  0  0  0  0
   24.3383  -19.6881  -14.2238 C   0  0  0  0  0  0  0  0  0  0  0  0
   24.5693  -18.7320  -15.3360 C   0  0  0  0  0  0  0  0  0  0  0  0
   23.9965  -18.7286  -16.5991 C   0  0  0  0  0  0  0  0  0  0  0  0
   24.4753  -17.6882  -17.3077 N   0  0  0  0  0  0  0  0  0  0  0  0
   25.3526  -16.9954  -16.5535 C   0  0  0  0  0  0  0  0  0  0  0  0
   26.0817  -15.8657  -16.8633 C   0  0  0  0  0  0  0  0  0  0  0  0
   26.9122  -15.3663  -15.8845 C   0  0  0  0  0  0  0  0  0  0  0  0
   26.9920  -15.9941  -14.6478 C   0  0  0  0  0  0  0  0  0  0  0  0
   26.2444  -17.1308  -14.3667 C   0  0  0  0  0  0  0  0  0  0  0  0
   25.4192  -17.6311  -15.3323 C   0  0  0  0  0  0  0  0  0  0  0  0
   25.5528  -21.0647  -12.5549 C   0  0  0  0  0  0  0  0  0  0  0  0
   24.9977  -22.1981  -12.3985 O   0  0  0  0  0  0  0  0  0  0  0  0
   27.4968  -19.5674   -4.9515 C   0  0  0  0  0  0  0  0  0  0  0  0
   27.6331  -19.1504   -6.6767 S   0  0  0  0  0  0  0  0  0  0  0  0
   26.7438  -20.2590   -7.7332 C   0  0  0  0  0  0  0  0  0  0  0  0
   26.8394  -20.0298   -9.1983 C   0  0  0  0  0  0  0  0  0  0  0  0
   26.0609  -20.9798  -10.0657 C   0  0  2  0  0  0  0  0  0  0  0  0
   26.1158  -20.4378  -11.4199 N   0  0  0  0  0  0  0  0  0  0  0  0
   24.6057  -20.9470   -9.7037 C   0  0  0  0  0  0  0  0  0  0  0  0
   23.8143  -20.1789  -10.2776 O   0  0  0  0  0  0  0  0  0  0  0  0
   24.0797  -21.7661   -8.7193 O   0  0  0  0  0  0  0  0  0  0  0  0
  2  1  1  6
  2  3  1  0
  4  2  1  0
  4  5  1  6
  6  7  2  0
  6  4  1  0
  8  6  1  0
  9  8  1  0
 10 11  1  0
  9 10  1  6
 11 12  2  0
 11 19  1  0
 12 13  1  0
 13 14  1  0
 14 15  2  0
 16 15  1  0
 17 16  2  0
 18 19  2  0
 18 17  1  0
 19 14  1  0
 20 21  2  0
 20  9  1  0
 23 22  1  0
 24 25  1  0
 24 23  1  0
 26 25  1  1
 26 27  1  0
 27 20  1  0
 28 26  1  0
 29 28  2  0
 30 28  1  0
M  END
$$$$
