PYA.pdb
     RDKit          3D

 25 26  0  0  1  0  0  0  0  0999 V2000
   18.9774  -13.7395    5.7388 N   0  0  0  0  0  0  0  0  0  0  0  0
   19.1215  -12.3042    5.4606 C   0  0  0  0  0  0  0  0  0  0  0  0
   18.0855  -12.0085    4.3701 C   0  0  0  0  0  0  0  0  0  0  0  0
   17.3119  -13.3286    4.2336 C   0  0  0  0  0  0  0  0  0  0  0  0
   17.5530  -13.9068    5.6112 C   0  0  1  0  0  0  0  0  0  0  0  0
   17.0920  -15.2845    5.7781 C   0  0  0  0  0  0  0  0  0  0  0  0
   15.8585  -15.5139    5.7064 O   0  0  0  0  0  0  0  0  0  0  0  0
   14.7537  -18.3767    0.6065 O   0  0  0  0  0  0  0  0  0  0  0  0
   15.6061  -18.4198    1.7072 C   0  0  0  0  0  0  0  0  0  0  0  0
   15.3729  -19.2232    2.7943 C   0  0  0  0  0  0  0  0  0  0  0  0
   16.2371  -19.2382    3.8614 C   0  0  0  0  0  0  0  0  0  0  0  0
   17.3674  -18.4521    3.8848 C   0  0  0  0  0  0  0  0  0  0  0  0
   18.2973  -18.4904    5.0658 C   0  0  0  0  0  0  0  0  0  0  0  0
   17.7039  -17.6823    6.1510 C   0  0  2  0  0  0  0  0  0  0  0  0
   18.0623  -16.2977    6.0130 N   0  0  0  0  0  0  0  0  0  0  0  0
   18.0354  -18.1325    7.5265 C   0  0  0  0  0  0  0  0  0  0  0  0
   19.1953  -17.8979    7.9532 O   0  0  0  0  0  0  0  0  0  0  0  0
   17.6184  -17.6423    2.8084 C   0  0  0  0  0  0  0  0  0  0  0  0
   16.7437  -17.6363    1.7443 C   0  0  0  0  0  0  0  0  0  0  0  0
   16.2381  -19.0749   10.5619 C   0  0  0  0  0  0  0  0  0  0  0  0
   17.4817  -19.2110    9.6813 C   0  0  2  0  0  0  0  0  0  0  0  0
   17.1081  -18.8029    8.3553 N   0  0  0  0  0  0  0  0  0  0  0  0
   17.8773  -20.6432    9.7281 C   0  0  0  0  0  0  0  0  0  0  0  0
   18.3296  -21.1125   10.8021 O   0  0  0  0  0  0  0  0  0  0  0  0
   17.7276  -21.3988    8.5765 O   0  0  0  0  0  0  0  0  0  0  0  0
  1  2  1  0
  3  2  1  0
  4  5  1  0
  4  3  1  0
  5  6  1  6
  5  1  1  0
  6  7  2  0
  8  9  1  0
  9 19  2  0
  9 10  1  0
 10 11  2  0
 11 12  1  0
 12 13  1  0
 14 13  1  6
 15  6  1  0
 15 14  1  0
 16 14  1  0
 16 17  2  0
 18 12  2  0
 19 18  1  0
 21 20  1  1
 21 22  1  0
 21 23  1  0
 22 16  1  0
 23 24  2  0
 23 25  1  0
M  END
$$$$
