PYA.pdb
     RDKit          3D

 25 26  0  0  1  0  0  0  0  0999 V2000
   27.0582  -36.4500  -16.4216 N   0  0  0  0  0  0  0  0  0  0  0  0
   27.4917  -36.7917  -17.7831 C   0  0  0  0  0  0  0  0  0  0  0  0
   28.8724  -36.1424  -17.9315 C   0  0  0  0  0  0  0  0  0  0  0  0
   29.1728  -35.5979  -16.5268 C   0  0  0  0  0  0  0  0  0  0  0  0
   28.3046  -36.5258  -15.7048 C   0  0  1  0  0  0  0  0  0  0  0  0
   28.2074  -36.1682  -14.2902 C   0  0  0  0  0  0  0  0  0  0  0  0
   29.2616  -36.1454  -13.6065 O   0  0  0  0  0  0  0  0  0  0  0  0
   25.5188  -32.2004   -7.0903 O   0  0  0  0  0  0  0  0  0  0  0  0
   25.7205  -32.6230   -8.4020 C   0  0  0  0  0  0  0  0  0  0  0  0
   26.9281  -32.5036   -9.0417 C   0  0  0  0  0  0  0  0  0  0  0  0
   27.0882  -32.9322  -10.3365 C   0  0  0  0  0  0  0  0  0  0  0  0
   26.0495  -33.4965  -11.0427 C   0  0  0  0  0  0  0  0  0  0  0  0
   26.2540  -33.9590  -12.4588 C   0  0  0  0  0  0  0  0  0  0  0  0
   26.7516  -35.3498  -12.4263 C   0  0  2  0  0  0  0  0  0  0  0  0
   26.9244  -35.8629  -13.7573 N   0  0  0  0  0  0  0  0  0  0  0  0
   25.9189  -36.2998  -11.6463 C   0  0  0  0  0  0  0  0  0  0  0  0
   24.8121  -36.6430  -12.1361 O   0  0  0  0  0  0  0  0  0  0  0  0
   24.8350  -33.6247  -10.4216 C   0  0  0  0  0  0  0  0  0  0  0  0
   24.6873  -33.1909   -9.1226 C   0  0  0  0  0  0  0  0  0  0  0  0
   26.3761  -38.5942   -8.7991 C   0  0  0  0  0  0  0  0  0  0  0  0
   25.4714  -37.7317   -9.6811 C   0  0  2  0  0  0  0  0  0  0  0  0
   26.3216  -36.8205  -10.3962 N   0  0  0  0  0  0  0  0  0  0  0  0
   24.5438  -37.0184   -8.7642 C   0  0  0  0  0  0  0  0  0  0  0  0
   23.6989  -37.6857   -8.1168 O   0  0  0  0  0  0  0  0  0  0  0  0
   24.6556  -35.6409   -8.6659 O   0  0  0  0  0  0  0  0  0  0  0  0
  1  2  1  0
  3  2  1  0
  4  5  1  0
  4  3  1  0
  5  6  1  1
  5  1  1  0
  6  7  2  0
  8  9  1  0
  9 19  2  0
  9 10  1  0
 10 11  2  0
 11 12  1  0
 12 13  1  0
 14 13  1  6
 15  6  1  0
 15 14  1  0
 16 14  1  0
 16 17  2  0
 18 12  2  0
 19 18  1  0
 21 20  1  1
 21 22  1  0
 21 23  1  0
 22 16  1  0
 23 24  2  0
 23 25  1  0
M  END
$$$$
