PYA.pdb
     RDKit          3D

 25 26  0  0  1  0  0  0  0  0999 V2000
   31.4669  -35.8185   -5.9656 N   0  0  0  0  0  0  0  0  0  0  0  0
   32.7113  -35.9737   -6.7310 C   0  0  0  0  0  0  0  0  0  0  0  0
   32.9607  -34.5985   -7.3606 C   0  0  0  0  0  0  0  0  0  0  0  0
   31.8693  -33.7109   -6.7434 C   0  0  0  0  0  0  0  0  0  0  0  0
   31.6139  -34.4770   -5.4635 C   0  0  1  0  0  0  0  0  0  0  0  0
   30.4706  -33.9963   -4.6887 C   0  0  0  0  0  0  0  0  0  0  0  0
   30.4971  -32.8173   -4.2547 O   0  0  0  0  0  0  0  0  0  0  0  0
   26.1152  -31.5753   -9.0581 O   0  0  0  0  0  0  0  0  0  0  0  0
   26.3152  -32.3888   -7.9454 C   0  0  0  0  0  0  0  0  0  0  0  0
   25.7443  -32.1295   -6.7254 C   0  0  0  0  0  0  0  0  0  0  0  0
   25.9653  -32.9556   -5.6509 C   0  0  0  0  0  0  0  0  0  0  0  0
   26.7644  -34.0724   -5.7525 C   0  0  0  0  0  0  0  0  0  0  0  0
   26.9871  -34.9605   -4.5597 C   0  0  0  0  0  0  0  0  0  0  0  0
   28.1689  -34.4642   -3.8249 C   0  0  2  0  0  0  0  0  0  0  0  0
   29.3841  -34.8866   -4.4648 N   0  0  0  0  0  0  0  0  0  0  0  0
   28.2228  -34.8396   -2.3894 C   0  0  0  0  0  0  0  0  0  0  0  0
   28.8127  -35.9091   -2.0881 O   0  0  0  0  0  0  0  0  0  0  0  0
   27.3441  -34.3491   -6.9627 C   0  0  0  0  0  0  0  0  0  0  0  0
   27.1146  -33.5126   -8.0328 C   0  0  0  0  0  0  0  0  0  0  0  0
   27.0546  -33.3824    0.8443 C   0  0  0  0  0  0  0  0  0  0  0  0
   27.6427  -34.5077   -0.0090 C   0  0  2  0  0  0  0  0  0  0  0  0
   27.6443  -34.0496   -1.3708 N   0  0  0  0  0  0  0  0  0  0  0  0
   26.7557  -35.6861    0.1768 C   0  0  0  0  0  0  0  0  0  0  0  0
   26.0113  -36.0402   -0.7713 O   0  0  0  0  0  0  0  0  0  0  0  0
   26.7917  -36.3433    1.3960 O   0  0  0  0  0  0  0  0  0  0  0  0
  1  2  1  0
  3  2  1  0
  4  5  1  0
  4  3  1  0
  5  6  1  6
  5  1  1  0
  6  7  2  0
  8  9  1  0
  9 19  2  0
  9 10  1  0
 10 11  2  0
 11 12  1  0
 12 13  1  0
 14 13  1  6
 15  6  1  0
 15 14  1  0
 16 14  1  0
 16 17  2  0
 18 12  2  0
 19 18  1  0
 21 20  1  1
 21 22  1  0
 21 23  1  0
 22 16  1  0
 23 24  2  0
 23 25  1  0
M  END
$$$$
