PYA.pdb
     RDKit          3D

 25 26  0  0  1  0  0  0  0  0999 V2000
   28.2893  -21.1042  -17.1304 N   0  0  0  0  0  0  0  0  0  0  0  0
   29.2745  -21.3804  -18.1847 C   0  0  0  0  0  0  0  0  0  0  0  0
   29.9537  -22.6863  -17.7568 C   0  0  0  0  0  0  0  0  0  0  0  0
   29.1503  -23.1292  -16.5246 C   0  0  0  0  0  0  0  0  0  0  0  0
   27.8375  -22.4346  -16.8155 C   0  0  1  0  0  0  0  0  0  0  0  0
   26.8655  -22.4972  -15.7247 C   0  0  0  0  0  0  0  0  0  0  0  0
   26.3769  -23.6152  -15.4241 O   0  0  0  0  0  0  0  0  0  0  0  0
   22.5836  -20.7733   -8.4172 O   0  0  0  0  0  0  0  0  0  0  0  0
   23.4726  -20.7042   -9.4871 C   0  0  0  0  0  0  0  0  0  0  0  0
   24.7041  -21.3081   -9.4677 C   0  0  0  0  0  0  0  0  0  0  0  0
   25.5536  -21.2175  -10.5428 C   0  0  0  0  0  0  0  0  0  0  0  0
   25.2069  -20.5208  -11.6788 C   0  0  0  0  0  0  0  0  0  0  0  0
   26.1563  -20.4399  -12.8421 C   0  0  0  0  0  0  0  0  0  0  0  0
   25.6145  -21.2638  -13.9423 C   0  0  2  0  0  0  0  0  0  0  0  0
   26.5210  -21.2895  -15.0569 N   0  0  0  0  0  0  0  0  0  0  0  0
   24.2675  -20.8663  -14.4239 C   0  0  0  0  0  0  0  0  0  0  0  0
   24.1614  -19.7586  -15.0106 O   0  0  0  0  0  0  0  0  0  0  0  0
   23.9810  -19.9101  -11.7182 C   0  0  0  0  0  0  0  0  0  0  0  0
   23.1380  -20.0085  -10.6332 C   0  0  0  0  0  0  0  0  0  0  0  0
   21.3307  -22.1105  -15.7637 C   0  0  0  0  0  0  0  0  0  0  0  0
   21.8270  -21.1975  -14.6409 C   0  0  2  0  0  0  0  0  0  0  0  0
   23.1234  -21.6764  -14.2479 N   0  0  0  0  0  0  0  0  0  0  0  0
   20.8379  -21.3103  -13.5370 C   0  0  0  0  0  0  0  0  0  0  0  0
   21.0471  -22.1409  -12.6179 O   0  0  0  0  0  0  0  0  0  0  0  0
   19.7234  -20.4880  -13.5737 O   0  0  0  0  0  0  0  0  0  0  0  0
  1  2  1  0
  3  2  1  0
  4  5  1  0
  4  3  1  0
  5  6  1  1
  5  1  1  0
  6  7  2  0
  8  9  1  0
  9 19  2  0
  9 10  1  0
 10 11  2  0
 11 12  1  0
 12 13  1  0
 14 13  1  1
 15  6  1  0
 15 14  1  0
 16 14  1  0
 16 17  2  0
 18 12  2  0
 19 18  1  0
 21 20  1  6
 21 22  1  0
 21 23  1  0
 22 16  1  0
 23 24  2  0
 23 25  1  0
M  END
$$$$
