PYA.pdb
     RDKit          3D

 25 26  0  0  1  0  0  0  0  0999 V2000
   20.2373  -18.4300  -18.7417 N   0  0  0  0  0  0  0  0  0  0  0  0
   21.4640  -18.6775  -19.5113 C   0  0  0  0  0  0  0  0  0  0  0  0
   22.0169  -17.2837  -19.8302 C   0  0  0  0  0  0  0  0  0  0  0  0
   21.0944  -16.3370  -19.0475 C   0  0  0  0  0  0  0  0  0  0  0  0
   20.6233  -17.2819  -17.9632 C   0  0  1  0  0  0  0  0  0  0  0  0
   19.5601  -16.7461  -17.1140 C   0  0  0  0  0  0  0  0  0  0  0  0
   19.8664  -15.9007  -16.2362 O   0  0  0  0  0  0  0  0  0  0  0  0
   19.2374  -10.7162  -15.5215 O   0  0  0  0  0  0  0  0  0  0  0  0
   18.6325  -11.8530  -16.0521 C   0  0  0  0  0  0  0  0  0  0  0  0
   18.9748  -12.3726  -17.2746 C   0  0  0  0  0  0  0  0  0  0  0  0
   18.3553  -13.4959  -17.7646 C   0  0  0  0  0  0  0  0  0  0  0  0
   17.3702  -14.1441  -17.0534 C   0  0  0  0  0  0  0  0  0  0  0  0
   16.7103  -15.3736  -17.6136 C   0  0  0  0  0  0  0  0  0  0  0  0
   17.0903  -16.5285  -16.7741 C   0  0  2  0  0  0  0  0  0  0  0  0
   18.2311  -17.2075  -17.3237 N   0  0  0  0  0  0  0  0  0  0  0  0
   16.0088  -17.5169  -16.5339 C   0  0  0  0  0  0  0  0  0  0  0  0
   14.9264  -17.0918  -16.0540 O   0  0  0  0  0  0  0  0  0  0  0  0
   17.0136  -13.6409  -15.8299 C   0  0  0  0  0  0  0  0  0  0  0  0
   17.6427  -12.5134  -15.3497 C   0  0  0  0  0  0  0  0  0  0  0  0
   15.1724  -20.9792  -17.4407 C   0  0  0  0  0  0  0  0  0  0  0  0
   15.1318  -19.8265  -16.4358 C   0  0  2  0  0  0  0  0  0  0  0  0
   16.1534  -18.8927  -16.8214 N   0  0  0  0  0  0  0  0  0  0  0  0
   15.4018  -20.4211  -15.1003 C   0  0  0  0  0  0  0  0  0  0  0  0
   14.5946  -21.2657  -14.6383 O   0  0  0  0  0  0  0  0  0  0  0  0
   16.5393  -20.0128  -14.4229 O   0  0  0  0  0  0  0  0  0  0  0  0
  1  2  1  0
  3  2  1  0
  4  5  1  0
  4  3  1  0
  5  6  1  6
  5  1  1  0
  6  7  2  0
  8  9  1  0
  9 19  2  0
  9 10  1  0
 10 11  2  0
 11 12  1  0
 12 13  1  0
 14 13  1  6
 15  6  1  0
 15 14  1  0
 16 14  1  0
 16 17  2  0
 18 12  2  0
 19 18  1  0
 21 20  1  6
 21 22  1  0
 21 23  1  0
 22 16  1  0
 23 24  2  0
 23 25  1  0
M  END
$$$$
