PYA.pdb
     RDKit          3D

 25 26  0  0  1  0  0  0  0  0999 V2000
   23.5149  -22.8029  -14.6437 N   0  0  0  0  0  0  0  0  0  0  0  0
   24.7304  -23.4860  -15.1066 C   0  0  0  0  0  0  0  0  0  0  0  0
   25.8868  -22.6047  -14.6207 C   0  0  0  0  0  0  0  0  0  0  0  0
   25.1955  -21.5377  -13.7585 C   0  0  0  0  0  0  0  0  0  0  0  0
   23.9476  -22.2988  -13.3663 C   0  0  1  0  0  0  0  0  0  0  0  0
   22.9454  -21.4971  -12.6654 C   0  0  0  0  0  0  0  0  0  0  0  0
   23.2535  -20.9929  -11.5563 O   0  0  0  0  0  0  0  0  0  0  0  0
   19.5312  -14.0435  -14.7563 O   0  0  0  0  0  0  0  0  0  0  0  0
   20.1548  -15.2735  -14.5608 C   0  0  0  0  0  0  0  0  0  0  0  0
   20.5422  -15.7196  -13.3229 C   0  0  0  0  0  0  0  0  0  0  0  0
   21.1548  -16.9391  -13.1701 C   0  0  0  0  0  0  0  0  0  0  0  0
   21.4044  -17.7604  -14.2469 C   0  0  0  0  0  0  0  0  0  0  0  0
   22.0750  -19.0918  -14.0498 C   0  0  0  0  0  0  0  0  0  0  0  0
   21.0876  -20.0291  -13.4759 C   0  0  2  0  0  0  0  0  0  0  0  0
   21.6709  -21.3266  -13.2736 N   0  0  0  0  0  0  0  0  0  0  0  0
   19.8330  -20.1794  -14.2554 C   0  0  0  0  0  0  0  0  0  0  0  0
   19.1103  -19.1598  -14.3993 O   0  0  0  0  0  0  0  0  0  0  0  0
   21.0251  -17.3331  -15.4922 C   0  0  0  0  0  0  0  0  0  0  0  0
   20.4115  -16.1077  -15.6321 C   0  0  0  0  0  0  0  0  0  0  0  0
   18.3727  -22.6168  -16.5937 C   0  0  0  0  0  0  0  0  0  0  0  0
   18.2018  -21.4969  -15.5656 C   0  0  2  0  0  0  0  0  0  0  0  0
   19.4325  -21.4067  -14.8295 N   0  0  0  0  0  0  0  0  0  0  0  0
   17.0645  -21.8935  -14.6945 C   0  0  0  0  0  0  0  0  0  0  0  0
   15.9154  -21.9732  -15.1963 O   0  0  0  0  0  0  0  0  0  0  0  0
   17.3269  -22.1587  -13.3602 O   0  0  0  0  0  0  0  0  0  0  0  0
  1  2  1  0
  3  2  1  0
  4  5  1  0
  4  3  1  0
  5  6  1  6
  5  1  1  0
  6  7  2  0
  8  9  1  0
  9 19  2  0
  9 10  1  0
 10 11  2  0
 11 12  1  0
 12 13  1  0
 14 13  1  6
 15  6  1  0
 15 14  1  0
 16 14  1  0
 16 17  2  0
 18 12  2  0
 19 18  1  0
 21 20  1  6
 21 22  1  0
 21 23  1  0
 22 16  1  0
 23 24  2  0
 23 25  1  0
M  END
$$$$
