PYA.pdb
     RDKit          3D

 25 26  0  0  1  0  0  0  0  0999 V2000
   27.1096  -18.9088  -18.3080 N   0  0  0  0  0  0  0  0  0  0  0  0
   27.8945  -18.7033  -19.5327 C   0  0  0  0  0  0  0  0  0  0  0  0
   29.2531  -19.3516  -19.2434 C   0  0  0  0  0  0  0  0  0  0  0  0
   29.0520  -20.0276  -17.8786 C   0  0  0  0  0  0  0  0  0  0  0  0
   27.5513  -20.2203  -17.9105 C   0  0  1  0  0  0  0  0  0  0  0  0
   26.9754  -20.6931  -16.6522 C   0  0  0  0  0  0  0  0  0  0  0  0
   26.2654  -21.7298  -16.6730 O   0  0  0  0  0  0  0  0  0  0  0  0
   24.8553  -20.8555   -8.1726 O   0  0  0  0  0  0  0  0  0  0  0  0
   25.5304  -20.6696   -9.3766 C   0  0  0  0  0  0  0  0  0  0  0  0
   26.0846  -21.7064  -10.0833 C   0  0  0  0  0  0  0  0  0  0  0  0
   26.7431  -21.4833  -11.2675 C   0  0  0  0  0  0  0  0  0  0  0  0
   26.8739  -20.2170  -11.7922 C   0  0  0  0  0  0  0  0  0  0  0  0
   27.5984  -20.0023  -13.0922 C   0  0  0  0  0  0  0  0  0  0  0  0
   26.6681  -20.3072  -14.1987 C   0  0  2  0  0  0  0  0  0  0  0  0
   27.2475  -19.9568  -15.4660 N   0  0  0  0  0  0  0  0  0  0  0  0
   25.3286  -19.6764  -14.0887 C   0  0  0  0  0  0  0  0  0  0  0  0
   25.2399  -18.4477  -14.3442 O   0  0  0  0  0  0  0  0  0  0  0  0
   26.3272  -19.1674  -11.1015 C   0  0  0  0  0  0  0  0  0  0  0  0
   25.6692  -19.4045   -9.9147 C   0  0  0  0  0  0  0  0  0  0  0  0
   22.4153  -19.5112  -15.0649 C   0  0  0  0  0  0  0  0  0  0  0  0
   22.8995  -19.7369  -13.6314 C   0  0  2  0  0  0  0  0  0  0  0  0
   24.1728  -20.3974  -13.7138 N   0  0  0  0  0  0  0  0  0  0  0  0
   21.8767  -20.5886  -12.9695 C   0  0  0  0  0  0  0  0  0  0  0  0
   20.7111  -20.1404  -12.8322 O   0  0  0  0  0  0  0  0  0  0  0  0
   22.2596  -21.8462  -12.5320 O   0  0  0  0  0  0  0  0  0  0  0  0
  1  2  1  0
  3  2  1  0
  4  5  1  0
  4  3  1  0
  5  6  1  1
  5  1  1  0
  6  7  2  0
  8  9  1  0
  9 19  2  0
  9 10  1  0
 10 11  2  0
 11 12  1  0
 12 13  1  0
 14 13  1  1
 15  6  1  0
 15 14  1  0
 16 14  1  0
 16 17  2  0
 18 12  2  0
 19 18  1  0
 21 20  1  6
 21 22  1  0
 21 23  1  0
 22 16  1  0
 23 24  2  0
 23 25  1  0
M  END
$$$$
