IDE.pdb
     RDKit          3D

 26 25  0  0  1  0  0  0  0  0999 V2000
    9.8635   -9.9226  -14.1678 C   0  0  0  0  0  0  0  0  0  0  0  0
   10.8833  -10.9240  -14.5655 C   0  0  0  0  0  0  0  0  0  0  0  0
   12.3064  -10.5721  -14.4049 C   0  0  2  0  0  0  0  0  0  0  0  0
   12.7025   -9.2831  -15.0816 C   0  0  0  0  0  0  0  0  0  0  0  0
   13.2637  -11.6662  -14.7745 C   0  0  2  0  0  0  0  0  0  0  0  0
   12.9740  -12.9098  -14.1896 N   0  0  0  0  0  0  0  0  0  0  0  0
   14.6540  -11.1431  -14.5617 C   0  0  0  0  0  0  0  0  0  0  0  0
   15.0605  -11.0095  -13.3596 O   0  0  0  0  0  0  0  0  0  0  0  0
   15.4527  -10.8217  -15.6518 N   0  0  0  0  0  0  0  0  0  0  0  0
   16.7843  -10.3068  -15.6365 C   0  0  1  0  0  0  0  0  0  0  0  0
   17.8656  -11.2382  -16.1318 C   0  0  0  0  0  0  0  0  0  0  0  0
   19.1789  -10.5844  -15.9625 C   0  0  0  0  0  0  0  0  0  0  0  0
   19.7482  -10.0898  -16.9686 O   0  0  0  0  0  0  0  0  0  0  0  0
   16.8580   -8.9371  -16.0727 C   0  0  0  0  0  0  0  0  0  0  0  0
   16.2542   -8.6027  -17.1372 O   0  0  0  0  0  0  0  0  0  0  0  0
   19.8139  -10.4944  -14.7258 O   0  0  0  0  0  0  0  0  0  0  0  0
   17.5809   -7.9280  -15.3636 N   0  0  0  0  0  0  0  0  0  0  0  0
   17.6462   -6.5697  -15.8579 C   0  0  1  0  0  0  0  0  0  0  0  0
   16.8330   -5.6727  -14.9624 C   0  0  0  0  0  0  0  0  0  0  0  0
   16.9328   -4.2549  -15.4643 C   0  0  0  0  0  0  0  0  0  0  0  0
   16.1911   -3.3198  -14.5679 C   0  0  0  0  0  0  0  0  0  0  0  0
   16.7037   -2.2123  -14.2964 O   0  0  0  0  0  0  0  0  0  0  0  0
   19.0766   -6.1237  -15.8117 C   0  0  0  0  0  0  0  0  0  0  0  0
   19.5238   -4.9923  -16.4597 O   0  0  0  0  0  0  0  0  0  0  0  0
   14.9615   -3.6397  -14.0320 O   0  0  0  0  0  0  0  0  0  0  0  0
   19.9409   -6.7895  -15.1592 O   0  0  0  0  0  0  0  0  0  0  0  0
  2  3  1  0
  2  1  1  0
  3  5  1  0
  3  4  1  6
  5  7  1  0
  5  6  1  1
  7  8  2  0
  9 10  1  0
  9  7  1  0
 10 11  1  6
 11 12  1  0
 12 13  2  0
 14 10  1  0
 14 15  2  0
 16 12  1  0
 17 14  1  0
 18 17  1  0
 18 23  1  0
 18 19  1  1
 20 19  1  0
 21 20  1  0
 21 22  2  0
 23 24  1  0
 25 21  1  0
 26 23  2  0
M  END
$$$$
