IDE.pdb
     RDKit          3D

 26 25  0  0  1  0  0  0  0  0999 V2000
   20.1018  -13.4550  -19.0851 C   0  0  0  0  0  0  0  0  0  0  0  0
   19.5042  -13.3801  -17.7294 C   0  0  0  0  0  0  0  0  0  0  0  0
   19.3648  -12.0534  -17.1007 C   0  0  2  0  0  0  0  0  0  0  0  0
   18.7577  -11.0058  -18.0008 C   0  0  0  0  0  0  0  0  0  0  0  0
   20.6202  -11.5288  -16.4692 C   0  0  2  0  0  0  0  0  0  0  0  0
   21.3562  -12.4917  -15.7595 N   0  0  0  0  0  0  0  0  0  0  0  0
   20.2615  -10.2823  -15.7147 C   0  0  0  0  0  0  0  0  0  0  0  0
   19.1701  -10.2818  -15.0536 O   0  0  0  0  0  0  0  0  0  0  0  0
   21.1043   -9.1787  -15.7501 N   0  0  0  0  0  0  0  0  0  0  0  0
   20.9388   -7.9320  -15.0743 C   0  0  1  0  0  0  0  0  0  0  0  0
   22.1759   -7.3537  -14.4284 C   0  0  0  0  0  0  0  0  0  0  0  0
   21.7759   -6.2759  -13.5013 C   0  0  0  0  0  0  0  0  0  0  0  0
   20.7411   -6.4250  -12.8030 O   0  0  0  0  0  0  0  0  0  0  0  0
   20.0935   -7.0154  -15.7934 C   0  0  0  0  0  0  0  0  0  0  0  0
   20.3795   -6.7392  -16.9982 O   0  0  0  0  0  0  0  0  0  0  0  0
   22.5042   -5.0955  -13.3706 O   0  0  0  0  0  0  0  0  0  0  0  0
   18.9413   -6.3966  -15.2163 N   0  0  0  0  0  0  0  0  0  0  0  0
   18.0384   -5.6025  -16.0211 C   0  0  1  0  0  0  0  0  0  0  0  0
   16.6171   -5.9195  -15.6375 C   0  0  0  0  0  0  0  0  0  0  0  0
   15.6874   -5.0056  -16.3942 C   0  0  0  0  0  0  0  0  0  0  0  0
   14.2628   -5.3010  -16.0605 C   0  0  0  0  0  0  0  0  0  0  0  0
   14.0142   -6.1793  -15.2063 O   0  0  0  0  0  0  0  0  0  0  0  0
   18.3021   -4.1558  -15.7297 C   0  0  0  0  0  0  0  0  0  0  0  0
   17.9563   -3.1467  -16.6028 O   0  0  0  0  0  0  0  0  0  0  0  0
   13.2163   -4.6366  -16.6643 O   0  0  0  0  0  0  0  0  0  0  0  0
   18.8651   -3.8068  -14.6447 O   0  0  0  0  0  0  0  0  0  0  0  0
  2  3  1  0
  2  1  1  0
  3  5  1  0
  3  4  1  6
  5  7  1  0
  5  6  1  1
  7  8  2  0
  9 10  1  0
  9  7  1  0
 10 11  1  6
 11 12  1  0
 12 13  2  0
 14 10  1  0
 14 15  2  0
 16 12  1  0
 17 14  1  0
 18 17  1  0
 18 23  1  0
 18 19  1  1
 20 19  1  0
 21 20  1  0
 21 22  2  0
 23 24  1  0
 25 21  1  0
 26 23  2  0
M  END
$$$$
