IDE.pdb
     RDKit          3D

 26 25  0  0  1  0  0  0  0  0999 V2000
   21.7068  -18.6867  -16.6757 C   0  0  0  0  0  0  0  0  0  0  0  0
   22.0725  -19.4003  -15.4276 C   0  0  0  0  0  0  0  0  0  0  0  0
   20.9873  -19.9588  -14.5998 C   0  0  2  0  0  0  0  0  0  0  0  0
   19.8414  -19.0066  -14.3617 C   0  0  0  0  0  0  0  0  0  0  0  0
   21.4403  -20.5584  -13.3016 C   0  0  2  0  0  0  0  0  0  0  0  0
   22.6658  -21.2402  -13.3762 N   0  0  0  0  0  0  0  0  0  0  0  0
   20.2869  -21.3317  -12.7325 C   0  0  0  0  0  0  0  0  0  0  0  0
   19.1749  -20.7219  -12.5922 O   0  0  0  0  0  0  0  0  0  0  0  0
   20.4485  -22.6648  -12.3773 N   0  0  0  0  0  0  0  0  0  0  0  0
   19.4726  -23.5432  -11.8166 C   0  0  1  0  0  0  0  0  0  0  0  0
   19.3821  -24.9199  -12.4317 C   0  0  0  0  0  0  0  0  0  0  0  0
   19.1443  -24.7841  -13.8830 C   0  0  0  0  0  0  0  0  0  0  0  0
   18.0468  -24.3165  -14.2800 O   0  0  0  0  0  0  0  0  0  0  0  0
   19.4150  -23.4693  -10.3802 C   0  0  0  0  0  0  0  0  0  0  0  0
   20.4761  -23.1967   -9.7406 O   0  0  0  0  0  0  0  0  0  0  0  0
   20.0933  -25.1561  -14.8327 O   0  0  0  0  0  0  0  0  0  0  0  0
   18.2161  -23.6885   -9.6331 N   0  0  0  0  0  0  0  0  0  0  0  0
   18.2269  -23.6847   -8.1862 C   0  0  1  0  0  0  0  0  0  0  0  0
   16.8103  -23.7068   -7.6760 C   0  0  0  0  0  0  0  0  0  0  0  0
   16.8254  -23.5691   -6.1751 C   0  0  0  0  0  0  0  0  0  0  0  0
   15.4361  -23.5282   -5.6306 C   0  0  0  0  0  0  0  0  0  0  0  0
   14.4754  -23.6387   -6.4228 O   0  0  0  0  0  0  0  0  0  0  0  0
   18.9234  -24.9278   -7.7206 C   0  0  0  0  0  0  0  0  0  0  0  0
   19.4748  -25.0441   -6.4627 O   0  0  0  0  0  0  0  0  0  0  0  0
   15.1815  -23.3728   -4.2843 O   0  0  0  0  0  0  0  0  0  0  0  0
   19.0297  -25.9355   -8.4882 O   0  0  0  0  0  0  0  0  0  0  0  0
  2  3  1  0
  2  1  1  0
  3  5  1  0
  3  4  1  1
  5  7  1  0
  5  6  1  6
  7  8  2  0
  9 10  1  0
  9  7  1  0
 10 11  1  1
 11 12  1  0
 12 13  2  0
 14 10  1  0
 14 15  2  0
 16 12  1  0
 17 14  1  0
 18 17  1  0
 18 23  1  0
 18 19  1  1
 20 19  1  0
 21 20  1  0
 21 22  2  0
 23 24  1  0
 25 21  1  0
 26 23  2  0
M  END
$$$$
