IDE.pdb
     RDKit          3D

 26 25  0  0  1  0  0  0  0  0999 V2000
   16.6330  -12.9824  -12.2369 C   0  0  0  0  0  0  0  0  0  0  0  0
   15.7816  -12.4939  -11.1247 C   0  0  0  0  0  0  0  0  0  0  0  0
   15.6798  -11.0382  -10.9115 C   0  0  2  0  0  0  0  0  0  0  0  0
   17.0090  -10.3472  -10.7324 C   0  0  0  0  0  0  0  0  0  0  0  0
   14.7347  -10.6336   -9.8191 C   0  0  2  0  0  0  0  0  0  0  0  0
   13.5275  -11.3512   -9.8041 N   0  0  0  0  0  0  0  0  0  0  0  0
   14.6148   -9.1382   -9.8542 C   0  0  0  0  0  0  0  0  0  0  0  0
   13.9252   -8.6198  -10.7944 O   0  0  0  0  0  0  0  0  0  0  0  0
   15.2424   -8.3653   -8.8856 N   0  0  0  0  0  0  0  0  0  0  0  0
   15.2982   -6.9408   -8.8067 C   0  0  1  0  0  0  0  0  0  0  0  0
   14.7609   -6.3213   -7.5381 C   0  0  0  0  0  0  0  0  0  0  0  0
   14.5527   -4.8759   -7.7589 C   0  0  0  0  0  0  0  0  0  0  0  0
   14.9999   -4.0592   -6.9140 O   0  0  0  0  0  0  0  0  0  0  0  0
   16.5294   -6.4012   -9.3214 C   0  0  0  0  0  0  0  0  0  0  0  0
   17.4719   -6.1510   -8.5099 O   0  0  0  0  0  0  0  0  0  0  0  0
   13.8767   -4.3808   -8.8719 O   0  0  0  0  0  0  0  0  0  0  0  0
   16.7459   -6.1314  -10.7085 N   0  0  0  0  0  0  0  0  0  0  0  0
   18.0048   -5.5932  -11.1767 C   0  0  1  0  0  0  0  0  0  0  0  0
   18.8002   -6.6871  -11.8388 C   0  0  0  0  0  0  0  0  0  0  0  0
   20.0217   -6.0852  -12.4852 C   0  0  0  0  0  0  0  0  0  0  0  0
   20.8570   -7.1408  -13.1302 C   0  0  0  0  0  0  0  0  0  0  0  0
   20.4661   -8.3275  -13.0877 O   0  0  0  0  0  0  0  0  0  0  0  0
   17.7101   -4.5321  -12.1938 C   0  0  0  0  0  0  0  0  0  0  0  0
   18.6521   -3.6127  -12.6030 O   0  0  0  0  0  0  0  0  0  0  0  0
   22.0431   -6.8473  -13.7693 O   0  0  0  0  0  0  0  0  0  0  0  0
   16.5572   -4.4450  -12.7221 O   0  0  0  0  0  0  0  0  0  0  0  0
  2  3  1  0
  2  1  1  0
  3  5  1  0
  3  4  1  1
  5  7  1  0
  5  6  1  6
  7  8  2  0
  9 10  1  0
  9  7  1  0
 10 11  1  1
 11 12  1  0
 12 13  2  0
 14 10  1  0
 14 15  2  0
 16 12  1  0
 17 14  1  0
 18 17  1  0
 18 23  1  0
 18 19  1  6
 20 19  1  0
 21 20  1  0
 21 22  2  0
 23 24  1  0
 25 21  1  0
 26 23  2  0
M  END
$$$$
