IDE.pdb
     RDKit          3D

 26 25  0  0  1  0  0  0  0  0999 V2000
   28.3991  -13.1874  -16.5599 C   0  0  0  0  0  0  0  0  0  0  0  0
   26.9992  -12.6967  -16.5817 C   0  0  0  0  0  0  0  0  0  0  0  0
   26.7477  -11.2888  -16.2218 C   0  0  2  0  0  0  0  0  0  0  0  0
   27.2088  -10.9157  -14.8345 C   0  0  0  0  0  0  0  0  0  0  0  0
   25.3346  -10.8342  -16.4374 C   0  0  2  0  0  0  0  0  0  0  0  0
   24.6867  -11.4535  -17.5187 N   0  0  0  0  0  0  0  0  0  0  0  0
   25.3365   -9.3335  -16.4391 C   0  0  0  0  0  0  0  0  0  0  0  0
   25.8783   -8.7395  -15.4483 O   0  0  0  0  0  0  0  0  0  0  0  0
   24.7615   -8.6366  -17.4941 N   0  0  0  0  0  0  0  0  0  0  0  0
   24.5366   -7.2300  -17.5915 C   0  0  1  0  0  0  0  0  0  0  0  0
   25.0301   -6.5611  -18.8529 C   0  0  0  0  0  0  0  0  0  0  0  0
   24.8400   -5.1017  -18.7299 C   0  0  0  0  0  0  0  0  0  0  0  0
   23.9082   -4.5520  -19.3704 O   0  0  0  0  0  0  0  0  0  0  0  0
   23.2356   -6.8387  -17.1160 C   0  0  0  0  0  0  0  0  0  0  0  0
   22.2152   -7.1580  -17.7989 O   0  0  0  0  0  0  0  0  0  0  0  0
   25.6571   -4.3077  -17.9282 O   0  0  0  0  0  0  0  0  0  0  0  0
   23.0331   -6.1044  -15.9063 N   0  0  0  0  0  0  0  0  0  0  0  0
   21.7483   -6.1017  -15.2408 C   0  0  1  0  0  0  0  0  0  0  0  0
   21.4429   -7.4882  -14.7388 C   0  0  0  0  0  0  0  0  0  0  0  0
   20.3109   -8.0667  -15.5489 C   0  0  0  0  0  0  0  0  0  0  0  0
   19.9761   -9.4458  -15.0860 C   0  0  0  0  0  0  0  0  0  0  0  0
   19.2374   -9.5828  -14.0868 O   0  0  0  0  0  0  0  0  0  0  0  0
   21.8324   -5.1744  -14.0659 C   0  0  0  0  0  0  0  0  0  0  0  0
   20.7495   -4.8959  -13.2598 O   0  0  0  0  0  0  0  0  0  0  0  0
   20.4555  -10.5695  -15.7254 O   0  0  0  0  0  0  0  0  0  0  0  0
   22.9289   -4.6034  -13.7698 O   0  0  0  0  0  0  0  0  0  0  0  0
  2  3  1  0
  2  1  1  0
  3  5  1  0
  3  4  1  1
  5  7  1  0
  5  6  1  6
  7  8  2  0
  9 10  1  0
  9  7  1  0
 10 11  1  6
 11 12  1  0
 12 13  2  0
 14 10  1  0
 14 15  2  0
 16 12  1  0
 17 14  1  0
 18 17  1  0
 18 23  1  0
 18 19  1  1
 20 19  1  0
 21 20  1  0
 21 22  2  0
 23 24  1  0
 25 21  1  0
 26 23  2  0
M  END
$$$$
