IDE.pdb
     RDKit          3D

 26 25  0  0  1  0  0  0  0  0999 V2000
   29.1654  -21.7358   -8.0830 C   0  0  0  0  0  0  0  0  0  0  0  0
   28.3245  -20.6007   -8.5361 C   0  0  0  0  0  0  0  0  0  0  0  0
   27.3232  -20.8511   -9.5894 C   0  0  2  0  0  0  0  0  0  0  0  0
   27.8674  -21.5717  -10.7982 C   0  0  0  0  0  0  0  0  0  0  0  0
   26.5502  -19.6379  -10.0145 C   0  0  2  0  0  0  0  0  0  0  0  0
   25.9917  -18.9072   -8.9530 N   0  0  0  0  0  0  0  0  0  0  0  0
   25.6013  -20.0614  -11.0972 C   0  0  0  0  0  0  0  0  0  0  0  0
   24.3605  -20.1277  -10.8066 O   0  0  0  0  0  0  0  0  0  0  0  0
   26.0806  -20.3662  -12.3648 N   0  0  0  0  0  0  0  0  0  0  0  0
   25.3469  -20.4068  -13.5889 C   0  0  1  0  0  0  0  0  0  0  0  0
   26.1665  -20.4218  -14.8578 C   0  0  0  0  0  0  0  0  0  0  0  0
   26.6714  -19.0591  -15.1209 C   0  0  0  0  0  0  0  0  0  0  0  0
   25.8754  -18.0887  -15.0459 O   0  0  0  0  0  0  0  0  0  0  0  0
   24.2194  -21.2998  -13.5343 C   0  0  0  0  0  0  0  0  0  0  0  0
   24.4302  -22.5383  -13.3574 O   0  0  0  0  0  0  0  0  0  0  0  0
   28.0013  -18.8067  -15.4504 O   0  0  0  0  0  0  0  0  0  0  0  0
   22.8659  -20.8600  -13.6698 N   0  0  0  0  0  0  0  0  0  0  0  0
   21.7609  -21.7729  -13.4718 C   0  0  1  0  0  0  0  0  0  0  0  0
   20.4969  -20.9859  -13.2469 C   0  0  0  0  0  0  0  0  0  0  0  0
   19.3532  -21.9433  -13.0287 C   0  0  0  0  0  0  0  0  0  0  0  0
   18.0756  -21.2040  -12.8064 C   0  0  0  0  0  0  0  0  0  0  0  0
   17.2754  -21.0848  -13.7594 O   0  0  0  0  0  0  0  0  0  0  0  0
   21.6010  -22.5906  -14.7180 C   0  0  0  0  0  0  0  0  0  0  0  0
   21.2205  -23.9153  -14.6942 O   0  0  0  0  0  0  0  0  0  0  0  0
   17.7527  -20.6504  -11.5855 O   0  0  0  0  0  0  0  0  0  0  0  0
   21.8162  -22.0768  -15.8607 O   0  0  0  0  0  0  0  0  0  0  0  0
  2  3  1  0
  2  1  1  0
  3  5  1  0
  3  4  1  6
  5  7  1  0
  5  6  1  1
  7  8  2  0
  9 10  1  0
  9  7  1  0
 10 11  1  6
 11 12  1  0
 12 13  2  0
 14 10  1  0
 14 15  2  0
 16 12  1  0
 17 14  1  0
 18 17  1  0
 18 23  1  0
 18 19  1  6
 20 19  1  0
 21 20  1  0
 21 22  2  0
 23 24  1  0
 25 21  1  0
 26 23  2  0
M  END
$$$$
