IDE.pdb
     RDKit          3D

 26 25  0  0  1  0  0  0  0  0999 V2000
   15.5219  -11.4233  -17.7106 C   0  0  0  0  0  0  0  0  0  0  0  0
   16.9042  -11.4444  -17.1724 C   0  0  0  0  0  0  0  0  0  0  0  0
   17.3715  -10.2757  -16.4039 C   0  0  2  0  0  0  0  0  0  0  0  0
   17.2823   -8.9694  -17.1538 C   0  0  0  0  0  0  0  0  0  0  0  0
   18.7351  -10.4332  -15.7990 C   0  0  2  0  0  0  0  0  0  0  0  0
   18.9428  -11.6636  -15.1544 N   0  0  0  0  0  0  0  0  0  0  0  0
   19.0143   -9.2044  -14.9842 C   0  0  0  0  0  0  0  0  0  0  0  0
   18.2014   -8.9187  -14.0430 O   0  0  0  0  0  0  0  0  0  0  0  0
   20.1258   -8.4197  -15.2640 N   0  0  0  0  0  0  0  0  0  0  0  0
   20.4829   -7.1698  -14.6734 C   0  0  1  0  0  0  0  0  0  0  0  0
   21.9170   -7.0320  -14.2191 C   0  0  0  0  0  0  0  0  0  0  0  0
   22.0731   -5.7517  -13.4996 C   0  0  0  0  0  0  0  0  0  0  0  0
   21.4342   -5.5703  -12.4320 O   0  0  0  0  0  0  0  0  0  0  0  0
   19.9093   -6.0433  -15.3618 C   0  0  0  0  0  0  0  0  0  0  0  0
   20.0575   -5.9567  -16.6188 O   0  0  0  0  0  0  0  0  0  0  0  0
   22.9042   -4.7332  -13.9606 O   0  0  0  0  0  0  0  0  0  0  0  0
   19.1766   -5.0110  -14.6976 N   0  0  0  0  0  0  0  0  0  0  0  0
   18.5893   -3.9165  -15.4397 C   0  0  1  0  0  0  0  0  0  0  0  0
   17.3324   -3.4608  -14.7468 C   0  0  0  0  0  0  0  0  0  0  0  0
   16.7101   -2.3415  -15.5419 C   0  0  0  0  0  0  0  0  0  0  0  0
   15.4769   -1.8341  -14.8711 C   0  0  0  0  0  0  0  0  0  0  0  0
   15.1342   -2.3385  -13.7798 O   0  0  0  0  0  0  0  0  0  0  0  0
   19.5684   -2.7813  -15.4518 C   0  0  0  0  0  0  0  0  0  0  0  0
   19.8478   -2.0528  -16.5881 O   0  0  0  0  0  0  0  0  0  0  0  0
   14.7069   -0.8291  -15.4173 O   0  0  0  0  0  0  0  0  0  0  0  0
   20.1849   -2.4478  -14.3914 O   0  0  0  0  0  0  0  0  0  0  0  0
  2  3  1  0
  2  1  1  0
  3  5  1  0
  3  4  1  6
  5  7  1  0
  5  6  1  1
  7  8  2  0
  9 10  1  0
  9  7  1  0
 10 11  1  6
 11 12  1  0
 12 13  2  0
 14 10  1  0
 14 15  2  0
 16 12  1  0
 17 14  1  0
 18 17  1  0
 18 23  1  0
 18 19  1  1
 20 19  1  0
 21 20  1  0
 21 22  2  0
 23 24  1  0
 25 21  1  0
 26 23  2  0
M  END
$$$$
