IDE.pdb
     RDKit          3D

 26 25  0  0  1  0  0  0  0  0999 V2000
   28.5453  -12.7503  -15.9030 C   0  0  0  0  0  0  0  0  0  0  0  0
   27.1107  -13.1261  -15.8621 C   0  0  0  0  0  0  0  0  0  0  0  0
   26.1059  -12.0667  -16.0692 C   0  0  2  0  0  0  0  0  0  0  0  0
   26.2538  -10.8870  -15.1402 C   0  0  0  0  0  0  0  0  0  0  0  0
   24.6853  -12.5483  -16.0721 C   0  0  2  0  0  0  0  0  0  0  0  0
   24.4814  -13.7431  -16.7816 N   0  0  0  0  0  0  0  0  0  0  0  0
   23.8148  -11.3901  -16.4633 C   0  0  0  0  0  0  0  0  0  0  0  0
   23.8904  -10.9703  -17.6659 O   0  0  0  0  0  0  0  0  0  0  0  0
   22.9640  -10.8109  -15.5306 N   0  0  0  0  0  0  0  0  0  0  0  0
   22.0611   -9.7230  -15.7300 C   0  0  1  0  0  0  0  0  0  0  0  0
   20.5955  -10.0261  -15.5252 C   0  0  0  0  0  0  0  0  0  0  0  0
   20.2212  -11.1825  -16.3641 C   0  0  0  0  0  0  0  0  0  0  0  0
   19.8735  -12.2540  -15.8056 O   0  0  0  0  0  0  0  0  0  0  0  0
   22.5501   -8.4846  -15.1831 C   0  0  0  0  0  0  0  0  0  0  0  0
   23.0072   -8.4789  -13.9996 O   0  0  0  0  0  0  0  0  0  0  0  0
   20.2391  -11.1315  -17.7562 O   0  0  0  0  0  0  0  0  0  0  0  0
   22.5472   -7.2533  -15.9095 N   0  0  0  0  0  0  0  0  0  0  0  0
   22.9899   -6.0216  -15.2927 C   0  0  1  0  0  0  0  0  0  0  0  0
   23.3713   -5.0351  -16.3647 C   0  0  0  0  0  0  0  0  0  0  0  0
   24.5577   -5.5695  -17.1258 C   0  0  0  0  0  0  0  0  0  0  0  0
   25.0350   -4.5763  -18.1326 C   0  0  0  0  0  0  0  0  0  0  0  0
   24.4391   -3.4814  -18.2277 O   0  0  0  0  0  0  0  0  0  0  0  0
   21.8465   -5.4556  -14.5055 C   0  0  0  0  0  0  0  0  0  0  0  0
   22.0052   -4.4337  -13.5943 O   0  0  0  0  0  0  0  0  0  0  0  0
   26.1100   -4.8294  -18.9583 O   0  0  0  0  0  0  0  0  0  0  0  0
   20.6692   -5.9105  -14.6571 O   0  0  0  0  0  0  0  0  0  0  0  0
  2  3  1  0
  2  1  1  0
  3  5  1  0
  3  4  1  1
  5  7  1  0
  5  6  1  6
  7  8  2  0
  9 10  1  0
  9  7  1  0
 10 11  1  1
 11 12  1  0
 12 13  2  0
 14 10  1  0
 14 15  2  0
 16 12  1  0
 17 14  1  0
 18 17  1  0
 18 23  1  0
 18 19  1  6
 20 19  1  0
 21 20  1  0
 21 22  2  0
 23 24  1  0
 25 21  1  0
 26 23  2  0
M  END
$$$$
