PNH.pdb
     RDKit          3D

 26 27  0  0  1  0  0  0  0  0999 V2000
   27.6796  -19.2779  -15.9803 N   0  0  0  0  0  0  0  0  0  0  0  0
   27.5560  -18.0898  -16.7562 C   0  0  0  0  0  0  0  0  0  0  0  0
   27.7865  -17.0077  -15.6896 C   0  0  0  0  0  0  0  0  0  0  0  0
   26.9222  -17.5330  -14.5697 C   0  0  0  0  0  0  0  0  0  0  0  0
   27.2028  -19.0417  -14.6705 C   0  0  1  0  0  0  0  0  0  0  0  0
   26.0430  -19.8203  -14.2336 C   0  0  0  0  0  0  0  0  0  0  0  0
   25.5864  -20.6686  -15.0719 O   0  0  0  0  0  0  0  0  0  0  0  0
   26.2988  -20.5150   -9.3978 N   0  0  0  0  0  0  0  0  0  0  0  0
   25.6630  -21.1436  -10.5169 C   0  0  0  0  0  0  0  0  0  0  0  0
   26.2519  -22.1210  -11.0747 O   0  0  0  0  0  0  0  0  0  0  0  0
   24.3620  -20.7270  -11.0607 C   0  0  0  0  0  0  0  0  0  0  0  0
   24.3852  -20.5746  -12.5709 C   0  0  2  0  0  0  0  0  0  0  0  0
   25.4499  -19.6574  -12.9602 N   0  0  0  0  0  0  0  0  0  0  0  0
   23.0628  -20.0723  -13.0436 C   0  0  0  0  0  0  0  0  0  0  0  0
   22.6688  -18.9097  -12.8440 O   0  0  0  0  0  0  0  0  0  0  0  0
   22.2078  -20.9697  -13.7588 N   0  0  0  0  0  0  0  0  0  0  0  0
   20.9124  -20.5491  -14.2904 C   0  0  1  0  0  0  0  0  0  0  0  0
   20.9345  -20.9269  -15.7710 C   0  0  0  0  0  0  0  0  0  0  0  0
   21.8223  -20.0483  -16.5677 C   0  0  0  0  0  0  0  0  0  0  0  0
   22.0666  -18.7018  -16.4472 C   0  0  0  0  0  0  0  0  0  0  0  0
   22.9449  -18.3715  -17.4009 N   0  0  0  0  0  0  0  0  0  0  0  0
   23.2802  -19.4378  -18.1315 C   0  0  0  0  0  0  0  0  0  0  0  0
   22.5893  -20.4656  -17.6165 N   0  0  0  0  0  0  0  0  0  0  0  0
   19.8119  -21.2450  -13.5794 C   0  0  0  0  0  0  0  0  0  0  0  0
   18.5038  -20.8812  -13.8006 O   0  0  0  0  0  0  0  0  0  0  0  0
   20.0517  -22.1726  -12.7687 O   0  0  0  0  0  0  0  0  0  0  0  0
  1  2  1  0
  3  2  1  0
  4  5  1  0
  4  3  1  0
  5  1  1  0
  5  6  1  6
  6  7  2  0
  8  9  1  0
  9 11  1  0
 10  9  2  0
 12 11  1  1
 12 14  1  0
 13  6  1  0
 13 12  1  0
 14 15  2  0
 16 14  1  0
 16 17  1  0
 17 24  1  0
 18 19  1  0
 17 18  1  6
 19 20  2  0
 19 23  1  0
 20 21  1  0
 21 22  1  0
 23 22  2  0
 24 25  1  0
 26 24  2  0
M  END
$$$$
