PNH.pdb
     RDKit          3D

 26 27  0  0  1  0  0  0  0  0999 V2000
   25.1956   -9.6602  -17.0307 N   0  0  0  0  0  0  0  0  0  0  0  0
   26.5644   -9.2733  -16.9557 C   0  0  0  0  0  0  0  0  0  0  0  0
   27.0091   -9.9858  -15.6687 C   0  0  0  0  0  0  0  0  0  0  0  0
   25.8534   -9.6569  -14.7558 C   0  0  0  0  0  0  0  0  0  0  0  0
   24.6686   -9.7975  -15.7261 C   0  0  1  0  0  0  0  0  0  0  0  0
   23.5755   -8.8993  -15.3515 C   0  0  0  0  0  0  0  0  0  0  0  0
   23.1748   -8.9744  -14.1412 O   0  0  0  0  0  0  0  0  0  0  0  0
   23.3773   -5.5830  -13.8971 N   0  0  0  0  0  0  0  0  0  0  0  0
   22.9587   -4.9880  -15.1310 C   0  0  0  0  0  0  0  0  0  0  0  0
   23.2764   -3.7790  -15.3562 O   0  0  0  0  0  0  0  0  0  0  0  0
   22.1822   -5.6952  -16.1599 C   0  0  0  0  0  0  0  0  0  0  0  0
   21.9030   -7.1400  -15.7869 C   0  0  2  0  0  0  0  0  0  0  0  0
   22.9858   -7.9929  -16.2628 N   0  0  0  0  0  0  0  0  0  0  0  0
   20.6019   -7.5670  -16.3779 C   0  0  0  0  0  0  0  0  0  0  0  0
   20.4413   -7.7584  -17.5961 O   0  0  0  0  0  0  0  0  0  0  0  0
   19.4870   -7.7648  -15.5027 N   0  0  0  0  0  0  0  0  0  0  0  0
   18.1732   -8.1706  -15.9995 C   0  0  1  0  0  0  0  0  0  0  0  0
   17.7558   -9.3579  -15.1325 C   0  0  0  0  0  0  0  0  0  0  0  0
   18.3744  -10.6292  -15.5751 C   0  0  0  0  0  0  0  0  0  0  0  0
   19.1852  -10.8845  -16.6544 C   0  0  0  0  0  0  0  0  0  0  0  0
   19.4848  -12.1882  -16.6252 N   0  0  0  0  0  0  0  0  0  0  0  0
   18.9079  -12.7876  -15.5807 C   0  0  0  0  0  0  0  0  0  0  0  0
   18.2274  -11.8270  -14.9380 N   0  0  0  0  0  0  0  0  0  0  0  0
   17.2057   -7.0530  -15.8739 C   0  0  0  0  0  0  0  0  0  0  0  0
   17.5767   -5.8803  -15.2577 O   0  0  0  0  0  0  0  0  0  0  0  0
   16.0389   -7.1552  -16.3247 O   0  0  0  0  0  0  0  0  0  0  0  0
  1  2  1  0
  3  2  1  0
  4  5  1  0
  4  3  1  0
  5  1  1  0
  5  6  1  1
  6  7  2  0
  8  9  1  0
  9 11  1  0
 10  9  2  0
 12 11  1  6
 12 14  1  0
 13  6  1  0
 13 12  1  0
 14 15  2  0
 16 14  1  0
 16 17  1  0
 17 24  1  0
 18 19  1  0
 17 18  1  1
 19 20  2  0
 19 23  1  0
 20 21  1  0
 21 22  1  0
 23 22  2  0
 24 25  1  0
 26 24  2  0
M  END
$$$$
