PNH.pdb
     RDKit          3D

 26 27  0  0  1  0  0  0  0  0999 V2000
   24.5117  -17.8329  -16.4271 N   0  0  0  0  0  0  0  0  0  0  0  0
   25.7076  -18.5777  -16.6372 C   0  0  0  0  0  0  0  0  0  0  0  0
   25.4981  -19.0862  -18.0722 C   0  0  0  0  0  0  0  0  0  0  0  0
   24.0639  -19.5492  -17.9961 C   0  0  0  0  0  0  0  0  0  0  0  0
   23.4458  -18.4371  -17.1324 C   0  0  1  0  0  0  0  0  0  0  0  0
   22.3284  -18.9504  -16.3387 C   0  0  0  0  0  0  0  0  0  0  0  0
   21.3546  -19.4515  -16.9957 O   0  0  0  0  0  0  0  0  0  0  0  0
   22.6378  -21.7961  -14.4037 N   0  0  0  0  0  0  0  0  0  0  0  0
   22.2993  -21.2627  -13.1181 C   0  0  0  0  0  0  0  0  0  0  0  0
   22.7017  -21.8803  -12.0838 O   0  0  0  0  0  0  0  0  0  0  0  0
   21.5130  -20.0360  -12.9210 C   0  0  0  0  0  0  0  0  0  0  0  0
   21.1197  -19.3806  -14.2325 C   0  0  2  0  0  0  0  0  0  0  0  0
   22.3111  -18.9042  -14.9254 N   0  0  0  0  0  0  0  0  0  0  0  0
   20.1823  -18.2515  -13.9664 C   0  0  0  0  0  0  0  0  0  0  0  0
   20.5223  -17.0573  -14.0377 O   0  0  0  0  0  0  0  0  0  0  0  0
   18.8298  -18.5564  -13.6118 N   0  0  0  0  0  0  0  0  0  0  0  0
   17.7626  -17.5605  -13.6950 C   0  0  1  0  0  0  0  0  0  0  0  0
   17.6884  -17.1612  -15.1682 C   0  0  0  0  0  0  0  0  0  0  0  0
   16.6479  -16.1391  -15.4275 C   0  0  0  0  0  0  0  0  0  0  0  0
   15.8225  -15.4806  -14.5484 C   0  0  0  0  0  0  0  0  0  0  0  0
   15.0562  -14.6532  -15.2684 N   0  0  0  0  0  0  0  0  0  0  0  0
   15.3455  -14.7445  -16.5688 C   0  0  0  0  0  0  0  0  0  0  0  0
   16.3237  -15.6573  -16.6625 N   0  0  0  0  0  0  0  0  0  0  0  0
   16.4773  -18.1413  -13.2350 C   0  0  0  0  0  0  0  0  0  0  0  0
   15.5341  -17.3451  -12.6277 O   0  0  0  0  0  0  0  0  0  0  0  0
   16.2277  -19.3615  -13.3906 O   0  0  0  0  0  0  0  0  0  0  0  0
  1  2  1  0
  3  2  1  0
  4  5  1  0
  4  3  1  0
  5  1  1  0
  5  6  1  1
  6  7  2  0
  8  9  1  0
  9 11  1  0
 10  9  2  0
 12 11  1  1
 12 14  1  0
 13  6  1  0
 13 12  1  0
 14 15  2  0
 16 14  1  0
 16 17  1  0
 17 24  1  0
 18 19  1  0
 17 18  1  6
 19 20  2  0
 19 23  1  0
 20 21  1  0
 21 22  1  0
 23 22  2  0
 24 25  1  0
 26 24  2  0
M  END
$$$$
