PNH.pdb
     RDKit          3D

 26 27  0  0  1  0  0  0  0  0999 V2000
   45.0646  -18.2054  -10.1143 N   0  0  0  0  0  0  0  0  0  0  0  0
   44.2534  -18.9328   -9.1968 C   0  0  0  0  0  0  0  0  0  0  0  0
   43.1257  -19.4263  -10.1169 C   0  0  0  0  0  0  0  0  0  0  0  0
   42.8282  -18.1662  -10.8919 C   0  0  0  0  0  0  0  0  0  0  0  0
   44.2481  -17.6159  -11.1064 C   0  0  1  0  0  0  0  0  0  0  0  0
   44.2378  -16.1541  -11.1781 C   0  0  0  0  0  0  0  0  0  0  0  0
   44.8338  -15.5398  -10.2302 O   0  0  0  0  0  0  0  0  0  0  0  0
   43.4616  -11.2280  -14.7025 N   0  0  0  0  0  0  0  0  0  0  0  0
   44.0631  -12.0053  -13.6605 C   0  0  0  0  0  0  0  0  0  0  0  0
   44.6731  -11.3953  -12.7283 O   0  0  0  0  0  0  0  0  0  0  0  0
   44.0150  -13.4737  -13.6015 C   0  0  0  0  0  0  0  0  0  0  0  0
   43.6735  -13.9888  -12.2150 C   0  0  2  0  0  0  0  0  0  0  0  0
   43.6106  -15.4456  -12.2291 N   0  0  0  0  0  0  0  0  0  0  0  0
   42.3702  -13.4129  -11.7740 C   0  0  0  0  0  0  0  0  0  0  0  0
   41.2851  -13.7065  -12.3058 O   0  0  0  0  0  0  0  0  0  0  0  0
   42.3688  -12.4789  -10.6897 N   0  0  0  0  0  0  0  0  0  0  0  0
   41.1329  -11.8962  -10.1695 C   0  0  1  0  0  0  0  0  0  0  0  0
   41.2842  -11.9044   -8.6488 C   0  0  0  0  0  0  0  0  0  0  0  0
   40.0817  -11.3861   -7.9560 C   0  0  0  0  0  0  0  0  0  0  0  0
   38.8908  -10.9393   -8.4753 C   0  0  0  0  0  0  0  0  0  0  0  0
   38.1205  -10.5750   -7.4437 N   0  0  0  0  0  0  0  0  0  0  0  0
   38.7547  -10.7642   -6.2839 C   0  0  0  0  0  0  0  0  0  0  0  0
   39.9583  -11.2629   -6.6025 N   0  0  0  0  0  0  0  0  0  0  0  0
   40.9587  -10.5142  -10.6801 C   0  0  0  0  0  0  0  0  0  0  0  0
   39.6984   -9.9835  -10.8293 O   0  0  0  0  0  0  0  0  0  0  0  0
   41.9510   -9.8078  -10.9829 O   0  0  0  0  0  0  0  0  0  0  0  0
  1  2  1  0
  3  2  1  0
  4  5  1  0
  4  3  1  0
  5  1  1  0
  5  6  1  1
  6  7  2  0
  8  9  1  0
  9 11  1  0
 10  9  2  0
 12 11  1  6
 12 14  1  0
 13  6  1  0
 13 12  1  0
 14 15  2  0
 16 14  1  0
 16 17  1  0
 17 24  1  0
 18 19  1  0
 17 18  1  1
 19 20  2  0
 19 23  1  0
 20 21  1  0
 21 22  1  0
 23 22  2  0
 24 25  1  0
 26 24  2  0
M  END
$$$$
