PNH.pdb
     RDKit          3D

 26 27  0  0  1  0  0  0  0  0999 V2000
   25.6352   -9.4928  -17.1851 N   0  0  0  0  0  0  0  0  0  0  0  0
   26.9377   -8.9348  -17.0401 C   0  0  0  0  0  0  0  0  0  0  0  0
   27.4910   -9.7607  -15.8682 C   0  0  0  0  0  0  0  0  0  0  0  0
   26.3107   -9.7343  -14.9283 C   0  0  0  0  0  0  0  0  0  0  0  0
   25.1466   -9.8934  -15.9205 C   0  0  1  0  0  0  0  0  0  0  0  0
   23.9433   -9.2212  -15.4281 C   0  0  0  0  0  0  0  0  0  0  0  0
   23.5559   -9.5478  -14.2559 O   0  0  0  0  0  0  0  0  0  0  0  0
   23.9931   -4.7442  -15.1078 N   0  0  0  0  0  0  0  0  0  0  0  0
   22.8614   -5.5572  -14.7760 C   0  0  0  0  0  0  0  0  0  0  0  0
   22.5805   -5.7285  -13.5492 O   0  0  0  0  0  0  0  0  0  0  0  0
   21.9984   -6.2068  -15.7735 C   0  0  0  0  0  0  0  0  0  0  0  0
   21.9994   -7.7194  -15.6462 C   0  0  2  0  0  0  0  0  0  0  0  0
   23.2382   -8.2619  -16.1913 N   0  0  0  0  0  0  0  0  0  0  0  0
   20.8202   -8.2829  -16.3649 C   0  0  0  0  0  0  0  0  0  0  0  0
   20.6746   -8.2000  -17.5972 O   0  0  0  0  0  0  0  0  0  0  0  0
   19.8097   -8.9490  -15.6011 N   0  0  0  0  0  0  0  0  0  0  0  0
   18.6114   -9.5105  -16.2226 C   0  0  1  0  0  0  0  0  0  0  0  0
   18.1801  -10.6621  -15.3153 C   0  0  0  0  0  0  0  0  0  0  0  0
   16.8928  -11.2634  -15.7343 C   0  0  0  0  0  0  0  0  0  0  0  0
   16.2519  -11.2135  -16.9486 C   0  0  0  0  0  0  0  0  0  0  0  0
   15.1182  -11.9136  -16.8273 N   0  0  0  0  0  0  0  0  0  0  0  0
   14.9949  -12.4133  -15.5952 C   0  0  0  0  0  0  0  0  0  0  0  0
   16.0867  -12.0125  -14.9272 N   0  0  0  0  0  0  0  0  0  0  0  0
   17.5480   -8.4803  -16.3179 C   0  0  0  0  0  0  0  0  0  0  0  0
   16.7339   -8.4240  -17.4253 O   0  0  0  0  0  0  0  0  0  0  0  0
   17.3719   -7.6470  -15.3960 O   0  0  0  0  0  0  0  0  0  0  0  0
  1  2  1  0
  3  2  1  0
  4  5  1  0
  4  3  1  0
  5  1  1  0
  5  6  1  1
  6  7  2  0
  8  9  1  0
  9 11  1  0
 10  9  2  0
 12 11  1  6
 12 14  1  0
 13  6  1  0
 13 12  1  0
 14 15  2  0
 16 14  1  0
 16 17  1  0
 17 24  1  0
 18 19  1  0
 17 18  1  1
 19 20  2  0
 19 23  1  0
 20 21  1  0
 21 22  1  0
 23 22  2  0
 24 25  1  0
 26 24  2  0
M  END
$$$$
