PNH.pdb
     RDKit          3D

 26 27  0  0  1  0  0  0  0  0999 V2000
   19.7328  -11.7733    8.8651 N   0  0  0  0  0  0  0  0  0  0  0  0
   20.1741  -10.4247    8.7409 C   0  0  0  0  0  0  0  0  0  0  0  0
   20.5756  -10.3740    7.2583 C   0  0  0  0  0  0  0  0  0  0  0  0
   21.3463  -11.6655    7.1351 C   0  0  0  0  0  0  0  0  0  0  0  0
   20.4847  -12.6007    7.9999 C   0  0  1  0  0  0  0  0  0  0  0  0
   21.3041  -13.6427    8.6204 C   0  0  0  0  0  0  0  0  0  0  0  0
   21.8786  -14.4571    7.8219 O   0  0  0  0  0  0  0  0  0  0  0  0
   23.9374  -12.3095   12.8153 N   0  0  0  0  0  0  0  0  0  0  0  0
   23.8288  -13.3460   11.8326 C   0  0  0  0  0  0  0  0  0  0  0  0
   24.6232  -13.3235   10.8418 O   0  0  0  0  0  0  0  0  0  0  0  0
   22.8512  -14.4420   11.9020 C   0  0  0  0  0  0  0  0  0  0  0  0
   22.3098  -14.8254   10.5366 C   0  0  2  0  0  0  0  0  0  0  0  0
   21.4631  -13.7559   10.0210 N   0  0  0  0  0  0  0  0  0  0  0  0
   21.5391  -16.0979   10.6431 C   0  0  0  0  0  0  0  0  0  0  0  0
   20.3437  -16.1396   10.9836 O   0  0  0  0  0  0  0  0  0  0  0  0
   22.2063  -17.3272   10.3402 N   0  0  0  0  0  0  0  0  0  0  0  0
   21.5358  -18.6216   10.4519 C   0  0  1  0  0  0  0  0  0  0  0  0
   21.4744  -19.1757    9.0289 C   0  0  0  0  0  0  0  0  0  0  0  0
   20.1908  -18.8697    8.3556 C   0  0  0  0  0  0  0  0  0  0  0  0
   19.0804  -18.2163    8.8328 C   0  0  0  0  0  0  0  0  0  0  0  0
   18.1799  -18.1910    7.8435 N   0  0  0  0  0  0  0  0  0  0  0  0
   18.6535  -18.7955    6.7511 C   0  0  0  0  0  0  0  0  0  0  0  0
   19.8886  -19.2103    7.0691 N   0  0  0  0  0  0  0  0  0  0  0  0
   22.3037  -19.5257   11.3429 C   0  0  0  0  0  0  0  0  0  0  0  0
   23.4991  -19.1143   11.8852 O   0  0  0  0  0  0  0  0  0  0  0  0
   21.8799  -20.6748   11.6174 O   0  0  0  0  0  0  0  0  0  0  0  0
  1  2  1  0
  3  2  1  0
  4  5  1  0
  4  3  1  0
  5  1  1  0
  5  6  1  1
  6  7  2  0
  8  9  1  0
  9 11  1  0
 10  9  2  0
 12 11  1  1
 12 14  1  0
 13  6  1  0
 13 12  1  0
 14 15  2  0
 16 14  1  0
 16 17  1  0
 17 24  1  0
 18 19  1  0
 17 18  1  6
 19 20  2  0
 19 23  1  0
 20 21  1  0
 21 22  1  0
 23 22  2  0
 24 25  1  0
 26 24  2  0
M  END
$$$$
