PNH.pdb
     RDKit          3D

 26 27  0  0  1  0  0  0  0  0999 V2000
   31.5101  -28.6813  -19.5900 N   0  0  0  0  0  0  0  0  0  0  0  0
   32.5956  -29.3967  -19.0079 C   0  0  0  0  0  0  0  0  0  0  0  0
   32.3918  -30.7961  -19.6094 C   0  0  0  0  0  0  0  0  0  0  0  0
   30.9038  -30.9644  -19.4229 C   0  0  0  0  0  0  0  0  0  0  0  0
   30.4074  -29.5489  -19.7622 C   0  0  1  0  0  0  0  0  0  0  0  0
   29.1870  -29.2301  -19.0198 C   0  0  0  0  0  0  0  0  0  0  0  0
   28.1458  -28.9972  -19.7217 O   0  0  0  0  0  0  0  0  0  0  0  0
   28.2968  -32.0835  -15.2588 N   0  0  0  0  0  0  0  0  0  0  0  0
   27.5550  -31.0667  -15.9426 C   0  0  0  0  0  0  0  0  0  0  0  0
   26.7088  -31.4241  -16.8198 O   0  0  0  0  0  0  0  0  0  0  0  0
   27.7113  -29.6270  -15.6881 C   0  0  0  0  0  0  0  0  0  0  0  0
   27.8828  -28.8261  -16.9661 C   0  0  2  0  0  0  0  0  0  0  0  0
   29.1439  -29.1796  -17.6072 N   0  0  0  0  0  0  0  0  0  0  0  0
   27.8458  -27.3685  -16.6520 C   0  0  0  0  0  0  0  0  0  0  0  0
   28.7468  -26.7883  -16.0210 O   0  0  0  0  0  0  0  0  0  0  0  0
   26.7215  -26.6028  -17.0966 N   0  0  0  0  0  0  0  0  0  0  0  0
   26.6426  -25.1559  -16.9023 C   0  0  1  0  0  0  0  0  0  0  0  0
   27.8747  -24.5807  -17.5997 C   0  0  0  0  0  0  0  0  0  0  0  0
   27.8973  -23.0996  -17.5821 C   0  0  0  0  0  0  0  0  0  0  0  0
   27.5206  -22.2253  -16.5915 C   0  0  0  0  0  0  0  0  0  0  0  0
   27.7298  -20.9876  -17.0548 N   0  0  0  0  0  0  0  0  0  0  0  0
   28.2229  -21.0190  -18.2953 C   0  0  0  0  0  0  0  0  0  0  0  0
   28.3249  -22.3174  -18.6154 N   0  0  0  0  0  0  0  0  0  0  0  0
   25.3942  -24.6219  -17.5001 C   0  0  0  0  0  0  0  0  0  0  0  0
   25.0879  -23.2855  -17.3883 O   0  0  0  0  0  0  0  0  0  0  0  0
   24.5997  -25.3740  -18.1153 O   0  0  0  0  0  0  0  0  0  0  0  0
  1  2  1  0
  3  2  1  0
  4  5  1  0
  4  3  1  0
  5  1  1  0
  5  6  1  1
  6  7  2  0
  8  9  1  0
  9 11  1  0
 10  9  2  0
 12 11  1  1
 12 14  1  0
 13  6  1  0
 13 12  1  0
 14 15  2  0
 16 14  1  0
 16 17  1  0
 17 24  1  0
 18 19  1  0
 17 18  1  6
 19 20  2  0
 19 23  1  0
 20 21  1  0
 21 22  1  0
 23 22  2  0
 24 25  1  0
 26 24  2  0
M  END
$$$$
