PNH.pdb
     RDKit          3D

 26 27  0  0  1  0  0  0  0  0999 V2000
   18.8323  -12.5449  -16.2987 N   0  0  0  0  0  0  0  0  0  0  0  0
   17.8874  -13.6107  -16.3135 C   0  0  0  0  0  0  0  0  0  0  0  0
   16.6986  -12.9499  -17.0290 C   0  0  0  0  0  0  0  0  0  0  0  0
   16.6530  -11.6186  -16.3201 C   0  0  0  0  0  0  0  0  0  0  0  0
   18.1537  -11.3099  -16.1865 C   0  0  1  0  0  0  0  0  0  0  0  0
   18.4193  -10.5105  -14.9896 C   0  0  0  0  0  0  0  0  0  0  0  0
   18.4065  -11.1395  -13.8783 O   0  0  0  0  0  0  0  0  0  0  0  0
   21.6884   -9.1377  -14.2041 N   0  0  0  0  0  0  0  0  0  0  0  0
   21.3120   -7.7558  -14.1864 C   0  0  0  0  0  0  0  0  0  0  0  0
   22.2243   -6.8805  -14.3084 O   0  0  0  0  0  0  0  0  0  0  0  0
   19.9269   -7.2855  -14.0379 C   0  0  0  0  0  0  0  0  0  0  0  0
   18.9506   -8.4215  -13.7914 C   0  0  2  0  0  0  0  0  0  0  0  0
   18.6785   -9.1212  -15.0415 N   0  0  0  0  0  0  0  0  0  0  0  0
   17.6888   -7.8795  -13.2095 C   0  0  0  0  0  0  0  0  0  0  0  0
   16.8119   -7.3224  -13.8931 O   0  0  0  0  0  0  0  0  0  0  0  0
   17.4779   -8.0058  -11.7997 N   0  0  0  0  0  0  0  0  0  0  0  0
   16.2835   -7.4764  -11.1434 C   0  0  1  0  0  0  0  0  0  0  0  0
   16.3125   -8.0395   -9.7230 C   0  0  0  0  0  0  0  0  0  0  0  0
   15.1876   -7.5473   -8.8942 C   0  0  0  0  0  0  0  0  0  0  0  0
   13.9120   -7.1939   -9.2623 C   0  0  0  0  0  0  0  0  0  0  0  0
   13.2701   -6.8135   -8.1516 N   0  0  0  0  0  0  0  0  0  0  0  0
   14.0677   -6.9037   -7.0844 C   0  0  0  0  0  0  0  0  0  0  0  0
   15.2439   -7.3552   -7.5443 N   0  0  0  0  0  0  0  0  0  0  0  0
   16.3165   -5.9932  -11.1293 C   0  0  0  0  0  0  0  0  0  0  0  0
   17.4970   -5.3278  -10.8925 O   0  0  0  0  0  0  0  0  0  0  0  0
   15.2755   -5.3223  -11.3323 O   0  0  0  0  0  0  0  0  0  0  0  0
  1  2  1  0
  3  2  1  0
  4  5  1  0
  4  3  1  0
  5  1  1  0
  5  6  1  1
  6  7  2  0
  8  9  1  0
  9 11  1  0
 10  9  2  0
 12 11  1  6
 12 14  1  0
 13  6  1  0
 13 12  1  0
 14 15  2  0
 16 14  1  0
 16 17  1  0
 17 24  1  0
 18 19  1  0
 17 18  1  1
 19 20  2  0
 19 23  1  0
 20 21  1  0
 21 22  1  0
 23 22  2  0
 24 25  1  0
 26 24  2  0
M  END
$$$$
