PNH.pdb
     RDKit          3D

 26 27  0  0  1  0  0  0  0  0999 V2000
   19.7948  -12.2058  -17.4513 N   0  0  0  0  0  0  0  0  0  0  0  0
   20.1376  -13.5589  -17.1672 C   0  0  0  0  0  0  0  0  0  0  0  0
   19.2185  -13.8584  -15.9725 C   0  0  0  0  0  0  0  0  0  0  0  0
   19.4186  -12.6102  -15.1485 C   0  0  0  0  0  0  0  0  0  0  0  0
   19.4594  -11.5387  -16.2509 C   0  0  1  0  0  0  0  0  0  0  0  0
   20.3068  -10.4128  -15.8556 C   0  0  0  0  0  0  0  0  0  0  0  0
   19.9521   -9.7840  -14.8021 O   0  0  0  0  0  0  0  0  0  0  0  0
   23.9923   -6.7831  -15.3193 N   0  0  0  0  0  0  0  0  0  0  0  0
   24.4896   -7.8704  -16.1080 C   0  0  0  0  0  0  0  0  0  0  0  0
   25.7127   -7.8574  -16.4503 O   0  0  0  0  0  0  0  0  0  0  0  0
   23.6679   -9.0085  -16.5456 C   0  0  0  0  0  0  0  0  0  0  0  0
   22.2169   -8.8754  -16.1200 C   0  0  2  0  0  0  0  0  0  0  0  0
   21.4562  -10.0295  -16.5847 N   0  0  0  0  0  0  0  0  0  0  0  0
   21.6461   -7.6143  -16.6753 C   0  0  0  0  0  0  0  0  0  0  0  0
   21.6362   -7.3527  -17.8911 O   0  0  0  0  0  0  0  0  0  0  0  0
   21.0849   -6.6612  -15.7671 N   0  0  0  0  0  0  0  0  0  0  0  0
   20.5031   -5.4011  -16.2265 C   0  0  1  0  0  0  0  0  0  0  0  0
   19.1234   -5.3244  -15.5737 C   0  0  0  0  0  0  0  0  0  0  0  0
   18.4075   -4.0706  -15.9054 C   0  0  0  0  0  0  0  0  0  0  0  0
   18.6561   -3.1504  -16.8948 C   0  0  0  0  0  0  0  0  0  0  0  0
   17.7304   -2.1906  -16.7850 N   0  0  0  0  0  0  0  0  0  0  0  0
   16.8962   -2.4450  -15.7738 C   0  0  0  0  0  0  0  0  0  0  0  0
   17.3148   -3.6005  -15.2365 N   0  0  0  0  0  0  0  0  0  0  0  0
   21.3531   -4.2582  -15.8116 C   0  0  0  0  0  0  0  0  0  0  0  0
   21.2150   -3.0333  -16.4223 O   0  0  0  0  0  0  0  0  0  0  0  0
   22.2079   -4.3861  -14.9015 O   0  0  0  0  0  0  0  0  0  0  0  0
  1  2  1  0
  3  2  1  0
  4  5  1  0
  4  3  1  0
  5  1  1  0
  5  6  1  1
  6  7  2  0
  8  9  1  0
  9 11  1  0
 10  9  2  0
 12 11  1  6
 12 14  1  0
 13  6  1  0
 13 12  1  0
 14 15  2  0
 16 14  1  0
 16 17  1  0
 17 24  1  0
 18 19  1  0
 17 18  1  1
 19 20  2  0
 19 23  1  0
 20 21  1  0
 21 22  1  0
 23 22  2  0
 24 25  1  0
 26 24  2  0
M  END
$$$$
