PNH.pdb
     RDKit          3D

 26 27  0  0  1  0  0  0  0  0999 V2000
   37.2103  -35.9579  -10.0017 N   0  0  0  0  0  0  0  0  0  0  0  0
   36.3611  -35.8080   -8.8680 C   0  0  0  0  0  0  0  0  0  0  0  0
   35.8370  -37.2419   -8.6919 C   0  0  0  0  0  0  0  0  0  0  0  0
   35.5003  -37.5918  -10.1207 C   0  0  0  0  0  0  0  0  0  0  0  0
   36.6823  -36.9465  -10.8633 C   0  0  1  0  0  0  0  0  0  0  0  0
   36.2862  -36.5174  -12.2053 C   0  0  0  0  0  0  0  0  0  0  0  0
   36.3865  -37.3937  -13.1290 O   0  0  0  0  0  0  0  0  0  0  0  0
   33.4026  -35.3945  -16.0136 N   0  0  0  0  0  0  0  0  0  0  0  0
   32.9448  -35.9197  -14.7621 C   0  0  0  0  0  0  0  0  0  0  0  0
   31.8535  -36.5693  -14.7435 O   0  0  0  0  0  0  0  0  0  0  0  0
   33.6658  -35.7552  -13.4913 C   0  0  0  0  0  0  0  0  0  0  0  0
   34.9800  -35.0145  -13.6603 C   0  0  2  0  0  0  0  0  0  0  0  0
   35.8158  -35.2128  -12.4820 N   0  0  0  0  0  0  0  0  0  0  0  0
   34.7124  -33.5628  -13.8740 C   0  0  0  0  0  0  0  0  0  0  0  0
   34.5319  -32.7623  -12.9395 O   0  0  0  0  0  0  0  0  0  0  0  0
   34.6603  -33.0687  -15.2161 N   0  0  0  0  0  0  0  0  0  0  0  0
   34.8020  -31.6468  -15.5253 C   0  0  1  0  0  0  0  0  0  0  0  0
   36.2003  -31.2602  -15.0451 C   0  0  0  0  0  0  0  0  0  0  0  0
   36.5545  -29.8646  -15.3938 C   0  0  0  0  0  0  0  0  0  0  0  0
   36.1095  -28.6824  -14.8536 C   0  0  0  0  0  0  0  0  0  0  0  0
   36.7245  -27.6910  -15.5087 N   0  0  0  0  0  0  0  0  0  0  0  0
   37.5448  -28.1741  -16.4452 C   0  0  0  0  0  0  0  0  0  0  0  0
   37.4381  -29.5090  -16.3712 N   0  0  0  0  0  0  0  0  0  0  0  0
   34.6577  -31.4188  -16.9842 C   0  0  0  0  0  0  0  0  0  0  0  0
   34.1152  -30.2445  -17.4524 O   0  0  0  0  0  0  0  0  0  0  0  0
   35.0256  -32.2865  -17.8129 O   0  0  0  0  0  0  0  0  0  0  0  0
  1  2  1  0
  3  2  1  0
  4  5  1  0
  4  3  1  0
  5  1  1  0
  5  6  1  6
  6  7  2  0
  8  9  1  0
  9 11  1  0
 10  9  2  0
 12 11  1  1
 12 14  1  0
 13  6  1  0
 13 12  1  0
 14 15  2  0
 16 14  1  0
 16 17  1  0
 17 24  1  0
 18 19  1  0
 17 18  1  6
 19 20  2  0
 19 23  1  0
 20 21  1  0
 21 22  1  0
 23 22  2  0
 24 25  1  0
 26 24  2  0
M  END
$$$$
