PNH.pdb
     RDKit          3D

 26 27  0  0  1  0  0  0  0  0999 V2000
   21.2027  -13.1540  -17.5064 N   0  0  0  0  0  0  0  0  0  0  0  0
   20.8575  -14.5165  -17.7377 C   0  0  0  0  0  0  0  0  0  0  0  0
   20.6103  -14.5118  -19.2544 C   0  0  0  0  0  0  0  0  0  0  0  0
   19.7799  -13.2598  -19.3965 C   0  0  0  0  0  0  0  0  0  0  0  0
   20.4930  -12.3251  -18.4052 C   0  0  1  0  0  0  0  0  0  0  0  0
   19.5548  -11.3634  -17.8248 C   0  0  0  0  0  0  0  0  0  0  0  0
   19.2946  -10.3331  -18.5332 O   0  0  0  0  0  0  0  0  0  0  0  0
   15.9313  -12.0103  -17.1013 N   0  0  0  0  0  0  0  0  0  0  0  0
   16.0438  -11.8371  -15.6839 C   0  0  0  0  0  0  0  0  0  0  0  0
   15.1686  -12.3777  -14.9388 O   0  0  0  0  0  0  0  0  0  0  0  0
   17.1173  -11.0705  -15.0345 C   0  0  0  0  0  0  0  0  0  0  0  0
   18.1029  -10.4903  -16.0327 C   0  0  2  0  0  0  0  0  0  0  0  0
   18.9599  -11.5481  -16.5552 N   0  0  0  0  0  0  0  0  0  0  0  0
   18.9207   -9.4327  -15.3715 C   0  0  0  0  0  0  0  0  0  0  0  0
   19.9412   -9.6824  -14.7060 O   0  0  0  0  0  0  0  0  0  0  0  0
   18.5117   -8.0682  -15.5086 N   0  0  0  0  0  0  0  0  0  0  0  0
   19.3732   -6.9563  -15.1098 C   0  0  1  0  0  0  0  0  0  0  0  0
   20.6664   -7.1340  -15.9044 C   0  0  0  0  0  0  0  0  0  0  0  0
   21.6324   -6.0357  -15.6696 C   0  0  0  0  0  0  0  0  0  0  0  0
   21.5652   -4.9758  -14.7980 C   0  0  0  0  0  0  0  0  0  0  0  0
   22.6833   -4.2588  -14.9592 N   0  0  0  0  0  0  0  0  0  0  0  0
   23.4694   -4.8029  -15.8915 C   0  0  0  0  0  0  0  0  0  0  0  0
   22.8210   -5.8940  -16.3249 N   0  0  0  0  0  0  0  0  0  0  0  0
   18.7253   -5.6605  -15.4295 C   0  0  0  0  0  0  0  0  0  0  0  0
   18.9321   -4.5642  -14.6248 O   0  0  0  0  0  0  0  0  0  0  0  0
   17.9818   -5.5408  -16.4336 O   0  0  0  0  0  0  0  0  0  0  0  0
  1  2  1  0
  3  2  1  0
  4  5  1  0
  4  3  1  0
  5  1  1  0
  5  6  1  1
  6  7  2  0
  8  9  1  0
  9 11  1  0
 10  9  2  0
 12 11  1  1
 12 14  1  0
 13  6  1  0
 13 12  1  0
 14 15  2  0
 16 14  1  0
 16 17  1  0
 17 24  1  0
 18 19  1  0
 17 18  1  6
 19 20  2  0
 19 23  1  0
 20 21  1  0
 21 22  1  0
 23 22  2  0
 24 25  1  0
 26 24  2  0
M  END
$$$$
