PNH.pdb
     RDKit          3D

 26 27  0  0  1  0  0  0  0  0999 V2000
   14.6230  -24.7762   -0.2278 N   0  0  0  0  0  0  0  0  0  0  0  0
   14.4488  -25.5559   -1.4070 C   0  0  0  0  0  0  0  0  0  0  0  0
   12.9524  -25.3476   -1.6881 C   0  0  0  0  0  0  0  0  0  0  0  0
   12.3812  -25.5354   -0.3040 C   0  0  0  0  0  0  0  0  0  0  0  0
   13.4412  -24.8161    0.5469 C   0  0  1  0  0  0  0  0  0  0  0  0
   13.5380  -25.4150    1.8789 C   0  0  0  0  0  0  0  0  0  0  0  0
   12.4975  -25.3240    2.6139 O   0  0  0  0  0  0  0  0  0  0  0  0
   12.8584  -28.7854    3.4697 N   0  0  0  0  0  0  0  0  0  0  0  0
   14.2617  -29.0563    3.5645 C   0  0  0  0  0  0  0  0  0  0  0  0
   14.6450  -30.2671    3.5471 O   0  0  0  0  0  0  0  0  0  0  0  0
   15.2918  -28.0133    3.6784 C   0  0  0  0  0  0  0  0  0  0  0  0
   14.7034  -26.6141    3.6916 C   0  0  2  0  0  0  0  0  0  0  0  0
   14.7070  -26.0621    2.3419 N   0  0  0  0  0  0  0  0  0  0  0  0
   15.4931  -25.7477    4.6136 C   0  0  0  0  0  0  0  0  0  0  0  0
   15.6911  -26.0326    5.8078 O   0  0  0  0  0  0  0  0  0  0  0  0
   16.0478  -24.5323    4.1005 N   0  0  0  0  0  0  0  0  0  0  0  0
   16.8462  -23.6324    4.9313 C   0  0  1  0  0  0  0  0  0  0  0  0
   17.4423  -22.6062    3.9684 C   0  0  0  0  0  0  0  0  0  0  0  0
   16.4151  -21.7137    3.3828 C   0  0  0  0  0  0  0  0  0  0  0  0
   15.0586  -21.6735    3.5970 C   0  0  0  0  0  0  0  0  0  0  0  0
   14.5662  -20.6903    2.8347 N   0  0  0  0  0  0  0  0  0  0  0  0
   15.5371  -20.0934    2.1389 C   0  0  0  0  0  0  0  0  0  0  0  0
   16.6710  -20.7242    2.4786 N   0  0  0  0  0  0  0  0  0  0  0  0
   15.9907  -22.9740    5.9490 C   0  0  0  0  0  0  0  0  0  0  0  0
   16.5486  -22.1382    6.8884 O   0  0  0  0  0  0  0  0  0  0  0  0
   14.7505  -23.1653    5.9715 O   0  0  0  0  0  0  0  0  0  0  0  0
  1  2  1  0
  3  2  1  0
  4  5  1  0
  4  3  1  0
  5  1  1  0
  5  6  1  1
  6  7  2  0
  8  9  1  0
  9 11  1  0
 10  9  2  0
 12 11  1  6
 12 14  1  0
 13  6  1  0
 13 12  1  0
 14 15  2  0
 16 14  1  0
 16 17  1  0
 17 24  1  0
 18 19  1  0
 17 18  1  6
 19 20  2  0
 19 23  1  0
 20 21  1  0
 21 22  1  0
 23 22  2  0
 24 25  1  0
 26 24  2  0
M  END
$$$$
