PNH.pdb
     RDKit          3D

 26 27  0  0  1  0  0  0  0  0999 V2000
   15.4846  -23.3859   -0.8593 N   0  0  0  0  0  0  0  0  0  0  0  0
   14.5789  -24.4218   -1.2273 C   0  0  0  0  0  0  0  0  0  0  0  0
   13.5105  -23.6291   -1.9967 C   0  0  0  0  0  0  0  0  0  0  0  0
   13.3189  -22.4519   -1.0723 C   0  0  0  0  0  0  0  0  0  0  0  0
   14.7696  -22.1869   -0.6361 C   0  0  1  0  0  0  0  0  0  0  0  0
   14.8160  -21.6256    0.7148 C   0  0  0  0  0  0  0  0  0  0  0  0
   14.2212  -20.5077    0.8806 O   0  0  0  0  0  0  0  0  0  0  0  0
   15.3249  -25.1863    3.9520 N   0  0  0  0  0  0  0  0  0  0  0  0
   14.8903  -23.8407    4.1810 C   0  0  0  0  0  0  0  0  0  0  0  0
   13.6582  -23.6357    4.4114 O   0  0  0  0  0  0  0  0  0  0  0  0
   15.7880  -22.6763    4.1688 C   0  0  0  0  0  0  0  0  0  0  0  0
   15.4058  -21.6588    3.1091 C   0  0  2  0  0  0  0  0  0  0  0  0
   15.4754  -22.2700    1.7870 N   0  0  0  0  0  0  0  0  0  0  0  0
   16.3201  -20.4833    3.1911 C   0  0  0  0  0  0  0  0  0  0  0  0
   17.2342  -20.2775    2.3734 O   0  0  0  0  0  0  0  0  0  0  0  0
   16.1375  -19.5499    4.2605 N   0  0  0  0  0  0  0  0  0  0  0  0
   16.8571  -18.2783    4.3116 C   0  0  1  0  0  0  0  0  0  0  0  0
   16.3361  -17.4645    3.1277 C   0  0  0  0  0  0  0  0  0  0  0  0
   16.9591  -16.1231    3.0429 C   0  0  0  0  0  0  0  0  0  0  0  0
   18.2863  -15.7683    3.0307 C   0  0  0  0  0  0  0  0  0  0  0  0
   18.3390  -14.4343    2.9412 N   0  0  0  0  0  0  0  0  0  0  0  0
   17.1118  -13.9099    2.8949 C   0  0  0  0  0  0  0  0  0  0  0  0
   16.2672  -14.9499    2.9569 N   0  0  0  0  0  0  0  0  0  0  0  0
   16.5881  -17.5840    5.5949 C   0  0  0  0  0  0  0  0  0  0  0  0
   17.3707  -16.5227    5.9867 O   0  0  0  0  0  0  0  0  0  0  0  0
   15.6477  -17.9488    6.3417 O   0  0  0  0  0  0  0  0  0  0  0  0
  1  2  1  0
  3  2  1  0
  4  5  1  0
  4  3  1  0
  5  1  1  0
  5  6  1  1
  6  7  2  0
  8  9  1  0
  9 11  1  0
 10  9  2  0
 12 11  1  1
 12 14  1  0
 13  6  1  0
 13 12  1  0
 14 15  2  0
 16 14  1  0
 16 17  1  0
 17 24  1  0
 18 19  1  0
 17 18  1  6
 19 20  2  0
 19 23  1  0
 20 21  1  0
 21 22  1  0
 23 22  2  0
 24 25  1  0
 26 24  2  0
M  END
$$$$
