SSV.pdb
     RDKit          3D

 20 19  0  0  1  0  0  0  0  0999 V2000
   11.5823  -13.4054   18.8376 O   0  0  0  0  0  0  0  0  0  0  0  0
   10.4207  -13.2257   19.5609 C   0  0  0  0  0  0  0  0  0  0  0  0
    9.6170  -14.5050   19.4869 C   0  0  2  0  0  0  0  0  0  0  0  0
    8.8196  -14.5375   18.2503 N   0  0  0  0  0  0  0  0  0  0  0  0
    8.6509  -14.6260   20.6028 C   0  0  0  0  0  0  0  0  0  0  0  0
    7.4748  -14.1229   20.5460 O   0  0  0  0  0  0  0  0  0  0  0  0
    8.9542  -17.4995   23.5344 O   0  0  0  0  0  0  0  0  0  0  0  0
    7.7617  -16.8838   23.1744 C   0  0  0  0  0  0  0  0  0  0  0  0
    7.9422  -15.4130   22.8889 C   0  0  2  0  0  0  0  0  0  0  0  0
    8.9251  -15.3012   21.8289 N   0  0  0  0  0  0  0  0  0  0  0  0
    8.4475  -14.7546   24.1303 C   0  0  0  0  0  0  0  0  0  0  0  0
    9.6839  -14.6187   24.3272 O   0  0  0  0  0  0  0  0  0  0  0  0
    7.0257  -11.4631   25.9550 C   0  0  0  0  0  0  0  0  0  0  0  0
    7.2082  -12.6121   26.9267 C   0  0  1  0  0  0  0  0  0  0  0  0
    5.8606  -13.2662   27.1304 C   0  0  0  0  0  0  0  0  0  0  0  0
    8.1352  -13.6604   26.3477 C   0  0  2  0  0  0  0  0  0  0  0  0
    7.5883  -14.2518   25.1439 N   0  0  0  0  0  0  0  0  0  0  0  0
    8.3717  -14.7561   27.3193 C   0  0  0  0  0  0  0  0  0  0  0  0
    9.2166  -14.5850   28.4139 O   0  0  0  0  0  0  0  0  0  0  0  0
    7.8185  -15.8746   27.1881 O   0  0  0  0  0  0  0  0  0  0  0  0
  2  1  1  0
  3  2  1  0
  3  4  1  6
  5  3  1  0
  5  6  2  0
  7  8  1  0
  9  8  1  1
  9 10  1  0
 10  5  1  0
 11  9  1  0
 11 17  1  0
 12 11  2  0
 14 13  1  6
 14 15  1  0
 14 16  1  0
 16 17  1  6
 16 18  1  0
 18 20  2  0
 18 19  1  0
M  END
$$$$
