SSV.pdb
     RDKit          3D

 20 19  0  0  1  0  0  0  0  0999 V2000
   11.8053  -17.2603   19.6357 O   0  0  0  0  0  0  0  0  0  0  0  0
   10.9319  -16.5066   20.3934 C   0  0  0  0  0  0  0  0  0  0  0  0
    9.5373  -17.0561   20.1904 C   0  0  2  0  0  0  0  0  0  0  0  0
    9.0181  -16.6595   18.8717 N   0  0  0  0  0  0  0  0  0  0  0  0
    8.5763  -16.5293   21.1865 C   0  0  0  0  0  0  0  0  0  0  0  0
    7.9829  -15.4048   21.0352 O   0  0  0  0  0  0  0  0  0  0  0  0
    7.6117  -18.4804   24.8606 O   0  0  0  0  0  0  0  0  0  0  0  0
    6.6536  -17.8834   24.0504 C   0  0  0  0  0  0  0  0  0  0  0  0
    7.2039  -16.7001   23.2925 C   0  0  2  0  0  0  0  0  0  0  0  0
    8.2202  -17.2059   22.3905 N   0  0  0  0  0  0  0  0  0  0  0  0
    7.8134  -15.7571   24.2770 C   0  0  0  0  0  0  0  0  0  0  0  0
    9.0623  -15.7079   24.4305 O   0  0  0  0  0  0  0  0  0  0  0  0
    7.4279  -11.8238   27.2848 C   0  0  0  0  0  0  0  0  0  0  0  0
    6.7114  -12.8782   26.4645 C   0  0  1  0  0  0  0  0  0  0  0  0
    6.0982  -12.1946   25.2637 C   0  0  0  0  0  0  0  0  0  0  0  0
    7.6915  -13.9091   25.9448 C   0  0  2  0  0  0  0  0  0  0  0  0
    7.0435  -14.8768   25.0836 N   0  0  0  0  0  0  0  0  0  0  0  0
    8.3227  -14.6533   27.0620 C   0  0  0  0  0  0  0  0  0  0  0  0
    9.5020  -14.2079   27.6554 O   0  0  0  0  0  0  0  0  0  0  0  0
    7.8155  -15.7097   27.5106 O   0  0  0  0  0  0  0  0  0  0  0  0
  2  1  1  0
  3  2  1  0
  3  4  1  6
  5  3  1  0
  5  6  2  0
  7  8  1  0
  9  8  1  1
  9 10  1  0
 10  5  1  0
 11  9  1  0
 11 17  1  0
 12 11  2  0
 14 13  1  1
 14 15  1  0
 14 16  1  0
 16 17  1  6
 16 18  1  0
 18 20  2  0
 18 19  1  0
M  END
$$$$
