SSV.pdb
     RDKit          3D

 20 19  0  0  1  0  0  0  0  0999 V2000
   11.6831  -17.7631   19.6355 O   0  0  0  0  0  0  0  0  0  0  0  0
   10.8742  -16.8362   20.2611 C   0  0  0  0  0  0  0  0  0  0  0  0
    9.4394  -17.1337   19.8857 C   0  0  2  0  0  0  0  0  0  0  0  0
    9.1085  -16.5102   18.5944 N   0  0  0  0  0  0  0  0  0  0  0  0
    8.4770  -16.5829   20.8673 C   0  0  0  0  0  0  0  0  0  0  0  0
    7.5965  -15.7107   20.5455 O   0  0  0  0  0  0  0  0  0  0  0  0
    5.6966  -17.2983   24.6083 O   0  0  0  0  0  0  0  0  0  0  0  0
    6.6764  -17.6573   23.6907 C   0  0  0  0  0  0  0  0  0  0  0  0
    7.4188  -16.4596   23.1506 C   0  0  2  0  0  0  0  0  0  0  0  0
    8.4324  -16.9595   22.2423 N   0  0  0  0  0  0  0  0  0  0  0  0
    8.0607  -15.7513   24.2978 C   0  0  0  0  0  0  0  0  0  0  0  0
    9.1892  -16.1120   24.7247 O   0  0  0  0  0  0  0  0  0  0  0  0
    7.3486  -11.7429   25.2400 C   0  0  0  0  0  0  0  0  0  0  0  0
    7.4461  -12.6830   26.4251 C   0  0  1  0  0  0  0  0  0  0  0  0
    6.0405  -13.0507   26.8427 C   0  0  0  0  0  0  0  0  0  0  0  0
    8.1503  -13.9656   26.0341 C   0  0  2  0  0  0  0  0  0  0  0  0
    7.4554  -14.6528   24.9650 N   0  0  0  0  0  0  0  0  0  0  0  0
    8.2368  -14.8969   27.1854 C   0  0  0  0  0  0  0  0  0  0  0  0
    9.1950  -14.7298   28.1831 O   0  0  0  0  0  0  0  0  0  0  0  0
    7.4495  -15.8672   27.2998 O   0  0  0  0  0  0  0  0  0  0  0  0
  2  1  1  0
  3  2  1  0
  3  4  1  6
  5  3  1  0
  5  6  2  0
  7  8  1  0
  9  8  1  1
  9 10  1  0
 10  5  1  0
 11  9  1  0
 11 17  1  0
 12 11  2  0
 14 13  1  6
 14 15  1  0
 14 16  1  0
 16 17  1  6
 16 18  1  0
 18 20  2  0
 18 19  1  0
M  END
$$$$
