SSV.pdb
     RDKit          3D

 20 19  0  0  1  0  0  0  0  0999 V2000
    9.9115  -16.3199   18.7182 O   0  0  0  0  0  0  0  0  0  0  0  0
    8.7990  -15.9126   19.4263 C   0  0  0  0  0  0  0  0  0  0  0  0
    8.1198  -17.1433   19.9849 C   0  0  2  0  0  0  0  0  0  0  0  0
    7.1342  -17.6643   19.0242 N   0  0  0  0  0  0  0  0  0  0  0  0
    7.3692  -16.8541   21.2284 C   0  0  0  0  0  0  0  0  0  0  0  0
    6.1505  -16.4615   21.2153 O   0  0  0  0  0  0  0  0  0  0  0  0
    8.3558  -18.4073   24.9259 O   0  0  0  0  0  0  0  0  0  0  0  0
    7.0906  -17.9866   24.5346 C   0  0  0  0  0  0  0  0  0  0  0  0
    7.1365  -16.7088   23.7330 C   0  0  2  0  0  0  0  0  0  0  0  0
    7.9147  -16.9807   22.5402 N   0  0  0  0  0  0  0  0  0  0  0  0
    7.8100  -15.6629   24.5591 C   0  0  0  0  0  0  0  0  0  0  0  0
    9.0322  -15.4058   24.3976 O   0  0  0  0  0  0  0  0  0  0  0  0
    7.6503  -11.7569   27.5841 C   0  0  0  0  0  0  0  0  0  0  0  0
    6.8941  -12.8091   26.7975 C   0  0  1  0  0  0  0  0  0  0  0  0
    6.3102  -12.1425   25.5728 C   0  0  0  0  0  0  0  0  0  0  0  0
    7.8336  -13.8947   26.3152 C   0  0  2  0  0  0  0  0  0  0  0  0
    7.1331  -14.9094   25.5552 N   0  0  0  0  0  0  0  0  0  0  0  0
    8.4991  -14.5678   27.4573 C   0  0  0  0  0  0  0  0  0  0  0  0
    9.6013  -13.9993   28.0922 O   0  0  0  0  0  0  0  0  0  0  0  0
    8.0915  -15.6726   27.8904 O   0  0  0  0  0  0  0  0  0  0  0  0
  2  1  1  0
  3  2  1  0
  3  4  1  6
  5  3  1  0
  5  6  2  0
  7  8  1  0
  9  8  1  1
  9 10  1  0
 10  5  1  0
 11  9  1  0
 11 17  1  0
 12 11  2  0
 14 13  1  6
 14 15  1  0
 14 16  1  0
 16 17  1  1
 16 18  1  0
 18 20  2  0
 18 19  1  0
M  END
$$$$
