SSV.pdb
     RDKit          3D

 20 19  0  0  1  0  0  0  0  0999 V2000
   12.6361  -16.6507   22.1074 O   0  0  0  0  0  0  0  0  0  0  0  0
   12.1424  -17.7574   21.4468 C   0  0  0  0  0  0  0  0  0  0  0  0
   10.6954  -17.4902   21.0962 C   0  0  2  0  0  0  0  0  0  0  0  0
   10.5999  -16.3954   20.1174 N   0  0  0  0  0  0  0  0  0  0  0  0
    9.9034  -17.0614   22.2718 C   0  0  0  0  0  0  0  0  0  0  0  0
    9.4336  -15.8756   22.3836 O   0  0  0  0  0  0  0  0  0  0  0  0
    9.0487  -19.5819   25.5921 O   0  0  0  0  0  0  0  0  0  0  0  0
    8.1320  -18.6594   25.1029 C   0  0  0  0  0  0  0  0  0  0  0  0
    8.8048  -17.4475   24.5062 C   0  0  2  0  0  0  0  0  0  0  0  0
    9.5887  -17.9072   23.3763 N   0  0  0  0  0  0  0  0  0  0  0  0
    9.6983  -16.8510   25.5433 C   0  0  0  0  0  0  0  0  0  0  0  0
   10.9428  -17.0403   25.5044 O   0  0  0  0  0  0  0  0  0  0  0  0
   10.5686  -13.6141   29.1702 C   0  0  0  0  0  0  0  0  0  0  0  0
    9.5514  -14.2528   28.2453 C   0  0  1  0  0  0  0  0  0  0  0  0
    9.2331  -13.2609   27.1499 C   0  0  0  0  0  0  0  0  0  0  0  0
   10.1304  -15.4856   27.5830 C   0  0  2  0  0  0  0  0  0  0  0  0
    9.2150  -16.0518   26.6138 N   0  0  0  0  0  0  0  0  0  0  0  0
   10.4300  -16.5367   28.5858 C   0  0  0  0  0  0  0  0  0  0  0  0
   11.6404  -16.5572   29.2757 O   0  0  0  0  0  0  0  0  0  0  0  0
    9.6030  -17.4436   28.8468 O   0  0  0  0  0  0  0  0  0  0  0  0
  2  1  1  0
  3  2  1  0
  3  4  1  6
  5  3  1  0
  5  6  2  0
  7  8  1  0
  9  8  1  1
  9 10  1  0
 10  5  1  0
 11  9  1  0
 11 17  1  0
 12 11  2  0
 14 13  1  1
 14 15  1  0
 14 16  1  0
 16 17  1  6
 16 18  1  0
 18 20  2  0
 18 19  1  0
M  END
$$$$
