PKL.pdb
     RDKit          3D

 25 25  0  0  1  0  0  0  0  0999 V2000
    8.5617  -14.9500   18.9198 N   0  0  0  0  0  0  0  0  0  0  0  0
    8.8747  -14.2397   17.6924 C   0  0  0  0  0  0  0  0  0  0  0  0
    8.1384  -12.9172   17.7628 C   0  0  0  0  0  0  0  0  0  0  0  0
    7.5665  -12.8971   19.1862 C   0  0  0  0  0  0  0  0  0  0  0  0
    8.4988  -13.8634   19.8788 C   0  0  1  0  0  0  0  0  0  0  0  0
    7.9907  -14.3523   21.1618 C   0  0  0  0  0  0  0  0  0  0  0  0
    7.5227  -13.6238   22.0697 O   0  0  0  0  0  0  0  0  0  0  0  0
    8.0095  -15.7598   21.4450 N   0  0  0  0  0  0  0  0  0  0  0  0
    7.3602  -16.3077   22.6139 C   0  0  1  0  0  0  0  0  0  0  0  0
    7.5743  -17.8315   22.5277 C   0  0  0  0  0  0  0  0  0  0  0  0
    6.7285  -18.2924   21.3888 C   0  0  0  0  0  0  0  0  0  0  0  0
    6.8352  -19.7817   21.2275 C   0  0  0  0  0  0  0  0  0  0  0  0
    5.8952  -20.2268   20.1360 C   0  0  0  0  0  0  0  0  0  0  0  0
    6.0757  -21.6744   20.0022 N   0  0  0  0  0  0  0  0  0  0  0  0
    8.1285  -15.8639   23.8155 C   0  0  0  0  0  0  0  0  0  0  0  0
    9.3753  -15.8275   23.7347 O   0  0  0  0  0  0  0  0  0  0  0  0
    5.6822  -12.3480   27.1838 C   0  0  0  0  0  0  0  0  0  0  0  0
    6.7043  -13.0225   26.3505 C   0  0  1  0  0  0  0  0  0  0  0  0
    7.5505  -11.9586   25.6334 C   0  0  0  0  0  0  0  0  0  0  0  0
    7.5228  -14.0812   26.9407 C   0  0  0  0  0  0  0  0  0  0  0  0
    8.3765  -14.9646   26.1143 C   0  0  2  0  0  0  0  0  0  0  0  0
    7.5158  -15.4914   25.0148 N   0  0  0  0  0  0  0  0  0  0  0  0
    8.9403  -16.1407   26.7528 C   0  0  0  0  0  0  0  0  0  0  0  0
   10.0122  -16.0206   27.6380 O   0  0  0  0  0  0  0  0  0  0  0  0
    8.5160  -17.2935   26.5562 O   0  0  0  0  0  0  0  0  0  0  0  0
  1  2  1  0
  2  3  1  0
  4  3  1  0
  5  1  1  0
  5  4  1  0
  5  6  1  1
  7  6  2  0
  8  6  1  0
  9  8  1  0
  9 10  1  6
 10 11  1  0
 11 12  1  0
 12 13  1  0
 13 14  1  0
 15 16  2  0
 15  9  1  0
 18 17  1  1
 19 18  1  0
 21 20  1  1
 20 18  1  0
 21 22  1  0
 22 15  1  0
 23 24  1  0
 23 21  1  0
 25 23  2  0
M  END
$$$$
