PKL.pdb
     RDKit          3D

 25 25  0  0  1  0  0  0  0  0999 V2000
    7.8608  -15.1020   18.9887 N   0  0  0  0  0  0  0  0  0  0  0  0
    8.1790  -14.3420   17.7929 C   0  0  0  0  0  0  0  0  0  0  0  0
    7.8346  -12.8983   18.0980 C   0  0  0  0  0  0  0  0  0  0  0  0
    7.4885  -12.9173   19.5925 C   0  0  0  0  0  0  0  0  0  0  0  0
    8.2185  -14.1637   20.0356 C   0  0  1  0  0  0  0  0  0  0  0  0
    7.7798  -14.6697   21.3375 C   0  0  0  0  0  0  0  0  0  0  0  0
    7.0345  -14.0475   22.1320 O   0  0  0  0  0  0  0  0  0  0  0  0
    8.2090  -15.9671   21.7781 N   0  0  0  0  0  0  0  0  0  0  0  0
    7.6847  -16.5721   22.9811 C   0  0  1  0  0  0  0  0  0  0  0  0
    8.1917  -18.0275   22.9648 C   0  0  0  0  0  0  0  0  0  0  0  0
    7.5108  -18.7029   24.1072 C   0  0  0  0  0  0  0  0  0  0  0  0
    7.8485  -20.1662   24.1259 C   0  0  0  0  0  0  0  0  0  0  0  0
    7.0976  -20.8299   25.2522 C   0  0  0  0  0  0  0  0  0  0  0  0
    5.8546  -21.3437   24.6717 N   0  0  0  0  0  0  0  0  0  0  0  0
    8.3576  -15.9280   24.1488 C   0  0  0  0  0  0  0  0  0  0  0  0
    9.5969  -15.7729   24.1004 O   0  0  0  0  0  0  0  0  0  0  0  0
    5.8028  -11.8930   26.6229 C   0  0  0  0  0  0  0  0  0  0  0  0
    6.8804  -12.7365   26.0562 C   0  0  1  0  0  0  0  0  0  0  0  0
    7.9053  -11.8354   25.3492 C   0  0  0  0  0  0  0  0  0  0  0  0
    7.5158  -13.7475   26.9008 C   0  0  0  0  0  0  0  0  0  0  0  0
    8.4256  -14.7746   26.3443 C   0  0  2  0  0  0  0  0  0  0  0  0
    7.6643  -15.4960   25.2825 N   0  0  0  0  0  0  0  0  0  0  0  0
    8.8973  -15.8114   27.2450 C   0  0  0  0  0  0  0  0  0  0  0  0
    9.9032  -15.5392   28.1731 O   0  0  0  0  0  0  0  0  0  0  0  0
    8.4481  -16.9714   27.2453 O   0  0  0  0  0  0  0  0  0  0  0  0
  1  2  1  0
  2  3  1  0
  4  3  1  0
  5  1  1  0
  5  4  1  0
  5  6  1  1
  7  6  2  0
  8  6  1  0
  9  8  1  0
  9 10  1  6
 10 11  1  0
 11 12  1  0
 12 13  1  0
 13 14  1  0
 15 16  2  0
 15  9  1  0
 18 17  1  1
 19 18  1  0
 21 20  1  1
 20 18  1  0
 21 22  1  0
 22 15  1  0
 23 24  1  0
 23 21  1  0
 25 23  2  0
M  END
$$$$
