PKL.pdb
     RDKit          3D

 25 25  0  0  1  0  0  0  0  0999 V2000
    8.5133  -15.1776   19.3996 N   0  0  0  0  0  0  0  0  0  0  0  0
    8.8540  -14.5164   18.1523 C   0  0  0  0  0  0  0  0  0  0  0  0
    8.0578  -13.2276   18.1188 C   0  0  0  0  0  0  0  0  0  0  0  0
    7.4171  -13.1622   19.5111 C   0  0  0  0  0  0  0  0  0  0  0  0
    8.3561  -14.0481   20.2961 C   0  0  1  0  0  0  0  0  0  0  0  0
    7.8081  -14.4946   21.5782 C   0  0  0  0  0  0  0  0  0  0  0  0
    7.4562  -13.7315   22.5097 O   0  0  0  0  0  0  0  0  0  0  0  0
    7.6438  -15.8982   21.8317 N   0  0  0  0  0  0  0  0  0  0  0  0
    7.1507  -16.3882   23.0986 C   0  0  1  0  0  0  0  0  0  0  0  0
    7.3619  -17.9144   23.0603 C   0  0  0  0  0  0  0  0  0  0  0  0
    6.8428  -18.4247   24.3622 C   0  0  0  0  0  0  0  0  0  0  0  0
    6.9740  -19.9193   24.4277 C   0  0  0  0  0  0  0  0  0  0  0  0
    6.4955  -20.3965   25.7754 C   0  0  0  0  0  0  0  0  0  0  0  0
    6.8105  -21.8256   25.8417 N   0  0  0  0  0  0  0  0  0  0  0  0
    8.0618  -15.8859   24.1703 C   0  0  0  0  0  0  0  0  0  0  0  0
    9.2423  -15.6172   23.8593 O   0  0  0  0  0  0  0  0  0  0  0  0
    5.9136  -11.7563   26.8165 C   0  0  0  0  0  0  0  0  0  0  0  0
    6.9477  -12.6198   26.2009 C   0  0  1  0  0  0  0  0  0  0  0  0
    8.1112  -11.7418   25.7136 C   0  0  0  0  0  0  0  0  0  0  0  0
    7.4083  -13.8072   26.9200 C   0  0  0  0  0  0  0  0  0  0  0  0
    8.4058  -14.7361   26.3416 C   0  0  2  0  0  0  0  0  0  0  0  0
    7.6519  -15.7059   25.4940 N   0  0  0  0  0  0  0  0  0  0  0  0
    9.1741  -15.5537   27.2635 C   0  0  0  0  0  0  0  0  0  0  0  0
    8.6371  -16.7335   27.7801 O   0  0  0  0  0  0  0  0  0  0  0  0
   10.3236  -15.2620   27.6391 O   0  0  0  0  0  0  0  0  0  0  0  0
  1  2  1  0
  2  3  1  0
  4  3  1  0
  5  1  1  0
  5  4  1  0
  5  6  1  1
  7  6  2  0
  8  6  1  0
  9  8  1  0
  9 10  1  6
 10 11  1  0
 11 12  1  0
 12 13  1  0
 13 14  1  0
 15 16  2  0
 15  9  1  0
 18 17  1  1
 19 18  1  0
 21 20  1  1
 20 18  1  0
 21 22  1  0
 22 15  1  0
 23 24  1  0
 23 21  1  0
 25 23  2  0
M  END
$$$$
