PKL.pdb
     RDKit          3D

 25 25  0  0  1  0  0  0  0  0999 V2000
    8.6844  -15.3658   18.8857 N   0  0  0  0  0  0  0  0  0  0  0  0
    9.1023  -14.7039   17.6625 C   0  0  0  0  0  0  0  0  0  0  0  0
    8.2025  -13.4956   17.4998 C   0  0  0  0  0  0  0  0  0  0  0  0
    7.4062  -13.4589   18.8105 C   0  0  0  0  0  0  0  0  0  0  0  0
    8.3268  -14.2360   19.7223 C   0  0  1  0  0  0  0  0  0  0  0  0
    7.6806  -14.7026   20.9503 C   0  0  0  0  0  0  0  0  0  0  0  0
    7.1273  -13.9575   21.7944 O   0  0  0  0  0  0  0  0  0  0  0  0
    7.6542  -16.1062   21.2514 N   0  0  0  0  0  0  0  0  0  0  0  0
    7.0501  -16.6115   22.4629 C   0  0  1  0  0  0  0  0  0  0  0  0
    7.3690  -18.1192   22.4844 C   0  0  0  0  0  0  0  0  0  0  0  0
    6.7763  -18.6373   23.7513 C   0  0  0  0  0  0  0  0  0  0  0  0
    6.9868  -20.1205   23.8588 C   0  0  0  0  0  0  0  0  0  0  0  0
    6.2957  -20.6267   25.0994 C   0  0  0  0  0  0  0  0  0  0  0  0
    6.5916  -22.0591   25.1799 N   0  0  0  0  0  0  0  0  0  0  0  0
    7.7916  -16.0301   23.6219 C   0  0  0  0  0  0  0  0  0  0  0  0
    9.0340  -15.9264   23.5318 O   0  0  0  0  0  0  0  0  0  0  0  0
    8.3114  -11.5228   26.5903 C   0  0  0  0  0  0  0  0  0  0  0  0
    7.2299  -12.4772   26.9273 C   0  0  1  0  0  0  0  0  0  0  0  0
    5.9849  -11.6912   27.3684 C   0  0  0  0  0  0  0  0  0  0  0  0
    6.9074  -13.5524   25.9897 C   0  0  0  0  0  0  0  0  0  0  0  0
    7.8742  -14.6259   25.6654 C   0  0  2  0  0  0  0  0  0  0  0  0
    7.1588  -15.6016   24.7917 N   0  0  0  0  0  0  0  0  0  0  0  0
    8.3957  -15.4139   26.7681 C   0  0  0  0  0  0  0  0  0  0  0  0
    9.6523  -15.1338   27.3065 O   0  0  0  0  0  0  0  0  0  0  0  0
    7.7741  -16.3591   27.2854 O   0  0  0  0  0  0  0  0  0  0  0  0
  1  2  1  0
  2  3  1  0
  4  3  1  0
  5  1  1  0
  5  4  1  0
  5  6  1  1
  7  6  2  0
  8  6  1  0
  9  8  1  0
  9 10  1  6
 10 11  1  0
 11 12  1  0
 12 13  1  0
 13 14  1  0
 15 16  2  0
 15  9  1  0
 18 17  1  6
 19 18  1  0
 21 20  1  1
 20 18  1  0
 21 22  1  0
 22 15  1  0
 23 24  1  0
 23 21  1  0
 25 23  2  0
M  END
$$$$
