PKL.pdb
     RDKit          3D

 25 25  0  0  1  0  0  0  0  0999 V2000
    8.4832  -15.1047   19.2842 N   0  0  0  0  0  0  0  0  0  0  0  0
    8.7467  -14.4393   18.0206 C   0  0  0  0  0  0  0  0  0  0  0  0
    7.8187  -13.2427   17.9645 C   0  0  0  0  0  0  0  0  0  0  0  0
    7.1808  -13.2143   19.3594 C   0  0  0  0  0  0  0  0  0  0  0  0
    8.2116  -13.9784   20.1571 C   0  0  1  0  0  0  0  0  0  0  0  0
    7.7195  -14.4515   21.4522 C   0  0  0  0  0  0  0  0  0  0  0  0
    7.2985  -13.7089   22.3715 O   0  0  0  0  0  0  0  0  0  0  0  0
    7.6988  -15.8591   21.7346 N   0  0  0  0  0  0  0  0  0  0  0  0
    7.1983  -16.3746   22.9883 C   0  0  1  0  0  0  0  0  0  0  0  0
    7.4853  -17.8885   22.9551 C   0  0  0  0  0  0  0  0  0  0  0  0
    6.9813  -18.4216   24.2539 C   0  0  0  0  0  0  0  0  0  0  0  0
    7.1315  -19.9152   24.2995 C   0  0  0  0  0  0  0  0  0  0  0  0
    6.6135  -20.4214   25.6217 C   0  0  0  0  0  0  0  0  0  0  0  0
    6.9289  -21.8512   25.6672 N   0  0  0  0  0  0  0  0  0  0  0  0
    8.0559  -15.8296   24.0831 C   0  0  0  0  0  0  0  0  0  0  0  0
    9.2965  -15.9057   23.9503 O   0  0  0  0  0  0  0  0  0  0  0  0
    6.1827  -11.5745   26.8855 C   0  0  0  0  0  0  0  0  0  0  0  0
    7.1179  -12.4770   26.1751 C   0  0  1  0  0  0  0  0  0  0  0  0
    8.1205  -11.6322   25.3730 C   0  0  0  0  0  0  0  0  0  0  0  0
    7.7668  -13.5596   26.9141 C   0  0  0  0  0  0  0  0  0  0  0  0
    8.4847  -14.6573   26.2271 C   0  0  2  0  0  0  0  0  0  0  0  0
    7.5326  -15.2437   25.2387 N   0  0  0  0  0  0  0  0  0  0  0  0
    8.9299  -15.7773   27.0370 C   0  0  0  0  0  0  0  0  0  0  0  0
   10.1616  -15.7327   27.6913 O   0  0  0  0  0  0  0  0  0  0  0  0
    8.2617  -16.8150   27.1929 O   0  0  0  0  0  0  0  0  0  0  0  0
  1  2  1  0
  2  3  1  0
  4  3  1  0
  5  1  1  0
  5  4  1  0
  5  6  1  1
  7  6  2  0
  8  6  1  0
  9  8  1  0
  9 10  1  6
 10 11  1  0
 11 12  1  0
 12 13  1  0
 13 14  1  0
 15 16  2  0
 15  9  1  0
 18 17  1  1
 19 18  1  0
 21 20  1  1
 20 18  1  0
 21 22  1  0
 22 15  1  0
 23 24  1  0
 23 21  1  0
 25 23  2  0
M  END
$$$$
