PKL.pdb
     RDKit          3D

 25 25  0  0  1  0  0  0  0  0999 V2000
    8.5530  -14.8999   19.2979 N   0  0  0  0  0  0  0  0  0  0  0  0
    8.8355  -14.1578   18.0819 C   0  0  0  0  0  0  0  0  0  0  0  0
    7.8774  -12.9840   18.0637 C   0  0  0  0  0  0  0  0  0  0  0  0
    7.1981  -13.0504   19.4375 C   0  0  0  0  0  0  0  0  0  0  0  0
    8.2252  -13.8318   20.2231 C   0  0  1  0  0  0  0  0  0  0  0  0
    7.7081  -14.3894   21.4740 C   0  0  0  0  0  0  0  0  0  0  0  0
    7.2605  -13.7096   22.4286 O   0  0  0  0  0  0  0  0  0  0  0  0
    7.6929  -15.8122   21.6663 N   0  0  0  0  0  0  0  0  0  0  0  0
    7.2084  -16.4077   22.8905 C   0  0  1  0  0  0  0  0  0  0  0  0
    7.4974  -17.9158   22.7575 C   0  0  0  0  0  0  0  0  0  0  0  0
    6.9311  -18.5433   23.9865 C   0  0  0  0  0  0  0  0  0  0  0  0
    7.1807  -20.0243   23.9797 C   0  0  0  0  0  0  0  0  0  0  0  0
    6.5138  -20.6409   25.1830 C   0  0  0  0  0  0  0  0  0  0  0  0
    6.8339  -22.0699   25.1439 N   0  0  0  0  0  0  0  0  0  0  0  0
    8.0783  -15.9316   24.0075 C   0  0  0  0  0  0  0  0  0  0  0  0
    9.3132  -15.8989   23.8170 O   0  0  0  0  0  0  0  0  0  0  0  0
    6.3624  -11.9101   27.0237 C   0  0  0  0  0  0  0  0  0  0  0  0
    7.3273  -12.7848   26.3180 C   0  0  1  0  0  0  0  0  0  0  0  0
    8.4205  -11.9143   25.6782 C   0  0  0  0  0  0  0  0  0  0  0  0
    7.8767  -13.9492   27.0118 C   0  0  0  0  0  0  0  0  0  0  0  0
    8.5365  -15.0565   26.2833 C   0  0  2  0  0  0  0  0  0  0  0  0
    7.5723  -15.5250   25.2449 N   0  0  0  0  0  0  0  0  0  0  0  0
    8.8851  -16.2445   27.0421 C   0  0  0  0  0  0  0  0  0  0  0  0
    9.9824  -16.2373   27.9043 O   0  0  0  0  0  0  0  0  0  0  0  0
    8.2473  -17.3102   26.9729 O   0  0  0  0  0  0  0  0  0  0  0  0
  1  2  1  0
  2  3  1  0
  4  3  1  0
  5  1  1  0
  5  4  1  0
  5  6  1  1
  7  6  2  0
  8  6  1  0
  9  8  1  0
  9 10  1  6
 10 11  1  0
 11 12  1  0
 12 13  1  0
 13 14  1  0
 15 16  2  0
 15  9  1  0
 18 17  1  1
 19 18  1  0
 21 20  1  1
 20 18  1  0
 21 22  1  0
 22 15  1  0
 23 24  1  0
 23 21  1  0
 25 23  2  0
M  END
$$$$
