PKL.pdb
     RDKit          3D

 25 25  0  0  1  0  0  0  0  0999 V2000
    9.0889  -14.6283   18.7550 N   0  0  0  0  0  0  0  0  0  0  0  0
    9.1008  -13.8144   17.5523 C   0  0  0  0  0  0  0  0  0  0  0  0
    7.8086  -13.0229   17.5575 C   0  0  0  0  0  0  0  0  0  0  0  0
    7.2003  -13.3329   18.9312 C   0  0  0  0  0  0  0  0  0  0  0  0
    8.4341  -13.7440   19.7003 C   0  0  1  0  0  0  0  0  0  0  0  0
    8.1402  -14.4619   20.9418 C   0  0  0  0  0  0  0  0  0  0  0  0
    7.4190  -14.0211   21.8689 O   0  0  0  0  0  0  0  0  0  0  0  0
    8.6960  -15.7681   21.1572 N   0  0  0  0  0  0  0  0  0  0  0  0
    8.3763  -16.5448   22.3331 C   0  0  1  0  0  0  0  0  0  0  0  0
    9.2915  -17.7832   22.2701 C   0  0  0  0  0  0  0  0  0  0  0  0
    8.9323  -18.6092   23.4591 C   0  0  0  0  0  0  0  0  0  0  0  0
    9.8151  -19.8216   23.5394 C   0  0  0  0  0  0  0  0  0  0  0  0
    9.3714  -20.6770   24.6989 C   0  0  0  0  0  0  0  0  0  0  0  0
   10.3653  -21.7457   24.8259 N   0  0  0  0  0  0  0  0  0  0  0  0
    8.8299  -15.7736   23.5291 C   0  0  0  0  0  0  0  0  0  0  0  0
    9.9892  -15.3063   23.5215 O   0  0  0  0  0  0  0  0  0  0  0  0
    8.3855  -11.4571   26.6939 C   0  0  0  0  0  0  0  0  0  0  0  0
    7.3435  -12.5061   26.7839 C   0  0  1  0  0  0  0  0  0  0  0  0
    5.9699  -11.8374   26.9520 C   0  0  0  0  0  0  0  0  0  0  0  0
    7.3230  -13.5803   25.7916 C   0  0  0  0  0  0  0  0  0  0  0  0
    8.4483  -14.5310   25.6422 C   0  0  2  0  0  0  0  0  0  0  0  0
    8.0185  -15.5554   24.6457 N   0  0  0  0  0  0  0  0  0  0  0  0
    8.8480  -15.2865   26.8161 C   0  0  0  0  0  0  0  0  0  0  0  0
    8.2749  -16.5297   27.0871 O   0  0  0  0  0  0  0  0  0  0  0  0
    9.6998  -14.8848   27.6289 O   0  0  0  0  0  0  0  0  0  0  0  0
  1  2  1  0
  2  3  1  0
  4  3  1  0
  5  1  1  0
  5  4  1  0
  5  6  1  1
  7  6  2  0
  8  6  1  0
  9  8  1  0
  9 10  1  6
 10 11  1  0
 11 12  1  0
 12 13  1  0
 13 14  1  0
 15 16  2  0
 15  9  1  0
 18 17  1  6
 19 18  1  0
 21 20  1  1
 20 18  1  0
 21 22  1  0
 22 15  1  0
 23 24  1  0
 23 21  1  0
 25 23  2  0
M  END
$$$$
