PKL.pdb
     RDKit          3D

 25 25  0  0  1  0  0  0  0  0999 V2000
    8.6793  -15.1921   18.6080 N   0  0  0  0  0  0  0  0  0  0  0  0
    9.0310  -14.4824   17.3908 C   0  0  0  0  0  0  0  0  0  0  0  0
    8.1828  -13.2269   17.3662 C   0  0  0  0  0  0  0  0  0  0  0  0
    7.4964  -13.2275   18.7382 C   0  0  0  0  0  0  0  0  0  0  0  0
    8.4467  -14.0959   19.5291 C   0  0  1  0  0  0  0  0  0  0  0  0
    7.8780  -14.6007   20.7801 C   0  0  0  0  0  0  0  0  0  0  0  0
    7.4529  -13.8795   21.7144 O   0  0  0  0  0  0  0  0  0  0  0  0
    7.7798  -16.0167   20.9969 N   0  0  0  0  0  0  0  0  0  0  0  0
    7.1023  -16.5629   22.1504 C   0  0  1  0  0  0  0  0  0  0  0  0
    7.3824  -18.0780   22.1134 C   0  0  0  0  0  0  0  0  0  0  0  0
    6.7141  -18.6399   23.3228 C   0  0  0  0  0  0  0  0  0  0  0  0
    6.7724  -20.1405   23.3026 C   0  0  0  0  0  0  0  0  0  0  0  0
    5.9516  -20.6799   24.4465 C   0  0  0  0  0  0  0  0  0  0  0  0
    6.0779  -22.1383   24.3918 N   0  0  0  0  0  0  0  0  0  0  0  0
    7.7976  -16.0581   23.3721 C   0  0  0  0  0  0  0  0  0  0  0  0
    9.0414  -15.9397   23.3333 O   0  0  0  0  0  0  0  0  0  0  0  0
    8.1922  -11.7271   26.5588 C   0  0  0  0  0  0  0  0  0  0  0  0
    7.1234  -12.7106   26.8490 C   0  0  1  0  0  0  0  0  0  0  0  0
    5.8648  -11.9623   27.3165 C   0  0  0  0  0  0  0  0  0  0  0  0
    6.8211  -13.7492   25.8646 C   0  0  0  0  0  0  0  0  0  0  0  0
    7.7989  -14.8039   25.5126 C   0  0  2  0  0  0  0  0  0  0  0  0
    7.1206  -15.7161   24.5457 N   0  0  0  0  0  0  0  0  0  0  0  0
    8.2696  -15.6657   26.5825 C   0  0  0  0  0  0  0  0  0  0  0  0
    9.5063  -15.4342   27.1860 O   0  0  0  0  0  0  0  0  0  0  0  0
    7.6197  -16.6346   27.0143 O   0  0  0  0  0  0  0  0  0  0  0  0
  1  2  1  0
  2  3  1  0
  4  3  1  0
  5  1  1  0
  5  4  1  0
  5  6  1  1
  7  6  2  0
  8  6  1  0
  9  8  1  0
  9 10  1  6
 10 11  1  0
 11 12  1  0
 12 13  1  0
 13 14  1  0
 15 16  2  0
 15  9  1  0
 18 17  1  6
 19 18  1  0
 21 20  1  1
 20 18  1  0
 21 22  1  0
 22 15  1  0
 23 24  1  0
 23 21  1  0
 25 23  2  0
M  END
$$$$
