PKL.pdb
     RDKit          3D

 25 25  0  0  1  0  0  0  0  0999 V2000
    8.5610  -15.0944   19.2192 N   0  0  0  0  0  0  0  0  0  0  0  0
    8.8516  -14.3970   17.9790 C   0  0  0  0  0  0  0  0  0  0  0  0
    8.0142  -13.1341   17.9910 C   0  0  0  0  0  0  0  0  0  0  0  0
    7.4041  -13.1183   19.3984 C   0  0  0  0  0  0  0  0  0  0  0  0
    8.3888  -13.9893   20.1430 C   0  0  1  0  0  0  0  0  0  0  0  0
    7.8851  -14.4797   21.4272 C   0  0  0  0  0  0  0  0  0  0  0  0
    7.4726  -13.7485   22.3594 O   0  0  0  0  0  0  0  0  0  0  0  0
    7.8418  -15.8920   21.6822 N   0  0  0  0  0  0  0  0  0  0  0  0
    7.2504  -16.4281   22.8867 C   0  0  1  0  0  0  0  0  0  0  0  0
    7.4914  -17.9490   22.8221 C   0  0  0  0  0  0  0  0  0  0  0  0
    6.7984  -18.5166   24.0148 C   0  0  0  0  0  0  0  0  0  0  0  0
    6.9909  -20.0050   24.0721 C   0  0  0  0  0  0  0  0  0  0  0  0
    6.1958  -20.5597   25.2267 C   0  0  0  0  0  0  0  0  0  0  0  0
    6.4541  -22.0014   25.2494 N   0  0  0  0  0  0  0  0  0  0  0  0
    8.0567  -15.9451   24.0475 C   0  0  0  0  0  0  0  0  0  0  0  0
    9.2987  -16.0756   23.9947 O   0  0  0  0  0  0  0  0  0  0  0  0
    6.2757  -11.5200   26.4189 C   0  0  0  0  0  0  0  0  0  0  0  0
    7.2031  -12.5340   25.8660 C   0  0  1  0  0  0  0  0  0  0  0  0
    8.3093  -11.8231   25.0703 C   0  0  0  0  0  0  0  0  0  0  0  0
    7.7312  -13.5754   26.7468 C   0  0  0  0  0  0  0  0  0  0  0  0
    8.3937  -14.7887   26.2164 C   0  0  2  0  0  0  0  0  0  0  0  0
    7.4844  -15.3588   25.1794 N   0  0  0  0  0  0  0  0  0  0  0  0
    8.6415  -15.8774   27.1449 C   0  0  0  0  0  0  0  0  0  0  0  0
    7.9351  -17.0758   27.0358 O   0  0  0  0  0  0  0  0  0  0  0  0
    9.4733  -15.8115   28.0676 O   0  0  0  0  0  0  0  0  0  0  0  0
  1  2  1  0
  2  3  1  0
  4  3  1  0
  5  1  1  0
  5  4  1  0
  5  6  1  1
  7  6  2  0
  8  6  1  0
  9  8  1  0
  9 10  1  6
 10 11  1  0
 11 12  1  0
 12 13  1  0
 13 14  1  0
 15 16  2  0
 15  9  1  0
 18 17  1  1
 19 18  1  0
 21 20  1  1
 20 18  1  0
 21 22  1  0
 22 15  1  0
 23 24  1  0
 23 21  1  0
 25 23  2  0
M  END
$$$$
