PKL.pdb
     RDKit          3D

 25 25  0  0  1  0  0  0  0  0999 V2000
    8.6633  -15.3525   18.8878 N   0  0  0  0  0  0  0  0  0  0  0  0
    9.0251  -14.6970   17.6434 C   0  0  0  0  0  0  0  0  0  0  0  0
    8.1075  -13.4988   17.5076 C   0  0  0  0  0  0  0  0  0  0  0  0
    7.3643  -13.4587   18.8491 C   0  0  0  0  0  0  0  0  0  0  0  0
    8.3285  -14.2192   19.7291 C   0  0  1  0  0  0  0  0  0  0  0  0
    7.7370  -14.6817   20.9858 C   0  0  0  0  0  0  0  0  0  0  0  0
    7.2008  -13.9361   21.8405 O   0  0  0  0  0  0  0  0  0  0  0  0
    7.7487  -16.0815   21.3052 N   0  0  0  0  0  0  0  0  0  0  0  0
    7.1872  -16.5835   22.5384 C   0  0  1  0  0  0  0  0  0  0  0  0
    7.4763  -18.0974   22.5364 C   0  0  0  0  0  0  0  0  0  0  0  0
    6.9940  -18.6004   23.8552 C   0  0  0  0  0  0  0  0  0  0  0  0
    7.1821  -20.0875   23.9480 C   0  0  0  0  0  0  0  0  0  0  0  0
    6.7349  -20.5557   25.3096 C   0  0  0  0  0  0  0  0  0  0  0  0
    6.8678  -22.0146   25.3073 N   0  0  0  0  0  0  0  0  0  0  0  0
    7.9894  -16.0255   23.6680 C   0  0  0  0  0  0  0  0  0  0  0  0
    9.2267  -15.9300   23.5187 O   0  0  0  0  0  0  0  0  0  0  0  0
    5.9391  -11.2906   26.6828 C   0  0  0  0  0  0  0  0  0  0  0  0
    7.0945  -12.1949   26.4792 C   0  0  1  0  0  0  0  0  0  0  0  0
    7.8593  -12.3397   27.8045 C   0  0  0  0  0  0  0  0  0  0  0  0
    6.8879  -13.4796   25.8114 C   0  0  0  0  0  0  0  0  0  0  0  0
    8.0031  -14.4204   25.5597 C   0  0  2  0  0  0  0  0  0  0  0  0
    7.4182  -15.6096   24.8736 N   0  0  0  0  0  0  0  0  0  0  0  0
    8.7037  -14.9539   26.7144 C   0  0  0  0  0  0  0  0  0  0  0  0
    8.2353  -16.0987   27.3602 O   0  0  0  0  0  0  0  0  0  0  0  0
    9.7335  -14.4392   27.1857 O   0  0  0  0  0  0  0  0  0  0  0  0
  1  2  1  0
  2  3  1  0
  4  3  1  0
  5  1  1  0
  5  4  1  0
  5  6  1  1
  7  6  2  0
  8  6  1  0
  9  8  1  0
  9 10  1  6
 10 11  1  0
 11 12  1  0
 12 13  1  0
 13 14  1  0
 15 16  2  0
 15  9  1  0
 18 17  1  1
 19 18  1  0
 21 20  1  1
 20 18  1  0
 21 22  1  0
 22 15  1  0
 23 24  1  0
 23 21  1  0
 25 23  2  0
M  END
$$$$
