PKL.pdb
     RDKit          3D

 25 25  0  0  1  0  0  0  0  0999 V2000
    8.6465  -15.2792   19.2131 N   0  0  0  0  0  0  0  0  0  0  0  0
    9.0624  -14.5766   18.0121 C   0  0  0  0  0  0  0  0  0  0  0  0
    8.2702  -13.2854   17.9748 C   0  0  0  0  0  0  0  0  0  0  0  0
    7.5464  -13.2661   19.3272 C   0  0  0  0  0  0  0  0  0  0  0  0
    8.4358  -14.1806   20.1367 C   0  0  1  0  0  0  0  0  0  0  0  0
    7.8111  -14.6693   21.3672 C   0  0  0  0  0  0  0  0  0  0  0  0
    7.3801  -13.9366   22.2898 O   0  0  0  0  0  0  0  0  0  0  0  0
    7.6597  -16.0818   21.5761 N   0  0  0  0  0  0  0  0  0  0  0  0
    7.1166  -16.6135   22.8051 C   0  0  1  0  0  0  0  0  0  0  0  0
    7.3993  -18.1279   22.7589 C   0  0  0  0  0  0  0  0  0  0  0  0
    6.7132  -18.7013   23.9528 C   0  0  0  0  0  0  0  0  0  0  0  0
    6.9419  -20.1838   24.0254 C   0  0  0  0  0  0  0  0  0  0  0  0
    5.6823  -20.8525   24.5146 C   0  0  0  0  0  0  0  0  0  0  0  0
    6.0327  -21.5229   25.7691 N   0  0  0  0  0  0  0  0  0  0  0  0
    7.9398  -16.0880   23.9352 C   0  0  0  0  0  0  0  0  0  0  0  0
    9.1825  -16.1974   23.8570 O   0  0  0  0  0  0  0  0  0  0  0  0
    5.7030  -12.0842   26.8568 C   0  0  0  0  0  0  0  0  0  0  0  0
    6.7393  -12.8333   26.1092 C   0  0  1  0  0  0  0  0  0  0  0  0
    7.6224  -11.8381   25.3398 C   0  0  0  0  0  0  0  0  0  0  0  0
    7.5239  -13.8542   26.8031 C   0  0  0  0  0  0  0  0  0  0  0  0
    8.3042  -14.8763   26.0692 C   0  0  2  0  0  0  0  0  0  0  0  0
    7.3823  -15.4848   25.0657 N   0  0  0  0  0  0  0  0  0  0  0  0
    8.8280  -15.9953   26.8321 C   0  0  0  0  0  0  0  0  0  0  0  0
    8.1851  -17.2335   26.8054 O   0  0  0  0  0  0  0  0  0  0  0  0
    9.8511  -15.9221   27.5360 O   0  0  0  0  0  0  0  0  0  0  0  0
  1  2  1  0
  2  3  1  0
  4  3  1  0
  5  1  1  0
  5  4  1  0
  5  6  1  1
  7  6  2  0
  8  6  1  0
  9  8  1  0
  9 10  1  6
 10 11  1  0
 11 12  1  0
 12 13  1  0
 13 14  1  0
 15 16  2  0
 15  9  1  0
 18 17  1  1
 19 18  1  0
 21 20  1  1
 20 18  1  0
 21 22  1  0
 22 15  1  0
 23 24  1  0
 23 21  1  0
 25 23  2  0
M  END
$$$$
