LTG.pdb
     RDKit          3D

 20 19  0  0  1  0  0  0  0  0999 V2000
    7.3421  -11.8821   27.9082 C   0  0  0  0  0  0  0  0  0  0  0  0
    6.5256  -12.9346   27.2005 C   0  0  1  0  0  0  0  0  0  0  0  0
    5.4919  -12.3375   26.2701 C   0  0  0  0  0  0  0  0  0  0  0  0
    7.4728  -13.8429   26.4496 C   0  0  0  0  0  0  0  0  0  0  0  0
    6.6836  -14.8725   25.6676 C   0  0  2  0  0  0  0  0  0  0  0  0
    6.0345  -15.8390   26.5347 N   0  0  0  0  0  0  0  0  0  0  0  0
    7.5688  -15.6197   24.7563 C   0  0  0  0  0  0  0  0  0  0  0  0
    8.0085  -16.7328   25.1240 O   0  0  0  0  0  0  0  0  0  0  0  0
    7.2382  -15.3210   20.7284 C   0  0  0  0  0  0  0  0  0  0  0  0
    8.6492  -15.7336   21.1480 C   0  0  1  0  0  0  0  0  0  0  0  0
    9.6146  -14.9495   20.5686 O   0  0  0  0  0  0  0  0  0  0  0  0
    8.7851  -15.9564   22.5973 C   0  0  2  0  0  0  0  0  0  0  0  0
    7.9815  -15.2055   23.4888 N   0  0  0  0  0  0  0  0  0  0  0  0
   10.2037  -15.7149   22.9758 C   0  0  0  0  0  0  0  0  0  0  0  0
   10.5530  -14.5953   23.4532 O   0  0  0  0  0  0  0  0  0  0  0  0
   11.2355  -16.6800   22.8383 N   0  0  0  0  0  0  0  0  0  0  0  0
   12.5808  -16.3648   23.3203 C   0  0  0  0  0  0  0  0  0  0  0  0
   13.5847  -16.4851   22.2586 C   0  0  0  0  0  0  0  0  0  0  0  0
   14.9138  -16.2570   22.5524 O   0  0  0  0  0  0  0  0  0  0  0  0
   13.2642  -16.7909   21.0879 O   0  0  0  0  0  0  0  0  0  0  0  0
  2  1  1  6
  3  2  1  0
  4  2  1  0
  5  4  1  0
  5  6  1  1
  7  5  1  0
  7  8  2  0
 10  9  1  1
 10 12  1  0
 11 10  1  0
 12 13  1  1
 13  7  1  0
 14 12  1  0
 14 16  1  0
 15 14  2  0
 16 17  1  0
 17 18  1  0
 18 20  2  0
 18 19  1  0
M  END
$$$$
