LTG.pdb
     RDKit          3D

 20 19  0  0  1  0  0  0  0  0999 V2000
    5.8196  -12.9066   26.2853 C   0  0  0  0  0  0  0  0  0  0  0  0
    7.2200  -13.4550   26.4013 C   0  0  1  0  0  0  0  0  0  0  0  0
    8.1340  -12.5469   27.1954 C   0  0  0  0  0  0  0  0  0  0  0  0
    7.1399  -14.8287   27.0281 C   0  0  0  0  0  0  0  0  0  0  0  0
    6.4743  -15.7923   26.0674 C   0  0  2  0  0  0  0  0  0  0  0  0
    6.1718  -17.0671   26.6926 N   0  0  0  0  0  0  0  0  0  0  0  0
    7.3519  -16.0619   24.9144 C   0  0  0  0  0  0  0  0  0  0  0  0
    8.2217  -16.9565   25.0173 O   0  0  0  0  0  0  0  0  0  0  0  0
    7.3273  -13.7655   21.2091 C   0  0  0  0  0  0  0  0  0  0  0  0
    7.6476  -15.2604   21.2186 C   0  0  1  0  0  0  0  0  0  0  0  0
    8.4347  -15.6307   20.1576 O   0  0  0  0  0  0  0  0  0  0  0  0
    8.0706  -15.7578   22.5384 C   0  0  2  0  0  0  0  0  0  0  0  0
    7.3150  -15.4059   23.6828 N   0  0  0  0  0  0  0  0  0  0  0  0
    9.4685  -15.3088   22.7806 C   0  0  0  0  0  0  0  0  0  0  0  0
    9.6920  -14.1722   23.2918 O   0  0  0  0  0  0  0  0  0  0  0  0
   10.6150  -16.0865   22.4712 N   0  0  0  0  0  0  0  0  0  0  0  0
   11.9432  -15.5673   22.7993 C   0  0  0  0  0  0  0  0  0  0  0  0
   13.0108  -16.4285   22.2814 C   0  0  0  0  0  0  0  0  0  0  0  0
   14.3286  -16.0833   22.5027 O   0  0  0  0  0  0  0  0  0  0  0  0
   12.7548  -17.4731   21.6411 O   0  0  0  0  0  0  0  0  0  0  0  0
  2  1  1  1
  3  2  1  0
  4  2  1  0
  5  4  1  0
  5  6  1  1
  7  5  1  0
  7  8  2  0
 10  9  1  1
 10 12  1  0
 11 10  1  0
 12 13  1  1
 13  7  1  0
 14 12  1  0
 14 16  1  0
 15 14  2  0
 16 17  1  0
 17 18  1  0
 18 20  2  0
 18 19  1  0
M  END
$$$$
