LTG.pdb
     RDKit          3D

 20 19  0  0  1  0  0  0  0  0999 V2000
    5.5830  -11.7362   26.3162 C   0  0  0  0  0  0  0  0  0  0  0  0
    6.8501  -12.5545   26.3279 C   0  0  1  0  0  0  0  0  0  0  0  0
    7.8301  -12.0900   27.3835 C   0  0  0  0  0  0  0  0  0  0  0  0
    6.4751  -14.0046   26.5347 C   0  0  0  0  0  0  0  0  0  0  0  0
    7.6789  -14.8871   26.2768 C   0  0  2  0  0  0  0  0  0  0  0  0
    8.9266  -14.1500   26.3635 N   0  0  0  0  0  0  0  0  0  0  0  0
    7.6071  -15.4789   24.9289 C   0  0  0  0  0  0  0  0  0  0  0  0
    6.6596  -16.2524   24.6618 O   0  0  0  0  0  0  0  0  0  0  0  0
    6.5484  -14.7567   21.6273 C   0  0  0  0  0  0  0  0  0  0  0  0
    7.9839  -15.2530   21.4527 C   0  0  1  0  0  0  0  0  0  0  0  0
    8.8000  -14.3000   20.8973 O   0  0  0  0  0  0  0  0  0  0  0  0
    8.5129  -15.9387   22.6436 C   0  0  2  0  0  0  0  0  0  0  0  0
    8.5105  -15.2618   23.8871 N   0  0  0  0  0  0  0  0  0  0  0  0
    9.9185  -16.3403   22.3654 C   0  0  0  0  0  0  0  0  0  0  0  0
   10.8779  -15.6184   22.7675 O   0  0  0  0  0  0  0  0  0  0  0  0
   10.2808  -17.5159   21.6571 N   0  0  0  0  0  0  0  0  0  0  0  0
   11.6964  -17.8567   21.5103 C   0  0  0  0  0  0  0  0  0  0  0  0
   11.8842  -19.1061   20.7665 C   0  0  0  0  0  0  0  0  0  0  0  0
   13.1624  -19.5323   20.4675 O   0  0  0  0  0  0  0  0  0  0  0  0
   10.9096  -19.7980   20.3946 O   0  0  0  0  0  0  0  0  0  0  0  0
  2  1  1  1
  3  2  1  0
  4  2  1  0
  5  4  1  0
  5  6  1  6
  7  5  1  0
  7  8  2  0
 10  9  1  1
 10 12  1  0
 11 10  1  0
 12 13  1  1
 13  7  1  0
 14 12  1  0
 14 16  1  0
 15 14  2  0
 16 17  1  0
 17 18  1  0
 18 20  2  0
 18 19  1  0
M  END
$$$$
