LTG.pdb
     RDKit          3D

 20 19  0  0  1  0  0  0  0  0999 V2000
    7.4292  -11.7691   27.6347 C   0  0  0  0  0  0  0  0  0  0  0  0
    6.6844  -13.0102   27.2101 C   0  0  1  0  0  0  0  0  0  0  0  0
    5.4103  -12.6924   26.4575 C   0  0  0  0  0  0  0  0  0  0  0  0
    7.6147  -13.8568   26.3711 C   0  0  0  0  0  0  0  0  0  0  0  0
    6.8801  -15.0831   25.8702 C   0  0  2  0  0  0  0  0  0  0  0  0
    6.7926  -16.1202   26.8823 N   0  0  0  0  0  0  0  0  0  0  0  0
    7.5720  -15.6601   24.7038 C   0  0  0  0  0  0  0  0  0  0  0  0
    8.2633  -16.6915   24.8646 O   0  0  0  0  0  0  0  0  0  0  0  0
    7.5151  -13.8934   20.7307 C   0  0  0  0  0  0  0  0  0  0  0  0
    7.6528  -15.4038   20.9232 C   0  0  1  0  0  0  0  0  0  0  0  0
    8.2977  -16.0056   19.8723 O   0  0  0  0  0  0  0  0  0  0  0  0
    8.1222  -15.7801   22.2672 C   0  0  2  0  0  0  0  0  0  0  0  0
    7.5375  -15.1636   23.3996 N   0  0  0  0  0  0  0  0  0  0  0  0
    9.5870  -15.5280   22.3377 C   0  0  0  0  0  0  0  0  0  0  0  0
   10.0272  -14.4936   22.9203 O   0  0  0  0  0  0  0  0  0  0  0  0
   10.5669  -16.3912   21.7811 N   0  0  0  0  0  0  0  0  0  0  0  0
   11.9771  -16.0036   21.8345 C   0  0  0  0  0  0  0  0  0  0  0  0
   12.6637  -16.5942   22.9874 C   0  0  0  0  0  0  0  0  0  0  0  0
   13.9908  -16.2913   23.2152 O   0  0  0  0  0  0  0  0  0  0  0  0
   12.0731  -17.3693   23.7731 O   0  0  0  0  0  0  0  0  0  0  0  0
  2  1  1  6
  3  2  1  0
  4  2  1  0
  5  4  1  0
  5  6  1  1
  7  5  1  0
  7  8  2  0
 10  9  1  6
 10 12  1  0
 11 10  1  0
 12 13  1  1
 13  7  1  0
 14 12  1  0
 14 16  1  0
 15 14  2  0
 16 17  1  0
 17 18  1  0
 18 20  2  0
 18 19  1  0
M  END
$$$$
