LTG.pdb
     RDKit          3D

 20 19  0  0  1  0  0  0  0  0999 V2000
    7.1016  -11.3148   27.6041 C   0  0  0  0  0  0  0  0  0  0  0  0
    6.2645  -12.2526   26.7703 C   0  0  1  0  0  0  0  0  0  0  0  0
    5.4395  -11.5245   25.7313 C   0  0  0  0  0  0  0  0  0  0  0  0
    7.1863  -13.2615   26.1234 C   0  0  0  0  0  0  0  0  0  0  0  0
    6.3692  -14.3200   25.4119 C   0  0  2  0  0  0  0  0  0  0  0  0
    5.4695  -15.0155   26.3143 N   0  0  0  0  0  0  0  0  0  0  0  0
    7.2512  -15.3302   24.8006 C   0  0  0  0  0  0  0  0  0  0  0  0
    7.3984  -16.4298   25.3810 O   0  0  0  0  0  0  0  0  0  0  0  0
    7.6715  -15.7158   20.7027 C   0  0  0  0  0  0  0  0  0  0  0  0
    8.9196  -16.1001   21.4976 C   0  0  1  0  0  0  0  0  0  0  0  0
   10.0180  -15.3650   21.1292 O   0  0  0  0  0  0  0  0  0  0  0  0
    8.6770  -16.2135   22.9456 C   0  0  2  0  0  0  0  0  0  0  0  0
    7.9614  -15.1868   23.6074 N   0  0  0  0  0  0  0  0  0  0  0  0
    9.9916  -16.3438   23.6305 C   0  0  0  0  0  0  0  0  0  0  0  0
   10.6992  -15.3169   23.8499 O   0  0  0  0  0  0  0  0  0  0  0  0
   10.5345  -17.5780   24.0744 N   0  0  0  0  0  0  0  0  0  0  0  0
   11.8169  -17.5848   24.7794 C   0  0  0  0  0  0  0  0  0  0  0  0
   12.0698  -18.8675   25.4429 C   0  0  0  0  0  0  0  0  0  0  0  0
   13.2485  -19.0517   26.1369 O   0  0  0  0  0  0  0  0  0  0  0  0
   11.2394  -19.8028   25.3951 O   0  0  0  0  0  0  0  0  0  0  0  0
  2  1  1  6
  3  2  1  0
  4  2  1  0
  5  4  1  0
  5  6  1  1
  7  5  1  0
  7  8  2  0
 10  9  1  6
 10 12  1  0
 11 10  1  0
 12 13  1  1
 13  7  1  0
 14 12  1  0
 14 16  1  0
 15 14  2  0
 16 17  1  0
 17 18  1  0
 18 20  2  0
 18 19  1  0
M  END
$$$$
