LTG.pdb
     RDKit          3D

 20 19  0  0  1  0  0  0  0  0999 V2000
    7.1512  -11.8385   27.7342 C   0  0  0  0  0  0  0  0  0  0  0  0
    6.4000  -12.9438   27.0345 C   0  0  1  0  0  0  0  0  0  0  0  0
    5.3303  -12.4174   26.1023 C   0  0  0  0  0  0  0  0  0  0  0  0
    7.4003  -13.7968   26.2878 C   0  0  0  0  0  0  0  0  0  0  0  0
    6.6797  -14.9121   25.5589 C   0  0  2  0  0  0  0  0  0  0  0  0
    6.0645  -15.8562   26.4741 N   0  0  0  0  0  0  0  0  0  0  0  0
    7.6190  -15.6666   24.7099 C   0  0  0  0  0  0  0  0  0  0  0  0
    8.1251  -16.7189   25.1616 O   0  0  0  0  0  0  0  0  0  0  0  0
    7.3201  -16.1218   20.6390 C   0  0  0  0  0  0  0  0  0  0  0  0
    8.7601  -15.9750   21.1312 C   0  0  1  0  0  0  0  0  0  0  0  0
    9.4059  -14.9172   20.5426 O   0  0  0  0  0  0  0  0  0  0  0  0
    8.8893  -16.0744   22.5947 C   0  0  2  0  0  0  0  0  0  0  0  0
    8.0161  -15.3221   23.4168 N   0  0  0  0  0  0  0  0  0  0  0  0
   10.2790  -15.6948   22.9676 C   0  0  0  0  0  0  0  0  0  0  0  0
   10.5188  -14.5457   23.4423 O   0  0  0  0  0  0  0  0  0  0  0  0
   11.3996  -16.5546   22.8273 N   0  0  0  0  0  0  0  0  0  0  0  0
   12.7337  -16.0536   23.1601 C   0  0  0  0  0  0  0  0  0  0  0  0
   13.7450  -16.5119   22.2025 C   0  0  0  0  0  0  0  0  0  0  0  0
   15.0710  -16.1903   22.4100 O   0  0  0  0  0  0  0  0  0  0  0  0
   13.4335  -17.1902   21.1977 O   0  0  0  0  0  0  0  0  0  0  0  0
  2  1  1  6
  3  2  1  0
  4  2  1  0
  5  4  1  0
  5  6  1  1
  7  5  1  0
  7  8  2  0
 10  9  1  1
 10 12  1  0
 11 10  1  0
 12 13  1  1
 13  7  1  0
 14 12  1  0
 14 16  1  0
 15 14  2  0
 16 17  1  0
 17 18  1  0
 18 20  2  0
 18 19  1  0
M  END
$$$$
