LTG.pdb
     RDKit          3D

 20 19  0  0  1  0  0  0  0  0999 V2000
    7.5708  -12.4569   20.0190 C   0  0  0  0  0  0  0  0  0  0  0  0
    7.9113  -13.6710   20.8469 C   0  0  1  0  0  0  0  0  0  0  0  0
    8.5396  -13.3088   22.1753 C   0  0  0  0  0  0  0  0  0  0  0  0
    6.6483  -14.4783   21.0448 C   0  0  0  0  0  0  0  0  0  0  0  0
    6.9700  -15.7599   21.7853 C   0  0  2  0  0  0  0  0  0  0  0  0
    8.1130  -15.6101   22.6677 N   0  0  0  0  0  0  0  0  0  0  0  0
    7.2834  -16.8417   20.8347 C   0  0  0  0  0  0  0  0  0  0  0  0
    6.3494  -17.5618   20.4144 O   0  0  0  0  0  0  0  0  0  0  0  0
    7.9074  -17.4831   17.2185 C   0  0  0  0  0  0  0  0  0  0  0  0
    9.1432  -17.8756   18.0284 C   0  0  1  0  0  0  0  0  0  0  0  0
   10.1921  -17.0143   17.8275 O   0  0  0  0  0  0  0  0  0  0  0  0
    8.8407  -18.2054   19.4313 C   0  0  2  0  0  0  0  0  0  0  0  0
    8.5491  -17.1582   20.3384 N   0  0  0  0  0  0  0  0  0  0  0  0
    9.9921  -18.9634   19.9915 C   0  0  0  0  0  0  0  0  0  0  0  0
   10.3876  -20.0268   19.4294 O   0  0  0  0  0  0  0  0  0  0  0  0
   10.7093  -18.5710   21.1520 N   0  0  0  0  0  0  0  0  0  0  0  0
   11.7799  -19.4309   21.6579 C   0  0  0  0  0  0  0  0  0  0  0  0
   13.0855  -19.0650   21.1000 C   0  0  0  0  0  0  0  0  0  0  0  0
   14.2351  -19.4059   21.7833 O   0  0  0  0  0  0  0  0  0  0  0  0
   13.1829  -18.4486   20.0149 O   0  0  0  0  0  0  0  0  0  0  0  0
  2  1  1  1
  3  2  1  0
  4  2  1  0
  5  4  1  0
  5  6  1  1
  7  5  1  0
  7  8  2  0
 10  9  1  1
 10 12  1  0
 11 10  1  0
 12 13  1  1
 13  7  1  0
 14 12  1  0
 14 16  1  0
 15 14  2  0
 16 17  1  0
 17 18  1  0
 18 20  2  0
 18 19  1  0
M  END
$$$$
