FIG.pdb
     RDKit          3D

 24 24  0  0  1  0  0  0  0  0999 V2000
   24.6428  -10.7786  -18.0991 N   0  0  0  0  0  0  0  0  0  0  0  0
   24.4801  -10.1989  -16.7543 C   0  0  1  0  0  0  0  0  0  0  0  0
   25.6700   -9.3729  -16.4045 C   0  0  0  0  0  0  0  0  0  0  0  0
   26.9632  -10.0058  -16.5659 C   0  0  0  0  0  0  0  0  0  0  0  0
   27.8771   -9.5020  -17.4615 C   0  0  0  0  0  0  0  0  0  0  0  0
   29.1243  -10.0751  -17.6497 C   0  0  0  0  0  0  0  0  0  0  0  0
   29.4638  -11.1793  -16.9230 C   0  0  0  0  0  0  0  0  0  0  0  0
   28.5862  -11.7107  -16.0238 C   0  0  0  0  0  0  0  0  0  0  0  0
   27.3364  -11.1196  -15.8491 C   0  0  0  0  0  0  0  0  0  0  0  0
   23.1855   -9.5264  -16.6972 C   0  0  0  0  0  0  0  0  0  0  0  0
   22.5453   -9.2389  -17.7581 O   0  0  0  0  0  0  0  0  0  0  0  0
   19.2475  -11.7674  -14.8927 C   0  0  0  0  0  0  0  0  0  0  0  0
   20.0641  -10.7440  -15.6108 C   0  0  0  0  0  0  0  0  0  0  0  0
   20.2832   -9.4950  -14.7668 C   0  0  2  0  0  0  0  0  0  0  0  0
   18.9441   -8.8500  -14.5545 C   0  0  0  0  0  0  0  0  0  0  0  0
   21.2141   -8.5244  -15.4907 C   0  0  2  0  0  0  0  0  0  0  0  0
   22.5253   -9.1359  -15.4830 N   0  0  0  0  0  0  0  0  0  0  0  0
   21.1959   -7.1898  -14.8893 C   0  0  0  0  0  0  0  0  0  0  0  0
   20.1284   -6.5184  -14.8339 O   0  0  0  0  0  0  0  0  0  0  0  0
   22.3494   -6.5591  -14.3337 N   0  0  0  0  0  0  0  0  0  0  0  0
   22.3152   -5.2913  -13.6716 C   0  0  0  0  0  0  0  0  0  0  0  0
   22.1416   -4.1513  -14.5684 C   0  0  0  0  0  0  0  0  0  0  0  0
   21.9964   -4.3308  -15.7959 O   0  0  0  0  0  0  0  0  0  0  0  0
   22.1345   -2.8616  -14.0808 O   0  0  0  0  0  0  0  0  0  0  0  0
  2 10  1  0
  2  1  1  6
  3  2  1  0
  4  5  2  0
  4  3  1  0
  6  5  1  0
  7  6  2  0
  8  7  1  0
  8  9  2  0
  9  4  1  0
 10 11  2  0
 12 13  1  0
 14 15  1  6
 14 13  1  0
 16 14  1  0
 16 17  1  1
 17 10  1  0
 18 16  1  0
 19 18  2  0
 20 18  1  0
 21 20  1  0
 22 24  1  0
 22 21  1  0
 23 22  2  0
M  END
$$$$
