FIG.pdb
     RDKit          3D

 24 24  0  0  1  0  0  0  0  0999 V2000
   20.8739  -12.2300  -18.6225 N   0  0  0  0  0  0  0  0  0  0  0  0
   21.3420  -10.8343  -18.6857 C   0  0  1  0  0  0  0  0  0  0  0  0
   20.2466   -9.9473  -19.1694 C   0  0  0  0  0  0  0  0  0  0  0  0
   19.7919  -10.1676  -20.5272 C   0  0  0  0  0  0  0  0  0  0  0  0
   20.5748   -9.7896  -21.5928 C   0  0  0  0  0  0  0  0  0  0  0  0
   20.1800   -9.9795  -22.9071 C   0  0  0  0  0  0  0  0  0  0  0  0
   18.9719  -10.5621  -23.1596 C   0  0  0  0  0  0  0  0  0  0  0  0
   18.1649  -10.9519  -22.1311 C   0  0  0  0  0  0  0  0  0  0  0  0
   18.5801  -10.7521  -20.8159 C   0  0  0  0  0  0  0  0  0  0  0  0
   21.9333  -10.4890  -17.3963 C   0  0  0  0  0  0  0  0  0  0  0  0
   21.3532  -10.7880  -16.3044 O   0  0  0  0  0  0  0  0  0  0  0  0
   26.6876  -11.8777  -16.2376 C   0  0  0  0  0  0  0  0  0  0  0  0
   25.2712  -11.4210  -16.1164 C   0  0  0  0  0  0  0  0  0  0  0  0
   25.1727   -9.9126  -15.9282 C   0  0  2  0  0  0  0  0  0  0  0  0
   25.8042   -9.5777  -14.6078 C   0  0  0  0  0  0  0  0  0  0  0  0
   23.7096   -9.4745  -15.9260 C   0  0  2  0  0  0  0  0  0  0  0  0
   23.1845   -9.8028  -17.2335 N   0  0  0  0  0  0  0  0  0  0  0  0
   23.5575   -8.0599  -15.5812 C   0  0  0  0  0  0  0  0  0  0  0  0
   24.0963   -7.1600  -16.2835 O   0  0  0  0  0  0  0  0  0  0  0  0
   22.8099   -7.5980  -14.4565 N   0  0  0  0  0  0  0  0  0  0  0  0
   22.7151   -6.2205  -14.0822 C   0  0  0  0  0  0  0  0  0  0  0  0
   21.6842   -5.4741  -14.7991 C   0  0  0  0  0  0  0  0  0  0  0  0
   21.4453   -4.2846  -14.5024 O   0  0  0  0  0  0  0  0  0  0  0  0
   20.9582   -6.0642  -15.8120 O   0  0  0  0  0  0  0  0  0  0  0  0
  2 10  1  0
  2  1  1  1
  3  2  1  0
  4  5  2  0
  4  3  1  0
  6  5  1  0
  7  6  2  0
  8  7  1  0
  8  9  2  0
  9  4  1  0
 10 11  2  0
 12 13  1  0
 14 15  1  1
 14 13  1  0
 16 14  1  0
 16 17  1  6
 17 10  1  0
 18 16  1  0
 19 18  2  0
 20 18  1  0
 21 20  1  0
 22 24  1  0
 22 21  1  0
 23 22  2  0
M  END
$$$$
