FIG.pdb
     RDKit          3D

 24 24  0  0  1  0  0  0  0  0999 V2000
   23.7769  -21.0707  -15.2428 N   0  0  0  0  0  0  0  0  0  0  0  0
   23.1861  -20.0315  -16.1042 C   0  0  1  0  0  0  0  0  0  0  0  0
   21.7466  -20.3271  -16.3508 C   0  0  0  0  0  0  0  0  0  0  0  0
   21.0382  -19.4033  -17.2133 C   0  0  0  0  0  0  0  0  0  0  0  0
   20.1483  -18.4993  -16.6823 C   0  0  0  0  0  0  0  0  0  0  0  0
   19.4482  -17.5987  -17.4685 C   0  0  0  0  0  0  0  0  0  0  0  0
   19.6446  -17.6042  -18.8191 C   0  0  0  0  0  0  0  0  0  0  0  0
   20.5186  -18.4849  -19.3861 C   0  0  0  0  0  0  0  0  0  0  0  0
   21.2133  -19.3829  -18.5780 C   0  0  0  0  0  0  0  0  0  0  0  0
   23.4891  -18.7265  -15.5240 C   0  0  0  0  0  0  0  0  0  0  0  0
   23.3456  -18.5101  -14.2787 O   0  0  0  0  0  0  0  0  0  0  0  0
   27.7032  -17.2149  -16.4798 C   0  0  0  0  0  0  0  0  0  0  0  0
   26.5905  -16.9974  -15.5081 C   0  0  0  0  0  0  0  0  0  0  0  0
   25.6262  -15.9161  -15.9786 C   0  0  2  0  0  0  0  0  0  0  0  0
   25.9828  -14.6464  -15.2610 C   0  0  0  0  0  0  0  0  0  0  0  0
   24.1882  -16.3094  -15.6467 C   0  0  2  0  0  0  0  0  0  0  0  0
   23.9637  -17.5953  -16.2707 N   0  0  0  0  0  0  0  0  0  0  0  0
   23.2261  -15.2886  -16.0654 C   0  0  0  0  0  0  0  0  0  0  0  0
   23.0366  -15.0392  -17.2882 O   0  0  0  0  0  0  0  0  0  0  0  0
   22.4479  -14.5160  -15.1519 N   0  0  0  0  0  0  0  0  0  0  0  0
   21.4691  -13.5566  -15.5621 C   0  0  0  0  0  0  0  0  0  0  0  0
   22.0194  -12.2468  -15.9021 C   0  0  0  0  0  0  0  0  0  0  0  0
   23.2549  -12.0643  -15.9090 O   0  0  0  0  0  0  0  0  0  0  0  0
   21.1907  -11.1918  -16.2204 O   0  0  0  0  0  0  0  0  0  0  0  0
  2 10  1  0
  2  1  1  1
  3  2  1  0
  4  5  2  0
  4  3  1  0
  6  5  1  0
  7  6  2  0
  8  7  1  0
  8  9  2  0
  9  4  1  0
 10 11  2  0
 12 13  1  0
 14 15  1  1
 14 13  1  0
 16 14  1  0
 16 17  1  6
 17 10  1  0
 18 16  1  0
 19 18  2  0
 20 18  1  0
 21 20  1  0
 22 24  1  0
 22 21  1  0
 23 22  2  0
M  END
$$$$
