FIG.pdb
     RDKit          3D

 24 24  0  0  1  0  0  0  0  0999 V2000
   19.8060  -12.7714  -19.0082 N   0  0  0  0  0  0  0  0  0  0  0  0
   20.4750  -11.4649  -19.1367 C   0  0  1  0  0  0  0  0  0  0  0  0
   19.7865  -10.6351  -20.1652 C   0  0  0  0  0  0  0  0  0  0  0  0
   19.8675  -11.1066  -21.5327 C   0  0  0  0  0  0  0  0  0  0  0  0
   20.9833  -10.8461  -22.2932 C   0  0  0  0  0  0  0  0  0  0  0  0
   21.1037  -11.2761  -23.6047 C   0  0  0  0  0  0  0  0  0  0  0  0
   20.0815  -11.9840  -24.1675 C   0  0  0  0  0  0  0  0  0  0  0  0
   18.9571  -12.2639  -23.4476 C   0  0  0  0  0  0  0  0  0  0  0  0
   18.8553  -11.8225  -22.1297 C   0  0  0  0  0  0  0  0  0  0  0  0
   20.5960  -10.8775  -17.8056 C   0  0  0  0  0  0  0  0  0  0  0  0
   19.6685  -11.0019  -16.9440 O   0  0  0  0  0  0  0  0  0  0  0  0
   24.0356  -12.1970  -14.5943 C   0  0  0  0  0  0  0  0  0  0  0  0
   22.8120  -11.5729  -15.1799 C   0  0  0  0  0  0  0  0  0  0  0  0
   22.9457  -10.0603  -15.3007 C   0  0  2  0  0  0  0  0  0  0  0  0
   22.9903   -9.4961  -13.9100 C   0  0  0  0  0  0  0  0  0  0  0  0
   21.7491   -9.4823  -16.0535 C   0  0  2  0  0  0  0  0  0  0  0  0
   21.7324  -10.1278  -17.3482 N   0  0  0  0  0  0  0  0  0  0  0  0
   21.8028   -8.0217  -16.1372 C   0  0  0  0  0  0  0  0  0  0  0  0
   22.7771   -7.4395  -16.6896 O   0  0  0  0  0  0  0  0  0  0  0  0
   20.7879   -7.1639  -15.6165 N   0  0  0  0  0  0  0  0  0  0  0  0
   20.8187   -5.7387  -15.7380 C   0  0  0  0  0  0  0  0  0  0  0  0
   21.5134   -5.0590  -14.6475 C   0  0  0  0  0  0  0  0  0  0  0  0
   21.9313   -5.7070  -13.6650 O   0  0  0  0  0  0  0  0  0  0  0  0
   21.7207   -3.6963  -14.6806 O   0  0  0  0  0  0  0  0  0  0  0  0
  2 10  1  0
  2  1  1  1
  3  2  1  0
  4  5  2  0
  4  3  1  0
  6  5  1  0
  7  6  2  0
  8  7  1  0
  8  9  2  0
  9  4  1  0
 10 11  2  0
 12 13  1  0
 14 15  1  1
 14 13  1  0
 16 14  1  0
 16 17  1  6
 17 10  1  0
 18 16  1  0
 19 18  2  0
 20 18  1  0
 21 20  1  0
 22 24  1  0
 22 21  1  0
 23 22  2  0
M  END
$$$$
