FIG.pdb
     RDKit          3D

 24 24  0  0  1  0  0  0  0  0999 V2000
   27.7418  -19.0414  -15.8192 N   0  0  0  0  0  0  0  0  0  0  0  0
   26.7923  -18.4898  -14.8368 C   0  0  1  0  0  0  0  0  0  0  0  0
   25.9123  -17.4778  -15.4863 C   0  0  0  0  0  0  0  0  0  0  0  0
   26.5532  -16.2559  -15.9281 C   0  0  0  0  0  0  0  0  0  0  0  0
   26.8093  -15.2425  -15.0343 C   0  0  0  0  0  0  0  0  0  0  0  0
   27.4186  -14.0571  -15.4121 C   0  0  0  0  0  0  0  0  0  0  0  0
   27.7800  -13.8830  -16.7167 C   0  0  0  0  0  0  0  0  0  0  0  0
   27.5440  -14.8635  -17.6352 C   0  0  0  0  0  0  0  0  0  0  0  0
   26.9299  -16.0488  -17.2352 C   0  0  0  0  0  0  0  0  0  0  0  0
   26.1194  -19.6024  -14.1730 C   0  0  0  0  0  0  0  0  0  0  0  0
   25.9236  -20.7066  -14.7736 O   0  0  0  0  0  0  0  0  0  0  0  0
   27.4794  -20.9156   -9.3364 C   0  0  0  0  0  0  0  0  0  0  0  0
   26.9304  -21.0647  -10.7170 C   0  0  0  0  0  0  0  0  0  0  0  0
   25.4386  -20.7618  -10.7729 C   0  0  2  0  0  0  0  0  0  0  0  0
   24.7237  -21.8664  -10.0497 C   0  0  0  0  0  0  0  0  0  0  0  0
   24.9649  -20.7043  -12.2238 C   0  0  2  0  0  0  0  0  0  0  0  0
   25.6285  -19.5672  -12.8237 N   0  0  0  0  0  0  0  0  0  0  0  0
   23.5058  -20.6414  -12.3260 C   0  0  0  0  0  0  0  0  0  0  0  0
   22.8822  -19.5786  -12.0525 O   0  0  0  0  0  0  0  0  0  0  0  0
   22.6952  -21.7440  -12.7310 N   0  0  0  0  0  0  0  0  0  0  0  0
   21.2684  -21.6860  -12.8185 C   0  0  0  0  0  0  0  0  0  0  0  0
   20.7656  -21.2106  -14.1050 C   0  0  0  0  0  0  0  0  0  0  0  0
   20.6376  -19.9868  -14.3189 O   0  0  0  0  0  0  0  0  0  0  0  0
   20.4240  -22.0982  -15.1033 O   0  0  0  0  0  0  0  0  0  0  0  0
  2 10  1  0
  2  1  1  6
  3  2  1  0
  4  5  2  0
  4  3  1  0
  6  5  1  0
  7  6  2  0
  8  7  1  0
  8  9  2  0
  9  4  1  0
 10 11  2  0
 12 13  1  0
 14 15  1  1
 14 13  1  0
 16 14  1  0
 16 17  1  1
 17 10  1  0
 18 16  1  0
 19 18  2  0
 20 18  1  0
 21 20  1  0
 22 24  1  0
 22 21  1  0
 23 22  2  0
M  END
$$$$
