FIG.pdb
     RDKit          3D

 24 24  0  0  1  0  0  0  0  0999 V2000
   21.4208  -10.9769  -19.2685 N   0  0  0  0  0  0  0  0  0  0  0  0
   22.0555   -9.6575  -19.1022 C   0  0  1  0  0  0  0  0  0  0  0  0
   21.9408   -8.8707  -20.3625 C   0  0  0  0  0  0  0  0  0  0  0  0
   22.6644   -9.3820  -21.5088 C   0  0  0  0  0  0  0  0  0  0  0  0
   21.9839   -9.8737  -22.5980 C   0  0  0  0  0  0  0  0  0  0  0  0
   22.6340  -10.3734  -23.7148 C   0  0  0  0  0  0  0  0  0  0  0  0
   23.9986  -10.3804  -23.7406 C   0  0  0  0  0  0  0  0  0  0  0  0
   24.7116   -9.9016  -22.6808 C   0  0  0  0  0  0  0  0  0  0  0  0
   24.0390   -9.4033  -21.5667 C   0  0  0  0  0  0  0  0  0  0  0  0
   21.5128   -9.0348  -17.8984 C   0  0  0  0  0  0  0  0  0  0  0  0
   20.3129   -9.2447  -17.5319 O   0  0  0  0  0  0  0  0  0  0  0  0
   22.9694  -10.4869  -13.6535 C   0  0  0  0  0  0  0  0  0  0  0  0
   22.2763   -9.7900  -14.7776 C   0  0  0  0  0  0  0  0  0  0  0  0
   22.3830   -8.2749  -14.6611 C   0  0  2  0  0  0  0  0  0  0  0  0
   21.7313   -7.8719  -13.3699 C   0  0  0  0  0  0  0  0  0  0  0  0
   21.6678   -7.6031  -15.8314 C   0  0  2  0  0  0  0  0  0  0  0  0
   22.2502   -8.1551  -17.0353 N   0  0  0  0  0  0  0  0  0  0  0  0
   21.7530   -6.1431  -15.7658 C   0  0  0  0  0  0  0  0  0  0  0  0
   22.8515   -5.5679  -15.5294 O   0  0  0  0  0  0  0  0  0  0  0  0
   20.6341   -5.2781  -15.9580 N   0  0  0  0  0  0  0  0  0  0  0  0
   20.7247   -3.8506  -15.9306 C   0  0  0  0  0  0  0  0  0  0  0  0
   20.5442   -3.2640  -14.6050 C   0  0  0  0  0  0  0  0  0  0  0  0
   20.2997   -3.9929  -13.6207 O   0  0  0  0  0  0  0  0  0  0  0  0
   20.6396   -1.9017  -14.4147 O   0  0  0  0  0  0  0  0  0  0  0  0
  2 10  1  0
  2  1  1  6
  3  2  1  0
  4  5  2  0
  4  3  1  0
  6  5  1  0
  7  6  2  0
  8  7  1  0
  8  9  2  0
  9  4  1  0
 10 11  2  0
 12 13  1  0
 14 15  1  1
 14 13  1  0
 16 14  1  0
 16 17  1  6
 17 10  1  0
 18 16  1  0
 19 18  2  0
 20 18  1  0
 21 20  1  0
 22 24  1  0
 22 21  1  0
 23 22  2  0
M  END
$$$$
