FIG.pdb
     RDKit          3D

 24 24  0  0  1  0  0  0  0  0999 V2000
   24.5907  -19.9500   -8.3425 N   0  0  0  0  0  0  0  0  0  0  0  0
   25.8662  -19.9514   -9.0801 C   0  0  1  0  0  0  0  0  0  0  0  0
   26.8692  -20.7930   -8.3685 C   0  0  0  0  0  0  0  0  0  0  0  0
   27.3701  -20.2737   -7.1121 C   0  0  0  0  0  0  0  0  0  0  0  0
   28.2045  -19.1807   -7.0946 C   0  0  0  0  0  0  0  0  0  0  0  0
   28.7082  -18.6512   -5.9176 C   0  0  0  0  0  0  0  0  0  0  0  0
   28.3674  -19.2308   -4.7299 C   0  0  0  0  0  0  0  0  0  0  0  0
   27.5421  -20.3167   -4.7032 C   0  0  0  0  0  0  0  0  0  0  0  0
   27.0459  -20.8344   -5.8981 C   0  0  0  0  0  0  0  0  0  0  0  0
   25.5931  -20.3054  -10.4699 C   0  0  0  0  0  0  0  0  0  0  0  0
   24.5003  -20.8638  -10.8049 O   0  0  0  0  0  0  0  0  0  0  0  0
   27.0872  -16.7560  -13.9620 C   0  0  0  0  0  0  0  0  0  0  0  0
   26.2903  -17.8554  -13.3406 C   0  0  0  0  0  0  0  0  0  0  0  0
   26.7832  -19.2306  -13.7719 C   0  0  2  0  0  0  0  0  0  0  0  0
   26.4213  -19.4096  -15.2181 C   0  0  0  0  0  0  0  0  0  0  0  0
   26.1141  -20.3186  -12.9346 C   0  0  2  0  0  0  0  0  0  0  0  0
   26.4954  -20.0677  -11.5617 N   0  0  0  0  0  0  0  0  0  0  0  0
   26.4649  -21.6634  -13.3947 C   0  0  0  0  0  0  0  0  0  0  0  0
   27.6697  -22.0361  -13.4491 O   0  0  0  0  0  0  0  0  0  0  0  0
   25.5016  -22.6326  -13.8066 N   0  0  0  0  0  0  0  0  0  0  0  0
   25.8421  -23.9588  -14.2212 C   0  0  0  0  0  0  0  0  0  0  0  0
   26.1078  -24.0899  -15.6516 C   0  0  0  0  0  0  0  0  0  0  0  0
   25.9872  -23.1037  -16.4085 O   0  0  0  0  0  0  0  0  0  0  0  0
   26.4948  -25.2980  -16.1920 O   0  0  0  0  0  0  0  0  0  0  0  0
  2 10  1  0
  2  1  1  1
  3  2  1  0
  4  5  2  0
  4  3  1  0
  6  5  1  0
  7  6  2  0
  8  7  1  0
  8  9  2  0
  9  4  1  0
 10 11  2  0
 12 13  1  0
 14 15  1  6
 14 13  1  0
 16 14  1  0
 16 17  1  1
 17 10  1  0
 18 16  1  0
 19 18  2  0
 20 18  1  0
 21 20  1  0
 22 24  1  0
 22 21  1  0
 23 22  2  0
M  END
$$$$
