PAW.pdb
     RDKit          3D

 27 29  0  0  1  0  0  0  0  0999 V2000
    7.0251  -18.7272   20.1352 N   0  0  0  0  0  0  0  0  0  0  0  0
    7.0290  -18.4750   18.7191 C   0  0  0  0  0  0  0  0  0  0  0  0
    8.4223  -18.8406   18.2246 C   0  0  0  0  0  0  0  0  0  0  0  0
    9.1350  -19.3671   19.4689 C   0  0  0  0  0  0  0  0  0  0  0  0
    8.4065  -18.6124   20.5590 C   0  0  1  0  0  0  0  0  0  0  0  0
    8.7801  -17.1780   20.5163 C   0  0  0  0  0  0  0  0  0  0  0  0
    9.8763  -16.8046   20.0388 O   0  0  0  0  0  0  0  0  0  0  0  0
    7.2384  -13.8224   21.3918 C   0  0  0  0  0  0  0  0  0  0  0  0
    8.3792  -14.8397   21.3363 C   0  0  2  0  0  0  0  0  0  0  0  0
    7.8977  -16.1533   21.0223 N   0  0  0  0  0  0  0  0  0  0  0  0
    9.1660  -14.8139   22.5989 C   0  0  0  0  0  0  0  0  0  0  0  0
    9.7649  -13.7548   22.8979 O   0  0  0  0  0  0  0  0  0  0  0  0
    9.2576  -15.9354   23.4623 N   0  0  0  0  0  0  0  0  0  0  0  0
    9.9991  -16.0073   24.6855 C   0  0  1  0  0  0  0  0  0  0  0  0
    9.1583  -16.2835   25.9247 C   0  0  0  0  0  0  0  0  0  0  0  0
    7.8421  -15.6281   25.8001 C   0  0  0  0  0  0  0  0  0  0  0  0
    6.6457  -16.1436   25.3923 C   0  0  0  0  0  0  0  0  0  0  0  0
    5.6923  -15.1678   25.4450 N   0  0  0  0  0  0  0  0  0  0  0  0
    6.2289  -14.0212   25.8776 C   0  0  0  0  0  0  0  0  0  0  0  0
    5.6870  -12.7596   26.1027 C   0  0  0  0  0  0  0  0  0  0  0  0
    6.4820  -11.7487   26.5588 C   0  0  0  0  0  0  0  0  0  0  0  0
    7.8080  -12.0005   26.7871 C   0  0  0  0  0  0  0  0  0  0  0  0
    8.3431  -13.2489   26.5641 C   0  0  0  0  0  0  0  0  0  0  0  0
    7.5677  -14.2880   26.1044 C   0  0  0  0  0  0  0  0  0  0  0  0
   11.1965  -16.8449   24.6553 C   0  0  0  0  0  0  0  0  0  0  0  0
   12.0717  -16.8051   25.7528 O   0  0  0  0  0  0  0  0  0  0  0  0
   11.5089  -17.6084   23.7115 O   0  0  0  0  0  0  0  0  0  0  0  0
  1  2  1  0
  3  2  1  0
  4  5  1  0
  4  3  1  0
  5  6  1  6
  5  1  1  0
  6  7  2  0
  9  8  1  1
  9 11  1  0
 10  9  1  0
 10  6  1  0
 11 13  1  0
 11 12  2  0
 13 14  1  0
 14 25  1  0
 14 15  1  1
 16 15  1  0
 16 17  2  0
 18 17  1  0
 19 18  1  0
 20 19  2  0
 21 20  1  0
 22 21  2  0
 22 23  1  0
 23 24  2  0
 24 19  1  0
 24 16  1  0
 25 27  2  0
 25 26  1  0
M  END
$$$$
