PAW.pdb
     RDKit          3D

 27 29  0  0  1  0  0  0  0  0999 V2000
    8.4991  -14.3764   18.1071 N   0  0  0  0  0  0  0  0  0  0  0  0
    7.1105  -14.0813   18.3388 C   0  0  0  0  0  0  0  0  0  0  0  0
    7.0788  -12.9622   19.3713 C   0  0  0  0  0  0  0  0  0  0  0  0
    8.5513  -12.6406   19.6201 C   0  0  0  0  0  0  0  0  0  0  0  0
    9.1932  -13.9759   19.3150 C   0  0  1  0  0  0  0  0  0  0  0  0
    8.8583  -14.9523   20.3796 C   0  0  0  0  0  0  0  0  0  0  0  0
    8.1091  -14.6427   21.3346 O   0  0  0  0  0  0  0  0  0  0  0  0
    9.8400  -18.5490   21.2132 C   0  0  0  0  0  0  0  0  0  0  0  0
    9.2823  -17.1552   21.5057 C   0  0  2  0  0  0  0  0  0  0  0  0
    9.3807  -16.2981   20.3604 N   0  0  0  0  0  0  0  0  0  0  0  0
    9.9379  -16.5700   22.7065 C   0  0  0  0  0  0  0  0  0  0  0  0
   10.9242  -15.8175   22.5309 O   0  0  0  0  0  0  0  0  0  0  0  0
    9.4871  -16.8340   24.0251 N   0  0  0  0  0  0  0  0  0  0  0  0
   10.1356  -16.4391   25.2395 C   0  0  1  0  0  0  0  0  0  0  0  0
    9.8645  -15.0034   25.6685 C   0  0  0  0  0  0  0  0  0  0  0  0
    8.4117  -14.7789   25.7968 C   0  0  0  0  0  0  0  0  0  0  0  0
    7.3792  -15.6659   25.6934 C   0  0  0  0  0  0  0  0  0  0  0  0
    6.1990  -15.0102   25.8953 N   0  0  0  0  0  0  0  0  0  0  0  0
    6.4260  -13.7128   26.1300 C   0  0  0  0  0  0  0  0  0  0  0  0
    5.5734  -12.6451   26.3924 C   0  0  0  0  0  0  0  0  0  0  0  0
    6.0877  -11.3985   26.6013 C   0  0  0  0  0  0  0  0  0  0  0  0
    7.4443  -11.2243   26.5476 C   0  0  0  0  0  0  0  0  0  0  0  0
    8.2870  -12.2812   26.2879 C   0  0  0  0  0  0  0  0  0  0  0  0
    7.7990  -13.5493   26.0730 C   0  0  0  0  0  0  0  0  0  0  0  0
   10.0029  -17.3658   26.3619 C   0  0  0  0  0  0  0  0  0  0  0  0
    9.1362  -18.4626   26.2283 O   0  0  0  0  0  0  0  0  0  0  0  0
   10.6117  -17.2568   27.4523 O   0  0  0  0  0  0  0  0  0  0  0  0
  1  2  1  0
  3  2  1  0
  4  5  1  0
  4  3  1  0
  5  6  1  1
  5  1  1  0
  6  7  2  0
  9  8  1  6
  9 11  1  0
 10  9  1  0
 10  6  1  0
 11 13  1  0
 11 12  2  0
 13 14  1  0
 14 25  1  0
 14 15  1  1
 16 15  1  0
 16 17  2  0
 18 17  1  0
 19 18  1  0
 20 19  2  0
 21 20  1  0
 22 21  2  0
 22 23  1  0
 23 24  2  0
 24 19  1  0
 24 16  1  0
 25 27  2  0
 25 26  1  0
M  END
$$$$
