PAW.pdb
     RDKit          3D

 27 29  0  0  1  0  0  0  0  0999 V2000
    6.3677  -18.8800   21.4771 N   0  0  0  0  0  0  0  0  0  0  0  0
    5.5827  -18.2309   20.4616 C   0  0  0  0  0  0  0  0  0  0  0  0
    6.2730  -18.5244   19.1362 C   0  0  0  0  0  0  0  0  0  0  0  0
    7.4425  -19.4309   19.5159 C   0  0  0  0  0  0  0  0  0  0  0  0
    7.7084  -18.9787   20.9348 C   0  0  1  0  0  0  0  0  0  0  0  0
    8.3003  -17.6191   20.9290 C   0  0  0  0  0  0  0  0  0  0  0  0
    9.4326  -17.4042   20.4384 O   0  0  0  0  0  0  0  0  0  0  0  0
    7.1965  -14.0787   21.6820 C   0  0  0  0  0  0  0  0  0  0  0  0
    8.2275  -15.2066   21.6182 C   0  0  2  0  0  0  0  0  0  0  0  0
    7.5979  -16.4882   21.4877 N   0  0  0  0  0  0  0  0  0  0  0  0
    9.1445  -15.1449   22.7885 C   0  0  0  0  0  0  0  0  0  0  0  0
    9.9624  -14.1975   22.8463 O   0  0  0  0  0  0  0  0  0  0  0  0
    9.1214  -16.1117   23.8259 N   0  0  0  0  0  0  0  0  0  0  0  0
   10.0489  -16.2140   24.9125 C   0  0  1  0  0  0  0  0  0  0  0  0
    9.4685  -15.8765   26.2792 C   0  0  0  0  0  0  0  0  0  0  0  0
    8.0753  -15.4117   26.1371 C   0  0  0  0  0  0  0  0  0  0  0  0
    6.9520  -16.1112   25.8015 C   0  0  0  0  0  0  0  0  0  0  0  0
    5.8784  -15.2680   25.8016 N   0  0  0  0  0  0  0  0  0  0  0  0
    6.2641  -14.0295   26.1292 C   0  0  0  0  0  0  0  0  0  0  0  0
    5.5629  -12.8359   26.2682 C   0  0  0  0  0  0  0  0  0  0  0  0
    6.2232  -11.6957   26.6232 C   0  0  0  0  0  0  0  0  0  0  0  0
    7.5741  -11.7519   26.8368 C   0  0  0  0  0  0  0  0  0  0  0  0
    8.2670  -12.9333   26.6989 C   0  0  0  0  0  0  0  0  0  0  0  0
    7.6298  -14.0990   26.3421 C   0  0  0  0  0  0  0  0  0  0  0  0
   10.8430  -17.4402   24.9577 C   0  0  0  0  0  0  0  0  0  0  0  0
   10.4932  -18.4986   24.1036 O   0  0  0  0  0  0  0  0  0  0  0  0
   11.8277  -17.6246   25.7112 O   0  0  0  0  0  0  0  0  0  0  0  0
  1  2  1  0
  3  2  1  0
  4  5  1  0
  4  3  1  0
  5  6  1  6
  5  1  1  0
  6  7  2  0
  9  8  1  1
  9 11  1  0
 10  9  1  0
 10  6  1  0
 11 13  1  0
 11 12  2  0
 13 14  1  0
 14 25  1  0
 14 15  1  1
 16 15  1  0
 16 17  2  0
 18 17  1  0
 19 18  1  0
 20 19  2  0
 21 20  1  0
 22 21  2  0
 22 23  1  0
 23 24  2  0
 24 19  1  0
 24 16  1  0
 25 27  2  0
 25 26  1  0
M  END
$$$$
