PAW.pdb
     RDKit          3D

 27 29  0  0  1  0  0  0  0  0999 V2000
    7.0924  -18.8090   20.0749 N   0  0  0  0  0  0  0  0  0  0  0  0
    6.3346  -18.2844   18.9706 C   0  0  0  0  0  0  0  0  0  0  0  0
    7.2510  -18.3483   17.7559 C   0  0  0  0  0  0  0  0  0  0  0  0
    8.5252  -19.0060   18.2824 C   0  0  0  0  0  0  0  0  0  0  0  0
    8.4846  -18.5897   19.7361 C   0  0  1  0  0  0  0  0  0  0  0  0
    8.7602  -17.1374   19.8534 C   0  0  0  0  0  0  0  0  0  0  0  0
    9.8324  -16.6424   19.4359 O   0  0  0  0  0  0  0  0  0  0  0  0
    7.0114  -14.1446   21.4555 C   0  0  0  0  0  0  0  0  0  0  0  0
    8.2144  -14.9809   21.0165 C   0  0  2  0  0  0  0  0  0  0  0  0
    7.8061  -16.2345   20.4527 N   0  0  0  0  0  0  0  0  0  0  0  0
    9.1713  -15.1537   22.1428 C   0  0  0  0  0  0  0  0  0  0  0  0
   10.2027  -14.4424   22.1536 O   0  0  0  0  0  0  0  0  0  0  0  0
    8.9549  -16.0855   23.1899 N   0  0  0  0  0  0  0  0  0  0  0  0
    9.7662  -16.2541   24.3581 C   0  0  1  0  0  0  0  0  0  0  0  0
    9.6682  -15.1208   25.3705 C   0  0  0  0  0  0  0  0  0  0  0  0
    8.2544  -14.8587   25.7021 C   0  0  0  0  0  0  0  0  0  0  0  0
    7.1916  -15.7151   25.7306 C   0  0  0  0  0  0  0  0  0  0  0  0
    6.0706  -15.0308   26.1032 N   0  0  0  0  0  0  0  0  0  0  0  0
    6.3663  -13.7445   26.3219 C   0  0  0  0  0  0  0  0  0  0  0  0
    5.5902  -12.6585   26.7146 C   0  0  0  0  0  0  0  0  0  0  0  0
    6.1652  -11.4304   26.8671 C   0  0  0  0  0  0  0  0  0  0  0  0
    7.5060  -11.2926   26.6282 C   0  0  0  0  0  0  0  0  0  0  0  0
    8.2729  -12.3676   26.2398 C   0  0  0  0  0  0  0  0  0  0  0  0
    7.7225  -13.6178   26.0773 C   0  0  0  0  0  0  0  0  0  0  0  0
    9.6810  -17.5601   25.0089 C   0  0  0  0  0  0  0  0  0  0  0  0
   10.5857  -17.8562   26.0412 O   0  0  0  0  0  0  0  0  0  0  0  0
    8.8504  -18.4511   24.7132 O   0  0  0  0  0  0  0  0  0  0  0  0
  1  2  1  0
  3  2  1  0
  4  5  1  0
  4  3  1  0
  5  6  1  6
  5  1  1  0
  6  7  2  0
  9  8  1  1
  9 11  1  0
 10  9  1  0
 10  6  1  0
 11 13  1  0
 11 12  2  0
 13 14  1  0
 14 25  1  0
 14 15  1  1
 16 15  1  0
 16 17  2  0
 18 17  1  0
 19 18  1  0
 20 19  2  0
 21 20  1  0
 22 21  2  0
 22 23  1  0
 23 24  2  0
 24 19  1  0
 24 16  1  0
 25 27  2  0
 25 26  1  0
M  END
$$$$
