PAW.pdb
     RDKit          3D

 27 29  0  0  1  0  0  0  0  0999 V2000
    8.5210  -15.0631   18.7361 N   0  0  0  0  0  0  0  0  0  0  0  0
    7.1495  -14.9375   19.1512 C   0  0  0  0  0  0  0  0  0  0  0  0
    7.0313  -13.5779   19.8272 C   0  0  0  0  0  0  0  0  0  0  0  0
    8.4228  -12.9649   19.6811 C   0  0  0  0  0  0  0  0  0  0  0  0
    9.2814  -14.2092   19.6271 C   0  0  1  0  0  0  0  0  0  0  0  0
    9.3169  -14.8565   20.9607 C   0  0  0  0  0  0  0  0  0  0  0  0
    9.6594  -14.2205   21.9841 O   0  0  0  0  0  0  0  0  0  0  0  0
   11.0383  -17.5025   20.8224 C   0  0  0  0  0  0  0  0  0  0  0  0
    9.8610  -17.1786   21.7434 C   0  0  2  0  0  0  0  0  0  0  0  0
    8.9591  -16.2443   21.1355 N   0  0  0  0  0  0  0  0  0  0  0  0
   10.3467  -16.7123   23.0703 C   0  0  0  0  0  0  0  0  0  0  0  0
   11.3887  -16.0173   23.1049 O   0  0  0  0  0  0  0  0  0  0  0  0
    9.6760  -17.0257   24.2801 N   0  0  0  0  0  0  0  0  0  0  0  0
   10.0266  -16.5643   25.5898 C   0  0  1  0  0  0  0  0  0  0  0  0
    9.8314  -15.0706   25.8124 C   0  0  0  0  0  0  0  0  0  0  0  0
    8.3922  -14.7539   25.8895 C   0  0  0  0  0  0  0  0  0  0  0  0
    7.3093  -15.5633   25.7003 C   0  0  0  0  0  0  0  0  0  0  0  0
    6.1668  -14.8386   25.8829 N   0  0  0  0  0  0  0  0  0  0  0  0
    6.4680  -13.5713   26.1883 C   0  0  0  0  0  0  0  0  0  0  0  0
    5.6765  -12.4609   26.4646 C   0  0  0  0  0  0  0  0  0  0  0  0
    6.2618  -11.2626   26.7541 C   0  0  0  0  0  0  0  0  0  0  0  0
    7.6280  -11.1787   26.7663 C   0  0  0  0  0  0  0  0  0  0  0  0
    8.4101  -12.2778   26.4927 C   0  0  0  0  0  0  0  0  0  0  0  0
    7.8499  -13.4990   26.1974 C   0  0  0  0  0  0  0  0  0  0  0  0
    9.4910  -17.3445   26.7037 C   0  0  0  0  0  0  0  0  0  0  0  0
   10.0030  -17.1159   27.9911 O   0  0  0  0  0  0  0  0  0  0  0  0
    8.5960  -18.2159   26.5986 O   0  0  0  0  0  0  0  0  0  0  0  0
  1  2  1  0
  3  2  1  0
  4  5  1  0
  4  3  1  0
  5  6  1  1
  5  1  1  0
  6  7  2  0
  9  8  1  6
  9 11  1  0
 10  9  1  0
 10  6  1  0
 11 13  1  0
 11 12  2  0
 13 14  1  0
 14 25  1  0
 14 15  1  1
 16 15  1  0
 16 17  2  0
 18 17  1  0
 19 18  1  0
 20 19  2  0
 21 20  1  0
 22 21  2  0
 22 23  1  0
 23 24  2  0
 24 19  1  0
 24 16  1  0
 25 27  2  0
 25 26  1  0
M  END
$$$$
