PAW.pdb
     RDKit          3D

 27 29  0  0  1  0  0  0  0  0999 V2000
    6.7454  -18.8321   21.2428 N   0  0  0  0  0  0  0  0  0  0  0  0
    5.8409  -18.3369   20.2400 C   0  0  0  0  0  0  0  0  0  0  0  0
    6.5392  -18.5340   18.9010 C   0  0  0  0  0  0  0  0  0  0  0  0
    7.8504  -19.2300   19.2615 C   0  0  0  0  0  0  0  0  0  0  0  0
    8.0711  -18.7179   20.6677 C   0  0  1  0  0  0  0  0  0  0  0  0
    8.4310  -17.2799   20.6308 C   0  0  0  0  0  0  0  0  0  0  0  0
    9.4326  -16.8755   19.9965 O   0  0  0  0  0  0  0  0  0  0  0  0
    7.0359  -13.9614   21.7986 C   0  0  0  0  0  0  0  0  0  0  0  0
    8.1607  -14.9773   21.5929 C   0  0  2  0  0  0  0  0  0  0  0  0
    7.6437  -16.2872   21.3231 N   0  0  0  0  0  0  0  0  0  0  0  0
    9.0944  -14.9667   22.7515 C   0  0  0  0  0  0  0  0  0  0  0  0
    9.8394  -13.9700   22.8982 O   0  0  0  0  0  0  0  0  0  0  0  0
    9.1659  -16.0349   23.6818 N   0  0  0  0  0  0  0  0  0  0  0  0
   10.0959  -16.1578   24.7641 C   0  0  1  0  0  0  0  0  0  0  0  0
    9.4866  -15.9902   26.1495 C   0  0  0  0  0  0  0  0  0  0  0  0
    8.1356  -15.4066   26.0414 C   0  0  0  0  0  0  0  0  0  0  0  0
    6.9493  -16.0047   25.7276 C   0  0  0  0  0  0  0  0  0  0  0  0
    5.9523  -15.0725   25.7565 N   0  0  0  0  0  0  0  0  0  0  0  0
    6.4502  -13.8742   26.0819 C   0  0  0  0  0  0  0  0  0  0  0  0
    5.8573  -12.6258   26.2432 C   0  0  0  0  0  0  0  0  0  0  0  0
    6.6208  -11.5491   26.5893 C   0  0  0  0  0  0  0  0  0  0  0  0
    7.9663  -11.7225   26.7720 C   0  0  0  0  0  0  0  0  0  0  0  0
    8.5519  -12.9579   26.6121 C   0  0  0  0  0  0  0  0  0  0  0  0
    7.8092  -14.0621   26.2636 C   0  0  0  0  0  0  0  0  0  0  0  0
   10.9866  -17.3153   24.7091 C   0  0  0  0  0  0  0  0  0  0  0  0
   12.0234  -17.4101   25.6515 O   0  0  0  0  0  0  0  0  0  0  0  0
   10.8965  -18.2453   23.8734 O   0  0  0  0  0  0  0  0  0  0  0  0
  1  2  1  0
  3  2  1  0
  4  5  1  0
  4  3  1  0
  5  6  1  6
  5  1  1  0
  6  7  2  0
  9  8  1  1
  9 11  1  0
 10  9  1  0
 10  6  1  0
 11 13  1  0
 11 12  2  0
 13 14  1  0
 14 25  1  0
 14 15  1  1
 16 15  1  0
 16 17  2  0
 18 17  1  0
 19 18  1  0
 20 19  2  0
 21 20  1  0
 22 21  2  0
 22 23  1  0
 23 24  2  0
 24 19  1  0
 24 16  1  0
 25 27  2  0
 25 26  1  0
M  END
$$$$
