PAW.pdb
     RDKit          3D

 27 29  0  0  1  0  0  0  0  0999 V2000
    6.9518  -16.6325   21.6050 N   0  0  0  0  0  0  0  0  0  0  0  0
    6.9814  -15.1985   21.7136 C   0  0  0  0  0  0  0  0  0  0  0  0
    7.2379  -14.6695   20.3087 C   0  0  0  0  0  0  0  0  0  0  0  0
    7.2758  -15.9237   19.4375 C   0  0  0  0  0  0  0  0  0  0  0  0
    7.7489  -16.9550   20.4380 C   0  0  1  0  0  0  0  0  0  0  0  0
    9.1726  -16.7146   20.7763 C   0  0  0  0  0  0  0  0  0  0  0  0
   10.0384  -16.5690   19.8828 O   0  0  0  0  0  0  0  0  0  0  0  0
   11.4656  -15.0363   21.9708 C   0  0  0  0  0  0  0  0  0  0  0  0
   10.9961  -16.4027   22.4728 C   0  0  2  0  0  0  0  0  0  0  0  0
    9.6198  -16.6384   22.1470 N   0  0  0  0  0  0  0  0  0  0  0  0
   11.2636  -16.5459   23.9295 C   0  0  0  0  0  0  0  0  0  0  0  0
   12.4368  -16.3700   24.3327 O   0  0  0  0  0  0  0  0  0  0  0  0
   10.2460  -16.8706   24.8625 N   0  0  0  0  0  0  0  0  0  0  0  0
   10.3641  -16.8500   26.2897 C   0  0  1  0  0  0  0  0  0  0  0  0
    9.9425  -15.5417   26.9449 C   0  0  0  0  0  0  0  0  0  0  0  0
    8.5332  -15.2453   26.6234 C   0  0  0  0  0  0  0  0  0  0  0  0
    7.5255  -16.0903   26.2571 C   0  0  0  0  0  0  0  0  0  0  0  0
    6.3804  -15.3716   26.0674 N   0  0  0  0  0  0  0  0  0  0  0  0
    6.6063  -14.0735   26.2996 C   0  0  0  0  0  0  0  0  0  0  0  0
    5.7808  -12.9548   26.2465 C   0  0  0  0  0  0  0  0  0  0  0  0
    6.2852  -11.7218   26.5422 C   0  0  0  0  0  0  0  0  0  0  0  0
    7.6051  -11.6117   26.8879 C   0  0  0  0  0  0  0  0  0  0  0  0
    8.4210  -12.7190   26.9401 C   0  0  0  0  0  0  0  0  0  0  0  0
    7.9421  -13.9750   26.6475 C   0  0  0  0  0  0  0  0  0  0  0  0
    9.8035  -18.0033   26.9911 C   0  0  0  0  0  0  0  0  0  0  0  0
    9.1965  -19.0191   26.2349 O   0  0  0  0  0  0  0  0  0  0  0  0
    9.8219  -18.1596   28.2347 O   0  0  0  0  0  0  0  0  0  0  0  0
  1  2  1  0
  3  2  1  0
  4  5  1  0
  4  3  1  0
  5  6  1  1
  5  1  1  0
  6  7  2  0
  9  8  1  1
  9 11  1  0
 10  9  1  0
 10  6  1  0
 11 13  1  0
 11 12  2  0
 13 14  1  0
 14 25  1  0
 14 15  1  1
 16 15  1  0
 16 17  2  0
 18 17  1  0
 19 18  1  0
 20 19  2  0
 21 20  1  0
 22 21  2  0
 22 23  1  0
 23 24  2  0
 24 19  1  0
 24 16  1  0
 25 27  2  0
 25 26  1  0
M  END
$$$$
