PAW.pdb
     RDKit          3D

 27 29  0  0  1  0  0  0  0  0999 V2000
    8.0151  -15.4450   19.8735 N   0  0  0  0  0  0  0  0  0  0  0  0
    7.1380  -16.5458   20.1700 C   0  0  0  0  0  0  0  0  0  0  0  0
    6.6603  -16.3371   21.6009 C   0  0  0  0  0  0  0  0  0  0  0  0
    7.2950  -15.0117   22.0180 C   0  0  0  0  0  0  0  0  0  0  0  0
    8.5351  -15.0011   21.1517 C   0  0  1  0  0  0  0  0  0  0  0  0
    9.4964  -16.0221   21.6335 C   0  0  0  0  0  0  0  0  0  0  0  0
    9.1262  -17.1870   21.9073 O   0  0  0  0  0  0  0  0  0  0  0  0
   13.2696  -16.2911   22.0202 C   0  0  0  0  0  0  0  0  0  0  0  0
   11.8213  -16.6983   22.2956 C   0  0  2  0  0  0  0  0  0  0  0  0
   10.8970  -15.7171   21.8071 N   0  0  0  0  0  0  0  0  0  0  0  0
   11.6246  -16.9882   23.7417 C   0  0  0  0  0  0  0  0  0  0  0  0
   12.3762  -17.8338   24.2803 O   0  0  0  0  0  0  0  0  0  0  0  0
   10.6268  -16.3459   24.5185 N   0  0  0  0  0  0  0  0  0  0  0  0
   10.4537  -16.4536   25.9361 C   0  0  1  0  0  0  0  0  0  0  0  0
   10.0001  -15.1717   26.6215 C   0  0  0  0  0  0  0  0  0  0  0  0
    8.5574  -14.9597   26.3955 C   0  0  0  0  0  0  0  0  0  0  0  0
    7.5673  -15.8706   26.1642 C   0  0  0  0  0  0  0  0  0  0  0  0
    6.3771  -15.2172   26.0219 N   0  0  0  0  0  0  0  0  0  0  0  0
    6.5561  -13.8980   26.1539 C   0  0  0  0  0  0  0  0  0  0  0  0
    5.6749  -12.8228   26.0971 C   0  0  0  0  0  0  0  0  0  0  0  0
    6.1393  -11.5519   26.2742 C   0  0  0  0  0  0  0  0  0  0  0  0
    7.4748  -11.3610   26.5060 C   0  0  0  0  0  0  0  0  0  0  0  0
    8.3457  -12.4254   26.5620 C   0  0  0  0  0  0  0  0  0  0  0  0
    7.9082  -13.7179   26.3874 C   0  0  0  0  0  0  0  0  0  0  0  0
    9.6831  -17.6068   26.3971 C   0  0  0  0  0  0  0  0  0  0  0  0
    9.7169  -17.9347   27.7621 O   0  0  0  0  0  0  0  0  0  0  0  0
    8.9832  -18.3383   25.6579 O   0  0  0  0  0  0  0  0  0  0  0  0
  1  2  1  0
  3  2  1  0
  4  5  1  0
  4  3  1  0
  5  6  1  1
  5  1  1  0
  6  7  2  0
  9  8  1  1
  9 11  1  0
 10  9  1  0
 10  6  1  0
 11 13  1  0
 11 12  2  0
 13 14  1  0
 14 25  1  0
 14 15  1  6
 16 15  1  0
 16 17  2  0
 18 17  1  0
 19 18  1  0
 20 19  2  0
 21 20  1  0
 22 21  2  0
 22 23  1  0
 23 24  2  0
 24 19  1  0
 24 16  1  0
 25 27  2  0
 25 26  1  0
M  END
$$$$
