PAW.pdb
     RDKit          3D

 27 29  0  0  1  0  0  0  0  0999 V2000
    9.4235  -14.3475   18.4335 N   0  0  0  0  0  0  0  0  0  0  0  0
    8.0431  -14.5036   18.0607 C   0  0  0  0  0  0  0  0  0  0  0  0
    7.2615  -13.4884   18.8841 C   0  0  0  0  0  0  0  0  0  0  0  0
    8.3349  -12.7383   19.6706 C   0  0  0  0  0  0  0  0  0  0  0  0
    9.4090  -13.7984   19.7749 C   0  0  1  0  0  0  0  0  0  0  0  0
    8.9728  -14.8698   20.7027 C   0  0  0  0  0  0  0  0  0  0  0  0
    8.0595  -14.6759   21.5378 O   0  0  0  0  0  0  0  0  0  0  0  0
   10.1014  -18.4329   21.4912 C   0  0  0  0  0  0  0  0  0  0  0  0
    9.4565  -17.0790   21.7918 C   0  0  2  0  0  0  0  0  0  0  0  0
    9.5811  -16.1790   20.6825 N   0  0  0  0  0  0  0  0  0  0  0  0
   10.0067  -16.5044   23.0492 C   0  0  0  0  0  0  0  0  0  0  0  0
   10.8567  -15.5886   22.9556 O   0  0  0  0  0  0  0  0  0  0  0  0
    9.6041  -16.9547   24.3325 N   0  0  0  0  0  0  0  0  0  0  0  0
   10.0993  -16.4848   25.5915 C   0  0  1  0  0  0  0  0  0  0  0  0
    9.7905  -15.0244   25.8924 C   0  0  0  0  0  0  0  0  0  0  0  0
    8.3338  -14.7941   25.8430 C   0  0  0  0  0  0  0  0  0  0  0  0
    7.3148  -15.6858   25.6694 C   0  0  0  0  0  0  0  0  0  0  0  0
    6.1229  -15.0210   25.7016 N   0  0  0  0  0  0  0  0  0  0  0  0
    6.3290  -13.7129   25.8925 C   0  0  0  0  0  0  0  0  0  0  0  0
    5.4580  -12.6333   26.0003 C   0  0  0  0  0  0  0  0  0  0  0  0
    5.9521  -11.3772   26.2008 C   0  0  0  0  0  0  0  0  0  0  0  0
    7.3071  -11.2054   26.2925 C   0  0  0  0  0  0  0  0  0  0  0  0
    8.1679  -12.2742   26.1857 C   0  0  0  0  0  0  0  0  0  0  0  0
    7.7005  -13.5520   25.9832 C   0  0  0  0  0  0  0  0  0  0  0  0
    9.8182  -17.3383   26.7443 C   0  0  0  0  0  0  0  0  0  0  0  0
   10.4580  -17.0546   27.9617 O   0  0  0  0  0  0  0  0  0  0  0  0
    9.0383  -18.3196   26.7316 O   0  0  0  0  0  0  0  0  0  0  0  0
  1  2  1  0
  3  2  1  0
  4  5  1  0
  4  3  1  0
  5  6  1  1
  5  1  1  0
  6  7  2  0
  9  8  1  6
  9 11  1  0
 10  9  1  0
 10  6  1  0
 11 13  1  0
 11 12  2  0
 13 14  1  0
 14 25  1  0
 14 15  1  1
 16 15  1  0
 16 17  2  0
 18 17  1  0
 19 18  1  0
 20 19  2  0
 21 20  1  0
 22 21  2  0
 22 23  1  0
 23 24  2  0
 24 19  1  0
 24 16  1  0
 25 27  2  0
 25 26  1  0
M  END
$$$$
