PAW.pdb
     RDKit          3D

 27 29  0  0  1  0  0  0  0  0999 V2000
    9.1639  -14.3831   18.2627 N   0  0  0  0  0  0  0  0  0  0  0  0
    7.7479  -14.5083   18.0433 C   0  0  0  0  0  0  0  0  0  0  0  0
    7.0874  -13.4342   18.8974 C   0  0  0  0  0  0  0  0  0  0  0  0
    8.2591  -12.6885   19.5333 C   0  0  0  0  0  0  0  0  0  0  0  0
    9.3071  -13.7787   19.5724 C   0  0  1  0  0  0  0  0  0  0  0  0
    8.9405  -14.7955   20.5877 C   0  0  0  0  0  0  0  0  0  0  0  0
    8.3240  -14.4804   21.6315 O   0  0  0  0  0  0  0  0  0  0  0  0
    9.5440  -18.5393   21.0552 C   0  0  0  0  0  0  0  0  0  0  0  0
    9.1527  -17.1270   21.4930 C   0  0  2  0  0  0  0  0  0  0  0  0
    9.2780  -16.1888   20.4160 N   0  0  0  0  0  0  0  0  0  0  0  0
    9.9308  -16.7160   22.6929 C   0  0  0  0  0  0  0  0  0  0  0  0
   11.1543  -16.4864   22.5509 O   0  0  0  0  0  0  0  0  0  0  0  0
    9.3385  -16.5780   23.9741 N   0  0  0  0  0  0  0  0  0  0  0  0
   10.0250  -16.3152   25.2034 C   0  0  1  0  0  0  0  0  0  0  0  0
    9.7061  -14.9669   25.8353 C   0  0  0  0  0  0  0  0  0  0  0  0
    8.2477  -14.7421   25.8400 C   0  0  0  0  0  0  0  0  0  0  0  0
    7.2273  -15.6301   25.6564 C   0  0  0  0  0  0  0  0  0  0  0  0
    6.0344  -14.9735   25.7545 N   0  0  0  0  0  0  0  0  0  0  0  0
    6.2413  -13.6745   25.9986 C   0  0  0  0  0  0  0  0  0  0  0  0
    5.3699  -12.6053   26.1815 C   0  0  0  0  0  0  0  0  0  0  0  0
    5.8652  -11.3572   26.4243 C   0  0  0  0  0  0  0  0  0  0  0  0
    7.2216  -11.1828   26.4832 C   0  0  0  0  0  0  0  0  0  0  0  0
    8.0828  -12.2412   26.3021 C   0  0  0  0  0  0  0  0  0  0  0  0
    7.6143  -13.5108   26.0556 C   0  0  0  0  0  0  0  0  0  0  0  0
    9.9912  -17.3900   26.1933 C   0  0  0  0  0  0  0  0  0  0  0  0
   10.8517  -17.3107   27.3001 O   0  0  0  0  0  0  0  0  0  0  0  0
    9.2425  -18.3934   26.1309 O   0  0  0  0  0  0  0  0  0  0  0  0
  1  2  1  0
  3  2  1  0
  4  5  1  0
  4  3  1  0
  5  6  1  1
  5  1  1  0
  6  7  2  0
  9  8  1  6
  9 11  1  0
 10  9  1  0
 10  6  1  0
 11 13  1  0
 11 12  2  0
 13 14  1  0
 14 25  1  0
 14 15  1  1
 16 15  1  0
 16 17  2  0
 18 17  1  0
 19 18  1  0
 20 19  2  0
 21 20  1  0
 22 21  2  0
 22 23  1  0
 23 24  2  0
 24 19  1  0
 24 16  1  0
 25 27  2  0
 25 26  1  0
M  END
$$$$
