HIQ.pdb
     RDKit          3D

 28 28  0  0  1  0  0  0  0  0999 V2000
   11.6510  -15.3199   15.7713 N   0  0  0  0  0  0  0  0  0  0  0  0
   12.4548  -15.7051   16.9178 C   0  0  1  0  0  0  0  0  0  0  0  0
   13.9325  -15.4021   16.6516 C   0  0  0  0  0  0  0  0  0  0  0  0
   14.3611  -16.2819   15.5541 C   0  0  0  0  0  0  0  0  0  0  0  0
   14.6209  -15.9426   14.2524 C   0  0  0  0  0  0  0  0  0  0  0  0
   14.9865  -17.0378   13.5678 N   0  0  0  0  0  0  0  0  0  0  0  0
   14.9642  -18.0868   14.4235 C   0  0  0  0  0  0  0  0  0  0  0  0
   14.5775  -17.6039   15.6405 N   0  0  0  0  0  0  0  0  0  0  0  0
   12.0104  -14.9106   18.0854 C   0  0  0  0  0  0  0  0  0  0  0  0
   12.3994  -13.7084   18.2536 O   0  0  0  0  0  0  0  0  0  0  0  0
    7.8537  -11.6834   19.5528 C   0  0  0  0  0  0  0  0  0  0  0  0
    8.7453  -12.6795   20.2308 C   0  0  0  0  0  0  0  0  0  0  0  0
    9.4310  -13.6607   19.3297 C   0  0  2  0  0  0  0  0  0  0  0  0
    8.4197  -14.3341   18.4227 C   0  0  0  0  0  0  0  0  0  0  0  0
   10.3496  -14.6190   19.9848 C   0  0  2  0  0  0  0  0  0  0  0  0
   11.1365  -15.4192   19.0825 N   0  0  0  0  0  0  0  0  0  0  0  0
    9.6500  -15.5117   20.9619 C   0  0  0  0  0  0  0  0  0  0  0  0
    8.8186  -16.3411   20.5324 O   0  0  0  0  0  0  0  0  0  0  0  0
   14.8931  -15.7975   21.4785 N   0  0  0  0  0  0  0  0  0  0  0  0
   14.6862  -16.6510   22.5864 C   0  0  0  0  0  0  0  0  0  0  0  0
   15.6710  -17.2145   23.1004 O   0  0  0  0  0  0  0  0  0  0  0  0
   13.3390  -16.8747   23.1260 C   0  0  0  0  0  0  0  0  0  0  0  0
   12.2438  -16.1104   22.4833 C   0  0  0  0  0  0  0  0  0  0  0  0
   10.8736  -16.3007   23.0351 C   0  0  2  0  0  0  0  0  0  0  0  0
    9.9014  -15.4442   22.3511 N   0  0  0  0  0  0  0  0  0  0  0  0
   10.8478  -15.9924   24.4866 C   0  0  0  0  0  0  0  0  0  0  0  0
   10.6184  -14.7416   25.0019 O   0  0  0  0  0  0  0  0  0  0  0  0
   11.0504  -16.9384   25.2989 O   0  0  0  0  0  0  0  0  0  0  0  0
  2  1  1  6
  3  2  1  0
  4  3  1  0
  4  8  1  0
  5  4  2  0
  6  5  1  0
  6  7  1  0
  7  8  2  0
  9  2  1  0
 10  9  2  0
 12 11  1  0
 13 15  1  0
 13 12  1  0
 13 14  1  1
 15 16  1  6
 16  9  1  0
 17 18  2  0
 17 15  1  0
 20 19  1  0
 21 20  2  0
 22 20  1  0
 24 23  1  6
 23 22  1  0
 24 25  1  0
 25 17  1  0
 26 27  1  0
 26 24  1  0
 28 26  2  0
M  END
$$$$
