HIQ.pdb
     RDKit          3D

 28 28  0  0  1  0  0  0  0  0999 V2000
    8.7170  -14.8242   20.3883 N   0  0  0  0  0  0  0  0  0  0  0  0
    7.8604  -15.4562   21.3762 C   0  0  1  0  0  0  0  0  0  0  0  0
    7.8724  -16.9764   21.1893 C   0  0  0  0  0  0  0  0  0  0  0  0
    7.3404  -17.2489   19.8458 C   0  0  0  0  0  0  0  0  0  0  0  0
    6.1773  -16.7867   19.2886 C   0  0  0  0  0  0  0  0  0  0  0  0
    6.0558  -17.2669   18.0410 N   0  0  0  0  0  0  0  0  0  0  0  0
    7.1383  -18.0398   17.7883 C   0  0  0  0  0  0  0  0  0  0  0  0
    7.9178  -18.0175   18.9089 N   0  0  0  0  0  0  0  0  0  0  0  0
    8.3903  -15.1393   22.7219 C   0  0  0  0  0  0  0  0  0  0  0  0
    9.6241  -15.2977   23.0006 O   0  0  0  0  0  0  0  0  0  0  0  0
    5.7822  -11.3592   25.9141 C   0  0  0  0  0  0  0  0  0  0  0  0
    6.8833  -12.1544   25.2800 C   0  0  0  0  0  0  0  0  0  0  0  0
    7.1754  -13.4822   25.9100 C   0  0  2  0  0  0  0  0  0  0  0  0
    7.6623  -13.2907   27.3330 C   0  0  0  0  0  0  0  0  0  0  0  0
    8.0268  -14.4050   25.1259 C   0  0  2  0  0  0  0  0  0  0  0  0
    7.5798  -14.6462   23.7785 N   0  0  0  0  0  0  0  0  0  0  0  0
    8.2491  -15.7131   25.8191 C   0  0  0  0  0  0  0  0  0  0  0  0
    7.2746  -16.4779   25.9900 O   0  0  0  0  0  0  0  0  0  0  0  0
   12.8961  -19.5392   24.6686 N   0  0  0  0  0  0  0  0  0  0  0  0
   12.4541  -20.0568   25.9077 C   0  0  0  0  0  0  0  0  0  0  0  0
   12.9948  -21.0863   26.3538 O   0  0  0  0  0  0  0  0  0  0  0  0
   11.3779  -19.3993   26.6599 C   0  0  0  0  0  0  0  0  0  0  0  0
   10.8416  -18.1487   26.0726 C   0  0  0  0  0  0  0  0  0  0  0  0
    9.7992  -17.4281   26.8552 C   0  0  2  0  0  0  0  0  0  0  0  0
    9.5242  -16.1071   26.2843 N   0  0  0  0  0  0  0  0  0  0  0  0
   10.2278  -17.2618   28.2663 C   0  0  0  0  0  0  0  0  0  0  0  0
   10.1385  -18.2471   29.2170 O   0  0  0  0  0  0  0  0  0  0  0  0
   10.7034  -16.1448   28.6155 O   0  0  0  0  0  0  0  0  0  0  0  0
  2  1  1  6
  3  2  1  0
  4  3  1  0
  4  8  1  0
  5  4  2  0
  6  5  1  0
  6  7  1  0
  7  8  2  0
  9  2  1  0
 10  9  2  0
 12 11  1  0
 13 15  1  0
 13 12  1  0
 13 14  1  1
 15 16  1  6
 16  9  1  0
 17 18  2  0
 17 15  1  0
 20 19  1  0
 21 20  2  0
 22 20  1  0
 24 23  1  6
 23 22  1  0
 24 25  1  0
 25 17  1  0
 26 27  1  0
 26 24  1  0
 28 26  2  0
M  END
$$$$
