HIQ.pdb
     RDKit          3D

 28 28  0  0  1  0  0  0  0  0999 V2000
    9.3892  -14.7724   20.2533 N   0  0  0  0  0  0  0  0  0  0  0  0
    8.2096  -15.0106   21.0663 C   0  0  1  0  0  0  0  0  0  0  0  0
    7.7198  -16.4494   20.8762 C   0  0  0  0  0  0  0  0  0  0  0  0
    7.2942  -16.5773   19.4745 C   0  0  0  0  0  0  0  0  0  0  0  0
    7.3834  -15.6428   18.4766 C   0  0  0  0  0  0  0  0  0  0  0  0
    6.8832  -16.1517   17.3396 N   0  0  0  0  0  0  0  0  0  0  0  0
    6.4698  -17.4147   17.5988 C   0  0  0  0  0  0  0  0  0  0  0  0
    6.7301  -17.6599   18.9163 N   0  0  0  0  0  0  0  0  0  0  0  0
    8.5779  -14.8185   22.4874 C   0  0  0  0  0  0  0  0  0  0  0  0
    9.7675  -15.0262   22.8958 O   0  0  0  0  0  0  0  0  0  0  0  0
    5.7491  -11.1467   25.5184 C   0  0  0  0  0  0  0  0  0  0  0  0
    6.9018  -11.9565   25.0060 C   0  0  0  0  0  0  0  0  0  0  0  0
    7.0627  -13.3177   25.6112 C   0  0  2  0  0  0  0  0  0  0  0  0
    7.4106  -13.1990   27.0821 C   0  0  0  0  0  0  0  0  0  0  0  0
    7.9435  -14.2577   24.8819 C   0  0  2  0  0  0  0  0  0  0  0  0
    7.6523  -14.3978   23.4787 N   0  0  0  0  0  0  0  0  0  0  0  0
    7.9937  -15.6118   25.5183 C   0  0  0  0  0  0  0  0  0  0  0  0
    7.0248  -16.3870   25.3631 O   0  0  0  0  0  0  0  0  0  0  0  0
   12.1650  -19.0625   23.5990 N   0  0  0  0  0  0  0  0  0  0  0  0
   11.7906  -19.8627   24.7027 C   0  0  0  0  0  0  0  0  0  0  0  0
   12.2726  -21.0068   24.8038 O   0  0  0  0  0  0  0  0  0  0  0  0
   10.8513  -19.3621   25.7143 C   0  0  0  0  0  0  0  0  0  0  0  0
   10.3319  -17.9906   25.4999 C   0  0  0  0  0  0  0  0  0  0  0  0
    9.4114  -17.4475   26.5372 C   0  0  2  0  0  0  0  0  0  0  0  0
    9.1008  -16.0377   26.2868 N   0  0  0  0  0  0  0  0  0  0  0  0
   10.0138  -17.5741   27.8876 C   0  0  0  0  0  0  0  0  0  0  0  0
   10.1406  -18.7615   28.5634 O   0  0  0  0  0  0  0  0  0  0  0  0
   10.4352  -16.5252   28.4513 O   0  0  0  0  0  0  0  0  0  0  0  0
  2  1  1  6
  3  2  1  0
  4  3  1  0
  4  8  1  0
  5  4  2  0
  6  5  1  0
  6  7  1  0
  7  8  2  0
  9  2  1  0
 10  9  2  0
 12 11  1  0
 13 15  1  0
 13 12  1  0
 13 14  1  1
 15 16  1  6
 16  9  1  0
 17 18  2  0
 17 15  1  0
 20 19  1  0
 21 20  2  0
 22 20  1  0
 24 23  1  6
 23 22  1  0
 24 25  1  0
 25 17  1  0
 26 27  1  0
 26 24  1  0
 28 26  2  0
M  END
$$$$
