HIQ.pdb
     RDKit          3D

 28 28  0  0  1  0  0  0  0  0999 V2000
    9.8470  -13.7326   20.6459 N   0  0  0  0  0  0  0  0  0  0  0  0
    8.5676  -14.1298   21.2066 C   0  0  1  0  0  0  0  0  0  0  0  0
    8.0710  -15.4119   20.5314 C   0  0  0  0  0  0  0  0  0  0  0  0
    7.8227  -15.0860   19.1192 C   0  0  0  0  0  0  0  0  0  0  0  0
    8.1719  -13.9477   18.4415 C   0  0  0  0  0  0  0  0  0  0  0  0
    7.7627  -14.0414   17.1665 N   0  0  0  0  0  0  0  0  0  0  0  0
    7.1487  -15.2387   17.0164 C   0  0  0  0  0  0  0  0  0  0  0  0
    7.1947  -15.8680   18.2270 N   0  0  0  0  0  0  0  0  0  0  0  0
    8.7554  -14.3961   22.6508 C   0  0  0  0  0  0  0  0  0  0  0  0
    9.8118  -14.9608   23.0869 O   0  0  0  0  0  0  0  0  0  0  0  0
    5.5794  -11.4105   26.2302 C   0  0  0  0  0  0  0  0  0  0  0  0
    6.7491  -12.0650   25.5590 C   0  0  0  0  0  0  0  0  0  0  0  0
    6.9674  -13.5097   25.8914 C   0  0  2  0  0  0  0  0  0  0  0  0
    7.2190  -13.6728   27.3776 C   0  0  0  0  0  0  0  0  0  0  0  0
    7.9523  -14.2316   25.0547 C   0  0  2  0  0  0  0  0  0  0  0  0
    7.7926  -14.0492   23.6353 N   0  0  0  0  0  0  0  0  0  0  0  0
    8.0102  -15.6948   25.3660 C   0  0  0  0  0  0  0  0  0  0  0  0
    7.4751  -16.5011   24.5739 O   0  0  0  0  0  0  0  0  0  0  0  0
   12.7367  -19.6170   24.7389 N   0  0  0  0  0  0  0  0  0  0  0  0
   11.8722  -18.7834   23.9930 C   0  0  0  0  0  0  0  0  0  0  0  0
   12.2480  -18.3759   22.8776 O   0  0  0  0  0  0  0  0  0  0  0  0
   10.5549  -18.4002   24.5169 C   0  0  0  0  0  0  0  0  0  0  0  0
   10.5552  -17.4200   25.6285 C   0  0  0  0  0  0  0  0  0  0  0  0
    9.3915  -17.4525   26.5576 C   0  0  2  0  0  0  0  0  0  0  0  0
    8.6499  -16.1893   26.5251 N   0  0  0  0  0  0  0  0  0  0  0  0
    9.8410  -17.7100   27.9483 C   0  0  0  0  0  0  0  0  0  0  0  0
    9.9396  -18.9607   28.5041 O   0  0  0  0  0  0  0  0  0  0  0  0
   10.1513  -16.7180   28.6662 O   0  0  0  0  0  0  0  0  0  0  0  0
  2  1  1  6
  3  2  1  0
  4  3  1  0
  4  8  1  0
  5  4  2  0
  6  5  1  0
  6  7  1  0
  7  8  2  0
  9  2  1  0
 10  9  2  0
 12 11  1  0
 13 15  1  0
 13 12  1  0
 13 14  1  1
 15 16  1  6
 16  9  1  0
 17 18  2  0
 17 15  1  0
 20 19  1  0
 21 20  2  0
 22 20  1  0
 24 23  1  6
 23 22  1  0
 24 25  1  0
 25 17  1  0
 26 27  1  0
 26 24  1  0
 28 26  2  0
M  END
$$$$
