HIQ.pdb
     RDKit          3D

 28 28  0  0  1  0  0  0  0  0999 V2000
    9.2142  -15.1770   20.4387 N   0  0  0  0  0  0  0  0  0  0  0  0
    8.1146  -15.5172   21.3244 C   0  0  1  0  0  0  0  0  0  0  0  0
    7.8089  -17.0154   21.2342 C   0  0  0  0  0  0  0  0  0  0  0  0
    7.4011  -17.2885   19.8481 C   0  0  0  0  0  0  0  0  0  0  0  0
    6.6256  -16.5122   19.0277 C   0  0  0  0  0  0  0  0  0  0  0  0
    6.4864  -17.1173   17.8376 N   0  0  0  0  0  0  0  0  0  0  0  0
    7.1705  -18.2848   17.8849 C   0  0  0  0  0  0  0  0  0  0  0  0
    7.7267  -18.3740   19.1285 N   0  0  0  0  0  0  0  0  0  0  0  0
    8.5197  -15.1983   22.7123 C   0  0  0  0  0  0  0  0  0  0  0  0
    9.7020  -15.4341   23.1265 O   0  0  0  0  0  0  0  0  0  0  0  0
    5.6480  -11.3129   25.5910 C   0  0  0  0  0  0  0  0  0  0  0  0
    6.7775  -12.1298   25.0398 C   0  0  0  0  0  0  0  0  0  0  0  0
    7.0423  -13.4301   25.7356 C   0  0  2  0  0  0  0  0  0  0  0  0
    7.4275  -13.1817   27.1808 C   0  0  0  0  0  0  0  0  0  0  0  0
    7.9573  -14.3668   25.0453 C   0  0  2  0  0  0  0  0  0  0  0  0
    7.6393  -14.6185   23.6637 N   0  0  0  0  0  0  0  0  0  0  0  0
    8.1020  -15.6693   25.7689 C   0  0  0  0  0  0  0  0  0  0  0  0
    7.1712  -16.5018   25.7036 O   0  0  0  0  0  0  0  0  0  0  0  0
   11.8287  -19.5758   24.0199 N   0  0  0  0  0  0  0  0  0  0  0  0
   11.5814  -20.1631   25.2819 C   0  0  0  0  0  0  0  0  0  0  0  0
   12.0016  -21.3154   25.4989 O   0  0  0  0  0  0  0  0  0  0  0  0
   10.8433  -19.4351   26.3220 C   0  0  0  0  0  0  0  0  0  0  0  0
   10.4302  -18.0529   25.9821 C   0  0  0  0  0  0  0  0  0  0  0  0
    9.5767  -17.3404   26.9732 C   0  0  2  0  0  0  0  0  0  0  0  0
    9.2564  -15.9841   26.5211 N   0  0  0  0  0  0  0  0  0  0  0  0
   10.2601  -17.2597   28.2881 C   0  0  0  0  0  0  0  0  0  0  0  0
   10.8386  -16.1185   28.7839 O   0  0  0  0  0  0  0  0  0  0  0  0
   10.3142  -18.3051   28.9952 O   0  0  0  0  0  0  0  0  0  0  0  0
  2  1  1  6
  3  2  1  0
  4  3  1  0
  4  8  1  0
  5  4  2  0
  6  5  1  0
  6  7  1  0
  7  8  2  0
  9  2  1  0
 10  9  2  0
 12 11  1  0
 13 15  1  0
 13 12  1  0
 13 14  1  1
 15 16  1  6
 16  9  1  0
 17 18  2  0
 17 15  1  0
 20 19  1  0
 21 20  2  0
 22 20  1  0
 24 23  1  6
 23 22  1  0
 24 25  1  0
 25 17  1  0
 26 27  1  0
 26 24  1  0
 28 26  2  0
M  END
$$$$
