HIQ.pdb
     RDKit          3D

 28 28  0  0  1  0  0  0  0  0999 V2000
    9.7112  -17.7734   16.6082 N   0  0  0  0  0  0  0  0  0  0  0  0
    8.6167  -17.6370   17.5529 C   0  0  1  0  0  0  0  0  0  0  0  0
    8.0958  -19.0189   17.9596 C   0  0  0  0  0  0  0  0  0  0  0  0
    7.2362  -19.4938   16.8651 C   0  0  0  0  0  0  0  0  0  0  0  0
    6.9539  -18.8663   15.6803 C   0  0  0  0  0  0  0  0  0  0  0  0
    6.1264  -19.6330   14.9527 N   0  0  0  0  0  0  0  0  0  0  0  0
    5.8718  -20.7567   15.6639 C   0  0  0  0  0  0  0  0  0  0  0  0
    6.5622  -20.6543   16.8371 N   0  0  0  0  0  0  0  0  0  0  0  0
    9.1274  -16.9484   18.7600 C   0  0  0  0  0  0  0  0  0  0  0  0
   10.3228  -17.1252   19.1659 O   0  0  0  0  0  0  0  0  0  0  0  0
    7.0821  -11.9299   20.2383 C   0  0  0  0  0  0  0  0  0  0  0  0
    8.0254  -13.0704   20.0006 C   0  0  0  0  0  0  0  0  0  0  0  0
    8.0328  -14.1403   21.0496 C   0  0  2  0  0  0  0  0  0  0  0  0
    8.4137  -13.5526   22.3942 C   0  0  0  0  0  0  0  0  0  0  0  0
    8.7854  -15.3721   20.7219 C   0  0  2  0  0  0  0  0  0  0  0  0
    8.3394  -16.0591   19.5376 N   0  0  0  0  0  0  0  0  0  0  0  0
    8.8398  -16.3357   21.8664 C   0  0  0  0  0  0  0  0  0  0  0  0
    7.7941  -16.9346   22.2003 O   0  0  0  0  0  0  0  0  0  0  0  0
   13.8282  -19.8813   23.4225 N   0  0  0  0  0  0  0  0  0  0  0  0
   13.0198  -19.9735   24.5786 C   0  0  0  0  0  0  0  0  0  0  0  0
   13.4312  -20.6426   25.5453 O   0  0  0  0  0  0  0  0  0  0  0  0
   11.7182  -19.2969   24.6458 C   0  0  0  0  0  0  0  0  0  0  0  0
   11.4275  -18.3328   23.5583 C   0  0  0  0  0  0  0  0  0  0  0  0
   10.1414  -17.5864   23.6438 C   0  0  2  0  0  0  0  0  0  0  0  0
   10.0349  -16.5870   22.5778 N   0  0  0  0  0  0  0  0  0  0  0  0
   10.0201  -16.9039   24.9560 C   0  0  0  0  0  0  0  0  0  0  0  0
    9.5591  -17.5105   26.0972 O   0  0  0  0  0  0  0  0  0  0  0  0
   10.3609  -15.6897   25.0283 O   0  0  0  0  0  0  0  0  0  0  0  0
  2  1  1  6
  3  2  1  0
  4  3  1  0
  4  8  1  0
  5  4  2  0
  6  5  1  0
  6  7  1  0
  7  8  2  0
  9  2  1  0
 10  9  2  0
 12 11  1  0
 13 15  1  0
 13 12  1  0
 13 14  1  1
 15 16  1  6
 16  9  1  0
 17 18  2  0
 17 15  1  0
 20 19  1  0
 21 20  2  0
 22 20  1  0
 24 23  1  1
 23 22  1  0
 24 25  1  0
 25 17  1  0
 26 27  1  0
 26 24  1  0
 28 26  2  0
M  END
$$$$
