HIQ.pdb
     RDKit          3D

 28 28  0  0  1  0  0  0  0  0999 V2000
    8.9139  -15.8313   19.6028 N   0  0  0  0  0  0  0  0  0  0  0  0
    8.3096  -16.3452   20.8193 C   0  0  1  0  0  0  0  0  0  0  0  0
    8.7358  -17.7988   21.0467 C   0  0  0  0  0  0  0  0  0  0  0  0
    7.9737  -18.6239   20.0978 C   0  0  0  0  0  0  0  0  0  0  0  0
    7.1250  -18.2052   19.1071 C   0  0  0  0  0  0  0  0  0  0  0  0
    6.6277  -19.2721   18.4619 N   0  0  0  0  0  0  0  0  0  0  0  0
    7.1526  -20.3820   19.0327 C   0  0  0  0  0  0  0  0  0  0  0  0
    7.9780  -19.9649   20.0369 N   0  0  0  0  0  0  0  0  0  0  0  0
    8.7873  -15.5271   21.9572 C   0  0  0  0  0  0  0  0  0  0  0  0
   10.0246  -15.2581   22.1044 O   0  0  0  0  0  0  0  0  0  0  0  0
    6.6176  -11.6581   26.4352 C   0  0  0  0  0  0  0  0  0  0  0  0
    7.7076  -12.4598   25.7903 C   0  0  0  0  0  0  0  0  0  0  0  0
    7.2712  -13.4085   24.7158 C   0  0  2  0  0  0  0  0  0  0  0  0
    6.0964  -14.2383   25.1954 C   0  0  0  0  0  0  0  0  0  0  0  0
    8.3373  -14.2221   24.0891 C   0  0  2  0  0  0  0  0  0  0  0  0
    7.9201  -14.9935   22.9471 N   0  0  0  0  0  0  0  0  0  0  0  0
    9.0303  -15.1170   25.0690 C   0  0  0  0  0  0  0  0  0  0  0  0
    8.5529  -16.2512   25.2917 O   0  0  0  0  0  0  0  0  0  0  0  0
   10.2182  -14.0664   30.5075 N   0  0  0  0  0  0  0  0  0  0  0  0
   10.4040  -15.4677   30.4820 C   0  0  0  0  0  0  0  0  0  0  0  0
   10.7121  -16.0503   31.5389 O   0  0  0  0  0  0  0  0  0  0  0  0
   10.2396  -16.2287   29.2369 C   0  0  0  0  0  0  0  0  0  0  0  0
    9.8326  -15.4482   28.0445 C   0  0  0  0  0  0  0  0  0  0  0  0
   10.7657  -15.4532   26.8836 C   0  0  2  0  0  0  0  0  0  0  0  0
   10.2044  -14.7182   25.7472 N   0  0  0  0  0  0  0  0  0  0  0  0
   11.0615  -16.8437   26.4576 C   0  0  0  0  0  0  0  0  0  0  0  0
   10.7212  -17.3602   25.2327 O   0  0  0  0  0  0  0  0  0  0  0  0
   11.6625  -17.5998   27.2717 O   0  0  0  0  0  0  0  0  0  0  0  0
  2  1  1  6
  3  2  1  0
  4  3  1  0
  4  8  1  0
  5  4  2  0
  6  5  1  0
  6  7  1  0
  7  8  2  0
  9  2  1  0
 10  9  2  0
 12 11  1  0
 13 15  1  0
 13 12  1  0
 13 14  1  1
 15 16  1  6
 16  9  1  0
 17 18  2  0
 17 15  1  0
 20 19  1  0
 21 20  2  0
 22 20  1  0
 24 23  1  1
 23 22  1  0
 24 25  1  0
 25 17  1  0
 26 27  1  0
 26 24  1  0
 28 26  2  0
M  END
$$$$
