HIQ.pdb
     RDKit          3D

 28 28  0  0  1  0  0  0  0  0999 V2000
   10.7814  -17.7294   16.9471 N   0  0  0  0  0  0  0  0  0  0  0  0
    9.6270  -17.8975   17.8121 C   0  0  1  0  0  0  0  0  0  0  0  0
    9.4994  -19.3619   18.2428 C   0  0  0  0  0  0  0  0  0  0  0  0
    9.2160  -20.1438   17.0301 C   0  0  0  0  0  0  0  0  0  0  0  0
    8.5910  -19.7276   15.8842 C   0  0  0  0  0  0  0  0  0  0  0  0
    8.5283  -20.7462   15.0122 N   0  0  0  0  0  0  0  0  0  0  0  0
    9.1118  -21.8222   15.5909 C   0  0  0  0  0  0  0  0  0  0  0  0
    9.5290  -21.4339   16.8314 N   0  0  0  0  0  0  0  0  0  0  0  0
    9.8250  -17.0634   19.0192 C   0  0  0  0  0  0  0  0  0  0  0  0
   10.9215  -17.0907   19.6689 O   0  0  0  0  0  0  0  0  0  0  0  0
    6.9502  -12.2676   19.6070 C   0  0  0  0  0  0  0  0  0  0  0  0
    8.0365  -13.3004   19.6228 C   0  0  0  0  0  0  0  0  0  0  0  0
    8.0325  -14.2334   20.7951 C   0  0  2  0  0  0  0  0  0  0  0  0
    8.1652  -13.4514   22.0872 C   0  0  0  0  0  0  0  0  0  0  0  0
    8.9593  -15.3851   20.7175 C   0  0  2  0  0  0  0  0  0  0  0  0
    8.8289  -16.1903   19.5309 N   0  0  0  0  0  0  0  0  0  0  0  0
    8.8882  -16.2644   21.9270 C   0  0  0  0  0  0  0  0  0  0  0  0
    8.0540  -17.1958   21.9468 O   0  0  0  0  0  0  0  0  0  0  0  0
   11.9411  -20.5053   21.9150 N   0  0  0  0  0  0  0  0  0  0  0  0
   11.8304  -20.5380   23.3240 C   0  0  0  0  0  0  0  0  0  0  0  0
   12.2490  -21.5398   23.9345 O   0  0  0  0  0  0  0  0  0  0  0  0
   11.2337  -19.4167   24.0608 C   0  0  0  0  0  0  0  0  0  0  0  0
   10.7790  -18.2673   23.2430 C   0  0  0  0  0  0  0  0  0  0  0  0
   10.1076  -17.1499   23.9634 C   0  0  2  0  0  0  0  0  0  0  0  0
    9.7337  -16.0727   23.0432 N   0  0  0  0  0  0  0  0  0  0  0  0
   10.9977  -16.5966   25.0142 C   0  0  0  0  0  0  0  0  0  0  0  0
   11.2800  -17.2351   26.1955 O   0  0  0  0  0  0  0  0  0  0  0  0
   11.5281  -15.4684   24.8106 O   0  0  0  0  0  0  0  0  0  0  0  0
  2  1  1  6
  3  2  1  0
  4  3  1  0
  4  8  1  0
  5  4  2  0
  6  5  1  0
  6  7  1  0
  7  8  2  0
  9  2  1  0
 10  9  2  0
 12 11  1  0
 13 15  1  0
 13 12  1  0
 13 14  1  1
 15 16  1  6
 16  9  1  0
 17 18  2  0
 17 15  1  0
 20 19  1  0
 21 20  2  0
 22 20  1  0
 24 23  1  6
 23 22  1  0
 24 25  1  0
 25 17  1  0
 26 27  1  0
 26 24  1  0
 28 26  2  0
M  END
$$$$
