PKT.pdb
     RDKit          3D

 24 24  0  0  1  0  0  0  0  0999 V2000
    8.8476  -19.3262   18.8276 N   0  0  0  0  0  0  0  0  0  0  0  0
    8.5138  -19.6889   17.4629 C   0  0  0  0  0  0  0  0  0  0  0  0
    9.4448  -18.9390   16.5640 C   0  0  0  0  0  0  0  0  0  0  0  0
   10.2849  -18.1002   17.4691 C   0  0  0  0  0  0  0  0  0  0  0  0
   10.2020  -18.8237   18.7899 C   0  0  1  0  0  0  0  0  0  0  0  0
   10.4261  -17.8355   19.8652 C   0  0  0  0  0  0  0  0  0  0  0  0
   11.5640  -17.3539   20.0222 O   0  0  0  0  0  0  0  0  0  0  0  0
    9.3882  -17.4214   20.7198 N   0  0  0  0  0  0  0  0  0  0  0  0
    9.6779  -16.4331   21.7541 C   0  0  1  0  0  0  0  0  0  0  0  0
    8.6279  -15.3455   21.6998 C   0  0  0  0  0  0  0  0  0  0  0  0
    8.7331  -14.5393   20.4438 C   0  0  0  0  0  0  0  0  0  0  0  0
    7.5707  -13.5135   20.4250 C   0  0  0  0  0  0  0  0  0  0  0  0
    7.6562  -12.6689   19.1762 C   0  0  0  0  0  0  0  0  0  0  0  0
    6.4703  -11.8689   19.0561 N   0  0  0  0  0  0  0  0  0  0  0  0
    9.7553  -17.1673   23.0169 C   0  0  0  0  0  0  0  0  0  0  0  0
    8.7855  -17.8578   23.4020 O   0  0  0  0  0  0  0  0  0  0  0  0
   12.3990  -19.4932   23.6253 C   0  0  0  0  0  0  0  0  0  0  0  0
   12.3929  -18.6472   24.8652 C   0  0  1  0  0  0  0  0  0  0  0  0
   13.3857  -17.6621   24.7322 O   0  0  0  0  0  0  0  0  0  0  0  0
   11.0742  -17.8948   25.0347 C   0  0  2  0  0  0  0  0  0  0  0  0
   10.9063  -17.1226   23.8176 N   0  0  0  0  0  0  0  0  0  0  0  0
   11.0436  -17.1021   26.2563 C   0  0  0  0  0  0  0  0  0  0  0  0
   11.0286  -17.6757   27.5169 O   0  0  0  0  0  0  0  0  0  0  0  0
   11.0298  -15.8497   26.1900 O   0  0  0  0  0  0  0  0  0  0  0  0
  1  2  1  0
  2  3  1  0
  4  3  1  0
  5  1  1  0
  5  4  1  0
  5  6  1  1
  7  6  2  0
  8  6  1  0
  9  8  1  0
  9 10  1  1
 10 11  1  0
 11 12  1  0
 12 13  1  0
 13 14  1  0
 15 21  1  0
 15  9  1  0
 16 15  2  0
 18 20  1  0
 18 17  1  6
 19 18  1  0
 20 22  1  0
 20 21  1  6
 22 23  1  0
 24 22  2  0
M  END
$$$$
