PKT.pdb
     RDKit          3D

 24 24  0  0  1  0  0  0  0  0999 V2000
    8.8564  -15.0547   19.4707 N   0  0  0  0  0  0  0  0  0  0  0  0
    8.8103  -14.5986   18.0940 C   0  0  0  0  0  0  0  0  0  0  0  0
    7.8941  -13.4172   18.0484 C   0  0  0  0  0  0  0  0  0  0  0  0
    7.3844  -13.2527   19.4419 C   0  0  0  0  0  0  0  0  0  0  0  0
    8.4380  -13.9328   20.2798 C   0  0  1  0  0  0  0  0  0  0  0  0
    7.7981  -14.3949   21.5288 C   0  0  0  0  0  0  0  0  0  0  0  0
    7.2017  -13.5715   22.2483 O   0  0  0  0  0  0  0  0  0  0  0  0
    7.8430  -15.7425   21.9302 N   0  0  0  0  0  0  0  0  0  0  0  0
    7.2926  -16.1098   23.2312 C   0  0  1  0  0  0  0  0  0  0  0  0
    7.3844  -17.6107   23.3957 C   0  0  0  0  0  0  0  0  0  0  0  0
    6.8981  -18.0490   24.7411 C   0  0  0  0  0  0  0  0  0  0  0  0
    7.0616  -19.5875   24.8403 C   0  0  0  0  0  0  0  0  0  0  0  0
    6.4666  -20.0809   26.1375 C   0  0  0  0  0  0  0  0  0  0  0  0
    6.5068  -21.5155   26.1688 N   0  0  0  0  0  0  0  0  0  0  0  0
    8.0235  -15.3242   24.2255 C   0  0  0  0  0  0  0  0  0  0  0  0
    9.2669  -15.2101   24.1448 O   0  0  0  0  0  0  0  0  0  0  0  0
    6.5850  -11.9098   25.7460 C   0  0  0  0  0  0  0  0  0  0  0  0
    6.9799  -12.9003   26.8024 C   0  0  1  0  0  0  0  0  0  0  0  0
    5.8510  -13.6698   27.1298 O   0  0  0  0  0  0  0  0  0  0  0  0
    8.0285  -13.8878   26.2936 C   0  0  2  0  0  0  0  0  0  0  0  0
    7.3583  -14.6809   25.2798 N   0  0  0  0  0  0  0  0  0  0  0  0
    8.6203  -14.6690   27.3711 C   0  0  0  0  0  0  0  0  0  0  0  0
    9.3989  -14.0987   28.3647 O   0  0  0  0  0  0  0  0  0  0  0  0
    8.4319  -15.9080   27.4229 O   0  0  0  0  0  0  0  0  0  0  0  0
  1  2  1  0
  2  3  1  0
  4  3  1  0
  5  1  1  0
  5  4  1  0
  5  6  1  1
  7  6  2  0
  8  6  1  0
  9  8  1  0
  9 10  1  1
 10 11  1  0
 11 12  1  0
 12 13  1  0
 13 14  1  0
 15 21  1  0
 15  9  1  0
 16 15  2  0
 18 20  1  0
 18 17  1  6
 19 18  1  0
 20 22  1  0
 20 21  1  6
 22 23  1  0
 24 22  2  0
M  END
$$$$
