PKT.pdb
     RDKit          3D

 24 24  0  0  1  0  0  0  0  0999 V2000
    8.3844  -15.1112   19.5174 N   0  0  0  0  0  0  0  0  0  0  0  0
    8.1609  -14.6169   18.1717 C   0  0  0  0  0  0  0  0  0  0  0  0
    7.4323  -13.3162   18.2919 C   0  0  0  0  0  0  0  0  0  0  0  0
    7.2078  -13.1177   19.7544 C   0  0  0  0  0  0  0  0  0  0  0  0
    8.2837  -13.9630   20.3890 C   0  0  1  0  0  0  0  0  0  0  0  0
    7.8159  -14.3621   21.7325 C   0  0  0  0  0  0  0  0  0  0  0  0
    7.3082  -13.5050   22.4801 O   0  0  0  0  0  0  0  0  0  0  0  0
    7.9276  -15.6866   22.1933 N   0  0  0  0  0  0  0  0  0  0  0  0
    7.3963  -16.0225   23.5106 C   0  0  1  0  0  0  0  0  0  0  0  0
    7.3351  -17.5279   23.6446 C   0  0  0  0  0  0  0  0  0  0  0  0
    6.1947  -18.1052   22.8668 C   0  0  0  0  0  0  0  0  0  0  0  0
    6.2251  -19.6466   23.0298 C   0  0  0  0  0  0  0  0  0  0  0  0
    5.0066  -20.2526   22.3754 C   0  0  0  0  0  0  0  0  0  0  0  0
    5.0886  -21.6843   22.4418 N   0  0  0  0  0  0  0  0  0  0  0  0
    8.2474  -15.3403   24.4854 C   0  0  0  0  0  0  0  0  0  0  0  0
    9.4826  -15.2691   24.2990 O   0  0  0  0  0  0  0  0  0  0  0  0
    7.4380  -11.8660   26.0037 C   0  0  0  0  0  0  0  0  0  0  0  0
    7.6364  -12.8777   27.0945 C   0  0  1  0  0  0  0  0  0  0  0  0
    6.3845  -13.4246   27.4223 O   0  0  0  0  0  0  0  0  0  0  0  0
    8.4997  -14.0506   26.6332 C   0  0  2  0  0  0  0  0  0  0  0  0
    7.7082  -14.7500   25.6381 N   0  0  0  0  0  0  0  0  0  0  0  0
    8.9381  -14.8843   27.7442 C   0  0  0  0  0  0  0  0  0  0  0  0
    9.7746  -14.4151   28.7435 O   0  0  0  0  0  0  0  0  0  0  0  0
    8.5569  -16.0768   27.8209 O   0  0  0  0  0  0  0  0  0  0  0  0
  1  2  1  0
  2  3  1  0
  4  3  1  0
  5  1  1  0
  5  4  1  0
  5  6  1  1
  7  6  2  0
  8  6  1  0
  9  8  1  0
  9 10  1  1
 10 11  1  0
 11 12  1  0
 12 13  1  0
 13 14  1  0
 15 21  1  0
 15  9  1  0
 16 15  2  0
 18 20  1  0
 18 17  1  6
 19 18  1  0
 20 22  1  0
 20 21  1  6
 22 23  1  0
 24 22  2  0
M  END
$$$$
