PKT.pdb
     RDKit          3D

 24 24  0  0  1  0  0  0  0  0999 V2000
    7.3938  -15.0215   19.1726 N   0  0  0  0  0  0  0  0  0  0  0  0
    6.8772  -14.4693   17.9342 C   0  0  0  0  0  0  0  0  0  0  0  0
    7.6204  -13.1984   17.6708 C   0  0  0  0  0  0  0  0  0  0  0  0
    8.5420  -13.0263   18.8325 C   0  0  0  0  0  0  0  0  0  0  0  0
    8.6983  -14.4295   19.3629 C   0  0  1  0  0  0  0  0  0  0  0  0
    9.0298  -14.3388   20.7999 C   0  0  0  0  0  0  0  0  0  0  0  0
   10.1688  -13.9665   21.1398 O   0  0  0  0  0  0  0  0  0  0  0  0
    8.0933  -14.6619   21.7987 N   0  0  0  0  0  0  0  0  0  0  0  0
    8.4624  -14.4759   23.1986 C   0  0  1  0  0  0  0  0  0  0  0  0
    7.3599  -13.7125   23.8984 C   0  0  0  0  0  0  0  0  0  0  0  0
    7.6668  -13.5049   25.3480 C   0  0  0  0  0  0  0  0  0  0  0  0
    6.5227  -12.6656   25.9725 C   0  0  0  0  0  0  0  0  0  0  0  0
    6.8280  -12.3884   27.4252 C   0  0  0  0  0  0  0  0  0  0  0  0
    5.7573  -11.6269   28.0036 N   0  0  0  0  0  0  0  0  0  0  0  0
    8.7388  -15.8092   23.7334 C   0  0  0  0  0  0  0  0  0  0  0  0
    7.8787  -16.7132   23.6412 O   0  0  0  0  0  0  0  0  0  0  0  0
   12.7172  -16.7975   24.4324 C   0  0  0  0  0  0  0  0  0  0  0  0
   11.6280  -17.7835   24.1247 C   0  0  1  0  0  0  0  0  0  0  0  0
   12.0127  -19.0375   24.6280 O   0  0  0  0  0  0  0  0  0  0  0  0
   10.3220  -17.4288   24.8335 C   0  0  2  0  0  0  0  0  0  0  0  0
    9.9622  -16.1083   24.3510 N   0  0  0  0  0  0  0  0  0  0  0  0
   10.4355  -17.5271   26.2823 C   0  0  0  0  0  0  0  0  0  0  0  0
   10.2830  -16.4331   27.1179 O   0  0  0  0  0  0  0  0  0  0  0  0
   10.6805  -18.6347   26.8175 O   0  0  0  0  0  0  0  0  0  0  0  0
  1  2  1  0
  2  3  1  0
  4  3  1  0
  5  1  1  0
  5  4  1  0
  5  6  1  1
  7  6  2  0
  8  6  1  0
  9  8  1  0
  9 10  1  1
 10 11  1  0
 11 12  1  0
 12 13  1  0
 13 14  1  0
 15 21  1  0
 15  9  1  0
 16 15  2  0
 18 20  1  0
 18 17  1  1
 19 18  1  0
 20 22  1  0
 20 21  1  1
 22 23  1  0
 24 22  2  0
M  END
$$$$
