PKT.pdb
     RDKit          3D

 24 24  0  0  1  0  0  0  0  0999 V2000
    8.3044  -15.1969   19.5247 N   0  0  0  0  0  0  0  0  0  0  0  0
    8.0643  -14.6844   18.1886 C   0  0  0  0  0  0  0  0  0  0  0  0
    7.4757  -13.3174   18.3368 C   0  0  0  0  0  0  0  0  0  0  0  0
    7.3454  -13.0956   19.8073 C   0  0  0  0  0  0  0  0  0  0  0  0
    8.3621  -14.0432   20.3931 C   0  0  1  0  0  0  0  0  0  0  0  0
    7.9246  -14.3920   21.7605 C   0  0  0  0  0  0  0  0  0  0  0  0
    7.6014  -13.4820   22.5472 O   0  0  0  0  0  0  0  0  0  0  0  0
    7.8622  -15.7265   22.2012 N   0  0  0  0  0  0  0  0  0  0  0  0
    7.2984  -16.0092   23.5175 C   0  0  1  0  0  0  0  0  0  0  0  0
    7.1092  -17.5033   23.6586 C   0  0  0  0  0  0  0  0  0  0  0  0
    6.0300  -18.0105   22.7549 C   0  0  0  0  0  0  0  0  0  0  0  0
    5.8903  -19.5390   22.9736 C   0  0  0  0  0  0  0  0  0  0  0  0
    4.7816  -20.0796   22.1026 C   0  0  0  0  0  0  0  0  0  0  0  0
    4.7268  -21.5086   22.2275 N   0  0  0  0  0  0  0  0  0  0  0  0
    8.1999  -15.3965   24.4931 C   0  0  0  0  0  0  0  0  0  0  0  0
    9.4391  -15.4835   24.3439 O   0  0  0  0  0  0  0  0  0  0  0  0
    7.5925  -11.8419   26.0877 C   0  0  0  0  0  0  0  0  0  0  0  0
    7.7699  -12.8932   27.1442 C   0  0  1  0  0  0  0  0  0  0  0  0
    6.5008  -13.3785   27.5014 O   0  0  0  0  0  0  0  0  0  0  0  0
    8.5495  -14.0990   26.6226 C   0  0  2  0  0  0  0  0  0  0  0  0
    7.7060  -14.6987   25.6053 N   0  0  0  0  0  0  0  0  0  0  0  0
    8.9390  -15.0091   27.6910 C   0  0  0  0  0  0  0  0  0  0  0  0
    8.5089  -16.3247   27.7434 O   0  0  0  0  0  0  0  0  0  0  0  0
    9.6925  -14.6093   28.6106 O   0  0  0  0  0  0  0  0  0  0  0  0
  1  2  1  0
  2  3  1  0
  4  3  1  0
  5  1  1  0
  5  4  1  0
  5  6  1  1
  7  6  2  0
  8  6  1  0
  9  8  1  0
  9 10  1  1
 10 11  1  0
 11 12  1  0
 12 13  1  0
 13 14  1  0
 15 21  1  0
 15  9  1  0
 16 15  2  0
 18 20  1  0
 18 17  1  6
 19 18  1  0
 20 22  1  0
 20 21  1  6
 22 23  1  0
 24 22  2  0
M  END
$$$$
