PKT.pdb
     RDKit          3D

 24 24  0  0  1  0  0  0  0  0999 V2000
    8.7906  -14.8669   19.4861 N   0  0  0  0  0  0  0  0  0  0  0  0
    8.6776  -14.4447   18.1025 C   0  0  0  0  0  0  0  0  0  0  0  0
    7.6639  -13.3461   18.0551 C   0  0  0  0  0  0  0  0  0  0  0  0
    7.1709  -13.1965   19.4562 C   0  0  0  0  0  0  0  0  0  0  0  0
    8.2954  -13.7679   20.2831 C   0  0  1  0  0  0  0  0  0  0  0  0
    7.7228  -14.2566   21.5545 C   0  0  0  0  0  0  0  0  0  0  0  0
    7.0088  -13.4947   22.2335 O   0  0  0  0  0  0  0  0  0  0  0  0
    7.9617  -15.5618   22.0220 N   0  0  0  0  0  0  0  0  0  0  0  0
    7.4295  -15.9534   23.3235 C   0  0  1  0  0  0  0  0  0  0  0  0
    7.5974  -17.4473   23.4917 C   0  0  0  0  0  0  0  0  0  0  0  0
    7.1470  -17.9043   24.8434 C   0  0  0  0  0  0  0  0  0  0  0  0
    7.3428  -19.4399   24.9282 C   0  0  0  0  0  0  0  0  0  0  0  0
    6.7604  -19.9574   26.2217 C   0  0  0  0  0  0  0  0  0  0  0  0
    7.0637  -21.3537   26.3597 N   0  0  0  0  0  0  0  0  0  0  0  0
    8.1187  -15.1293   24.3164 C   0  0  0  0  0  0  0  0  0  0  0  0
    9.3550  -14.9538   24.2375 O   0  0  0  0  0  0  0  0  0  0  0  0
    6.9738  -11.6069   25.7095 C   0  0  0  0  0  0  0  0  0  0  0  0
    7.0690  -12.6475   26.7871 C   0  0  1  0  0  0  0  0  0  0  0  0
    5.8169  -13.2729   26.9086 O   0  0  0  0  0  0  0  0  0  0  0  0
    8.0581  -13.7538   26.4246 C   0  0  2  0  0  0  0  0  0  0  0  0
    7.4204  -14.5163   25.3673 N   0  0  0  0  0  0  0  0  0  0  0  0
    8.4493  -14.5461   27.5825 C   0  0  0  0  0  0  0  0  0  0  0  0
    9.1384  -14.0070   28.6563 O   0  0  0  0  0  0  0  0  0  0  0  0
    8.1625  -15.7661   27.6324 O   0  0  0  0  0  0  0  0  0  0  0  0
  1  2  1  0
  2  3  1  0
  4  3  1  0
  5  1  1  0
  5  4  1  0
  5  6  1  1
  7  6  2  0
  8  6  1  0
  9  8  1  0
  9 10  1  1
 10 11  1  0
 11 12  1  0
 12 13  1  0
 13 14  1  0
 15 21  1  0
 15  9  1  0
 16 15  2  0
 18 20  1  0
 18 17  1  6
 19 18  1  0
 20 22  1  0
 20 21  1  6
 22 23  1  0
 24 22  2  0
M  END
$$$$
