WQN.pdb
     RDKit          3D

 32 33  0  0  1  0  0  0  0  0999 V2000
   26.7652  -22.1366  -12.8443 N   0  0  0  0  0  0  0  0  0  0  0  0
   25.9369  -21.4364  -11.8806 C   0  0  1  0  0  0  0  0  0  0  0  0
   26.7405  -20.2291  -11.4336 C   0  0  0  0  0  0  0  0  0  0  0  0
   27.7956  -20.6226  -10.4663 C   0  0  0  0  0  0  0  0  0  0  0  0
   29.0300  -21.2148  -10.7566 C   0  0  0  0  0  0  0  0  0  0  0  0
   29.7139  -21.4257   -9.6254 N   0  0  0  0  0  0  0  0  0  0  0  0
   28.9784  -20.9924   -8.5645 C   0  0  0  0  0  0  0  0  0  0  0  0
   29.2474  -20.9927   -7.2148 C   0  0  0  0  0  0  0  0  0  0  0  0
   28.3148  -20.4848   -6.3338 C   0  0  0  0  0  0  0  0  0  0  0  0
   27.1366  -19.9922   -6.8584 C   0  0  0  0  0  0  0  0  0  0  0  0
   26.8708  -19.9936   -8.2106 C   0  0  0  0  0  0  0  0  0  0  0  0
   27.7947  -20.4973   -9.0880 C   0  0  0  0  0  0  0  0  0  0  0  0
   24.6831  -21.0488  -12.5458 C   0  0  0  0  0  0  0  0  0  0  0  0
   24.6899  -20.1923  -13.4680 O   0  0  0  0  0  0  0  0  0  0  0  0
   22.8738  -25.1677  -14.6883 N   0  0  0  0  0  0  0  0  0  0  0  0
   22.5682  -23.8839  -15.1903 C   0  0  0  0  0  0  0  0  0  0  0  0
   21.6839  -23.7573  -16.0605 O   0  0  0  0  0  0  0  0  0  0  0  0
   23.3066  -22.6989  -14.6730 C   0  0  0  0  0  0  0  0  0  0  0  0
   22.3812  -21.5542  -14.3908 C   0  0  0  0  0  0  0  0  0  0  0  0
   22.1982  -21.2747  -12.9384 C   0  0  2  0  0  0  0  0  0  0  0  0
   23.4159  -21.6111  -12.1892 N   0  0  0  0  0  0  0  0  0  0  0  0
   21.1137  -22.0278  -12.2781 C   0  0  0  0  0  0  0  0  0  0  0  0
   21.3269  -22.5786  -11.1740 O   0  0  0  0  0  0  0  0  0  0  0  0
   17.3493  -24.6685  -10.7561 N   0  0  0  0  0  0  0  0  0  0  0  0
   17.8174  -23.5511   -9.9988 C   0  0  0  0  0  0  0  0  0  0  0  0
   17.4726  -23.5081   -8.7945 O   0  0  0  0  0  0  0  0  0  0  0  0
   18.6564  -22.5580  -10.6967 C   0  0  0  0  0  0  0  0  0  0  0  0
   18.7274  -22.8853  -12.1478 C   0  0  2  0  0  0  0  0  0  0  0  0
   19.8160  -22.1758  -12.8175 N   0  0  0  0  0  0  0  0  0  0  0  0
   17.4405  -22.6537  -12.7996 C   0  0  0  0  0  0  0  0  0  0  0  0
   17.3161  -21.5502  -13.4365 O   0  0  0  0  0  0  0  0  0  0  0  0
   16.3501  -23.4756  -12.8123 O   0  0  0  0  0  0  0  0  0  0  0  0
  2  1  1  6
  3  2  1  0
  4  3  1  0
  5  4  2  0
  6  7  1  0
  6  5  1  0
  7 12  2  0
  8  7  1  0
  8  9  2  0
  9 10  1  0
 10 11  2  0
 12  4  1  0
 12 11  1  0
 13  2  1  0
 14 13  2  0
 16 17  2  0
 16 15  1  0
 18 16  1  0
 19 18  1  0
 20 19  1  6
 20 21  1  0
 21 13  1  0
 22 20  1  0
 23 22  2  0
 25 27  1  0
 25 24  1  0
 26 25  2  0
 28 27  1  1
 28 30  1  0
 28 29  1  0
 29 22  1  0
 30 32  1  0
 31 30  2  0
M  END
$$$$
