WQN.pdb
     RDKit          3D

 32 33  0  0  1  0  0  0  0  0999 V2000
   27.6164  -22.2257  -14.5286 N   0  0  0  0  0  0  0  0  0  0  0  0
   26.4911  -21.8304  -13.7024 C   0  0  1  0  0  0  0  0  0  0  0  0
   26.8136  -20.4389  -13.1899 C   0  0  0  0  0  0  0  0  0  0  0  0
   27.7643  -20.4999  -12.0513 C   0  0  0  0  0  0  0  0  0  0  0  0
   29.1597  -20.4103  -12.1097 C   0  0  0  0  0  0  0  0  0  0  0  0
   29.6767  -20.5091  -10.8789 N   0  0  0  0  0  0  0  0  0  0  0  0
   28.6692  -20.6647   -9.9761 C   0  0  0  0  0  0  0  0  0  0  0  0
   28.6929  -20.8071   -8.6074 C   0  0  0  0  0  0  0  0  0  0  0  0
   27.5072  -20.9504   -7.9165 C   0  0  0  0  0  0  0  0  0  0  0  0
   26.3342  -20.9437   -8.6445 C   0  0  0  0  0  0  0  0  0  0  0  0
   26.3145  -20.8008  -10.0150 C   0  0  0  0  0  0  0  0  0  0  0  0
   27.4901  -20.6584  -10.7040 C   0  0  0  0  0  0  0  0  0  0  0  0
   25.2794  -21.8438  -14.5368 C   0  0  0  0  0  0  0  0  0  0  0  0
   25.3386  -21.5167  -15.7507 O   0  0  0  0  0  0  0  0  0  0  0  0
   21.7583  -26.5373  -14.3466 N   0  0  0  0  0  0  0  0  0  0  0  0
   22.7803  -26.0978  -15.2161 C   0  0  0  0  0  0  0  0  0  0  0  0
   23.0435  -26.7583  -16.2408 O   0  0  0  0  0  0  0  0  0  0  0  0
   23.5297  -24.8515  -14.8968 C   0  0  0  0  0  0  0  0  0  0  0  0
   23.0426  -23.6924  -15.7127 C   0  0  0  0  0  0  0  0  0  0  0  0
   22.8561  -22.4408  -14.9253 C   0  0  2  0  0  0  0  0  0  0  0  0
   23.9963  -22.2203  -14.0260 N   0  0  0  0  0  0  0  0  0  0  0  0
   21.6628  -22.4084  -14.0568 C   0  0  0  0  0  0  0  0  0  0  0  0
   21.7527  -22.7913  -12.8681 O   0  0  0  0  0  0  0  0  0  0  0  0
   19.5755  -17.5521  -13.6014 N   0  0  0  0  0  0  0  0  0  0  0  0
   19.9894  -18.6572  -12.7962 C   0  0  0  0  0  0  0  0  0  0  0  0
   19.7071  -18.5968  -11.5764 O   0  0  0  0  0  0  0  0  0  0  0  0
   20.7050  -19.7594  -13.4672 C   0  0  0  0  0  0  0  0  0  0  0  0
   19.7288  -20.7657  -13.9693 C   0  0  2  0  0  0  0  0  0  0  0  0
   20.3907  -21.9636  -14.4824 N   0  0  0  0  0  0  0  0  0  0  0  0
   18.8277  -20.1733  -14.9552 C   0  0  0  0  0  0  0  0  0  0  0  0
   19.3575  -19.8056  -16.0610 O   0  0  0  0  0  0  0  0  0  0  0  0
   17.4833  -19.9642  -14.8395 O   0  0  0  0  0  0  0  0  0  0  0  0
  2  1  1  6
  3  2  1  0
  4  3  1  0
  5  4  2  0
  6  7  1  0
  6  5  1  0
  7 12  2  0
  8  7  1  0
  8  9  2  0
  9 10  1  0
 10 11  2  0
 12  4  1  0
 12 11  1  0
 13  2  1  0
 14 13  2  0
 16 17  2  0
 16 15  1  0
 18 16  1  0
 19 18  1  0
 20 19  1  1
 20 21  1  0
 21 13  1  0
 22 20  1  0
 23 22  2  0
 25 27  1  0
 25 24  1  0
 26 25  2  0
 28 27  1  6
 28 30  1  0
 28 29  1  0
 29 22  1  0
 30 32  1  0
 31 30  2  0
M  END
$$$$
