WQN.pdb
     RDKit          3D

 32 33  0  0  1  0  0  0  0  0999 V2000
   24.5141  -19.7844  -11.2149 N   0  0  0  0  0  0  0  0  0  0  0  0
   25.8899  -20.0460  -11.5941 C   0  0  1  0  0  0  0  0  0  0  0  0
   26.3718  -21.1624  -10.6861 C   0  0  0  0  0  0  0  0  0  0  0  0
   26.4589  -20.7007   -9.2779 C   0  0  0  0  0  0  0  0  0  0  0  0
   25.4004  -20.3126   -8.4487 C   0  0  0  0  0  0  0  0  0  0  0  0
   25.8679  -19.9569   -7.2459 N   0  0  0  0  0  0  0  0  0  0  0  0
   27.2229  -20.0914   -7.2291 C   0  0  0  0  0  0  0  0  0  0  0  0
   28.1448  -19.8535   -6.2354 C   0  0  0  0  0  0  0  0  0  0  0  0
   29.4843  -20.0752   -6.4812 C   0  0  0  0  0  0  0  0  0  0  0  0
   29.8408  -20.5330   -7.7340 C   0  0  0  0  0  0  0  0  0  0  0  0
   28.9146  -20.7701   -8.7265 C   0  0  0  0  0  0  0  0  0  0  0  0
   27.5838  -20.5508   -8.4856 C   0  0  0  0  0  0  0  0  0  0  0  0
   25.9103  -20.4403  -13.0115 C   0  0  0  0  0  0  0  0  0  0  0  0
   25.0519  -21.2433  -13.4615 O   0  0  0  0  0  0  0  0  0  0  0  0
   27.3335  -15.7406  -16.5762 N   0  0  0  0  0  0  0  0  0  0  0  0
   28.4576  -16.5617  -16.3397 C   0  0  0  0  0  0  0  0  0  0  0  0
   29.6040  -16.0983  -16.5022 O   0  0  0  0  0  0  0  0  0  0  0  0
   28.2579  -17.9699  -15.8994 C   0  0  0  0  0  0  0  0  0  0  0  0
   26.8048  -18.2885  -15.7166 C   0  0  0  0  0  0  0  0  0  0  0  0
   26.5440  -19.7078  -15.3443 C   0  0  2  0  0  0  0  0  0  0  0  0
   26.8848  -19.9442  -13.9353 N   0  0  0  0  0  0  0  0  0  0  0  0
   27.3095  -20.7152  -16.1048 C   0  0  0  0  0  0  0  0  0  0  0  0
   27.6577  -20.4679  -17.2819 O   0  0  0  0  0  0  0  0  0  0  0  0
   24.6417  -25.7664  -15.4643 N   0  0  0  0  0  0  0  0  0  0  0  0
   25.9733  -25.2901  -15.6662 C   0  0  0  0  0  0  0  0  0  0  0  0
   26.7595  -26.0638  -16.2616 O   0  0  0  0  0  0  0  0  0  0  0  0
   26.2996  -23.9431  -15.1600 C   0  0  0  0  0  0  0  0  0  0  0  0
   27.2140  -23.2524  -16.1111 C   0  0  2  0  0  0  0  0  0  0  0  0
   27.6884  -21.9737  -15.5854 N   0  0  0  0  0  0  0  0  0  0  0  0
   26.5899  -23.1068  -17.4241 C   0  0  0  0  0  0  0  0  0  0  0  0
   25.4255  -22.5754  -17.4444 O   0  0  0  0  0  0  0  0  0  0  0  0
   27.1008  -23.4698  -18.6373 O   0  0  0  0  0  0  0  0  0  0  0  0
  2  1  1  1
  3  2  1  0
  4  3  1  0
  5  4  2  0
  6  7  1  0
  6  5  1  0
  7 12  2  0
  8  7  1  0
  8  9  2  0
  9 10  1  0
 10 11  2  0
 12  4  1  0
 12 11  1  0
 13  2  1  0
 14 13  2  0
 16 17  2  0
 16 15  1  0
 18 16  1  0
 19 18  1  0
 20 19  1  6
 20 21  1  0
 21 13  1  0
 22 20  1  0
 23 22  2  0
 25 27  1  0
 25 24  1  0
 26 25  2  0
 28 27  1  1
 28 30  1  0
 28 29  1  0
 29 22  1  0
 30 32  1  0
 31 30  2  0
M  END
$$$$
