WQN.pdb
     RDKit          3D

 32 33  0  0  1  0  0  0  0  0999 V2000
   25.8782  -21.8018  -14.4534 N   0  0  0  0  0  0  0  0  0  0  0  0
   24.8298  -20.8284  -14.6950 C   0  0  1  0  0  0  0  0  0  0  0  0
   24.8400  -20.5609  -16.1889 C   0  0  0  0  0  0  0  0  0  0  0  0
   26.0674  -19.8275  -16.5882 C   0  0  0  0  0  0  0  0  0  0  0  0
   27.1627  -20.3351  -17.2961 C   0  0  0  0  0  0  0  0  0  0  0  0
   28.0808  -19.3764  -17.4681 N   0  0  0  0  0  0  0  0  0  0  0  0
   27.6421  -18.2217  -16.8948 C   0  0  0  0  0  0  0  0  0  0  0  0
   28.2209  -16.9760  -16.8085 C   0  0  0  0  0  0  0  0  0  0  0  0
   27.5525  -15.9573  -16.1611 C   0  0  0  0  0  0  0  0  0  0  0  0
   26.3137  -16.2421  -15.6220 C   0  0  0  0  0  0  0  0  0  0  0  0
   25.7374  -17.4908  -15.7105 C   0  0  0  0  0  0  0  0  0  0  0  0
   26.3987  -18.5045  -16.3526 C   0  0  0  0  0  0  0  0  0  0  0  0
   23.5528  -21.4055  -14.2467 C   0  0  0  0  0  0  0  0  0  0  0  0
   23.4799  -22.6213  -13.9297 O   0  0  0  0  0  0  0  0  0  0  0  0
   18.9648  -19.0602  -10.8335 N   0  0  0  0  0  0  0  0  0  0  0  0
   19.9200  -18.2943  -11.5369 C   0  0  0  0  0  0  0  0  0  0  0  0
   19.8841  -17.0497  -11.4668 O   0  0  0  0  0  0  0  0  0  0  0  0
   20.9570  -18.9842  -12.3526 C   0  0  0  0  0  0  0  0  0  0  0  0
   20.8334  -20.4746  -12.2535 C   0  0  0  0  0  0  0  0  0  0  0  0
   21.1420  -21.1881  -13.5250 C   0  0  2  0  0  0  0  0  0  0  0  0
   22.3509  -20.6342  -14.1490 N   0  0  0  0  0  0  0  0  0  0  0  0
   20.0973  -21.1135  -14.5653 C   0  0  0  0  0  0  0  0  0  0  0  0
   19.6837  -19.9949  -14.9470 O   0  0  0  0  0  0  0  0  0  0  0  0
   19.1912  -22.4370  -18.6441 N   0  0  0  0  0  0  0  0  0  0  0  0
   18.6012  -23.6096  -18.0805 C   0  0  0  0  0  0  0  0  0  0  0  0
   18.5736  -24.6279  -18.8110 O   0  0  0  0  0  0  0  0  0  0  0  0
   18.0824  -23.5167  -16.7024 C   0  0  0  0  0  0  0  0  0  0  0  0
   18.4052  -22.1808  -16.1287 C   0  0  2  0  0  0  0  0  0  0  0  0
   19.5143  -22.2452  -15.1787 N   0  0  0  0  0  0  0  0  0  0  0  0
   17.2180  -21.5626  -15.5429 C   0  0  0  0  0  0  0  0  0  0  0  0
   16.3907  -21.0311  -16.3625 O   0  0  0  0  0  0  0  0  0  0  0  0
   16.8824  -21.4836  -14.2217 O   0  0  0  0  0  0  0  0  0  0  0  0
  2  1  1  6
  3  2  1  0
  4  3  1  0
  5  4  2  0
  6  7  1  0
  6  5  1  0
  7 12  2  0
  8  7  1  0
  8  9  2  0
  9 10  1  0
 10 11  2  0
 12  4  1  0
 12 11  1  0
 13  2  1  0
 14 13  2  0
 16 17  2  0
 16 15  1  0
 18 16  1  0
 19 18  1  0
 20 19  1  1
 20 21  1  0
 21 13  1  0
 22 20  1  0
 23 22  2  0
 25 27  1  0
 25 24  1  0
 26 25  2  0
 28 27  1  1
 28 30  1  0
 28 29  1  0
 29 22  1  0
 30 32  1  0
 31 30  2  0
M  END
$$$$
