WQN.pdb
     RDKit          3D

 32 33  0  0  1  0  0  0  0  0999 V2000
   24.8801  -17.7097  -17.3493 N   0  0  0  0  0  0  0  0  0  0  0  0
   23.7628  -17.8181  -16.4301 C   0  0  1  0  0  0  0  0  0  0  0  0
   22.5090  -17.7619  -17.2832 C   0  0  0  0  0  0  0  0  0  0  0  0
   22.1690  -16.3603  -17.6350 C   0  0  0  0  0  0  0  0  0  0  0  0
   22.4194  -15.7089  -18.8481 C   0  0  0  0  0  0  0  0  0  0  0  0
   21.9715  -14.4487  -18.7920 N   0  0  0  0  0  0  0  0  0  0  0  0
   21.4192  -14.2188  -17.5687 C   0  0  0  0  0  0  0  0  0  0  0  0
   20.8318  -13.0936  -17.0367 C   0  0  0  0  0  0  0  0  0  0  0  0
   20.3418  -13.1255  -15.7472 C   0  0  0  0  0  0  0  0  0  0  0  0
   20.4667  -14.3054  -15.0411 C   0  0  0  0  0  0  0  0  0  0  0  0
   21.0556  -15.4300  -15.5773 C   0  0  0  0  0  0  0  0  0  0  0  0
   21.5432  -15.4015  -16.8574 C   0  0  0  0  0  0  0  0  0  0  0  0
   23.8820  -19.0947  -15.7083 C   0  0  0  0  0  0  0  0  0  0  0  0
   24.3552  -20.1094  -16.2831 O   0  0  0  0  0  0  0  0  0  0  0  0
   26.0530  -19.9275  -10.1522 N   0  0  0  0  0  0  0  0  0  0  0  0
   25.6523  -21.2516  -10.4351 C   0  0  0  0  0  0  0  0  0  0  0  0
   26.0652  -22.1861   -9.7198 O   0  0  0  0  0  0  0  0  0  0  0  0
   24.7421  -21.5131  -11.5839 C   0  0  0  0  0  0  0  0  0  0  0  0
   24.5672  -20.2927  -12.4362 C   0  0  0  0  0  0  0  0  0  0  0  0
   23.6957  -20.5112  -13.6253 C   0  0  2  0  0  0  0  0  0  0  0  0
   23.4757  -19.2495  -14.3445 N   0  0  0  0  0  0  0  0  0  0  0  0
   22.3464  -21.0356  -13.3364 C   0  0  0  0  0  0  0  0  0  0  0  0
   21.4891  -20.2845  -12.8180 O   0  0  0  0  0  0  0  0  0  0  0  0
   18.8087  -24.2602  -11.0515 N   0  0  0  0  0  0  0  0  0  0  0  0
   18.8460  -22.9405  -11.5973 C   0  0  0  0  0  0  0  0  0  0  0  0
   17.7415  -22.3693  -11.7550 O   0  0  0  0  0  0  0  0  0  0  0  0
   20.1693  -22.3748  -11.9230 C   0  0  0  0  0  0  0  0  0  0  0  0
   20.6454  -22.9174  -13.2255 C   0  0  2  0  0  0  0  0  0  0  0  0
   21.9412  -22.3614  -13.6107 N   0  0  0  0  0  0  0  0  0  0  0  0
   19.6387  -22.7327  -14.2683 C   0  0  0  0  0  0  0  0  0  0  0  0
   18.5445  -23.3810  -14.1234 O   0  0  0  0  0  0  0  0  0  0  0  0
   19.7240  -21.9483  -15.3828 O   0  0  0  0  0  0  0  0  0  0  0  0
  2  1  1  6
  3  2  1  0
  4  3  1  0
  5  4  2  0
  6  7  1  0
  6  5  1  0
  7 12  2  0
  8  7  1  0
  8  9  2  0
  9 10  1  0
 10 11  2  0
 12  4  1  0
 12 11  1  0
 13  2  1  0
 14 13  2  0
 16 17  2  0
 16 15  1  0
 18 16  1  0
 19 18  1  0
 20 19  1  1
 20 21  1  0
 21 13  1  0
 22 20  1  0
 23 22  2  0
 25 27  1  0
 25 24  1  0
 26 25  2  0
 28 27  1  1
 28 30  1  0
 28 29  1  0
 29 22  1  0
 30 32  1  0
 31 30  2  0
M  END
$$$$
