WQN.pdb
     RDKit          3D

 32 33  0  0  1  0  0  0  0  0999 V2000
   19.8293  -12.6051  -16.0827 N   0  0  0  0  0  0  0  0  0  0  0  0
   18.3993  -12.5397  -15.8463 C   0  0  1  0  0  0  0  0  0  0  0  0
   18.0590  -13.7444  -14.9885 C   0  0  0  0  0  0  0  0  0  0  0  0
   18.3047  -15.0083  -15.7274 C   0  0  0  0  0  0  0  0  0  0  0  0
   17.6379  -15.4619  -16.8712 C   0  0  0  0  0  0  0  0  0  0  0  0
   18.1335  -16.6461  -17.2506 N   0  0  0  0  0  0  0  0  0  0  0  0
   19.1252  -17.0169  -16.3942 C   0  0  0  0  0  0  0  0  0  0  0  0
   19.9263  -18.1356  -16.3655 C   0  0  0  0  0  0  0  0  0  0  0  0
   20.8735  -18.2703  -15.3712 C   0  0  0  0  0  0  0  0  0  0  0  0
   20.9733  -17.2584  -14.4373 C   0  0  0  0  0  0  0  0  0  0  0  0
   20.1692  -16.1397  -14.4693 C   0  0  0  0  0  0  0  0  0  0  0  0
   19.2278  -16.0030  -15.4553 C   0  0  0  0  0  0  0  0  0  0  0  0
   18.1030  -11.2724  -15.1600 C   0  0  0  0  0  0  0  0  0  0  0  0
   18.8269  -10.8793  -14.2085 O   0  0  0  0  0  0  0  0  0  0  0  0
   18.9833   -5.9542  -16.5102 N   0  0  0  0  0  0  0  0  0  0  0  0
   18.1582   -6.6734  -17.4023 C   0  0  0  0  0  0  0  0  0  0  0  0
   18.1007   -6.3310  -18.6001 O   0  0  0  0  0  0  0  0  0  0  0  0
   17.3680   -7.8309  -16.8996 C   0  0  0  0  0  0  0  0  0  0  0  0
   17.6319   -8.0878  -15.4468 C   0  0  0  0  0  0  0  0  0  0  0  0
   16.7674   -9.1498  -14.8586 C   0  0  2  0  0  0  0  0  0  0  0  0
   17.0007  -10.4365  -15.5277 N   0  0  0  0  0  0  0  0  0  0  0  0
   15.3136   -8.9151  -14.9614 C   0  0  0  0  0  0  0  0  0  0  0  0
   14.6861   -9.3480  -15.9547 O   0  0  0  0  0  0  0  0  0  0  0  0
   12.0529   -9.5754  -11.1407 N   0  0  0  0  0  0  0  0  0  0  0  0
   11.9465   -9.1675  -12.5057 C   0  0  0  0  0  0  0  0  0  0  0  0
   11.4474   -9.9986  -13.3003 O   0  0  0  0  0  0  0  0  0  0  0  0
   12.4293   -7.8172  -12.8533 C   0  0  0  0  0  0  0  0  0  0  0  0
   13.1509   -7.8569  -14.1554 C   0  0  2  0  0  0  0  0  0  0  0  0
   14.5580   -8.2176  -13.9920 N   0  0  0  0  0  0  0  0  0  0  0  0
   12.9889   -6.5994  -14.8815 C   0  0  0  0  0  0  0  0  0  0  0  0
   11.7881   -6.1855  -15.0409 O   0  0  0  0  0  0  0  0  0  0  0  0
   13.9675   -5.8086  -15.4122 O   0  0  0  0  0  0  0  0  0  0  0  0
  2  1  1  1
  3  2  1  0
  4  3  1  0
  5  4  2  0
  6  7  1  0
  6  5  1  0
  7 12  2  0
  8  7  1  0
  8  9  2  0
  9 10  1  0
 10 11  2  0
 12  4  1  0
 12 11  1  0
 13  2  1  0
 14 13  2  0
 16 17  2  0
 16 15  1  0
 18 16  1  0
 19 18  1  0
 20 19  1  6
 20 21  1  0
 21 13  1  0
 22 20  1  0
 23 22  2  0
 25 27  1  0
 25 24  1  0
 26 25  2  0
 28 27  1  1
 28 30  1  0
 28 29  1  0
 29 22  1  0
 30 32  1  0
 31 30  2  0
M  END
$$$$
