WQN.pdb
     RDKit          3D

 32 33  0  0  1  0  0  0  0  0999 V2000
   26.3114  -22.0310  -11.8370 N   0  0  0  0  0  0  0  0  0  0  0  0
   25.6576  -20.7973  -11.4424 C   0  0  1  0  0  0  0  0  0  0  0  0
   26.7510  -19.7478  -11.3645 C   0  0  0  0  0  0  0  0  0  0  0  0
   27.7953  -20.1413  -10.3855 C   0  0  0  0  0  0  0  0  0  0  0  0
   28.9394  -20.9085  -10.6327 C   0  0  0  0  0  0  0  0  0  0  0  0
   29.6435  -21.0572   -9.5041 N   0  0  0  0  0  0  0  0  0  0  0  0
   29.0100  -20.4103   -8.4869 C   0  0  0  0  0  0  0  0  0  0  0  0
   29.3363  -20.2748   -7.1568 C   0  0  0  0  0  0  0  0  0  0  0  0
   28.5079  -19.5532   -6.3219 C   0  0  0  0  0  0  0  0  0  0  0  0
   27.3723  -18.9922   -6.8713 C   0  0  0  0  0  0  0  0  0  0  0  0
   27.0490  -19.1301   -8.2038 C   0  0  0  0  0  0  0  0  0  0  0  0
   27.8694  -19.8461   -9.0354 C   0  0  0  0  0  0  0  0  0  0  0  0
   24.6466  -20.4660  -12.4587 C   0  0  0  0  0  0  0  0  0  0  0  0
   24.9039  -19.6305  -13.3641 O   0  0  0  0  0  0  0  0  0  0  0  0
   25.1266  -25.5444  -15.2561 N   0  0  0  0  0  0  0  0  0  0  0  0
   24.4892  -24.4182  -15.8211 C   0  0  0  0  0  0  0  0  0  0  0  0
   24.8901  -23.9666  -16.9123 O   0  0  0  0  0  0  0  0  0  0  0  0
   23.3469  -23.7858  -15.1056 C   0  0  0  0  0  0  0  0  0  0  0  0
   23.8174  -22.9086  -13.9850 C   0  0  0  0  0  0  0  0  0  0  0  0
   22.8670  -21.8133  -13.6410 C   0  0  2  0  0  0  0  0  0  0  0  0
   23.3449  -21.0613  -12.4733 N   0  0  0  0  0  0  0  0  0  0  0  0
   21.4988  -22.2450  -13.2934 C   0  0  0  0  0  0  0  0  0  0  0  0
   20.8208  -22.8839  -14.1300 O   0  0  0  0  0  0  0  0  0  0  0  0
   20.6896  -23.6469   -8.8090 N   0  0  0  0  0  0  0  0  0  0  0  0
   19.8358  -23.6894   -9.9536 C   0  0  0  0  0  0  0  0  0  0  0  0
   19.7202  -24.7995  -10.5240 O   0  0  0  0  0  0  0  0  0  0  0  0
   19.1735  -22.4340  -10.3569 C   0  0  0  0  0  0  0  0  0  0  0  0
   19.4533  -22.1522  -11.7921 C   0  0  2  0  0  0  0  0  0  0  0  0
   20.8821  -21.9820  -12.0494 N   0  0  0  0  0  0  0  0  0  0  0  0
   18.6726  -21.0103  -12.2626 C   0  0  0  0  0  0  0  0  0  0  0  0
   19.2963  -19.8966  -12.3603 O   0  0  0  0  0  0  0  0  0  0  0  0
   17.3529  -20.9872  -12.6127 O   0  0  0  0  0  0  0  0  0  0  0  0
  2  1  1  6
  3  2  1  0
  4  3  1  0
  5  4  2  0
  6  7  1  0
  6  5  1  0
  7 12  2  0
  8  7  1  0
  8  9  2  0
  9 10  1  0
 10 11  2  0
 12  4  1  0
 12 11  1  0
 13  2  1  0
 14 13  2  0
 16 17  2  0
 16 15  1  0
 18 16  1  0
 19 18  1  0
 20 19  1  1
 20 21  1  0
 21 13  1  0
 22 20  1  0
 23 22  2  0
 25 27  1  0
 25 24  1  0
 26 25  2  0
 28 27  1  1
 28 30  1  0
 28 29  1  0
 29 22  1  0
 30 32  1  0
 31 30  2  0
M  END
$$$$
