WQN.pdb
     RDKit          3D

 32 33  0  0  1  0  0  0  0  0999 V2000
   16.6010  -18.8395    3.5966 N   0  0  0  0  0  0  0  0  0  0  0  0
   17.9255  -18.3620    3.9469 C   0  0  1  0  0  0  0  0  0  0  0  0
   18.2784  -17.3057    2.9159 C   0  0  0  0  0  0  0  0  0  0  0  0
   18.8893  -17.9228    1.7119 C   0  0  0  0  0  0  0  0  0  0  0  0
   18.2415  -18.6797    0.7290 C   0  0  0  0  0  0  0  0  0  0  0  0
   19.1206  -19.0698   -0.2020 N   0  0  0  0  0  0  0  0  0  0  0  0
   20.3575  -18.5987    0.1181 C   0  0  0  0  0  0  0  0  0  0  0  0
   21.5703  -18.7310   -0.5189 C   0  0  0  0  0  0  0  0  0  0  0  0
   22.6938  -18.1436    0.0257 C   0  0  0  0  0  0  0  0  0  0  0  0
   22.5440  -17.4392    1.2036 C   0  0  0  0  0  0  0  0  0  0  0  0
   21.3278  -17.3089    1.8385 C   0  0  0  0  0  0  0  0  0  0  0  0
   20.2104  -17.8910    1.3004 C   0  0  0  0  0  0  0  0  0  0  0  0
   17.8703  -17.8070    5.3084 C   0  0  0  0  0  0  0  0  0  0  0  0
   16.7620  -17.6140    5.8728 O   0  0  0  0  0  0  0  0  0  0  0  0
   21.2497  -18.4140   10.5189 N   0  0  0  0  0  0  0  0  0  0  0  0
   21.0883  -19.3448    9.4694 C   0  0  0  0  0  0  0  0  0  0  0  0
   21.4230  -20.5335    9.6435 O   0  0  0  0  0  0  0  0  0  0  0  0
   20.5205  -18.8933    8.1691 C   0  0  0  0  0  0  0  0  0  0  0  0
   20.2191  -17.4252    8.1805 C   0  0  0  0  0  0  0  0  0  0  0  0
   18.9653  -17.0646    7.4601 C   0  0  2  0  0  0  0  0  0  0  0  0
   19.0462  -17.4637    6.0489 N   0  0  0  0  0  0  0  0  0  0  0  0
   18.6354  -15.6258    7.4400 C   0  0  0  0  0  0  0  0  0  0  0  0
   18.2993  -15.0537    8.5019 O   0  0  0  0  0  0  0  0  0  0  0  0
   21.0714  -11.0260    6.6379 N   0  0  0  0  0  0  0  0  0  0  0  0
   20.0061  -11.9390    6.9073 C   0  0  0  0  0  0  0  0  0  0  0  0
   19.7628  -12.1737    8.1143 O   0  0  0  0  0  0  0  0  0  0  0  0
   19.2955  -12.5177    5.7509 C   0  0  0  0  0  0  0  0  0  0  0  0
   18.2224  -13.4358    6.2235 C   0  0  2  0  0  0  0  0  0  0  0  0
   18.6730  -14.8253    6.2760 N   0  0  0  0  0  0  0  0  0  0  0  0
   17.0119  -13.2828    5.4197 C   0  0  0  0  0  0  0  0  0  0  0  0
   16.5480  -12.0947    5.3109 O   0  0  0  0  0  0  0  0  0  0  0  0
   16.3132  -14.2578    4.7672 O   0  0  0  0  0  0  0  0  0  0  0  0
  2  1  1  6
  3  2  1  0
  4  3  1  0
  5  4  2  0
  6  7  1  0
  6  5  1  0
  7 12  2  0
  8  7  1  0
  8  9  2  0
  9 10  1  0
 10 11  2  0
 12  4  1  0
 12 11  1  0
 13  2  1  0
 14 13  2  0
 16 17  2  0
 16 15  1  0
 18 16  1  0
 19 18  1  0
 20 19  1  6
 20 21  1  0
 21 13  1  0
 22 20  1  0
 23 22  2  0
 25 27  1  0
 25 24  1  0
 26 25  2  0
 28 27  1  6
 28 30  1  0
 28 29  1  0
 29 22  1  0
 30 32  1  0
 31 30  2  0
M  END
$$$$
