WQN.pdb
     RDKit          3D

 32 33  0  0  1  0  0  0  0  0999 V2000
   25.0081  -19.2696   -8.5646 N   0  0  0  0  0  0  0  0  0  0  0  0
   26.1467  -19.9943   -9.0970 C   0  0  1  0  0  0  0  0  0  0  0  0
   26.2769  -21.2505   -8.2555 C   0  0  0  0  0  0  0  0  0  0  0  0
   26.6540  -20.9169   -6.8590 C   0  0  0  0  0  0  0  0  0  0  0  0
   25.8259  -20.9416   -5.7310 C   0  0  0  0  0  0  0  0  0  0  0  0
   26.5193  -20.5760   -4.6460 N   0  0  0  0  0  0  0  0  0  0  0  0
   27.8045  -20.3005   -5.0019 C   0  0  0  0  0  0  0  0  0  0  0  0
   28.8844  -19.8916   -4.2529 C   0  0  0  0  0  0  0  0  0  0  0  0
   30.1003  -19.6791   -4.8696 C   0  0  0  0  0  0  0  0  0  0  0  0
   30.1758  -19.8910   -6.2318 C   0  0  0  0  0  0  0  0  0  0  0  0
   29.0923  -20.3005   -6.9783 C   0  0  0  0  0  0  0  0  0  0  0  0
   27.8836  -20.5122   -6.3690 C   0  0  0  0  0  0  0  0  0  0  0  0
   25.8770  -20.3026  -10.5102 C   0  0  0  0  0  0  0  0  0  0  0  0
   24.7159  -20.1762  -10.9791 O   0  0  0  0  0  0  0  0  0  0  0  0
   28.3935  -18.1421  -14.6372 N   0  0  0  0  0  0  0  0  0  0  0  0
   28.1110  -19.2004  -15.5282 C   0  0  0  0  0  0  0  0  0  0  0  0
   27.9194  -18.9544  -16.7358 O   0  0  0  0  0  0  0  0  0  0  0  0
   28.0461  -20.5958  -15.0129 C   0  0  0  0  0  0  0  0  0  0  0  0
   28.1073  -20.6328  -13.5158 C   0  0  0  0  0  0  0  0  0  0  0  0
   26.7719  -20.5546  -12.8587 C   0  0  2  0  0  0  0  0  0  0  0  0
   26.8963  -20.7529  -11.4087 N   0  0  0  0  0  0  0  0  0  0  0  0
   25.7840  -21.5563  -13.3058 C   0  0  0  0  0  0  0  0  0  0  0  0
   26.0309  -22.7753  -13.1614 O   0  0  0  0  0  0  0  0  0  0  0  0
   20.3930  -23.1395  -14.3800 N   0  0  0  0  0  0  0  0  0  0  0  0
   21.3708  -22.6323  -15.2896 C   0  0  0  0  0  0  0  0  0  0  0  0
   21.3619  -23.1148  -16.4464 O   0  0  0  0  0  0  0  0  0  0  0  0
   22.2943  -21.5958  -14.7894 C   0  0  0  0  0  0  0  0  0  0  0  0
   23.5901  -22.2176  -14.3995 C   0  0  2  0  0  0  0  0  0  0  0  0
   24.5450  -21.2292  -13.9014 N   0  0  0  0  0  0  0  0  0  0  0  0
   24.1425  -23.0073  -15.4977 C   0  0  0  0  0  0  0  0  0  0  0  0
   24.1598  -24.2766  -15.3327 O   0  0  0  0  0  0  0  0  0  0  0  0
   24.6440  -22.5534  -16.6839 O   0  0  0  0  0  0  0  0  0  0  0  0
  2  1  1  1
  3  2  1  0
  4  3  1  0
  5  4  2  0
  6  7  1  0
  6  5  1  0
  7 12  2  0
  8  7  1  0
  8  9  2  0
  9 10  1  0
 10 11  2  0
 12  4  1  0
 12 11  1  0
 13  2  1  0
 14 13  2  0
 16 17  2  0
 16 15  1  0
 18 16  1  0
 19 18  1  0
 20 19  1  6
 20 21  1  0
 21 13  1  0
 22 20  1  0
 23 22  2  0
 25 27  1  0
 25 24  1  0
 26 25  2  0
 28 27  1  6
 28 30  1  0
 28 29  1  0
 29 22  1  0
 30 32  1  0
 31 30  2  0
M  END
$$$$
