TEP.pdb
     RDKit          3D

 24 24  0  0  1  0  0  0  0  0999 V2000
   10.0008  -14.3139   18.5821 C   0  0  0  0  0  0  0  0  0  0  0  0
    9.4971  -14.1942   19.9820 C   0  0  1  0  0  0  0  0  0  0  0  0
    9.8734  -12.9590   20.5295 O   0  0  0  0  0  0  0  0  0  0  0  0
    7.9917  -14.3597   19.9914 C   0  0  2  0  0  0  0  0  0  0  0  0
    7.3111  -13.3091   19.3070 N   0  0  0  0  0  0  0  0  0  0  0  0
    7.5785  -14.5134   21.4064 C   0  0  0  0  0  0  0  0  0  0  0  0
    7.0204  -13.5001   21.9213 O   0  0  0  0  0  0  0  0  0  0  0  0
    7.7806  -15.6989   22.1556 N   0  0  0  0  0  0  0  0  0  0  0  0
    7.2351  -15.7570   23.4878 C   0  0  1  0  0  0  0  0  0  0  0  0
    7.1683  -17.1546   24.0242 C   0  0  0  0  0  0  0  0  0  0  0  0
    6.7200  -17.2705   25.4316 C   0  0  0  0  0  0  0  0  0  0  0  0
    6.8181  -18.6813   25.8847 C   0  0  0  0  0  0  0  0  0  0  0  0
    6.6037  -19.0408   27.0645 O   0  0  0  0  0  0  0  0  0  0  0  0
    8.0879  -14.9231   24.3690 C   0  0  0  0  0  0  0  0  0  0  0  0
    9.3252  -14.8547   24.0744 O   0  0  0  0  0  0  0  0  0  0  0  0
    7.1707  -19.6398   24.9205 O   0  0  0  0  0  0  0  0  0  0  0  0
    7.6201  -14.2139   25.4901 N   0  0  0  0  0  0  0  0  0  0  0  0
    6.2863  -14.1266   26.0527 C   0  0  0  0  0  0  0  0  0  0  0  0
    6.2570  -12.8175   26.8515 C   0  0  0  0  0  0  0  0  0  0  0  0
    7.5490  -12.1629   26.4519 C   0  0  0  0  0  0  0  0  0  0  0  0
    8.4905  -13.3660   26.3358 C   0  0  1  0  0  0  0  0  0  0  0  0
    8.7296  -14.0128   27.6383 C   0  0  0  0  0  0  0  0  0  0  0  0
    9.6363  -13.4158   28.4987 O   0  0  0  0  0  0  0  0  0  0  0  0
    8.1664  -15.0696   28.0213 O   0  0  0  0  0  0  0  0  0  0  0  0
  2  1  1  6
  3  2  1  0
  4  5  1  1
  4  2  1  0
  4  6  1  0
  6  7  2  0
  8  6  1  0
  8  9  1  0
  9 14  1  0
  9 10  1  1
 11 10  1  0
 12 11  1  0
 13 12  2  0
 14 17  1  0
 14 15  2  0
 16 12  1  0
 17 21  1  0
 18 17  1  0
 19 18  1  0
 19 20  1  0
 20 21  1  0
 21 22  1  1
 22 24  2  0
 22 23  1  0
M  END
$$$$
