TEP.pdb
     RDKit          3D

 24 24  0  0  1  0  0  0  0  0999 V2000
   10.8237  -13.8966   20.8301 C   0  0  0  0  0  0  0  0  0  0  0  0
    9.9664  -12.9911   20.0100 C   0  0  1  0  0  0  0  0  0  0  0  0
   10.5854  -12.7172   18.7816 O   0  0  0  0  0  0  0  0  0  0  0  0
    8.6087  -13.6307   19.8065 C   0  0  2  0  0  0  0  0  0  0  0  0
    7.7276  -12.8303   19.0201 N   0  0  0  0  0  0  0  0  0  0  0  0
    8.0751  -13.9586   21.1499 C   0  0  0  0  0  0  0  0  0  0  0  0
    7.3783  -13.0512   21.6926 O   0  0  0  0  0  0  0  0  0  0  0  0
    8.3115  -15.1922   21.8053 N   0  0  0  0  0  0  0  0  0  0  0  0
    7.6328  -15.4350   23.0528 C   0  0  1  0  0  0  0  0  0  0  0  0
    7.4283  -16.8943   23.3247 C   0  0  0  0  0  0  0  0  0  0  0  0
    6.9506  -17.2221   24.6884 C   0  0  0  0  0  0  0  0  0  0  0  0
    6.8181  -18.6930   24.8437 C   0  0  0  0  0  0  0  0  0  0  0  0
    5.7630  -19.2521   25.2197 O   0  0  0  0  0  0  0  0  0  0  0  0
    8.4419  -14.8321   24.1395 C   0  0  0  0  0  0  0  0  0  0  0  0
    9.7079  -14.8807   24.0086 O   0  0  0  0  0  0  0  0  0  0  0  0
    7.9485  -19.4720   24.5470 O   0  0  0  0  0  0  0  0  0  0  0  0
    7.9042  -14.2185   25.2855 N   0  0  0  0  0  0  0  0  0  0  0  0
    6.5231  -13.9870   25.6626 C   0  0  0  0  0  0  0  0  0  0  0  0
    6.5535  -12.8171   26.6540 C   0  0  0  0  0  0  0  0  0  0  0  0
    7.9748  -12.3407   26.5525 C   0  0  0  0  0  0  0  0  0  0  0  0
    8.7377  -13.6571   26.3727 C   0  0  1  0  0  0  0  0  0  0  0  0
    8.6629  -14.5114   27.5713 C   0  0  0  0  0  0  0  0  0  0  0  0
    7.8033  -15.5971   27.5376 O   0  0  0  0  0  0  0  0  0  0  0  0
    9.3263  -14.3216   28.6222 O   0  0  0  0  0  0  0  0  0  0  0  0
  2  1  1  1
  3  2  1  0
  4  5  1  1
  4  2  1  0
  4  6  1  0
  6  7  2  0
  8  6  1  0
  8  9  1  0
  9 14  1  0
  9 10  1  1
 11 10  1  0
 12 11  1  0
 13 12  2  0
 14 17  1  0
 14 15  2  0
 16 12  1  0
 17 21  1  0
 18 17  1  0
 19 18  1  0
 19 20  1  0
 20 21  1  0
 21 22  1  1
 22 24  2  0
 22 23  1  0
M  END
$$$$
