TEP.pdb
     RDKit          3D

 24 24  0  0  1  0  0  0  0  0999 V2000
    8.7212  -12.2982   20.2499 C   0  0  0  0  0  0  0  0  0  0  0  0
    8.3779  -13.1750   19.0919 C   0  0  1  0  0  0  0  0  0  0  0  0
    9.0858  -12.7711   17.9505 O   0  0  0  0  0  0  0  0  0  0  0  0
    8.6845  -14.6159   19.4430 C   0  0  2  0  0  0  0  0  0  0  0  0
    8.3795  -15.5243   18.3859 N   0  0  0  0  0  0  0  0  0  0  0  0
    7.9755  -14.9170   20.7092 C   0  0  0  0  0  0  0  0  0  0  0  0
    6.9106  -15.5912   20.5871 O   0  0  0  0  0  0  0  0  0  0  0  0
    8.4332  -14.4933   21.9814 N   0  0  0  0  0  0  0  0  0  0  0  0
    7.8516  -15.1082   23.1474 C   0  0  1  0  0  0  0  0  0  0  0  0
    8.0143  -16.5977   23.1568 C   0  0  0  0  0  0  0  0  0  0  0  0
    9.3974  -17.0837   22.9420 C   0  0  0  0  0  0  0  0  0  0  0  0
    9.4953  -18.5215   23.3003 C   0  0  0  0  0  0  0  0  0  0  0  0
    8.9429  -19.4328   22.6432 O   0  0  0  0  0  0  0  0  0  0  0  0
    8.5033  -14.5261   24.3456 C   0  0  0  0  0  0  0  0  0  0  0  0
    9.7704  -14.4012   24.3074 O   0  0  0  0  0  0  0  0  0  0  0  0
   10.2516  -18.8472   24.4381 O   0  0  0  0  0  0  0  0  0  0  0  0
    7.8178  -14.1090   25.5009 N   0  0  0  0  0  0  0  0  0  0  0  0
    6.4278  -14.2803   25.8776 C   0  0  0  0  0  0  0  0  0  0  0  0
    6.1317  -13.1673   26.8907 C   0  0  0  0  0  0  0  0  0  0  0  0
    7.3628  -12.3106   26.8028 C   0  0  0  0  0  0  0  0  0  0  0  0
    8.4631  -13.3575   26.6012 C   0  0  1  0  0  0  0  0  0  0  0  0
    8.6326  -14.2210   27.7834 C   0  0  0  0  0  0  0  0  0  0  0  0
    8.2073  -15.5359   27.6887 O   0  0  0  0  0  0  0  0  0  0  0  0
    9.1370  -13.8450   28.8719 O   0  0  0  0  0  0  0  0  0  0  0  0
  2  1  1  1
  3  2  1  0
  4  5  1  6
  4  2  1  0
  4  6  1  0
  6  7  2  0
  8  6  1  0
  8  9  1  0
  9 14  1  0
  9 10  1  6
 11 10  1  0
 12 11  1  0
 13 12  2  0
 14 17  1  0
 14 15  2  0
 16 12  1  0
 17 21  1  0
 18 17  1  0
 19 18  1  0
 19 20  1  0
 20 21  1  0
 21 22  1  1
 22 24  2  0
 22 23  1  0
M  END
$$$$
