TEP.pdb
     RDKit          3D

 24 24  0  0  1  0  0  0  0  0999 V2000
    9.2588  -14.9428   18.5376 C   0  0  0  0  0  0  0  0  0  0  0  0
    8.1251  -13.9741   18.4763 C   0  0  1  0  0  0  0  0  0  0  0  0
    6.9016  -14.6595   18.4500 O   0  0  0  0  0  0  0  0  0  0  0  0
    8.1997  -13.0358   19.6628 C   0  0  2  0  0  0  0  0  0  0  0  0
    9.4494  -12.3540   19.7566 N   0  0  0  0  0  0  0  0  0  0  0  0
    7.8630  -13.8293   20.8685 C   0  0  0  0  0  0  0  0  0  0  0  0
    6.6486  -14.1733   20.9693 O   0  0  0  0  0  0  0  0  0  0  0  0
    8.8122  -14.1924   21.8557 N   0  0  0  0  0  0  0  0  0  0  0  0
    8.3480  -14.9409   22.9959 C   0  0  1  0  0  0  0  0  0  0  0  0
    8.8372  -16.3573   22.9952 C   0  0  0  0  0  0  0  0  0  0  0  0
    8.1809  -17.2520   22.0133 C   0  0  0  0  0  0  0  0  0  0  0  0
    8.7483  -18.6209   22.1104 C   0  0  0  0  0  0  0  0  0  0  0  0
    9.3807  -19.0336   23.1088 O   0  0  0  0  0  0  0  0  0  0  0  0
    8.8187  -14.2496   24.2205 C   0  0  0  0  0  0  0  0  0  0  0  0
   10.0454  -13.9081   24.2524 O   0  0  0  0  0  0  0  0  0  0  0  0
    8.5508  -19.4745   21.0126 O   0  0  0  0  0  0  0  0  0  0  0  0
    8.0054  -13.9518   25.3289 N   0  0  0  0  0  0  0  0  0  0  0  0
    6.5868  -14.1717   25.5349 C   0  0  0  0  0  0  0  0  0  0  0  0
    6.1619  -13.1638   26.6103 C   0  0  0  0  0  0  0  0  0  0  0  0
    7.3781  -12.2908   26.7375 C   0  0  0  0  0  0  0  0  0  0  0  0
    8.5142  -13.3029   26.5585 C   0  0  1  0  0  0  0  0  0  0  0  0
    8.5734  -14.2741   27.6655 C   0  0  0  0  0  0  0  0  0  0  0  0
    9.2324  -13.8939   28.8231 O   0  0  0  0  0  0  0  0  0  0  0  0
    8.0665  -15.4240   27.6303 O   0  0  0  0  0  0  0  0  0  0  0  0
  2  1  1  1
  3  2  1  0
  4  5  1  1
  4  2  1  0
  4  6  1  0
  6  7  2  0
  8  6  1  0
  8  9  1  0
  9 14  1  0
  9 10  1  6
 11 10  1  0
 12 11  1  0
 13 12  2  0
 14 17  1  0
 14 15  2  0
 16 12  1  0
 17 21  1  0
 18 17  1  0
 19 18  1  0
 19 20  1  0
 20 21  1  0
 21 22  1  1
 22 24  2  0
 22 23  1  0
M  END
$$$$
