TEP.pdb
     RDKit          3D

 24 24  0  0  1  0  0  0  0  0999 V2000
   10.2353  -14.3001   18.4611 C   0  0  0  0  0  0  0  0  0  0  0  0
    9.7411  -14.2956   19.8694 C   0  0  1  0  0  0  0  0  0  0  0  0
   10.4181  -13.3220   20.6184 O   0  0  0  0  0  0  0  0  0  0  0  0
    8.2468  -14.0496   19.8780 C   0  0  2  0  0  0  0  0  0  0  0  0
    7.8896  -12.7686   19.3612 N   0  0  0  0  0  0  0  0  0  0  0  0
    7.7737  -14.2855   21.2627 C   0  0  0  0  0  0  0  0  0  0  0  0
    7.3289  -13.2643   21.8649 O   0  0  0  0  0  0  0  0  0  0  0  0
    7.8046  -15.5535   21.8941 N   0  0  0  0  0  0  0  0  0  0  0  0
    7.2398  -15.6640   23.2149 C   0  0  1  0  0  0  0  0  0  0  0  0
    7.0100  -17.0860   23.6278 C   0  0  0  0  0  0  0  0  0  0  0  0
    6.5281  -17.2707   25.0167 C   0  0  0  0  0  0  0  0  0  0  0  0
    6.4509  -18.7174   25.3427 C   0  0  0  0  0  0  0  0  0  0  0  0
    6.7542  -19.6218   24.5319 O   0  0  0  0  0  0  0  0  0  0  0  0
    8.1700  -15.0105   24.1672 C   0  0  0  0  0  0  0  0  0  0  0  0
    9.4126  -15.0791   23.8959 O   0  0  0  0  0  0  0  0  0  0  0  0
    6.0124  -19.0601   26.6323 O   0  0  0  0  0  0  0  0  0  0  0  0
    7.7691  -14.3296   25.3310 N   0  0  0  0  0  0  0  0  0  0  0  0
    6.4618  -14.2228   25.9496 C   0  0  0  0  0  0  0  0  0  0  0  0
    6.5054  -12.9440   26.7954 C   0  0  0  0  0  0  0  0  0  0  0  0
    7.8010  -12.3146   26.3680 C   0  0  0  0  0  0  0  0  0  0  0  0
    8.6985  -13.5406   26.1710 C   0  0  1  0  0  0  0  0  0  0  0  0
    8.9676  -14.2424   27.4387 C   0  0  0  0  0  0  0  0  0  0  0  0
    9.9253  -13.7053   28.2832 O   0  0  0  0  0  0  0  0  0  0  0  0
    8.3868  -15.2954   27.8056 O   0  0  0  0  0  0  0  0  0  0  0  0
  2  1  1  6
  3  2  1  0
  4  5  1  1
  4  2  1  0
  4  6  1  0
  6  7  2  0
  8  6  1  0
  8  9  1  0
  9 14  1  0
  9 10  1  1
 11 10  1  0
 12 11  1  0
 13 12  2  0
 14 17  1  0
 14 15  2  0
 16 12  1  0
 17 21  1  0
 18 17  1  0
 19 18  1  0
 19 20  1  0
 20 21  1  0
 21 22  1  1
 22 24  2  0
 22 23  1  0
M  END
$$$$
