TEP.pdb
     RDKit          3D

 24 24  0  0  1  0  0  0  0  0999 V2000
   10.4388  -13.6014   20.7568 C   0  0  0  0  0  0  0  0  0  0  0  0
    9.3923  -13.0691   19.8353 C   0  0  1  0  0  0  0  0  0  0  0  0
    9.9346  -12.8475   18.5610 O   0  0  0  0  0  0  0  0  0  0  0  0
    8.2333  -14.0420   19.7738 C   0  0  2  0  0  0  0  0  0  0  0  0
    7.1909  -13.6128   18.8993 N   0  0  0  0  0  0  0  0  0  0  0  0
    7.7835  -14.2736   21.1669 C   0  0  0  0  0  0  0  0  0  0  0  0
    7.0186  -13.3847   21.6443 O   0  0  0  0  0  0  0  0  0  0  0  0
    8.1662  -15.4011   21.9348 N   0  0  0  0  0  0  0  0  0  0  0  0
    7.5801  -15.5586   23.2415 C   0  0  1  0  0  0  0  0  0  0  0  0
    7.4515  -16.9952   23.6477 C   0  0  0  0  0  0  0  0  0  0  0  0
    7.0081  -17.2200   25.0434 C   0  0  0  0  0  0  0  0  0  0  0  0
    6.9454  -18.6754   25.3316 C   0  0  0  0  0  0  0  0  0  0  0  0
    7.2756  -19.5548   24.5040 O   0  0  0  0  0  0  0  0  0  0  0  0
    8.4337  -14.8375   24.2165 C   0  0  0  0  0  0  0  0  0  0  0  0
    9.6883  -14.8422   23.9962 O   0  0  0  0  0  0  0  0  0  0  0  0
    6.4891  -19.0565   26.6041 O   0  0  0  0  0  0  0  0  0  0  0  0
    7.9492  -14.1587   25.3493 N   0  0  0  0  0  0  0  0  0  0  0  0
    6.5869  -13.8983   25.7728 C   0  0  0  0  0  0  0  0  0  0  0  0
    6.6652  -12.6759   26.6961 C   0  0  0  0  0  0  0  0  0  0  0  0
    8.0826  -12.2148   26.5068 C   0  0  0  0  0  0  0  0  0  0  0  0
    8.8317  -13.5439   26.3666 C   0  0  1  0  0  0  0  0  0  0  0  0
    8.8062  -14.3307   27.6125 C   0  0  0  0  0  0  0  0  0  0  0  0
    9.7191  -14.0033   28.6016 O   0  0  0  0  0  0  0  0  0  0  0  0
    8.0121  -15.2788   27.8385 O   0  0  0  0  0  0  0  0  0  0  0  0
  2  1  1  1
  3  2  1  0
  4  5  1  6
  4  2  1  0
  4  6  1  0
  6  7  2  0
  8  6  1  0
  8  9  1  0
  9 14  1  0
  9 10  1  1
 11 10  1  0
 12 11  1  0
 13 12  2  0
 14 17  1  0
 14 15  2  0
 16 12  1  0
 17 21  1  0
 18 17  1  0
 19 18  1  0
 19 20  1  0
 20 21  1  0
 21 22  1  1
 22 24  2  0
 22 23  1  0
M  END
$$$$
