TEP.pdb
     RDKit          3D

 24 24  0  0  1  0  0  0  0  0999 V2000
    8.2965  -12.7111   20.2537 C   0  0  0  0  0  0  0  0  0  0  0  0
    7.9107  -13.7625   19.2672 C   0  0  1  0  0  0  0  0  0  0  0  0
    8.6683  -13.6294   18.0944 O   0  0  0  0  0  0  0  0  0  0  0  0
    8.1020  -15.1304   19.8883 C   0  0  2  0  0  0  0  0  0  0  0  0
    7.6898  -16.1943   19.0317 N   0  0  0  0  0  0  0  0  0  0  0  0
    7.4061  -15.1167   21.1969 C   0  0  0  0  0  0  0  0  0  0  0  0
    6.1815  -15.4369   21.1629 O   0  0  0  0  0  0  0  0  0  0  0  0
    8.0407  -14.7736   22.4163 N   0  0  0  0  0  0  0  0  0  0  0  0
    7.2782  -14.8972   23.6324 C   0  0  1  0  0  0  0  0  0  0  0  0
    6.8259  -16.3023   23.8904 C   0  0  0  0  0  0  0  0  0  0  0  0
    7.9123  -17.2998   24.0323 C   0  0  0  0  0  0  0  0  0  0  0  0
    7.3551  -18.6024   24.4774 C   0  0  0  0  0  0  0  0  0  0  0  0
    6.1282  -18.8196   24.5990 O   0  0  0  0  0  0  0  0  0  0  0  0
    8.1274  -14.4309   24.7552 C   0  0  0  0  0  0  0  0  0  0  0  0
    9.3848  -14.5913   24.6302 O   0  0  0  0  0  0  0  0  0  0  0  0
    8.2730  -19.6244   24.7700 O   0  0  0  0  0  0  0  0  0  0  0  0
    7.6362  -13.8306   25.9287 N   0  0  0  0  0  0  0  0  0  0  0  0
    6.2739  -13.6762   26.4015 C   0  0  0  0  0  0  0  0  0  0  0  0
    6.3030  -12.4890   27.3723 C   0  0  0  0  0  0  0  0  0  0  0  0
    7.6815  -11.9297   27.1620 C   0  0  0  0  0  0  0  0  0  0  0  0
    8.5090  -13.2008   26.9452 C   0  0  1  0  0  0  0  0  0  0  0  0
    8.5724  -14.0366   28.1575 C   0  0  0  0  0  0  0  0  0  0  0  0
    7.8622  -15.2259   28.1594 O   0  0  0  0  0  0  0  0  0  0  0  0
    9.2274  -13.7433   29.1897 O   0  0  0  0  0  0  0  0  0  0  0  0
  2  1  1  1
  3  2  1  0
  4  5  1  6
  4  2  1  0
  4  6  1  0
  6  7  2  0
  8  6  1  0
  8  9  1  0
  9 14  1  0
  9 10  1  1
 11 10  1  0
 12 11  1  0
 13 12  2  0
 14 17  1  0
 14 15  2  0
 16 12  1  0
 17 21  1  0
 18 17  1  0
 19 18  1  0
 19 20  1  0
 20 21  1  0
 21 22  1  1
 22 24  2  0
 22 23  1  0
M  END
$$$$
