TEP.pdb
     RDKit          3D

 24 24  0  0  1  0  0  0  0  0999 V2000
   10.1692  -14.7287   18.8753 C   0  0  0  0  0  0  0  0  0  0  0  0
    9.1175  -14.4538   19.8980 C   0  0  1  0  0  0  0  0  0  0  0  0
    8.2925  -13.4012   19.4754 O   0  0  0  0  0  0  0  0  0  0  0  0
    8.3129  -15.7131   20.1441 C   0  0  2  0  0  0  0  0  0  0  0  0
    7.3900  -15.9990   19.0943 N   0  0  0  0  0  0  0  0  0  0  0  0
    7.6752  -15.5705   21.4744 C   0  0  0  0  0  0  0  0  0  0  0  0
    6.4901  -15.1248   21.4624 O   0  0  0  0  0  0  0  0  0  0  0  0
    8.3217  -15.9018   22.6909 N   0  0  0  0  0  0  0  0  0  0  0  0
    7.5669  -15.7789   23.9119 C   0  0  1  0  0  0  0  0  0  0  0  0
    7.3158  -17.1009   24.5713 C   0  0  0  0  0  0  0  0  0  0  0  0
    6.4552  -18.0345   23.8078 C   0  0  0  0  0  0  0  0  0  0  0  0
    6.3844  -19.3464   24.5001 C   0  0  0  0  0  0  0  0  0  0  0  0
    5.3080  -19.9358   24.7474 O   0  0  0  0  0  0  0  0  0  0  0  0
    8.3245  -14.8967   24.8322 C   0  0  0  0  0  0  0  0  0  0  0  0
    9.5773  -14.7921   24.6271 O   0  0  0  0  0  0  0  0  0  0  0  0
    7.6011  -19.9327   24.8857 O   0  0  0  0  0  0  0  0  0  0  0  0
    7.7521  -14.1792   25.8982 N   0  0  0  0  0  0  0  0  0  0  0  0
    6.3760  -14.1158   26.3517 C   0  0  0  0  0  0  0  0  0  0  0  0
    6.2520  -12.7934   27.1190 C   0  0  0  0  0  0  0  0  0  0  0  0
    7.5557  -12.1136   26.8097 C   0  0  0  0  0  0  0  0  0  0  0  0
    8.5319  -13.2942   26.7928 C   0  0  1  0  0  0  0  0  0  0  0  0
    8.6820  -13.9109   28.1229 C   0  0  0  0  0  0  0  0  0  0  0  0
    9.5433  -13.3040   29.0223 O   0  0  0  0  0  0  0  0  0  0  0  0
    8.0815  -14.9503   28.4966 O   0  0  0  0  0  0  0  0  0  0  0  0
  2  1  1  6
  3  2  1  0
  4  5  1  6
  4  2  1  0
  4  6  1  0
  6  7  2  0
  8  6  1  0
  8  9  1  0
  9 14  1  0
  9 10  1  1
 11 10  1  0
 12 11  1  0
 13 12  2  0
 14 17  1  0
 14 15  2  0
 16 12  1  0
 17 21  1  0
 18 17  1  0
 19 18  1  0
 19 20  1  0
 20 21  1  0
 21 22  1  1
 22 24  2  0
 22 23  1  0
M  END
$$$$
