TEP.pdb
     RDKit          3D

 24 24  0  0  1  0  0  0  0  0999 V2000
   10.1689  -14.5168   18.6327 C   0  0  0  0  0  0  0  0  0  0  0  0
    9.6065  -14.3586   20.0061 C   0  0  1  0  0  0  0  0  0  0  0  0
   10.2460  -13.3043   20.6742 O   0  0  0  0  0  0  0  0  0  0  0  0
    8.1135  -14.1212   19.9146 C   0  0  2  0  0  0  0  0  0  0  0  0
    7.7815  -12.9209   19.2185 N   0  0  0  0  0  0  0  0  0  0  0  0
    7.5775  -14.1758   21.2954 C   0  0  0  0  0  0  0  0  0  0  0  0
    7.2359  -13.0608   21.7886 O   0  0  0  0  0  0  0  0  0  0  0  0
    7.4452  -15.3766   22.0357 N   0  0  0  0  0  0  0  0  0  0  0  0
    6.8620  -15.2981   23.3508 C   0  0  1  0  0  0  0  0  0  0  0  0
    6.4458  -16.6372   23.8790 C   0  0  0  0  0  0  0  0  0  0  0  0
    7.5567  -17.5298   24.2841 C   0  0  0  0  0  0  0  0  0  0  0  0
    7.0177  -18.7764   24.8846 C   0  0  0  0  0  0  0  0  0  0  0  0
    5.7959  -19.0457   24.9286 O   0  0  0  0  0  0  0  0  0  0  0  0
    7.8633  -14.6906   24.2606 C   0  0  0  0  0  0  0  0  0  0  0  0
    9.0775  -14.7129   23.8765 O   0  0  0  0  0  0  0  0  0  0  0  0
    7.9473  -19.6812   25.4230 O   0  0  0  0  0  0  0  0  0  0  0  0
    7.5575  -14.0997   25.5000 N   0  0  0  0  0  0  0  0  0  0  0  0
    6.2764  -13.8920   26.1473 C   0  0  0  0  0  0  0  0  0  0  0  0
    6.4907  -12.7350   27.1312 C   0  0  0  0  0  0  0  0  0  0  0  0
    7.8584  -12.2382   26.7572 C   0  0  0  0  0  0  0  0  0  0  0  0
    8.5842  -13.5416   26.4089 C   0  0  1  0  0  0  0  0  0  0  0  0
    8.7581  -14.4128   27.5849 C   0  0  0  0  0  0  0  0  0  0  0  0
    9.7638  -14.0929   28.4821 O   0  0  0  0  0  0  0  0  0  0  0  0
    8.0555  -15.4264   27.8289 O   0  0  0  0  0  0  0  0  0  0  0  0
  2  1  1  6
  3  2  1  0
  4  5  1  1
  4  2  1  0
  4  6  1  0
  6  7  2  0
  8  6  1  0
  8  9  1  0
  9 14  1  0
  9 10  1  1
 11 10  1  0
 12 11  1  0
 13 12  2  0
 14 17  1  0
 14 15  2  0
 16 12  1  0
 17 21  1  0
 18 17  1  0
 19 18  1  0
 19 20  1  0
 20 21  1  0
 21 22  1  1
 22 24  2  0
 22 23  1  0
M  END
$$$$
