TEP.pdb
     RDKit          3D

 24 24  0  0  1  0  0  0  0  0999 V2000
   10.2419  -14.1211   18.6280 C   0  0  0  0  0  0  0  0  0  0  0  0
    9.6832  -14.0348   20.0093 C   0  0  1  0  0  0  0  0  0  0  0  0
   10.0590  -12.8246   20.6104 O   0  0  0  0  0  0  0  0  0  0  0  0
    8.1759  -14.1710   19.9522 C   0  0  2  0  0  0  0  0  0  0  0  0
    7.5417  -13.0759   19.2934 N   0  0  0  0  0  0  0  0  0  0  0  0
    7.7041  -14.3838   21.3411 C   0  0  0  0  0  0  0  0  0  0  0  0
    7.1747  -13.3753   21.8942 O   0  0  0  0  0  0  0  0  0  0  0  0
    7.8237  -15.6177   22.0270 N   0  0  0  0  0  0  0  0  0  0  0  0
    7.3099  -15.6958   23.3708 C   0  0  1  0  0  0  0  0  0  0  0  0
    7.2196  -17.1045   23.8738 C   0  0  0  0  0  0  0  0  0  0  0  0
    6.7268  -17.2488   25.2636 C   0  0  0  0  0  0  0  0  0  0  0  0
    6.7732  -18.6744   25.6768 C   0  0  0  0  0  0  0  0  0  0  0  0
    6.4192  -19.0736   26.8093 O   0  0  0  0  0  0  0  0  0  0  0  0
    8.2059  -14.9069   24.2505 C   0  0  0  0  0  0  0  0  0  0  0  0
    9.4384  -14.8699   23.9313 O   0  0  0  0  0  0  0  0  0  0  0  0
    7.2419  -19.6000   24.7300 O   0  0  0  0  0  0  0  0  0  0  0  0
    7.7832  -14.2075   25.3955 N   0  0  0  0  0  0  0  0  0  0  0  0
    6.4849  -14.1653   26.0404 C   0  0  0  0  0  0  0  0  0  0  0  0
    6.4573  -12.8525   26.8333 C   0  0  0  0  0  0  0  0  0  0  0  0
    7.6966  -12.1539   26.3503 C   0  0  0  0  0  0  0  0  0  0  0  0
    8.6729  -13.3224   26.1809 C   0  0  1  0  0  0  0  0  0  0  0  0
    9.0168  -13.9510   27.4688 C   0  0  0  0  0  0  0  0  0  0  0  0
    8.4599  -15.1871   27.7530 O   0  0  0  0  0  0  0  0  0  0  0  0
    9.7813  -13.4413   28.3270 O   0  0  0  0  0  0  0  0  0  0  0  0
  2  1  1  6
  3  2  1  0
  4  5  1  1
  4  2  1  0
  4  6  1  0
  6  7  2  0
  8  6  1  0
  8  9  1  0
  9 14  1  0
  9 10  1  1
 11 10  1  0
 12 11  1  0
 13 12  2  0
 14 17  1  0
 14 15  2  0
 16 12  1  0
 17 21  1  0
 18 17  1  0
 19 18  1  0
 19 20  1  0
 20 21  1  0
 21 22  1  1
 22 24  2  0
 22 23  1  0
M  END
$$$$
