TEP.pdb
     RDKit          3D

 24 24  0  0  1  0  0  0  0  0999 V2000
   10.3205  -14.0214   18.4711 C   0  0  0  0  0  0  0  0  0  0  0  0
    9.8041  -14.0342   19.8713 C   0  0  1  0  0  0  0  0  0  0  0  0
   10.4570  -13.0585   20.6387 O   0  0  0  0  0  0  0  0  0  0  0  0
    8.3069  -13.8064   19.8580 C   0  0  2  0  0  0  0  0  0  0  0  0
    7.9448  -12.5060   19.3961 N   0  0  0  0  0  0  0  0  0  0  0  0
    7.8063  -14.1152   21.2185 C   0  0  0  0  0  0  0  0  0  0  0  0
    7.5406  -13.1088   21.9396 O   0  0  0  0  0  0  0  0  0  0  0  0
    7.6277  -15.4337   21.7053 N   0  0  0  0  0  0  0  0  0  0  0  0
    7.1132  -15.5964   23.0412 C   0  0  1  0  0  0  0  0  0  0  0  0
    6.8110  -17.0258   23.3738 C   0  0  0  0  0  0  0  0  0  0  0  0
    6.3611  -17.2695   24.7643 C   0  0  0  0  0  0  0  0  0  0  0  0
    6.1225  -18.7197   24.9774 C   0  0  0  0  0  0  0  0  0  0  0  0
    6.8311  -19.4301   25.7260 O   0  0  0  0  0  0  0  0  0  0  0  0
    8.1225  -15.0647   23.9888 C   0  0  0  0  0  0  0  0  0  0  0  0
    9.3454  -15.1850   23.6535 O   0  0  0  0  0  0  0  0  0  0  0  0
    5.0409  -19.2975   24.2926 O   0  0  0  0  0  0  0  0  0  0  0  0
    7.8154  -14.4445   25.2134 N   0  0  0  0  0  0  0  0  0  0  0  0
    6.5323  -14.2037   25.8449 C   0  0  0  0  0  0  0  0  0  0  0  0
    6.7566  -13.0310   26.8078 C   0  0  0  0  0  0  0  0  0  0  0  0
    8.1353  -12.5634   26.4364 C   0  0  0  0  0  0  0  0  0  0  0  0
    8.8431  -13.8849   26.1203 C   0  0  1  0  0  0  0  0  0  0  0  0
    8.9927  -14.7352   27.3148 C   0  0  0  0  0  0  0  0  0  0  0  0
    8.1729  -15.8465   27.4229 O   0  0  0  0  0  0  0  0  0  0  0  0
    9.8139  -14.5201   28.2422 O   0  0  0  0  0  0  0  0  0  0  0  0
  2  1  1  6
  3  2  1  0
  4  5  1  1
  4  2  1  0
  4  6  1  0
  6  7  2  0
  8  6  1  0
  8  9  1  0
  9 14  1  0
  9 10  1  1
 11 10  1  0
 12 11  1  0
 13 12  2  0
 14 17  1  0
 14 15  2  0
 16 12  1  0
 17 21  1  0
 18 17  1  0
 19 18  1  0
 19 20  1  0
 20 21  1  0
 21 22  1  1
 22 24  2  0
 22 23  1  0
M  END
$$$$
