TEP.pdb
     RDKit          3D

 24 24  0  0  1  0  0  0  0  0999 V2000
    8.0710  -19.8324   27.2435 C   0  0  0  0  0  0  0  0  0  0  0  0
    8.9099  -18.6417   27.5690 C   0  0  1  0  0  0  0  0  0  0  0  0
    9.4696  -18.7771   28.8479 O   0  0  0  0  0  0  0  0  0  0  0  0
    9.9866  -18.4812   26.5161 C   0  0  2  0  0  0  0  0  0  0  0  0
   11.3062  -18.6008   27.0453 N   0  0  0  0  0  0  0  0  0  0  0  0
    9.7360  -17.1923   25.8286 C   0  0  0  0  0  0  0  0  0  0  0  0
   10.3330  -16.1902   26.3211 O   0  0  0  0  0  0  0  0  0  0  0  0
    8.8926  -17.0605   24.6977 N   0  0  0  0  0  0  0  0  0  0  0  0
    8.6175  -15.7323   24.2118 C   0  0  1  0  0  0  0  0  0  0  0  0
    8.0888  -15.7282   22.8097 C   0  0  0  0  0  0  0  0  0  0  0  0
    7.7345  -14.3938   22.2720 C   0  0  0  0  0  0  0  0  0  0  0  0
    7.2530  -14.5181   20.8727 C   0  0  0  0  0  0  0  0  0  0  0  0
    7.1573  -15.6131   20.2735 O   0  0  0  0  0  0  0  0  0  0  0  0
    7.6272  -15.1075   25.1218 C   0  0  0  0  0  0  0  0  0  0  0  0
    6.8251  -15.8920   25.7247 O   0  0  0  0  0  0  0  0  0  0  0  0
    6.8937  -13.3319   20.2120 O   0  0  0  0  0  0  0  0  0  0  0  0
    7.5236  -13.7244   25.3565 N   0  0  0  0  0  0  0  0  0  0  0  0
    8.0643  -12.6051   24.6093 C   0  0  0  0  0  0  0  0  0  0  0  0
    8.1399  -11.4395   25.6035 C   0  0  0  0  0  0  0  0  0  0  0  0
    7.8415  -12.1096   26.9147 C   0  0  0  0  0  0  0  0  0  0  0  0
    6.7918  -13.1486   26.5074 C   0  0  1  0  0  0  0  0  0  0  0  0
    5.5356  -12.5230   26.0570 C   0  0  0  0  0  0  0  0  0  0  0  0
    4.6619  -12.0587   27.0265 O   0  0  0  0  0  0  0  0  0  0  0  0
    5.2034  -12.3822   24.8527 O   0  0  0  0  0  0  0  0  0  0  0  0
  2  1  1  6
  3  2  1  0
  4  5  1  1
  4  2  1  0
  4  6  1  0
  6  7  2  0
  8  6  1  0
  8  9  1  0
  9 14  1  0
  9 10  1  6
 11 10  1  0
 12 11  1  0
 13 12  2  0
 14 17  1  0
 14 15  2  0
 16 12  1  0
 17 21  1  0
 18 17  1  0
 19 18  1  0
 19 20  1  0
 20 21  1  0
 21 22  1  6
 22 24  2  0
 22 23  1  0
M  END
$$$$
