TEP.pdb
     RDKit          3D

 24 24  0  0  1  0  0  0  0  0999 V2000
    8.5433  -12.4417   20.5167 C   0  0  0  0  0  0  0  0  0  0  0  0
    8.0595  -13.3162   19.4082 C   0  0  1  0  0  0  0  0  0  0  0  0
    8.7175  -12.9933   18.2124 O   0  0  0  0  0  0  0  0  0  0  0  0
    8.2814  -14.7679   19.7785 C   0  0  2  0  0  0  0  0  0  0  0  0
    7.7898  -15.6759   18.7940 N   0  0  0  0  0  0  0  0  0  0  0  0
    7.6905  -14.9706   21.1226 C   0  0  0  0  0  0  0  0  0  0  0  0
    6.4282  -15.0667   21.1508 O   0  0  0  0  0  0  0  0  0  0  0  0
    8.4590  -15.0549   22.3099 N   0  0  0  0  0  0  0  0  0  0  0  0
    7.7617  -15.2755   23.5513 C   0  0  1  0  0  0  0  0  0  0  0  0
    7.6556  -16.7279   23.9040 C   0  0  0  0  0  0  0  0  0  0  0  0
    8.2455  -17.6626   22.9173 C   0  0  0  0  0  0  0  0  0  0  0  0
    8.8595  -18.8211   23.6144 C   0  0  0  0  0  0  0  0  0  0  0  0
    9.7294  -19.5550   23.0928 O   0  0  0  0  0  0  0  0  0  0  0  0
    8.4912  -14.5528   24.6212 C   0  0  0  0  0  0  0  0  0  0  0  0
    9.7507  -14.4299   24.4766 O   0  0  0  0  0  0  0  0  0  0  0  0
    8.4241  -19.0841   24.9236 O   0  0  0  0  0  0  0  0  0  0  0  0
    7.8857  -14.0025   25.7655 N   0  0  0  0  0  0  0  0  0  0  0  0
    6.4947  -13.9939   26.1760 C   0  0  0  0  0  0  0  0  0  0  0  0
    6.3518  -12.8051   27.1347 C   0  0  0  0  0  0  0  0  0  0  0  0
    7.6699  -12.1010   26.9796 C   0  0  0  0  0  0  0  0  0  0  0  0
    8.6387  -13.2761   26.8129 C   0  0  1  0  0  0  0  0  0  0  0  0
    8.7374  -14.0933   28.0355 C   0  0  0  0  0  0  0  0  0  0  0  0
    9.5544  -13.6332   29.0551 O   0  0  0  0  0  0  0  0  0  0  0  0
    8.1304  -15.1794   28.2156 O   0  0  0  0  0  0  0  0  0  0  0  0
  2  1  1  1
  3  2  1  0
  4  5  1  6
  4  2  1  0
  4  6  1  0
  6  7  2  0
  8  6  1  0
  8  9  1  0
  9 14  1  0
  9 10  1  1
 11 10  1  0
 12 11  1  0
 13 12  2  0
 14 17  1  0
 14 15  2  0
 16 12  1  0
 17 21  1  0
 18 17  1  0
 19 18  1  0
 19 20  1  0
 20 21  1  0
 21 22  1  1
 22 24  2  0
 22 23  1  0
M  END
$$$$
