DCT.pdb
     RDKit          3D

 22 21  0  0  1  0  0  0  0  0999 V2000
   18.9801  -13.0028  -17.0214 N   0  0  0  0  0  0  0  0  0  0  0  0
   19.9041  -12.0216  -17.5168 C   0  0  1  0  0  0  0  0  0  0  0  0
   19.6971  -11.7144  -18.9825 C   0  0  0  0  0  0  0  0  0  0  0  0
   19.8296  -12.9702  -19.7346 C   0  0  0  0  0  0  0  0  0  0  0  0
   20.7704  -13.7449  -19.4263 O   0  0  0  0  0  0  0  0  0  0  0  0
   19.7729  -10.7834  -16.6864 C   0  0  0  0  0  0  0  0  0  0  0  0
   18.7335  -10.5610  -15.9971 O   0  0  0  0  0  0  0  0  0  0  0  0
   18.9850  -13.3588  -20.7636 O   0  0  0  0  0  0  0  0  0  0  0  0
   20.7898   -9.8019  -16.6242 N   0  0  0  0  0  0  0  0  0  0  0  0
   20.7472   -8.6801  -15.6916 C   0  0  1  0  0  0  0  0  0  0  0  0
   21.9922   -8.6563  -14.8420 C   0  0  0  0  0  0  0  0  0  0  0  0
   21.6773   -8.9170  -13.0864 S   0  0  0  0  0  0  0  0  0  0  0  0
   20.4859   -7.4509  -16.4423 C   0  0  0  0  0  0  0  0  0  0  0  0
   21.2434   -7.2059  -17.4448 O   0  0  0  0  0  0  0  0  0  0  0  0
   17.4660   -6.3555  -18.2661 C   0  0  0  0  0  0  0  0  0  0  0  0
   17.8655   -5.2015  -17.3669 C   0  0  1  0  0  0  0  0  0  0  0  0
   17.1616   -5.2401  -16.1759 O   0  0  0  0  0  0  0  0  0  0  0  0
   19.3514   -5.3509  -17.0870 C   0  0  2  0  0  0  0  0  0  0  0  0
   19.4845   -6.4993  -16.1841 N   0  0  0  0  0  0  0  0  0  0  0  0
   19.8822   -4.1260  -16.4315 C   0  0  0  0  0  0  0  0  0  0  0  0
   20.1733   -4.1547  -15.2225 O   0  0  0  0  0  0  0  0  0  0  0  0
   20.0567   -2.9548  -17.1479 O   0  0  0  0  0  0  0  0  0  0  0  0
  2  1  1  1
  2  6  1  0
  2  3  1  0
  3  4  1  0
  4  5  2  0
  4  8  1  0
  6  7  2  0
  6  9  1  0
  9 10  1  0
 10 13  1  0
 10 11  1  6
 12 11  1  0
 13 14  2  0
 13 19  1  0
 16 15  1  6
 17 16  1  0
 18 16  1  0
 18 20  1  0
 18 19  1  1
 20 22  1  0
 21 20  2  0
M  END
$$$$
