DCT.pdb
     RDKit          3D

 22 21  0  0  1  0  0  0  0  0999 V2000
   18.2912  -10.4555  -15.1020 N   0  0  0  0  0  0  0  0  0  0  0  0
   19.0472   -9.4964  -15.8575 C   0  0  1  0  0  0  0  0  0  0  0  0
   18.3223   -9.0319  -17.1001 C   0  0  0  0  0  0  0  0  0  0  0  0
   18.1505  -10.1907  -17.9877 C   0  0  0  0  0  0  0  0  0  0  0  0
   19.0322  -11.0865  -17.9641 O   0  0  0  0  0  0  0  0  0  0  0  0
   19.3750   -8.3404  -14.9651 C   0  0  0  0  0  0  0  0  0  0  0  0
   18.6891   -8.0947  -13.9287 O   0  0  0  0  0  0  0  0  0  0  0  0
   17.0791  -10.3629  -18.8513 O   0  0  0  0  0  0  0  0  0  0  0  0
   20.4565   -7.4663  -15.2246 N   0  0  0  0  0  0  0  0  0  0  0  0
   20.7656   -6.3203  -14.3752 C   0  0  1  0  0  0  0  0  0  0  0  0
   22.1143   -6.4973  -13.7254 C   0  0  0  0  0  0  0  0  0  0  0  0
   22.7613   -4.9912  -12.9757 S   0  0  0  0  0  0  0  0  0  0  0  0
   20.6125   -5.0947  -15.1608 C   0  0  0  0  0  0  0  0  0  0  0  0
   21.2949   -5.0030  -16.2401 O   0  0  0  0  0  0  0  0  0  0  0  0
   17.7608   -3.4563  -16.8590 C   0  0  0  0  0  0  0  0  0  0  0  0
   18.3884   -2.4062  -15.9629 C   0  0  1  0  0  0  0  0  0  0  0  0
   17.7292   -2.3396  -14.7478 O   0  0  0  0  0  0  0  0  0  0  0  0
   19.8329   -2.8206  -15.7382 C   0  0  2  0  0  0  0  0  0  0  0  0
   19.7901   -3.9953  -14.8608 N   0  0  0  0  0  0  0  0  0  0  0  0
   20.5916   -1.7235  -15.0805 C   0  0  0  0  0  0  0  0  0  0  0  0
   21.0028   -1.8747  -13.9163 O   0  0  0  0  0  0  0  0  0  0  0  0
   20.8464   -0.5369  -15.7457 O   0  0  0  0  0  0  0  0  0  0  0  0
  2  1  1  1
  2  6  1  0
  2  3  1  0
  3  4  1  0
  4  5  2  0
  4  8  1  0
  6  7  2  0
  6  9  1  0
  9 10  1  0
 10 13  1  0
 10 11  1  6
 12 11  1  0
 13 14  2  0
 13 19  1  0
 16 15  1  6
 17 16  1  0
 18 16  1  0
 18 20  1  0
 18 19  1  1
 20 22  1  0
 21 20  2  0
M  END
$$$$
