DCT.pdb
     RDKit          3D

 22 21  0  0  1  0  0  0  0  0999 V2000
   19.9233  -11.1978  -17.5157 N   0  0  0  0  0  0  0  0  0  0  0  0
   19.0748  -10.5659  -16.5448 C   0  0  1  0  0  0  0  0  0  0  0  0
   18.2740  -11.5606  -15.7357 C   0  0  0  0  0  0  0  0  0  0  0  0
   17.3314  -12.2318  -16.6420 C   0  0  0  0  0  0  0  0  0  0  0  0
   17.3041  -11.8613  -17.8430 O   0  0  0  0  0  0  0  0  0  0  0  0
   19.9238   -9.7124  -15.6556 C   0  0  0  0  0  0  0  0  0  0  0  0
   19.4296   -9.1056  -14.6593 O   0  0  0  0  0  0  0  0  0  0  0  0
   16.4685  -13.2483  -16.2608 O   0  0  0  0  0  0  0  0  0  0  0  0
   21.3104   -9.5363  -15.8738 N   0  0  0  0  0  0  0  0  0  0  0  0
   22.1664   -8.7972  -14.9512 C   0  0  1  0  0  0  0  0  0  0  0  0
   23.5836   -9.3052  -15.0289 C   0  0  0  0  0  0  0  0  0  0  0  0
   23.8635  -10.8194  -14.0919 S   0  0  0  0  0  0  0  0  0  0  0  0
   22.0073   -7.3641  -15.2037 C   0  0  0  0  0  0  0  0  0  0  0  0
   22.3850   -6.9263  -16.3459 O   0  0  0  0  0  0  0  0  0  0  0  0
   19.2562   -5.3034  -15.7554 C   0  0  0  0  0  0  0  0  0  0  0  0
   20.0033   -4.5577  -14.6665 C   0  0  1  0  0  0  0  0  0  0  0  0
   19.4889   -4.8649  -13.4189 O   0  0  0  0  0  0  0  0  0  0  0  0
   21.4553   -4.9987  -14.7429 C   0  0  2  0  0  0  0  0  0  0  0  0
   21.4791   -6.4041  -14.3237 N   0  0  0  0  0  0  0  0  0  0  0  0
   22.2950   -4.1818  -13.8266 C   0  0  0  0  0  0  0  0  0  0  0  0
   22.5003   -2.9832  -14.0882 O   0  0  0  0  0  0  0  0  0  0  0  0
   22.8510   -4.7367  -12.6870 O   0  0  0  0  0  0  0  0  0  0  0  0
  2  1  1  6
  2  6  1  0
  2  3  1  0
  3  4  1  0
  4  5  2  0
  4  8  1  0
  6  7  2  0
  6  9  1  0
  9 10  1  0
 10 13  1  0
 10 11  1  6
 12 11  1  0
 13 14  2  0
 13 19  1  0
 16 15  1  6
 17 16  1  0
 18 16  1  0
 18 20  1  0
 18 19  1  1
 20 22  1  0
 21 20  2  0
M  END
$$$$
