DCT.pdb
     RDKit          3D

 22 21  0  0  1  0  0  0  0  0999 V2000
   27.4499   -9.3880  -20.6801 N   0  0  0  0  0  0  0  0  0  0  0  0
   26.9411   -8.5048  -19.6685 C   0  0  1  0  0  0  0  0  0  0  0  0
   26.5734   -7.1440  -20.2147 C   0  0  0  0  0  0  0  0  0  0  0  0
   27.8154   -6.4503  -20.5841 C   0  0  0  0  0  0  0  0  0  0  0  0
   28.6488   -6.2101  -19.6741 O   0  0  0  0  0  0  0  0  0  0  0  0
   25.7616   -9.1572  -19.0178 C   0  0  0  0  0  0  0  0  0  0  0  0
   25.1749  -10.1424  -19.5565 O   0  0  0  0  0  0  0  0  0  0  0  0
   28.1305   -6.0420  -21.8714 O   0  0  0  0  0  0  0  0  0  0  0  0
   25.2404   -8.7164  -17.7787 N   0  0  0  0  0  0  0  0  0  0  0  0
   24.1519   -9.4043  -17.0915 C   0  0  1  0  0  0  0  0  0  0  0  0
   24.6981  -10.3032  -16.0117 C   0  0  0  0  0  0  0  0  0  0  0  0
   25.9433   -9.5154  -14.9734 S   0  0  0  0  0  0  0  0  0  0  0  0
   23.1775   -8.4110  -16.6367 C   0  0  0  0  0  0  0  0  0  0  0  0
   23.6294   -7.2636  -16.2930 O   0  0  0  0  0  0  0  0  0  0  0  0
   18.7359   -6.4631  -16.3828 C   0  0  0  0  0  0  0  0  0  0  0  0
   19.5815   -7.6761  -16.7197 C   0  0  1  0  0  0  0  0  0  0  0  0
   19.6746   -7.8448  -18.0903 O   0  0  0  0  0  0  0  0  0  0  0  0
   20.9641   -7.4276  -16.1406 C   0  0  2  0  0  0  0  0  0  0  0  0
   21.7858   -8.5770  -16.5350 N   0  0  0  0  0  0  0  0  0  0  0  0
   20.8974   -7.3368  -14.6577 C   0  0  0  0  0  0  0  0  0  0  0  0
   20.8287   -8.3789  -13.9820 O   0  0  0  0  0  0  0  0  0  0  0  0
   20.9107   -6.1089  -14.0191 O   0  0  0  0  0  0  0  0  0  0  0  0
  2  1  1  6
  2  6  1  0
  2  3  1  0
  3  4  1  0
  4  5  2  0
  4  8  1  0
  6  7  2  0
  6  9  1  0
  9 10  1  0
 10 13  1  0
 10 11  1  1
 12 11  1  0
 13 14  2  0
 13 19  1  0
 16 15  1  6
 17 16  1  0
 18 16  1  0
 18 20  1  0
 18 19  1  1
 20 22  1  0
 21 20  2  0
M  END
$$$$
