DCT.pdb
     RDKit          3D

 22 21  0  0  1  0  0  0  0  0999 V2000
   19.2544  -12.4813  -16.5468 N   0  0  0  0  0  0  0  0  0  0  0  0
   19.2954  -11.2447  -17.2756 C   0  0  1  0  0  0  0  0  0  0  0  0
   18.0427  -11.0049  -18.0870 C   0  0  0  0  0  0  0  0  0  0  0  0
   18.0027  -11.9995  -19.1685 C   0  0  0  0  0  0  0  0  0  0  0  0
   18.9878  -12.7698  -19.2969 O   0  0  0  0  0  0  0  0  0  0  0  0
   19.5267  -10.1288  -16.3053 C   0  0  0  0  0  0  0  0  0  0  0  0
   18.7997   -9.9903  -15.2770 O   0  0  0  0  0  0  0  0  0  0  0  0
   16.9494  -12.1456  -20.0586 O   0  0  0  0  0  0  0  0  0  0  0  0
   20.5580   -9.1761  -16.4784 N   0  0  0  0  0  0  0  0  0  0  0  0
   20.7390   -8.0382  -15.5826 C   0  0  1  0  0  0  0  0  0  0  0  0
   22.0226   -8.1813  -14.8052 C   0  0  0  0  0  0  0  0  0  0  0  0
   22.3151   -6.8416  -13.6353 S   0  0  0  0  0  0  0  0  0  0  0  0
   20.6188   -6.8024  -16.3579 C   0  0  0  0  0  0  0  0  0  0  0  0
   21.2854   -6.7292  -17.4485 O   0  0  0  0  0  0  0  0  0  0  0  0
   18.6311   -2.5918  -17.7160 C   0  0  0  0  0  0  0  0  0  0  0  0
   18.5513   -3.8464  -16.8679 C   0  0  1  0  0  0  0  0  0  0  0  0
   17.6131   -4.7262  -17.3790 O   0  0  0  0  0  0  0  0  0  0  0  0
   19.9267   -4.4916  -16.8996 C   0  0  2  0  0  0  0  0  0  0  0  0
   19.8439   -5.6748  -16.0367 N   0  0  0  0  0  0  0  0  0  0  0  0
   20.9532   -3.5520  -16.3750 C   0  0  0  0  0  0  0  0  0  0  0  0
   21.6507   -2.8989  -17.1714 O   0  0  0  0  0  0  0  0  0  0  0  0
   21.1432   -3.3941  -15.0132 O   0  0  0  0  0  0  0  0  0  0  0  0
  2  1  1  1
  2  6  1  0
  2  3  1  0
  3  4  1  0
  4  5  2  0
  4  8  1  0
  6  7  2  0
  6  9  1  0
  9 10  1  0
 10 13  1  0
 10 11  1  6
 12 11  1  0
 13 14  2  0
 13 19  1  0
 16 15  1  6
 17 16  1  0
 18 16  1  0
 18 20  1  0
 18 19  1  1
 20 22  1  0
 21 20  2  0
M  END
$$$$
