DCT.pdb
     RDKit          3D

 22 21  0  0  1  0  0  0  0  0999 V2000
   17.7147  -13.0210  -16.5732 N   0  0  0  0  0  0  0  0  0  0  0  0
   18.6519  -11.9963  -16.9387 C   0  0  1  0  0  0  0  0  0  0  0  0
   18.6188  -11.6768  -18.4159 C   0  0  0  0  0  0  0  0  0  0  0  0
   19.0301  -12.8806  -19.1520 C   0  0  0  0  0  0  0  0  0  0  0  0
   19.7070  -13.7438  -18.5380 O   0  0  0  0  0  0  0  0  0  0  0  0
   18.3651  -10.7763  -16.1204 C   0  0  0  0  0  0  0  0  0  0  0  0
   17.1851  -10.4884  -15.7605 O   0  0  0  0  0  0  0  0  0  0  0  0
   18.7212  -13.1289  -20.4809 O   0  0  0  0  0  0  0  0  0  0  0  0
   19.3831   -9.8853  -15.7068 N   0  0  0  0  0  0  0  0  0  0  0  0
   19.1185   -8.7196  -14.8694 C   0  0  1  0  0  0  0  0  0  0  0  0
   18.4692   -9.1396  -13.5753 C   0  0  0  0  0  0  0  0  0  0  0  0
   18.6703   -7.9439  -12.2415 S   0  0  0  0  0  0  0  0  0  0  0  0
   20.3568   -7.9532  -14.7210 C   0  0  0  0  0  0  0  0  0  0  0  0
   21.3578   -8.5553  -14.1972 O   0  0  0  0  0  0  0  0  0  0  0  0
   22.5150   -6.6976  -17.2231 C   0  0  0  0  0  0  0  0  0  0  0  0
   22.3005   -5.5038  -16.3129 C   0  0  1  0  0  0  0  0  0  0  0  0
   21.2835   -4.6968  -16.7923 O   0  0  0  0  0  0  0  0  0  0  0  0
   21.9184   -6.0500  -14.9474 C   0  0  2  0  0  0  0  0  0  0  0  0
   20.5732   -6.6158  -15.0945 N   0  0  0  0  0  0  0  0  0  0  0  0
   21.9020   -4.9583  -13.9375 C   0  0  0  0  0  0  0  0  0  0  0  0
   20.8130   -4.5114  -13.5355 O   0  0  0  0  0  0  0  0  0  0  0  0
   23.0813   -4.4329  -13.4388 O   0  0  0  0  0  0  0  0  0  0  0  0
  2  1  1  6
  2  6  1  0
  2  3  1  0
  3  4  1  0
  4  5  2  0
  4  8  1  0
  6  7  2  0
  6  9  1  0
  9 10  1  0
 10 13  1  0
 10 11  1  1
 12 11  1  0
 13 14  2  0
 13 19  1  0
 16 15  1  6
 17 16  1  0
 18 16  1  0
 18 20  1  0
 18 19  1  6
 20 22  1  0
 21 20  2  0
M  END
$$$$
