DCT.pdb
     RDKit          3D

 22 21  0  0  1  0  0  0  0  0999 V2000
   18.3872  -10.8705  -17.3507 N   0  0  0  0  0  0  0  0  0  0  0  0
   17.7868  -10.6917  -16.0586 C   0  0  1  0  0  0  0  0  0  0  0  0
   17.3587  -11.9980  -15.4294 C   0  0  0  0  0  0  0  0  0  0  0  0
   16.2381  -12.5361  -16.2138 C   0  0  0  0  0  0  0  0  0  0  0  0
   15.5812  -11.7365  -16.9274 O   0  0  0  0  0  0  0  0  0  0  0  0
   18.7576   -9.9669  -15.1798 C   0  0  0  0  0  0  0  0  0  0  0  0
   18.4867   -9.7155  -13.9680 O   0  0  0  0  0  0  0  0  0  0  0  0
   15.8560  -13.8691  -16.2196 O   0  0  0  0  0  0  0  0  0  0  0  0
   20.0183   -9.5261  -15.6461 N   0  0  0  0  0  0  0  0  0  0  0  0
   20.9901   -8.8617  -14.7834 C   0  0  1  0  0  0  0  0  0  0  0  0
   22.3428   -9.5136  -14.9173 C   0  0  0  0  0  0  0  0  0  0  0  0
   23.3663   -9.3700  -13.4405 S   0  0  0  0  0  0  0  0  0  0  0  0
   20.9646   -7.4248  -15.0616 C   0  0  0  0  0  0  0  0  0  0  0  0
   21.0853   -7.0637  -16.2839 O   0  0  0  0  0  0  0  0  0  0  0  0
   19.9720   -2.7922  -14.5263 C   0  0  0  0  0  0  0  0  0  0  0  0
   19.7517   -4.2491  -14.1674 C   0  0  1  0  0  0  0  0  0  0  0  0
   18.6607   -4.7629  -14.8464 O   0  0  0  0  0  0  0  0  0  0  0  0
   21.0075   -5.0012  -14.5752 C   0  0  2  0  0  0  0  0  0  0  0  0
   20.8196   -6.3852  -14.1272 N   0  0  0  0  0  0  0  0  0  0  0  0
   22.2030   -4.4121  -13.9150 C   0  0  0  0  0  0  0  0  0  0  0  0
   22.4717   -4.7248  -12.7415 O   0  0  0  0  0  0  0  0  0  0  0  0
   23.0205   -3.5210  -14.5883 O   0  0  0  0  0  0  0  0  0  0  0  0
  2  1  1  6
  2  6  1  0
  2  3  1  0
  3  4  1  0
  4  5  2  0
  4  8  1  0
  6  7  2  0
  6  9  1  0
  9 10  1  0
 10 13  1  0
 10 11  1  6
 12 11  1  0
 13 14  2  0
 13 19  1  0
 16 15  1  6
 17 16  1  0
 18 16  1  0
 18 20  1  0
 18 19  1  1
 20 22  1  0
 21 20  2  0
M  END
$$$$
