DCT.pdb
     RDKit          3D

 22 21  0  0  1  0  0  0  0  0999 V2000
   17.1336  -12.1244  -15.6201 N   0  0  0  0  0  0  0  0  0  0  0  0
   17.2578  -10.7955  -16.1498 C   0  0  1  0  0  0  0  0  0  0  0  0
   15.9382  -10.0592  -16.1908 C   0  0  0  0  0  0  0  0  0  0  0  0
   15.0439  -10.7772  -17.1101 C   0  0  0  0  0  0  0  0  0  0  0  0
   15.4555  -11.0021  -18.2764 O   0  0  0  0  0  0  0  0  0  0  0  0
   18.2623  -10.0488  -15.3290 C   0  0  0  0  0  0  0  0  0  0  0  0
   18.1789  -10.0073  -14.0656 O   0  0  0  0  0  0  0  0  0  0  0  0
   13.7742  -11.2243  -16.7768 O   0  0  0  0  0  0  0  0  0  0  0  0
   19.3496   -9.3549  -15.9099 N   0  0  0  0  0  0  0  0  0  0  0  0
   20.3936   -8.7167  -15.1142 C   0  0  1  0  0  0  0  0  0  0  0  0
   21.6676   -9.5198  -15.1792 C   0  0  0  0  0  0  0  0  0  0  0  0
   23.0903   -8.6826  -14.4551 S   0  0  0  0  0  0  0  0  0  0  0  0
   20.5197   -7.3198  -15.5329 C   0  0  0  0  0  0  0  0  0  0  0  0
   20.7477   -7.0995  -16.7732 O   0  0  0  0  0  0  0  0  0  0  0  0
   18.2701   -4.6885  -15.8256 C   0  0  0  0  0  0  0  0  0  0  0  0
   19.3973   -4.0444  -15.0419 C   0  0  1  0  0  0  0  0  0  0  0  0
   19.1211   -4.0542  -13.6858 O   0  0  0  0  0  0  0  0  0  0  0  0
   20.6497   -4.8606  -15.3139 C   0  0  2  0  0  0  0  0  0  0  0  0
   20.4161   -6.1801  -14.7172 N   0  0  0  0  0  0  0  0  0  0  0  0
   21.8341   -4.2206  -14.6819 C   0  0  0  0  0  0  0  0  0  0  0  0
   22.3795   -4.7676  -13.7070 O   0  0  0  0  0  0  0  0  0  0  0  0
   22.3379   -3.0248  -15.1636 O   0  0  0  0  0  0  0  0  0  0  0  0
  2  1  1  1
  2  6  1  0
  2  3  1  0
  3  4  1  0
  4  5  2  0
  4  8  1  0
  6  7  2  0
  6  9  1  0
  9 10  1  0
 10 13  1  0
 10 11  1  6
 12 11  1  0
 13 14  2  0
 13 19  1  0
 16 15  1  6
 17 16  1  0
 18 16  1  0
 18 20  1  0
 18 19  1  1
 20 22  1  0
 21 20  2  0
M  END
$$$$
