FNH.pdb
     RDKit          3D

 30 31  0  0  1  0  0  0  0  0999 V2000
    5.8528  -18.0213   25.4313 N   0  0  0  0  0  0  0  0  0  0  0  0
    6.3608  -16.7115   24.9920 C   0  0  1  0  0  0  0  0  0  0  0  0
    6.6321  -15.9531   26.2832 C   0  0  0  0  0  0  0  0  0  0  0  0
    6.4880  -14.4922   26.1431 C   0  0  0  0  0  0  0  0  0  0  0  0
    7.4831  -13.7239   25.6034 C   0  0  0  0  0  0  0  0  0  0  0  0
    7.3055  -12.3423   25.4822 C   0  0  0  0  0  0  0  0  0  0  0  0
    6.1176  -11.7942   25.9170 C   0  0  0  0  0  0  0  0  0  0  0  0
    5.1121  -12.5496   26.4597 C   0  0  0  0  0  0  0  0  0  0  0  0
    5.2960  -13.9142   26.5755 C   0  0  0  0  0  0  0  0  0  0  0  0
    7.6140  -16.8760   24.2161 C   0  0  0  0  0  0  0  0  0  0  0  0
    8.4671  -17.7325   24.5602 O   0  0  0  0  0  0  0  0  0  0  0  0
    7.1610  -13.8959   21.0605 N   0  0  0  0  0  0  0  0  0  0  0  0
    8.4967  -14.2841   20.7764 C   0  0  0  0  0  0  0  0  0  0  0  0
    9.3264  -13.3916   20.5186 O   0  0  0  0  0  0  0  0  0  0  0  0
    8.8230  -15.7095   20.8024 C   0  0  0  0  0  0  0  0  0  0  0  0
    8.9837  -16.3024   22.1695 C   0  0  2  0  0  0  0  0  0  0  0  0
    7.8834  -16.0686   23.0619 N   0  0  0  0  0  0  0  0  0  0  0  0
   10.3084  -16.0527   22.7876 C   0  0  0  0  0  0  0  0  0  0  0  0
   11.0758  -15.1346   22.3959 O   0  0  0  0  0  0  0  0  0  0  0  0
   10.8253  -16.8398   23.8819 N   0  0  0  0  0  0  0  0  0  0  0  0
   12.1716  -16.6444   24.3740 C   0  0  1  0  0  0  0  0  0  0  0  0
   12.2404  -16.9291   25.8468 C   0  0  0  0  0  0  0  0  0  0  0  0
   11.6920  -15.8458   26.6924 C   0  0  0  0  0  0  0  0  0  0  0  0
   11.2235  -14.6226   26.2546 C   0  0  0  0  0  0  0  0  0  0  0  0
   10.8081  -13.9018   27.2969 N   0  0  0  0  0  0  0  0  0  0  0  0
   11.0045  -14.6472   28.3949 C   0  0  0  0  0  0  0  0  0  0  0  0
   11.5418  -15.8286   28.0258 N   0  0  0  0  0  0  0  0  0  0  0  0
   13.1540  -17.4653   23.6116 C   0  0  0  0  0  0  0  0  0  0  0  0
   14.5217  -17.3754   23.7678 O   0  0  0  0  0  0  0  0  0  0  0  0
   12.7107  -18.2913   22.7738 O   0  0  0  0  0  0  0  0  0  0  0  0
  2  1  1  1
  3  2  1  0
  3  4  1  0
  4  9  1  0
  4  5  2  0
  5  6  1  0
  6  7  2  0
  8  7  1  0
  9  8  2  0
 10  2  1  0
 11 10  2  0
 13 15  1  0
 13 12  1  0
 14 13  2  0
 16 15  1  6
 16 17  1  0
 17 10  1  0
 18 16  1  0
 19 18  2  0
 20 18  1  0
 21 28  1  0
 21 20  1  0
 21 22  1  1
 22 23  1  0
 23 27  1  0
 23 24  2  0
 24 25  1  0
 26 25  1  0
 27 26  2  0
 28 29  1  0
 30 28  2  0
M  END
$$$$
