FNH.pdb
     RDKit          3D

 30 31  0  0  1  0  0  0  0  0999 V2000
    7.0370  -17.9682   18.6250 N   0  0  0  0  0  0  0  0  0  0  0  0
    7.6446  -16.8423   19.3529 C   0  0  1  0  0  0  0  0  0  0  0  0
    6.4884  -15.8888   19.6178 C   0  0  0  0  0  0  0  0  0  0  0  0
    6.8628  -14.7375   20.4597 C   0  0  0  0  0  0  0  0  0  0  0  0
    6.6713  -14.7497   21.8144 C   0  0  0  0  0  0  0  0  0  0  0  0
    7.0452  -13.6402   22.5786 C   0  0  0  0  0  0  0  0  0  0  0  0
    7.6015  -12.5571   21.9321 C   0  0  0  0  0  0  0  0  0  0  0  0
    7.7995  -12.5293   20.5770 C   0  0  0  0  0  0  0  0  0  0  0  0
    7.4272  -13.6302   19.8294 C   0  0  0  0  0  0  0  0  0  0  0  0
    8.2326  -17.3095   20.6317 C   0  0  0  0  0  0  0  0  0  0  0  0
    7.6516  -18.1903   21.3145 O   0  0  0  0  0  0  0  0  0  0  0  0
   12.8356  -17.3771   20.1843 N   0  0  0  0  0  0  0  0  0  0  0  0
   12.4843  -17.1562   21.5419 C   0  0  0  0  0  0  0  0  0  0  0  0
   13.1158  -16.2926   22.1798 O   0  0  0  0  0  0  0  0  0  0  0  0
   11.4012  -17.9547   22.1148 C   0  0  0  0  0  0  0  0  0  0  0  0
   10.1102  -17.2225   22.3232 C   0  0  2  0  0  0  0  0  0  0  0  0
    9.4700  -16.7729   21.1191 N   0  0  0  0  0  0  0  0  0  0  0  0
   10.1633  -16.1885   23.3849 C   0  0  0  0  0  0  0  0  0  0  0  0
   10.4004  -14.9768   23.1384 O   0  0  0  0  0  0  0  0  0  0  0  0
    9.9512  -16.4856   24.7818 N   0  0  0  0  0  0  0  0  0  0  0  0
    9.4173  -15.4905   25.6860 C   0  0  1  0  0  0  0  0  0  0  0  0
    8.1742  -14.8721   25.1138 C   0  0  0  0  0  0  0  0  0  0  0  0
    7.5957  -13.8019   25.9560 C   0  0  0  0  0  0  0  0  0  0  0  0
    6.2906  -13.7257   26.4016 C   0  0  0  0  0  0  0  0  0  0  0  0
    6.1303  -12.6232   27.1347 N   0  0  0  0  0  0  0  0  0  0  0  0
    7.3146  -11.9937   27.1639 C   0  0  0  0  0  0  0  0  0  0  0  0
    8.2043  -12.7113   26.4470 N   0  0  0  0  0  0  0  0  0  0  0  0
    9.1709  -16.0619   27.0398 C   0  0  0  0  0  0  0  0  0  0  0  0
    9.0556  -17.4119   27.2990 O   0  0  0  0  0  0  0  0  0  0  0  0
    9.0609  -15.2659   28.0067 O   0  0  0  0  0  0  0  0  0  0  0  0
  2  1  1  1
  3  2  1  0
  3  4  1  0
  4  9  1  0
  4  5  2  0
  5  6  1  0
  6  7  2  0
  8  7  1  0
  9  8  2  0
 10  2  1  0
 11 10  2  0
 13 15  1  0
 13 12  1  0
 14 13  2  0
 16 15  1  6
 16 17  1  0
 17 10  1  0
 18 16  1  0
 19 18  2  0
 20 18  1  0
 21 28  1  0
 21 20  1  0
 21 22  1  6
 22 23  1  0
 23 27  1  0
 23 24  2  0
 24 25  1  0
 26 25  1  0
 27 26  2  0
 28 29  1  0
 30 28  2  0
M  END
$$$$
