FNH.pdb
     RDKit          3D

 30 31  0  0  1  0  0  0  0  0999 V2000
    5.8322  -17.4329   25.2757 N   0  0  0  0  0  0  0  0  0  0  0  0
    6.7964  -16.4180   24.8206 C   0  0  1  0  0  0  0  0  0  0  0  0
    7.1907  -15.6696   26.0857 C   0  0  0  0  0  0  0  0  0  0  0  0
    6.9776  -14.2135   25.9926 C   0  0  0  0  0  0  0  0  0  0  0  0
    7.8385  -13.4075   25.2989 C   0  0  0  0  0  0  0  0  0  0  0  0
    7.5983  -12.0319   25.2292 C   0  0  0  0  0  0  0  0  0  0  0  0
    6.4870  -11.5279   25.8708 C   0  0  0  0  0  0  0  0  0  0  0  0
    5.6159  -12.3213   26.5693 C   0  0  0  0  0  0  0  0  0  0  0  0
    5.8609  -13.6797   26.6330 C   0  0  0  0  0  0  0  0  0  0  0  0
    7.9833  -17.0672   24.2129 C   0  0  0  0  0  0  0  0  0  0  0  0
    8.2680  -18.2594   24.4909 O   0  0  0  0  0  0  0  0  0  0  0  0
   11.4247  -18.1939   20.5308 N   0  0  0  0  0  0  0  0  0  0  0  0
   10.4506  -17.3005   20.0130 C   0  0  0  0  0  0  0  0  0  0  0  0
   10.4731  -17.0480   18.7935 O   0  0  0  0  0  0  0  0  0  0  0  0
    9.4757  -16.7270   20.9403 C   0  0  0  0  0  0  0  0  0  0  0  0
    9.7348  -17.0041   22.3902 C   0  0  2  0  0  0  0  0  0  0  0  0
    8.8307  -16.3575   23.2992 N   0  0  0  0  0  0  0  0  0  0  0  0
   11.1585  -16.8817   22.7867 C   0  0  0  0  0  0  0  0  0  0  0  0
   11.9991  -17.7965   22.5823 O   0  0  0  0  0  0  0  0  0  0  0  0
   11.6942  -15.7103   23.4389 N   0  0  0  0  0  0  0  0  0  0  0  0
   11.8399  -15.6553   24.8772 C   0  0  1  0  0  0  0  0  0  0  0  0
   10.4937  -15.6263   25.5421 C   0  0  0  0  0  0  0  0  0  0  0  0
   10.5559  -15.4988   27.0149 C   0  0  0  0  0  0  0  0  0  0  0  0
   11.6998  -15.3725   27.7785 C   0  0  0  0  0  0  0  0  0  0  0  0
   11.3711  -15.2830   29.0679 N   0  0  0  0  0  0  0  0  0  0  0  0
   10.0332  -15.3502   29.1391 C   0  0  0  0  0  0  0  0  0  0  0  0
    9.5391  -15.4814   27.8904 N   0  0  0  0  0  0  0  0  0  0  0  0
   12.6757  -16.7804   25.3829 C   0  0  0  0  0  0  0  0  0  0  0  0
   12.2659  -18.0974   25.4055 O   0  0  0  0  0  0  0  0  0  0  0  0
   13.8257  -16.5147   25.8159 O   0  0  0  0  0  0  0  0  0  0  0  0
  2  1  1  1
  3  2  1  0
  3  4  1  0
  4  9  1  0
  4  5  2  0
  5  6  1  0
  6  7  2  0
  8  7  1  0
  9  8  2  0
 10  2  1  0
 11 10  2  0
 13 15  1  0
 13 12  1  0
 14 13  2  0
 16 15  1  6
 16 17  1  0
 17 10  1  0
 18 16  1  0
 19 18  2  0
 20 18  1  0
 21 28  1  0
 21 20  1  0
 21 22  1  1
 22 23  1  0
 23 27  1  0
 23 24  2  0
 24 25  1  0
 26 25  1  0
 27 26  2  0
 28 29  1  0
 30 28  2  0
M  END
$$$$
