FNH.pdb
     RDKit          3D

 30 31  0  0  1  0  0  0  0  0999 V2000
    7.5786  -16.8194   26.7802 N   0  0  0  0  0  0  0  0  0  0  0  0
    7.2691  -16.1218   25.5214 C   0  0  1  0  0  0  0  0  0  0  0  0
    8.1754  -14.8992   25.5283 C   0  0  0  0  0  0  0  0  0  0  0  0
    7.6930  -13.8205   26.4103 C   0  0  0  0  0  0  0  0  0  0  0  0
    8.4932  -13.2755   27.3771 C   0  0  0  0  0  0  0  0  0  0  0  0
    8.0006  -12.2497   28.1895 C   0  0  0  0  0  0  0  0  0  0  0  0
    6.7076  -11.8169   27.9859 C   0  0  0  0  0  0  0  0  0  0  0  0
    5.8940  -12.3523   27.0227 C   0  0  0  0  0  0  0  0  0  0  0  0
    6.3891  -13.3655   26.2242 C   0  0  0  0  0  0  0  0  0  0  0  0
    7.5798  -16.9890   24.3591 C   0  0  0  0  0  0  0  0  0  0  0  0
    8.0997  -18.1203   24.5307 O   0  0  0  0  0  0  0  0  0  0  0  0
    5.5033  -15.2257   20.5193 N   0  0  0  0  0  0  0  0  0  0  0  0
    5.3128  -16.5021   21.1108 C   0  0  0  0  0  0  0  0  0  0  0  0
    4.2634  -16.7032   21.7508 O   0  0  0  0  0  0  0  0  0  0  0  0
    6.3593  -17.5088   20.9353 C   0  0  0  0  0  0  0  0  0  0  0  0
    7.5306  -17.3795   21.8613 C   0  0  2  0  0  0  0  0  0  0  0  0
    7.2974  -16.5630   23.0192 N   0  0  0  0  0  0  0  0  0  0  0  0
    8.8139  -17.0840   21.1793 C   0  0  0  0  0  0  0  0  0  0  0  0
    9.1965  -17.7101   20.1562 O   0  0  0  0  0  0  0  0  0  0  0  0
    9.7264  -16.0610   21.6321 N   0  0  0  0  0  0  0  0  0  0  0  0
   11.0268  -15.8940   21.0205 C   0  0  1  0  0  0  0  0  0  0  0  0
   11.1636  -14.5147   20.4426 C   0  0  0  0  0  0  0  0  0  0  0  0
   10.0751  -14.1451   19.5110 C   0  0  0  0  0  0  0  0  0  0  0  0
    9.0462  -14.9634   19.0877 C   0  0  0  0  0  0  0  0  0  0  0  0
    8.2542  -14.2921   18.2506 N   0  0  0  0  0  0  0  0  0  0  0  0
    8.7624  -13.0562   18.1330 C   0  0  0  0  0  0  0  0  0  0  0  0
    9.8693  -12.9684   18.8997 N   0  0  0  0  0  0  0  0  0  0  0  0
   12.1235  -16.1950   21.9832 C   0  0  0  0  0  0  0  0  0  0  0  0
   13.4656  -16.1176   21.6737 O   0  0  0  0  0  0  0  0  0  0  0  0
   11.8080  -16.5411   23.1499 O   0  0  0  0  0  0  0  0  0  0  0  0
  2  1  1  1
  3  2  1  0
  3  4  1  0
  4  9  1  0
  4  5  2  0
  5  6  1  0
  6  7  2  0
  8  7  1  0
  9  8  2  0
 10  2  1  0
 11 10  2  0
 13 15  1  0
 13 12  1  0
 14 13  2  0
 16 15  1  6
 16 17  1  0
 17 10  1  0
 18 16  1  0
 19 18  2  0
 20 18  1  0
 21 28  1  0
 21 20  1  0
 21 22  1  1
 22 23  1  0
 23 27  1  0
 23 24  2  0
 24 25  1  0
 26 25  1  0
 27 26  2  0
 28 29  1  0
 30 28  2  0
M  END
$$$$
