FNH.pdb
     RDKit          3D

 30 31  0  0  1  0  0  0  0  0999 V2000
    6.5310  -16.5278   25.8941 N   0  0  0  0  0  0  0  0  0  0  0  0
    6.7237  -16.4432   24.4372 C   0  0  1  0  0  0  0  0  0  0  0  0
    6.4599  -14.9828   24.1001 C   0  0  0  0  0  0  0  0  0  0  0  0
    7.0708  -14.0433   25.0584 C   0  0  0  0  0  0  0  0  0  0  0  0
    6.4635  -13.7365   26.2454 C   0  0  0  0  0  0  0  0  0  0  0  0
    7.0782  -12.8453   27.1301 C   0  0  0  0  0  0  0  0  0  0  0  0
    8.2917  -12.2985   26.7711 C   0  0  0  0  0  0  0  0  0  0  0  0
    8.9124  -12.5952   25.5866 C   0  0  0  0  0  0  0  0  0  0  0  0
    8.2979  -13.4771   24.7182 C   0  0  0  0  0  0  0  0  0  0  0  0
    8.1136  -16.8141   24.0765 C   0  0  0  0  0  0  0  0  0  0  0  0
    8.7786  -17.5832   24.8153 O   0  0  0  0  0  0  0  0  0  0  0  0
    8.8606  -15.7798   19.1285 N   0  0  0  0  0  0  0  0  0  0  0  0
    9.4009  -16.7549   20.0075 C   0  0  0  0  0  0  0  0  0  0  0  0
    9.0332  -17.9372   19.8719 O   0  0  0  0  0  0  0  0  0  0  0  0
   10.3583  -16.3164   21.0224 C   0  0  0  0  0  0  0  0  0  0  0  0
   10.0283  -16.7199   22.4275 C   0  0  2  0  0  0  0  0  0  0  0  0
    8.7306  -16.3088   22.8846 N   0  0  0  0  0  0  0  0  0  0  0  0
   11.1105  -16.4533   23.4058 C   0  0  0  0  0  0  0  0  0  0  0  0
   11.9834  -15.5644   23.2238 O   0  0  0  0  0  0  0  0  0  0  0  0
   11.2527  -17.1894   24.6396 N   0  0  0  0  0  0  0  0  0  0  0  0
   12.4138  -17.0162   25.4849 C   0  0  1  0  0  0  0  0  0  0  0  0
   12.0479  -17.2098   26.9284 C   0  0  0  0  0  0  0  0  0  0  0  0
   11.1959  -16.1330   27.4797 C   0  0  0  0  0  0  0  0  0  0  0  0
   10.8225  -14.9715   26.8324 C   0  0  0  0  0  0  0  0  0  0  0  0
   10.0542  -14.2363   27.6373 N   0  0  0  0  0  0  0  0  0  0  0  0
    9.9313  -14.9115   28.7899 C   0  0  0  0  0  0  0  0  0  0  0  0
   10.6258  -16.0643   28.6926 N   0  0  0  0  0  0  0  0  0  0  0  0
   13.5245  -17.9215   25.0759 C   0  0  0  0  0  0  0  0  0  0  0  0
   14.8332  -17.7719   25.4853 O   0  0  0  0  0  0  0  0  0  0  0  0
   13.2537  -18.8813   24.3104 O   0  0  0  0  0  0  0  0  0  0  0  0
  2  1  1  1
  3  2  1  0
  3  4  1  0
  4  9  1  0
  4  5  2  0
  5  6  1  0
  6  7  2  0
  8  7  1  0
  9  8  2  0
 10  2  1  0
 11 10  2  0
 13 15  1  0
 13 12  1  0
 14 13  2  0
 16 15  1  6
 16 17  1  0
 17 10  1  0
 18 16  1  0
 19 18  2  0
 20 18  1  0
 21 28  1  0
 21 20  1  0
 21 22  1  1
 22 23  1  0
 23 27  1  0
 23 24  2  0
 24 25  1  0
 26 25  1  0
 27 26  2  0
 28 29  1  0
 30 28  2  0
M  END
$$$$
