FNH.pdb
     RDKit          3D

 30 31  0  0  1  0  0  0  0  0999 V2000
    8.0365  -17.1633   17.6209 N   0  0  0  0  0  0  0  0  0  0  0  0
    8.3943  -16.2454   18.7146 C   0  0  1  0  0  0  0  0  0  0  0  0
    7.2985  -15.1894   18.7025 C   0  0  0  0  0  0  0  0  0  0  0  0
    7.2933  -14.3403   19.9081 C   0  0  0  0  0  0  0  0  0  0  0  0
    6.7274  -14.7646   21.0793 C   0  0  0  0  0  0  0  0  0  0  0  0
    6.7481  -13.9318   22.2022 C   0  0  0  0  0  0  0  0  0  0  0  0
    7.3461  -12.6948   22.0892 C   0  0  0  0  0  0  0  0  0  0  0  0
    7.9166  -12.2555   20.9239 C   0  0  0  0  0  0  0  0  0  0  0  0
    7.8917  -13.0850   19.8191 C   0  0  0  0  0  0  0  0  0  0  0  0
    8.4047  -16.9647   20.0116 C   0  0  0  0  0  0  0  0  0  0  0  0
    7.8252  -18.0738   20.1282 O   0  0  0  0  0  0  0  0  0  0  0  0
   10.9848  -18.8842   23.9805 N   0  0  0  0  0  0  0  0  0  0  0  0
   11.1644  -19.2147   22.6117 C   0  0  0  0  0  0  0  0  0  0  0  0
   11.8433  -20.2213   22.3337 O   0  0  0  0  0  0  0  0  0  0  0  0
   10.5424  -18.3549   21.6053 C   0  0  0  0  0  0  0  0  0  0  0  0
    9.7293  -17.2200   22.1503 C   0  0  2  0  0  0  0  0  0  0  0  0
    9.0709  -16.4179   21.1578 N   0  0  0  0  0  0  0  0  0  0  0  0
   10.4221  -16.4212   23.1901 C   0  0  0  0  0  0  0  0  0  0  0  0
   11.2683  -15.5324   22.9087 O   0  0  0  0  0  0  0  0  0  0  0  0
   10.1863  -16.5984   24.6034 N   0  0  0  0  0  0  0  0  0  0  0  0
    9.5793  -15.5528   25.3978 C   0  0  1  0  0  0  0  0  0  0  0  0
    8.2681  -15.1310   24.7995 C   0  0  0  0  0  0  0  0  0  0  0  0
    7.6911  -13.9166   25.4172 C   0  0  0  0  0  0  0  0  0  0  0  0
    8.3065  -13.0974   26.3433 C   0  0  0  0  0  0  0  0  0  0  0  0
    7.4857  -12.1003   26.6761 N   0  0  0  0  0  0  0  0  0  0  0  0
    6.3544  -12.2707   25.9757 C   0  0  0  0  0  0  0  0  0  0  0  0
    6.4807  -13.3751   25.2109 N   0  0  0  0  0  0  0  0  0  0  0  0
    9.4228  -15.9710   26.8193 C   0  0  0  0  0  0  0  0  0  0  0  0
    8.6858  -17.0638   27.2262 O   0  0  0  0  0  0  0  0  0  0  0  0
    9.9972  -15.2866   27.7039 O   0  0  0  0  0  0  0  0  0  0  0  0
  2  1  1  6
  3  2  1  0
  3  4  1  0
  4  9  1  0
  4  5  2  0
  5  6  1  0
  6  7  2  0
  8  7  1  0
  9  8  2  0
 10  2  1  0
 11 10  2  0
 13 15  1  0
 13 12  1  0
 14 13  2  0
 16 15  1  6
 16 17  1  0
 17 10  1  0
 18 16  1  0
 19 18  2  0
 20 18  1  0
 21 28  1  0
 21 20  1  0
 21 22  1  6
 22 23  1  0
 23 27  1  0
 23 24  2  0
 24 25  1  0
 26 25  1  0
 27 26  2  0
 28 29  1  0
 30 28  2  0
M  END
$$$$
