DNW.pdb
     RDKit          3D

 31 32  0  0  1  0  0  0  0  0999 V2000
    9.6723  -15.3909   17.5997 N   0  0  0  0  0  0  0  0  0  0  0  0
    8.7307  -14.6810   18.4325 C   0  0  1  0  0  0  0  0  0  0  0  0
    7.4357  -14.3438   17.7327 C   0  0  0  0  0  0  0  0  0  0  0  0
    7.5993  -14.0939   16.2860 C   0  0  0  0  0  0  0  0  0  0  0  0
    8.7230  -14.3427   15.7785 O   0  0  0  0  0  0  0  0  0  0  0  0
    8.5363  -15.4405   19.6920 C   0  0  0  0  0  0  0  0  0  0  0  0
    7.7071  -15.0216   20.5666 O   0  0  0  0  0  0  0  0  0  0  0  0
    6.6027  -13.6107   15.4776 O   0  0  0  0  0  0  0  0  0  0  0  0
   11.8312  -19.5291   21.0334 N   0  0  0  0  0  0  0  0  0  0  0  0
   10.6843  -19.0295   20.3707 C   0  0  0  0  0  0  0  0  0  0  0  0
   10.9053  -18.6730   19.1576 O   0  0  0  0  0  0  0  0  0  0  0  0
    9.3342  -18.9009   20.9442 C   0  0  0  0  0  0  0  0  0  0  0  0
    8.9693  -17.4625   21.1276 C   0  0  2  0  0  0  0  0  0  0  0  0
    9.2641  -16.6426   19.9529 N   0  0  0  0  0  0  0  0  0  0  0  0
    9.6433  -16.8348   22.2851 C   0  0  0  0  0  0  0  0  0  0  0  0
   10.5944  -16.0174   22.1071 O   0  0  0  0  0  0  0  0  0  0  0  0
    9.2898  -17.0893   23.6390 N   0  0  0  0  0  0  0  0  0  0  0  0
    9.9348  -16.3623   24.7543 C   0  0  1  0  0  0  0  0  0  0  0  0
    9.7076  -14.9001   24.6237 C   0  0  0  0  0  0  0  0  0  0  0  0
    8.3527  -14.4922   25.0029 C   0  0  0  0  0  0  0  0  0  0  0  0
    7.2573  -15.3747   25.0112 C   0  0  0  0  0  0  0  0  0  0  0  0
    6.1819  -14.7214   25.4406 N   0  0  0  0  0  0  0  0  0  0  0  0
    6.4616  -13.4448   25.7289 C   0  0  0  0  0  0  0  0  0  0  0  0
    5.6852  -12.3984   26.1873 C   0  0  0  0  0  0  0  0  0  0  0  0
    6.2576  -11.1609   26.3843 C   0  0  0  0  0  0  0  0  0  0  0  0
    7.6000  -11.0185   26.1108 C   0  0  0  0  0  0  0  0  0  0  0  0
    8.3811  -12.0724   25.6496 C   0  0  0  0  0  0  0  0  0  0  0  0
    7.8185  -13.3058   25.4532 C   0  0  0  0  0  0  0  0  0  0  0  0
    9.4906  -16.9307   26.0252 C   0  0  0  0  0  0  0  0  0  0  0  0
    8.5065  -17.7019   26.0563 O   0  0  0  0  0  0  0  0  0  0  0  0
   10.1052  -16.6675   27.2530 O   0  0  0  0  0  0  0  0  0  0  0  0
  2  1  1  6
  2  3  1  0
  3  4  1  0
  4  5  2  0
  4  8  1  0
  6  2  1  0
  7  6  2  0
  9 10  1  0
 10 11  2  0
 12 10  1  0
 13 12  1  6
 13 14  1  0
 14  6  1  0
 15 13  1  0
 15 17  1  0
 16 15  2  0
 18 19  1  1
 18 29  1  0
 18 17  1  0
 20 19  1  0
 20 21  2  0
 22 21  1  0
 23 28  2  0
 23 22  1  0
 24 23  1  0
 25 26  1  0
 25 24  2  0
 26 27  2  0
 27 28  1  0
 28 20  1  0
 29 31  1  0
 30 29  2  0
M  END
$$$$
