DNW.pdb
     RDKit          3D

 31 32  0  0  1  0  0  0  0  0999 V2000
   12.3054  -19.2811   19.2527 N   0  0  0  0  0  0  0  0  0  0  0  0
   12.2895  -17.8383   19.2988 C   0  0  1  0  0  0  0  0  0  0  0  0
   12.2124  -17.1886   17.9377 C   0  0  0  0  0  0  0  0  0  0  0  0
   13.4583  -17.3191   17.1548 C   0  0  0  0  0  0  0  0  0  0  0  0
   13.5219  -18.2573   16.3193 O   0  0  0  0  0  0  0  0  0  0  0  0
   11.2126  -17.3994   20.2200 C   0  0  0  0  0  0  0  0  0  0  0  0
   10.9065  -16.1632   20.2987 O   0  0  0  0  0  0  0  0  0  0  0  0
   14.5356  -16.4818   17.2899 O   0  0  0  0  0  0  0  0  0  0  0  0
    8.0390  -20.5025   20.0882 N   0  0  0  0  0  0  0  0  0  0  0  0
    7.8069  -19.2811   20.7655 C   0  0  0  0  0  0  0  0  0  0  0  0
    7.0485  -18.4709   20.1203 O   0  0  0  0  0  0  0  0  0  0  0  0
    8.3428  -18.9007   22.0832 C   0  0  0  0  0  0  0  0  0  0  0  0
    9.4440  -17.8992   21.9402 C   0  0  2  0  0  0  0  0  0  0  0  0
   10.5026  -18.3378   21.0313 N   0  0  0  0  0  0  0  0  0  0  0  0
   10.0833  -17.5505   23.2277 C   0  0  0  0  0  0  0  0  0  0  0  0
   11.1400  -18.1419   23.5995 O   0  0  0  0  0  0  0  0  0  0  0  0
    9.5815  -16.5605   24.1169 N   0  0  0  0  0  0  0  0  0  0  0  0
   10.2326  -16.2904   25.4176 C   0  0  1  0  0  0  0  0  0  0  0  0
    9.9270  -14.9112   25.8768 C   0  0  0  0  0  0  0  0  0  0  0  0
    8.4904  -14.6330   25.9467 C   0  0  0  0  0  0  0  0  0  0  0  0
    7.5077  -15.6366   25.8701 C   0  0  0  0  0  0  0  0  0  0  0  0
    6.3096  -15.0768   26.0080 N   0  0  0  0  0  0  0  0  0  0  0  0
    6.3995  -13.7518   26.1740 C   0  0  0  0  0  0  0  0  0  0  0  0
    5.4485  -12.7645   26.3435 C   0  0  0  0  0  0  0  0  0  0  0  0
    5.8455  -11.4524   26.4788 C   0  0  0  0  0  0  0  0  0  0  0  0
    7.1946  -11.1777   26.4381 C   0  0  0  0  0  0  0  0  0  0  0  0
    8.1515  -12.1720   26.2678 C   0  0  0  0  0  0  0  0  0  0  0  0
    7.7635  -13.4790   26.1342 C   0  0  0  0  0  0  0  0  0  0  0  0
    9.8681  -17.3378   26.3692 C   0  0  0  0  0  0  0  0  0  0  0  0
    8.9013  -18.0937   26.1285 O   0  0  0  0  0  0  0  0  0  0  0  0
   10.5435  -17.5662   27.5719 O   0  0  0  0  0  0  0  0  0  0  0  0
  2  1  1  6
  2  3  1  0
  3  4  1  0
  4  5  2  0
  4  8  1  0
  6  2  1  0
  7  6  2  0
  9 10  1  0
 10 11  2  0
 12 10  1  0
 13 12  1  1
 13 14  1  0
 14  6  1  0
 15 13  1  0
 15 17  1  0
 16 15  2  0
 18 19  1  1
 18 29  1  0
 18 17  1  0
 20 19  1  0
 20 21  2  0
 22 21  1  0
 23 28  2  0
 23 22  1  0
 24 23  1  0
 25 26  1  0
 25 24  2  0
 26 27  2  0
 27 28  1  0
 28 20  1  0
 29 31  1  0
 30 29  2  0
M  END
$$$$
