DNW.pdb
     RDKit          3D

 31 32  0  0  1  0  0  0  0  0999 V2000
   10.6579  -19.0174   20.4611 N   0  0  0  0  0  0  0  0  0  0  0  0
   11.7382  -18.0703   20.3198 C   0  0  1  0  0  0  0  0  0  0  0  0
   12.3252  -18.0226   18.9293 C   0  0  0  0  0  0  0  0  0  0  0  0
   12.9019  -19.3105   18.4922 C   0  0  0  0  0  0  0  0  0  0  0  0
   13.1469  -19.4492   17.2662 O   0  0  0  0  0  0  0  0  0  0  0  0
   11.2828  -16.7462   20.8100 C   0  0  0  0  0  0  0  0  0  0  0  0
   12.1092  -15.7770   20.8868 O   0  0  0  0  0  0  0  0  0  0  0  0
   13.1801  -20.3497   19.3424 O   0  0  0  0  0  0  0  0  0  0  0  0
    5.9240  -15.2827   22.1873 N   0  0  0  0  0  0  0  0  0  0  0  0
    7.0727  -15.6979   21.4713 C   0  0  0  0  0  0  0  0  0  0  0  0
    7.1190  -16.9635   21.2621 O   0  0  0  0  0  0  0  0  0  0  0  0
    8.1527  -14.8273   20.9776 C   0  0  0  0  0  0  0  0  0  0  0  0
    9.4610  -15.1987   21.5992 C   0  0  2  0  0  0  0  0  0  0  0  0
    9.9264  -16.5276   21.2037 N   0  0  0  0  0  0  0  0  0  0  0  0
    9.4331  -15.1621   23.0777 C   0  0  0  0  0  0  0  0  0  0  0  0
    9.1349  -14.0922   23.6869 O   0  0  0  0  0  0  0  0  0  0  0  0
    9.7272  -16.2832   23.9019 N   0  0  0  0  0  0  0  0  0  0  0  0
    9.9635  -16.1321   25.3544 C   0  0  1  0  0  0  0  0  0  0  0  0
    8.7399  -16.4823   26.1205 C   0  0  0  0  0  0  0  0  0  0  0  0
    7.6381  -15.5408   25.9071 C   0  0  0  0  0  0  0  0  0  0  0  0
    6.3873  -15.9246   25.3904 C   0  0  0  0  0  0  0  0  0  0  0  0
    5.5908  -14.8604   25.3572 N   0  0  0  0  0  0  0  0  0  0  0  0
    6.2093  -13.7659   25.8163 C   0  0  0  0  0  0  0  0  0  0  0  0
    5.8022  -12.4540   25.9618 C   0  0  0  0  0  0  0  0  0  0  0  0
    6.6820  -11.5193   26.4614 C   0  0  0  0  0  0  0  0  0  0  0  0
    7.9494  -11.9398   26.7990 C   0  0  0  0  0  0  0  0  0  0  0  0
    8.3586  -13.2606   26.6525 C   0  0  0  0  0  0  0  0  0  0  0  0
    7.4881  -14.1955   26.1578 C   0  0  0  0  0  0  0  0  0  0  0  0
   11.1517  -16.8933   25.7343 C   0  0  0  0  0  0  0  0  0  0  0  0
   11.5636  -16.8633   26.9148 O   0  0  0  0  0  0  0  0  0  0  0  0
   11.8890  -17.6807   24.8449 O   0  0  0  0  0  0  0  0  0  0  0  0
  2  1  1  6
  2  3  1  0
  3  4  1  0
  4  5  2  0
  4  8  1  0
  6  2  1  0
  7  6  2  0
  9 10  1  0
 10 11  2  0
 12 10  1  0
 13 12  1  6
 13 14  1  0
 14  6  1  0
 15 13  1  0
 15 17  1  0
 16 15  2  0
 18 19  1  1
 18 29  1  0
 18 17  1  0
 20 19  1  0
 20 21  2  0
 22 21  1  0
 23 28  2  0
 23 22  1  0
 24 23  1  0
 25 26  1  0
 25 24  2  0
 26 27  2  0
 27 28  1  0
 28 20  1  0
 29 31  1  0
 30 29  2  0
M  END
$$$$
