DNW.pdb
     RDKit          3D

 31 32  0  0  1  0  0  0  0  0999 V2000
   12.1386  -17.6310   18.9284 N   0  0  0  0  0  0  0  0  0  0  0  0
   12.3634  -17.5503   20.3521 C   0  0  1  0  0  0  0  0  0  0  0  0
   13.7044  -16.9626   20.7222 C   0  0  0  0  0  0  0  0  0  0  0  0
   14.8457  -17.8157   20.3323 C   0  0  0  0  0  0  0  0  0  0  0  0
   14.5846  -18.9237   19.7972 O   0  0  0  0  0  0  0  0  0  0  0  0
   11.2200  -16.8431   20.9793 C   0  0  0  0  0  0  0  0  0  0  0  0
   11.0793  -15.5860   20.8116 O   0  0  0  0  0  0  0  0  0  0  0  0
   16.1584  -17.4672   20.5213 O   0  0  0  0  0  0  0  0  0  0  0  0
    5.9530  -16.0951   22.2027 N   0  0  0  0  0  0  0  0  0  0  0  0
    6.7202  -17.0387   22.9275 C   0  0  0  0  0  0  0  0  0  0  0  0
    6.3029  -17.2293   24.1264 O   0  0  0  0  0  0  0  0  0  0  0  0
    7.8937  -17.7747   22.4279 C   0  0  0  0  0  0  0  0  0  0  0  0
    9.0738  -16.8661   22.2947 C   0  0  2  0  0  0  0  0  0  0  0  0
   10.2622  -17.5431   21.7764 N   0  0  0  0  0  0  0  0  0  0  0  0
    9.4548  -16.2176   23.5684 C   0  0  0  0  0  0  0  0  0  0  0  0
    9.9053  -15.0338   23.5752 O   0  0  0  0  0  0  0  0  0  0  0  0
    9.3490  -16.8479   24.8389 N   0  0  0  0  0  0  0  0  0  0  0  0
   10.1745  -16.4129   25.9870 C   0  0  1  0  0  0  0  0  0  0  0  0
    9.8605  -15.0076   26.3517 C   0  0  0  0  0  0  0  0  0  0  0  0
    8.4348  -14.6893   26.2417 C   0  0  0  0  0  0  0  0  0  0  0  0
    7.4293  -15.6714   26.1844 C   0  0  0  0  0  0  0  0  0  0  0  0
    6.2442  -15.0710   26.1325 N   0  0  0  0  0  0  0  0  0  0  0  0
    6.3643  -13.7381   26.1493 C   0  0  0  0  0  0  0  0  0  0  0  0
    5.4370  -12.7154   26.1033 C   0  0  0  0  0  0  0  0  0  0  0  0
    5.8653  -11.4063   26.1226 C   0  0  0  0  0  0  0  0  0  0  0  0
    7.2207  -11.1703   26.1874 C   0  0  0  0  0  0  0  0  0  0  0  0
    8.1537  -12.2003   26.2339 C   0  0  0  0  0  0  0  0  0  0  0  0
    7.7345  -13.5042   26.2167 C   0  0  0  0  0  0  0  0  0  0  0  0
   10.0239  -17.3686   27.0822 C   0  0  0  0  0  0  0  0  0  0  0  0
   10.6547  -17.2026   28.1493 O   0  0  0  0  0  0  0  0  0  0  0  0
    9.1979  -18.4951   27.0244 O   0  0  0  0  0  0  0  0  0  0  0  0
  2  1  1  6
  2  3  1  0
  3  4  1  0
  4  5  2  0
  4  8  1  0
  6  2  1  0
  7  6  2  0
  9 10  1  0
 10 11  2  0
 12 10  1  0
 13 12  1  1
 13 14  1  0
 14  6  1  0
 15 13  1  0
 15 17  1  0
 16 15  2  0
 18 19  1  1
 18 29  1  0
 18 17  1  0
 20 19  1  0
 20 21  2  0
 22 21  1  0
 23 28  2  0
 23 22  1  0
 24 23  1  0
 25 26  1  0
 25 24  2  0
 26 27  2  0
 27 28  1  0
 28 20  1  0
 29 31  1  0
 30 29  2  0
M  END
$$$$
