DNW.pdb
     RDKit          3D

 31 32  0  0  1  0  0  0  0  0999 V2000
   10.2088  -18.9685   19.8568 N   0  0  0  0  0  0  0  0  0  0  0  0
   11.0865  -17.8229   19.8234 C   0  0  1  0  0  0  0  0  0  0  0  0
   11.7094  -17.5750   18.4702 C   0  0  0  0  0  0  0  0  0  0  0  0
   12.7313  -18.5767   18.1032 C   0  0  0  0  0  0  0  0  0  0  0  0
   12.8407  -19.5897   18.8408 O   0  0  0  0  0  0  0  0  0  0  0  0
   10.3597  -16.6457   20.3591 C   0  0  0  0  0  0  0  0  0  0  0  0
   10.8760  -15.4825   20.2667 O   0  0  0  0  0  0  0  0  0  0  0  0
   13.5568  -18.4610   17.0145 O   0  0  0  0  0  0  0  0  0  0  0  0
    6.9072  -17.9798   22.1359 N   0  0  0  0  0  0  0  0  0  0  0  0
    6.2567  -16.9440   21.4230 C   0  0  0  0  0  0  0  0  0  0  0  0
    5.0155  -17.1777   21.1940 O   0  0  0  0  0  0  0  0  0  0  0  0
    6.8708  -15.6897   20.9561 C   0  0  0  0  0  0  0  0  0  0  0  0
    8.3034  -15.6103   21.3771 C   0  0  2  0  0  0  0  0  0  0  0  0
    9.0818  -16.7845   20.9839 N   0  0  0  0  0  0  0  0  0  0  0  0
    8.4716  -15.4370   22.8364 C   0  0  0  0  0  0  0  0  0  0  0  0
    7.9428  -14.4506   23.4298 O   0  0  0  0  0  0  0  0  0  0  0  0
    9.2120  -16.3306   23.6585 N   0  0  0  0  0  0  0  0  0  0  0  0
    9.9397  -15.8545   24.8553 C   0  0  1  0  0  0  0  0  0  0  0  0
    9.1044  -16.0191   26.0726 C   0  0  0  0  0  0  0  0  0  0  0  0
    7.8513  -15.2624   26.0174 C   0  0  0  0  0  0  0  0  0  0  0  0
    6.6039  -15.8576   25.7558 C   0  0  0  0  0  0  0  0  0  0  0  0
    5.6602  -14.9229   25.8161 N   0  0  0  0  0  0  0  0  0  0  0  0
    6.1735  -13.7203   26.1013 C   0  0  0  0  0  0  0  0  0  0  0  0
    5.6014  -12.4724   26.2543 C   0  0  0  0  0  0  0  0  0  0  0  0
    6.4005  -11.3872   26.5397 C   0  0  0  0  0  0  0  0  0  0  0  0
    7.7564  -11.5968   26.6615 C   0  0  0  0  0  0  0  0  0  0  0  0
    8.3316  -12.8534   26.5076 C   0  0  0  0  0  0  0  0  0  0  0  0
    7.5425  -13.9369   26.2253 C   0  0  0  0  0  0  0  0  0  0  0  0
   11.2428  -16.5123   24.9243 C   0  0  0  0  0  0  0  0  0  0  0  0
   11.5460  -17.3906   24.0872 O   0  0  0  0  0  0  0  0  0  0  0  0
   12.2106  -16.2232   25.8910 O   0  0  0  0  0  0  0  0  0  0  0  0
  2  1  1  6
  2  3  1  0
  3  4  1  0
  4  5  2  0
  4  8  1  0
  6  2  1  0
  7  6  2  0
  9 10  1  0
 10 11  2  0
 12 10  1  0
 13 12  1  1
 13 14  1  0
 14  6  1  0
 15 13  1  0
 15 17  1  0
 16 15  2  0
 18 19  1  1
 18 29  1  0
 18 17  1  0
 20 19  1  0
 20 21  2  0
 22 21  1  0
 23 28  2  0
 23 22  1  0
 24 23  1  0
 25 26  1  0
 25 24  2  0
 26 27  2  0
 27 28  1  0
 28 20  1  0
 29 31  1  0
 30 29  2  0
M  END
$$$$
