DNW.pdb
     RDKit          3D

 31 32  0  0  1  0  0  0  0  0999 V2000
    8.4242  -12.6240   18.9570 N   0  0  0  0  0  0  0  0  0  0  0  0
    8.2700  -13.8880   18.2770 C   0  0  1  0  0  0  0  0  0  0  0  0
    8.6907  -13.8521   16.8270 C   0  0  0  0  0  0  0  0  0  0  0  0
    8.4183  -15.1127   16.1065 C   0  0  0  0  0  0  0  0  0  0  0  0
    7.2311  -15.5282   16.0945 O   0  0  0  0  0  0  0  0  0  0  0  0
    8.9585  -14.9422   19.0615 C   0  0  0  0  0  0  0  0  0  0  0  0
    8.3436  -16.0208   19.3559 O   0  0  0  0  0  0  0  0  0  0  0  0
    9.3800  -15.8444   15.4586 O   0  0  0  0  0  0  0  0  0  0  0  0
   13.4026  -13.9645   18.8469 N   0  0  0  0  0  0  0  0  0  0  0  0
   13.1822  -14.8511   19.9284 C   0  0  0  0  0  0  0  0  0  0  0  0
   13.7730  -14.4980   21.0119 O   0  0  0  0  0  0  0  0  0  0  0  0
   12.3674  -16.0773   19.8970 C   0  0  0  0  0  0  0  0  0  0  0  0
   10.9630  -15.7933   20.3243 C   0  0  2  0  0  0  0  0  0  0  0  0
   10.3083  -14.7768   19.5014 N   0  0  0  0  0  0  0  0  0  0  0  0
   10.8617  -15.3539   21.7332 C   0  0  0  0  0  0  0  0  0  0  0  0
   11.0657  -14.1427   22.0430 O   0  0  0  0  0  0  0  0  0  0  0  0
   10.5388  -16.2235   22.8111 N   0  0  0  0  0  0  0  0  0  0  0  0
    9.7157  -15.7654   23.9519 C   0  0  1  0  0  0  0  0  0  0  0  0
    8.3654  -15.3549   23.4883 C   0  0  0  0  0  0  0  0  0  0  0  0
    7.5165  -14.8455   24.5679 C   0  0  0  0  0  0  0  0  0  0  0  0
    6.5474  -15.6295   25.2200 C   0  0  0  0  0  0  0  0  0  0  0  0
    5.9775  -14.9018   26.1758 N   0  0  0  0  0  0  0  0  0  0  0  0
    6.4883  -13.6658   26.2267 C   0  0  0  0  0  0  0  0  0  0  0  0
    6.2148  -12.5738   27.0271 C   0  0  0  0  0  0  0  0  0  0  0  0
    6.9081  -11.3988   26.8362 C   0  0  0  0  0  0  0  0  0  0  0  0
    7.8582  -11.3633   25.8397 C   0  0  0  0  0  0  0  0  0  0  0  0
    8.1331  -12.4630   25.0345 C   0  0  0  0  0  0  0  0  0  0  0  0
    7.4486  -13.6349   25.2201 C   0  0  0  0  0  0  0  0  0  0  0  0
    9.7104  -16.7938   24.9901 C   0  0  0  0  0  0  0  0  0  0  0  0
    9.5910  -17.9988   24.6773 O   0  0  0  0  0  0  0  0  0  0  0  0
    9.8330  -16.5217   26.3560 O   0  0  0  0  0  0  0  0  0  0  0  0
  2  1  1  1
  2  3  1  0
  3  4  1  0
  4  5  2  0
  4  8  1  0
  6  2  1  0
  7  6  2  0
  9 10  1  0
 10 11  2  0
 12 10  1  0
 13 12  1  6
 13 14  1  0
 14  6  1  0
 15 13  1  0
 15 17  1  0
 16 15  2  0
 18 19  1  6
 18 29  1  0
 18 17  1  0
 20 19  1  0
 20 21  2  0
 22 21  1  0
 23 28  2  0
 23 22  1  0
 24 23  1  0
 25 26  1  0
 25 24  2  0
 26 27  2  0
 27 28  1  0
 28 20  1  0
 29 31  1  0
 30 29  2  0
M  END
$$$$
