GER.pdb
     RDKit          3D

 25 24  0  0  1  0  0  0  0  0999 V2000
   -2.0989  -23.9516   24.3560 N   0  0  0  0  0  0  0  0  0  0  0  0
   -3.5068  -24.1155   24.6405 C   0  0  0  0  0  0  0  0  0  0  0  0
   -3.7483  -23.7382   26.0550 C   0  0  0  0  0  0  0  0  0  0  0  0
   -2.7560  -23.4926   26.7959 O   0  0  0  0  0  0  0  0  0  0  0  0
   -5.0416  -23.6398   26.6152 N   0  0  0  0  0  0  0  0  0  0  0  0
   -5.2021  -23.3186   28.0621 C   0  0  1  0  0  0  0  0  0  0  0  0
   -6.5707  -22.7906   28.2759 C   0  0  0  0  0  0  0  0  0  0  0  0
   -6.9051  -22.4616   29.6903 C   0  0  0  0  0  0  0  0  0  0  0  0
   -8.3107  -21.9751   29.8268 C   0  0  0  0  0  0  0  0  0  0  0  0
   -8.9494  -21.6061   28.8269 O   0  0  0  0  0  0  0  0  0  0  0  0
   -4.7564  -24.4426   28.8740 C   0  0  0  0  0  0  0  0  0  0  0  0
   -5.0699  -25.6144   28.4574 O   0  0  0  0  0  0  0  0  0  0  0  0
   -8.8793  -21.9446   31.0749 O   0  0  0  0  0  0  0  0  0  0  0  0
    2.1600  -26.8272   33.8709 N   0  0  0  0  0  0  0  0  0  0  0  0
    1.3249  -27.9746   33.8270 C   0  0  0  0  0  0  0  0  0  0  0  0
    1.7462  -29.1325   34.2696 N   0  0  0  0  0  0  0  0  0  0  0  0
    0.0271  -27.8218   33.2906 N   0  0  0  0  0  0  0  0  0  0  0  0
   -0.3596  -26.6280   32.5846 C   0  0  0  0  0  0  0  0  0  0  0  0
   -1.8015  -26.7227   32.1322 C   0  0  0  0  0  0  0  0  0  0  0  0
   -2.2026  -25.5324   31.2992 C   0  0  0  0  0  0  0  0  0  0  0  0
   -3.6089  -25.5535   30.8248 C   0  0  2  0  0  0  0  0  0  0  0  0
   -4.0170  -24.3972   30.0592 N   0  0  0  0  0  0  0  0  0  0  0  0
   -4.5356  -25.8489   31.9366 C   0  0  0  0  0  0  0  0  0  0  0  0
   -4.6968  -27.1394   32.3709 O   0  0  0  0  0  0  0  0  0  0  0  0
   -5.1640  -24.9180   32.4734 O   0  0  0  0  0  0  0  0  0  0  0  0
  2  1  1  0
  3  2  1  0
  4  3  2  0
  5  3  1  0
  6 11  1  0
  6  5  1  0
  6  7  1  6
  8  7  1  0
  9  8  1  0
 10  9  2  0
 11 12  2  0
 13  9  1  0
 15 16  2  0
 15 14  1  0
 17 15  1  0
 18 17  1  0
 19 20  1  0
 19 18  1  0
 21 20  1  1
 22 11  1  0
 22 21  1  0
 23 21  1  0
 23 24  1  0
 25 23  2  0
M  END
$$$$
