GER.pdb
     RDKit          3D

 25 24  0  0  1  0  0  0  0  0999 V2000
   10.3807  -18.5530   16.8126 N   0  0  0  0  0  0  0  0  0  0  0  0
   11.5784  -19.1067   17.4032 C   0  0  0  0  0  0  0  0  0  0  0  0
   11.3969  -19.1590   18.8748 C   0  0  0  0  0  0  0  0  0  0  0  0
   10.3811  -18.6065   19.3815 O   0  0  0  0  0  0  0  0  0  0  0  0
   12.3104  -19.8011   19.7406 N   0  0  0  0  0  0  0  0  0  0  0  0
   11.9827  -19.9516   21.1871 C   0  0  1  0  0  0  0  0  0  0  0  0
   12.8388  -21.0216   21.7526 C   0  0  0  0  0  0  0  0  0  0  0  0
   12.5696  -21.3555   23.1797 C   0  0  0  0  0  0  0  0  0  0  0  0
   13.4924  -22.4171   23.6823 C   0  0  0  0  0  0  0  0  0  0  0  0
   14.7064  -22.1864   23.8125 O   0  0  0  0  0  0  0  0  0  0  0  0
   11.9814  -18.6474   21.8356 C   0  0  0  0  0  0  0  0  0  0  0  0
   12.9579  -17.8642   21.5565 O   0  0  0  0  0  0  0  0  0  0  0  0
   12.9730  -23.6475   23.9958 O   0  0  0  0  0  0  0  0  0  0  0  0
    6.8222  -12.8672   19.9693 N   0  0  0  0  0  0  0  0  0  0  0  0
    7.8535  -13.3411   19.1162 C   0  0  0  0  0  0  0  0  0  0  0  0
    7.9167  -12.9676   17.8630 N   0  0  0  0  0  0  0  0  0  0  0  0
    8.8059  -14.2268   19.6672 N   0  0  0  0  0  0  0  0  0  0  0  0
    8.7270  -14.6589   21.0384 C   0  0  0  0  0  0  0  0  0  0  0  0
    9.9341  -15.4984   21.4005 C   0  0  0  0  0  0  0  0  0  0  0  0
    9.8855  -15.9522   22.8369 C   0  0  0  0  0  0  0  0  0  0  0  0
   11.0310  -16.7964   23.2592 C   0  0  2  0  0  0  0  0  0  0  0  0
   11.0328  -18.1410   22.7283 N   0  0  0  0  0  0  0  0  0  0  0  0
   11.1917  -16.7701   24.7275 C   0  0  0  0  0  0  0  0  0  0  0  0
   11.4684  -15.5889   25.3662 O   0  0  0  0  0  0  0  0  0  0  0  0
   11.0719  -17.8262   25.3753 O   0  0  0  0  0  0  0  0  0  0  0  0
  2  1  1  0
  3  2  1  0
  4  3  2  0
  5  3  1  0
  6 11  1  0
  6  5  1  0
  6  7  1  1
  8  7  1  0
  9  8  1  0
 10  9  2  0
 11 12  2  0
 13  9  1  0
 15 16  2  0
 15 14  1  0
 17 15  1  0
 18 17  1  0
 19 20  1  0
 19 18  1  0
 21 20  1  1
 22 11  1  0
 22 21  1  0
 23 21  1  0
 23 24  1  0
 25 23  2  0
M  END
$$$$
