GER.pdb
     RDKit          3D

 25 24  0  0  1  0  0  0  0  0999 V2000
   10.9487  -17.4528   13.6989 N   0  0  0  0  0  0  0  0  0  0  0  0
   12.2117  -16.7984   13.9568 C   0  0  0  0  0  0  0  0  0  0  0  0
   12.6753  -17.1872   15.3115 C   0  0  0  0  0  0  0  0  0  0  0  0
   11.8239  -17.5874   16.1533 O   0  0  0  0  0  0  0  0  0  0  0  0
   14.0308  -17.1312   15.7065 N   0  0  0  0  0  0  0  0  0  0  0  0
   14.4195  -17.5367   17.0874 C   0  0  1  0  0  0  0  0  0  0  0  0
   15.8579  -17.8952   17.0831 C   0  0  0  0  0  0  0  0  0  0  0  0
   16.3707  -18.4577   18.3642 C   0  0  0  0  0  0  0  0  0  0  0  0
   17.8336  -18.7510   18.2924 C   0  0  0  0  0  0  0  0  0  0  0  0
   18.4730  -18.5153   17.2533 O   0  0  0  0  0  0  0  0  0  0  0  0
   13.9536  -16.5451   18.0471 C   0  0  0  0  0  0  0  0  0  0  0  0
   13.5165  -15.4392   17.5667 O   0  0  0  0  0  0  0  0  0  0  0  0
   18.4538  -19.2840   19.3939 O   0  0  0  0  0  0  0  0  0  0  0  0
    8.0644  -13.1786   17.6618 N   0  0  0  0  0  0  0  0  0  0  0  0
    8.2742  -12.9199   19.0419 C   0  0  0  0  0  0  0  0  0  0  0  0
    7.9407  -11.7695   19.5706 N   0  0  0  0  0  0  0  0  0  0  0  0
    8.8535  -13.9456   19.8214 N   0  0  0  0  0  0  0  0  0  0  0  0
   10.0030  -14.6814   19.3627 C   0  0  0  0  0  0  0  0  0  0  0  0
   10.3453  -15.7908   20.3346 C   0  0  0  0  0  0  0  0  0  0  0  0
   11.4769  -16.6467   19.8259 C   0  0  0  0  0  0  0  0  0  0  0  0
   12.8257  -16.2241   20.2790 C   0  0  2  0  0  0  0  0  0  0  0  0
   13.9201  -16.6575   19.4399 N   0  0  0  0  0  0  0  0  0  0  0  0
   13.0354  -16.5672   21.7005 C   0  0  0  0  0  0  0  0  0  0  0  0
   14.0745  -17.3851   22.0626 O   0  0  0  0  0  0  0  0  0  0  0  0
   12.2636  -16.1066   22.5617 O   0  0  0  0  0  0  0  0  0  0  0  0
  2  1  1  0
  3  2  1  0
  4  3  2  0
  5  3  1  0
  6 11  1  0
  6  5  1  0
  6  7  1  6
  8  7  1  0
  9  8  1  0
 10  9  2  0
 11 12  2  0
 13  9  1  0
 15 16  2  0
 15 14  1  0
 17 15  1  0
 18 17  1  0
 19 20  1  0
 19 18  1  0
 21 20  1  6
 22 11  1  0
 22 21  1  0
 23 21  1  0
 23 24  1  0
 25 23  2  0
M  END
$$$$
