GER.pdb
     RDKit          3D

 25 24  0  0  1  0  0  0  0  0999 V2000
   17.8354  -18.2938    9.6467 N   0  0  0  0  0  0  0  0  0  0  0  0
   18.6183  -17.1614   10.0880 C   0  0  0  0  0  0  0  0  0  0  0  0
   19.3691  -17.5541   11.3060 C   0  0  0  0  0  0  0  0  0  0  0  0
   19.2313  -18.7268   11.7527 O   0  0  0  0  0  0  0  0  0  0  0  0
   20.2354  -16.6745   11.9930 N   0  0  0  0  0  0  0  0  0  0  0  0
   20.8889  -17.1135   13.2590 C   0  0  1  0  0  0  0  0  0  0  0  0
   22.0150  -16.1940   13.5485 C   0  0  0  0  0  0  0  0  0  0  0  0
   23.2252  -16.3942   12.7025 C   0  0  0  0  0  0  0  0  0  0  0  0
   24.2756  -15.3718   12.9900 C   0  0  0  0  0  0  0  0  0  0  0  0
   25.0491  -14.9943   12.0938 O   0  0  0  0  0  0  0  0  0  0  0  0
   19.8829  -17.3264   14.2906 C   0  0  0  0  0  0  0  0  0  0  0  0
   18.6598  -17.1492   13.9479 O   0  0  0  0  0  0  0  0  0  0  0  0
   24.3677  -14.8605   14.2597 O   0  0  0  0  0  0  0  0  0  0  0  0
   13.3347  -20.4665   15.7845 N   0  0  0  0  0  0  0  0  0  0  0  0
   13.6859  -20.9067   17.0878 C   0  0  0  0  0  0  0  0  0  0  0  0
   12.7820  -21.3893   17.9028 N   0  0  0  0  0  0  0  0  0  0  0  0
   15.0415  -20.8057   17.4717 N   0  0  0  0  0  0  0  0  0  0  0  0
   16.0730  -20.4946   16.5165 C   0  0  0  0  0  0  0  0  0  0  0  0
   16.9937  -19.4225   17.0601 C   0  0  0  0  0  0  0  0  0  0  0  0
   18.0565  -19.0429   16.0611 C   0  0  0  0  0  0  0  0  0  0  0  0
   19.0462  -18.0532   16.5551 C   0  0  2  0  0  0  0  0  0  0  0  0
   20.0922  -17.7093   15.6184 N   0  0  0  0  0  0  0  0  0  0  0  0
   19.5796  -18.4543   17.8730 C   0  0  0  0  0  0  0  0  0  0  0  0
   18.9555  -18.0387   19.0210 O   0  0  0  0  0  0  0  0  0  0  0  0
   20.5956  -19.1713   17.9297 O   0  0  0  0  0  0  0  0  0  0  0  0
  2  1  1  0
  3  2  1  0
  4  3  2  0
  5  3  1  0
  6 11  1  0
  6  5  1  0
  6  7  1  1
  8  7  1  0
  9  8  1  0
 10  9  2  0
 11 12  2  0
 13  9  1  0
 15 16  2  0
 15 14  1  0
 17 15  1  0
 18 17  1  0
 19 20  1  0
 19 18  1  0
 21 20  1  6
 22 11  1  0
 22 21  1  0
 23 21  1  0
 23 24  1  0
 25 23  2  0
M  END
$$$$
