GER.pdb
     RDKit          3D

 25 24  0  0  1  0  0  0  0  0999 V2000
    5.1800  -23.8391   25.3003 N   0  0  0  0  0  0  0  0  0  0  0  0
    5.7233  -23.2080   26.4821 C   0  0  0  0  0  0  0  0  0  0  0  0
    7.1968  -23.3820   26.4735 C   0  0  0  0  0  0  0  0  0  0  0  0
    7.6719  -24.5253   26.2266 O   0  0  0  0  0  0  0  0  0  0  0  0
    8.0981  -22.3244   26.7293 N   0  0  0  0  0  0  0  0  0  0  0  0
    9.5674  -22.5694   26.6687 C   0  0  1  0  0  0  0  0  0  0  0  0
   10.1404  -21.7193   25.5979 C   0  0  0  0  0  0  0  0  0  0  0  0
    9.4354  -21.7963   24.2874 C   0  0  0  0  0  0  0  0  0  0  0  0
   10.0860  -20.9308   23.2584 C   0  0  0  0  0  0  0  0  0  0  0  0
   11.1141  -20.2895   23.5336 O   0  0  0  0  0  0  0  0  0  0  0  0
   10.1415  -22.4853   28.0046 C   0  0  0  0  0  0  0  0  0  0  0  0
    9.5773  -21.6763   28.8244 O   0  0  0  0  0  0  0  0  0  0  0  0
    9.5264  -20.8593   22.0080 O   0  0  0  0  0  0  0  0  0  0  0  0
   17.2847  -21.1226   33.1982 N   0  0  0  0  0  0  0  0  0  0  0  0
   16.4379  -22.2521   33.3503 C   0  0  0  0  0  0  0  0  0  0  0  0
   16.9088  -23.3943   33.7833 N   0  0  0  0  0  0  0  0  0  0  0  0
   15.0733  -22.0987   33.0191 N   0  0  0  0  0  0  0  0  0  0  0  0
   14.6261  -22.1017   31.6505 C   0  0  0  0  0  0  0  0  0  0  0  0
   13.1236  -21.9269   31.5829 C   0  0  0  0  0  0  0  0  0  0  0  0
   12.6205  -21.9806   30.1632 C   0  0  0  0  0  0  0  0  0  0  0  0
   11.7157  -23.1199   29.8690 C   0  0  2  0  0  0  0  0  0  0  0  0
   11.2391  -23.1906   28.5060 N   0  0  0  0  0  0  0  0  0  0  0  0
   10.6171  -23.1882   30.8543 C   0  0  0  0  0  0  0  0  0  0  0  0
   10.6077  -24.1773   31.8037 O   0  0  0  0  0  0  0  0  0  0  0  0
    9.7057  -22.3413   30.8146 O   0  0  0  0  0  0  0  0  0  0  0  0
  2  1  1  0
  3  2  1  0
  4  3  2  0
  5  3  1  0
  6 11  1  0
  6  5  1  0
  6  7  1  6
  8  7  1  0
  9  8  1  0
 10  9  2  0
 11 12  2  0
 13  9  1  0
 15 16  2  0
 15 14  1  0
 17 15  1  0
 18 17  1  0
 19 20  1  0
 19 18  1  0
 21 20  1  6
 22 11  1  0
 22 21  1  0
 23 21  1  0
 23 24  1  0
 25 23  2  0
M  END
$$$$
