GER.pdb
     RDKit          3D

 25 24  0  0  1  0  0  0  0  0999 V2000
    3.6970  -18.7423   21.8326 N   0  0  0  0  0  0  0  0  0  0  0  0
    4.1172  -17.6473   22.6777 C   0  0  0  0  0  0  0  0  0  0  0  0
    5.4852  -17.2389   22.2736 C   0  0  0  0  0  0  0  0  0  0  0  0
    6.4634  -17.9496   22.6367 O   0  0  0  0  0  0  0  0  0  0  0  0
    5.7469  -16.0874   21.4977 N   0  0  0  0  0  0  0  0  0  0  0  0
    7.1463  -15.7618   21.1001 C   0  0  1  0  0  0  0  0  0  0  0  0
    7.1036  -14.9340   19.8711 C   0  0  0  0  0  0  0  0  0  0  0  0
    8.4306  -14.4660   19.3804 C   0  0  0  0  0  0  0  0  0  0  0  0
    8.4101  -14.1870   17.9132 C   0  0  0  0  0  0  0  0  0  0  0  0
    7.4595  -13.5709   17.4025 O   0  0  0  0  0  0  0  0  0  0  0  0
    7.8867  -15.2607   22.2499 C   0  0  0  0  0  0  0  0  0  0  0  0
    7.1932  -14.8582   23.2509 O   0  0  0  0  0  0  0  0  0  0  0  0
    9.4590  -14.6239   17.1445 O   0  0  0  0  0  0  0  0  0  0  0  0
    8.8501  -16.5126   30.2436 N   0  0  0  0  0  0  0  0  0  0  0  0
    9.7489  -15.6350   29.5819 C   0  0  0  0  0  0  0  0  0  0  0  0
   10.1225  -14.5092   30.1360 N   0  0  0  0  0  0  0  0  0  0  0  0
   10.2242  -16.0198   28.3086 N   0  0  0  0  0  0  0  0  0  0  0  0
    9.4014  -15.9069   27.1325 C   0  0  0  0  0  0  0  0  0  0  0  0
   10.1541  -16.3886   25.9101 C   0  0  0  0  0  0  0  0  0  0  0  0
    9.3530  -16.1892   24.6491 C   0  0  0  0  0  0  0  0  0  0  0  0
    9.9828  -15.2895   23.6506 C   0  0  2  0  0  0  0  0  0  0  0  0
    9.2737  -15.1705   22.3964 N   0  0  0  0  0  0  0  0  0  0  0  0
   11.4084  -15.6277   23.4619 C   0  0  0  0  0  0  0  0  0  0  0  0
   11.8622  -16.0243   22.2303 O   0  0  0  0  0  0  0  0  0  0  0  0
   12.1895  -15.5475   24.4277 O   0  0  0  0  0  0  0  0  0  0  0  0
  2  1  1  0
  3  2  1  0
  4  3  2  0
  5  3  1  0
  6 11  1  0
  6  5  1  0
  6  7  1  6
  8  7  1  0
  9  8  1  0
 10  9  2  0
 11 12  2  0
 13  9  1  0
 15 16  2  0
 15 14  1  0
 17 15  1  0
 18 17  1  0
 19 20  1  0
 19 18  1  0
 21 20  1  1
 22 11  1  0
 22 21  1  0
 23 21  1  0
 23 24  1  0
 25 23  2  0
M  END
$$$$
