GER.pdb
     RDKit          3D

 25 24  0  0  1  0  0  0  0  0999 V2000
   11.6554  -16.1797   13.2507 N   0  0  0  0  0  0  0  0  0  0  0  0
   12.9044  -15.6275   13.7253 C   0  0  0  0  0  0  0  0  0  0  0  0
   13.3788  -16.4489   14.8662 C   0  0  0  0  0  0  0  0  0  0  0  0
   12.6350  -17.3717   15.3011 O   0  0  0  0  0  0  0  0  0  0  0  0
   14.6294  -16.2473   15.4922 N   0  0  0  0  0  0  0  0  0  0  0  0
   14.9402  -16.9443   16.7728 C   0  0  1  0  0  0  0  0  0  0  0  0
   16.4132  -17.0019   16.9296 C   0  0  0  0  0  0  0  0  0  0  0  0
   17.1046  -17.9704   16.0328 C   0  0  0  0  0  0  0  0  0  0  0  0
   18.5801  -17.9823   16.2653 C   0  0  0  0  0  0  0  0  0  0  0  0
   19.0954  -17.1994   17.0812 O   0  0  0  0  0  0  0  0  0  0  0  0
   14.1482  -16.3748   17.8544 C   0  0  0  0  0  0  0  0  0  0  0  0
   13.7116  -15.1812   17.6822 O   0  0  0  0  0  0  0  0  0  0  0  0
   19.3511  -18.8724   15.5617 O   0  0  0  0  0  0  0  0  0  0  0  0
    7.2548  -13.3484   18.4618 N   0  0  0  0  0  0  0  0  0  0  0  0
    7.9673  -13.0427   19.6512 C   0  0  0  0  0  0  0  0  0  0  0  0
    7.7519  -11.9249   20.2978 N   0  0  0  0  0  0  0  0  0  0  0  0
    8.9137  -13.9856   20.1101 N   0  0  0  0  0  0  0  0  0  0  0  0
    9.2544  -15.1491   19.3334 C   0  0  0  0  0  0  0  0  0  0  0  0
   10.2426  -16.0172   20.0836 C   0  0  0  0  0  0  0  0  0  0  0  0
   11.3883  -16.4448   19.2027 C   0  0  0  0  0  0  0  0  0  0  0  0
   12.6908  -16.5790   19.9016 C   0  0  2  0  0  0  0  0  0  0  0  0
   13.7992  -16.9803   19.0648 N   0  0  0  0  0  0  0  0  0  0  0  0
   12.5582  -17.4253   21.1051 C   0  0  0  0  0  0  0  0  0  0  0  0
   11.9409  -16.9322   22.2258 O   0  0  0  0  0  0  0  0  0  0  0  0
   13.0088  -18.5855   21.0903 O   0  0  0  0  0  0  0  0  0  0  0  0
  2  1  1  0
  3  2  1  0
  4  3  2  0
  5  3  1  0
  6 11  1  0
  6  5  1  0
  6  7  1  1
  8  7  1  0
  9  8  1  0
 10  9  2  0
 11 12  2  0
 13  9  1  0
 15 16  2  0
 15 14  1  0
 17 15  1  0
 18 17  1  0
 19 20  1  0
 19 18  1  0
 21 20  1  6
 22 11  1  0
 22 21  1  0
 23 21  1  0
 23 24  1  0
 25 23  2  0
M  END
$$$$
