GER.pdb
     RDKit          3D

 25 24  0  0  1  0  0  0  0  0999 V2000
    6.0817  -19.6173   19.6643 N   0  0  0  0  0  0  0  0  0  0  0  0
    6.9577  -18.6922   20.3475 C   0  0  0  0  0  0  0  0  0  0  0  0
    8.1611  -19.4316   20.8018 C   0  0  0  0  0  0  0  0  0  0  0  0
    8.0068  -20.4777   21.4915 O   0  0  0  0  0  0  0  0  0  0  0  0
    9.4779  -19.0195   20.4978 N   0  0  0  0  0  0  0  0  0  0  0  0
   10.6360  -19.8505   20.9344 C   0  0  1  0  0  0  0  0  0  0  0  0
   11.6968  -19.7548   19.9033 C   0  0  0  0  0  0  0  0  0  0  0  0
   12.8905  -20.6130   20.1461 C   0  0  0  0  0  0  0  0  0  0  0  0
   13.8786  -20.5134   19.0303 C   0  0  0  0  0  0  0  0  0  0  0  0
   13.7781  -21.2475   18.0327 O   0  0  0  0  0  0  0  0  0  0  0  0
   10.9794  -19.5395   22.3153 C   0  0  0  0  0  0  0  0  0  0  0  0
   11.2564  -18.3152   22.5784 O   0  0  0  0  0  0  0  0  0  0  0  0
   14.8954  -19.5980   19.1300 O   0  0  0  0  0  0  0  0  0  0  0  0
   10.2714  -23.6577   29.8947 N   0  0  0  0  0  0  0  0  0  0  0  0
   11.3897  -22.8464   30.2219 C   0  0  0  0  0  0  0  0  0  0  0  0
   11.9518  -22.9173   31.4022 N   0  0  0  0  0  0  0  0  0  0  0  0
   11.8724  -21.9634   29.2307 N   0  0  0  0  0  0  0  0  0  0  0  0
   11.0279  -21.4984   28.1612 C   0  0  0  0  0  0  0  0  0  0  0  0
   11.8476  -20.7727   27.1151 C   0  0  0  0  0  0  0  0  0  0  0  0
   11.4479  -21.1738   25.7183 C   0  0  0  0  0  0  0  0  0  0  0  0
   11.5428  -20.0880   24.7107 C   0  0  2  0  0  0  0  0  0  0  0  0
   11.0379  -20.4216   23.3979 N   0  0  0  0  0  0  0  0  0  0  0  0
   12.9102  -19.5310   24.6638 C   0  0  0  0  0  0  0  0  0  0  0  0
   13.2318  -18.4369   25.4251 O   0  0  0  0  0  0  0  0  0  0  0  0
   13.7634  -20.0639   23.9306 O   0  0  0  0  0  0  0  0  0  0  0  0
  2  1  1  0
  3  2  1  0
  4  3  2  0
  5  3  1  0
  6 11  1  0
  6  5  1  0
  6  7  1  6
  8  7  1  0
  9  8  1  0
 10  9  2  0
 11 12  2  0
 13  9  1  0
 15 16  2  0
 15 14  1  0
 17 15  1  0
 18 17  1  0
 19 20  1  0
 19 18  1  0
 21 20  1  1
 22 11  1  0
 22 21  1  0
 23 21  1  0
 23 24  1  0
 25 23  2  0
M  END
$$$$
