IVS.pdb
     RDKit          3D

 22 21  0  0  1  0  0  0  0  0999 V2000
   25.9567  -20.7809   -8.1210 C   0  0  0  0  0  0  0  0  0  0  0  0
   24.7467  -20.5000   -8.9447 C   0  0  0  0  0  0  0  0  0  0  0  0
   24.8019  -21.0502  -10.3550 C   0  0  2  0  0  0  0  0  0  0  0  0
   26.0730  -20.4663  -10.9838 C   0  0  0  0  0  0  0  0  0  0  0  0
   23.5642  -20.5961  -11.1031 C   0  0  2  0  0  0  0  0  0  0  0  0
   22.3784  -21.2490  -10.5111 N   0  0  0  0  0  0  0  0  0  0  0  0
   23.5793  -20.9583  -12.5390 C   0  0  0  0  0  0  0  0  0  0  0  0
   23.5328  -22.1956  -12.8857 O   0  0  0  0  0  0  0  0  0  0  0  0
   21.3318  -20.6222  -15.2865 C   0  0  0  0  0  0  0  0  0  0  0  0
   22.5882  -19.9290  -15.7416 C   0  0  2  0  0  0  0  0  0  0  0  0
   22.7892  -20.1992  -17.2200 C   0  0  0  0  0  0  0  0  0  0  0  0
   23.7654  -20.4916  -15.0073 C   0  0  2  0  0  0  0  0  0  0  0  0
   23.6404  -20.0460  -13.6058 N   0  0  0  0  0  0  0  0  0  0  0  0
   25.0657  -20.0899  -15.5652 C   0  0  0  0  0  0  0  0  0  0  0  0
   25.3015  -18.8713  -15.7182 O   0  0  0  0  0  0  0  0  0  0  0  0
   27.7726  -22.9475  -15.9503 O   0  0  0  0  0  0  0  0  0  0  0  0
   28.3384  -21.6876  -15.7817 C   0  0  0  0  0  0  0  0  0  0  0  0
   27.3808  -20.6663  -16.3790 C   0  0  2  0  0  0  0  0  0  0  0  0
   26.0517  -21.0155  -15.9327 N   0  0  0  0  0  0  0  0  0  0  0  0
   27.5132  -20.7823  -17.8600 C   0  0  0  0  0  0  0  0  0  0  0  0
   26.5037  -21.1642  -18.5043 O   0  0  0  0  0  0  0  0  0  0  0  0
   28.7236  -20.4672  -18.4341 O   0  0  0  0  0  0  0  0  0  0  0  0
  2  1  1  0
  2  3  1  0
  3  4  1  6
  5  3  1  0
  5  7  1  0
  5  6  1  1
  7  8  2  0
 10  9  1  1
 10 12  1  0
 10 11  1  0
 12 13  1  1
 13  7  1  0
 14 12  1  0
 14 15  2  0
 16 17  1  0
 18 17  1  1
 18 19  1  0
 18 20  1  0
 19 14  1  0
 20 21  2  0
 20 22  1  0
M  END
$$$$
