IVS.pdb
     RDKit          3D

 22 21  0  0  1  0  0  0  0  0999 V2000
   29.7753  -20.0048  -12.6438 C   0  0  0  0  0  0  0  0  0  0  0  0
   28.4294  -20.0464  -13.2826 C   0  0  0  0  0  0  0  0  0  0  0  0
   28.3339  -20.9506  -14.4942 C   0  0  2  0  0  0  0  0  0  0  0  0
   29.3314  -20.3904  -15.5156 C   0  0  0  0  0  0  0  0  0  0  0  0
   26.9167  -20.8983  -15.0296 C   0  0  2  0  0  0  0  0  0  0  0  0
   26.5804  -19.4987  -15.3632 N   0  0  0  0  0  0  0  0  0  0  0  0
   25.9025  -21.3608  -14.0545 C   0  0  0  0  0  0  0  0  0  0  0  0
   25.8298  -22.6084  -13.7524 O   0  0  0  0  0  0  0  0  0  0  0  0
   25.5097  -20.7602  -10.5725 C   0  0  0  0  0  0  0  0  0  0  0  0
   24.1777  -20.3716  -11.1563 C   0  0  2  0  0  0  0  0  0  0  0  0
   23.0794  -20.8124  -10.2083 C   0  0  0  0  0  0  0  0  0  0  0  0
   23.9741  -21.0827  -12.4580 C   0  0  2  0  0  0  0  0  0  0  0  0
   24.9732  -20.5370  -13.3973 N   0  0  0  0  0  0  0  0  0  0  0  0
   22.6167  -20.9463  -13.0077 C   0  0  0  0  0  0  0  0  0  0  0  0
   22.1779  -19.7992  -13.2434 O   0  0  0  0  0  0  0  0  0  0  0  0
   18.7420  -23.3204  -14.6945 O   0  0  0  0  0  0  0  0  0  0  0  0
   20.0549  -23.3749  -14.2369 C   0  0  0  0  0  0  0  0  0  0  0  0
   20.4668  -21.9634  -13.8432 C   0  0  2  0  0  0  0  0  0  0  0  0
   21.7941  -22.0481  -13.2786 N   0  0  0  0  0  0  0  0  0  0  0  0
   19.4683  -21.4995  -12.8372 C   0  0  0  0  0  0  0  0  0  0  0  0
   19.6823  -21.7873  -11.6324 O   0  0  0  0  0  0  0  0  0  0  0  0
   18.3770  -20.7879  -13.2804 O   0  0  0  0  0  0  0  0  0  0  0  0
  2  1  1  0
  2  3  1  0
  3  4  1  6
  5  3  1  0
  5  7  1  0
  5  6  1  1
  7  8  2  0
 10  9  1  1
 10 12  1  0
 10 11  1  0
 12 13  1  6
 13  7  1  0
 14 12  1  0
 14 15  2  0
 16 17  1  0
 18 17  1  1
 18 19  1  0
 18 20  1  0
 19 14  1  0
 20 21  2  0
 20 22  1  0
M  END
$$$$
