IVS.pdb
     RDKit          3D

 22 21  0  0  1  0  0  0  0  0999 V2000
   28.8307  -13.4148  -16.0625 C   0  0  0  0  0  0  0  0  0  0  0  0
   27.3450  -13.5230  -16.0167 C   0  0  0  0  0  0  0  0  0  0  0  0
   26.6082  -12.2505  -16.3810 C   0  0  2  0  0  0  0  0  0  0  0  0
   26.9010  -11.2576  -15.2495 C   0  0  0  0  0  0  0  0  0  0  0  0
   25.1260  -12.5552  -16.4704 C   0  0  2  0  0  0  0  0  0  0  0  0
   24.9157  -13.6320  -17.4601 N   0  0  0  0  0  0  0  0  0  0  0  0
   24.3143  -11.3998  -16.9169 C   0  0  0  0  0  0  0  0  0  0  0  0
   23.9644  -11.3042  -18.1504 O   0  0  0  0  0  0  0  0  0  0  0  0
   21.0132  -10.5037  -16.1904 C   0  0  0  0  0  0  0  0  0  0  0  0
   21.8493   -9.8345  -17.2483 C   0  0  2  0  0  0  0  0  0  0  0  0
   22.3098  -10.8810  -18.2442 C   0  0  0  0  0  0  0  0  0  0  0  0
   23.0667   -9.2320  -16.6185 C   0  0  2  0  0  0  0  0  0  0  0  0
   23.8679  -10.3539  -16.0916 N   0  0  0  0  0  0  0  0  0  0  0  0
   22.7707   -8.2612  -15.5539 C   0  0  0  0  0  0  0  0  0  0  0  0
   22.5313   -8.6880  -14.4032 O   0  0  0  0  0  0  0  0  0  0  0  0
   22.7191   -3.5663  -14.3685 O   0  0  0  0  0  0  0  0  0  0  0  0
   22.8389   -4.5261  -15.3687 C   0  0  0  0  0  0  0  0  0  0  0  0
   22.5520   -5.8841  -14.7440 C   0  0  2  0  0  0  0  0  0  0  0  0
   22.7456   -6.8776  -15.7751 N   0  0  0  0  0  0  0  0  0  0  0  0
   21.1359   -5.8416  -14.2783 C   0  0  0  0  0  0  0  0  0  0  0  0
   20.2437   -6.1584  -15.1051 O   0  0  0  0  0  0  0  0  0  0  0  0
   20.8868   -5.4609  -12.9794 O   0  0  0  0  0  0  0  0  0  0  0  0
  2  1  1  0
  2  3  1  0
  3  4  1  1
  5  3  1  0
  5  7  1  0
  5  6  1  6
  7  8  2  0
 10  9  1  1
 10 12  1  0
 10 11  1  0
 12 13  1  1
 13  7  1  0
 14 12  1  0
 14 15  2  0
 16 17  1  0
 18 17  1  6
 18 19  1  0
 18 20  1  0
 19 14  1  0
 20 21  2  0
 20 22  1  0
M  END
$$$$
