IVS.pdb
     RDKit          3D

 22 21  0  0  1  0  0  0  0  0999 V2000
    9.5886  -11.5156   -9.2429 C   0  0  0  0  0  0  0  0  0  0  0  0
   10.7997  -11.7051  -10.0905 C   0  0  0  0  0  0  0  0  0  0  0  0
   11.9849  -10.8470   -9.6983 C   0  0  2  0  0  0  0  0  0  0  0  0
   11.5117   -9.3939   -9.8273 C   0  0  0  0  0  0  0  0  0  0  0  0
   13.1298  -11.1350  -10.6490 C   0  0  2  0  0  0  0  0  0  0  0  0
   13.4965  -12.5623  -10.5410 N   0  0  0  0  0  0  0  0  0  0  0  0
   14.3530  -10.3556  -10.3493 C   0  0  0  0  0  0  0  0  0  0  0  0
   15.4360  -10.9675  -10.0241 O   0  0  0  0  0  0  0  0  0  0  0  0
   16.9332  -10.1729  -11.3314 C   0  0  0  0  0  0  0  0  0  0  0  0
   16.5353   -8.7343  -11.5269 C   0  0  2  0  0  0  0  0  0  0  0  0
   17.7894   -7.8878  -11.6261 C   0  0  0  0  0  0  0  0  0  0  0  0
   15.7559   -8.2637  -10.3383 C   0  0  2  0  0  0  0  0  0  0  0  0
   14.4528   -8.9547  -10.3881 N   0  0  0  0  0  0  0  0  0  0  0  0
   15.5683   -6.8058  -10.2857 C   0  0  0  0  0  0  0  0  0  0  0  0
   15.0840   -6.2275  -11.2831 O   0  0  0  0  0  0  0  0  0  0  0  0
   15.5403   -2.9024   -7.4385 O   0  0  0  0  0  0  0  0  0  0  0  0
   15.8152   -4.2598   -7.5724 C   0  0  0  0  0  0  0  0  0  0  0  0
   15.6938   -4.6134   -9.0478 C   0  0  2  0  0  0  0  0  0  0  0  0
   15.9095   -6.0373   -9.1645 N   0  0  0  0  0  0  0  0  0  0  0  0
   16.7521   -3.8359   -9.7547 C   0  0  0  0  0  0  0  0  0  0  0  0
   17.9171   -4.3079   -9.7533 O   0  0  0  0  0  0  0  0  0  0  0  0
   16.3970   -2.6542  -10.3643 O   0  0  0  0  0  0  0  0  0  0  0  0
  2  1  1  0
  2  3  1  0
  3  4  1  6
  5  3  1  0
  5  7  1  0
  5  6  1  1
  7  8  2  0
 10  9  1  1
 10 12  1  0
 10 11  1  0
 12 13  1  6
 13  7  1  0
 14 12  1  0
 14 15  2  0
 16 17  1  0
 18 17  1  1
 18 19  1  0
 18 20  1  0
 19 14  1  0
 20 21  2  0
 20 22  1  0
M  END
$$$$
