IVS.pdb
     RDKit          3D

 22 21  0  0  1  0  0  0  0  0999 V2000
   20.4114  -17.4350  -17.4314 C   0  0  0  0  0  0  0  0  0  0  0  0
   21.7470  -18.0091  -17.7600 C   0  0  0  0  0  0  0  0  0  0  0  0
   22.3674  -18.8370  -16.6535 C   0  0  2  0  0  0  0  0  0  0  0  0
   22.4686  -17.9058  -15.4391 C   0  0  0  0  0  0  0  0  0  0  0  0
   23.7392  -19.2996  -17.1029 C   0  0  2  0  0  0  0  0  0  0  0  0
   23.5815  -20.2685  -18.2073 N   0  0  0  0  0  0  0  0  0  0  0  0
   24.5060  -19.9863  -16.0382 C   0  0  0  0  0  0  0  0  0  0  0  0
   24.1587  -21.1652  -15.6606 O   0  0  0  0  0  0  0  0  0  0  0  0
   28.2771  -20.6367  -15.7016 C   0  0  0  0  0  0  0  0  0  0  0  0
   27.7783  -19.9306  -14.4692 C   0  0  2  0  0  0  0  0  0  0  0  0
   28.4979  -20.4910  -13.2579 C   0  0  0  0  0  0  0  0  0  0  0  0
   26.3147  -20.1951  -14.2976 C   0  0  2  0  0  0  0  0  0  0  0  0
   25.6238  -19.4561  -15.3721 N   0  0  0  0  0  0  0  0  0  0  0  0
   25.7878  -19.8079  -12.9800 C   0  0  0  0  0  0  0  0  0  0  0  0
   25.7594  -18.5944  -12.6790 O   0  0  0  0  0  0  0  0  0  0  0  0
   23.0724  -20.8638   -9.2406 O   0  0  0  0  0  0  0  0  0  0  0  0
   23.6126  -21.2658  -10.4581 C   0  0  0  0  0  0  0  0  0  0  0  0
   24.8457  -20.4132  -10.7216 C   0  0  2  0  0  0  0  0  0  0  0  0
   25.3162  -20.7418  -12.0476 N   0  0  0  0  0  0  0  0  0  0  0  0
   25.8428  -20.7820   -9.6757 C   0  0  0  0  0  0  0  0  0  0  0  0
   26.7207  -21.6273   -9.9838 O   0  0  0  0  0  0  0  0  0  0  0  0
   25.7469  -20.1812   -8.4413 O   0  0  0  0  0  0  0  0  0  0  0  0
  2  1  1  0
  2  3  1  0
  3  4  1  1
  5  3  1  0
  5  7  1  0
  5  6  1  6
  7  8  2  0
 10  9  1  6
 10 12  1  0
 10 11  1  0
 12 13  1  6
 13  7  1  0
 14 12  1  0
 14 15  2  0
 16 17  1  0
 18 17  1  1
 18 19  1  0
 18 20  1  0
 19 14  1  0
 20 21  2  0
 20 22  1  0
M  END
$$$$
