IVS.pdb
     RDKit          3D

 22 21  0  0  1  0  0  0  0  0999 V2000
   15.2961  -11.8322  -18.4559 C   0  0  0  0  0  0  0  0  0  0  0  0
   16.6815  -12.3120  -18.1881 C   0  0  0  0  0  0  0  0  0  0  0  0
   17.4725  -11.4505  -17.2254 C   0  0  2  0  0  0  0  0  0  0  0  0
   17.6127  -10.0826  -17.9045 C   0  0  0  0  0  0  0  0  0  0  0  0
   18.8282  -12.0905  -17.0011 C   0  0  2  0  0  0  0  0  0  0  0  0
   18.6342  -13.4390  -16.4292 N   0  0  0  0  0  0  0  0  0  0  0  0
   19.6816  -11.3417  -16.0502 C   0  0  0  0  0  0  0  0  0  0  0  0
   19.3275  -11.2400  -14.8184 O   0  0  0  0  0  0  0  0  0  0  0  0
   23.1374  -11.8522  -14.9568 C   0  0  0  0  0  0  0  0  0  0  0  0
   23.0726  -10.4314  -15.4498 C   0  0  2  0  0  0  0  0  0  0  0  0
   23.9198   -9.5590  -14.5441 C   0  0  0  0  0  0  0  0  0  0  0  0
   21.6610   -9.9383  -15.3741 C   0  0  2  0  0  0  0  0  0  0  0  0
   20.8921  -10.7056  -16.3731 N   0  0  0  0  0  0  0  0  0  0  0  0
   21.5193   -8.4932  -15.6087 C   0  0  0  0  0  0  0  0  0  0  0  0
   21.8441   -8.0325  -16.7250 O   0  0  0  0  0  0  0  0  0  0  0  0
   19.2536   -6.3591  -13.1799 O   0  0  0  0  0  0  0  0  0  0  0  0
   19.5555   -5.7515  -14.3946 C   0  0  0  0  0  0  0  0  0  0  0  0
   20.9636   -6.1757  -14.7872 C   0  0  2  0  0  0  0  0  0  0  0  0
   21.0354   -7.6105  -14.6335 N   0  0  0  0  0  0  0  0  0  0  0  0
   21.8898   -5.4741  -13.8522 C   0  0  0  0  0  0  0  0  0  0  0  0
   22.5017   -6.1752  -13.0072 O   0  0  0  0  0  0  0  0  0  0  0  0
   22.0219   -4.1089  -13.9658 O   0  0  0  0  0  0  0  0  0  0  0  0
  2  1  1  0
  2  3  1  0
  3  4  1  6
  5  3  1  0
  5  7  1  0
  5  6  1  1
  7  8  2  0
 10  9  1  1
 10 12  1  0
 10 11  1  0
 12 13  1  6
 13  7  1  0
 14 12  1  0
 14 15  2  0
 16 17  1  0
 18 17  1  1
 18 19  1  0
 18 20  1  0
 19 14  1  0
 20 21  2  0
 20 22  1  0
M  END
$$$$
