HYG.pdb
     RDKit          3D

 27 28  0  0  1  0  0  0  0  0999 V2000
   19.7167  -13.4199  -17.8451 N   0  0  0  0  0  0  0  0  0  0  0  0
   19.1063  -12.2829  -17.2024 C   0  0  1  0  0  0  0  0  0  0  0  0
   18.7923  -12.6189  -15.7648 C   0  0  0  0  0  0  0  0  0  0  0  0
   17.7245  -13.6313  -15.6659 C   0  0  0  0  0  0  0  0  0  0  0  0
   17.8388  -14.9257  -15.2115 C   0  0  0  0  0  0  0  0  0  0  0  0
   16.6297  -15.5404  -15.2757 N   0  0  0  0  0  0  0  0  0  0  0  0
   15.7610  -14.6329  -15.7691 C   0  0  0  0  0  0  0  0  0  0  0  0
   16.4330  -13.4791  -16.0027 N   0  0  0  0  0  0  0  0  0  0  0  0
   20.0704  -11.1492  -17.3032 C   0  0  0  0  0  0  0  0  0  0  0  0
   21.3193  -11.3227  -17.1616 O   0  0  0  0  0  0  0  0  0  0  0  0
   22.5104  -11.7669  -23.0004 O   0  0  0  0  0  0  0  0  0  0  0  0
   22.1061  -10.8485  -22.0148 C   0  0  0  0  0  0  0  0  0  0  0  0
   22.9728   -9.9735  -21.4295 C   0  0  0  0  0  0  0  0  0  0  0  0
   22.5009   -9.0948  -20.4625 C   0  0  0  0  0  0  0  0  0  0  0  0
   21.1837   -9.0640  -20.0603 C   0  0  0  0  0  0  0  0  0  0  0  0
   20.6893   -8.1384  -19.0269 C   0  0  0  0  0  0  0  0  0  0  0  0
   20.5774   -8.6944  -17.6561 C   0  0  2  0  0  0  0  0  0  0  0  0
   19.6634   -9.8122  -17.5613 N   0  0  0  0  0  0  0  0  0  0  0  0
   20.1095   -7.6540  -16.7146 C   0  0  0  0  0  0  0  0  0  0  0  0
   18.8946   -7.4964  -16.4010 O   0  0  0  0  0  0  0  0  0  0  0  0
   20.3236   -9.9542  -20.6621 C   0  0  0  0  0  0  0  0  0  0  0  0
   20.7817  -10.8409  -21.6332 C   0  0  0  0  0  0  0  0  0  0  0  0
   21.0163   -6.7499  -16.0927 N   0  0  0  0  0  0  0  0  0  0  0  0
   20.5419   -5.7343  -15.1441 C   0  0  0  0  0  0  0  0  0  0  0  0
   21.6665   -4.9391  -14.6353 C   0  0  0  0  0  0  0  0  0  0  0  0
   22.8644   -5.2316  -14.9497 O   0  0  0  0  0  0  0  0  0  0  0  0
   21.4060   -3.8631  -13.8060 O   0  0  0  0  0  0  0  0  0  0  0  0
  2  9  1  0
  2  1  1  1
  2  3  1  0
  4  3  1  0
  4  8  1  0
  5  4  2  0
  6  5  1  0
  6  7  1  0
  7  8  2  0
  9 18  1  0
 10  9  2  0
 12 11  1  0
 13 12  2  0
 14 13  1  0
 15 21  1  0
 15 14  2  0
 16 15  1  0
 17 16  1  6
 18 17  1  0
 19 23  1  0
 19 17  1  0
 20 19  2  0
 21 22  2  0
 22 12  1  0
 24 23  1  0
 25 24  1  0
 26 25  2  0
 27 25  1  0
M  END
$$$$
