HYG.pdb
     RDKit          3D

 27 28  0  0  1  0  0  0  0  0999 V2000
   28.0362  -20.7606  -17.1922 N   0  0  0  0  0  0  0  0  0  0  0  0
   27.1941  -21.5338  -16.3138 C   0  0  1  0  0  0  0  0  0  0  0  0
   28.0343  -22.1698  -15.2331 C   0  0  0  0  0  0  0  0  0  0  0  0
   28.9813  -23.1530  -15.7914 C   0  0  0  0  0  0  0  0  0  0  0  0
   29.2245  -23.4186  -17.1200 C   0  0  0  0  0  0  0  0  0  0  0  0
   30.1661  -24.3913  -17.2260 N   0  0  0  0  0  0  0  0  0  0  0  0
   30.5112  -24.7334  -15.9668 C   0  0  0  0  0  0  0  0  0  0  0  0
   29.7883  -23.9781  -15.1041 N   0  0  0  0  0  0  0  0  0  0  0  0
   26.1792  -20.6018  -15.7427 C   0  0  0  0  0  0  0  0  0  0  0  0
   26.5126  -19.5000  -15.2090 O   0  0  0  0  0  0  0  0  0  0  0  0
   18.6868  -15.9255  -15.0526 O   0  0  0  0  0  0  0  0  0  0  0  0
   19.7641  -16.7657  -15.3869 C   0  0  0  0  0  0  0  0  0  0  0  0
   21.0574  -16.3334  -15.3873 C   0  0  0  0  0  0  0  0  0  0  0  0
   22.0699  -17.2211  -15.7289 C   0  0  0  0  0  0  0  0  0  0  0  0
   21.8286  -18.5333  -16.0719 C   0  0  0  0  0  0  0  0  0  0  0  0
   22.9037  -19.4685  -16.4440 C   0  0  0  0  0  0  0  0  0  0  0  0
   23.7712  -19.9360  -15.3351 C   0  0  2  0  0  0  0  0  0  0  0  0
   24.7852  -20.8786  -15.7559 N   0  0  0  0  0  0  0  0  0  0  0  0
   22.9593  -20.5917  -14.2869 C   0  0  0  0  0  0  0  0  0  0  0  0
   22.6018  -21.8034  -14.3416 O   0  0  0  0  0  0  0  0  0  0  0  0
   20.5174  -18.9517  -16.0658 C   0  0  0  0  0  0  0  0  0  0  0  0
   19.4915  -18.0737  -15.7255 C   0  0  0  0  0  0  0  0  0  0  0  0
   22.5231  -19.8845  -13.1311 N   0  0  0  0  0  0  0  0  0  0  0  0
   21.7124  -20.5450  -12.1002 C   0  0  0  0  0  0  0  0  0  0  0  0
   20.2844  -20.4499  -12.4281 C   0  0  0  0  0  0  0  0  0  0  0  0
   19.8995  -19.8766  -13.4971 O   0  0  0  0  0  0  0  0  0  0  0  0
   19.3585  -20.9938  -11.5562 O   0  0  0  0  0  0  0  0  0  0  0  0
  2  9  1  0
  2  1  1  6
  2  3  1  0
  4  3  1  0
  4  8  1  0
  5  4  2  0
  6  5  1  0
  6  7  1  0
  7  8  2  0
  9 18  1  0
 10  9  2  0
 12 11  1  0
 13 12  2  0
 14 13  1  0
 15 21  1  0
 15 14  2  0
 16 15  1  0
 17 16  1  6
 18 17  1  0
 19 23  1  0
 19 17  1  0
 20 19  2  0
 21 22  2  0
 22 12  1  0
 24 23  1  0
 25 24  1  0
 26 25  2  0
 27 25  1  0
M  END
$$$$
