HYG.pdb
     RDKit          3D

 27 28  0  0  1  0  0  0  0  0999 V2000
   29.6157  -13.2487  -18.2938 N   0  0  0  0  0  0  0  0  0  0  0  0
   29.5544  -11.8634  -17.8992 C   0  0  1  0  0  0  0  0  0  0  0  0
   30.3986  -11.0306  -18.8330 C   0  0  0  0  0  0  0  0  0  0  0  0
   31.8124  -11.4497  -18.8042 C   0  0  0  0  0  0  0  0  0  0  0  0
   32.7828  -11.0576  -17.9101 C   0  0  0  0  0  0  0  0  0  0  0  0
   33.9584  -11.6638  -18.2175 N   0  0  0  0  0  0  0  0  0  0  0  0
   33.7241  -12.4333  -19.3013 C   0  0  0  0  0  0  0  0  0  0  0  0
   32.4212  -12.2974  -19.6499 N   0  0  0  0  0  0  0  0  0  0  0  0
   28.1205  -11.4550  -17.9443 C   0  0  0  0  0  0  0  0  0  0  0  0
   27.2426  -12.1686  -18.5188 O   0  0  0  0  0  0  0  0  0  0  0  0
   20.2490   -9.9389  -14.6810 O   0  0  0  0  0  0  0  0  0  0  0  0
   21.6103  -10.1542  -14.9616 C   0  0  0  0  0  0  0  0  0  0  0  0
   22.5980   -9.8562  -14.0698 C   0  0  0  0  0  0  0  0  0  0  0  0
   23.9215  -10.0963  -14.4172 C   0  0  0  0  0  0  0  0  0  0  0  0
   24.2899  -10.6271  -15.6338 C   0  0  0  0  0  0  0  0  0  0  0  0
   25.6949  -10.8701  -16.0026 C   0  0  0  0  0  0  0  0  0  0  0  0
   26.2486   -9.9954  -17.0651 C   0  0  2  0  0  0  0  0  0  0  0  0
   27.6427  -10.2535  -17.3546 N   0  0  0  0  0  0  0  0  0  0  0  0
   26.1291   -8.5733  -16.6760 C   0  0  0  0  0  0  0  0  0  0  0  0
   26.9149   -8.0072  -15.8629 O   0  0  0  0  0  0  0  0  0  0  0  0
   23.2796  -10.9218  -16.5209 C   0  0  0  0  0  0  0  0  0  0  0  0
   21.9483  -10.6869  -16.1871 C   0  0  0  0  0  0  0  0  0  0  0  0
   25.1026   -7.7403  -17.2037 N   0  0  0  0  0  0  0  0  0  0  0  0
   24.9623   -6.3443  -16.7701 C   0  0  0  0  0  0  0  0  0  0  0  0
   23.8242   -5.7071  -17.4442 C   0  0  0  0  0  0  0  0  0  0  0  0
   23.1635   -6.3313  -18.3349 O   0  0  0  0  0  0  0  0  0  0  0  0
   23.4776   -4.4137  -17.0972 O   0  0  0  0  0  0  0  0  0  0  0  0
  2  9  1  0
  2  1  1  6
  2  3  1  0
  4  3  1  0
  4  8  1  0
  5  4  2  0
  6  5  1  0
  6  7  1  0
  7  8  2  0
  9 18  1  0
 10  9  2  0
 12 11  1  0
 13 12  2  0
 14 13  1  0
 15 21  1  0
 15 14  2  0
 16 15  1  0
 17 16  1  1
 18 17  1  0
 19 23  1  0
 19 17  1  0
 20 19  2  0
 21 22  2  0
 22 12  1  0
 24 23  1  0
 25 24  1  0
 26 25  2  0
 27 25  1  0
M  END
$$$$
