HYG.pdb
     RDKit          3D

 27 28  0  0  1  0  0  0  0  0999 V2000
   22.2221  -19.8916  -13.8841 N   0  0  0  0  0  0  0  0  0  0  0  0
   23.1532  -20.8319  -14.4561 C   0  0  1  0  0  0  0  0  0  0  0  0
   22.7382  -21.1634  -15.8690 C   0  0  0  0  0  0  0  0  0  0  0  0
   21.4940  -21.9548  -15.8965 C   0  0  0  0  0  0  0  0  0  0  0  0
   20.7932  -22.4489  -14.8197 C   0  0  0  0  0  0  0  0  0  0  0  0
   19.7005  -23.1256  -15.2579 N   0  0  0  0  0  0  0  0  0  0  0  0
   19.7175  -23.0550  -16.6056 C   0  0  0  0  0  0  0  0  0  0  0  0
   20.8078  -22.3438  -16.9838 N   0  0  0  0  0  0  0  0  0  0  0  0
   24.5023  -20.1971  -14.4151 C   0  0  0  0  0  0  0  0  0  0  0  0
   24.6486  -18.9387  -14.4859 O   0  0  0  0  0  0  0  0  0  0  0  0
   24.2586  -20.1364   -8.3359 O   0  0  0  0  0  0  0  0  0  0  0  0
   25.1096  -20.1996   -9.4540 C   0  0  0  0  0  0  0  0  0  0  0  0
   25.6935  -19.0917   -9.9935 C   0  0  0  0  0  0  0  0  0  0  0  0
   26.5232  -19.2316  -11.0990 C   0  0  0  0  0  0  0  0  0  0  0  0
   26.7880  -20.4500  -11.6846 C   0  0  0  0  0  0  0  0  0  0  0  0
   27.6595  -20.5930  -12.8632 C   0  0  0  0  0  0  0  0  0  0  0  0
   27.0178  -20.3531  -14.1790 C   0  0  2  0  0  0  0  0  0  0  0  0
   25.7035  -20.9472  -14.2953 N   0  0  0  0  0  0  0  0  0  0  0  0
   27.8543  -20.9028  -15.2682 C   0  0  0  0  0  0  0  0  0  0  0  0
   28.7478  -21.7783  -15.0835 O   0  0  0  0  0  0  0  0  0  0  0  0
   26.1902  -21.5570  -11.1264 C   0  0  0  0  0  0  0  0  0  0  0  0
   25.3562  -21.4328  -10.0182 C   0  0  0  0  0  0  0  0  0  0  0  0
   27.7008  -20.4709  -16.6158 N   0  0  0  0  0  0  0  0  0  0  0  0
   28.5597  -20.9996  -17.6830 C   0  0  0  0  0  0  0  0  0  0  0  0
   28.2261  -20.3759  -18.9697 C   0  0  0  0  0  0  0  0  0  0  0  0
   27.2547  -19.5593  -19.0639 O   0  0  0  0  0  0  0  0  0  0  0  0
   28.9846  -20.6889  -20.0833 O   0  0  0  0  0  0  0  0  0  0  0  0
  2  9  1  0
  2  1  1  6
  2  3  1  0
  4  3  1  0
  4  8  1  0
  5  4  2  0
  6  5  1  0
  6  7  1  0
  7  8  2  0
  9 18  1  0
 10  9  2  0
 12 11  1  0
 13 12  2  0
 14 13  1  0
 15 21  1  0
 15 14  2  0
 16 15  1  0
 17 16  1  1
 18 17  1  0
 19 23  1  0
 19 17  1  0
 20 19  2  0
 21 22  2  0
 22 12  1  0
 24 23  1  0
 25 24  1  0
 26 25  2  0
 27 25  1  0
M  END
$$$$
