HYG.pdb
     RDKit          3D

 27 28  0  0  1  0  0  0  0  0999 V2000
   23.0238  -11.0530  -19.3936 N   0  0  0  0  0  0  0  0  0  0  0  0
   22.0701  -10.3437  -18.5776 C   0  0  1  0  0  0  0  0  0  0  0  0
   21.2956  -11.3246  -17.7313 C   0  0  0  0  0  0  0  0  0  0  0  0
   20.3212  -12.0839  -18.5370 C   0  0  0  0  0  0  0  0  0  0  0  0
   18.9548  -11.9201  -18.5696 C   0  0  0  0  0  0  0  0  0  0  0  0
   18.4089  -12.8111  -19.4368 N   0  0  0  0  0  0  0  0  0  0  0  0
   19.4312  -13.5306  -19.9456 C   0  0  0  0  0  0  0  0  0  0  0  0
   20.5861  -13.0831  -19.3948 N   0  0  0  0  0  0  0  0  0  0  0  0
   22.8389   -9.3809  -17.7369 C   0  0  0  0  0  0  0  0  0  0  0  0
   23.8733   -9.7367  -17.0939 O   0  0  0  0  0  0  0  0  0  0  0  0
   27.2370   -8.0111  -21.9338 O   0  0  0  0  0  0  0  0  0  0  0  0
   26.3649   -7.5228  -20.9442 C   0  0  0  0  0  0  0  0  0  0  0  0
   25.0335   -7.3334  -21.1699 C   0  0  0  0  0  0  0  0  0  0  0  0
   24.2332   -6.8475  -20.1436 C   0  0  0  0  0  0  0  0  0  0  0  0
   24.7249   -6.5434  -18.8932 C   0  0  0  0  0  0  0  0  0  0  0  0
   23.8753   -6.0182  -17.8109 C   0  0  0  0  0  0  0  0  0  0  0  0
   23.2747   -7.0296  -16.9070 C   0  0  2  0  0  0  0  0  0  0  0  0
   22.4718   -8.0149  -17.5984 N   0  0  0  0  0  0  0  0  0  0  0  0
   22.4095   -6.3737  -15.9023 C   0  0  0  0  0  0  0  0  0  0  0  0
   21.2273   -5.9958  -16.1444 O   0  0  0  0  0  0  0  0  0  0  0  0
   26.0707   -6.7412  -18.6838 C   0  0  0  0  0  0  0  0  0  0  0  0
   26.8858   -7.2278  -19.7026 C   0  0  0  0  0  0  0  0  0  0  0  0
   22.8643   -6.1237  -14.5769 N   0  0  0  0  0  0  0  0  0  0  0  0
   22.0104   -5.4357  -13.6003 C   0  0  0  0  0  0  0  0  0  0  0  0
   21.9053   -4.0073  -13.9235 C   0  0  0  0  0  0  0  0  0  0  0  0
   22.5279   -3.5187  -14.9201 O   0  0  0  0  0  0  0  0  0  0  0  0
   21.1173   -3.1958  -13.1273 O   0  0  0  0  0  0  0  0  0  0  0  0
  2  9  1  0
  2  1  1  6
  2  3  1  0
  4  3  1  0
  4  8  1  0
  5  4  2  0
  6  5  1  0
  6  7  1  0
  7  8  2  0
  9 18  1  0
 10  9  2  0
 12 11  1  0
 13 12  2  0
 14 13  1  0
 15 21  1  0
 15 14  2  0
 16 15  1  0
 17 16  1  6
 18 17  1  0
 19 23  1  0
 19 17  1  0
 20 19  2  0
 21 22  2  0
 22 12  1  0
 24 23  1  0
 25 24  1  0
 26 25  2  0
 27 25  1  0
M  END
$$$$
