AKM.pdb
     RDKit          3D

 23 22  0  0  1  0  0  0  0  0999 V2000
   21.2480  -14.4703  -17.3648 C   0  0  0  0  0  0  0  0  0  0  0  0
   19.9646  -13.9882  -17.9649 C   0  0  2  0  0  0  0  0  0  0  0  0
   19.7833  -14.3498  -19.3348 N   0  0  0  0  0  0  0  0  0  0  0  0
   19.9201  -12.4938  -17.7771 C   0  0  0  0  0  0  0  0  0  0  0  0
   20.8294  -11.7565  -18.2328 O   0  0  0  0  0  0  0  0  0  0  0  0
   18.8608  -11.8543  -17.0844 N   0  0  0  0  0  0  0  0  0  0  0  0
   18.7981  -10.4232  -16.9165 C   0  0  1  0  0  0  0  0  0  0  0  0
   17.3632  -10.1193  -16.4506 C   0  0  0  0  0  0  0  0  0  0  0  0
   16.3638  -10.5305  -17.4795 C   0  0  0  0  0  0  0  0  0  0  0  0
   14.9711  -10.2741  -16.9716 C   0  0  0  0  0  0  0  0  0  0  0  0
   13.9546  -10.7493  -17.9639 C   0  0  0  0  0  0  0  0  0  0  0  0
   12.6036  -10.3667  -17.5811 N   0  0  0  0  0  0  0  0  0  0  0  0
   19.6849   -9.9456  -15.8253 C   0  0  0  0  0  0  0  0  0  0  0  0
   19.8808  -10.7028  -14.8287 O   0  0  0  0  0  0  0  0  0  0  0  0
   26.4710  -10.7001  -14.3114 C   0  0  0  0  0  0  0  0  0  0  0  0
   24.9679  -10.7890  -15.3088 S   0  0  0  0  0  0  0  0  0  0  0  0
   23.8409   -9.4849  -14.7940 C   0  0  0  0  0  0  0  0  0  0  0  0
   22.5213   -9.5462  -15.5121 C   0  0  0  0  0  0  0  0  0  0  0  0
   21.5601   -8.4619  -15.0775 C   0  0  2  0  0  0  0  0  0  0  0  0
   20.3251   -8.6959  -15.8299 N   0  0  0  0  0  0  0  0  0  0  0  0
   22.0722   -7.0934  -15.4096 C   0  0  0  0  0  0  0  0  0  0  0  0
   21.9515   -6.6058  -16.5751 O   0  0  0  0  0  0  0  0  0  0  0  0
   22.6984   -6.2997  -14.4642 O   0  0  0  0  0  0  0  0  0  0  0  0
  2  1  1  6
  2  3  1  0
  4  2  1  0
  5  4  2  0
  6  4  1  0
  7 13  1  0
  7  6  1  0
  7  8  1  1
  9  8  1  0
 10 11  1  0
 10  9  1  0
 11 12  1  0
 13 14  2  0
 16 17  1  0
 16 15  1  0
 17 18  1  0
 19 21  1  0
 19 18  1  6
 20 19  1  0
 20 13  1  0
 21 23  1  0
 22 21  2  0
M  END
$$$$
