AKM.pdb
     RDKit          3D

 23 22  0  0  1  0  0  0  0  0999 V2000
   20.4878  -11.5492  -19.3388 C   0  0  0  0  0  0  0  0  0  0  0  0
   21.2657  -11.3055  -18.0838 C   0  0  2  0  0  0  0  0  0  0  0  0
   21.2153  -12.3788  -17.1426 N   0  0  0  0  0  0  0  0  0  0  0  0
   20.7528  -10.0212  -17.4855 C   0  0  0  0  0  0  0  0  0  0  0  0
   20.9201   -8.9221  -18.0704 O   0  0  0  0  0  0  0  0  0  0  0  0
   20.0637   -9.9914  -16.2464 N   0  0  0  0  0  0  0  0  0  0  0  0
   19.5675   -8.7680  -15.6656 C   0  0  1  0  0  0  0  0  0  0  0  0
   18.5315   -9.1958  -14.6112 C   0  0  0  0  0  0  0  0  0  0  0  0
   17.1693   -9.3112  -15.2095 C   0  0  0  0  0  0  0  0  0  0  0  0
   16.1629   -9.6207  -14.1350 C   0  0  0  0  0  0  0  0  0  0  0  0
   14.7981   -9.7930  -14.7279 C   0  0  0  0  0  0  0  0  0  0  0  0
   13.7982  -10.0829  -13.7110 N   0  0  0  0  0  0  0  0  0  0  0  0
   20.6199   -8.0321  -14.9200 C   0  0  0  0  0  0  0  0  0  0  0  0
   21.6769   -8.6504  -14.5953 O   0  0  0  0  0  0  0  0  0  0  0  0
   26.3043   -4.3583  -16.8338 C   0  0  0  0  0  0  0  0  0  0  0  0
   24.8038   -5.3485  -17.0074 S   0  0  0  0  0  0  0  0  0  0  0  0
   23.7904   -5.1463  -15.5349 C   0  0  0  0  0  0  0  0  0  0  0  0
   22.5350   -5.9723  -15.5809 C   0  0  0  0  0  0  0  0  0  0  0  0
   21.7010   -5.8519  -14.3244 C   0  0  2  0  0  0  0  0  0  0  0  0
   20.5151   -6.6818  -14.5495 N   0  0  0  0  0  0  0  0  0  0  0  0
   21.2597   -4.4412  -14.0781 C   0  0  0  0  0  0  0  0  0  0  0  0
   21.8944   -3.6771  -13.2882 O   0  0  0  0  0  0  0  0  0  0  0  0
   20.1433   -3.9074  -14.6983 O   0  0  0  0  0  0  0  0  0  0  0  0
  2  1  1  6
  2  3  1  0
  4  2  1  0
  5  4  2  0
  6  4  1  0
  7 13  1  0
  7  6  1  0
  7  8  1  1
  9  8  1  0
 10 11  1  0
 10  9  1  0
 11 12  1  0
 13 14  2  0
 16 17  1  0
 16 15  1  0
 17 18  1  0
 19 21  1  0
 19 18  1  6
 20 19  1  0
 20 13  1  0
 21 23  1  0
 22 21  2  0
M  END
$$$$
