AKM.pdb
     RDKit          3D

 23 22  0  0  1  0  0  0  0  0999 V2000
   24.1249  -25.1350  -15.1188 C   0  0  0  0  0  0  0  0  0  0  0  0
   24.8926  -23.8723  -15.3557 C   0  0  2  0  0  0  0  0  0  0  0  0
   26.2702  -23.9429  -14.9847 N   0  0  0  0  0  0  0  0  0  0  0  0
   24.1767  -22.7719  -14.6161 C   0  0  0  0  0  0  0  0  0  0  0  0
   22.9693  -22.5144  -14.8484 O   0  0  0  0  0  0  0  0  0  0  0  0
   24.8246  -21.9820  -13.6324 N   0  0  0  0  0  0  0  0  0  0  0  0
   24.1474  -20.9298  -12.9151 C   0  0  1  0  0  0  0  0  0  0  0  0
   24.9821  -20.6849  -11.6456 C   0  0  0  0  0  0  0  0  0  0  0  0
   24.2526  -21.1374  -10.4251 C   0  0  0  0  0  0  0  0  0  0  0  0
   24.9675  -20.6542   -9.1928 C   0  0  0  0  0  0  0  0  0  0  0  0
   24.2039  -21.0317   -7.9607 C   0  0  0  0  0  0  0  0  0  0  0  0
   24.8620  -20.5629   -6.7504 N   0  0  0  0  0  0  0  0  0  0  0  0
   24.1594  -19.6443  -13.6585 C   0  0  0  0  0  0  0  0  0  0  0  0
   24.3745  -18.5744  -13.0151 O   0  0  0  0  0  0  0  0  0  0  0  0
   28.8173  -18.7281  -15.9050 C   0  0  0  0  0  0  0  0  0  0  0  0
   28.2198  -17.1192  -16.4677 S   0  0  0  0  0  0  0  0  0  0  0  0
   26.4215  -17.1396  -16.5085 C   0  0  0  0  0  0  0  0  0  0  0  0
   25.8388  -18.2607  -15.6934 C   0  0  0  0  0  0  0  0  0  0  0  0
   24.3315  -18.3430  -15.7925 C   0  0  2  0  0  0  0  0  0  0  0  0
   23.9453  -19.5405  -15.0423 N   0  0  0  0  0  0  0  0  0  0  0  0
   23.8709  -18.4957  -17.2102 C   0  0  0  0  0  0  0  0  0  0  0  0
   24.0659  -17.5844  -18.0717 O   0  0  0  0  0  0  0  0  0  0  0  0
   23.2136  -19.6335  -17.6451 O   0  0  0  0  0  0  0  0  0  0  0  0
  2  1  1  1
  2  3  1  0
  4  2  1  0
  5  4  2  0
  6  4  1  0
  7 13  1  0
  7  6  1  0
  7  8  1  1
  9  8  1  0
 10 11  1  0
 10  9  1  0
 11 12  1  0
 13 14  2  0
 16 17  1  0
 16 15  1  0
 17 18  1  0
 19 21  1  0
 19 18  1  6
 20 19  1  0
 20 13  1  0
 21 23  1  0
 22 21  2  0
M  END
$$$$
