AKM.pdb
     RDKit          3D

 23 22  0  0  1  0  0  0  0  0999 V2000
   20.4332  -11.4551  -18.3060 C   0  0  0  0  0  0  0  0  0  0  0  0
   20.1195  -10.8822  -16.9595 C   0  0  2  0  0  0  0  0  0  0  0  0
   19.0064  -11.4930  -16.3050 N   0  0  0  0  0  0  0  0  0  0  0  0
   19.9073   -9.4019  -17.1451 C   0  0  0  0  0  0  0  0  0  0  0  0
   20.8061   -8.6757  -17.6379 O   0  0  0  0  0  0  0  0  0  0  0  0
   18.6957   -8.7640  -16.7762 N   0  0  0  0  0  0  0  0  0  0  0  0
   18.4956   -7.3424  -16.9157 C   0  0  1  0  0  0  0  0  0  0  0  0
   16.9813   -7.1162  -16.7613 C   0  0  0  0  0  0  0  0  0  0  0  0
   16.2430   -7.5574  -17.9807 C   0  0  0  0  0  0  0  0  0  0  0  0
   14.7669   -7.3358  -17.7936 C   0  0  0  0  0  0  0  0  0  0  0  0
   14.0086   -7.8067  -18.9966 C   0  0  0  0  0  0  0  0  0  0  0  0
   12.5729   -7.6317  -18.8349 N   0  0  0  0  0  0  0  0  0  0  0  0
   19.1313   -6.5743  -15.8152 C   0  0  0  0  0  0  0  0  0  0  0  0
   19.5737   -7.2078  -14.8112 O   0  0  0  0  0  0  0  0  0  0  0  0
   25.7193   -4.0225  -14.7131 C   0  0  0  0  0  0  0  0  0  0  0  0
   24.3763   -4.8515  -15.5913 S   0  0  0  0  0  0  0  0  0  0  0  0
   22.8016   -4.2669  -14.9476 C   0  0  0  0  0  0  0  0  0  0  0  0
   21.6277   -4.9760  -15.5637 C   0  0  0  0  0  0  0  0  0  0  0  0
   20.2983   -4.5070  -15.0147 C   0  0  2  0  0  0  0  0  0  0  0  0
   19.2736   -5.1775  -15.8186 N   0  0  0  0  0  0  0  0  0  0  0  0
   20.1254   -3.0252  -15.1558 C   0  0  0  0  0  0  0  0  0  0  0  0
   19.5672   -2.5178  -16.1765 O   0  0  0  0  0  0  0  0  0  0  0  0
   20.5645   -2.1437  -14.1833 O   0  0  0  0  0  0  0  0  0  0  0  0
  2  1  1  6
  2  3  1  0
  4  2  1  0
  5  4  2  0
  6  4  1  0
  7 13  1  0
  7  6  1  0
  7  8  1  1
  9  8  1  0
 10 11  1  0
 10  9  1  0
 11 12  1  0
 13 14  2  0
 16 17  1  0
 16 15  1  0
 17 18  1  0
 19 21  1  0
 19 18  1  6
 20 19  1  0
 20 13  1  0
 21 23  1  0
 22 21  2  0
M  END
$$$$
