AKM.pdb
     RDKit          3D

 23 22  0  0  1  0  0  0  0  0999 V2000
   27.6509  -18.5844  -16.0646 C   0  0  0  0  0  0  0  0  0  0  0  0
   27.7726  -19.7562  -15.1418 C   0  0  2  0  0  0  0  0  0  0  0  0
   27.4020  -21.0060  -15.7257 N   0  0  0  0  0  0  0  0  0  0  0  0
   26.9436  -19.4487  -13.9217 C   0  0  0  0  0  0  0  0  0  0  0  0
   27.1116  -18.3843  -13.2760 O   0  0  0  0  0  0  0  0  0  0  0  0
   25.9443  -20.3367  -13.4484 N   0  0  0  0  0  0  0  0  0  0  0  0
   25.0858  -20.0137  -12.3353 C   0  0  1  0  0  0  0  0  0  0  0  0
   23.7410  -20.7008  -12.6313 C   0  0  0  0  0  0  0  0  0  0  0  0
   22.8688  -19.8362  -13.4788 C   0  0  0  0  0  0  0  0  0  0  0  0
   22.5102  -20.5592  -14.7485 C   0  0  0  0  0  0  0  0  0  0  0  0
   21.6986  -19.6750  -15.6448 C   0  0  0  0  0  0  0  0  0  0  0  0
   21.4634  -20.2890  -16.9431 N   0  0  0  0  0  0  0  0  0  0  0  0
   25.5686  -20.6062  -11.0621 C   0  0  0  0  0  0  0  0  0  0  0  0
   25.8707  -21.8364  -11.0427 O   0  0  0  0  0  0  0  0  0  0  0  0
   29.0136  -19.4521   -4.1223 C   0  0  0  0  0  0  0  0  0  0  0  0
   28.4089  -18.7417   -5.6688 S   0  0  0  0  0  0  0  0  0  0  0  0
   27.3983  -19.9610   -6.5221 C   0  0  0  0  0  0  0  0  0  0  0  0
   26.9658  -19.4989   -7.8860 C   0  0  0  0  0  0  0  0  0  0  0  0
   26.1352  -20.5263   -8.6230 C   0  0  2  0  0  0  0  0  0  0  0  0
   25.7122  -19.8812   -9.8683 N   0  0  0  0  0  0  0  0  0  0  0  0
   24.9146  -20.9202   -7.8481 C   0  0  0  0  0  0  0  0  0  0  0  0
   23.7642  -20.4819   -8.1566 O   0  0  0  0  0  0  0  0  0  0  0  0
   24.9843  -21.7774   -6.7636 O   0  0  0  0  0  0  0  0  0  0  0  0
  2  1  1  6
  2  3  1  0
  4  2  1  0
  5  4  2  0
  6  4  1  0
  7 13  1  0
  7  6  1  0
  7  8  1  6
  9  8  1  0
 10 11  1  0
 10  9  1  0
 11 12  1  0
 13 14  2  0
 16 17  1  0
 16 15  1  0
 17 18  1  0
 19 21  1  0
 19 18  1  1
 20 19  1  0
 20 13  1  0
 21 23  1  0
 22 21  2  0
M  END
$$$$
