AKM.pdb
     RDKit          3D

 23 22  0  0  1  0  0  0  0  0999 V2000
   27.9990  -17.1217  -16.3011 C   0  0  0  0  0  0  0  0  0  0  0  0
   28.1443  -18.4950  -15.7244 C   0  0  2  0  0  0  0  0  0  0  0  0
   28.0889  -19.5471  -16.6889 N   0  0  0  0  0  0  0  0  0  0  0  0
   27.0752  -18.6511  -14.6741 C   0  0  0  0  0  0  0  0  0  0  0  0
   26.9642  -17.8241  -13.7350 O   0  0  0  0  0  0  0  0  0  0  0  0
   26.1524  -19.7277  -14.6948 N   0  0  0  0  0  0  0  0  0  0  0  0
   25.1084  -19.8717  -13.7101 C   0  0  1  0  0  0  0  0  0  0  0  0
   24.1005  -20.8668  -14.3118 C   0  0  0  0  0  0  0  0  0  0  0  0
   22.9846  -21.1452  -13.3611 C   0  0  0  0  0  0  0  0  0  0  0  0
   21.6636  -21.0055  -14.0672 C   0  0  0  0  0  0  0  0  0  0  0  0
   20.5313  -21.2078  -13.1075 C   0  0  0  0  0  0  0  0  0  0  0  0
   19.2378  -21.0336  -13.7512 N   0  0  0  0  0  0  0  0  0  0  0  0
   25.5988  -20.5031  -12.4587 C   0  0  0  0  0  0  0  0  0  0  0  0
   26.3547  -21.5158  -12.5471 O   0  0  0  0  0  0  0  0  0  0  0  0
   29.7901  -19.6384   -7.4791 C   0  0  0  0  0  0  0  0  0  0  0  0
   28.0965  -19.2618   -6.9773 S   0  0  0  0  0  0  0  0  0  0  0  0
   26.9662  -20.3571   -7.8483 C   0  0  0  0  0  0  0  0  0  0  0  0
   26.6128  -19.8498   -9.2189 C   0  0  0  0  0  0  0  0  0  0  0  0
   25.6790  -20.7736   -9.9693 C   0  0  2  0  0  0  0  0  0  0  0  0
   25.2737  -20.0430  -11.1725 N   0  0  0  0  0  0  0  0  0  0  0  0
   24.4537  -21.1007   -9.1711 C   0  0  0  0  0  0  0  0  0  0  0  0
   23.3300  -20.5739   -9.4368 O   0  0  0  0  0  0  0  0  0  0  0  0
   24.4898  -21.9894   -8.1106 O   0  0  0  0  0  0  0  0  0  0  0  0
  2  1  1  6
  2  3  1  0
  4  2  1  0
  5  4  2  0
  6  4  1  0
  7 13  1  0
  7  6  1  0
  7  8  1  6
  9  8  1  0
 10 11  1  0
 10  9  1  0
 11 12  1  0
 13 14  2  0
 16 17  1  0
 16 15  1  0
 17 18  1  0
 19 21  1  0
 19 18  1  1
 20 19  1  0
 20 13  1  0
 21 23  1  0
 22 21  2  0
M  END
$$$$
