FLP.pdb
     RDKit          3D

 27 28  0  0  1  0  0  0  0  0999 V2000
   25.9250  -18.2313  -18.3024 N   0  0  0  0  0  0  0  0  0  0  0  0
   25.5258  -17.9880  -16.9510 C   0  0  1  0  0  0  0  0  0  0  0  0
   24.0301  -17.7543  -16.9180 C   0  0  0  0  0  0  0  0  0  0  0  0
   23.8016  -16.3719  -17.4247 C   0  0  0  0  0  0  0  0  0  0  0  0
   23.8249  -15.3265  -16.5441 C   0  0  0  0  0  0  0  0  0  0  0  0
   23.6067  -14.0477  -17.0562 C   0  0  0  0  0  0  0  0  0  0  0  0
   23.3790  -13.8784  -18.4050 C   0  0  0  0  0  0  0  0  0  0  0  0
   23.3595  -14.9472  -19.2776 C   0  0  0  0  0  0  0  0  0  0  0  0
   23.5741  -16.2188  -18.7828 C   0  0  0  0  0  0  0  0  0  0  0  0
   25.9402  -19.0944  -16.0494 C   0  0  0  0  0  0  0  0  0  0  0  0
   25.5481  -20.2337  -16.3104 O   0  0  0  0  0  0  0  0  0  0  0  0
   27.4827  -20.3226  -10.9247 C   0  0  0  0  0  0  0  0  0  0  0  0
   28.5127  -20.6302  -12.0448 C   0  0  2  0  0  0  0  0  0  0  0  0
   29.8746  -20.6657  -11.4311 C   0  0  0  0  0  0  0  0  0  0  0  0
   28.3117  -19.6641  -13.1622 C   0  0  0  0  0  0  0  0  0  0  0  0
   27.0126  -19.8452  -13.8851 C   0  0  2  0  0  0  0  0  0  0  0  0
   26.7635  -18.8781  -14.9122 N   0  0  0  0  0  0  0  0  0  0  0  0
   25.8285  -19.9619  -13.0341 C   0  0  0  0  0  0  0  0  0  0  0  0
   25.3156  -18.8519  -12.6328 O   0  0  0  0  0  0  0  0  0  0  0  0
   25.1770  -21.1389  -12.6004 N   0  0  0  0  0  0  0  0  0  0  0  0
   25.7653  -22.4796  -12.8021 C   0  0  0  0  0  0  0  0  0  0  0  0
   24.5494  -23.2541  -13.2619 C   0  0  0  0  0  0  0  0  0  0  0  0
   23.3803  -22.6168  -12.5915 C   0  0  0  0  0  0  0  0  0  0  0  0
   23.9540  -21.4032  -11.8930 C   0  0  1  0  0  0  0  0  0  0  0  0
   24.2202  -21.8338  -10.4644 C   0  0  0  0  0  0  0  0  0  0  0  0
   25.3527  -22.2747  -10.1360 O   0  0  0  0  0  0  0  0  0  0  0  0
   23.2706  -21.7727   -9.4711 O   0  0  0  0  0  0  0  0  0  0  0  0
  2 10  1  0
  2  1  1  6
  3  2  1  0
  4  3  1  0
  4  9  1  0
  5  4  2  0
  6  5  1  0
  6  7  2  0
  7  8  1  0
  8  9  2  0
 10 11  2  0
 13 14  1  1
 13 12  1  0
 15 13  1  0
 16 15  1  1
 17 16  1  0
 17 10  1  0
 18 19  2  0
 18 16  1  0
 20 18  1  0
 21 20  1  0
 22 21  1  0
 23 22  1  0
 23 24  1  0
 24 25  1  1
 24 20  1  0
 25 27  1  0
 26 25  2  0
M  END
$$$$
