FLP.pdb
     RDKit          3D

 27 28  0  0  1  0  0  0  0  0999 V2000
   28.1320  -18.3403  -16.8681 N   0  0  0  0  0  0  0  0  0  0  0  0
   27.3421  -18.0013  -15.7252 C   0  0  1  0  0  0  0  0  0  0  0  0
   26.2024  -17.1075  -16.1668 C   0  0  0  0  0  0  0  0  0  0  0  0
   26.7789  -15.7493  -16.3732 C   0  0  0  0  0  0  0  0  0  0  0  0
   26.8058  -15.2207  -17.6337 C   0  0  0  0  0  0  0  0  0  0  0  0
   27.3532  -13.9470  -17.7867 C   0  0  0  0  0  0  0  0  0  0  0  0
   27.8403  -13.2730  -16.6875 C   0  0  0  0  0  0  0  0  0  0  0  0
   27.8037  -13.8243  -15.4230 C   0  0  0  0  0  0  0  0  0  0  0  0
   27.2642  -15.0850  -15.2583 C   0  0  0  0  0  0  0  0  0  0  0  0
   26.8602  -19.2135  -15.0130 C   0  0  0  0  0  0  0  0  0  0  0  0
   26.4932  -20.1767  -15.6894 O   0  0  0  0  0  0  0  0  0  0  0  0
   24.1459  -20.8503  -10.7227 C   0  0  0  0  0  0  0  0  0  0  0  0
   25.6294  -21.2939  -10.6095 C   0  0  2  0  0  0  0  0  0  0  0  0
   25.9644  -21.4413   -9.1609 C   0  0  0  0  0  0  0  0  0  0  0  0
   26.4752  -20.3506  -11.3951 C   0  0  0  0  0  0  0  0  0  0  0  0
   26.1366  -20.3140  -12.8536 C   0  0  2  0  0  0  0  0  0  0  0  0
   26.8118  -19.2912  -13.5955 N   0  0  0  0  0  0  0  0  0  0  0  0
   24.7086  -20.2765  -13.1685 C   0  0  0  0  0  0  0  0  0  0  0  0
   24.1662  -19.1095  -13.1716 O   0  0  0  0  0  0  0  0  0  0  0  0
   23.8523  -21.3594  -13.4719 N   0  0  0  0  0  0  0  0  0  0  0  0
   24.2220  -22.7584  -13.1717 C   0  0  0  0  0  0  0  0  0  0  0  0
   23.7852  -23.4448  -14.4475 C   0  0  0  0  0  0  0  0  0  0  0  0
   22.6228  -22.6622  -14.9564 C   0  0  0  0  0  0  0  0  0  0  0  0
   22.5339  -21.4655  -14.0345 C   0  0  1  0  0  0  0  0  0  0  0  0
   21.5073  -21.8291  -12.9803 C   0  0  0  0  0  0  0  0  0  0  0  0
   21.8734  -22.3358  -11.8876 O   0  0  0  0  0  0  0  0  0  0  0  0
   20.1559  -21.6355  -13.1482 O   0  0  0  0  0  0  0  0  0  0  0  0
  2 10  1  0
  2  1  1  6
  3  2  1  0
  4  3  1  0
  4  9  1  0
  5  4  2  0
  6  5  1  0
  6  7  2  0
  7  8  1  0
  8  9  2  0
 10 11  2  0
 13 14  1  1
 13 12  1  0
 15 13  1  0
 16 15  1  1
 17 16  1  0
 17 10  1  0
 18 19  2  0
 18 16  1  0
 20 18  1  0
 21 20  1  0
 22 21  1  0
 23 22  1  0
 23 24  1  0
 24 25  1  1
 24 20  1  0
 25 27  1  0
 26 25  2  0
M  END
$$$$
