FLP.pdb
     RDKit          3D

 27 28  0  0  1  0  0  0  0  0999 V2000
   23.6685  -10.3398  -18.1321 N   0  0  0  0  0  0  0  0  0  0  0  0
   23.2553   -9.8437  -16.8561 C   0  0  1  0  0  0  0  0  0  0  0  0
   24.2026   -8.7418  -16.4303 C   0  0  0  0  0  0  0  0  0  0  0  0
   25.5125   -9.3908  -16.1425 C   0  0  0  0  0  0  0  0  0  0  0  0
   25.6062  -10.2707  -15.1005 C   0  0  0  0  0  0  0  0  0  0  0  0
   26.8488  -10.8577  -14.8626 C   0  0  0  0  0  0  0  0  0  0  0  0
   27.9224  -10.5409  -15.6668 C   0  0  0  0  0  0  0  0  0  0  0  0
   27.8070   -9.6499  -16.7141 C   0  0  0  0  0  0  0  0  0  0  0  0
   26.5817   -9.0618  -16.9600 C   0  0  0  0  0  0  0  0  0  0  0  0
   21.8403   -9.3896  -16.8766 C   0  0  0  0  0  0  0  0  0  0  0  0
   21.4618   -8.7126  -17.8349 O   0  0  0  0  0  0  0  0  0  0  0  0
   17.8197  -11.3882  -17.0806 C   0  0  0  0  0  0  0  0  0  0  0  0
   18.4942  -11.5777  -15.6952 C   0  0  2  0  0  0  0  0  0  0  0  0
   17.7161  -12.5995  -14.9318 C   0  0  0  0  0  0  0  0  0  0  0  0
   18.6518  -10.2430  -15.0499 C   0  0  0  0  0  0  0  0  0  0  0  0
   19.5497   -9.3133  -15.8067 C   0  0  2  0  0  0  0  0  0  0  0  0
   20.9260   -9.7096  -15.8376 N   0  0  0  0  0  0  0  0  0  0  0  0
   19.4612   -7.9034  -15.4271 C   0  0  0  0  0  0  0  0  0  0  0  0
   20.3904   -7.4740  -14.6470 O   0  0  0  0  0  0  0  0  0  0  0  0
   18.4864   -6.9548  -15.8115 N   0  0  0  0  0  0  0  0  0  0  0  0
   17.3623   -7.3047  -16.7048 C   0  0  0  0  0  0  0  0  0  0  0  0
   17.3505   -6.1041  -17.6256 C   0  0  0  0  0  0  0  0  0  0  0  0
   17.8352   -4.9559  -16.8077 C   0  0  0  0  0  0  0  0  0  0  0  0
   18.2533   -5.5732  -15.4910 C   0  0  1  0  0  0  0  0  0  0  0  0
   17.0674   -5.4106  -14.5612 C   0  0  0  0  0  0  0  0  0  0  0  0
   16.2587   -6.3607  -14.3938 O   0  0  0  0  0  0  0  0  0  0  0  0
   16.8094   -4.2517  -13.8668 O   0  0  0  0  0  0  0  0  0  0  0  0
  2 10  1  0
  2  1  1  6
  3  2  1  0
  4  3  1  0
  4  9  1  0
  5  4  2  0
  6  5  1  0
  6  7  2  0
  7  8  1  0
  8  9  2  0
 10 11  2  0
 13 14  1  1
 13 12  1  0
 15 13  1  0
 16 15  1  1
 17 16  1  0
 17 10  1  0
 18 19  2  0
 18 16  1  0
 20 18  1  0
 21 20  1  0
 22 21  1  0
 23 22  1  0
 23 24  1  0
 24 25  1  1
 24 20  1  0
 25 27  1  0
 26 25  2  0
M  END
$$$$
