FLP.pdb
     RDKit          3D

 27 28  0  0  1  0  0  0  0  0999 V2000
   25.6902  -21.1699  -11.8373 N   0  0  0  0  0  0  0  0  0  0  0  0
   25.2226  -20.5397  -10.6418 C   0  0  1  0  0  0  0  0  0  0  0  0
   23.7825  -20.9447  -10.4073 C   0  0  0  0  0  0  0  0  0  0  0  0
   22.9769  -20.3041  -11.4845 C   0  0  0  0  0  0  0  0  0  0  0  0
   22.6889  -21.0163  -12.6153 C   0  0  0  0  0  0  0  0  0  0  0  0
   21.9327  -20.3825  -13.6009 C   0  0  0  0  0  0  0  0  0  0  0  0
   21.5069  -19.0854  -13.4109 C   0  0  0  0  0  0  0  0  0  0  0  0
   21.8083  -18.3834  -12.2618 C   0  0  0  0  0  0  0  0  0  0  0  0
   22.5566  -19.0000  -11.2782 C   0  0  0  0  0  0  0  0  0  0  0  0
   26.0910  -20.8585   -9.4785 C   0  0  0  0  0  0  0  0  0  0  0  0
   26.3081  -22.0451   -9.2240 O   0  0  0  0  0  0  0  0  0  0  0  0
   29.1248  -17.6193   -5.2780 C   0  0  0  0  0  0  0  0  0  0  0  0
   29.0241  -19.0672   -5.8290 C   0  0  2  0  0  0  0  0  0  0  0  0
   30.3527  -19.7279   -5.6538 C   0  0  0  0  0  0  0  0  0  0  0  0
   28.4839  -19.0175   -7.2176 C   0  0  0  0  0  0  0  0  0  0  0  0
   27.4821  -20.0917   -7.5102 C   0  0  2  0  0  0  0  0  0  0  0  0
   26.6688  -19.8483   -8.6641 N   0  0  0  0  0  0  0  0  0  0  0  0
   26.6261  -20.4778   -6.3885 C   0  0  0  0  0  0  0  0  0  0  0  0
   25.4388  -19.9812   -6.3932 O   0  0  0  0  0  0  0  0  0  0  0  0
   26.9383  -21.3286   -5.3038 N   0  0  0  0  0  0  0  0  0  0  0  0
   28.3013  -21.8591   -5.0915 C   0  0  0  0  0  0  0  0  0  0  0  0
   27.9918  -23.2991   -4.7450 C   0  0  0  0  0  0  0  0  0  0  0  0
   26.6628  -23.2814   -4.0698 C   0  0  0  0  0  0  0  0  0  0  0  0
   26.1899  -21.8492   -4.1926 C   0  0  1  0  0  0  0  0  0  0  0  0
   26.5787  -21.1710   -2.8941 C   0  0  0  0  0  0  0  0  0  0  0  0
   27.6235  -20.4716   -2.8326 O   0  0  0  0  0  0  0  0  0  0  0  0
   25.8382  -21.2761   -1.7396 O   0  0  0  0  0  0  0  0  0  0  0  0
  2 10  1  0
  2  1  1  6
  3  2  1  0
  4  3  1  0
  4  9  1  0
  5  4  2  0
  6  5  1  0
  6  7  2  0
  7  8  1  0
  8  9  2  0
 10 11  2  0
 13 14  1  6
 13 12  1  0
 15 13  1  0
 16 15  1  1
 17 16  1  0
 17 10  1  0
 18 19  2  0
 18 16  1  0
 20 18  1  0
 21 20  1  0
 22 21  1  0
 23 22  1  0
 23 24  1  0
 24 25  1  1
 24 20  1  0
 25 27  1  0
 26 25  2  0
M  END
$$$$
