FLP.pdb
     RDKit          3D

 27 28  0  0  1  0  0  0  0  0999 V2000
   26.2002  -21.2346  -12.4001 N   0  0  0  0  0  0  0  0  0  0  0  0
   25.6757  -20.5156  -11.2808 C   0  0  1  0  0  0  0  0  0  0  0  0
   24.1735  -20.4016  -11.4340 C   0  0  0  0  0  0  0  0  0  0  0  0
   23.9268  -19.7080  -12.7293 C   0  0  0  0  0  0  0  0  0  0  0  0
   24.2591  -18.3877  -12.8528 C   0  0  0  0  0  0  0  0  0  0  0  0
   24.0131  -17.7733  -14.0804 C   0  0  0  0  0  0  0  0  0  0  0  0
   23.4545  -18.4987  -15.1108 C   0  0  0  0  0  0  0  0  0  0  0  0
   23.1261  -19.8311  -14.9659 C   0  0  0  0  0  0  0  0  0  0  0  0
   23.3648  -20.4510  -13.7550 C   0  0  0  0  0  0  0  0  0  0  0  0
   26.0611  -21.1493   -9.9929 C   0  0  0  0  0  0  0  0  0  0  0  0
   25.8279  -22.3507   -9.8443 O   0  0  0  0  0  0  0  0  0  0  0  0
   27.6152  -17.9278   -7.3816 C   0  0  0  0  0  0  0  0  0  0  0  0
   27.8028  -19.0081   -6.2826 C   0  0  2  0  0  0  0  0  0  0  0  0
   28.8076  -18.5044   -5.2982 C   0  0  0  0  0  0  0  0  0  0  0  0
   28.1084  -20.3124   -6.9367 C   0  0  0  0  0  0  0  0  0  0  0  0
   26.9305  -20.9270   -7.6281 C   0  0  2  0  0  0  0  0  0  0  0  0
   26.6817  -20.4192   -8.9443 N   0  0  0  0  0  0  0  0  0  0  0  0
   25.6818  -20.9270   -6.8662 C   0  0  0  0  0  0  0  0  0  0  0  0
   24.7748  -20.1117   -7.2773 O   0  0  0  0  0  0  0  0  0  0  0  0
   25.3463  -21.7108   -5.7388 N   0  0  0  0  0  0  0  0  0  0  0  0
   26.3777  -22.3022   -4.8609 C   0  0  0  0  0  0  0  0  0  0  0  0
   25.8135  -23.6918   -4.6606 C   0  0  0  0  0  0  0  0  0  0  0  0
   24.3316  -23.5465   -4.7323 C   0  0  0  0  0  0  0  0  0  0  0  0
   24.1070  -22.1025   -5.1251 C   0  0  1  0  0  0  0  0  0  0  0  0
   23.8666  -21.3527   -3.8300 C   0  0  0  0  0  0  0  0  0  0  0  0
   24.7961  -20.6892   -3.3001 O   0  0  0  0  0  0  0  0  0  0  0  0
   22.6575  -21.3524   -3.1743 O   0  0  0  0  0  0  0  0  0  0  0  0
  2 10  1  0
  2  1  1  6
  3  2  1  0
  4  3  1  0
  4  9  1  0
  5  4  2  0
  6  5  1  0
  6  7  2  0
  7  8  1  0
  8  9  2  0
 10 11  2  0
 13 14  1  1
 13 12  1  0
 15 13  1  0
 16 15  1  1
 17 16  1  0
 17 10  1  0
 18 19  2  0
 18 16  1  0
 20 18  1  0
 21 20  1  0
 22 21  1  0
 23 22  1  0
 23 24  1  0
 24 25  1  1
 24 20  1  0
 25 27  1  0
 26 25  2  0
M  END
$$$$
