FLP.pdb
     RDKit          3D

 27 28  0  0  1  0  0  0  0  0999 V2000
   20.2087  -20.2336  -13.5220 N   0  0  0  0  0  0  0  0  0  0  0  0
   21.1694  -20.4493  -14.5591 C   0  0  1  0  0  0  0  0  0  0  0  0
   20.6714  -19.7939  -15.8301 C   0  0  0  0  0  0  0  0  0  0  0  0
   19.5382  -20.6252  -16.3248 C   0  0  0  0  0  0  0  0  0  0  0  0
   19.7748  -21.9170  -16.7046 C   0  0  0  0  0  0  0  0  0  0  0  0
   18.6890  -22.6632  -17.1621 C   0  0  0  0  0  0  0  0  0  0  0  0
   17.4367  -22.0898  -17.2168 C   0  0  0  0  0  0  0  0  0  0  0  0
   17.2188  -20.7837  -16.8286 C   0  0  0  0  0  0  0  0  0  0  0  0
   18.2860  -20.0342  -16.3737 C   0  0  0  0  0  0  0  0  0  0  0  0
   22.5174  -19.9611  -14.1678 C   0  0  0  0  0  0  0  0  0  0  0  0
   22.6691  -18.7495  -13.9974 O   0  0  0  0  0  0  0  0  0  0  0  0
   25.0075  -19.7092  -10.9600 C   0  0  0  0  0  0  0  0  0  0  0  0
   25.1152  -21.1775  -11.4526 C   0  0  2  0  0  0  0  0  0  0  0  0
   25.7930  -21.9792  -10.3893 C   0  0  0  0  0  0  0  0  0  0  0  0
   25.7516  -21.1877  -12.8006 C   0  0  0  0  0  0  0  0  0  0  0  0
   24.9815  -20.4237  -13.8332 C   0  0  2  0  0  0  0  0  0  0  0  0
   23.6192  -20.8393  -13.9874 N   0  0  0  0  0  0  0  0  0  0  0  0
   25.6111  -20.3335  -15.1505 C   0  0  0  0  0  0  0  0  0  0  0  0
   24.9919  -20.9282  -16.1092 O   0  0  0  0  0  0  0  0  0  0  0  0
   26.8108  -19.6738  -15.5019 N   0  0  0  0  0  0  0  0  0  0  0  0
   27.7102  -19.0894  -14.4853 C   0  0  0  0  0  0  0  0  0  0  0  0
   28.0454  -17.7643  -15.1345 C   0  0  0  0  0  0  0  0  0  0  0  0
   27.9992  -18.0055  -16.6050 C   0  0  0  0  0  0  0  0  0  0  0  0
   27.4879  -19.4228  -16.7447 C   0  0  1  0  0  0  0  0  0  0  0  0
   28.7184  -20.2952  -16.8934 C   0  0  0  0  0  0  0  0  0  0  0  0
   29.1134  -21.0030  -15.9302 O   0  0  0  0  0  0  0  0  0  0  0  0
   29.4563  -20.3636  -18.0522 O   0  0  0  0  0  0  0  0  0  0  0  0
  2 10  1  0
  2  1  1  1
  3  2  1  0
  4  3  1  0
  4  9  1  0
  5  4  2  0
  6  5  1  0
  6  7  2  0
  7  8  1  0
  8  9  2  0
 10 11  2  0
 13 14  1  1
 13 12  1  0
 15 13  1  0
 16 15  1  1
 17 16  1  0
 17 10  1  0
 18 19  2  0
 18 16  1  0
 20 18  1  0
 21 20  1  0
 22 21  1  0
 23 22  1  0
 23 24  1  0
 24 25  1  1
 24 20  1  0
 25 27  1  0
 26 25  2  0
M  END
$$$$
