FLP.pdb
     RDKit          3D

 27 28  0  0  1  0  0  0  0  0999 V2000
   26.3399  -19.0407  -14.6315 N   0  0  0  0  0  0  0  0  0  0  0  0
   25.3564  -19.2995  -13.6261 C   0  0  1  0  0  0  0  0  0  0  0  0
   24.2062  -20.0597  -14.2523 C   0  0  0  0  0  0  0  0  0  0  0  0
   23.5335  -19.1201  -15.1926 C   0  0  0  0  0  0  0  0  0  0  0  0
   23.6642  -19.3165  -16.5391 C   0  0  0  0  0  0  0  0  0  0  0  0
   23.0199  -18.4160  -17.3872 C   0  0  0  0  0  0  0  0  0  0  0  0
   22.2863  -17.3773  -16.8553 C   0  0  0  0  0  0  0  0  0  0  0  0
   22.1667  -17.1964  -15.4925 C   0  0  0  0  0  0  0  0  0  0  0  0
   22.8000  -18.0814  -14.6421 C   0  0  0  0  0  0  0  0  0  0  0  0
   25.9377  -20.0201  -12.4635 C   0  0  0  0  0  0  0  0  0  0  0  0
   26.5442  -21.0722  -12.6767 O   0  0  0  0  0  0  0  0  0  0  0  0
   28.7287  -19.9356   -8.7180 C   0  0  0  0  0  0  0  0  0  0  0  0
   27.5983  -18.8729   -8.7716 C   0  0  2  0  0  0  0  0  0  0  0  0
   27.8628  -17.8546   -7.7107 C   0  0  0  0  0  0  0  0  0  0  0  0
   26.2808  -19.5680   -8.7127 C   0  0  0  0  0  0  0  0  0  0  0  0
   25.9535  -20.3389   -9.9544 C   0  0  2  0  0  0  0  0  0  0  0  0
   25.8154  -19.5369  -11.1334 N   0  0  0  0  0  0  0  0  0  0  0  0
   24.8104  -21.2458   -9.8504 C   0  0  0  0  0  0  0  0  0  0  0  0
   23.6788  -20.7668  -10.2326 O   0  0  0  0  0  0  0  0  0  0  0  0
   24.7940  -22.5807   -9.3860 N   0  0  0  0  0  0  0  0  0  0  0  0
   26.0077  -23.2441   -8.8655 C   0  0  0  0  0  0  0  0  0  0  0  0
   25.8932  -24.5999   -9.5275 C   0  0  0  0  0  0  0  0  0  0  0  0
   24.4330  -24.8605   -9.6773 C   0  0  0  0  0  0  0  0  0  0  0  0
   23.7674  -23.5754   -9.2354 C   0  0  1  0  0  0  0  0  0  0  0  0
   23.3993  -23.7782   -7.7791 C   0  0  0  0  0  0  0  0  0  0  0  0
   22.3581  -24.4155   -7.4716 O   0  0  0  0  0  0  0  0  0  0  0  0
   24.1552  -23.2926   -6.7376 O   0  0  0  0  0  0  0  0  0  0  0  0
  2 10  1  0
  2  1  1  6
  3  2  1  0
  4  3  1  0
  4  9  1  0
  5  4  2  0
  6  5  1  0
  6  7  2  0
  7  8  1  0
  8  9  2  0
 10 11  2  0
 13 14  1  1
 13 12  1  0
 15 13  1  0
 16 15  1  1
 17 16  1  0
 17 10  1  0
 18 19  2  0
 18 16  1  0
 20 18  1  0
 21 20  1  0
 22 21  1  0
 23 22  1  0
 23 24  1  0
 24 25  1  1
 24 20  1  0
 25 27  1  0
 26 25  2  0
M  END
$$$$
