FLP.pdb
     RDKit          3D

 27 28  0  0  1  0  0  0  0  0999 V2000
   22.9752  -19.2056  -10.2077 N   0  0  0  0  0  0  0  0  0  0  0  0
   23.8962  -20.2696   -9.9535 C   0  0  1  0  0  0  0  0  0  0  0  0
   23.7953  -21.2814  -11.0756 C   0  0  0  0  0  0  0  0  0  0  0  0
   22.4087  -21.8253  -11.0381 C   0  0  0  0  0  0  0  0  0  0  0  0
   21.5706  -21.4458  -10.0269 C   0  0  0  0  0  0  0  0  0  0  0  0
   20.2807  -21.9761  -10.0259 C   0  0  0  0  0  0  0  0  0  0  0  0
   19.8965  -22.8480  -11.0220 C   0  0  0  0  0  0  0  0  0  0  0  0
   20.7580  -23.2186  -12.0343 C   0  0  0  0  0  0  0  0  0  0  0  0
   22.0382  -22.7003  -12.0464 C   0  0  0  0  0  0  0  0  0  0  0  0
   25.2827  -19.7641   -9.7777 C   0  0  0  0  0  0  0  0  0  0  0  0
   25.7472  -19.0278  -10.6507 O   0  0  0  0  0  0  0  0  0  0  0  0
   26.2351  -20.2747   -5.6693 C   0  0  0  0  0  0  0  0  0  0  0  0
   27.7159  -20.4081   -6.1159 C   0  0  2  0  0  0  0  0  0  0  0  0
   28.5827  -20.2835   -4.9053 C   0  0  0  0  0  0  0  0  0  0  0  0
   27.9744  -19.4418   -7.2214 C   0  0  0  0  0  0  0  0  0  0  0  0
   27.4931  -19.9168   -8.5577 C   0  0  2  0  0  0  0  0  0  0  0  0
   26.0753  -20.1012   -8.6482 N   0  0  0  0  0  0  0  0  0  0  0  0
   28.1691  -21.1013   -9.0867 C   0  0  0  0  0  0  0  0  0  0  0  0
   27.5423  -22.2158   -8.9408 O   0  0  0  0  0  0  0  0  0  0  0  0
   29.4208  -21.1744   -9.7391 N   0  0  0  0  0  0  0  0  0  0  0  0
   30.4995  -20.1990   -9.4760 C   0  0  0  0  0  0  0  0  0  0  0  0
   30.9833  -19.9280  -10.8838 C   0  0  0  0  0  0  0  0  0  0  0  0
   30.7543  -21.1890  -11.6454 C   0  0  0  0  0  0  0  0  0  0  0  0
   30.0051  -22.0861  -10.6844 C   0  0  1  0  0  0  0  0  0  0  0  0
   31.0543  -22.9650  -10.0334 C   0  0  0  0  0  0  0  0  0  0  0  0
   31.4059  -22.7560   -8.8428 O   0  0  0  0  0  0  0  0  0  0  0  0
   31.6682  -24.0104  -10.6832 O   0  0  0  0  0  0  0  0  0  0  0  0
  2 10  1  0
  2  1  1  6
  3  2  1  0
  4  3  1  0
  4  9  1  0
  5  4  2  0
  6  5  1  0
  6  7  2  0
  7  8  1  0
  8  9  2  0
 10 11  2  0
 13 14  1  1
 13 12  1  0
 15 13  1  0
 16 15  1  1
 17 16  1  0
 17 10  1  0
 18 19  2  0
 18 16  1  0
 20 18  1  0
 21 20  1  0
 22 21  1  0
 23 22  1  0
 23 24  1  0
 24 25  1  1
 24 20  1  0
 25 27  1  0
 26 25  2  0
M  END
$$$$
