FLP.pdb
     RDKit          3D

 27 28  0  0  1  0  0  0  0  0999 V2000
   21.6669  -20.7225  -16.9712 N   0  0  0  0  0  0  0  0  0  0  0  0
   22.0033  -19.7892  -15.9412 C   0  0  1  0  0  0  0  0  0  0  0  0
   20.8181  -19.6410  -15.0103 C   0  0  0  0  0  0  0  0  0  0  0  0
   19.7782  -18.8808  -15.7589 C   0  0  0  0  0  0  0  0  0  0  0  0
   19.9227  -17.5305  -15.9158 C   0  0  0  0  0  0  0  0  0  0  0  0
   18.9287  -16.8539  -16.6224 C   0  0  0  0  0  0  0  0  0  0  0  0
   17.8534  -17.5504  -17.1308 C   0  0  0  0  0  0  0  0  0  0  0  0
   17.7260  -18.9139  -16.9615 C   0  0  0  0  0  0  0  0  0  0  0  0
   18.7038  -19.5955  -16.2636 C   0  0  0  0  0  0  0  0  0  0  0  0
   23.2372  -20.1925  -15.2177 C   0  0  0  0  0  0  0  0  0  0  0  0
   23.3193  -21.3541  -14.8128 O   0  0  0  0  0  0  0  0  0  0  0  0
   27.7291  -20.0431  -15.9525 C   0  0  0  0  0  0  0  0  0  0  0  0
   27.1488  -18.6308  -15.6718 C   0  0  2  0  0  0  0  0  0  0  0  0
   28.2102  -17.6216  -15.9672 C   0  0  0  0  0  0  0  0  0  0  0  0
   26.5762  -18.6104  -14.2955 C   0  0  0  0  0  0  0  0  0  0  0  0
   25.4183  -19.5428  -14.1138 C   0  0  2  0  0  0  0  0  0  0  0  0
   24.3085  -19.2896  -14.9837 N   0  0  0  0  0  0  0  0  0  0  0  0
   24.9334  -19.6858  -12.7411 C   0  0  0  0  0  0  0  0  0  0  0  0
   23.8049  -19.1229  -12.4843 O   0  0  0  0  0  0  0  0  0  0  0  0
   25.5467  -20.3659  -11.6645 N   0  0  0  0  0  0  0  0  0  0  0  0
   26.8678  -21.0147  -11.7984 C   0  0  0  0  0  0  0  0  0  0  0  0
   26.6126  -22.3229  -11.0822 C   0  0  0  0  0  0  0  0  0  0  0  0
   25.5959  -22.0242  -10.0336 C   0  0  0  0  0  0  0  0  0  0  0  0
   25.1924  -20.5884  -10.2893 C   0  0  1  0  0  0  0  0  0  0  0  0
   26.0379  -19.7468   -9.3543 C   0  0  0  0  0  0  0  0  0  0  0  0
   27.0932  -19.2020   -9.7719 O   0  0  0  0  0  0  0  0  0  0  0  0
   25.7152  -19.5349   -8.0341 O   0  0  0  0  0  0  0  0  0  0  0  0
  2 10  1  0
  2  1  1  6
  3  2  1  0
  4  3  1  0
  4  9  1  0
  5  4  2  0
  6  5  1  0
  6  7  2  0
  7  8  1  0
  8  9  2  0
 10 11  2  0
 13 14  1  1
 13 12  1  0
 15 13  1  0
 16 15  1  1
 17 16  1  0
 17 10  1  0
 18 19  2  0
 18 16  1  0
 20 18  1  0
 21 20  1  0
 22 21  1  0
 23 22  1  0
 23 24  1  0
 24 25  1  1
 24 20  1  0
 25 27  1  0
 26 25  2  0
M  END
$$$$
