FLP.pdb
     RDKit          3D

 27 28  0  0  1  0  0  0  0  0999 V2000
   25.6689  -22.1659  -11.9804 N   0  0  0  0  0  0  0  0  0  0  0  0
   25.8096  -21.0145  -11.1440 C   0  0  1  0  0  0  0  0  0  0  0  0
   24.4329  -20.4671  -10.8309 C   0  0  0  0  0  0  0  0  0  0  0  0
   23.8872  -19.9256  -12.1072 C   0  0  0  0  0  0  0  0  0  0  0  0
   24.6689  -19.1052  -12.8719 C   0  0  0  0  0  0  0  0  0  0  0  0
   24.1230  -18.6185  -14.0595 C   0  0  0  0  0  0  0  0  0  0  0  0
   22.8400  -18.9705  -14.4198 C   0  0  0  0  0  0  0  0  0  0  0  0
   22.0670  -19.8003  -13.6335 C   0  0  0  0  0  0  0  0  0  0  0  0
   22.5962  -20.2890  -12.4550 C   0  0  0  0  0  0  0  0  0  0  0  0
   26.5835  -21.3226   -9.9131 C   0  0  0  0  0  0  0  0  0  0  0  0
   26.0512  -22.0291   -9.0543 O   0  0  0  0  0  0  0  0  0  0  0  0
   30.6611  -23.1764   -9.0710 C   0  0  0  0  0  0  0  0  0  0  0  0
   30.7474  -21.7292   -9.6263 C   0  0  2  0  0  0  0  0  0  0  0  0
   32.1683  -21.4546   -9.9978 C   0  0  0  0  0  0  0  0  0  0  0  0
   30.1253  -20.7980   -8.6423 C   0  0  0  0  0  0  0  0  0  0  0  0
   28.6473  -20.9864   -8.4900 C   0  0  2  0  0  0  0  0  0  0  0  0
   27.9000  -20.8325   -9.7025 N   0  0  0  0  0  0  0  0  0  0  0  0
   28.0172  -20.1983   -7.4308 C   0  0  0  0  0  0  0  0  0  0  0  0
   27.0458  -19.4392   -7.8000 O   0  0  0  0  0  0  0  0  0  0  0  0
   28.3395  -20.1684   -6.0549 N   0  0  0  0  0  0  0  0  0  0  0  0
   29.4257  -20.9939   -5.4866 C   0  0  0  0  0  0  0  0  0  0  0  0
   28.7613  -21.5042   -4.2266 C   0  0  0  0  0  0  0  0  0  0  0  0
   27.8069  -20.4388   -3.8065 C   0  0  0  0  0  0  0  0  0  0  0  0
   27.8483  -19.4237   -4.9279 C   0  0  1  0  0  0  0  0  0  0  0  0
   28.8368  -18.3615   -4.4899 C   0  0  0  0  0  0  0  0  0  0  0  0
   28.4835  -17.4607   -3.6847 O   0  0  0  0  0  0  0  0  0  0  0  0
   30.1384  -18.3172   -4.9324 O   0  0  0  0  0  0  0  0  0  0  0  0
  2 10  1  0
  2  1  1  6
  3  2  1  0
  4  3  1  0
  4  9  1  0
  5  4  2  0
  6  5  1  0
  6  7  2  0
  7  8  1  0
  8  9  2  0
 10 11  2  0
 13 14  1  1
 13 12  1  0
 15 13  1  0
 16 15  1  6
 17 16  1  0
 17 10  1  0
 18 19  2  0
 18 16  1  0
 20 18  1  0
 21 20  1  0
 22 21  1  0
 23 22  1  0
 23 24  1  0
 24 25  1  1
 24 20  1  0
 25 27  1  0
 26 25  2  0
M  END
$$$$
