FLP.pdb
     RDKit          3D

 27 28  0  0  1  0  0  0  0  0999 V2000
   20.8052  -19.1154  -15.2634 N   0  0  0  0  0  0  0  0  0  0  0  0
   21.8005  -20.0765  -15.6250 C   0  0  1  0  0  0  0  0  0  0  0  0
   21.8701  -20.1630  -17.1352 C   0  0  0  0  0  0  0  0  0  0  0  0
   20.6143  -20.8272  -17.5842 C   0  0  0  0  0  0  0  0  0  0  0  0
   19.6838  -20.0991  -18.2720 C   0  0  0  0  0  0  0  0  0  0  0  0
   18.5215  -20.7558  -18.6754 C   0  0  0  0  0  0  0  0  0  0  0  0
   18.3481  -22.0899  -18.3758 C   0  0  0  0  0  0  0  0  0  0  0  0
   19.2997  -22.8074  -17.6803 C   0  0  0  0  0  0  0  0  0  0  0  0
   20.4553  -22.1684  -17.2752 C   0  0  0  0  0  0  0  0  0  0  0  0
   23.1194  -19.7536  -15.0207 C   0  0  0  0  0  0  0  0  0  0  0  0
   23.6056  -18.6435  -15.2474 O   0  0  0  0  0  0  0  0  0  0  0  0
   25.0580  -19.4378  -11.0602 C   0  0  0  0  0  0  0  0  0  0  0  0
   24.7821  -20.9279  -11.3972 C   0  0  2  0  0  0  0  0  0  0  0  0
   25.0069  -21.7365  -10.1611 C   0  0  0  0  0  0  0  0  0  0  0  0
   25.5843  -21.3071  -12.5952 C   0  0  0  0  0  0  0  0  0  0  0  0
   25.2038  -20.5563  -13.8340 C   0  0  2  0  0  0  0  0  0  0  0  0
   23.8242  -20.6753  -14.2014 N   0  0  0  0  0  0  0  0  0  0  0  0
   26.0399  -20.8106  -15.0070 C   0  0  0  0  0  0  0  0  0  0  0  0
   25.4975  -21.5116  -15.9401 O   0  0  0  0  0  0  0  0  0  0  0  0
   27.3654  -20.3812  -15.2446 N   0  0  0  0  0  0  0  0  0  0  0  0
   28.1760  -19.7253  -14.1972 C   0  0  0  0  0  0  0  0  0  0  0  0
   28.8043  -18.6006  -14.9909 C   0  0  0  0  0  0  0  0  0  0  0  0
   28.9488  -19.1130  -16.3834 C   0  0  0  0  0  0  0  0  0  0  0  0
   28.2558  -20.4581  -16.3703 C   0  0  1  0  0  0  0  0  0  0  0  0
   29.3476  -21.4853  -16.1464 C   0  0  0  0  0  0  0  0  0  0  0  0
   29.5243  -21.9833  -15.0038 O   0  0  0  0  0  0  0  0  0  0  0  0
   30.1864  -21.9213  -17.1455 O   0  0  0  0  0  0  0  0  0  0  0  0
  2 10  1  0
  2  1  1  6
  3  2  1  0
  4  3  1  0
  4  9  1  0
  5  4  2  0
  6  5  1  0
  6  7  2  0
  7  8  1  0
  8  9  2  0
 10 11  2  0
 13 14  1  1
 13 12  1  0
 15 13  1  0
 16 15  1  1
 17 16  1  0
 17 10  1  0
 18 19  2  0
 18 16  1  0
 20 18  1  0
 21 20  1  0
 22 21  1  0
 23 22  1  0
 23 24  1  0
 24 25  1  1
 24 20  1  0
 25 27  1  0
 26 25  2  0
M  END
$$$$
