DRV.pdb
     RDKit          3D

 27 26  0  0  1  0  0  0  0  0999 V2000
   11.5470  -16.8537   20.5643 N   0  0  0  0  0  0  0  0  0  0  0  0
   12.0789  -15.6441   21.1575 C   0  0  1  0  0  0  0  0  0  0  0  0
   12.7362  -14.8435   20.0753 C   0  0  0  0  0  0  0  0  0  0  0  0
   14.0098  -15.5007   19.7032 C   0  0  0  0  0  0  0  0  0  0  0  0
   14.1551  -15.9733   18.5575 O   0  0  0  0  0  0  0  0  0  0  0  0
   11.0166  -14.9383   21.8653 C   0  0  0  0  0  0  0  0  0  0  0  0
   11.3112  -13.9547   22.5872 O   0  0  0  0  0  0  0  0  0  0  0  0
   15.0685  -15.6145   20.5936 O   0  0  0  0  0  0  0  0  0  0  0  0
    7.5630  -14.9667   17.8634 N   0  0  0  0  0  0  0  0  0  0  0  0
    7.7102  -13.5694   17.7463 C   0  0  0  0  0  0  0  0  0  0  0  0
    8.2284  -13.0796   16.6606 N   0  0  0  0  0  0  0  0  0  0  0  0
    7.3225  -12.6506   18.7541 N   0  0  0  0  0  0  0  0  0  0  0  0
    7.4886  -12.9834   20.1669 C   0  0  0  0  0  0  0  0  0  0  0  0
    7.2493  -14.4537   20.4076 C   0  0  0  0  0  0  0  0  0  0  0  0
    7.2699  -14.7845   21.8675 C   0  0  0  0  0  0  0  0  0  0  0  0
    8.6111  -14.5414   22.5043 C   0  0  2  0  0  0  0  0  0  0  0  0
    9.6387  -15.2837   21.8016 N   0  0  0  0  0  0  0  0  0  0  0  0
    8.5944  -14.8708   23.9525 C   0  0  0  0  0  0  0  0  0  0  0  0
    9.0000  -16.0026   24.3822 O   0  0  0  0  0  0  0  0  0  0  0  0
    8.4097  -12.0634   16.5294 C   0  0  0  0  0  0  0  0  0  0  0  0
    6.0596  -12.7930   26.6683 C   0  0  1  0  0  0  0  0  0  0  0  0
    7.4826  -13.0239   27.0577 C   0  0  0  0  0  0  0  0  0  0  0  0
    8.3779  -11.8546   26.8501 C   0  0  1  0  0  0  0  0  0  0  0  0
    7.9615  -14.2719   26.3170 N   0  0  0  0  0  0  0  0  0  0  0  0
    8.1355  -13.9661   24.9330 C   0  0  0  0  0  0  0  0  0  0  0  0
    7.1253  -15.4412   26.5783 O   0  0  0  0  0  0  0  0  0  0  0  0
    6.1948  -15.7358   25.7883 O   0  0  0  0  0  0  0  0  0  0  0  0
  2  1  1  6
  2  3  1  0
  4  3  1  0
  4  5  2  0
  6  2  1  0
  7  6  2  0
  8  4  1  0
  9 10  1  0
 10 11  2  0
 10 12  1  0
 12 13  1  0
 13 14  1  0
 16 15  1  6
 15 14  1  0
 16 17  1  0
 17  6  1  0
 18 19  2  0
 18 16  1  0
 21 20  1  1
 21 23  1  0
 22 21  1  0
 23 24  1  6
 24 18  1  0
 25 23  1  0
 26 25  2  0
 27 25  1  0
M  END
$$$$
