DRV.pdb
     RDKit          3D

 27 26  0  0  1  0  0  0  0  0999 V2000
    8.5016  -15.8274   19.7933 N   0  0  0  0  0  0  0  0  0  0  0  0
    8.0840  -14.5352   20.2973 C   0  0  1  0  0  0  0  0  0  0  0  0
    7.0796  -13.9646   19.3434 C   0  0  0  0  0  0  0  0  0  0  0  0
    7.5967  -14.1103   17.9635 C   0  0  0  0  0  0  0  0  0  0  0  0
    8.5518  -14.8800   17.7346 O   0  0  0  0  0  0  0  0  0  0  0  0
    7.5992  -14.6772   21.6655 C   0  0  0  0  0  0  0  0  0  0  0  0
    7.1479  -13.6694   22.2623 O   0  0  0  0  0  0  0  0  0  0  0  0
    7.0519  -13.4126   16.8944 O   0  0  0  0  0  0  0  0  0  0  0  0
    6.7404  -20.4572   21.2112 N   0  0  0  0  0  0  0  0  0  0  0  0
    7.7457  -20.6627   22.1784 C   0  0  0  0  0  0  0  0  0  0  0  0
    8.8563  -21.2335   21.8208 N   0  0  0  0  0  0  0  0  0  0  0  0
    7.6192  -20.2798   23.5376 N   0  0  0  0  0  0  0  0  0  0  0  0
    6.3781  -19.6871   24.0303 C   0  0  0  0  0  0  0  0  0  0  0  0
    6.2663  -18.2416   23.6123 C   0  0  0  0  0  0  0  0  0  0  0  0
    7.3036  -17.3924   24.2788 C   0  0  0  0  0  0  0  0  0  0  0  0
    7.2803  -15.9632   23.8095 C   0  0  2  0  0  0  0  0  0  0  0  0
    7.5965  -15.8968   22.3967 N   0  0  0  0  0  0  0  0  0  0  0  0
    8.1933  -15.1109   24.6133 C   0  0  0  0  0  0  0  0  0  0  0  0
    8.6974  -14.0398   24.1347 O   0  0  0  0  0  0  0  0  0  0  0  0
    9.6368  -21.4164   22.4841 C   0  0  0  0  0  0  0  0  0  0  0  0
    7.3851  -12.9234   25.8888 C   0  0  1  0  0  0  0  0  0  0  0  0
    7.7802  -13.5191   27.1999 C   0  0  0  0  0  0  0  0  0  0  0  0
    8.0875  -12.5252   28.2628 C   0  0  2  0  0  0  0  0  0  0  0  0
    8.9414  -14.4764   26.9345 N   0  0  0  0  0  0  0  0  0  0  0  0
    8.5572  -15.4259   25.9395 C   0  0  0  0  0  0  0  0  0  0  0  0
    9.4803  -15.0658   28.1580 O   0  0  0  0  0  0  0  0  0  0  0  0
    8.8895  -16.0312   28.7019 O   0  0  0  0  0  0  0  0  0  0  0  0
  2  1  1  6
  2  3  1  0
  4  3  1  0
  4  5  2  0
  6  2  1  0
  7  6  2  0
  8  4  1  0
  9 10  1  0
 10 11  2  0
 10 12  1  0
 12 13  1  0
 13 14  1  0
 16 15  1  1
 15 14  1  0
 16 17  1  0
 17  6  1  0
 18 19  2  0
 18 16  1  0
 21 20  1  1
 21 23  1  0
 22 21  1  0
 23 24  1  6
 24 18  1  0
 25 23  1  0
 26 25  2  0
 27 25  1  0
M  END
$$$$
