DRV.pdb
     RDKit          3D

 27 26  0  0  1  0  0  0  0  0999 V2000
    9.2871  -15.4797   19.2371 N   0  0  0  0  0  0  0  0  0  0  0  0
    8.5308  -14.3438   19.7229 C   0  0  1  0  0  0  0  0  0  0  0  0
    7.5544  -13.9440   18.6594 C   0  0  0  0  0  0  0  0  0  0  0  0
    8.2678  -13.8606   17.3646 C   0  0  0  0  0  0  0  0  0  0  0  0
    9.4661  -14.2008   17.2909 O   0  0  0  0  0  0  0  0  0  0  0  0
    7.9195  -14.6753   21.0050 C   0  0  0  0  0  0  0  0  0  0  0  0
    7.0430  -13.9129   21.4801 O   0  0  0  0  0  0  0  0  0  0  0  0
    7.6463  -13.4110   16.2078 O   0  0  0  0  0  0  0  0  0  0  0  0
    7.7663  -21.9712   26.3883 N   0  0  0  0  0  0  0  0  0  0  0  0
    7.1158  -20.9040   27.0411 C   0  0  0  0  0  0  0  0  0  0  0  0
    6.5418  -21.1221   28.1857 N   0  0  0  0  0  0  0  0  0  0  0  0
    7.0475  -19.5875   26.5193 N   0  0  0  0  0  0  0  0  0  0  0  0
    7.6066  -19.2789   25.2054 C   0  0  0  0  0  0  0  0  0  0  0  0
    7.3573  -17.8370   24.8370 C   0  0  0  0  0  0  0  0  0  0  0  0
    7.9048  -17.5108   23.4824 C   0  0  0  0  0  0  0  0  0  0  0  0
    7.6593  -16.0821   23.0800 C   0  0  2  0  0  0  0  0  0  0  0  0
    8.2451  -15.8223   21.7801 N   0  0  0  0  0  0  0  0  0  0  0  0
    8.1639  -15.1330   24.1051 C   0  0  0  0  0  0  0  0  0  0  0  0
    9.4045  -15.0702   24.4005 O   0  0  0  0  0  0  0  0  0  0  0  0
    6.0348  -20.3826   28.7137 C   0  0  0  0  0  0  0  0  0  0  0  0
    7.1812  -11.1883   26.8522 C   0  0  1  0  0  0  0  0  0  0  0  0
    6.6018  -12.3365   26.0932 C   0  0  0  0  0  0  0  0  0  0  0  0
    5.4509  -13.0010   26.7609 C   0  0  2  0  0  0  0  0  0  0  0  0
    7.7445  -13.3038   25.7869 N   0  0  0  0  0  0  0  0  0  0  0  0
    7.3160  -14.2517   24.8086 C   0  0  0  0  0  0  0  0  0  0  0  0
    8.3233  -13.8956   26.9908 O   0  0  0  0  0  0  0  0  0  0  0  0
    8.9749  -13.1795   27.7904 O   0  0  0  0  0  0  0  0  0  0  0  0
  2  1  1  6
  2  3  1  0
  4  3  1  0
  4  5  2  0
  6  2  1  0
  7  6  2  0
  8  4  1  0
  9 10  1  0
 10 11  2  0
 10 12  1  0
 12 13  1  0
 13 14  1  0
 16 15  1  1
 15 14  1  0
 16 17  1  0
 17  6  1  0
 18 19  2  0
 18 16  1  0
 21 20  1  6
 21 23  1  0
 22 21  1  0
 23 24  1  1
 24 18  1  0
 25 23  1  0
 26 25  2  0
 27 25  1  0
M  END
$$$$
