DRV.pdb
     RDKit          3D

 27 26  0  0  1  0  0  0  0  0999 V2000
   14.0836  -17.5386   20.8347 N   0  0  0  0  0  0  0  0  0  0  0  0
   13.6127  -18.0353   22.1113 C   0  0  1  0  0  0  0  0  0  0  0  0
   14.8068  -18.3289   22.9670 C   0  0  0  0  0  0  0  0  0  0  0  0
   15.3234  -19.6723   22.6193 C   0  0  0  0  0  0  0  0  0  0  0  0
   14.7824  -20.3306   21.7077 O   0  0  0  0  0  0  0  0  0  0  0  0
   12.6777  -17.0791   22.6935 C   0  0  0  0  0  0  0  0  0  0  0  0
   13.0863  -15.9324   22.9992 O   0  0  0  0  0  0  0  0  0  0  0  0
   16.4051  -20.2397   23.2784 O   0  0  0  0  0  0  0  0  0  0  0  0
    7.7370  -11.8820   20.5072 N   0  0  0  0  0  0  0  0  0  0  0  0
    7.6334  -13.2715   20.7232 C   0  0  0  0  0  0  0  0  0  0  0  0
    8.4015  -14.0727   20.0485 N   0  0  0  0  0  0  0  0  0  0  0  0
    6.7298  -13.8589   21.6445 N   0  0  0  0  0  0  0  0  0  0  0  0
    6.9811  -15.1930   22.1841 C   0  0  0  0  0  0  0  0  0  0  0  0
    8.2219  -15.2038   23.0427 C   0  0  0  0  0  0  0  0  0  0  0  0
    9.0957  -16.3798   22.7351 C   0  0  0  0  0  0  0  0  0  0  0  0
   10.3982  -16.3544   23.4878 C   0  0  2  0  0  0  0  0  0  0  0  0
   11.3050  -17.3485   22.9492 N   0  0  0  0  0  0  0  0  0  0  0  0
   10.1883  -16.5410   24.9463 C   0  0  0  0  0  0  0  0  0  0  0  0
    9.9698  -17.6960   25.4448 O   0  0  0  0  0  0  0  0  0  0  0  0
    8.3506  -15.1086   20.1325 C   0  0  0  0  0  0  0  0  0  0  0  0
   10.4891  -13.1743   27.1599 C   0  0  1  0  0  0  0  0  0  0  0  0
    9.8903  -14.2939   27.9461 C   0  0  0  0  0  0  0  0  0  0  0  0
   10.1992  -14.2622   29.4006 C   0  0  2  0  0  0  0  0  0  0  0  0
   10.3211  -15.6002   27.2802 N   0  0  0  0  0  0  0  0  0  0  0  0
   10.2166  -15.4683   25.8622 C   0  0  0  0  0  0  0  0  0  0  0  0
    9.6389  -16.7686   27.8317 O   0  0  0  0  0  0  0  0  0  0  0  0
    8.5797  -17.1847   27.3009 O   0  0  0  0  0  0  0  0  0  0  0  0
  2  1  1  6
  2  3  1  0
  4  3  1  0
  4  5  2  0
  6  2  1  0
  7  6  2  0
  8  4  1  0
  9 10  1  0
 10 11  2  0
 10 12  1  0
 12 13  1  0
 13 14  1  0
 16 15  1  6
 15 14  1  0
 16 17  1  0
 17  6  1  0
 18 19  2  0
 18 16  1  0
 21 20  1  1
 21 23  1  0
 22 21  1  0
 23 24  1  1
 24 18  1  0
 25 23  1  0
 26 25  2  0
 27 25  1  0
M  END
$$$$
