DRV.pdb
     RDKit          3D

 27 26  0  0  1  0  0  0  0  0999 V2000
   12.2995  -18.2609   21.4002 N   0  0  0  0  0  0  0  0  0  0  0  0
   13.0648  -17.2032   22.0278 C   0  0  1  0  0  0  0  0  0  0  0  0
   13.8241  -16.4792   20.9585 C   0  0  0  0  0  0  0  0  0  0  0  0
   15.1057  -17.1829   20.7246 C   0  0  0  0  0  0  0  0  0  0  0  0
   15.1164  -18.4204   20.5650 O   0  0  0  0  0  0  0  0  0  0  0  0
   12.1746  -16.3541   22.8114 C   0  0  0  0  0  0  0  0  0  0  0  0
   12.6520  -15.3679   23.4237 O   0  0  0  0  0  0  0  0  0  0  0  0
   16.3184  -16.5094   20.6747 O   0  0  0  0  0  0  0  0  0  0  0  0
    6.3757  -14.1068   19.7164 N   0  0  0  0  0  0  0  0  0  0  0  0
    7.6806  -13.5795   19.6311 C   0  0  0  0  0  0  0  0  0  0  0  0
    8.1442  -13.2311   18.4688 N   0  0  0  0  0  0  0  0  0  0  0  0
    8.5321  -13.4027   20.7508 N   0  0  0  0  0  0  0  0  0  0  0  0
    8.1431  -13.9040   22.0667 C   0  0  0  0  0  0  0  0  0  0  0  0
    8.1527  -15.4126   22.0949 C   0  0  0  0  0  0  0  0  0  0  0  0
    8.4902  -15.9372   23.4558 C   0  0  0  0  0  0  0  0  0  0  0  0
    9.9404  -15.7532   23.8113 C   0  0  2  0  0  0  0  0  0  0  0  0
   10.7734  -16.5591   22.9410 N   0  0  0  0  0  0  0  0  0  0  0  0
   10.1933  -16.0572   25.2430 C   0  0  0  0  0  0  0  0  0  0  0  0
   10.6744  -17.1817   25.6096 O   0  0  0  0  0  0  0  0  0  0  0  0
    9.1203  -12.9000   18.3258 C   0  0  0  0  0  0  0  0  0  0  0  0
   10.0861  -12.9345   27.7282 C   0  0  1  0  0  0  0  0  0  0  0  0
    9.6657  -14.1607   28.4697 C   0  0  0  0  0  0  0  0  0  0  0  0
   10.1036  -14.2046   29.8903 C   0  0  2  0  0  0  0  0  0  0  0  0
   10.1489  -15.3676   27.6663 N   0  0  0  0  0  0  0  0  0  0  0  0
    9.9217  -15.1353   26.2758 C   0  0  0  0  0  0  0  0  0  0  0  0
    9.6115  -16.6315   28.1648 O   0  0  0  0  0  0  0  0  0  0  0  0
    8.4984  -17.0443   27.7560 O   0  0  0  0  0  0  0  0  0  0  0  0
  2  1  1  6
  2  3  1  0
  4  3  1  0
  4  5  2  0
  6  2  1  0
  7  6  2  0
  8  4  1  0
  9 10  1  0
 10 11  2  0
 10 12  1  0
 12 13  1  0
 13 14  1  0
 16 15  1  6
 15 14  1  0
 16 17  1  0
 17  6  1  0
 18 19  2  0
 18 16  1  0
 21 20  1  1
 21 23  1  0
 22 21  1  0
 23 24  1  6
 24 18  1  0
 25 23  1  0
 26 25  2  0
 27 25  1  0
M  END
$$$$
