DRV.pdb
     RDKit          3D

 27 26  0  0  1  0  0  0  0  0999 V2000
   10.5784  -15.0737   18.4234 N   0  0  0  0  0  0  0  0  0  0  0  0
   11.0414  -15.1316   19.7947 C   0  0  1  0  0  0  0  0  0  0  0  0
   11.9392  -13.9564   20.0341 C   0  0  0  0  0  0  0  0  0  0  0  0
   13.2809  -14.2627   19.4878 C   0  0  0  0  0  0  0  0  0  0  0  0
   13.5329  -15.4081   19.0615 O   0  0  0  0  0  0  0  0  0  0  0  0
    9.8963  -15.2054   20.6951 C   0  0  0  0  0  0  0  0  0  0  0  0
    8.8499  -14.5750   20.4068 O   0  0  0  0  0  0  0  0  0  0  0  0
   14.2885  -13.3099   19.4296 O   0  0  0  0  0  0  0  0  0  0  0  0
    9.2118  -21.3207   23.4230 N   0  0  0  0  0  0  0  0  0  0  0  0
    9.1646  -21.2170   22.0176 C   0  0  0  0  0  0  0  0  0  0  0  0
   10.0316  -21.8745   21.3083 N   0  0  0  0  0  0  0  0  0  0  0  0
    8.2161  -20.4284   21.3187 N   0  0  0  0  0  0  0  0  0  0  0  0
    7.3092  -19.5412   22.0431 C   0  0  0  0  0  0  0  0  0  0  0  0
    7.6538  -18.0938   21.7917 C   0  0  0  0  0  0  0  0  0  0  0  0
    8.3175  -17.4700   22.9798 C   0  0  0  0  0  0  0  0  0  0  0  0
    8.6958  -16.0318   22.7513 C   0  0  2  0  0  0  0  0  0  0  0  0
    9.8692  -15.9533   21.9042 N   0  0  0  0  0  0  0  0  0  0  0  0
    8.9002  -15.3118   24.0342 C   0  0  0  0  0  0  0  0  0  0  0  0
   10.0360  -15.3004   24.6173 O   0  0  0  0  0  0  0  0  0  0  0  0
   10.0687  -21.8216   20.2697 C   0  0  0  0  0  0  0  0  0  0  0  0
    6.6812  -12.1466   24.8644 C   0  0  1  0  0  0  0  0  0  0  0  0
    6.8037  -12.9684   26.1052 C   0  0  0  0  0  0  0  0  0  0  0  0
    6.8826  -12.1797   27.3637 C   0  0  2  0  0  0  0  0  0  0  0  0
    7.9995  -13.9013   25.9182 N   0  0  0  0  0  0  0  0  0  0  0  0
    7.8661  -14.6037   24.6821 C   0  0  0  0  0  0  0  0  0  0  0  0
    8.2369  -14.7570   27.0784 O   0  0  0  0  0  0  0  0  0  0  0  0
    7.7023  -15.8915   27.1407 O   0  0  0  0  0  0  0  0  0  0  0  0
  2  1  1  6
  2  3  1  0
  4  3  1  0
  4  5  2  0
  6  2  1  0
  7  6  2  0
  8  4  1  0
  9 10  1  0
 10 11  2  0
 10 12  1  0
 12 13  1  0
 13 14  1  0
 16 15  1  1
 15 14  1  0
 16 17  1  0
 17  6  1  0
 18 19  2  0
 18 16  1  0
 21 20  1  1
 21 23  1  0
 22 21  1  0
 23 24  1  6
 24 18  1  0
 25 23  1  0
 26 25  2  0
 27 25  1  0
M  END
$$$$
