DRV.pdb
     RDKit          3D

 27 26  0  0  1  0  0  0  0  0999 V2000
   11.0792  -19.8279   16.9206 N   0  0  0  0  0  0  0  0  0  0  0  0
   10.2943  -20.1747   18.0876 C   0  0  1  0  0  0  0  0  0  0  0  0
   10.8472  -21.4431   18.6618 C   0  0  0  0  0  0  0  0  0  0  0  0
    9.9707  -22.5681   18.2637 C   0  0  0  0  0  0  0  0  0  0  0  0
    9.0941  -22.3962   17.3924 O   0  0  0  0  0  0  0  0  0  0  0  0
   10.2786  -19.0515   19.0180 C   0  0  0  0  0  0  0  0  0  0  0  0
   11.3679  -18.5668   19.4103 O   0  0  0  0  0  0  0  0  0  0  0  0
   10.0865  -23.8296   18.8309 O   0  0  0  0  0  0  0  0  0  0  0  0
    8.0537  -11.7671   21.2404 N   0  0  0  0  0  0  0  0  0  0  0  0
    7.8241  -12.4030   20.0030 C   0  0  0  0  0  0  0  0  0  0  0  0
    8.2363  -11.8281   18.9136 N   0  0  0  0  0  0  0  0  0  0  0  0
    7.1615  -13.6493   19.8704 N   0  0  0  0  0  0  0  0  0  0  0  0
    6.7814  -14.4184   21.0529 C   0  0  0  0  0  0  0  0  0  0  0  0
    7.8452  -15.4287   21.4056 C   0  0  0  0  0  0  0  0  0  0  0  0
    7.8626  -16.5721   20.4394 C   0  0  0  0  0  0  0  0  0  0  0  0
    9.1259  -17.3854   20.5173 C   0  0  2  0  0  0  0  0  0  0  0  0
    9.0981  -18.4457   19.5297 N   0  0  0  0  0  0  0  0  0  0  0  0
    9.3463  -17.9200   21.8854 C   0  0  0  0  0  0  0  0  0  0  0  0
    8.5184  -18.7283   22.4253 O   0  0  0  0  0  0  0  0  0  0  0  0
    8.0311  -12.2024   17.9647 C   0  0  0  0  0  0  0  0  0  0  0  0
   12.3129  -16.2860   24.5740 C   0  0  1  0  0  0  0  0  0  0  0  0
   12.1810  -17.7578   24.3584 C   0  0  0  0  0  0  0  0  0  0  0  0
   13.1388  -18.3265   23.3728 C   0  0  1  0  0  0  0  0  0  0  0  0
   10.7236  -18.0363   23.9924 N   0  0  0  0  0  0  0  0  0  0  0  0
   10.4696  -17.5736   22.6656 C   0  0  0  0  0  0  0  0  0  0  0  0
    9.7835  -17.5430   24.9962 O   0  0  0  0  0  0  0  0  0  0  0  0
    9.1124  -16.5060   24.7706 O   0  0  0  0  0  0  0  0  0  0  0  0
  2  1  1  6
  2  3  1  0
  4  3  1  0
  4  5  2  0
  6  2  1  0
  7  6  2  0
  8  4  1  0
  9 10  1  0
 10 11  2  0
 10 12  1  0
 12 13  1  0
 13 14  1  0
 16 15  1  1
 15 14  1  0
 16 17  1  0
 17  6  1  0
 18 19  2  0
 18 16  1  0
 21 20  1  1
 21 23  1  0
 22 21  1  0
 23 24  1  6
 24 18  1  0
 25 23  1  0
 26 25  2  0
 27 25  1  0
M  END
$$$$
