AAA.pdb
 OpenBabel07022417593D

 32 31  0  0  1  0  0  0  0  0999 V2000
    2.4480   -3.8740    1.8760 C   0  0  0  0  0  0  0  0  0  0  0  0
    2.2310   -2.4340    1.4330 C   0  0  2  0  0  0  0  0  0  0  0  0
    1.9210   -1.6730    2.6370 N   0  0  0  0  0  0  0  0  0  0  0  0
    1.0780   -2.3890    0.4990 C   0  0  0  0  0  0  0  0  0  0  0  0
    1.1690   -2.9930   -0.5990 O   0  0  0  0  0  0  0  0  0  0  0  0
    3.4310   -3.9450    2.4030 H   0  0  0  0  0  0  0  0  0  0  0  0
    1.6820   -4.2270    2.5760 H   0  0  0  0  0  0  0  0  0  0  0  0
    2.4990   -4.5580    0.9960 H   0  0  0  0  0  0  0  0  0  0  0  0
    3.1520   -2.0880    0.9500 H   0  0  0  0  0  0  0  0  0  0  0  0
    1.1170   -2.1110    3.1360 H   0  0  0  0  0  0  0  0  0  0  0  0
    2.7170   -1.6700    3.3050 H   0  0  0  0  0  0  0  0  0  0  0  0
   -2.4500   -2.3550    0.3650 C   0  0  0  0  0  0  0  0  0  0  0  0
   -1.1980   -1.7050   -0.1820 C   0  0  2  0  0  0  0  0  0  0  0  0
   -0.1270   -1.6950    0.7860 N   0  0  0  0  0  0  0  0  0  0  0  0
   -1.4910   -0.3010   -0.6370 C   0  0  0  0  0  0  0  0  0  0  0  0
   -2.4010   -0.1280   -1.4840 O   0  0  0  0  0  0  0  0  0  0  0  0
   -2.5980   -2.1210    1.4420 H   0  0  0  0  0  0  0  0  0  0  0  0
   -3.3280   -1.9250   -0.1620 H   0  0  0  0  0  0  0  0  0  0  0  0
   -2.4070   -3.4240    0.1550 H   0  0  0  0  0  0  0  0  0  0  0  0
   -0.8810   -2.2990   -1.0610 H   0  0  0  0  0  0  0  0  0  0  0  0
   -0.2120   -1.1820    1.7120 H   0  0  0  0  0  0  0  0  0  0  0  0
   -1.5310    2.9420    0.6610 C   0  0  0  0  0  0  0  0  0  0  0  0
   -1.0630    2.1820   -0.5850 C   0  0  2  0  0  0  0  0  0  0  0  0
   -0.7940    0.8250   -0.1580 N   0  0  0  0  0  0  0  0  0  0  0  0
    0.1330    2.8430   -1.1370 C   0  0  0  0  0  0  0  0  0  0  0  0
    0.0300    4.0280   -1.5440 O   0  0  0  0  0  0  0  0  0  0  0  0
    1.3830    2.2470   -1.2440 O   0  0  0  0  0  0  0  0  0  0  0  0
   -2.5240    2.6170    0.9880 H   0  0  0  0  0  0  0  0  0  0  0  0
   -1.5470    4.0120    0.3920 H   0  0  0  0  0  0  0  0  0  0  0  0
   -0.7440    2.8150    1.4290 H   0  0  0  0  0  0  0  0  0  0  0  0
   -1.8650    2.2530   -1.3200 H   0  0  0  0  0  0  0  0  0  0  0  0
   -0.0400    0.6710    0.5460 H   0  0  0  0  0  0  0  0  0  0  0  0
  1  6  1  0  0  0  0
  1  7  1  0  0  0  0
  2  9  1  6  0  0  0
  2  1  1  0  0  0  0
  2  3  1  0  0  0  0
  3 10  1  0  0  0  0
  3 11  1  0  0  0  0
  4 14  1  0  0  0  0
  4  2  1  0  0  0  0
  5  4  2  0  0  0  0
  8  1  1  0  0  0  0
 12 17  1  0  0  0  0
 13 20  1  6  0  0  0
 13 12  1  0  0  0  0
 13 14  1  0  0  0  0
 14 21  1  0  0  0  0
 15 13  1  0  0  0  0
 15 24  1  0  0  0  0
 16 15  2  0  0  0  0
 18 12  1  0  0  0  0
 19 12  1  0  0  0  0
 22 28  1  0  0  0  0
 22 30  1  0  0  0  0
 23 31  1  6  0  0  0
 23 24  1  0  0  0  0
 23 22  1  0  0  0  0
 24 32  1  0  0  0  0
 25 23  1  0  0  0  0
 26 25  2  0  0  0  0
 27 25  1  0  0  0  0
 29 22  1  0  0  0  0
M  END
$$$$
