AAC.pdb
 OpenBabel07022417593D

 33 32  0  0  1  0  0  0  0  0999 V2000
   -1.8410   -1.6630    3.0290 C   0  0  0  0  0  0  0  0  0  0  0  0
   -0.5140   -2.2270    3.4890 C   0  0  2  0  0  0  0  0  0  0  0  0
   -0.3540   -1.9000    4.8910 N   0  0  0  0  0  0  0  0  0  0  0  0
    0.6050   -1.6370    2.7410 C   0  0  0  0  0  0  0  0  0  0  0  0
    1.5040   -0.9730    3.3250 O   0  0  0  0  0  0  0  0  0  0  0  0
   -1.6290   -0.7130    2.4970 H   0  0  0  0  0  0  0  0  0  0  0  0
   -2.4750   -1.4270    3.8950 H   0  0  0  0  0  0  0  0  0  0  0  0
   -2.3500   -2.3490    2.3160 H   0  0  0  0  0  0  0  0  0  0  0  0
   -0.5830   -3.3290    3.3680 H   0  0  0  0  0  0  0  0  0  0  0  0
   -0.4500   -2.7550    5.4760 H   0  0  0  0  0  0  0  0  0  0  0  0
   -1.0420   -1.1930    5.2270 H   0  0  0  0  0  0  0  0  0  0  0  0
    2.6660   -2.3400    0.0370 C   0  0  0  0  0  0  0  0  0  0  0  0
    1.8510   -1.1860    0.6360 C   0  0  2  0  0  0  0  0  0  0  0  0
    0.7540   -1.7700    1.3310 N   0  0  0  0  0  0  0  0  0  0  0  0
    1.4820   -0.2210   -0.3970 C   0  0  0  0  0  0  0  0  0  0  0  0
    2.3940    0.3390   -1.0560 O   0  0  0  0  0  0  0  0  0  0  0  0
    2.5470   -2.4060   -1.0510 H   0  0  0  0  0  0  0  0  0  0  0  0
    2.3610   -3.3140    0.4660 H   0  0  0  0  0  0  0  0  0  0  0  0
    3.7490   -2.2100    0.3140 H   0  0  0  0  0  0  0  0  0  0  0  0
    2.4960   -0.6570    1.3750 H   0  0  0  0  0  0  0  0  0  0  0  0
    0.0390   -2.3100    0.7980 H   0  0  0  0  0  0  0  0  0  0  0  0
    0.1480    0.1490   -0.7290 N   0  0  0  0  0  0  0  0  0  0  0  0
   -0.1380    1.1160   -1.7690 C   0  0  1  0  0  0  0  0  0  0  0  0
   -0.9630    0.5350   -2.8910 C   0  0  0  0  0  0  0  0  0  0  0  0
   -1.2220    1.8870   -4.0980 S   0  0  0  0  0  0  0  0  0  0  0  0
   -0.8450    2.3080   -1.2230 C   0  0  0  0  0  0  0  0  0  0  0  0
   -1.1730    3.2500   -1.9880 O   0  0  0  0  0  0  0  0  0  0  0  0
   -1.1700    2.4340    0.1210 O   0  0  0  0  0  0  0  0  0  0  0  0
   -0.6480   -0.2970   -0.2000 H   0  0  0  0  0  0  0  0  0  0  0  0
    0.8140    1.4700   -2.2060 H   0  0  0  0  0  0  0  0  0  0  0  0
   -0.4920   -0.3200   -3.3750 H   0  0  0  0  0  0  0  0  0  0  0  0
   -1.9470    0.2740   -2.4800 H   0  0  0  0  0  0  0  0  0  0  0  0
   -2.4730    2.5020   -3.9070 H   0  0  0  0  0  0  0  0  0  0  0  0
  1  2  1  0  0  0  0
  1  7  1  0  0  0  0
  2  9  1  6  0  0  0
  2  3  1  0  0  0  0
  3 11  1  0  0  0  0
  3 10  1  0  0  0  0
  4  5  2  0  0  0  0
  4  2  1  0  0  0  0
  6  1  1  0  0  0  0
  8  1  1  0  0  0  0
 12 19  1  0  0  0  0
 12 18  1  0  0  0  0
 12 13  1  0  0  0  0
 13 14  1  0  0  0  0
 13 20  1  1  0  0  0
 14  4  1  0  0  0  0
 15 13  1  0  0  0  0
 16 15  2  0  0  0  0
 17 12  1  0  0  0  0
 21 14  1  0  0  0  0
 22 15  1  0  0  0  0
 22 29  1  0  0  0  0
 23 30  1  6  0  0  0
 23 26  1  0  0  0  0
 23 22  1  0  0  0  0
 24 32  1  0  0  0  0
 24 23  1  0  0  0  0
 25 33  1  0  0  0  0
 25 24  1  0  0  0  0
 26 28  1  0  0  0  0
 27 26  2  0  0  0  0
 31 24  1  0  0  0  0
M  END
$$$$
