AAE.pdb
 OpenBabel07022417593D

 38 37  0  0  1  0  0  0  0  0999 V2000
    0.6270   -5.0210   -0.1580 C   0  0  0  0  0  0  0  0  0  0  0  0
    1.1680   -3.6670    0.3320 C   0  0  2  0  0  0  0  0  0  0  0  0
    0.7900   -3.5680    1.7030 N   0  0  0  0  0  0  0  0  0  0  0  0
    0.5130   -2.6450   -0.5470 C   0  0  0  0  0  0  0  0  0  0  0  0
    0.8530   -2.5950   -1.7410 O   0  0  0  0  0  0  0  0  0  0  0  0
   -0.3740   -4.9040   -0.6290 H   0  0  0  0  0  0  0  0  0  0  0  0
    0.4930   -5.7260    0.7050 H   0  0  0  0  0  0  0  0  0  0  0  0
    1.3000   -5.5140   -0.8620 H   0  0  0  0  0  0  0  0  0  0  0  0
    2.2440   -3.6690    0.1960 H   0  0  0  0  0  0  0  0  0  0  0  0
   -0.2260   -3.5550    1.8650 H   0  0  0  0  0  0  0  0  0  0  0  0
    1.3790   -2.9990    2.3130 H   0  0  0  0  0  0  0  0  0  0  0  0
   -2.6010   -1.0630   -0.9600 C   0  0  0  0  0  0  0  0  0  0  0  0
   -1.1050   -0.7530   -0.9450 C   0  0  2  0  0  0  0  0  0  0  0  0
   -0.4710   -1.7350   -0.0960 N   0  0  0  0  0  0  0  0  0  0  0  0
   -0.8970    0.6590   -0.4540 C   0  0  0  0  0  0  0  0  0  0  0  0
   -1.4400    1.5810   -1.0900 O   0  0  0  0  0  0  0  0  0  0  0  0
   -2.9110   -1.7060   -0.1300 H   0  0  0  0  0  0  0  0  0  0  0  0
   -2.8300   -1.5140   -1.9440 H   0  0  0  0  0  0  0  0  0  0  0  0
   -3.1450   -0.0740   -0.9340 H   0  0  0  0  0  0  0  0  0  0  0  0
   -0.6770   -0.8130   -1.9440 H   0  0  0  0  0  0  0  0  0  0  0  0
   -0.7330   -1.8110    0.9210 H   0  0  0  0  0  0  0  0  0  0  0  0
   -0.1080    0.8530    0.6880 N   0  0  0  0  0  0  0  0  0  0  0  0
    0.2440    2.0320    1.3830 C   0  0  1  0  0  0  0  0  0  0  0  0
    1.7280    2.2980    1.3780 C   0  0  0  0  0  0  0  0  0  0  0  0
    2.4370    1.1510    2.0230 C   0  0  0  0  0  0  0  0  0  0  0  0
    2.0450    0.9220    3.4330 C   0  0  0  0  0  0  0  0  0  0  0  0
    2.0760    1.8810    4.2660 O   0  0  0  0  0  0  0  0  0  0  0  0
   -0.5330    3.2540    1.1150 C   0  0  0  0  0  0  0  0  0  0  0  0
   -0.1310    4.3710    1.6310 O   0  0  0  0  0  0  0  0  0  0  0  0
    1.6330   -0.3380    3.8900 O   0  0  0  0  0  0  0  0  0  0  0  0
   -1.6560    3.3450    0.3700 O   0  0  0  0  0  0  0  0  0  0  0  0
    0.2950   -0.0800    1.1070 H   0  0  0  0  0  0  0  0  0  0  0  0
   -0.0670    1.8370    2.4960 H   0  0  0  0  0  0  0  0  0  0  0  0
    2.0570    2.3590    0.3240 H   0  0  0  0  0  0  0  0  0  0  0  0
    1.9660    3.2810    1.8270 H   0  0  0  0  0  0  0  0  0  0  0  0
    3.5540    1.2670    1.9540 H   0  0  0  0  0  0  0  0  0  0  0  0
    2.2230    0.2360    1.4380 H   0  0  0  0  0  0  0  0  0  0  0  0
    1.0280   -0.4000    4.7170 H   0  0  0  0  0  0  0  0  0  0  0  0
  1  2  1  0  0  0  0
  1  7  1  0  0  0  0
  2  9  1  6  0  0  0
  2  3  1  0  0  0  0
  3 10  1  0  0  0  0
  3 11  1  0  0  0  0
  4 14  1  0  0  0  0
  4  2  1  0  0  0  0
  5  4  2  0  0  0  0
  6  1  1  0  0  0  0
  8  1  1  0  0  0  0
 12 13  1  0  0  0  0
 12 19  1  0  0  0  0
 12 17  1  0  0  0  0
 13 20  1  6  0  0  0
 13 15  1  0  0  0  0
 13 14  1  0  0  0  0
 14 21  1  0  0  0  0
 15 22  1  0  0  0  0
 16 15  2  0  0  0  0
 18 12  1  0  0  0  0
 22 32  1  0  0  0  0
 22 23  1  0  0  0  0
 23 33  1  1  0  0  0
 24 23  1  0  0  0  0
 24 35  1  0  0  0  0
 24 25  1  0  0  0  0
 25 26  1  0  0  0  0
 26 30  1  0  0  0  0
 26 27  2  0  0  0  0
 28 23  1  0  0  0  0
 28 29  1  0  0  0  0
 30 38  1  0  0  0  0
 31 28  2  0  0  0  0
 34 24  1  0  0  0  0
 36 25  1  0  0  0  0
 37 25  1  0  0  0  0
M  END
$$$$
