AAG.pdb
 OpenBabel07022417593D

 29 28  0  0  1  0  0  0  0  0999 V2000
   -2.6760   -2.4940   -0.0010 C   0  0  0  0  0  0  0  0  0  0  0  0
   -1.6630   -2.7590   -1.0860 C   0  0  2  0  0  0  0  0  0  0  0  0
   -1.6710   -4.1370   -1.4620 N   0  0  0  0  0  0  0  0  0  0  0  0
   -0.3100   -2.2600   -0.7430 C   0  0  0  0  0  0  0  0  0  0  0  0
    0.7040   -3.0160   -0.7940 O   0  0  0  0  0  0  0  0  0  0  0  0
   -3.0460   -1.4460   -0.0130 H   0  0  0  0  0  0  0  0  0  0  0  0
   -3.5720   -3.1300   -0.2530 H   0  0  0  0  0  0  0  0  0  0  0  0
   -2.3150   -2.7670    1.0100 H   0  0  0  0  0  0  0  0  0  0  0  0
   -1.9950   -2.1680   -1.9790 H   0  0  0  0  0  0  0  0  0  0  0  0
   -2.6630   -4.4680   -1.4660 H   0  0  0  0  0  0  0  0  0  0  0  0
   -1.1180   -4.7530   -0.8310 H   0  0  0  0  0  0  0  0  0  0  0  0
    1.7270    0.7280   -0.7900 C   0  0  0  0  0  0  0  0  0  0  0  0
    1.2510   -0.4330   -0.0060 C   0  0  2  0  0  0  0  0  0  0  0  0
   -0.0430   -0.9360   -0.3420 N   0  0  0  0  0  0  0  0  0  0  0  0
    1.2340   -0.0540    1.4220 C   0  0  0  0  0  0  0  0  0  0  0  0
    0.1720   -0.1910    2.0690 O   0  0  0  0  0  0  0  0  0  0  0  0
    0.8600    1.3980   -1.0680 H   0  0  0  0  0  0  0  0  0  0  0  0
    2.3420    0.4890   -1.6730 H   0  0  0  0  0  0  0  0  0  0  0  0
    2.3650    1.3530   -0.1340 H   0  0  0  0  0  0  0  0  0  0  0  0
    2.0060   -1.2580   -0.1150 H   0  0  0  0  0  0  0  0  0  0  0  0
   -0.8430   -0.2590   -0.2800 H   0  0  0  0  0  0  0  0  0  0  0  0
    2.3900    0.4540    2.0530 N   0  0  0  0  0  0  0  0  0  0  0  0
    2.3270    0.8160    3.4630 C   0  0  0  0  0  0  0  0  0  0  0  0
    1.2990    1.8870    3.6460 C   0  0  0  0  0  0  0  0  0  0  0  0
    0.6640    2.3220    2.6540 O   0  0  0  0  0  0  0  0  0  0  0  0
    1.0280    2.4150    4.9010 O   0  0  0  0  0  0  0  0  0  0  0  0
    3.2560    0.5530    1.4950 H   0  0  0  0  0  0  0  0  0  0  0  0
    3.3140    1.2040    3.8010 H   0  0  0  0  0  0  0  0  0  0  0  0
    1.9910   -0.0520    4.0440 H   0  0  0  0  0  0  0  0  0  0  0  0
  1  8  1  0  0  0  0
  2  9  1  6  0  0  0
  2  4  1  0  0  0  0
  2  1  1  0  0  0  0
  3  2  1  0  0  0  0
  3 11  1  0  0  0  0
  4 14  1  0  0  0  0
  5  4  2  0  0  0  0
  6  1  1  0  0  0  0
  7  1  1  0  0  0  0
 10  3  1  0  0  0  0
 12 19  1  0  0  0  0
 12 13  1  0  0  0  0
 13 20  1  6  0  0  0
 13 15  1  0  0  0  0
 14 21  1  0  0  0  0
 14 13  1  0  0  0  0
 15 22  1  0  0  0  0
 15 16  2  0  0  0  0
 17 12  1  0  0  0  0
 18 12  1  0  0  0  0
 22 23  1  0  0  0  0
 23 24  1  0  0  0  0
 23 28  1  0  0  0  0
 23 29  1  0  0  0  0
 24 26  1  0  0  0  0
 25 24  2  0  0  0  0
 27 22  1  0  0  0  0
M  END
$$$$
