AAP.pdb
 OpenBabel07022417593D

 36 36  0  0  1  0  0  0  0  0999 V2000
   -2.8100   -1.3440    1.6410 C   0  0  0  0  0  0  0  0  0  0  0  0
   -2.1780   -2.6780    1.8460 C   0  0  2  0  0  0  0  0  0  0  0  0
   -2.4620   -3.2330    3.1520 N   0  0  0  0  0  0  0  0  0  0  0  0
   -0.7180   -2.6510    1.5920 C   0  0  0  0  0  0  0  0  0  0  0  0
    0.0830   -3.0900    2.4940 O   0  0  0  0  0  0  0  0  0  0  0  0
   -3.8930   -1.4370    1.9260 H   0  0  0  0  0  0  0  0  0  0  0  0
   -2.3380   -0.5870    2.2910 H   0  0  0  0  0  0  0  0  0  0  0  0
   -2.7640   -1.0280    0.5830 H   0  0  0  0  0  0  0  0  0  0  0  0
   -2.6340   -3.4020    1.1100 H   0  0  0  0  0  0  0  0  0  0  0  0
   -2.3480   -4.2660    3.0860 H   0  0  0  0  0  0  0  0  0  0  0  0
   -1.7870   -2.8000    3.8230 H   0  0  0  0  0  0  0  0  0  0  0  0
    1.4560   -3.1210   -1.0400 C   0  0  0  0  0  0  0  0  0  0  0  0
    1.2540   -2.1420    0.1360 C   0  0  2  0  0  0  0  0  0  0  0  0
   -0.1550   -2.1590    0.3880 N   0  0  0  0  0  0  0  0  0  0  0  0
    1.8510   -0.8380   -0.1700 C   0  0  0  0  0  0  0  0  0  0  0  0
    3.1110   -0.8930   -0.4430 O   0  0  0  0  0  0  0  0  0  0  0  0
    0.7900   -2.8290   -1.8740 H   0  0  0  0  0  0  0  0  0  0  0  0
    2.5220   -3.1670   -1.3230 H   0  0  0  0  0  0  0  0  0  0  0  0
    1.0750   -4.0970   -0.6570 H   0  0  0  0  0  0  0  0  0  0  0  0
    1.8330   -2.6070    0.9800 H   0  0  0  0  0  0  0  0  0  0  0  0
   -0.7950   -1.8080   -0.3430 H   0  0  0  0  0  0  0  0  0  0  0  0
    1.2560    0.4240   -0.2070 N   0  0  0  0  0  0  0  0  0  0  0  0
   -0.1330    0.7090    0.0750 C   0  0  0  0  0  0  0  0  0  0  0  0
   -0.1670    2.1830    0.4490 C   0  0  0  0  0  0  0  0  0  0  0  0
    0.9620    2.7710   -0.3740 C   0  0  0  0  0  0  0  0  0  0  0  0
    1.9500    1.6650   -0.5370 C   0  0  1  0  0  0  0  0  0  0  0  0
    3.1100    1.8440    0.3990 C   0  0  0  0  0  0  0  0  0  0  0  0
    3.8200    2.8480    0.2480 O   0  0  0  0  0  0  0  0  0  0  0  0
    3.4130    0.9550    1.4000 O   0  0  0  0  0  0  0  0  0  0  0  0
   -0.4930    0.1670    0.9570 H   0  0  0  0  0  0  0  0  0  0  0  0
   -0.8060    0.5020   -0.7730 H   0  0  0  0  0  0  0  0  0  0  0  0
    0.0550    2.3510    1.5200 H   0  0  0  0  0  0  0  0  0  0  0  0
   -1.1420    2.6320    0.2290 H   0  0  0  0  0  0  0  0  0  0  0  0
    1.3990    3.6360    0.1340 H   0  0  0  0  0  0  0  0  0  0  0  0
    0.5460    3.0900   -1.3650 H   0  0  0  0  0  0  0  0  0  0  0  0
    2.3660    1.6240   -1.5740 H   0  0  0  0  0  0  0  0  0  0  0  0
  1  2  1  0  0  0  0
  1  6  1  0  0  0  0
  1  7  1  0  0  0  0
  2  9  1  6  0  0  0
  2  3  1  0  0  0  0
  3 11  1  0  0  0  0
  4  2  1  0  0  0  0
  4  5  2  0  0  0  0
  8  1  1  0  0  0  0
 10  3  1  0  0  0  0
 12 19  1  0  0  0  0
 12 13  1  0  0  0  0
 13 14  1  0  0  0  0
 13 20  1  1  0  0  0
 14  4  1  0  0  0  0
 15 13  1  0  0  0  0
 16 15  2  0  0  0  0
 17 12  1  0  0  0  0
 18 12  1  0  0  0  0
 21 14  1  0  0  0  0
 22 15  1  0  0  0  0
 22 23  1  0  0  0  0
 23 24  1  0  0  0  0
 23 30  1  0  0  0  0
 24 32  1  0  0  0  0
 25 34  1  0  0  0  0
 25 24  1  0  0  0  0
 26 36  1  6  0  0  0
 26 25  1  0  0  0  0
 26 22  1  0  0  0  0
 26 27  1  0  0  0  0
 27 29  1  0  0  0  0
 28 27  2  0  0  0  0
 31 23  1  0  0  0  0
 33 24  1  0  0  0  0
 35 25  1  0  0  0  0
M  END
$$$$
