AAS.pdb
 OpenBabel07022417593D

 33 32  0  0  1  0  0  0  0  0999 V2000
   -1.3250   -1.3390    3.2500 C   0  0  0  0  0  0  0  0  0  0  0  0
    0.0840   -1.7720    3.6330 C   0  0  2  0  0  0  0  0  0  0  0  0
    0.3770   -1.3180    4.9680 N   0  0  0  0  0  0  0  0  0  0  0  0
    1.0450   -1.1970    2.6620 C   0  0  0  0  0  0  0  0  0  0  0  0
    1.9470   -0.4290    3.0870 O   0  0  0  0  0  0  0  0  0  0  0  0
   -1.7270   -2.0590    2.5100 H   0  0  0  0  0  0  0  0  0  0  0  0
   -2.0070   -1.3040    4.1000 H   0  0  0  0  0  0  0  0  0  0  0  0
   -1.3200   -0.3220    2.7860 H   0  0  0  0  0  0  0  0  0  0  0  0
    0.0880   -2.8920    3.5590 H   0  0  0  0  0  0  0  0  0  0  0  0
    1.3340   -0.8930    5.0040 H   0  0  0  0  0  0  0  0  0  0  0  0
   -0.2880   -0.5430    5.2160 H   0  0  0  0  0  0  0  0  0  0  0  0
    2.6470   -2.1050   -0.3030 C   0  0  0  0  0  0  0  0  0  0  0  0
    1.9220   -0.9180    0.3430 C   0  0  2  0  0  0  0  0  0  0  0  0
    0.9850   -1.4790    1.2820 N   0  0  0  0  0  0  0  0  0  0  0  0
    1.2530   -0.1160   -0.7100 C   0  0  0  0  0  0  0  0  0  0  0  0
    1.9240    0.4440   -1.6100 O   0  0  0  0  0  0  0  0  0  0  0  0
    2.0320   -2.3880   -1.1820 H   0  0  0  0  0  0  0  0  0  0  0  0
    2.6610   -2.9840    0.3740 H   0  0  0  0  0  0  0  0  0  0  0  0
    3.6570   -1.8060   -0.6500 H   0  0  0  0  0  0  0  0  0  0  0  0
    2.6650   -0.2620    0.8240 H   0  0  0  0  0  0  0  0  0  0  0  0
    0.2420   -2.1160    0.9090 H   0  0  0  0  0  0  0  0  0  0  0  0
   -1.4240   -1.0580   -3.1330 O   0  0  0  0  0  0  0  0  0  0  0  0
   -1.8560    0.0900   -2.5080 C   0  0  0  0  0  0  0  0  0  0  0  0
   -0.7660    0.8200   -1.7630 C   0  0  2  0  0  0  0  0  0  0  0  0
   -0.1600    0.0360   -0.7260 N   0  0  0  0  0  0  0  0  0  0  0  0
   -1.4170    1.9980   -1.1030 C   0  0  0  0  0  0  0  0  0  0  0  0
   -2.0370    2.8720   -1.7770 O   0  0  0  0  0  0  0  0  0  0  0  0
   -1.3770    2.1940    0.2670 O   0  0  0  0  0  0  0  0  0  0  0  0
   -1.8950   -1.2600   -3.9800 H   0  0  0  0  0  0  0  0  0  0  0  0
   -2.7030   -0.1370   -1.8430 H   0  0  0  0  0  0  0  0  0  0  0  0
   -2.2270    0.7860   -3.2940 H   0  0  0  0  0  0  0  0  0  0  0  0
   -0.0180    1.2250   -2.4500 H   0  0  0  0  0  0  0  0  0  0  0  0
   -0.7840   -0.4110    0.0050 H   0  0  0  0  0  0  0  0  0  0  0  0
  1  2  1  0  0  0  0
  1  7  1  0  0  0  0
  2  9  1  6  0  0  0
  2  3  1  0  0  0  0
  3 10  1  0  0  0  0
  3 11  1  0  0  0  0
  4  5  2  0  0  0  0
  4  2  1  0  0  0  0
  6  1  1  0  0  0  0
  8  1  1  0  0  0  0
 12 13  1  0  0  0  0
 12 18  1  0  0  0  0
 13 20  1  1  0  0  0
 13 14  1  0  0  0  0
 14  4  1  0  0  0  0
 15 13  1  0  0  0  0
 16 15  2  0  0  0  0
 17 12  1  0  0  0  0
 19 12  1  0  0  0  0
 21 14  1  0  0  0  0
 22 23  1  0  0  0  0
 23 30  1  0  0  0  0
 23 24  1  0  0  0  0
 24 32  1  6  0  0  0
 24 26  1  0  0  0  0
 24 25  1  0  0  0  0
 25 15  1  0  0  0  0
 25 33  1  0  0  0  0
 26 28  1  0  0  0  0
 27 26  2  0  0  0  0
 29 22  1  0  0  0  0
 31 23  1  0  0  0  0
M  END
$$$$
