AAT.pdb
 OpenBabel07022417593D

 36 35  0  0  1  0  0  0  0  0999 V2000
   -0.2630   -0.8790    3.4760 C   0  0  0  0  0  0  0  0  0  0  0  0
   -0.0740   -2.3870    3.3950 C   0  0  2  0  0  0  0  0  0  0  0  0
    0.5980   -2.9100    4.5540 N   0  0  0  0  0  0  0  0  0  0  0  0
    0.6040   -2.7380    2.1290 C   0  0  0  0  0  0  0  0  0  0  0  0
    1.6450   -3.4120    2.0520 O   0  0  0  0  0  0  0  0  0  0  0  0
    0.6460   -0.3380    3.1320 H   0  0  0  0  0  0  0  0  0  0  0  0
   -1.0890   -0.5880    2.7800 H   0  0  0  0  0  0  0  0  0  0  0  0
   -0.5820   -0.5830    4.4940 H   0  0  0  0  0  0  0  0  0  0  0  0
   -1.0830   -2.8610    3.3590 H   0  0  0  0  0  0  0  0  0  0  0  0
    0.1530   -2.5390    5.4030 H   0  0  0  0  0  0  0  0  0  0  0  0
    0.5080   -3.9390    4.5550 H   0  0  0  0  0  0  0  0  0  0  0  0
   -0.4880   -3.2460   -1.1990 C   0  0  0  0  0  0  0  0  0  0  0  0
    0.5660   -2.5310   -0.3820 C   0  0  2  0  0  0  0  0  0  0  0  0
    0.0190   -2.2680    0.9210 N   0  0  0  0  0  0  0  0  0  0  0  0
    0.9670   -1.2420   -1.0340 C   0  0  0  0  0  0  0  0  0  0  0  0
    1.4700   -1.2360   -2.1810 O   0  0  0  0  0  0  0  0  0  0  0  0
   -0.8760   -4.0730   -0.5660 H   0  0  0  0  0  0  0  0  0  0  0  0
   -1.3430   -2.5290   -1.3010 H   0  0  0  0  0  0  0  0  0  0  0  0
   -0.1100   -3.5820   -2.1700 H   0  0  0  0  0  0  0  0  0  0  0  0
    1.4890   -3.1390   -0.3000 H   0  0  0  0  0  0  0  0  0  0  0  0
   -0.8630   -1.6950    0.9570 H   0  0  0  0  0  0  0  0  0  0  0  0
   -1.1660    1.4320   -1.8630 C   0  0  0  0  0  0  0  0  0  0  0  0
   -0.1260    2.0990   -1.0240 C   0  0  1  0  0  0  0  0  0  0  0  0
   -0.5440    2.2260    0.2960 O   0  0  0  0  0  0  0  0  0  0  0  0
    1.1680    1.2760   -0.9790 C   0  0  2  0  0  0  0  0  0  0  0  0
    0.7880   -0.0020   -0.3720 N   0  0  0  0  0  0  0  0  0  0  0  0
    2.1100    2.0180   -0.1100 C   0  0  0  0  0  0  0  0  0  0  0  0
    2.5220    3.1350   -0.5060 O   0  0  0  0  0  0  0  0  0  0  0  0
    2.5690    1.5630    1.1140 O   0  0  0  0  0  0  0  0  0  0  0  0
   -1.7330    0.6980   -1.2350 H   0  0  0  0  0  0  0  0  0  0  0  0
   -0.7650    0.9610   -2.7760 H   0  0  0  0  0  0  0  0  0  0  0  0
   -1.9120    2.1980   -2.1630 H   0  0  0  0  0  0  0  0  0  0  0  0
    0.1710    3.0990   -1.3990 H   0  0  0  0  0  0  0  0  0  0  0  0
   -0.8690    3.1520    0.4300 H   0  0  0  0  0  0  0  0  0  0  0  0
    1.5920    1.1430   -1.9740 H   0  0  0  0  0  0  0  0  0  0  0  0
    0.3670   -0.0260    0.5830 H   0  0  0  0  0  0  0  0  0  0  0  0
  1  8  1  0  0  0  0
  2  9  1  6  0  0  0
  2  1  1  0  0  0  0
  2  3  1  0  0  0  0
  3 11  1  0  0  0  0
  3 10  1  0  0  0  0
  4  2  1  0  0  0  0
  5  4  2  0  0  0  0
  6  1  1  0  0  0  0
  7  1  1  0  0  0  0
 12 17  1  0  0  0  0
 12 13  1  0  0  0  0
 13 20  1  1  0  0  0
 13 14  1  0  0  0  0
 14 21  1  0  0  0  0
 14  4  1  0  0  0  0
 15 13  1  0  0  0  0
 15 26  1  0  0  0  0
 16 15  2  0  0  0  0
 18 12  1  0  0  0  0
 19 12  1  0  0  0  0
 22 30  1  0  0  0  0
 22 23  1  0  0  0  0
 23 33  1  6  0  0  0
 23 25  1  0  0  0  0
 23 24  1  0  0  0  0
 24 34  1  0  0  0  0
 25 35  1  6  0  0  0
 25 26  1  0  0  0  0
 25 27  1  0  0  0  0
 26 36  1  0  0  0  0
 27 29  1  0  0  0  0
 28 27  2  0  0  0  0
 31 22  1  0  0  0  0
 32 22  1  0  0  0  0
M  END
$$$$
