AAV.pdb
 OpenBabel07022417593D

 38 37  0  0  1  0  0  0  0  0999 V2000
   -1.7170   -2.1580    2.6650 C   0  0  0  0  0  0  0  0  0  0  0  0
   -0.8570   -3.3920    2.4910 C   0  0  2  0  0  0  0  0  0  0  0  0
   -0.8460   -4.1090    3.7270 N   0  0  0  0  0  0  0  0  0  0  0  0
    0.5140   -3.0130    2.0390 C   0  0  0  0  0  0  0  0  0  0  0  0
    1.4890   -3.3370    2.7390 O   0  0  0  0  0  0  0  0  0  0  0  0
   -2.0920   -1.7630    1.7170 H   0  0  0  0  0  0  0  0  0  0  0  0
   -1.1290   -1.4400    3.2660 H   0  0  0  0  0  0  0  0  0  0  0  0
   -2.6090   -2.4570    3.2720 H   0  0  0  0  0  0  0  0  0  0  0  0
   -1.2960   -4.0170    1.6870 H   0  0  0  0  0  0  0  0  0  0  0  0
   -0.3580   -5.0230    3.5780 H   0  0  0  0  0  0  0  0  0  0  0  0
   -0.4220   -3.5390    4.4670 H   0  0  0  0  0  0  0  0  0  0  0  0
    2.2040   -2.5140   -1.0350 C   0  0  0  0  0  0  0  0  0  0  0  0
    1.9990   -1.9000    0.3420 C   0  0  2  0  0  0  0  0  0  0  0  0
    0.7140   -2.2980    0.8400 N   0  0  0  0  0  0  0  0  0  0  0  0
    2.0210   -0.4370    0.1760 C   0  0  0  0  0  0  0  0  0  0  0  0
    3.0410    0.1890   -0.2520 O   0  0  0  0  0  0  0  0  0  0  0  0
    1.2340   -2.3580   -1.5910 H   0  0  0  0  0  0  0  0  0  0  0  0
    2.4880   -3.5740   -0.9840 H   0  0  0  0  0  0  0  0  0  0  0  0
    3.0320   -1.9470   -1.5120 H   0  0  0  0  0  0  0  0  0  0  0  0
    2.7760   -2.2490    1.0550 H   0  0  0  0  0  0  0  0  0  0  0  0
   -0.1650   -2.0560    0.2940 H   0  0  0  0  0  0  0  0  0  0  0  0
   -1.5760    1.9200   -0.1860 C   0  0  0  0  0  0  0  0  0  0  0  0
   -0.1860    2.2910   -0.6120 C   0  0  0  0  0  0  0  0  0  0  0  0
    0.1220    1.9260   -2.0410 C   0  0  0  0  0  0  0  0  0  0  0  0
    0.8720    1.7910    0.3420 C   0  0  2  0  0  0  0  0  0  0  0  0
    0.8850    0.3700    0.4910 N   0  0  0  0  0  0  0  0  0  0  0  0
    0.7010    2.4290    1.6750 C   0  0  0  0  0  0  0  0  0  0  0  0
    0.6630    3.6830    1.7570 O   0  0  0  0  0  0  0  0  0  0  0  0
    0.5770    1.7170    2.8600 O   0  0  0  0  0  0  0  0  0  0  0  0
   -1.5480    1.6360    0.8880 H   0  0  0  0  0  0  0  0  0  0  0  0
   -2.2870    2.7950   -0.2410 H   0  0  0  0  0  0  0  0  0  0  0  0
   -2.0360    1.1380   -0.8170 H   0  0  0  0  0  0  0  0  0  0  0  0
   -0.1310    3.4180   -0.5630 H   0  0  0  0  0  0  0  0  0  0  0  0
    1.2000    1.7040   -2.1990 H   0  0  0  0  0  0  0  0  0  0  0  0
   -0.1430    2.7250   -2.7620 H   0  0  0  0  0  0  0  0  0  0  0  0
   -0.5130    1.0510   -2.3140 H   0  0  0  0  0  0  0  0  0  0  0  0
    1.8550    2.1480   -0.0450 H   0  0  0  0  0  0  0  0  0  0  0  0
    0.0140   -0.1010    0.8500 H   0  0  0  0  0  0  0  0  0  0  0  0
  1  7  1  0  0  0  0
  1  8  1  0  0  0  0
  2  9  1  6  0  0  0
  2  1  1  0  0  0  0
  2  3  1  0  0  0  0
  3 11  1  0  0  0  0
  4  2  1  0  0  0  0
  4  5  2  0  0  0  0
  6  1  1  0  0  0  0
 10  3  1  0  0  0  0
 12 18  1  0  0  0  0
 12 13  1  0  0  0  0
 13 14  1  0  0  0  0
 13 20  1  1  0  0  0
 14  4  1  0  0  0  0
 15 13  1  0  0  0  0
 15 26  1  0  0  0  0
 16 15  2  0  0  0  0
 17 12  1  0  0  0  0
 19 12  1  0  0  0  0
 21 14  1  0  0  0  0
 22 30  1  0  0  0  0
 23 33  1  0  0  0  0
 23 22  1  0  0  0  0
 23 25  1  0  0  0  0
 24 23  1  0  0  0  0
 25 37  1  6  0  0  0
 25 26  1  0  0  0  0
 25 27  1  0  0  0  0
 26 38  1  0  0  0  0
 27 28  2  0  0  0  0
 27 29  1  0  0  0  0
 31 22  1  0  0  0  0
 32 22  1  0  0  0  0
 34 24  1  0  0  0  0
 35 24  1  0  0  0  0
 36 24  1  0  0  0  0
M  END
$$$$
