AAW.pdb
 OpenBabel07022417593D

 46 47  0  0  1  0  0  0  0  0999 V2000
    4.9480   -3.6730    0.8220 C   0  0  0  0  0  0  0  0  0  0  0  0
    4.3130   -2.3010    0.8980 C   0  0  2  0  0  0  0  0  0  0  0  0
    3.7930   -2.0530    2.2320 N   0  0  0  0  0  0  0  0  0  0  0  0
    3.2380   -2.2520   -0.1220 C   0  0  0  0  0  0  0  0  0  0  0  0
    3.5560   -2.4600   -1.3140 O   0  0  0  0  0  0  0  0  0  0  0  0
    4.2520   -4.3760    0.3340 H   0  0  0  0  0  0  0  0  0  0  0  0
    5.8950   -3.5370    0.2340 H   0  0  0  0  0  0  0  0  0  0  0  0
    5.1620   -3.9920    1.8640 H   0  0  0  0  0  0  0  0  0  0  0  0
    5.0500   -1.4970    0.6910 H   0  0  0  0  0  0  0  0  0  0  0  0
    3.0690   -2.7890    2.4810 H   0  0  0  0  0  0  0  0  0  0  0  0
    4.5280   -2.1560    2.9520 H   0  0  0  0  0  0  0  0  0  0  0  0
   -0.1870   -2.9310   -0.2430 C   0  0  0  0  0  0  0  0  0  0  0  0
    0.8630   -1.9210   -0.6620 C   0  0  2  0  0  0  0  0  0  0  0  0
    1.9250   -1.9750    0.3030 N   0  0  0  0  0  0  0  0  0  0  0  0
    0.2500   -0.5500   -0.5800 C   0  0  0  0  0  0  0  0  0  0  0  0
   -0.7250   -0.2220   -1.3280 O   0  0  0  0  0  0  0  0  0  0  0  0
    0.2690   -3.8390    0.1870 H   0  0  0  0  0  0  0  0  0  0  0  0
   -0.8780   -3.1650   -1.0740 H   0  0  0  0  0  0  0  0  0  0  0  0
   -0.7970   -2.4500    0.5530 H   0  0  0  0  0  0  0  0  0  0  0  0
    1.2170   -2.1260   -1.6930 H   0  0  0  0  0  0  0  0  0  0  0  0
    1.7270   -1.8140    1.2990 H   0  0  0  0  0  0  0  0  0  0  0  0
    0.7160    0.4390    0.3190 N   0  0  0  0  0  0  0  0  0  0  0  0
    0.1290    1.7530    0.3960 C   0  0  1  0  0  0  0  0  0  0  0  0
   -0.4960    2.0160    1.7540 C   0  0  0  0  0  0  0  0  0  0  0  0
   -1.5700    1.0340    2.0480 C   0  0  0  0  0  0  0  0  0  0  0  0
   -1.4930   -0.0530    2.9140 C   0  0  0  0  0  0  0  0  0  0  0  0
   -2.6760   -0.7060    2.9100 N   0  0  0  0  0  0  0  0  0  0  0  0
   -3.5350   -0.0920    2.0750 C   0  0  0  0  0  0  0  0  0  0  0  0
   -4.8410   -0.3400    1.7100 C   0  0  0  0  0  0  0  0  0  0  0  0
   -5.4990    0.4710    0.8080 C   0  0  0  0  0  0  0  0  0  0  0  0
   -4.8160    1.5430    0.2780 C   0  0  0  0  0  0  0  0  0  0  0  0
   -3.5110    1.7930    0.6420 C   0  0  0  0  0  0  0  0  0  0  0  0
   -2.8530    0.9810    1.5440 C   0  0  0  0  0  0  0  0  0  0  0  0
    1.0860    2.8180    0.0190 C   0  0  0  0  0  0  0  0  0  0  0  0
    0.7560    4.0300    0.0280 O   0  0  0  0  0  0  0  0  0  0  0  0
    2.3870    2.5180   -0.3600 O   0  0  0  0  0  0  0  0  0  0  0  0
    1.5280    0.1850    0.9500 H   0  0  0  0  0  0  0  0  0  0  0  0
   -0.7000    1.7900   -0.3460 H   0  0  0  0  0  0  0  0  0  0  0  0
   -0.8990    3.0370    1.7990 H   0  0  0  0  0  0  0  0  0  0  0  0
    0.2990    1.8850    2.5040 H   0  0  0  0  0  0  0  0  0  0  0  0
   -0.6460   -0.3510    3.5020 H   0  0  0  0  0  0  0  0  0  0  0  0
   -2.9190   -1.5610    3.4620 H   0  0  0  0  0  0  0  0  0  0  0  0
   -5.3960   -1.1750    2.1130 H   0  0  0  0  0  0  0  0  0  0  0  0
   -6.5450    0.2650    0.5200 H   0  0  0  0  0  0  0  0  0  0  0  0
   -5.2960    2.2030   -0.4320 H   0  0  0  0  0  0  0  0  0  0  0  0
   -2.9440    2.6270    0.2440 H   0  0  0  0  0  0  0  0  0  0  0  0
  1  2  1  0  0  0  0
  1  8  1  0  0  0  0
  2  9  1  6  0  0  0
  2  3  1  0  0  0  0
  3 10  1  0  0  0  0
  3 11  1  0  0  0  0
  4 14  1  0  0  0  0
  4  2  1  0  0  0  0
  5  4  2  0  0  0  0
  6  1  1  0  0  0  0
  7  1  1  0  0  0  0
 12 17  1  0  0  0  0
 12 19  1  0  0  0  0
 13 20  1  6  0  0  0
 13 15  1  0  0  0  0
 13 12  1  0  0  0  0
 13 14  1  0  0  0  0
 14 21  1  0  0  0  0
 15 22  1  0  0  0  0
 16 15  2  0  0  0  0
 18 12  1  0  0  0  0
 22 23  1  0  0  0  0
 22 37  1  0  0  0  0
 23 38  1  6  0  0  0
 23 24  1  0  0  0  0
 24 39  1  0  0  0  0
 24 25  1  0  0  0  0
 24 40  1  0  0  0  0
 25 26  2  0  0  0  0
 26 41  1  0  0  0  0
 27 26  1  0  0  0  0
 27 42  1  0  0  0  0
 28 27  1  0  0  0  0
 29 28  1  0  0  0  0
 29 43  1  0  0  0  0
 30 29  2  0  0  0  0
 31 32  2  0  0  0  0
 31 30  1  0  0  0  0
 32 33  1  0  0  0  0
 33 25  1  0  0  0  0
 33 28  2  0  0  0  0
 34 35  1  0  0  0  0
 34 23  1  0  0  0  0
 36 34  2  0  0  0  0
 44 30  1  0  0  0  0
 45 31  1  0  0  0  0
 46 32  1  0  0  0  0
M  END
$$$$
