ACD.pdb
 OpenBabel07022418003D

 36 35  0  0  1  0  0  0  0  0999 V2000
    0.0970   -2.9890    5.0380 C   0  0  0  0  0  0  0  0  0  0  0  0
   -0.0810   -1.7650    4.1390 C   0  0  2  0  0  0  0  0  0  0  0  0
   -1.4570   -1.7220    3.7430 N   0  0  0  0  0  0  0  0  0  0  0  0
    0.8410   -1.8380    2.9720 C   0  0  0  0  0  0  0  0  0  0  0  0
    2.0870   -1.9040    3.1110 O   0  0  0  0  0  0  0  0  0  0  0  0
   -0.5950   -3.7840    4.6750 H   0  0  0  0  0  0  0  0  0  0  0  0
   -0.2610   -2.6980    6.0440 H   0  0  0  0  0  0  0  0  0  0  0  0
    1.1580   -3.3100    5.0480 H   0  0  0  0  0  0  0  0  0  0  0  0
    0.1550   -0.8790    4.7910 H   0  0  0  0  0  0  0  0  0  0  0  0
   -2.0050   -2.5410    4.0860 H   0  0  0  0  0  0  0  0  0  0  0  0
   -1.9170   -0.8130    3.9740 H   0  0  0  0  0  0  0  0  0  0  0  0
    0.2890   -1.8330    1.6640 N   0  0  0  0  0  0  0  0  0  0  0  0
    1.0770   -1.8950    0.4660 C   0  0  1  0  0  0  0  0  0  0  0  0
    0.6860   -3.1200   -0.3170 C   0  0  0  0  0  0  0  0  0  0  0  0
    1.6840   -3.1850   -1.8290 S   0  0  0  0  0  0  0  0  0  0  0  0
    0.9670   -0.6660   -0.3610 C   0  0  0  0  0  0  0  0  0  0  0  0
    1.6520   -0.6260   -1.3860 O   0  0  0  0  0  0  0  0  0  0  0  0
   -0.7590   -1.7800    1.5210 H   0  0  0  0  0  0  0  0  0  0  0  0
    2.1460   -1.9850    0.7640 H   0  0  0  0  0  0  0  0  0  0  0  0
    0.8200   -4.0330    0.2960 H   0  0  0  0  0  0  0  0  0  0  0  0
   -0.3990   -3.0370   -0.5370 H   0  0  0  0  0  0  0  0  0  0  0  0
    0.9380   -2.8170   -2.9680 H   0  0  0  0  0  0  0  0  0  0  0  0
    0.1350    0.4020   -0.0110 N   0  0  0  0  0  0  0  0  0  0  0  0
   -0.1140    1.6510   -0.6210 C   0  0  1  0  0  0  0  0  0  0  0  0
    0.9770    2.4160   -1.2680 C   0  0  0  0  0  0  0  0  0  0  0  0
    1.7050    1.8870   -2.3900 C   0  0  0  0  0  0  0  0  0  0  0  0
    2.9830    1.8230   -2.3390 O   0  0  0  0  0  0  0  0  0  0  0  0
   -1.3620    1.6420   -1.4420 C   0  0  0  0  0  0  0  0  0  0  0  0
   -2.0380    0.6060   -1.4950 O   0  0  0  0  0  0  0  0  0  0  0  0
    1.1340    1.4200   -3.5740 O   0  0  0  0  0  0  0  0  0  0  0  0
   -1.7440    2.7650   -2.1210 O   0  0  0  0  0  0  0  0  0  0  0  0
   -0.4330    0.2310    0.9140 H   0  0  0  0  0  0  0  0  0  0  0  0
   -0.4080    2.3630    0.2620 H   0  0  0  0  0  0  0  0  0  0  0  0
    1.6950    2.7190   -0.4320 H   0  0  0  0  0  0  0  0  0  0  0  0
    0.5900    3.4450   -1.5940 H   0  0  0  0  0  0  0  0  0  0  0  0
    1.6770    1.2560   -4.4130 H   0  0  0  0  0  0  0  0  0  0  0  0
  1  8  1  0  0  0  0
  1  7  1  0  0  0  0
  2  9  1  1  0  0  0
  2  1  1  0  0  0  0
  3 11  1  0  0  0  0
  3 10  1  0  0  0  0
  3  2  1  0  0  0  0
  4  5  2  0  0  0  0
  4  2  1  0  0  0  0
  6  1  1  0  0  0  0
 12  4  1  0  0  0  0
 13 19  1  1  0  0  0
 13 12  1  0  0  0  0
 14 20  1  0  0  0  0
 14 13  1  0  0  0  0
 15 14  1  0  0  0  0
 16 23  1  0  0  0  0
 16 13  1  0  0  0  0
 17 16  2  0  0  0  0
 18 12  1  0  0  0  0
 21 14  1  0  0  0  0
 22 15  1  0  0  0  0
 23 32  1  0  0  0  0
 24 23  1  0  0  0  0
 24 33  1  1  0  0  0
 25 24  1  0  0  0  0
 25 34  1  0  0  0  0
 26 27  2  0  0  0  0
 26 25  1  0  0  0  0
 28 24  1  0  0  0  0
 29 28  1  0  0  0  0
 30 26  1  0  0  0  0
 31 28  2  0  0  0  0
 35 25  1  0  0  0  0
 36 30  1  0  0  0  0
M  END
$$$$
