ACG.pdb
 OpenBabel07022418003D

 30 29  0  0  1  0  0  0  0  0999 V2000
    0.0590   -2.1980    3.4520 C   0  0  0  0  0  0  0  0  0  0  0  0
   -1.3640   -2.2140    2.8810 C   0  0  2  0  0  0  0  0  0  0  0  0
   -1.8920   -3.5600    2.9330 N   0  0  0  0  0  0  0  0  0  0  0  0
   -1.2570   -1.7780    1.4740 C   0  0  0  0  0  0  0  0  0  0  0  0
   -1.6090   -2.5700    0.5680 O   0  0  0  0  0  0  0  0  0  0  0  0
    0.5130   -3.1620    3.1430 H   0  0  0  0  0  0  0  0  0  0  0  0
    0.5770   -1.3590    2.9830 H   0  0  0  0  0  0  0  0  0  0  0  0
   -0.0630   -2.1050    4.5480 H   0  0  0  0  0  0  0  0  0  0  0  0
   -2.0180   -1.5290    3.4780 H   0  0  0  0  0  0  0  0  0  0  0  0
   -2.8850   -3.5170    2.6080 H   0  0  0  0  0  0  0  0  0  0  0  0
   -1.9150   -3.8340    3.9430 H   0  0  0  0  0  0  0  0  0  0  0  0
   -0.7690   -0.4940    1.1040 N   0  0  0  0  0  0  0  0  0  0  0  0
   -0.6810   -0.1100   -0.2750 C   0  0  1  0  0  0  0  0  0  0  0  0
   -1.6300    1.0720   -0.5130 C   0  0  0  0  0  0  0  0  0  0  0  0
   -1.5910    1.6290   -2.2200 S   0  0  0  0  0  0  0  0  0  0  0  0
    0.6660    0.3580   -0.6570 C   0  0  0  0  0  0  0  0  0  0  0  0
    0.8900    0.7280   -1.8340 O   0  0  0  0  0  0  0  0  0  0  0  0
   -0.4780    0.1560    1.8930 H   0  0  0  0  0  0  0  0  0  0  0  0
   -1.0400   -0.9440   -0.9050 H   0  0  0  0  0  0  0  0  0  0  0  0
   -1.3500    1.9240    0.1370 H   0  0  0  0  0  0  0  0  0  0  0  0
   -2.6490    0.6810   -0.3070 H   0  0  0  0  0  0  0  0  0  0  0  0
   -1.7850    0.5930   -3.1350 H   0  0  0  0  0  0  0  0  0  0  0  0
    1.7000    0.3850    0.3130 N   0  0  0  0  0  0  0  0  0  0  0  0
    3.0470    0.8350   -0.0030 C   0  0  0  0  0  0  0  0  0  0  0  0
    3.6410   -0.0100   -1.0670 C   0  0  0  0  0  0  0  0  0  0  0  0
    4.8090    0.2630   -1.4440 O   0  0  0  0  0  0  0  0  0  0  0  0
    2.8980   -1.0460   -1.5920 O   0  0  0  0  0  0  0  0  0  0  0  0
    1.4590    0.0690    1.2670 H   0  0  0  0  0  0  0  0  0  0  0  0
    3.6300    0.8120    0.9300 H   0  0  0  0  0  0  0  0  0  0  0  0
    3.0500    1.8920   -0.3430 H   0  0  0  0  0  0  0  0  0  0  0  0
  1  8  1  0  0  0  0
  2  3  1  0  0  0  0
  2  1  1  0  0  0  0
  2  9  1  1  0  0  0
  3 11  1  0  0  0  0
  4  2  1  0  0  0  0
  5  4  2  0  0  0  0
  6  1  1  0  0  0  0
  7  1  1  0  0  0  0
 10  3  1  0  0  0  0
 12  4  1  0  0  0  0
 12 18  1  0  0  0  0
 13 19  1  6  0  0  0
 13 12  1  0  0  0  0
 14 21  1  0  0  0  0
 14 13  1  0  0  0  0
 14 20  1  0  0  0  0
 15 14  1  0  0  0  0
 16 13  1  0  0  0  0
 16 23  1  0  0  0  0
 17 16  2  0  0  0  0
 22 15  1  0  0  0  0
 23 28  1  0  0  0  0
 24 23  1  0  0  0  0
 24 29  1  0  0  0  0
 25 24  1  0  0  0  0
 26 25  1  0  0  0  0
 27 25  2  0  0  0  0
 30 24  1  0  0  0  0
M  END
$$$$
