ACH.pdb
 OpenBabel07022418003D

 40 40  0  0  1  0  0  0  0  0999 V2000
    2.6540   -3.6130    1.4540 C   0  0  0  0  0  0  0  0  0  0  0  0
    2.7100   -3.6920   -0.0450 C   0  0  2  0  0  0  0  0  0  0  0  0
    4.0040   -4.1530   -0.4630 N   0  0  0  0  0  0  0  0  0  0  0  0
    2.3780   -2.4020   -0.6900 C   0  0  0  0  0  0  0  0  0  0  0  0
    3.1930   -1.8890   -1.4710 O   0  0  0  0  0  0  0  0  0  0  0  0
    1.6050   -3.5900    1.8330 H   0  0  0  0  0  0  0  0  0  0  0  0
    3.1040   -4.5390    1.8680 H   0  0  0  0  0  0  0  0  0  0  0  0
    3.2480   -2.7660    1.8130 H   0  0  0  0  0  0  0  0  0  0  0  0
    1.9490   -4.4630   -0.3600 H   0  0  0  0  0  0  0  0  0  0  0  0
    3.9840   -4.9610   -1.0980 H   0  0  0  0  0  0  0  0  0  0  0  0
    4.6960   -4.2470    0.3080 H   0  0  0  0  0  0  0  0  0  0  0  0
    1.1590   -1.7140   -0.4590 N   0  0  0  0  0  0  0  0  0  0  0  0
    0.8660   -0.4510   -1.1090 C   0  0  1  0  0  0  0  0  0  0  0  0
   -0.4210   -0.6240   -1.9140 C   0  0  0  0  0  0  0  0  0  0  0  0
   -0.8610    0.9100   -2.7600 S   0  0  0  0  0  0  0  0  0  0  0  0
    0.5840    0.5470   -0.0600 C   0  0  0  0  0  0  0  0  0  0  0  0
    0.3040    1.7200   -0.4160 O   0  0  0  0  0  0  0  0  0  0  0  0
    0.4570   -2.1170    0.1870 H   0  0  0  0  0  0  0  0  0  0  0  0
    1.7080   -0.1730   -1.7540 H   0  0  0  0  0  0  0  0  0  0  0  0
   -1.2380   -0.9000   -1.2250 H   0  0  0  0  0  0  0  0  0  0  0  0
   -0.2740   -1.4020   -2.6720 H   0  0  0  0  0  0  0  0  0  0  0  0
   -2.1290    1.3880   -2.3340 H   0  0  0  0  0  0  0  0  0  0  0  0
    0.6080    0.2730    1.3340 N   0  0  0  0  0  0  0  0  0  0  0  0
    0.3300    1.2630    2.3270 C   0  0  1  0  0  0  0  0  0  0  0  0
   -0.9130    0.9420    3.1350 C   0  0  0  0  0  0  0  0  0  0  0  0
   -2.1060    0.8540    2.2590 C   0  0  0  0  0  0  0  0  0  0  0  0
   -2.9500    1.9220    1.9280 C   0  0  0  0  0  0  0  0  0  0  0  0
   -3.9200    1.4800    1.1200 N   0  0  0  0  0  0  0  0  0  0  0  0
   -3.7360    0.1710    0.9160 C   0  0  0  0  0  0  0  0  0  0  0  0
   -2.6260   -0.2030    1.6140 N   0  0  0  0  0  0  0  0  0  0  0  0
    1.4950    1.5260    3.2090 C   0  0  0  0  0  0  0  0  0  0  0  0
    2.5470    0.8750    2.9930 O   0  0  0  0  0  0  0  0  0  0  0  0
    1.4800    2.4330    4.2380 O   0  0  0  0  0  0  0  0  0  0  0  0
    0.8440   -0.7100    1.6120 H   0  0  0  0  0  0  0  0  0  0  0  0
    0.1070    2.2280    1.7990 H   0  0  0  0  0  0  0  0  0  0  0  0
   -1.0830    1.6720    3.9280 H   0  0  0  0  0  0  0  0  0  0  0  0
   -0.7440   -0.0480    3.6340 H   0  0  0  0  0  0  0  0  0  0  0  0
   -2.7820    2.9270    2.3060 H   0  0  0  0  0  0  0  0  0  0  0  0
   -4.6820    2.0460    0.7190 H   0  0  0  0  0  0  0  0  0  0  0  0
   -4.3640   -0.4750    0.3000 H   0  0  0  0  0  0  0  0  0  0  0  0
  1  8  1  0  0  0  0
  1  6  1  0  0  0  0
  1  7  1  0  0  0  0
  2  9  1  6  0  0  0
  2  1  1  0  0  0  0
  3  2  1  0  0  0  0
  3 11  1  0  0  0  0
  4 12  1  0  0  0  0
  4  2  1  0  0  0  0
  5  4  2  0  0  0  0
 10  3  1  0  0  0  0
 12 18  1  0  0  0  0
 13 19  1  6  0  0  0
 13 12  1  0  0  0  0
 13 16  1  0  0  0  0
 14 20  1  0  0  0  0
 14 13  1  0  0  0  0
 15 22  1  0  0  0  0
 15 14  1  0  0  0  0
 16 23  1  0  0  0  0
 17 16  2  0  0  0  0
 21 14  1  0  0  0  0
 23 34  1  0  0  0  0
 23 24  1  0  0  0  0
 24 35  1  6  0  0  0
 24 25  1  0  0  0  0
 24 31  1  0  0  0  0
 25 37  1  0  0  0  0
 25 36  1  0  0  0  0
 26 25  1  0  0  0  0
 27 26  2  0  0  0  0
 27 38  1  0  0  0  0
 28 27  1  0  0  0  0
 29 28  1  0  0  0  0
 29 30  2  0  0  0  0
 30 26  1  0  0  0  0
 31 33  1  0  0  0  0
 32 31  2  0  0  0  0
 39 28  1  0  0  0  0
 40 29  1  0  0  0  0
M  END
$$$$
