ACK.pdb
 OpenBabel07022418003D

 44 43  0  0  1  0  0  0  0  0999 V2000
    0.2900   -6.7370   -0.2080 C   0  0  0  0  0  0  0  0  0  0  0  0
    0.1420   -5.5150    0.6350 C   0  0  2  0  0  0  0  0  0  0  0  0
   -1.1720   -5.4280    1.2090 N   0  0  0  0  0  0  0  0  0  0  0  0
    0.4180   -4.2530   -0.0910 C   0  0  0  0  0  0  0  0  0  0  0  0
    1.5250   -4.0610   -0.7000 O   0  0  0  0  0  0  0  0  0  0  0  0
   -0.4200   -7.5130    0.1490 H   0  0  0  0  0  0  0  0  0  0  0  0
    0.0620   -6.5720   -1.2760 H   0  0  0  0  0  0  0  0  0  0  0  0
    1.3090   -7.1970   -0.0730 H   0  0  0  0  0  0  0  0  0  0  0  0
    0.9000   -5.5810    1.4540 H   0  0  0  0  0  0  0  0  0  0  0  0
   -1.2720   -6.1640    1.9660 H   0  0  0  0  0  0  0  0  0  0  0  0
   -1.8890   -5.6380    0.4700 H   0  0  0  0  0  0  0  0  0  0  0  0
   -0.5070   -3.2020   -0.1550 N   0  0  0  0  0  0  0  0  0  0  0  0
   -0.2610   -1.9420   -0.8660 C   0  0  1  0  0  0  0  0  0  0  0  0
   -1.2680   -1.7570   -1.9700 C   0  0  0  0  0  0  0  0  0  0  0  0
   -0.9150   -0.2120   -2.8250 S   0  0  0  0  0  0  0  0  0  0  0  0
   -0.4520   -0.8750    0.1380 C   0  0  0  0  0  0  0  0  0  0  0  0
   -0.9060   -1.2140    1.2770 O   0  0  0  0  0  0  0  0  0  0  0  0
   -1.4280   -3.3060    0.3250 H   0  0  0  0  0  0  0  0  0  0  0  0
    0.7350   -2.0020   -1.3040 H   0  0  0  0  0  0  0  0  0  0  0  0
   -2.3190   -1.7690   -1.5650 H   0  0  0  0  0  0  0  0  0  0  0  0
   -1.2380   -2.5610   -2.7240 H   0  0  0  0  0  0  0  0  0  0  0  0
   -1.8600    0.0660   -3.8270 H   0  0  0  0  0  0  0  0  0  0  0  0
   -0.1870    0.4990   -0.0110 N   0  0  0  0  0  0  0  0  0  0  0  0
   -0.4170    1.4820    1.0500 C   0  0  1  0  0  0  0  0  0  0  0  0
    0.8240    2.2260    1.3960 C   0  0  0  0  0  0  0  0  0  0  0  0
    0.6070    3.2200    2.4920 C   0  0  0  0  0  0  0  0  0  0  0  0
    1.8070    3.9950    2.9120 C   0  0  0  0  0  0  0  0  0  0  0  0
    2.9650    3.2620    3.4460 C   0  0  0  0  0  0  0  0  0  0  0  0
    3.6200    2.3180    2.6340 N   0  0  0  0  0  0  0  0  0  0  0  0
   -1.4370    2.4130    0.5380 C   0  0  0  0  0  0  0  0  0  0  0  0
   -1.8280    2.2750   -0.6780 O   0  0  0  0  0  0  0  0  0  0  0  0
   -2.0470    3.4390    1.2110 O   0  0  0  0  0  0  0  0  0  0  0  0
    0.2010    0.8120   -0.9150 H   0  0  0  0  0  0  0  0  0  0  0  0
   -0.8190    1.0040    1.9640 H   0  0  0  0  0  0  0  0  0  0  0  0
    1.1640    2.7590    0.4570 H   0  0  0  0  0  0  0  0  0  0  0  0
    1.6780    1.5740    1.6500 H   0  0  0  0  0  0  0  0  0  0  0  0
    0.0810    2.7490    3.3770 H   0  0  0  0  0  0  0  0  0  0  0  0
   -0.1510    3.9990    2.1650 H   0  0  0  0  0  0  0  0  0  0  0  0
    1.4990    4.7380    3.7060 H   0  0  0  0  0  0  0  0  0  0  0  0
    2.0920    4.6630    2.0490 H   0  0  0  0  0  0  0  0  0  0  0  0
    2.7380    2.7510    4.4300 H   0  0  0  0  0  0  0  0  0  0  0  0
    3.7360    4.0360    3.7430 H   0  0  0  0  0  0  0  0  0  0  0  0
    3.6670    1.3480    2.9910 H   0  0  0  0  0  0  0  0  0  0  0  0
    4.4810    2.6330    2.1500 H   0  0  0  0  0  0  0  0  0  0  0  0
  1  8  1  0  0  0  0
  1  6  1  0  0  0  0
  1  2  1  0  0  0  0
  2  3  1  0  0  0  0
  2  9  1  1  0  0  0
  3 10  1  0  0  0  0
  4  2  1  0  0  0  0
  5  4  2  0  0  0  0
  7  1  1  0  0  0  0
 11  3  1  0  0  0  0
 12  4  1  0  0  0  0
 12 18  1  0  0  0  0
 13 19  1  6  0  0  0
 13 12  1  0  0  0  0
 13 16  1  0  0  0  0
 14 20  1  0  0  0  0
 14 13  1  0  0  0  0
 15 14  1  0  0  0  0
 16 17  2  0  0  0  0
 21 14  1  0  0  0  0
 22 15  1  0  0  0  0
 23 16  1  0  0  0  0
 23 24  1  0  0  0  0
 24 25  1  0  0  0  0
 24 34  1  1  0  0  0
 25 36  1  0  0  0  0
 25 26  1  0  0  0  0
 26 27  1  0  0  0  0
 26 37  1  0  0  0  0
 27 28  1  0  0  0  0
 27 39  1  0  0  0  0
 28 42  1  0  0  0  0
 28 41  1  0  0  0  0
 29 43  1  0  0  0  0
 29 28  1  0  0  0  0
 30 24  1  0  0  0  0
 30 32  1  0  0  0  0
 31 30  2  0  0  0  0
 33 23  1  0  0  0  0
 35 25  1  0  0  0  0
 38 26  1  0  0  0  0
 40 27  1  0  0  0  0
 44 29  1  0  0  0  0
M  END
$$$$
