ACN.pdb
 OpenBabel07022418003D

 37 36  0  0  1  0  0  0  0  0999 V2000
   -0.9880   -3.2380    1.7890 C   0  0  0  0  0  0  0  0  0  0  0  0
    0.4160   -3.8200    1.7270 C   0  0  2  0  0  0  0  0  0  0  0  0
    0.6580   -4.6060    2.9180 N   0  0  0  0  0  0  0  0  0  0  0  0
    1.4310   -2.7540    1.6360 C   0  0  0  0  0  0  0  0  0  0  0  0
    2.3040   -2.6650    2.5160 O   0  0  0  0  0  0  0  0  0  0  0  0
   -1.6020   -3.6540    0.9610 H   0  0  0  0  0  0  0  0  0  0  0  0
   -1.4470   -3.5390    2.7430 H   0  0  0  0  0  0  0  0  0  0  0  0
   -0.8840   -2.1400    1.7220 H   0  0  0  0  0  0  0  0  0  0  0  0
    0.4950   -4.5080    0.8310 H   0  0  0  0  0  0  0  0  0  0  0  0
   -0.0820   -4.4910    3.6390 H   0  0  0  0  0  0  0  0  0  0  0  0
    0.8340   -5.6100    2.7100 H   0  0  0  0  0  0  0  0  0  0  0  0
    1.4650   -1.8050    0.5740 N   0  0  0  0  0  0  0  0  0  0  0  0
    2.4810   -0.7710    0.5190 C   0  0  1  0  0  0  0  0  0  0  0  0
    3.2360   -0.9110   -0.7800 C   0  0  0  0  0  0  0  0  0  0  0  0
    4.5310    0.3560   -0.9180 S   0  0  0  0  0  0  0  0  0  0  0  0
    1.8310    0.5870    0.5000 C   0  0  0  0  0  0  0  0  0  0  0  0
    2.5100    1.6370    0.4500 O   0  0  0  0  0  0  0  0  0  0  0  0
    0.7420   -1.8740   -0.1600 H   0  0  0  0  0  0  0  0  0  0  0  0
    3.1830   -0.8270    1.3640 H   0  0  0  0  0  0  0  0  0  0  0  0
    3.7600   -1.8990   -0.8060 H   0  0  0  0  0  0  0  0  0  0  0  0
    2.5460   -0.8500   -1.6400 H   0  0  0  0  0  0  0  0  0  0  0  0
    4.7610    0.5640   -2.2960 H   0  0  0  0  0  0  0  0  0  0  0  0
   -3.5430    1.4780   -0.3250 N   0  0  0  0  0  0  0  0  0  0  0  0
   -2.2240    1.1860   -0.7450 C   0  0  0  0  0  0  0  0  0  0  0  0
   -1.9900    0.0370   -1.1850 O   0  0  0  0  0  0  0  0  0  0  0  0
   -1.1610    2.1760   -0.6760 C   0  0  0  0  0  0  0  0  0  0  0  0
   -0.2530    2.0070    0.5230 C   0  0  2  0  0  0  0  0  0  0  0  0
    0.4050    0.7250    0.5390 N   0  0  0  0  0  0  0  0  0  0  0  0
   -0.9860    2.1850    1.7980 C   0  0  0  0  0  0  0  0  0  0  0  0
   -0.9560    1.2930    2.6580 O   0  0  0  0  0  0  0  0  0  0  0  0
   -1.7230    3.3290    2.0830 O   0  0  0  0  0  0  0  0  0  0  0  0
   -4.3970    1.2200   -0.8310 H   0  0  0  0  0  0  0  0  0  0  0  0
   -3.6460    1.9980    0.5750 H   0  0  0  0  0  0  0  0  0  0  0  0
   -1.6050    3.1960   -0.5910 H   0  0  0  0  0  0  0  0  0  0  0  0
   -0.5020    2.2060   -1.5710 H   0  0  0  0  0  0  0  0  0  0  0  0
    0.4770    2.8520    0.4730 H   0  0  0  0  0  0  0  0  0  0  0  0
   -0.1440   -0.1610    0.5810 H   0  0  0  0  0  0  0  0  0  0  0  0
  1  7  1  0  0  0  0
  2  9  1  6  0  0  0
  2  1  1  0  0  0  0
  2  3  1  0  0  0  0
  3 10  1  0  0  0  0
  4  2  1  0  0  0  0
  4  5  2  0  0  0  0
  6  1  1  0  0  0  0
  8  1  1  0  0  0  0
 11  3  1  0  0  0  0
 12  4  1  0  0  0  0
 13 12  1  0  0  0  0
 13 19  1  1  0  0  0
 14 13  1  0  0  0  0
 15 14  1  0  0  0  0
 16 13  1  0  0  0  0
 16 28  1  0  0  0  0
 17 16  2  0  0  0  0
 18 12  1  0  0  0  0
 20 14  1  0  0  0  0
 21 14  1  0  0  0  0
 22 15  1  0  0  0  0
 23 33  1  0  0  0  0
 24 26  1  0  0  0  0
 24 23  1  0  0  0  0
 25 24  2  0  0  0  0
 26 34  1  0  0  0  0
 26 27  1  0  0  0  0
 27 36  1  6  0  0  0
 27 28  1  0  0  0  0
 27 29  1  0  0  0  0
 28 37  1  0  0  0  0
 29 31  2  0  0  0  0
 29 30  1  0  0  0  0
 32 23  1  0  0  0  0
 35 26  1  0  0  0  0
M  END
$$$$
