ACR.pdb
 OpenBabel07022418003D

 46 45  0  0  1  0  0  0  0  0999 V2000
    0.2540   -4.5650    2.2180 C   0  0  0  0  0  0  0  0  0  0  0  0
    1.6180   -4.3900    1.5810 C   0  0  2  0  0  0  0  0  0  0  0  0
    2.5880   -4.5610    2.6430 N   0  0  0  0  0  0  0  0  0  0  0  0
    1.7900   -3.0400    1.0070 C   0  0  0  0  0  0  0  0  0  0  0  0
    2.6550   -2.2730    1.4810 O   0  0  0  0  0  0  0  0  0  0  0  0
    0.2550   -5.5810    2.6810 H   0  0  0  0  0  0  0  0  0  0  0  0
    0.1320   -3.8370    3.0400 H   0  0  0  0  0  0  0  0  0  0  0  0
   -0.5670   -4.4610    1.5090 H   0  0  0  0  0  0  0  0  0  0  0  0
    1.8260   -5.1540    0.8230 H   0  0  0  0  0  0  0  0  0  0  0  0
    2.2210   -5.1670    3.3960 H   0  0  0  0  0  0  0  0  0  0  0  0
    2.8660   -3.6060    3.0120 H   0  0  0  0  0  0  0  0  0  0  0  0
    1.0090   -2.5530   -0.0770 N   0  0  0  0  0  0  0  0  0  0  0  0
    1.2510   -1.2250   -0.5660 C   0  0  1  0  0  0  0  0  0  0  0  0
    1.5580   -1.1580   -2.0360 C   0  0  0  0  0  0  0  0  0  0  0  0
    1.8320    0.5860   -2.4650 S   0  0  0  0  0  0  0  0  0  0  0  0
   -0.0040   -0.4120   -0.3050 C   0  0  0  0  0  0  0  0  0  0  0  0
    0.0360    0.7690   -0.6810 O   0  0  0  0  0  0  0  0  0  0  0  0
    0.2910   -3.1530   -0.4930 H   0  0  0  0  0  0  0  0  0  0  0  0
    2.0720   -0.7270    0.0020 H   0  0  0  0  0  0  0  0  0  0  0  0
    2.4210   -1.7590   -2.3310 H   0  0  0  0  0  0  0  0  0  0  0  0
    0.6510   -1.4870   -2.5800 H   0  0  0  0  0  0  0  0  0  0  0  0
    2.6560    1.2110   -1.5240 H   0  0  0  0  0  0  0  0  0  0  0  0
    1.9150    3.7420    0.4590 N   0  0  0  0  0  0  0  0  0  0  0  0
    1.2050    2.9440    1.3900 C   0  0  0  0  0  0  0  0  0  0  0  0
    1.7680    1.9030    1.9070 N   0  0  0  0  0  0  0  0  0  0  0  0
   -0.1190    3.2870    1.7540 N   0  0  0  0  0  0  0  0  0  0  0  0
   -0.8260    2.4940    2.7210 C   0  0  0  0  0  0  0  0  0  0  0  0
   -1.1720    1.1180    2.2200 C   0  0  0  0  0  0  0  0  0  0  0  0
   -2.0620    1.1350    0.9980 C   0  0  0  0  0  0  0  0  0  0  0  0
   -2.3280   -0.3170    0.6240 C   0  0  2  0  0  0  0  0  0  0  0  0
   -1.1040   -0.9940    0.3180 N   0  0  0  0  0  0  0  0  0  0  0  0
   -3.3450   -0.4770   -0.4140 C   0  0  0  0  0  0  0  0  0  0  0  0
   -3.0740   -1.1600   -1.4380 O   0  0  0  0  0  0  0  0  0  0  0  0
   -4.6060    0.0810   -0.3440 O   0  0  0  0  0  0  0  0  0  0  0  0
    2.2300    4.7210    0.7150 H   0  0  0  0  0  0  0  0  0  0  0  0
    2.1660    3.4340   -0.5020 H   0  0  0  0  0  0  0  0  0  0  0  0
    2.7320    1.6280    1.6620 H   0  0  0  0  0  0  0  0  0  0  0  0
   -0.5870    4.1080    1.3290 H   0  0  0  0  0  0  0  0  0  0  0  0
   -0.1480    2.3560    3.5950 H   0  0  0  0  0  0  0  0  0  0  0  0
   -1.7180    3.0260    3.1260 H   0  0  0  0  0  0  0  0  0  0  0  0
   -1.7230    0.5280    2.9940 H   0  0  0  0  0  0  0  0  0  0  0  0
   -0.2370    0.5940    1.9660 H   0  0  0  0  0  0  0  0  0  0  0  0
   -1.6740    1.7470    0.1880 H   0  0  0  0  0  0  0  0  0  0  0  0
   -3.0640    1.5920    1.3020 H   0  0  0  0  0  0  0  0  0  0  0  0
   -2.7030   -0.7170    1.6570 H   0  0  0  0  0  0  0  0  0  0  0  0
   -1.0110   -2.0460    0.5900 H   0  0  0  0  0  0  0  0  0  0  0  0
  1  6  1  0  0  0  0
  1  7  1  0  0  0  0
  2  9  1  6  0  0  0
  2  1  1  0  0  0  0
  2  3  1  0  0  0  0
  3 11  1  0  0  0  0
  3 10  1  0  0  0  0
  4  5  2  0  0  0  0
  4  2  1  0  0  0  0
  8  1  1  0  0  0  0
 12  4  1  0  0  0  0
 13 16  1  0  0  0  0
 13 12  1  0  0  0  0
 13 19  1  1  0  0  0
 14 13  1  0  0  0  0
 15 14  1  0  0  0  0
 15 22  1  0  0  0  0
 16 31  1  0  0  0  0
 17 16  2  0  0  0  0
 18 12  1  0  0  0  0
 20 14  1  0  0  0  0
 21 14  1  0  0  0  0
 23 35  1  0  0  0  0
 23 24  1  0  0  0  0
 24 26  1  0  0  0  0
 24 25  2  0  0  0  0
 26 27  1  0  0  0  0
 27 40  1  0  0  0  0
 27 39  1  0  0  0  0
 28 27  1  0  0  0  0
 28 41  1  0  0  0  0
 29 44  1  0  0  0  0
 29 28  1  0  0  0  0
 30 29  1  0  0  0  0
 30 45  1  1  0  0  0
 31 46  1  0  0  0  0
 31 30  1  0  0  0  0
 32 34  1  0  0  0  0
 32 30  1  0  0  0  0
 33 32  2  0  0  0  0
 36 23  1  0  0  0  0
 37 25  1  0  0  0  0
 38 26  1  0  0  0  0
 42 28  1  0  0  0  0
 43 29  1  0  0  0  0
M  END
$$$$
