ACS.pdb
 OpenBabel07022418003D

 34 33  0  0  1  0  0  0  0  0999 V2000
   -0.3130   -4.5740    0.3160 C   0  0  0  0  0  0  0  0  0  0  0  0
    0.6170   -4.3250    1.5030 C   0  0  2  0  0  0  0  0  0  0  0  0
    0.1580   -5.1370    2.5880 N   0  0  0  0  0  0  0  0  0  0  0  0
    0.5430   -2.8740    1.8000 C   0  0  0  0  0  0  0  0  0  0  0  0
    0.1100   -2.4840    2.9150 O   0  0  0  0  0  0  0  0  0  0  0  0
   -0.2090   -3.7400   -0.3890 H   0  0  0  0  0  0  0  0  0  0  0  0
   -0.1470   -5.5610   -0.1420 H   0  0  0  0  0  0  0  0  0  0  0  0
   -1.3540   -4.5190    0.7490 H   0  0  0  0  0  0  0  0  0  0  0  0
    1.6540   -4.5940    1.2030 H   0  0  0  0  0  0  0  0  0  0  0  0
   -0.8930   -5.1160    2.6430 H   0  0  0  0  0  0  0  0  0  0  0  0
    0.4900   -4.7260    3.4940 H   0  0  0  0  0  0  0  0  0  0  0  0
    0.9630   -1.9350    0.8220 N   0  0  0  0  0  0  0  0  0  0  0  0
    0.9190   -0.5050    1.0410 C   0  0  1  0  0  0  0  0  0  0  0  0
    2.3030    0.1040    0.9680 C   0  0  0  0  0  0  0  0  0  0  0  0
    3.4100   -0.5940    2.2070 S   0  0  0  0  0  0  0  0  0  0  0  0
   -0.0070    0.0970    0.0700 C   0  0  0  0  0  0  0  0  0  0  0  0
   -0.6330   -0.6000   -0.7950 O   0  0  0  0  0  0  0  0  0  0  0  0
    1.3170   -2.3290   -0.0970 H   0  0  0  0  0  0  0  0  0  0  0  0
    0.5130   -0.3500    2.0670 H   0  0  0  0  0  0  0  0  0  0  0  0
    2.7240   -0.1600   -0.0320 H   0  0  0  0  0  0  0  0  0  0  0  0
    2.2850    1.1990    1.0410 H   0  0  0  0  0  0  0  0  0  0  0  0
    3.0640   -0.1940    3.5110 H   0  0  0  0  0  0  0  0  0  0  0  0
   -1.7350    3.8580    0.6690 O   0  0  0  0  0  0  0  0  0  0  0  0
   -2.2570    2.8780   -0.1650 C   0  0  0  0  0  0  0  0  0  0  0  0
   -1.1410    2.1460   -0.8710 C   0  0  2  0  0  0  0  0  0  0  0  0
   -0.2400    1.5000    0.0620 N   0  0  0  0  0  0  0  0  0  0  0  0
   -0.3610    3.1550   -1.6380 C   0  0  0  0  0  0  0  0  0  0  0  0
   -0.9180    3.8630   -2.5240 O   0  0  0  0  0  0  0  0  0  0  0  0
    0.9920    3.3740   -1.4310 O   0  0  0  0  0  0  0  0  0  0  0  0
   -2.2340    3.8090    1.5230 H   0  0  0  0  0  0  0  0  0  0  0  0
   -2.8160    3.4310   -0.9720 H   0  0  0  0  0  0  0  0  0  0  0  0
   -2.9850    2.2210    0.3120 H   0  0  0  0  0  0  0  0  0  0  0  0
   -1.6140    1.4200   -1.5620 H   0  0  0  0  0  0  0  0  0  0  0  0
    0.2550    2.1040    0.7540 H   0  0  0  0  0  0  0  0  0  0  0  0
  1  8  1  0  0  0  0
  1  2  1  0  0  0  0
  2  9  1  6  0  0  0
  2  4  1  0  0  0  0
  2  3  1  0  0  0  0
  3 10  1  0  0  0  0
  3 11  1  0  0  0  0
  4  5  2  0  0  0  0
  6  1  1  0  0  0  0
  7  1  1  0  0  0  0
 12 13  1  0  0  0  0
 12  4  1  0  0  0  0
 13 19  1  1  0  0  0
 14 21  1  0  0  0  0
 14 13  1  0  0  0  0
 14 15  1  0  0  0  0
 15 22  1  0  0  0  0
 16 13  1  0  0  0  0
 17 16  2  0  0  0  0
 18 12  1  0  0  0  0
 20 14  1  0  0  0  0
 23 30  1  0  0  0  0
 24 32  1  0  0  0  0
 24 23  1  0  0  0  0
 25 33  1  6  0  0  0
 25 24  1  0  0  0  0
 25 26  1  0  0  0  0
 26 16  1  0  0  0  0
 26 34  1  0  0  0  0
 27 29  1  0  0  0  0
 27 25  1  0  0  0  0
 28 27  2  0  0  0  0
 31 24  1  0  0  0  0
M  END
$$$$
