ACY.pdb
 OpenBabel07022418003D

 44 44  0  0  1  0  0  0  0  0999 V2000
   -0.5720   -2.6190   -1.2790 C   0  0  0  0  0  0  0  0  0  0  0  0
    0.7620   -3.2660   -1.2950 C   0  0  2  0  0  0  0  0  0  0  0  0
    0.5850   -4.6960   -1.4420 N   0  0  0  0  0  0  0  0  0  0  0  0
    1.6360   -2.9960   -0.1750 C   0  0  0  0  0  0  0  0  0  0  0  0
    2.1030   -3.9580    0.4870 O   0  0  0  0  0  0  0  0  0  0  0  0
   -0.8340   -2.3040   -0.2310 H   0  0  0  0  0  0  0  0  0  0  0  0
   -1.3710   -3.3290   -1.5780 H   0  0  0  0  0  0  0  0  0  0  0  0
   -0.6800   -1.7280   -1.9050 H   0  0  0  0  0  0  0  0  0  0  0  0
    1.2960   -2.9340   -2.2350 H   0  0  0  0  0  0  0  0  0  0  0  0
    0.3640   -5.1780   -0.5460 H   0  0  0  0  0  0  0  0  0  0  0  0
    1.3650   -5.1380   -1.9660 H   0  0  0  0  0  0  0  0  0  0  0  0
    2.0220   -1.6870    0.2500 N   0  0  0  0  0  0  0  0  0  0  0  0
    2.9080   -1.4580    1.3870 C   0  0  1  0  0  0  0  0  0  0  0  0
    4.1190   -0.7180    0.8240 C   0  0  0  0  0  0  0  0  0  0  0  0
    5.3250   -0.3540    2.1140 S   0  0  0  0  0  0  0  0  0  0  0  0
    2.1980   -0.6010    2.3700 C   0  0  0  0  0  0  0  0  0  0  0  0
    2.8130   -0.2970    3.4230 O   0  0  0  0  0  0  0  0  0  0  0  0
    1.6240   -0.9080   -0.3130 H   0  0  0  0  0  0  0  0  0  0  0  0
    3.2230   -2.4000    1.8510 H   0  0  0  0  0  0  0  0  0  0  0  0
    4.6210   -1.3190    0.0430 H   0  0  0  0  0  0  0  0  0  0  0  0
    3.8270    0.2340    0.3590 H   0  0  0  0  0  0  0  0  0  0  0  0
    5.5620   -1.5070    2.8690 H   0  0  0  0  0  0  0  0  0  0  0  0
   -3.5510    1.6320   -2.1070 O   0  0  0  0  0  0  0  0  0  0  0  0
   -2.7790    1.7220   -0.9570 C   0  0  0  0  0  0  0  0  0  0  0  0
   -1.4050    1.7860   -1.0220 C   0  0  0  0  0  0  0  0  0  0  0  0
   -0.6470    1.8740    0.1150 C   0  0  0  0  0  0  0  0  0  0  0  0
   -1.2080    1.9040    1.3770 C   0  0  0  0  0  0  0  0  0  0  0  0
   -0.3060    2.0000    2.5160 C   0  0  0  0  0  0  0  0  0  0  0  0
    0.1630    0.6960    3.0750 C   0  0  2  0  0  0  0  0  0  0  0  0
    0.8780   -0.1250    2.1620 N   0  0  0  0  0  0  0  0  0  0  0  0
   -1.0130   -0.0250    3.6160 C   0  0  0  0  0  0  0  0  0  0  0  0
   -1.7940    0.5030    4.4480 O   0  0  0  0  0  0  0  0  0  0  0  0
   -2.5850    1.8400    1.4500 C   0  0  0  0  0  0  0  0  0  0  0  0
   -3.3600    1.7510    0.3110 C   0  0  0  0  0  0  0  0  0  0  0  0
   -1.2590   -1.3070    3.1980 O   0  0  0  0  0  0  0  0  0  0  0  0
   -4.1420    2.4230   -2.3240 H   0  0  0  0  0  0  0  0  0  0  0  0
   -0.9110    1.7650   -2.0030 H   0  0  0  0  0  0  0  0  0  0  0  0
    0.4430    1.9200   -0.0250 H   0  0  0  0  0  0  0  0  0  0  0  0
   -0.8110    2.6110    3.2990 H   0  0  0  0  0  0  0  0  0  0  0  0
    0.5930    2.5800    2.2170 H   0  0  0  0  0  0  0  0  0  0  0  0
    0.8360    0.8780    3.9540 H   0  0  0  0  0  0  0  0  0  0  0  0
    0.4090   -0.4050    1.2710 H   0  0  0  0  0  0  0  0  0  0  0  0
   -3.0560    1.8620    2.4240 H   0  0  0  0  0  0  0  0  0  0  0  0
   -4.4430    1.7000    0.3420 H   0  0  0  0  0  0  0  0  0  0  0  0
  1  6  1  0  0  0  0
  2  9  1  6  0  0  0
  2  1  1  0  0  0  0
  2  4  1  0  0  0  0
  3  2  1  0  0  0  0
  3 10  1  0  0  0  0
  4 12  1  0  0  0  0
  4  5  2  0  0  0  0
  7  1  1  0  0  0  0
  8  1  1  0  0  0  0
 11  3  1  0  0  0  0
 12 13  1  0  0  0  0
 13 19  1  1  0  0  0
 13 16  1  0  0  0  0
 14 13  1  0  0  0  0
 14 15  1  0  0  0  0
 15 22  1  0  0  0  0
 16 17  2  0  0  0  0
 18 12  1  0  0  0  0
 20 14  1  0  0  0  0
 21 14  1  0  0  0  0
 23 24  1  0  0  0  0
 24 34  1  0  0  0  0
 25 24  2  0  0  0  0
 25 26  1  0  0  0  0
 26 27  2  0  0  0  0
 27 33  1  0  0  0  0
 27 28  1  0  0  0  0
 28 29  1  0  0  0  0
 28 39  1  0  0  0  0
 29 31  1  0  0  0  0
 29 41  1  1  0  0  0
 30 16  1  0  0  0  0
 30 29  1  0  0  0  0
 31 32  1  0  0  0  0
 33 43  1  0  0  0  0
 34 44  1  0  0  0  0
 34 33  2  0  0  0  0
 35 31  2  0  0  0  0
 36 23  1  0  0  0  0
 37 25  1  0  0  0  0
 38 26  1  0  0  0  0
 40 28  1  0  0  0  0
 42 30  1  0  0  0  0
M  END
$$$$
