ADA.pdb
 OpenBabel07022417593D

 35 34  0  0  1  0  0  0  0  0999 V2000
   -0.4090   -3.6130    3.5040 C   0  0  0  0  0  0  0  0  0  0  0  0
    0.6130   -4.1220    2.4770 C   0  0  2  0  0  0  0  0  0  0  0  0
    1.6800   -4.7100    3.2380 N   0  0  0  0  0  0  0  0  0  0  0  0
    1.0580   -2.9540    1.6780 C   0  0  0  0  0  0  0  0  0  0  0  0
    2.2840   -2.6070    1.7350 O   0  0  0  0  0  0  0  0  0  0  0  0
   -1.4230   -3.6250    3.0110 H   0  0  0  0  0  0  0  0  0  0  0  0
   -0.1630   -2.6020    3.8590 H   0  0  0  0  0  0  0  0  0  0  0  0
   -0.4150   -4.3170    4.3620 H   0  0  0  0  0  0  0  0  0  0  0  0
    0.1040   -4.8920    1.9060 H   0  0  0  0  0  0  0  0  0  0  0  0
    2.5560   -4.6550    2.6830 H   0  0  0  0  0  0  0  0  0  0  0  0
    1.4390   -5.7080    3.4230 H   0  0  0  0  0  0  0  0  0  0  0  0
    0.2260   -2.1920    0.8540 N   0  0  0  0  0  0  0  0  0  0  0  0
    0.6720   -1.0370    0.0620 C   0  0  1  0  0  0  0  0  0  0  0  0
    0.3850   -1.4240   -1.3680 C   0  0  0  0  0  0  0  0  0  0  0  0
    0.7610   -0.4400   -2.3740 C   0  0  0  0  0  0  0  0  0  0  0  0
    2.0120   -0.2640   -2.5720 O   0  0  0  0  0  0  0  0  0  0  0  0
    0.0180    0.1890    0.4800 C   0  0  0  0  0  0  0  0  0  0  0  0
   -0.8100    0.1350    1.4410 O   0  0  0  0  0  0  0  0  0  0  0  0
   -0.1040    0.3110   -3.1270 O   0  0  0  0  0  0  0  0  0  0  0  0
   -0.7800   -2.4320    0.7720 H   0  0  0  0  0  0  0  0  0  0  0  0
    1.7750   -0.8890    0.2030 H   0  0  0  0  0  0  0  0  0  0  0  0
   -0.7170   -1.6250   -1.4750 H   0  0  0  0  0  0  0  0  0  0  0  0
    0.8830   -2.4030   -1.5930 H   0  0  0  0  0  0  0  0  0  0  0  0
    0.2200    0.8300   -3.9370 H   0  0  0  0  0  0  0  0  0  0  0  0
    0.6420    3.6370    0.8050 C   0  0  0  0  0  0  0  0  0  0  0  0
   -0.4180    2.6590    0.3270 C   0  0  2  0  0  0  0  0  0  0  0  0
    0.2430    1.4370   -0.1100 N   0  0  0  0  0  0  0  0  0  0  0  0
   -1.2220    3.3060   -0.7020 C   0  0  0  0  0  0  0  0  0  0  0  0
   -1.8350    4.3800   -0.4040 O   0  0  0  0  0  0  0  0  0  0  0  0
   -1.4000    2.8720   -2.0060 O   0  0  0  0  0  0  0  0  0  0  0  0
    0.5180    3.8890    1.8830 H   0  0  0  0  0  0  0  0  0  0  0  0
    1.6700    3.2340    0.6590 H   0  0  0  0  0  0  0  0  0  0  0  0
    0.6270    4.5950    0.2480 H   0  0  0  0  0  0  0  0  0  0  0  0
   -1.0640    2.4260    1.2270 H   0  0  0  0  0  0  0  0  0  0  0  0
    0.9100    1.5710   -0.9110 H   0  0  0  0  0  0  0  0  0  0  0  0
  1  7  1  0  0  0  0
  1  8  1  0  0  0  0
  2  9  1  6  0  0  0
  2  3  1  0  0  0  0
  2  1  1  0  0  0  0
  3 11  1  0  0  0  0
  4  5  2  0  0  0  0
  4  2  1  0  0  0  0
  6  1  1  0  0  0  0
 10  3  1  0  0  0  0
 12  4  1  0  0  0  0
 13 21  1  1  0  0  0
 13 17  1  0  0  0  0
 13 12  1  0  0  0  0
 14 13  1  0  0  0  0
 15 14  1  0  0  0  0
 16 15  2  0  0  0  0
 17 18  2  0  0  0  0
 19 15  1  0  0  0  0
 20 12  1  0  0  0  0
 22 14  1  0  0  0  0
 23 14  1  0  0  0  0
 24 19  1  0  0  0  0
 25 31  1  0  0  0  0
 26 25  1  0  0  0  0
 26 34  1  1  0  0  0
 27 26  1  0  0  0  0
 27 17  1  0  0  0  0
 28 29  1  0  0  0  0
 28 26  1  0  0  0  0
 30 28  2  0  0  0  0
 32 25  1  0  0  0  0
 33 25  1  0  0  0  0
 35 27  1  0  0  0  0
M  END
$$$$
