ADC.pdb
 OpenBabel07022417593D

 36 35  0  0  1  0  0  0  0  0999 V2000
   -1.5060   -3.3380    0.0370 C   0  0  0  0  0  0  0  0  0  0  0  0
   -0.1870   -3.9610    0.4510 C   0  0  2  0  0  0  0  0  0  0  0  0
   -0.4500   -5.0330    1.3760 N   0  0  0  0  0  0  0  0  0  0  0  0
    0.5980   -2.9020    1.1790 C   0  0  0  0  0  0  0  0  0  0  0  0
    0.9030   -3.0260    2.3920 O   0  0  0  0  0  0  0  0  0  0  0  0
   -1.7080   -2.4460    0.6450 H   0  0  0  0  0  0  0  0  0  0  0  0
   -2.3180   -4.0880    0.2340 H   0  0  0  0  0  0  0  0  0  0  0  0
   -1.5010   -3.0700   -1.0410 H   0  0  0  0  0  0  0  0  0  0  0  0
    0.3830   -4.2920   -0.4320 H   0  0  0  0  0  0  0  0  0  0  0  0
   -1.4040   -5.0160    1.7860 H   0  0  0  0  0  0  0  0  0  0  0  0
   -0.1830   -5.9690    1.0090 H   0  0  0  0  0  0  0  0  0  0  0  0
    1.0260   -1.7150    0.5120 N   0  0  0  0  0  0  0  0  0  0  0  0
    1.7960   -0.7030    1.2700 C   0  0  1  0  0  0  0  0  0  0  0  0
    3.0350   -0.4400    0.4510 C   0  0  0  0  0  0  0  0  0  0  0  0
    3.9660    0.5130    1.0290 C   0  0  0  0  0  0  0  0  0  0  0  0
    3.7820    1.0080    2.1570 O   0  0  0  0  0  0  0  0  0  0  0  0
    0.9760    0.5450    1.2470 C   0  0  0  0  0  0  0  0  0  0  0  0
    1.3380    1.6210    1.7970 O   0  0  0  0  0  0  0  0  0  0  0  0
    5.1040    0.9130    0.3450 O   0  0  0  0  0  0  0  0  0  0  0  0
    0.7970   -1.5800   -0.4950 H   0  0  0  0  0  0  0  0  0  0  0  0
    1.9830   -1.0410    2.2890 H   0  0  0  0  0  0  0  0  0  0  0  0
    2.6620   -0.1020   -0.5610 H   0  0  0  0  0  0  0  0  0  0  0  0
    3.4960   -1.4490    0.2610 H   0  0  0  0  0  0  0  0  0  0  0  0
    5.5990    1.7640    0.6170 H   0  0  0  0  0  0  0  0  0  0  0  0
   -0.2650    0.5640    0.5940 N   0  0  0  0  0  0  0  0  0  0  0  0
   -1.1310    1.7150    0.5120 C   0  0  1  0  0  0  0  0  0  0  0  0
   -1.3540    2.1990   -0.8900 C   0  0  0  0  0  0  0  0  0  0  0  0
    0.2450    2.6570   -1.6070 S   0  0  0  0  0  0  0  0  0  0  0  0
   -2.3890    1.4670    1.2390 C   0  0  0  0  0  0  0  0  0  0  0  0
   -3.2900    2.3470    1.2940 O   0  0  0  0  0  0  0  0  0  0  0  0
   -2.5690    0.2440    1.8670 O   0  0  0  0  0  0  0  0  0  0  0  0
   -0.6120   -0.2990    0.1300 H   0  0  0  0  0  0  0  0  0  0  0  0
   -0.6030    2.5400    1.0570 H   0  0  0  0  0  0  0  0  0  0  0  0
   -1.9480    3.1370   -0.8150 H   0  0  0  0  0  0  0  0  0  0  0  0
   -1.9250    1.5160   -1.5220 H   0  0  0  0  0  0  0  0  0  0  0  0
    0.7500    3.8350   -1.0840 H   0  0  0  0  0  0  0  0  0  0  0  0
  1  7  1  0  0  0  0
  1  2  1  0  0  0  0
  1  6  1  0  0  0  0
  2  9  1  6  0  0  0
  2  4  1  0  0  0  0
  2  3  1  0  0  0  0
  3 10  1  0  0  0  0
  4  5  2  0  0  0  0
  8  1  1  0  0  0  0
 11  3  1  0  0  0  0
 12  4  1  0  0  0  0
 12 13  1  0  0  0  0
 13 21  1  1  0  0  0
 14 15  1  0  0  0  0
 14 13  1  0  0  0  0
 15 16  2  0  0  0  0
 17 13  1  0  0  0  0
 17 18  2  0  0  0  0
 19 24  1  0  0  0  0
 19 15  1  0  0  0  0
 20 12  1  0  0  0  0
 22 14  1  0  0  0  0
 23 14  1  0  0  0  0
 25 17  1  0  0  0  0
 26 25  1  0  0  0  0
 26 33  1  1  0  0  0
 26 29  1  0  0  0  0
 27 34  1  0  0  0  0
 27 26  1  0  0  0  0
 28 36  1  0  0  0  0
 28 27  1  0  0  0  0
 29 30  2  0  0  0  0
 29 31  1  0  0  0  0
 32 25  1  0  0  0  0
 35 27  1  0  0  0  0
M  END
$$$$
