ADD.pdb
 OpenBabel07022417593D

 38 37  0  0  1  0  0  0  0  0999 V2000
   -1.5320    0.7930   -3.3540 C   0  0  0  0  0  0  0  0  0  0  0  0
   -1.1820    1.8990   -2.3800 C   0  0  2  0  0  0  0  0  0  0  0  0
   -0.8720    3.1090   -3.1270 N   0  0  0  0  0  0  0  0  0  0  0  0
    0.0060    1.5150   -1.5430 C   0  0  0  0  0  0  0  0  0  0  0  0
    1.0540    2.1640   -1.6010 O   0  0  0  0  0  0  0  0  0  0  0  0
   -2.0050    1.2630   -4.2390 H   0  0  0  0  0  0  0  0  0  0  0  0
   -0.5990    0.2680   -3.6580 H   0  0  0  0  0  0  0  0  0  0  0  0
   -2.2240    0.0450   -2.9310 H   0  0  0  0  0  0  0  0  0  0  0  0
   -2.0590    2.1230   -1.7510 H   0  0  0  0  0  0  0  0  0  0  0  0
   -0.3420    2.8140   -3.9740 H   0  0  0  0  0  0  0  0  0  0  0  0
   -1.7280    3.6510   -3.3340 H   0  0  0  0  0  0  0  0  0  0  0  0
   -0.0820    0.4090   -0.6900 N   0  0  0  0  0  0  0  0  0  0  0  0
    0.8260   -0.2070    0.1770 C   0  0  1  0  0  0  0  0  0  0  0  0
    2.1050    0.4580    0.5460 C   0  0  0  0  0  0  0  0  0  0  0  0
    2.9720    0.5810   -0.6440 C   0  0  0  0  0  0  0  0  0  0  0  0
    2.7120   -0.1560   -1.6590 O   0  0  0  0  0  0  0  0  0  0  0  0
    0.1670   -0.7980    1.3380 C   0  0  0  0  0  0  0  0  0  0  0  0
   -1.1000   -0.6620    1.4050 O   0  0  0  0  0  0  0  0  0  0  0  0
    4.0470    1.4270   -0.7610 O   0  0  0  0  0  0  0  0  0  0  0  0
   -1.0590   -0.0970   -0.6860 H   0  0  0  0  0  0  0  0  0  0  0  0
    1.2290   -1.1110   -0.4700 H   0  0  0  0  0  0  0  0  0  0  0  0
    2.6570   -0.2050    1.2420 H   0  0  0  0  0  0  0  0  0  0  0  0
    1.9810    1.4160    1.0870 H   0  0  0  0  0  0  0  0  0  0  0  0
    4.3590    1.6720   -1.7060 H   0  0  0  0  0  0  0  0  0  0  0  0
    0.8030   -1.4950    2.3740 N   0  0  0  0  0  0  0  0  0  0  0  0
   -0.0000   -2.0280    3.4770 C   0  0  1  0  0  0  0  0  0  0  0  0
    0.1330   -3.5280    3.4220 C   0  0  0  0  0  0  0  0  0  0  0  0
   -0.6500   -4.1320    4.5010 C   0  0  0  0  0  0  0  0  0  0  0  0
   -0.1100   -4.3270    5.6290 O   0  0  0  0  0  0  0  0  0  0  0  0
    0.4520   -1.4400    4.7540 C   0  0  0  0  0  0  0  0  0  0  0  0
    1.4370   -0.6300    4.7190 O   0  0  0  0  0  0  0  0  0  0  0  0
   -1.9600   -4.4850    4.2980 O   0  0  0  0  0  0  0  0  0  0  0  0
   -0.1640   -1.7490    5.9470 O   0  0  0  0  0  0  0  0  0  0  0  0
    1.8290   -1.6280    2.3480 H   0  0  0  0  0  0  0  0  0  0  0  0
   -1.0560   -1.7920    3.2830 H   0  0  0  0  0  0  0  0  0  0  0  0
    1.2010   -3.8620    3.3970 H   0  0  0  0  0  0  0  0  0  0  0  0
   -0.3090   -3.8360    2.4410 H   0  0  0  0  0  0  0  0  0  0  0  0
   -2.5900   -4.7020    5.0680 H   0  0  0  0  0  0  0  0  0  0  0  0
  1  8  1  0  0  0  0
  1  2  1  0  0  0  0
  2  9  1  1  0  0  0
  2  4  1  0  0  0  0
  3  2  1  0  0  0  0
  4 12  1  0  0  0  0
  5  4  2  0  0  0  0
  6  1  1  0  0  0  0
  7  1  1  0  0  0  0
 10  3  1  0  0  0  0
 11  3  1  0  0  0  0
 12 20  1  0  0  0  0
 12 13  1  0  0  0  0
 13 21  1  6  0  0  0
 13 14  1  0  0  0  0
 13 17  1  0  0  0  0
 14 23  1  0  0  0  0
 14 22  1  0  0  0  0
 15 14  1  0  0  0  0
 16 15  2  0  0  0  0
 17 18  2  0  0  0  0
 17 25  1  0  0  0  0
 19 15  1  0  0  0  0
 24 19  1  0  0  0  0
 25 26  1  0  0  0  0
 26 35  1  6  0  0  0
 26 30  1  0  0  0  0
 27 26  1  0  0  0  0
 27 28  1  0  0  0  0
 28 29  2  0  0  0  0
 30 33  1  0  0  0  0
 31 30  2  0  0  0  0
 32 28  1  0  0  0  0
 32 38  1  0  0  0  0
 34 25  1  0  0  0  0
 36 27  1  0  0  0  0
 37 27  1  0  0  0  0
M  END
$$$$
