ADF.pdb
 OpenBabel07022418003D

 45 45  0  0  1  0  0  0  0  0999 V2000
    1.5460    1.7770    4.4900 C   0  0  0  0  0  0  0  0  0  0  0  0
    0.3090    0.9980    4.0620 C   0  0  2  0  0  0  0  0  0  0  0  0
   -0.3200    0.4810    5.2440 N   0  0  0  0  0  0  0  0  0  0  0  0
    0.7730   -0.1620    3.2290 C   0  0  0  0  0  0  0  0  0  0  0  0
    0.6030   -1.2850    3.7030 O   0  0  0  0  0  0  0  0  0  0  0  0
    1.4790    2.0080    5.5780 H   0  0  0  0  0  0  0  0  0  0  0  0
    2.4490    1.1540    4.3680 H   0  0  0  0  0  0  0  0  0  0  0  0
    1.5960    2.6950    3.9030 H   0  0  0  0  0  0  0  0  0  0  0  0
   -0.3730    1.6560    3.5260 H   0  0  0  0  0  0  0  0  0  0  0  0
   -0.6110   -0.5290    5.1370 H   0  0  0  0  0  0  0  0  0  0  0  0
   -1.1710    1.0150    5.5130 H   0  0  0  0  0  0  0  0  0  0  0  0
    1.3690    0.0330    1.9710 N   0  0  0  0  0  0  0  0  0  0  0  0
    1.8830   -0.9010    1.0620 C   0  0  1  0  0  0  0  0  0  0  0  0
    1.7970   -2.3680    1.4530 C   0  0  0  0  0  0  0  0  0  0  0  0
    2.6230   -2.6100    2.6310 C   0  0  0  0  0  0  0  0  0  0  0  0
    3.4160   -1.6990    3.0230 O   0  0  0  0  0  0  0  0  0  0  0  0
    1.4680   -0.6490   -0.3200 C   0  0  0  0  0  0  0  0  0  0  0  0
    1.9140   -1.4140   -1.2310 O   0  0  0  0  0  0  0  0  0  0  0  0
    2.5930   -3.7990    3.3630 O   0  0  0  0  0  0  0  0  0  0  0  0
    1.4350    1.0640    1.6850 H   0  0  0  0  0  0  0  0  0  0  0  0
    3.0520   -0.7730    1.1580 H   0  0  0  0  0  0  0  0  0  0  0  0
    0.7450   -2.6980    1.5670 H   0  0  0  0  0  0  0  0  0  0  0  0
    2.2070   -2.9460    0.6000 H   0  0  0  0  0  0  0  0  0  0  0  0
    3.3520   -3.9510    4.0170 H   0  0  0  0  0  0  0  0  0  0  0  0
    0.6040    0.3950   -0.6710 N   0  0  0  0  0  0  0  0  0  0  0  0
    0.1880    0.6520   -2.0570 C   0  0  1  0  0  0  0  0  0  0  0  0
   -1.3380    0.5120   -2.0560 C   0  0  0  0  0  0  0  0  0  0  0  0
   -1.7780   -0.8220   -1.6380 C   0  0  0  0  0  0  0  0  0  0  0  0
   -1.9890   -1.8810   -2.5150 C   0  0  0  0  0  0  0  0  0  0  0  0
   -2.4020   -3.1100   -2.0530 C   0  0  0  0  0  0  0  0  0  0  0  0
   -2.6200   -3.3370   -0.7070 C   0  0  0  0  0  0  0  0  0  0  0  0
   -2.4160   -2.3060    0.1610 C   0  0  0  0  0  0  0  0  0  0  0  0
   -2.0000   -1.0660   -0.3010 C   0  0  0  0  0  0  0  0  0  0  0  0
    0.5510    2.0370   -2.4360 C   0  0  0  0  0  0  0  0  0  0  0  0
    1.1100    2.8000   -1.6170 O   0  0  0  0  0  0  0  0  0  0  0  0
    0.2830    2.5220   -3.7050 O   0  0  0  0  0  0  0  0  0  0  0  0
    0.2350    1.0190    0.0670 H   0  0  0  0  0  0  0  0  0  0  0  0
    0.6480   -0.0350   -2.7680 H   0  0  0  0  0  0  0  0  0  0  0  0
   -1.7190    1.2560   -1.3240 H   0  0  0  0  0  0  0  0  0  0  0  0
   -1.7520    0.8270   -3.0480 H   0  0  0  0  0  0  0  0  0  0  0  0
   -1.8300   -1.7370   -3.5550 H   0  0  0  0  0  0  0  0  0  0  0  0
   -2.5740   -3.9540   -2.7300 H   0  0  0  0  0  0  0  0  0  0  0  0
   -2.9380   -4.2990   -0.3890 H   0  0  0  0  0  0  0  0  0  0  0  0
   -2.5890   -2.4830    1.2270 H   0  0  0  0  0  0  0  0  0  0  0  0
   -1.8580   -0.2920    0.4560 H   0  0  0  0  0  0  0  0  0  0  0  0
  1  6  1  0  0  0  0
  2  9  1  6  0  0  0
  2  1  1  0  0  0  0
  2  3  1  0  0  0  0
  3 11  1  0  0  0  0
  4  5  2  0  0  0  0
  4  2  1  0  0  0  0
  7  1  1  0  0  0  0
  8  1  1  0  0  0  0
 10  3  1  0  0  0  0
 12  4  1  0  0  0  0
 13 21  1  6  0  0  0
 13 14  1  0  0  0  0
 13 12  1  0  0  0  0
 14 22  1  0  0  0  0
 14 15  1  0  0  0  0
 15 16  2  0  0  0  0
 15 19  1  0  0  0  0
 17 13  1  0  0  0  0
 18 17  2  0  0  0  0
 19 24  1  0  0  0  0
 20 12  1  0  0  0  0
 23 14  1  0  0  0  0
 25 17  1  0  0  0  0
 25 37  1  0  0  0  0
 26 38  1  6  0  0  0
 26 27  1  0  0  0  0
 26 25  1  0  0  0  0
 27 28  1  0  0  0  0
 27 39  1  0  0  0  0
 28 33  1  0  0  0  0
 29 30  1  0  0  0  0
 29 28  2  0  0  0  0
 30 31  2  0  0  0  0
 31 43  1  0  0  0  0
 31 32  1  0  0  0  0
 32 44  1  0  0  0  0
 33 32  2  0  0  0  0
 33 45  1  0  0  0  0
 34 26  1  0  0  0  0
 34 35  1  0  0  0  0
 36 34  2  0  0  0  0
 40 27  1  0  0  0  0
 41 29  1  0  0  0  0
 42 30  1  0  0  0  0
M  END
$$$$
