ADG.pdb
 OpenBabel07022417593D

 32 31  0  0  1  0  0  0  0  0999 V2000
    0.3840   -3.1120    3.8480 C   0  0  0  0  0  0  0  0  0  0  0  0
   -0.0720   -3.0630    2.3840 C   0  0  2  0  0  0  0  0  0  0  0  0
    1.0690   -3.4830    1.6010 N   0  0  0  0  0  0  0  0  0  0  0  0
   -0.4580   -1.6690    2.1170 C   0  0  0  0  0  0  0  0  0  0  0  0
   -1.4610   -1.1950    2.7470 O   0  0  0  0  0  0  0  0  0  0  0  0
    0.7930   -4.0850    4.1130 H   0  0  0  0  0  0  0  0  0  0  0  0
   -0.3870   -2.7160    4.5240 H   0  0  0  0  0  0  0  0  0  0  0  0
    1.2390   -2.3840    3.8970 H   0  0  0  0  0  0  0  0  0  0  0  0
   -0.8920   -3.7910    2.2930 H   0  0  0  0  0  0  0  0  0  0  0  0
    1.4100   -4.4180    1.9150 H   0  0  0  0  0  0  0  0  0  0  0  0
    1.8380   -2.7620    1.7370 H   0  0  0  0  0  0  0  0  0  0  0  0
    0.1870   -0.8010    1.2220 N   0  0  0  0  0  0  0  0  0  0  0  0
   -0.2310    0.5510    1.0000 C   0  0  1  0  0  0  0  0  0  0  0  0
    0.8440    1.5650    1.3230 C   0  0  0  0  0  0  0  0  0  0  0  0
    2.0670    1.3810    0.5100 C   0  0  0  0  0  0  0  0  0  0  0  0
    2.8640    0.4430    0.7790 O   0  0  0  0  0  0  0  0  0  0  0  0
   -0.5900    0.7490   -0.4300 C   0  0  0  0  0  0  0  0  0  0  0  0
   -0.9870    1.8710   -0.8420 O   0  0  0  0  0  0  0  0  0  0  0  0
    2.3960    2.2030   -0.5620 O   0  0  0  0  0  0  0  0  0  0  0  0
    1.0110   -1.1520    0.6870 H   0  0  0  0  0  0  0  0  0  0  0  0
   -1.1180    0.8380    1.5990 H   0  0  0  0  0  0  0  0  0  0  0  0
    0.4230    2.5600    1.0520 H   0  0  0  0  0  0  0  0  0  0  0  0
    1.0570    1.6160    2.4120 H   0  0  0  0  0  0  0  0  0  0  0  0
    3.2710    2.1240   -1.0790 H   0  0  0  0  0  0  0  0  0  0  0  0
   -0.5130   -0.2870   -1.4020 N   0  0  0  0  0  0  0  0  0  0  0  0
   -0.8640   -0.0870   -2.7880 C   0  0  0  0  0  0  0  0  0  0  0  0
   -2.2810    0.3370   -2.9150 C   0  0  0  0  0  0  0  0  0  0  0  0
   -2.7920    0.5670   -4.0360 O   0  0  0  0  0  0  0  0  0  0  0  0
   -3.0360    0.4760   -1.7750 O   0  0  0  0  0  0  0  0  0  0  0  0
   -0.1900   -1.2270   -1.1030 H   0  0  0  0  0  0  0  0  0  0  0  0
   -0.2130    0.6730   -3.2730 H   0  0  0  0  0  0  0  0  0  0  0  0
   -0.7810   -1.0410   -3.3410 H   0  0  0  0  0  0  0  0  0  0  0  0
  1  8  1  0  0  0  0
  1  6  1  0  0  0  0
  1  7  1  0  0  0  0
  2  9  1  6  0  0  0
  2  1  1  0  0  0  0
  3 11  1  0  0  0  0
  3 10  1  0  0  0  0
  3  2  1  0  0  0  0
  4  2  1  0  0  0  0
  4  5  2  0  0  0  0
 12  4  1  0  0  0  0
 13 12  1  0  0  0  0
 13 14  1  0  0  0  0
 13 21  1  1  0  0  0
 14 23  1  0  0  0  0
 15 16  2  0  0  0  0
 15 14  1  0  0  0  0
 17 13  1  0  0  0  0
 18 17  2  0  0  0  0
 19 15  1  0  0  0  0
 20 12  1  0  0  0  0
 22 14  1  0  0  0  0
 24 19  1  0  0  0  0
 25 30  1  0  0  0  0
 25 17  1  0  0  0  0
 26 25  1  0  0  0  0
 27 26  1  0  0  0  0
 27 29  1  0  0  0  0
 28 27  2  0  0  0  0
 31 26  1  0  0  0  0
 32 26  1  0  0  0  0
M  END
$$$$
