ADH.pdb
 OpenBabel07022417593D

 42 42  0  0  1  0  0  0  0  0999 V2000
   -2.8140   -4.2830    1.5160 C   0  0  0  0  0  0  0  0  0  0  0  0
   -1.5560   -3.4800    1.4680 C   0  0  2  0  0  0  0  0  0  0  0  0
   -1.4130   -2.5840    2.5990 N   0  0  0  0  0  0  0  0  0  0  0  0
   -1.3990   -2.7250    0.1780 C   0  0  0  0  0  0  0  0  0  0  0  0
   -1.5060   -3.3070   -0.9290 O   0  0  0  0  0  0  0  0  0  0  0  0
   -3.4260   -4.1880    0.5960 H   0  0  0  0  0  0  0  0  0  0  0  0
   -3.4080   -3.9390    2.3970 H   0  0  0  0  0  0  0  0  0  0  0  0
   -2.5910   -5.3610    1.7400 H   0  0  0  0  0  0  0  0  0  0  0  0
   -0.6960   -4.1800    1.5000 H   0  0  0  0  0  0  0  0  0  0  0  0
   -1.7310   -2.9880    3.4840 H   0  0  0  0  0  0  0  0  0  0  0  0
   -0.4470   -2.1870    2.5930 H   0  0  0  0  0  0  0  0  0  0  0  0
   -1.1260   -1.3250    0.1610 N   0  0  0  0  0  0  0  0  0  0  0  0
   -0.9690   -0.5590   -1.0420 C   0  0  1  0  0  0  0  0  0  0  0  0
   -2.0370    0.5430   -1.1320 C   0  0  0  0  0  0  0  0  0  0  0  0
   -1.8370    1.3080   -2.3940 C   0  0  0  0  0  0  0  0  0  0  0  0
   -1.7960    0.6590   -3.4760 O   0  0  0  0  0  0  0  0  0  0  0  0
    0.3340    0.2040   -1.0260 C   0  0  0  0  0  0  0  0  0  0  0  0
    0.6450    0.9270   -2.0070 O   0  0  0  0  0  0  0  0  0  0  0  0
   -1.6920    2.6910   -2.4580 O   0  0  0  0  0  0  0  0  0  0  0  0
   -1.0400   -0.8660    1.0990 H   0  0  0  0  0  0  0  0  0  0  0  0
   -1.0890   -1.1680   -1.9530 H   0  0  0  0  0  0  0  0  0  0  0  0
   -3.0390    0.0860   -1.1860 H   0  0  0  0  0  0  0  0  0  0  0  0
   -1.9840    1.1870   -0.2330 H   0  0  0  0  0  0  0  0  0  0  0  0
   -1.2360    3.1670   -3.2640 H   0  0  0  0  0  0  0  0  0  0  0  0
    1.2360    0.1500    0.0570 N   0  0  0  0  0  0  0  0  0  0  0  0
    2.4900    0.8740    0.1130 C   0  0  1  0  0  0  0  0  0  0  0  0
    2.5630    1.8050    1.2910 C   0  0  0  0  0  0  0  0  0  0  0  0
    2.4300    1.0960    2.5980 C   0  0  0  0  0  0  0  0  0  0  0  0
    3.4880    0.5860    3.3150 C   0  0  0  0  0  0  0  0  0  0  0  0
    2.9930    0.0240    4.4210 N   0  0  0  0  0  0  0  0  0  0  0  0
    1.6710    0.1690    4.4100 C   0  0  0  0  0  0  0  0  0  0  0  0
    1.3230    0.8270    3.2920 N   0  0  0  0  0  0  0  0  0  0  0  0
    3.5740   -0.1270    0.2600 C   0  0  0  0  0  0  0  0  0  0  0  0
    3.3520   -1.3510    0.3140 O   0  0  0  0  0  0  0  0  0  0  0  0
    4.8910    0.3300    0.3400 O   0  0  0  0  0  0  0  0  0  0  0  0
    1.0000   -0.4430    0.8750 H   0  0  0  0  0  0  0  0  0  0  0  0
    2.6710    1.4920   -0.7910 H   0  0  0  0  0  0  0  0  0  0  0  0
    1.8170    2.6100    1.1610 H   0  0  0  0  0  0  0  0  0  0  0  0
    3.5620    2.2790    1.2900 H   0  0  0  0  0  0  0  0  0  0  0  0
    4.5340    0.6280    3.0500 H   0  0  0  0  0  0  0  0  0  0  0  0
    3.5660   -0.4480    5.1530 H   0  0  0  0  0  0  0  0  0  0  0  0
    0.9960   -0.1990    5.2000 H   0  0  0  0  0  0  0  0  0  0  0  0
  1  8  1  0  0  0  0
  1  7  1  0  0  0  0
  2  9  1  1  0  0  0
  2  1  1  0  0  0  0
  2  3  1  0  0  0  0
  3 10  1  0  0  0  0
  4  2  1  0  0  0  0
  5  4  2  0  0  0  0
  6  1  1  0  0  0  0
 11  3  1  0  0  0  0
 12  4  1  0  0  0  0
 12 20  1  0  0  0  0
 13 21  1  6  0  0  0
 13 17  1  0  0  0  0
 13 12  1  0  0  0  0
 14 13  1  0  0  0  0
 14 23  1  0  0  0  0
 15 14  1  0  0  0  0
 16 15  2  0  0  0  0
 17 25  1  0  0  0  0
 18 17  2  0  0  0  0
 19 15  1  0  0  0  0
 22 14  1  0  0  0  0
 24 19  1  0  0  0  0
 25 26  1  0  0  0  0
 25 36  1  0  0  0  0
 26 37  1  6  0  0  0
 26 33  1  0  0  0  0
 26 27  1  0  0  0  0
 27 28  1  0  0  0  0
 28 32  1  0  0  0  0
 28 29  2  0  0  0  0
 29 30  1  0  0  0  0
 30 41  1  0  0  0  0
 31 30  1  0  0  0  0
 31 42  1  0  0  0  0
 32 31  2  0  0  0  0
 33 34  2  0  0  0  0
 33 35  1  0  0  0  0
 38 27  1  0  0  0  0
 39 27  1  0  0  0  0
 40 29  1  0  0  0  0
M  END
$$$$
