ADM.pdb
 OpenBabel07022418003D

 42 41  0  0  1  0  0  0  0  0999 V2000
    3.5510   -2.0650    0.9980 C   0  0  0  0  0  0  0  0  0  0  0  0
    3.5500   -2.3960   -0.4580 C   0  0  2  0  0  0  0  0  0  0  0  0
    4.8520   -2.1620   -1.0080 N   0  0  0  0  0  0  0  0  0  0  0  0
    2.4830   -1.6540   -1.1860 C   0  0  0  0  0  0  0  0  0  0  0  0
    2.8320   -0.9600   -2.1730 O   0  0  0  0  0  0  0  0  0  0  0  0
    2.4880   -2.1790    1.3600 H   0  0  0  0  0  0  0  0  0  0  0  0
    4.2030   -2.8200    1.5210 H   0  0  0  0  0  0  0  0  0  0  0  0
    3.9280   -1.0640    1.2400 H   0  0  0  0  0  0  0  0  0  0  0  0
    3.3400   -3.4930   -0.5580 H   0  0  0  0  0  0  0  0  0  0  0  0
    5.5280   -2.7810   -0.5290 H   0  0  0  0  0  0  0  0  0  0  0  0
    5.1550   -1.1750   -0.9300 H   0  0  0  0  0  0  0  0  0  0  0  0
    1.1290   -1.7190   -0.7950 N   0  0  0  0  0  0  0  0  0  0  0  0
    0.1380   -0.9630   -1.5600 C   0  0  1  0  0  0  0  0  0  0  0  0
   -0.8140   -2.0060   -2.0970 C   0  0  0  0  0  0  0  0  0  0  0  0
   -1.8880   -1.4750   -2.9270 C   0  0  0  0  0  0  0  0  0  0  0  0
   -1.9760   -0.2790   -3.2280 O   0  0  0  0  0  0  0  0  0  0  0  0
   -0.5290    0.0120   -0.6450 C   0  0  0  0  0  0  0  0  0  0  0  0
   -1.4200    0.8180   -0.9970 O   0  0  0  0  0  0  0  0  0  0  0  0
   -2.8630   -2.3330   -3.4100 O   0  0  0  0  0  0  0  0  0  0  0  0
    0.8100   -2.2810    0.0080 H   0  0  0  0  0  0  0  0  0  0  0  0
    0.6440   -0.4860   -2.3890 H   0  0  0  0  0  0  0  0  0  0  0  0
   -0.2500   -2.7660   -2.7150 H   0  0  0  0  0  0  0  0  0  0  0  0
   -1.2150   -2.6290   -1.2490 H   0  0  0  0  0  0  0  0  0  0  0  0
   -3.7420   -1.9940   -3.7970 H   0  0  0  0  0  0  0  0  0  0  0  0
   -0.2670    0.6670    5.8410 C   0  0  0  0  0  0  0  0  0  0  0  0
   -1.1850    1.8890    4.8510 S   0  0  0  0  0  0  0  0  0  0  0  0
   -2.2410    0.9890    3.7060 C   0  0  0  0  0  0  0  0  0  0  0  0
   -1.5400    0.2020    2.6600 C   0  0  0  0  0  0  0  0  0  0  0  0
   -0.7570    0.9750    1.6750 C   0  0  2  0  0  0  0  0  0  0  0  0
   -0.1220    0.0190    0.7140 N   0  0  0  0  0  0  0  0  0  0  0  0
    0.2490    1.9250    2.1340 C   0  0  0  0  0  0  0  0  0  0  0  0
    1.5060    1.7420    1.8720 O   0  0  0  0  0  0  0  0  0  0  0  0
    0.0280    3.0810    2.8580 O   0  0  0  0  0  0  0  0  0  0  0  0
    0.8280    0.7760    5.7090 H   0  0  0  0  0  0  0  0  0  0  0  0
   -0.5920    0.7810    6.8910 H   0  0  0  0  0  0  0  0  0  0  0  0
   -0.5100   -0.3730    5.5360 H   0  0  0  0  0  0  0  0  0  0  0  0
   -2.8820    0.3100    4.3550 H   0  0  0  0  0  0  0  0  0  0  0  0
   -2.9760    1.7160    3.2780 H   0  0  0  0  0  0  0  0  0  0  0  0
   -0.9430   -0.6450    3.1160 H   0  0  0  0  0  0  0  0  0  0  0  0
   -2.3690   -0.3830    2.1300 H   0  0  0  0  0  0  0  0  0  0  0  0
   -1.4830    1.5510    1.0520 H   0  0  0  0  0  0  0  0  0  0  0  0
    0.6080   -0.6030    1.1240 H   0  0  0  0  0  0  0  0  0  0  0  0
  1  8  1  0  0  0  0
  1  6  1  0  0  0  0
  1  7  1  0  0  0  0
  2  9  1  6  0  0  0
  2  1  1  0  0  0  0
  3 11  1  0  0  0  0
  3 10  1  0  0  0  0
  3  2  1  0  0  0  0
  4 12  1  0  0  0  0
  4  2  1  0  0  0  0
  5  4  2  0  0  0  0
 12 20  1  0  0  0  0
 13 21  1  6  0  0  0
 13 12  1  0  0  0  0
 13 17  1  0  0  0  0
 14 13  1  0  0  0  0
 14 23  1  0  0  0  0
 15 14  1  0  0  0  0
 16 15  2  0  0  0  0
 17 30  1  0  0  0  0
 18 17  2  0  0  0  0
 19 15  1  0  0  0  0
 22 14  1  0  0  0  0
 24 19  1  0  0  0  0
 25 35  1  0  0  0  0
 26 25  1  0  0  0  0
 27 37  1  0  0  0  0
 27 26  1  0  0  0  0
 28 39  1  0  0  0  0
 28 27  1  0  0  0  0
 29 41  1  6  0  0  0
 29 31  1  0  0  0  0
 29 28  1  0  0  0  0
 30 42  1  0  0  0  0
 30 29  1  0  0  0  0
 31 33  1  0  0  0  0
 32 31  2  0  0  0  0
 34 25  1  0  0  0  0
 36 25  1  0  0  0  0
 38 27  1  0  0  0  0
 40 28  1  0  0  0  0
M  END
$$$$
