ADQ.pdb
 OpenBabel07022417593D

 42 41  0  0  1  0  0  0  0  0999 V2000
    0.0920   -5.4540    0.9200 C   0  0  0  0  0  0  0  0  0  0  0  0
    1.0010   -4.9530   -0.1850 C   0  0  2  0  0  0  0  0  0  0  0  0
    2.3060   -5.5680   -0.0070 N   0  0  0  0  0  0  0  0  0  0  0  0
    1.1800   -3.4800   -0.1440 C   0  0  0  0  0  0  0  0  0  0  0  0
    2.3260   -2.9630   -0.0170 O   0  0  0  0  0  0  0  0  0  0  0  0
    0.5010   -6.3800    1.3140 H   0  0  0  0  0  0  0  0  0  0  0  0
    0.0530   -4.6680    1.6950 H   0  0  0  0  0  0  0  0  0  0  0  0
   -0.9470   -5.5790    0.5410 H   0  0  0  0  0  0  0  0  0  0  0  0
    0.6020   -5.2930   -1.1640 H   0  0  0  0  0  0  0  0  0  0  0  0
    3.0180   -5.1700   -0.6290 H   0  0  0  0  0  0  0  0  0  0  0  0
    2.5780   -5.6650    0.9920 H   0  0  0  0  0  0  0  0  0  0  0  0
    0.0930   -2.5740   -0.2440 N   0  0  0  0  0  0  0  0  0  0  0  0
    0.2660   -1.1300   -0.2050 C   0  0  1  0  0  0  0  0  0  0  0  0
   -0.3550   -0.5370   -1.4500 C   0  0  0  0  0  0  0  0  0  0  0  0
    0.3550   -1.1280   -2.6070 C   0  0  0  0  0  0  0  0  0  0  0  0
    0.1100   -2.2780   -3.0090 O   0  0  0  0  0  0  0  0  0  0  0  0
   -0.3550   -0.5540    1.0210 C   0  0  0  0  0  0  0  0  0  0  0  0
   -0.9390   -1.2820    1.8830 O   0  0  0  0  0  0  0  0  0  0  0  0
    1.3170   -0.3710   -3.2500 O   0  0  0  0  0  0  0  0  0  0  0  0
   -0.8560   -2.9930   -0.3490 H   0  0  0  0  0  0  0  0  0  0  0  0
    1.3420   -0.8570   -0.1540 H   0  0  0  0  0  0  0  0  0  0  0  0
   -1.4320   -0.8110   -1.5160 H   0  0  0  0  0  0  0  0  0  0  0  0
   -0.1910    0.5470   -1.4570 H   0  0  0  0  0  0  0  0  0  0  0  0
    1.9260   -0.7060   -3.9740 H   0  0  0  0  0  0  0  0  0  0  0  0
    2.6800    3.5380    1.5420 N   0  0  0  0  0  0  0  0  0  0  0  0
    1.9350    2.6060    2.3000 C   0  0  0  0  0  0  0  0  0  0  0  0
    2.2440    1.3860    2.1530 O   0  0  0  0  0  0  0  0  0  0  0  0
    0.8690    2.9980    3.2120 C   0  0  0  0  0  0  0  0  0  0  0  0
   -0.1140    1.9270    3.5850 C   0  0  0  0  0  0  0  0  0  0  0  0
   -0.9190    1.4100    2.4700 C   0  0  2  0  0  0  0  0  0  0  0  0
   -0.3560    0.8160    1.3380 N   0  0  0  0  0  0  0  0  0  0  0  0
   -1.8990    2.4460    2.0600 C   0  0  0  0  0  0  0  0  0  0  0  0
   -2.1310    2.6950    0.8590 O   0  0  0  0  0  0  0  0  0  0  0  0
   -2.5600    3.1420    3.0520 O   0  0  0  0  0  0  0  0  0  0  0  0
    2.3620    4.5310    1.5390 H   0  0  0  0  0  0  0  0  0  0  0  0
    3.5190    3.3130    0.9860 H   0  0  0  0  0  0  0  0  0  0  0  0
    1.3890    3.4240    4.1240 H   0  0  0  0  0  0  0  0  0  0  0  0
    0.3280    3.8900    2.8040 H   0  0  0  0  0  0  0  0  0  0  0  0
   -0.8460    2.4440    4.2850 H   0  0  0  0  0  0  0  0  0  0  0  0
    0.3340    1.1500    4.2470 H   0  0  0  0  0  0  0  0  0  0  0  0
   -1.5830    0.5750    2.9210 H   0  0  0  0  0  0  0  0  0  0  0  0
    0.1010    1.4620    0.6260 H   0  0  0  0  0  0  0  0  0  0  0  0
  1  6  1  0  0  0  0
  1  7  1  0  0  0  0
  2  9  1  6  0  0  0
  2  4  1  0  0  0  0
  2  3  1  0  0  0  0
  2  1  1  0  0  0  0
  3 11  1  0  0  0  0
  4  5  2  0  0  0  0
  8  1  1  0  0  0  0
 10  3  1  0  0  0  0
 12 13  1  0  0  0  0
 12  4  1  0  0  0  0
 13 21  1  1  0  0  0
 13 17  1  0  0  0  0
 14 13  1  0  0  0  0
 15 14  1  0  0  0  0
 16 15  2  0  0  0  0
 17 31  1  0  0  0  0
 17 18  2  0  0  0  0
 19 15  1  0  0  0  0
 20 12  1  0  0  0  0
 22 14  1  0  0  0  0
 23 14  1  0  0  0  0
 24 19  1  0  0  0  0
 25 26  1  0  0  0  0
 26 28  1  0  0  0  0
 27 26  2  0  0  0  0
 28 29  1  0  0  0  0
 28 37  1  0  0  0  0
 29 40  1  0  0  0  0
 29 39  1  0  0  0  0
 30 41  1  1  0  0  0
 30 29  1  0  0  0  0
 31 30  1  0  0  0  0
 32 30  1  0  0  0  0
 32 34  1  0  0  0  0
 33 32  2  0  0  0  0
 35 25  1  0  0  0  0
 36 25  1  0  0  0  0
 38 28  1  0  0  0  0
 42 31  1  0  0  0  0
M  END
$$$$
