ADR.pdb
 OpenBabel07022417593D

 48 47  0  0  1  0  0  0  0  0999 V2000
    5.5890   -0.1520    0.1640 C   0  0  0  0  0  0  0  0  0  0  0  0
    4.3830   -0.8540    0.7760 C   0  0  2  0  0  0  0  0  0  0  0  0
    4.2910   -2.1700    0.1270 N   0  0  0  0  0  0  0  0  0  0  0  0
    3.1420   -0.1060    0.4030 C   0  0  0  0  0  0  0  0  0  0  0  0
    3.0110    1.0410    0.8720 O   0  0  0  0  0  0  0  0  0  0  0  0
    5.4650    0.9520    0.2050 H   0  0  0  0  0  0  0  0  0  0  0  0
    5.6220   -0.4790   -0.9100 H   0  0  0  0  0  0  0  0  0  0  0  0
    6.4800   -0.5080    0.7100 H   0  0  0  0  0  0  0  0  0  0  0  0
    4.4860   -0.9900    1.8550 H   0  0  0  0  0  0  0  0  0  0  0  0
    4.2800   -2.0700   -0.9120 H   0  0  0  0  0  0  0  0  0  0  0  0
    3.5150   -2.7350    0.4970 H   0  0  0  0  0  0  0  0  0  0  0  0
    2.1370   -0.6230   -0.4340 N   0  0  0  0  0  0  0  0  0  0  0  0
    0.9390    0.0790   -0.8040 C   0  0  1  0  0  0  0  0  0  0  0  0
    0.8520    0.3560   -2.2870 C   0  0  0  0  0  0  0  0  0  0  0  0
    0.8730   -0.9360   -3.0500 C   0  0  0  0  0  0  0  0  0  0  0  0
   -0.1700   -1.6340   -3.1070 O   0  0  0  0  0  0  0  0  0  0  0  0
   -0.2680   -0.6330   -0.3060 C   0  0  0  0  0  0  0  0  0  0  0  0
   -0.1230   -1.7120    0.3330 O   0  0  0  0  0  0  0  0  0  0  0  0
    1.9960   -1.3960   -3.6970 O   0  0  0  0  0  0  0  0  0  0  0  0
    2.2950   -1.5980   -0.8050 H   0  0  0  0  0  0  0  0  0  0  0  0
    0.9410    1.0740   -0.3070 H   0  0  0  0  0  0  0  0  0  0  0  0
    1.6400    1.0560   -2.6280 H   0  0  0  0  0  0  0  0  0  0  0  0
   -0.1150    0.8340   -2.5490 H   0  0  0  0  0  0  0  0  0  0  0  0
    2.0550   -2.2800   -4.1820 H   0  0  0  0  0  0  0  0  0  0  0  0
   -0.4540   -0.5620    6.1070 N   0  0  0  0  0  0  0  0  0  0  0  0
   -1.3530   -1.0100    5.0800 C   0  0  0  0  0  0  0  0  0  0  0  0
   -1.6770   -2.2460    5.0510 N   0  0  0  0  0  0  0  0  0  0  0  0
   -1.8380   -0.0540    4.1460 N   0  0  0  0  0  0  0  0  0  0  0  0
   -2.4760   -0.5610    2.9620 C   0  0  0  0  0  0  0  0  0  0  0  0
   -2.9490    0.5600    2.0520 C   0  0  0  0  0  0  0  0  0  0  0  0
   -3.6090    0.0420    0.8180 C   0  0  0  0  0  0  0  0  0  0  0  0
   -2.7480   -0.8170   -0.0510 C   0  0  2  0  0  0  0  0  0  0  0  0
   -1.5760   -0.1310   -0.5310 N   0  0  0  0  0  0  0  0  0  0  0  0
   -3.5940   -1.2470   -1.2140 C   0  0  0  0  0  0  0  0  0  0  0  0
   -3.2710   -1.0140   -2.4050 O   0  0  0  0  0  0  0  0  0  0  0  0
   -4.7770   -1.9280   -0.9680 O   0  0  0  0  0  0  0  0  0  0  0  0
   -0.8270   -0.3930    7.0450 H   0  0  0  0  0  0  0  0  0  0  0  0
    0.5430   -0.4390    5.8080 H   0  0  0  0  0  0  0  0  0  0  0  0
   -1.3090   -2.9260    5.7450 H   0  0  0  0  0  0  0  0  0  0  0  0
   -1.7260    0.9720    4.3310 H   0  0  0  0  0  0  0  0  0  0  0  0
   -1.8620   -1.2630    2.3980 H   0  0  0  0  0  0  0  0  0  0  0  0
   -3.3910   -1.1420    3.2790 H   0  0  0  0  0  0  0  0  0  0  0  0
   -2.1400    1.2860    1.8430 H   0  0  0  0  0  0  0  0  0  0  0  0
   -3.7160    1.1180    2.6290 H   0  0  0  0  0  0  0  0  0  0  0  0
   -3.9650    0.9510    0.2480 H   0  0  0  0  0  0  0  0  0  0  0  0
   -4.5430   -0.4700    1.1250 H   0  0  0  0  0  0  0  0  0  0  0  0
   -2.5000   -1.7390    0.5080 H   0  0  0  0  0  0  0  0  0  0  0  0
   -1.6210    0.7690   -1.0690 H   0  0  0  0  0  0  0  0  0  0  0  0
  1  6  1  0  0  0  0
  1  8  1  0  0  0  0
  1  2  1  0  0  0  0
  2  9  1  1  0  0  0
  3 11  1  0  0  0  0
  3  2  1  0  0  0  0
  4  2  1  0  0  0  0
  4  5  2  0  0  0  0
  7  1  1  0  0  0  0
 10  3  1  0  0  0  0
 12  4  1  0  0  0  0
 13 12  1  0  0  0  0
 13 21  1  1  0  0  0
 13 17  1  0  0  0  0
 14 13  1  0  0  0  0
 15 14  1  0  0  0  0
 16 15  2  0  0  0  0
 17 18  2  0  0  0  0
 19 15  1  0  0  0  0
 20 12  1  0  0  0  0
 22 14  1  0  0  0  0
 23 14  1  0  0  0  0
 24 19  1  0  0  0  0
 25 37  1  0  0  0  0
 26 25  1  0  0  0  0
 27 26  2  0  0  0  0
 27 39  1  0  0  0  0
 28 40  1  0  0  0  0
 28 26  1  0  0  0  0
 29 42  1  0  0  0  0
 29 28  1  0  0  0  0
 30 44  1  0  0  0  0
 30 29  1  0  0  0  0
 31 46  1  0  0  0  0
 31 30  1  0  0  0  0
 32 47  1  1  0  0  0
 32 31  1  0  0  0  0
 33 17  1  0  0  0  0
 33 32  1  0  0  0  0
 34 36  1  0  0  0  0
 34 32  1  0  0  0  0
 35 34  2  0  0  0  0
 38 25  1  0  0  0  0
 41 29  1  0  0  0  0
 43 30  1  0  0  0  0
 45 31  1  0  0  0  0
 48 33  1  0  0  0  0
M  END
$$$$
