ADT.pdb
 OpenBabel07022418003D

 39 38  0  0  1  0  0  0  0  0999 V2000
   -2.0820   -4.7360    0.2170 C   0  0  0  0  0  0  0  0  0  0  0  0
   -2.0320   -3.2690    0.6200 C   0  0  2  0  0  0  0  0  0  0  0  0
   -2.7280   -2.4420   -0.3090 N   0  0  0  0  0  0  0  0  0  0  0  0
   -0.6350   -2.9060    0.8690 C   0  0  0  0  0  0  0  0  0  0  0  0
    0.0070   -3.6140    1.6990 O   0  0  0  0  0  0  0  0  0  0  0  0
   -1.1750   -5.2310    0.6130 H   0  0  0  0  0  0  0  0  0  0  0  0
   -2.0790   -4.7810   -0.8760 H   0  0  0  0  0  0  0  0  0  0  0  0
   -2.9640   -5.2540    0.6790 H   0  0  0  0  0  0  0  0  0  0  0  0
   -2.5680   -3.2190    1.6110 H   0  0  0  0  0  0  0  0  0  0  0  0
   -2.4710   -1.4510   -0.3150 H   0  0  0  0  0  0  0  0  0  0  0  0
   -2.9550   -2.8670   -1.2140 H   0  0  0  0  0  0  0  0  0  0  0  0
    0.0360   -1.8240    0.2480 N   0  0  0  0  0  0  0  0  0  0  0  0
    1.4460   -1.5630    0.5860 C   0  0  1  0  0  0  0  0  0  0  0  0
    2.2950   -1.5860   -0.6280 C   0  0  0  0  0  0  0  0  0  0  0  0
    3.7170   -1.3940   -0.2960 C   0  0  0  0  0  0  0  0  0  0  0  0
    4.1870   -1.3910    0.8690 O   0  0  0  0  0  0  0  0  0  0  0  0
    1.5120   -0.2170    1.2370 C   0  0  0  0  0  0  0  0  0  0  0  0
    2.5570    0.2710    1.6340 O   0  0  0  0  0  0  0  0  0  0  0  0
    4.6770   -1.1950   -1.3090 O   0  0  0  0  0  0  0  0  0  0  0  0
   -0.4470   -1.2310   -0.4290 H   0  0  0  0  0  0  0  0  0  0  0  0
    1.7840   -2.3050    1.3120 H   0  0  0  0  0  0  0  0  0  0  0  0
    2.0140   -0.8130   -1.3790 H   0  0  0  0  0  0  0  0  0  0  0  0
    2.2300   -2.5950   -1.1260 H   0  0  0  0  0  0  0  0  0  0  0  0
    5.4940   -0.6640   -1.0870 H   0  0  0  0  0  0  0  0  0  0  0  0
    1.1150    3.1160    0.0850 C   0  0  0  0  0  0  0  0  0  0  0  0
   -0.0380    2.9670    1.0500 C   0  0  1  0  0  0  0  0  0  0  0  0
   -1.2580    2.8310    0.4290 O   0  0  0  0  0  0  0  0  0  0  0  0
    0.2810    1.8570    2.0260 C   0  0  2  0  0  0  0  0  0  0  0  0
    0.3130    0.5590    1.4160 N   0  0  0  0  0  0  0  0  0  0  0  0
   -0.5300    1.9470    3.2470 C   0  0  0  0  0  0  0  0  0  0  0  0
   -1.1230    0.9480    3.6810 O   0  0  0  0  0  0  0  0  0  0  0  0
   -0.6340    3.1430    3.9120 O   0  0  0  0  0  0  0  0  0  0  0  0
    2.0820    2.9270    0.5430 H   0  0  0  0  0  0  0  0  0  0  0  0
    1.1410    4.1050   -0.4140 H   0  0  0  0  0  0  0  0  0  0  0  0
    0.9430    2.3640   -0.7380 H   0  0  0  0  0  0  0  0  0  0  0  0
   -0.0730    3.9120    1.6430 H   0  0  0  0  0  0  0  0  0  0  0  0
   -1.2350    2.2950   -0.3870 H   0  0  0  0  0  0  0  0  0  0  0  0
    1.3500    2.0670    2.3360 H   0  0  0  0  0  0  0  0  0  0  0  0
   -0.5680    0.1220    1.0740 H   0  0  0  0  0  0  0  0  0  0  0  0
  1  6  1  0  0  0  0
  1  2  1  0  0  0  0
  1  8  1  0  0  0  0
  2  4  1  0  0  0  0
  2  9  1  1  0  0  0
  3  2  1  0  0  0  0
  4  5  2  0  0  0  0
  7  1  1  0  0  0  0
 10  3  1  0  0  0  0
 11  3  1  0  0  0  0
 12 13  1  0  0  0  0
 12  4  1  0  0  0  0
 13 17  1  0  0  0  0
 13 21  1  1  0  0  0
 14 15  1  0  0  0  0
 14 13  1  0  0  0  0
 15 16  2  0  0  0  0
 17 29  1  0  0  0  0
 17 18  2  0  0  0  0
 19 24  1  0  0  0  0
 19 15  1  0  0  0  0
 20 12  1  0  0  0  0
 22 14  1  0  0  0  0
 23 14  1  0  0  0  0
 25 33  1  0  0  0  0
 25 26  1  0  0  0  0
 26 36  1  1  0  0  0
 26 28  1  0  0  0  0
 27 26  1  0  0  0  0
 28 38  1  1  0  0  0
 28 30  1  0  0  0  0
 29 28  1  0  0  0  0
 30 31  2  0  0  0  0
 30 32  1  0  0  0  0
 34 25  1  0  0  0  0
 35 25  1  0  0  0  0
 37 27  1  0  0  0  0
 39 29  1  0  0  0  0
M  END
$$$$
