AED.pdb
 OpenBabel07022418003D

 41 40  0  0  1  0  0  0  0  0999 V2000
    1.4920   -3.0160    3.0800 C   0  0  0  0  0  0  0  0  0  0  0  0
    2.7750   -2.6970    2.3670 C   0  0  2  0  0  0  0  0  0  0  0  0
    3.8610   -2.8220    3.3140 N   0  0  0  0  0  0  0  0  0  0  0  0
    2.7600   -1.3650    1.7110 C   0  0  0  0  0  0  0  0  0  0  0  0
    3.6330   -0.5280    2.0180 O   0  0  0  0  0  0  0  0  0  0  0  0
    1.6790   -3.9000    3.7260 H   0  0  0  0  0  0  0  0  0  0  0  0
    1.1570   -2.2050    3.7470 H   0  0  0  0  0  0  0  0  0  0  0  0
    0.7000   -3.3280    2.3620 H   0  0  0  0  0  0  0  0  0  0  0  0
    2.9280   -3.4430    1.5590 H   0  0  0  0  0  0  0  0  0  0  0  0
    4.5400   -2.0350    3.2120 H   0  0  0  0  0  0  0  0  0  0  0  0
    3.5070   -2.9360    4.2800 H   0  0  0  0  0  0  0  0  0  0  0  0
    1.7900   -1.0390    0.7640 N   0  0  0  0  0  0  0  0  0  0  0  0
    1.7190    0.2620    0.0780 C   0  0  1  0  0  0  0  0  0  0  0  0
    1.8280   -0.0890   -1.3870 C   0  0  0  0  0  0  0  0  0  0  0  0
    1.7840    1.0730   -2.3160 C   0  0  0  0  0  0  0  0  0  0  0  0
    1.9140    0.5810   -3.7350 C   0  0  0  0  0  0  0  0  0  0  0  0
    1.9050    1.3700   -4.7040 O   0  0  0  0  0  0  0  0  0  0  0  0
    0.3880    0.8850    0.3040 C   0  0  0  0  0  0  0  0  0  0  0  0
    0.0740    2.0110   -0.1540 O   0  0  0  0  0  0  0  0  0  0  0  0
    2.0480   -0.7770   -3.9860 O   0  0  0  0  0  0  0  0  0  0  0  0
    1.0540   -1.7200    0.4920 H   0  0  0  0  0  0  0  0  0  0  0  0
    2.5440    0.9190    0.4150 H   0  0  0  0  0  0  0  0  0  0  0  0
    2.7910   -0.6510   -1.5690 H   0  0  0  0  0  0  0  0  0  0  0  0
    1.0370   -0.8500   -1.6110 H   0  0  0  0  0  0  0  0  0  0  0  0
    2.4940    1.8590   -2.0730 H   0  0  0  0  0  0  0  0  0  0  0  0
    0.7410    1.5050   -2.2960 H   0  0  0  0  0  0  0  0  0  0  0  0
    2.0920   -1.1420   -4.9330 H   0  0  0  0  0  0  0  0  0  0  0  0
   -0.6340    0.2370    1.0660 N   0  0  0  0  0  0  0  0  0  0  0  0
   -1.9360    0.8500    1.2860 C   0  0  1  0  0  0  0  0  0  0  0  0
   -2.9890    0.0100    0.6060 C   0  0  0  0  0  0  0  0  0  0  0  0
   -3.0600   -1.3660    1.1010 C   0  0  0  0  0  0  0  0  0  0  0  0
   -3.9190   -2.1330    0.5610 O   0  0  0  0  0  0  0  0  0  0  0  0
   -2.2190    1.0710    2.7080 C   0  0  0  0  0  0  0  0  0  0  0  0
   -1.4280    0.7660    3.6320 O   0  0  0  0  0  0  0  0  0  0  0  0
   -2.2910   -1.9190    2.0930 O   0  0  0  0  0  0  0  0  0  0  0  0
   -3.4290    1.6500    3.0540 O   0  0  0  0  0  0  0  0  0  0  0  0
   -0.4110   -0.6960    1.4620 H   0  0  0  0  0  0  0  0  0  0  0  0
   -1.9700    1.8500    0.7840 H   0  0  0  0  0  0  0  0  0  0  0  0
   -2.8080    0.0640   -0.4840 H   0  0  0  0  0  0  0  0  0  0  0  0
   -3.9930    0.4870    0.7610 H   0  0  0  0  0  0  0  0  0  0  0  0
   -2.6500   -2.6010    2.7690 H   0  0  0  0  0  0  0  0  0  0  0  0
  1  6  1  0  0  0  0
  1  7  1  0  0  0  0
  2  9  1  6  0  0  0
  2  1  1  0  0  0  0
  2  3  1  0  0  0  0
  3 11  1  0  0  0  0
  4  5  2  0  0  0  0
  4  2  1  0  0  0  0
  8  1  1  0  0  0  0
 10  3  1  0  0  0  0
 12  4  1  0  0  0  0
 13 18  1  0  0  0  0
 13 22  1  1  0  0  0
 13 12  1  0  0  0  0
 14 13  1  0  0  0  0
 15 26  1  0  0  0  0
 15 25  1  0  0  0  0
 15 14  1  0  0  0  0
 16 15  1  0  0  0  0
 17 16  2  0  0  0  0
 18 28  1  0  0  0  0
 19 18  2  0  0  0  0
 20 16  1  0  0  0  0
 21 12  1  0  0  0  0
 23 14  1  0  0  0  0
 24 14  1  0  0  0  0
 27 20  1  0  0  0  0
 28 29  1  0  0  0  0
 28 37  1  0  0  0  0
 29 38  1  6  0  0  0
 29 33  1  0  0  0  0
 30 40  1  0  0  0  0
 30 31  1  0  0  0  0
 30 29  1  0  0  0  0
 31 35  1  0  0  0  0
 32 31  2  0  0  0  0
 33 36  2  0  0  0  0
 33 34  1  0  0  0  0
 35 41  1  0  0  0  0
 39 30  1  0  0  0  0
M  END
$$$$
