AEF.pdb
 OpenBabel07022418003D

 48 48  0  0  1  0  0  0  0  0999 V2000
    4.4840    0.3480    3.0370 C   0  0  0  0  0  0  0  0  0  0  0  0
    3.7160   -0.6280    2.1710 C   0  0  2  0  0  0  0  0  0  0  0  0
    3.6700   -0.1130    0.8070 N   0  0  0  0  0  0  0  0  0  0  0  0
    2.3440   -0.8210    2.7010 C   0  0  0  0  0  0  0  0  0  0  0  0
    2.2040   -1.2530    3.8490 O   0  0  0  0  0  0  0  0  0  0  0  0
    4.9810    1.1170    2.3940 H   0  0  0  0  0  0  0  0  0  0  0  0
    5.3280   -0.1770    3.5610 H   0  0  0  0  0  0  0  0  0  0  0  0
    3.8190    0.8700    3.7670 H   0  0  0  0  0  0  0  0  0  0  0  0
    4.2690   -1.6060    2.1130 H   0  0  0  0  0  0  0  0  0  0  0  0
    3.1720    0.7940    0.8210 H   0  0  0  0  0  0  0  0  0  0  0  0
    3.1580   -0.7670    0.1780 H   0  0  0  0  0  0  0  0  0  0  0  0
    1.2140   -0.5270    1.9350 N   0  0  0  0  0  0  0  0  0  0  0  0
   -0.1470   -0.6760    2.3460 C   0  0  1  0  0  0  0  0  0  0  0  0
   -0.9350    0.5940    2.4040 C   0  0  0  0  0  0  0  0  0  0  0  0
   -0.2630    1.5170    3.3930 C   0  0  0  0  0  0  0  0  0  0  0  0
   -0.9750    2.8110    3.5210 C   0  0  0  0  0  0  0  0  0  0  0  0
   -2.0000    3.0010    2.8390 O   0  0  0  0  0  0  0  0  0  0  0  0
   -0.8940   -1.6310    1.4510 C   0  0  0  0  0  0  0  0  0  0  0  0
   -2.1070   -1.8870    1.6590 O   0  0  0  0  0  0  0  0  0  0  0  0
   -0.4640    3.7470    4.3950 O   0  0  0  0  0  0  0  0  0  0  0  0
    1.3720   -0.1580    0.9540 H   0  0  0  0  0  0  0  0  0  0  0  0
   -0.1300   -1.0690    3.3860 H   0  0  0  0  0  0  0  0  0  0  0  0
   -1.1570    1.0520    1.4480 H   0  0  0  0  0  0  0  0  0  0  0  0
   -1.9270    0.3260    2.8610 H   0  0  0  0  0  0  0  0  0  0  0  0
    0.8160    1.6510    3.1440 H   0  0  0  0  0  0  0  0  0  0  0  0
   -0.2800    1.0440    4.3980 H   0  0  0  0  0  0  0  0  0  0  0  0
   -0.6970    4.7290    4.2660 H   0  0  0  0  0  0  0  0  0  0  0  0
   -0.2940   -2.2780    0.3560 N   0  0  0  0  0  0  0  0  0  0  0  0
   -0.9460   -3.1890   -0.5240 C   0  0  1  0  0  0  0  0  0  0  0  0
   -0.9590   -2.7910   -1.9590 C   0  0  0  0  0  0  0  0  0  0  0  0
   -1.6500   -1.4840   -2.1910 C   0  0  0  0  0  0  0  0  0  0  0  0
   -3.0040   -1.4830   -2.4430 C   0  0  0  0  0  0  0  0  0  0  0  0
   -3.6290   -0.2760   -2.6540 C   0  0  0  0  0  0  0  0  0  0  0  0
   -2.9010    0.9000   -2.6110 C   0  0  0  0  0  0  0  0  0  0  0  0
   -1.5360    0.8810   -2.3560 C   0  0  0  0  0  0  0  0  0  0  0  0
   -0.9030   -0.3250   -2.1430 C   0  0  0  0  0  0  0  0  0  0  0  0
   -0.3580   -4.5460   -0.4270 C   0  0  0  0  0  0  0  0  0  0  0  0
    0.5890   -4.7510    0.3620 O   0  0  0  0  0  0  0  0  0  0  0  0
   -0.8280   -5.5990   -1.1880 O   0  0  0  0  0  0  0  0  0  0  0  0
    0.7280   -2.0700    0.1720 H   0  0  0  0  0  0  0  0  0  0  0  0
   -2.0070   -3.2860   -0.1820 H   0  0  0  0  0  0  0  0  0  0  0  0
   -1.5370   -3.5490   -2.5260 H   0  0  0  0  0  0  0  0  0  0  0  0
    0.0400   -2.7490   -2.4170 H   0  0  0  0  0  0  0  0  0  0  0  0
   -3.5780   -2.4210   -2.4760 H   0  0  0  0  0  0  0  0  0  0  0  0
   -4.7000   -0.2820   -2.8530 H   0  0  0  0  0  0  0  0  0  0  0  0
   -3.4120    1.8230   -2.7790 H   0  0  0  0  0  0  0  0  0  0  0  0
   -1.0070    1.8240   -2.3310 H   0  0  0  0  0  0  0  0  0  0  0  0
    0.1740   -0.3400   -1.9410 H   0  0  0  0  0  0  0  0  0  0  0  0
  1  7  1  0  0  0  0
  1  8  1  0  0  0  0
  2  9  1  1  0  0  0
  2  4  1  0  0  0  0
  2  1  1  0  0  0  0
  3 10  1  0  0  0  0
  3  2  1  0  0  0  0
  4  5  2  0  0  0  0
  6  1  1  0  0  0  0
 11  3  1  0  0  0  0
 12 13  1  0  0  0  0
 12  4  1  0  0  0  0
 13 14  1  0  0  0  0
 13 22  1  1  0  0  0
 14 24  1  0  0  0  0
 14 15  1  0  0  0  0
 15 16  1  0  0  0  0
 15 26  1  0  0  0  0
 16 20  1  0  0  0  0
 17 16  2  0  0  0  0
 18 19  2  0  0  0  0
 18 13  1  0  0  0  0
 21 12  1  0  0  0  0
 23 14  1  0  0  0  0
 25 15  1  0  0  0  0
 27 20  1  0  0  0  0
 28 18  1  0  0  0  0
 29 37  1  0  0  0  0
 29 41  1  1  0  0  0
 29 28  1  0  0  0  0
 30 29  1  0  0  0  0
 31 36  1  0  0  0  0
 31 30  1  0  0  0  0
 32 31  2  0  0  0  0
 33 34  2  0  0  0  0
 33 32  1  0  0  0  0
 34 35  1  0  0  0  0
 35 47  1  0  0  0  0
 35 36  2  0  0  0  0
 36 48  1  0  0  0  0
 37 38  1  0  0  0  0
 39 37  2  0  0  0  0
 40 28  1  0  0  0  0
 42 30  1  0  0  0  0
 43 30  1  0  0  0  0
 44 32  1  0  0  0  0
 45 33  1  0  0  0  0
 46 34  1  0  0  0  0
M  END
$$$$
