AEG.pdb
 OpenBabel07022418003D

 35 34  0  0  1  0  0  0  0  0999 V2000
   -1.4570   -4.1290    1.2300 C   0  0  0  0  0  0  0  0  0  0  0  0
   -0.3330   -3.8740    2.2380 C   0  0  2  0  0  0  0  0  0  0  0  0
   -0.6980   -4.3320    3.5460 N   0  0  0  0  0  0  0  0  0  0  0  0
   -0.0760   -2.4250    2.2590 C   0  0  0  0  0  0  0  0  0  0  0  0
   -0.1860   -1.7800    3.3150 O   0  0  0  0  0  0  0  0  0  0  0  0
   -2.3670   -3.6360    1.5970 H   0  0  0  0  0  0  0  0  0  0  0  0
   -1.1660   -3.6250    0.2920 H   0  0  0  0  0  0  0  0  0  0  0  0
   -1.5730   -5.2240    1.0880 H   0  0  0  0  0  0  0  0  0  0  0  0
    0.5500   -4.4150    1.8390 H   0  0  0  0  0  0  0  0  0  0  0  0
   -1.7140   -4.6000    3.5320 H   0  0  0  0  0  0  0  0  0  0  0  0
   -0.1710   -5.1600    3.8790 H   0  0  0  0  0  0  0  0  0  0  0  0
    0.2990   -1.7690    1.0700 N   0  0  0  0  0  0  0  0  0  0  0  0
    0.5730   -0.3090    1.0230 C   0  0  1  0  0  0  0  0  0  0  0  0
    1.9880   -0.0970    0.5890 C   0  0  0  0  0  0  0  0  0  0  0  0
    2.3580    1.3400    0.4930 C   0  0  0  0  0  0  0  0  0  0  0  0
    3.7940    1.5210    0.1040 C   0  0  0  0  0  0  0  0  0  0  0  0
    4.4950    0.5040   -0.0890 O   0  0  0  0  0  0  0  0  0  0  0  0
   -0.4580    0.2980    0.1670 C   0  0  0  0  0  0  0  0  0  0  0  0
   -1.2180   -0.4570   -0.5280 O   0  0  0  0  0  0  0  0  0  0  0  0
    4.3820    2.7590   -0.0520 O   0  0  0  0  0  0  0  0  0  0  0  0
    0.3900   -2.3080    0.1950 H   0  0  0  0  0  0  0  0  0  0  0  0
    0.4170    0.0520    2.0530 H   0  0  0  0  0  0  0  0  0  0  0  0
    2.1550   -0.5460   -0.4260 H   0  0  0  0  0  0  0  0  0  0  0  0
    2.6550   -0.5670    1.3460 H   0  0  0  0  0  0  0  0  0  0  0  0
    1.7980    1.7320   -0.4120 H   0  0  0  0  0  0  0  0  0  0  0  0
    2.1140    1.9630    1.3600 H   0  0  0  0  0  0  0  0  0  0  0  0
    5.3760    2.9230    0.0240 H   0  0  0  0  0  0  0  0  0  0  0  0
   -0.7030    1.6900    0.0360 N   0  0  0  0  0  0  0  0  0  0  0  0
   -1.7460    2.1710   -0.8470 C   0  0  0  0  0  0  0  0  0  0  0  0
   -1.4940    1.7500   -2.2590 C   0  0  0  0  0  0  0  0  0  0  0  0
   -0.4760    1.0680   -2.5410 O   0  0  0  0  0  0  0  0  0  0  0  0
   -2.3540    2.0900   -3.2750 O   0  0  0  0  0  0  0  0  0  0  0  0
   -0.1480    2.3770    0.5890 H   0  0  0  0  0  0  0  0  0  0  0  0
   -1.7520    3.2790   -0.8520 H   0  0  0  0  0  0  0  0  0  0  0  0
   -2.7450    1.8290   -0.5640 H   0  0  0  0  0  0  0  0  0  0  0  0
  1  6  1  0  0  0  0
  1  2  1  0  0  0  0
  2  9  1  6  0  0  0
  2  4  1  0  0  0  0
  2  3  1  0  0  0  0
  3 11  1  0  0  0  0
  4  5  2  0  0  0  0
  7  1  1  0  0  0  0
  8  1  1  0  0  0  0
 10  3  1  0  0  0  0
 12  4  1  0  0  0  0
 13 12  1  0  0  0  0
 13 22  1  1  0  0  0
 14 13  1  0  0  0  0
 14 24  1  0  0  0  0
 15 14  1  0  0  0  0
 15 26  1  0  0  0  0
 16 15  1  0  0  0  0
 17 16  2  0  0  0  0
 18 13  1  0  0  0  0
 19 18  2  0  0  0  0
 20 27  1  0  0  0  0
 20 16  1  0  0  0  0
 21 12  1  0  0  0  0
 23 14  1  0  0  0  0
 25 15  1  0  0  0  0
 28 18  1  0  0  0  0
 28 33  1  0  0  0  0
 29 35  1  0  0  0  0
 29 28  1  0  0  0  0
 30 29  1  0  0  0  0
 31 30  1  0  0  0  0
 32 30  2  0  0  0  0
 34 29  1  0  0  0  0
M  END
$$$$
