AEP.pdb
 OpenBabel07022418003D

 42 42  0  0  1  0  0  0  0  0999 V2000
   -1.4730   -4.5540   -0.0300 C   0  0  0  0  0  0  0  0  0  0  0  0
   -0.5300   -3.6440    0.7280 C   0  0  2  0  0  0  0  0  0  0  0  0
   -1.1800   -3.1550    1.9030 N   0  0  0  0  0  0  0  0  0  0  0  0
   -0.0800   -2.5190   -0.1310 C   0  0  0  0  0  0  0  0  0  0  0  0
    0.5230   -2.7050   -1.1930 O   0  0  0  0  0  0  0  0  0  0  0  0
   -1.4450   -4.3380   -1.1200 H   0  0  0  0  0  0  0  0  0  0  0  0
   -1.1120   -5.5870    0.1010 H   0  0  0  0  0  0  0  0  0  0  0  0
   -2.4830   -4.4670    0.3910 H   0  0  0  0  0  0  0  0  0  0  0  0
    0.3860   -4.2140    1.0610 H   0  0  0  0  0  0  0  0  0  0  0  0
   -0.5690   -3.1680    2.7440 H   0  0  0  0  0  0  0  0  0  0  0  0
   -2.1280   -3.5610    2.0620 H   0  0  0  0  0  0  0  0  0  0  0  0
   -0.3510   -1.2030    0.2810 N   0  0  0  0  0  0  0  0  0  0  0  0
    0.0280   -0.0030   -0.4520 C   0  0  1  0  0  0  0  0  0  0  0  0
   -1.1650    0.6940   -0.9960 C   0  0  0  0  0  0  0  0  0  0  0  0
   -0.8480    1.9280   -1.7460 C   0  0  0  0  0  0  0  0  0  0  0  0
    0.0170    1.7730   -2.9280 C   0  0  0  0  0  0  0  0  0  0  0  0
    0.4100    0.6580   -3.3130 O   0  0  0  0  0  0  0  0  0  0  0  0
    0.9770    0.7690    0.3190 C   0  0  0  0  0  0  0  0  0  0  0  0
    1.4030    1.8420   -0.2560 O   0  0  0  0  0  0  0  0  0  0  0  0
    0.4360    2.8840   -3.6720 O   0  0  0  0  0  0  0  0  0  0  0  0
   -0.8740   -1.0500    1.1660 H   0  0  0  0  0  0  0  0  0  0  0  0
    0.5780   -0.4270   -1.3550 H   0  0  0  0  0  0  0  0  0  0  0  0
   -1.6250   -0.0210   -1.7470 H   0  0  0  0  0  0  0  0  0  0  0  0
   -1.9320    0.9430   -0.2340 H   0  0  0  0  0  0  0  0  0  0  0  0
   -1.8250    2.3900   -2.1690 H   0  0  0  0  0  0  0  0  0  0  0  0
   -0.4430    2.7560   -1.0960 H   0  0  0  0  0  0  0  0  0  0  0  0
    0.6960    2.7300   -4.6260 H   0  0  0  0  0  0  0  0  0  0  0  0
    1.4990    0.5100    1.6100 N   0  0  0  0  0  0  0  0  0  0  0  0
    2.4460    1.4730    2.2430 C   0  0  0  0  0  0  0  0  0  0  0  0
    3.0180    0.8090    3.4390 C   0  0  0  0  0  0  0  0  0  0  0  0
    2.7680   -0.6560    3.1510 C   0  0  0  0  0  0  0  0  0  0  0  0
    1.3470   -0.5350    2.5610 C   0  0  1  0  0  0  0  0  0  0  0  0
    0.4940   -0.1160    3.7020 C   0  0  0  0  0  0  0  0  0  0  0  0
   -0.0280    1.0250    3.7840 O   0  0  0  0  0  0  0  0  0  0  0  0
    0.2470   -1.0060    4.7350 O   0  0  0  0  0  0  0  0  0  0  0  0
    3.2730    1.5630    1.4790 H   0  0  0  0  0  0  0  0  0  0  0  0
    1.9790    2.4440    2.3940 H   0  0  0  0  0  0  0  0  0  0  0  0
    2.4310    1.0500    4.3530 H   0  0  0  0  0  0  0  0  0  0  0  0
    4.0960    0.9490    3.5860 H   0  0  0  0  0  0  0  0  0  0  0  0
    3.3960   -1.0420    2.3370 H   0  0  0  0  0  0  0  0  0  0  0  0
    2.7690   -1.2720    4.0640 H   0  0  0  0  0  0  0  0  0  0  0  0
    1.1350   -1.5340    2.2020 H   0  0  0  0  0  0  0  0  0  0  0  0
  1  7  1  0  0  0  0
  1  8  1  0  0  0  0
  1  2  1  0  0  0  0
  2  9  1  1  0  0  0
  2  3  1  0  0  0  0
  3 11  1  0  0  0  0
  3 10  1  0  0  0  0
  4 12  1  0  0  0  0
  4  2  1  0  0  0  0
  5  4  2  0  0  0  0
  6  1  1  0  0  0  0
 12 21  1  0  0  0  0
 13 22  1  6  0  0  0
 13 12  1  0  0  0  0
 13 18  1  0  0  0  0
 14 13  1  0  0  0  0
 14 24  1  0  0  0  0
 15 26  1  0  0  0  0
 15 14  1  0  0  0  0
 16 15  1  0  0  0  0
 17 16  2  0  0  0  0
 18 28  1  0  0  0  0
 19 18  2  0  0  0  0
 20 16  1  0  0  0  0
 23 14  1  0  0  0  0
 25 15  1  0  0  0  0
 27 20  1  0  0  0  0
 28 29  1  0  0  0  0
 28 32  1  0  0  0  0
 29 37  1  0  0  0  0
 29 30  1  0  0  0  0
 30 39  1  0  0  0  0
 30 38  1  0  0  0  0
 31 30  1  0  0  0  0
 31 41  1  0  0  0  0
 32 42  1  6  0  0  0
 32 31  1  0  0  0  0
 32 33  1  0  0  0  0
 33 34  2  0  0  0  0
 33 35  1  0  0  0  0
 36 29  1  0  0  0  0
 40 31  1  0  0  0  0
M  END
$$$$
