AEV.pdb
 OpenBabel07022418003D

 44 43  0  0  1  0  0  0  0  0999 V2000
   -0.9820   -5.4220   -2.2040 C   0  0  0  0  0  0  0  0  0  0  0  0
   -0.7050   -4.7770   -0.8700 C   0  0  2  0  0  0  0  0  0  0  0  0
   -1.7660   -5.0360    0.0580 N   0  0  0  0  0  0  0  0  0  0  0  0
   -0.3320   -3.3550   -0.9620 C   0  0  0  0  0  0  0  0  0  0  0  0
    0.5910   -3.0750   -1.8050 O   0  0  0  0  0  0  0  0  0  0  0  0
   -0.2270   -5.1320   -2.9570 H   0  0  0  0  0  0  0  0  0  0  0  0
   -0.8410   -6.5400   -2.0850 H   0  0  0  0  0  0  0  0  0  0  0  0
   -2.0000   -5.2860   -2.5640 H   0  0  0  0  0  0  0  0  0  0  0  0
    0.2110   -5.3050   -0.4700 H   0  0  0  0  0  0  0  0  0  0  0  0
   -1.9020   -6.0720    0.1970 H   0  0  0  0  0  0  0  0  0  0  0  0
   -1.5920   -4.6670    1.0090 H   0  0  0  0  0  0  0  0  0  0  0  0
   -0.9150   -2.3250   -0.2010 N   0  0  0  0  0  0  0  0  0  0  0  0
   -0.4710   -0.8950   -0.3660 C   0  0  1  0  0  0  0  0  0  0  0  0
   -1.6040   -0.1980   -0.9660 C   0  0  0  0  0  0  0  0  0  0  0  0
   -1.6020    1.2150   -1.3280 C   0  0  0  0  0  0  0  0  0  0  0  0
   -1.4750    2.2440   -0.3100 C   0  0  0  0  0  0  0  0  0  0  0  0
   -0.6010    3.1290   -0.3580 O   0  0  0  0  0  0  0  0  0  0  0  0
    0.1180   -0.5090    0.9030 C   0  0  0  0  0  0  0  0  0  0  0  0
   -0.0610   -1.3230    1.8990 O   0  0  0  0  0  0  0  0  0  0  0  0
   -2.3620    2.2460    0.7650 O   0  0  0  0  0  0  0  0  0  0  0  0
   -1.6570   -2.5740    0.4780 H   0  0  0  0  0  0  0  0  0  0  0  0
    0.3430   -0.9730   -1.1420 H   0  0  0  0  0  0  0  0  0  0  0  0
   -1.8350   -0.7840   -1.9370 H   0  0  0  0  0  0  0  0  0  0  0  0
   -2.5890   -0.4450   -0.3920 H   0  0  0  0  0  0  0  0  0  0  0  0
   -0.7590    1.4290   -2.0850 H   0  0  0  0  0  0  0  0  0  0  0  0
   -2.5070    1.4500   -2.0100 H   0  0  0  0  0  0  0  0  0  0  0  0
   -2.5330    3.1300    1.2500 H   0  0  0  0  0  0  0  0  0  0  0  0
    3.3250    1.1990    4.0420 C   0  0  0  0  0  0  0  0  0  0  0  0
    2.9050    0.9940    2.6010 C   0  0  0  0  0  0  0  0  0  0  0  0
    3.3440    2.2300    1.8480 C   0  0  0  0  0  0  0  0  0  0  0  0
    1.4080    0.8270    2.5900 C   0  0  2  0  0  0  0  0  0  0  0  0
    0.8800    0.6190    1.2580 N   0  0  0  0  0  0  0  0  0  0  0  0
    0.8310    2.0180    3.2230 C   0  0  0  0  0  0  0  0  0  0  0  0
    0.0250    2.7330    2.5930 O   0  0  0  0  0  0  0  0  0  0  0  0
    1.1330    2.4140    4.5190 O   0  0  0  0  0  0  0  0  0  0  0  0
    2.6190    0.6330    4.7130 H   0  0  0  0  0  0  0  0  0  0  0  0
    4.3170    0.6980    4.2440 H   0  0  0  0  0  0  0  0  0  0  0  0
    3.4480    2.2480    4.3280 H   0  0  0  0  0  0  0  0  0  0  0  0
    3.4720    0.1440    2.2180 H   0  0  0  0  0  0  0  0  0  0  0  0
    4.3270    2.5300    2.2660 H   0  0  0  0  0  0  0  0  0  0  0  0
    3.4980    2.0450    0.7770 H   0  0  0  0  0  0  0  0  0  0  0  0
    2.6750    3.1020    2.0190 H   0  0  0  0  0  0  0  0  0  0  0  0
    1.1840   -0.0570    3.2530 H   0  0  0  0  0  0  0  0  0  0  0  0
    1.0930    1.3140    0.5310 H   0  0  0  0  0  0  0  0  0  0  0  0
  1  7  1  0  0  0  0
  1  2  1  0  0  0  0
  2  9  1  1  0  0  0
  2  3  1  0  0  0  0
  3 10  1  0  0  0  0
  3 11  1  0  0  0  0
  4  2  1  0  0  0  0
  4 12  1  0  0  0  0
  5  4  2  0  0  0  0
  6  1  1  0  0  0  0
  8  1  1  0  0  0  0
 12 21  1  0  0  0  0
 13 22  1  6  0  0  0
 13 12  1  0  0  0  0
 13 18  1  0  0  0  0
 14 24  1  0  0  0  0
 14 13  1  0  0  0  0
 15 14  1  0  0  0  0
 15 16  1  0  0  0  0
 16 20  1  0  0  0  0
 17 16  2  0  0  0  0
 18 32  1  0  0  0  0
 18 19  2  0  0  0  0
 20 27  1  0  0  0  0
 23 14  1  0  0  0  0
 25 15  1  0  0  0  0
 26 15  1  0  0  0  0
 28 37  1  0  0  0  0
 28 38  1  0  0  0  0
 28 36  1  0  0  0  0
 29 28  1  0  0  0  0
 30 42  1  0  0  0  0
 30 40  1  0  0  0  0
 30 29  1  0  0  0  0
 31 29  1  0  0  0  0
 31 33  1  0  0  0  0
 31 43  1  1  0  0  0
 32 31  1  0  0  0  0
 33 35  1  0  0  0  0
 34 33  2  0  0  0  0
 39 29  1  0  0  0  0
 41 30  1  0  0  0  0
 44 32  1  0  0  0  0
M  END
$$$$
