AEW.pdb
 OpenBabel07022418003D

 52 53  0  0  1  0  0  0  0  0999 V2000
    5.8700   -3.1470    2.2480 C   0  0  0  0  0  0  0  0  0  0  0  0
    4.6540   -3.0110    1.3490 C   0  0  2  0  0  0  0  0  0  0  0  0
    5.0360   -2.3150    0.1530 N   0  0  0  0  0  0  0  0  0  0  0  0
    3.4970   -2.4110    2.0350 C   0  0  0  0  0  0  0  0  0  0  0  0
    3.1080   -2.9510    3.1010 O   0  0  0  0  0  0  0  0  0  0  0  0
    5.6180   -3.6820    3.1910 H   0  0  0  0  0  0  0  0  0  0  0  0
    6.5630   -3.8470    1.6990 H   0  0  0  0  0  0  0  0  0  0  0  0
    6.4010   -2.2110    2.4230 H   0  0  0  0  0  0  0  0  0  0  0  0
    4.4060   -4.0730    1.0460 H   0  0  0  0  0  0  0  0  0  0  0  0
    4.2270   -2.2400   -0.4870 H   0  0  0  0  0  0  0  0  0  0  0  0
    5.8670   -2.7790   -0.2490 H   0  0  0  0  0  0  0  0  0  0  0  0
    2.8250   -1.2530    1.5200 N   0  0  0  0  0  0  0  0  0  0  0  0
    1.6860   -0.6740    2.2090 C   0  0  1  0  0  0  0  0  0  0  0  0
    2.0100    0.7540    2.5640 C   0  0  0  0  0  0  0  0  0  0  0  0
    2.3030    1.5790    1.3290 C   0  0  0  0  0  0  0  0  0  0  0  0
    2.6210    2.9900    1.7250 C   0  0  0  0  0  0  0  0  0  0  0  0
    2.6190    3.3220    2.9430 O   0  0  0  0  0  0  0  0  0  0  0  0
    0.4920   -0.6300    1.2890 C   0  0  0  0  0  0  0  0  0  0  0  0
    0.5780   -1.0650    0.1050 O   0  0  0  0  0  0  0  0  0  0  0  0
    2.9220    3.9640    0.8040 O   0  0  0  0  0  0  0  0  0  0  0  0
    3.2100   -0.8710    0.6360 H   0  0  0  0  0  0  0  0  0  0  0  0
    1.4700   -1.2420    3.1140 H   0  0  0  0  0  0  0  0  0  0  0  0
    1.1130    1.2320    3.0400 H   0  0  0  0  0  0  0  0  0  0  0  0
    2.8290    0.8520    3.2940 H   0  0  0  0  0  0  0  0  0  0  0  0
    1.4200    1.6470    0.6610 H   0  0  0  0  0  0  0  0  0  0  0  0
    3.1310    1.1630    0.7200 H   0  0  0  0  0  0  0  0  0  0  0  0
    3.4970    4.7410    1.1090 H   0  0  0  0  0  0  0  0  0  0  0  0
   -0.7550   -0.1060    1.7150 N   0  0  0  0  0  0  0  0  0  0  0  0
   -1.8630   -0.0970    0.7700 C   0  0  1  0  0  0  0  0  0  0  0  0
   -3.0440   -0.8630    1.2610 C   0  0  0  0  0  0  0  0  0  0  0  0
   -4.1100   -0.7960    0.2290 C   0  0  0  0  0  0  0  0  0  0  0  0
   -5.2750   -0.0490    0.2270 C   0  0  0  0  0  0  0  0  0  0  0  0
   -5.9600   -0.2950   -0.9020 N   0  0  0  0  0  0  0  0  0  0  0  0
   -5.3020   -1.1820   -1.6680 C   0  0  0  0  0  0  0  0  0  0  0  0
   -5.5880   -1.7450   -2.8970 C   0  0  0  0  0  0  0  0  0  0  0  0
   -4.7200   -2.6560   -3.4790 C   0  0  0  0  0  0  0  0  0  0  0  0
   -3.5750   -2.9700   -2.7860 C   0  0  0  0  0  0  0  0  0  0  0  0
   -3.2950   -2.4010   -1.5520 C   0  0  0  0  0  0  0  0  0  0  0  0
   -4.1510   -1.5030   -0.9790 C   0  0  0  0  0  0  0  0  0  0  0  0
   -2.2400    1.3090    0.5370 C   0  0  0  0  0  0  0  0  0  0  0  0
   -3.1630    1.6250   -0.2510 O   0  0  0  0  0  0  0  0  0  0  0  0
   -1.5880    2.3740    1.1840 O   0  0  0  0  0  0  0  0  0  0  0  0
   -0.8450    0.2570    2.6870 H   0  0  0  0  0  0  0  0  0  0  0  0
   -1.5550   -0.5380   -0.2040 H   0  0  0  0  0  0  0  0  0  0  0  0
   -2.8230   -1.9430    1.4250 H   0  0  0  0  0  0  0  0  0  0  0  0
   -3.4510   -0.4070    2.1880 H   0  0  0  0  0  0  0  0  0  0  0  0
   -5.5610    0.6250    1.0360 H   0  0  0  0  0  0  0  0  0  0  0  0
   -6.8730    0.1590   -1.1200 H   0  0  0  0  0  0  0  0  0  0  0  0
   -6.4820   -1.5120   -3.4580 H   0  0  0  0  0  0  0  0  0  0  0  0
   -4.9290   -3.1120   -4.4510 H   0  0  0  0  0  0  0  0  0  0  0  0
   -2.8480   -3.6800   -3.1840 H   0  0  0  0  0  0  0  0  0  0  0  0
   -2.3780   -2.6580   -1.0050 H   0  0  0  0  0  0  0  0  0  0  0  0
  1  8  1  0  0  0  0
  1  6  1  0  0  0  0
  2  9  1  6  0  0  0
  2  4  1  0  0  0  0
  2  1  1  0  0  0  0
  3  2  1  0  0  0  0
  4  5  2  0  0  0  0
  7  1  1  0  0  0  0
 10  3  1  0  0  0  0
 11  3  1  0  0  0  0
 12  4  1  0  0  0  0
 12 13  1  0  0  0  0
 13 14  1  0  0  0  0
 13 22  1  1  0  0  0
 14 23  1  0  0  0  0
 14 24  1  0  0  0  0
 15 16  1  0  0  0  0
 15 14  1  0  0  0  0
 16 17  2  0  0  0  0
 18 28  1  0  0  0  0
 18 13  1  0  0  0  0
 19 18  2  0  0  0  0
 20 27  1  0  0  0  0
 20 16  1  0  0  0  0
 21 12  1  0  0  0  0
 25 15  1  0  0  0  0
 26 15  1  0  0  0  0
 28 43  1  0  0  0  0
 29 44  1  6  0  0  0
 29 30  1  0  0  0  0
 29 28  1  0  0  0  0
 30 45  1  0  0  0  0
 30 46  1  0  0  0  0
 31 30  1  0  0  0  0
 32 31  2  0  0  0  0
 32 47  1  0  0  0  0
 33 32  1  0  0  0  0
 34 39  1  0  0  0  0
 34 33  1  0  0  0  0
 35 34  2  0  0  0  0
 36 35  1  0  0  0  0
 36 37  2  0  0  0  0
 37 38  1  0  0  0  0
 38 52  1  0  0  0  0
 38 39  2  0  0  0  0
 39 31  1  0  0  0  0
 40 29  1  0  0  0  0
 40 42  1  0  0  0  0
 41 40  2  0  0  0  0
 48 33  1  0  0  0  0
 49 35  1  0  0  0  0
 50 36  1  0  0  0  0
 51 37  1  0  0  0  0
M  END
$$$$
