AFE.pdb
 OpenBabel07022418023D

 48 48  0  0  1  0  0  0  0  0999 V2000
    4.3120   -3.7770    2.4430 C   0  0  0  0  0  0  0  0  0  0  0  0
    3.1030   -3.6890    1.5740 C   0  0  2  0  0  0  0  0  0  0  0  0
    3.4510   -3.3950    0.2060 N   0  0  0  0  0  0  0  0  0  0  0  0
    2.0940   -2.7150    2.1000 C   0  0  0  0  0  0  0  0  0  0  0  0
    1.6870   -2.8520    3.2790 O   0  0  0  0  0  0  0  0  0  0  0  0
    4.6250   -4.8380    2.5200 H   0  0  0  0  0  0  0  0  0  0  0  0
    5.1670   -3.1740    2.0830 H   0  0  0  0  0  0  0  0  0  0  0  0
    4.1060   -3.4230    3.4860 H   0  0  0  0  0  0  0  0  0  0  0  0
    2.5830   -4.6790    1.5850 H   0  0  0  0  0  0  0  0  0  0  0  0
    2.7730   -3.8420   -0.4450 H   0  0  0  0  0  0  0  0  0  0  0  0
    4.3840   -3.8510    0.0100 H   0  0  0  0  0  0  0  0  0  0  0  0
    1.5820   -1.6540    1.3330 N   0  0  0  0  0  0  0  0  0  0  0  0
    0.6010   -0.6850    1.8020 C   0  0  1  0  0  0  0  0  0  0  0  0
    1.2150    0.6960    1.8580 C   0  0  0  0  0  0  0  0  0  0  0  0
    0.2980    1.7510    2.3220 C   0  0  0  0  0  0  0  0  0  0  0  0
   -0.4290    2.4830    1.4100 C   0  0  0  0  0  0  0  0  0  0  0  0
   -1.3070    3.4890    1.8350 C   0  0  0  0  0  0  0  0  0  0  0  0
   -1.4650    3.7720    3.1740 C   0  0  0  0  0  0  0  0  0  0  0  0
   -0.7270    3.0270    4.0790 C   0  0  0  0  0  0  0  0  0  0  0  0
    0.1390    2.0330    3.6610 C   0  0  0  0  0  0  0  0  0  0  0  0
   -0.6190   -0.6950    0.9970 C   0  0  0  0  0  0  0  0  0  0  0  0
   -1.5800    0.0320    1.2850 O   0  0  0  0  0  0  0  0  0  0  0  0
    1.9310   -1.5500    0.3490 H   0  0  0  0  0  0  0  0  0  0  0  0
    0.3260   -0.9390    2.8550 H   0  0  0  0  0  0  0  0  0  0  0  0
    2.1500    0.6780    2.4940 H   0  0  0  0  0  0  0  0  0  0  0  0
    1.6130    0.9540    0.8340 H   0  0  0  0  0  0  0  0  0  0  0  0
   -0.3330    2.2970    0.3720 H   0  0  0  0  0  0  0  0  0  0  0  0
   -1.8850    4.0750    1.1360 H   0  0  0  0  0  0  0  0  0  0  0  0
   -2.1320    4.5400    3.5450 H   0  0  0  0  0  0  0  0  0  0  0  0
   -0.8560    3.2540    5.1380 H   0  0  0  0  0  0  0  0  0  0  0  0
    0.7260    1.4420    4.3790 H   0  0  0  0  0  0  0  0  0  0  0  0
   -0.8050   -1.5230   -0.1620 N   0  0  0  0  0  0  0  0  0  0  0  0
   -1.9740   -1.5580   -0.9670 C   0  0  1  0  0  0  0  0  0  0  0  0
   -1.7910   -1.3440   -2.4190 C   0  0  0  0  0  0  0  0  0  0  0  0
   -1.1740   -0.0160   -2.7690 C   0  0  0  0  0  0  0  0  0  0  0  0
   -2.0030    1.0980   -2.3280 C   0  0  0  0  0  0  0  0  0  0  0  0
   -1.5470    2.2870   -2.4470 O   0  0  0  0  0  0  0  0  0  0  0  0
   -2.6110   -2.9110   -0.7460 C   0  0  0  0  0  0  0  0  0  0  0  0
   -2.1180   -3.7640    0.0230 O   0  0  0  0  0  0  0  0  0  0  0  0
   -3.2710    1.0120   -1.7780 O   0  0  0  0  0  0  0  0  0  0  0  0
   -3.7900   -3.2110   -1.4280 O   0  0  0  0  0  0  0  0  0  0  0  0
    0.0010   -2.1380   -0.4090 H   0  0  0  0  0  0  0  0  0  0  0  0
   -2.7270   -0.8510   -0.5740 H   0  0  0  0  0  0  0  0  0  0  0  0
   -1.3230   -2.1940   -2.9560 H   0  0  0  0  0  0  0  0  0  0  0  0
   -2.8340   -1.2960   -2.8640 H   0  0  0  0  0  0  0  0  0  0  0  0
   -0.1680    0.1220   -2.3290 H   0  0  0  0  0  0  0  0  0  0  0  0
   -1.0660   -0.0070   -3.8880 H   0  0  0  0  0  0  0  0  0  0  0  0
   -3.5450    1.5590   -0.9530 H   0  0  0  0  0  0  0  0  0  0  0  0
  1  6  1  0  0  0  0
  1  8  1  0  0  0  0
  2  9  1  1  0  0  0
  2  4  1  0  0  0  0
  2  1  1  0  0  0  0
  3  2  1  0  0  0  0
  4  5  2  0  0  0  0
  7  1  1  0  0  0  0
 10  3  1  0  0  0  0
 11  3  1  0  0  0  0
 12 13  1  0  0  0  0
 12  4  1  0  0  0  0
 13 14  1  0  0  0  0
 13 24  1  1  0  0  0
 14 15  1  0  0  0  0
 14 25  1  0  0  0  0
 15 20  1  0  0  0  0
 16 17  1  0  0  0  0
 16 15  2  0  0  0  0
 17 18  2  0  0  0  0
 18 29  1  0  0  0  0
 18 19  1  0  0  0  0
 19 30  1  0  0  0  0
 20 19  2  0  0  0  0
 20 31  1  0  0  0  0
 21 22  2  0  0  0  0
 21 13  1  0  0  0  0
 23 12  1  0  0  0  0
 26 14  1  0  0  0  0
 27 16  1  0  0  0  0
 28 17  1  0  0  0  0
 32 21  1  0  0  0  0
 33 38  1  0  0  0  0
 33 43  1  1  0  0  0
 33 32  1  0  0  0  0
 34 33  1  0  0  0  0
 35 34  1  0  0  0  0
 35 46  1  0  0  0  0
 35 36  1  0  0  0  0
 36 40  1  0  0  0  0
 37 36  2  0  0  0  0
 38 39  1  0  0  0  0
 40 48  1  0  0  0  0
 41 38  2  0  0  0  0
 42 32  1  0  0  0  0
 44 34  1  0  0  0  0
 45 34  1  0  0  0  0
 47 35  1  0  0  0  0
M  END
$$$$
