AFH.pdb
 OpenBabel07022418023D

 49 50  0  0  1  0  0  0  0  0999 V2000
    1.8470   -2.3410    5.3110 C   0  0  0  0  0  0  0  0  0  0  0  0
    1.6370   -0.8120    5.2220 C   0  0  2  0  0  0  0  0  0  0  0  0
    0.2360   -0.6040    5.5040 N   0  0  0  0  0  0  0  0  0  0  0  0
    2.0120   -0.4440    3.8260 C   0  0  0  0  0  0  0  0  0  0  0  0
    3.0520    0.2140    3.5710 O   0  0  0  0  0  0  0  0  0  0  0  0
    2.6410   -2.5710    6.0560 H   0  0  0  0  0  0  0  0  0  0  0  0
    0.9110   -2.8630    5.5640 H   0  0  0  0  0  0  0  0  0  0  0  0
    2.2090   -2.7580    4.3480 H   0  0  0  0  0  0  0  0  0  0  0  0
    2.2480   -0.3110    5.9690 H   0  0  0  0  0  0  0  0  0  0  0  0
    0.0890   -0.7920    6.5340 H   0  0  0  0  0  0  0  0  0  0  0  0
   -0.3390   -1.3040    4.9930 H   0  0  0  0  0  0  0  0  0  0  0  0
    1.2050   -0.8210    2.6910 N   0  0  0  0  0  0  0  0  0  0  0  0
    1.6160   -0.4190    1.3850 C   0  0  1  0  0  0  0  0  0  0  0  0
    2.4800   -1.4810    0.7180 C   0  0  0  0  0  0  0  0  0  0  0  0
    2.8930   -1.0280   -0.6320 C   0  0  0  0  0  0  0  0  0  0  0  0
    2.1980   -1.3850   -1.7840 C   0  0  0  0  0  0  0  0  0  0  0  0
    2.5870   -0.9390   -3.0310 C   0  0  0  0  0  0  0  0  0  0  0  0
    3.6880   -0.1170   -3.1820 C   0  0  0  0  0  0  0  0  0  0  0  0
    4.3900    0.2490   -2.0610 C   0  0  0  0  0  0  0  0  0  0  0  0
    3.9860   -0.2100   -0.8010 C   0  0  0  0  0  0  0  0  0  0  0  0
    0.5580    0.0100    0.4680 C   0  0  0  0  0  0  0  0  0  0  0  0
    0.7570    0.5370   -0.6490 O   0  0  0  0  0  0  0  0  0  0  0  0
    0.3580   -1.3810    2.8800 H   0  0  0  0  0  0  0  0  0  0  0  0
    2.3380    0.4460    1.5160 H   0  0  0  0  0  0  0  0  0  0  0  0
    1.8600   -2.3840    0.5840 H   0  0  0  0  0  0  0  0  0  0  0  0
    3.3600   -1.7590    1.3240 H   0  0  0  0  0  0  0  0  0  0  0  0
    1.3390   -2.0270   -1.6390 H   0  0  0  0  0  0  0  0  0  0  0  0
    2.0430   -1.2200   -3.9170 H   0  0  0  0  0  0  0  0  0  0  0  0
    4.0240    0.2630   -4.1660 H   0  0  0  0  0  0  0  0  0  0  0  0
    5.2530    0.8970   -2.1690 H   0  0  0  0  0  0  0  0  0  0  0  0
    4.5340    0.0840    0.0640 H   0  0  0  0  0  0  0  0  0  0  0  0
   -0.8250   -0.1600    0.8170 N   0  0  0  0  0  0  0  0  0  0  0  0
   -1.8830    0.2630   -0.0780 C   0  0  1  0  0  0  0  0  0  0  0  0
   -2.3860   -1.0200   -0.7510 C   0  0  0  0  0  0  0  0  0  0  0  0
   -3.4720   -0.6740   -1.6840 C   0  0  0  0  0  0  0  0  0  0  0  0
   -4.8110   -0.6100   -1.4530 C   0  0  0  0  0  0  0  0  0  0  0  0
   -5.4270   -0.2600   -2.5860 N   0  0  0  0  0  0  0  0  0  0  0  0
   -4.4660   -0.1050   -3.5180 C   0  0  0  0  0  0  0  0  0  0  0  0
   -3.2630   -0.3550   -2.9870 N   0  0  0  0  0  0  0  0  0  0  0  0
   -2.9190    1.0190    0.6100 C   0  0  0  0  0  0  0  0  0  0  0  0
   -3.9300    1.5080    0.0390 O   0  0  0  0  0  0  0  0  0  0  0  0
   -2.8630    1.2660    2.0020 O   0  0  0  0  0  0  0  0  0  0  0  0
   -1.0570   -0.5770    1.7120 H   0  0  0  0  0  0  0  0  0  0  0  0
   -1.4180    0.9180   -0.8750 H   0  0  0  0  0  0  0  0  0  0  0  0
   -2.7130   -1.7360    0.0110 H   0  0  0  0  0  0  0  0  0  0  0  0
   -1.4780   -1.4310   -1.2920 H   0  0  0  0  0  0  0  0  0  0  0  0
   -5.3030   -0.8160   -0.4910 H   0  0  0  0  0  0  0  0  0  0  0  0
   -6.4680   -0.1270   -2.7320 H   0  0  0  0  0  0  0  0  0  0  0  0
   -4.6630    0.1890   -4.5620 H   0  0  0  0  0  0  0  0  0  0  0  0
  1  7  1  0  0  0  0
  1  6  1  0  0  0  0
  2  1  1  0  0  0  0
  2  3  1  0  0  0  0
  2  9  1  1  0  0  0
  3 10  1  0  0  0  0
  4  2  1  0  0  0  0
  5  4  2  0  0  0  0
  8  1  1  0  0  0  0
 11  3  1  0  0  0  0
 12 23  1  0  0  0  0
 12  4  1  0  0  0  0
 13 24  1  1  0  0  0
 13 12  1  0  0  0  0
 14 26  1  0  0  0  0
 14 13  1  0  0  0  0
 15 14  1  0  0  0  0
 16 27  1  0  0  0  0
 16 15  2  0  0  0  0
 17 16  1  0  0  0  0
 18 17  2  0  0  0  0
 18 19  1  0  0  0  0
 19 20  2  0  0  0  0
 20 15  1  0  0  0  0
 20 31  1  0  0  0  0
 21 32  1  0  0  0  0
 21 13  1  0  0  0  0
 22 21  2  0  0  0  0
 25 14  1  0  0  0  0
 28 17  1  0  0  0  0
 29 18  1  0  0  0  0
 30 19  1  0  0  0  0
 32 43  1  0  0  0  0
 33 44  1  6  0  0  0
 33 40  1  0  0  0  0
 33 32  1  0  0  0  0
 34 33  1  0  0  0  0
 34 45  1  0  0  0  0
 35 36  2  0  0  0  0
 35 34  1  0  0  0  0
 36 47  1  0  0  0  0
 37 36  1  0  0  0  0
 38 39  2  0  0  0  0
 38 37  1  0  0  0  0
 39 35  1  0  0  0  0
 40 42  1  0  0  0  0
 41 40  2  0  0  0  0
 46 34  1  0  0  0  0
 48 37  1  0  0  0  0
 49 38  1  0  0  0  0
M  END
$$$$
