AFK.pdb
 OpenBabel07022418023D

 53 53  0  0  1  0  0  0  0  0999 V2000
    1.8780   -4.0290    5.1850 C   0  0  0  0  0  0  0  0  0  0  0  0
    1.2510   -4.0800    3.7920 C   0  0  2  0  0  0  0  0  0  0  0  0
    2.1600   -4.7120    2.8780 N   0  0  0  0  0  0  0  0  0  0  0  0
    0.9000   -2.7000    3.3940 C   0  0  0  0  0  0  0  0  0  0  0  0
    0.1060   -2.0680    4.1380 O   0  0  0  0  0  0  0  0  0  0  0  0
    1.6620   -4.9710    5.7280 H   0  0  0  0  0  0  0  0  0  0  0  0
    2.9810   -3.8790    5.0600 H   0  0  0  0  0  0  0  0  0  0  0  0
    1.4960   -3.1650    5.7690 H   0  0  0  0  0  0  0  0  0  0  0  0
    0.3030   -4.6630    3.8840 H   0  0  0  0  0  0  0  0  0  0  0  0
    1.6460   -5.1940    2.0990 H   0  0  0  0  0  0  0  0  0  0  0  0
    2.7540   -5.3920    3.4300 H   0  0  0  0  0  0  0  0  0  0  0  0
    1.3930   -2.0520    2.2400 N   0  0  0  0  0  0  0  0  0  0  0  0
    1.0390   -0.6990    1.8620 C   0  0  1  0  0  0  0  0  0  0  0  0
    2.2110    0.1950    1.7110 C   0  0  0  0  0  0  0  0  0  0  0  0
    1.9260    1.5850    1.3360 C   0  0  0  0  0  0  0  0  0  0  0  0
    1.6330    2.5350    2.3250 C   0  0  0  0  0  0  0  0  0  0  0  0
    1.3870    3.8310    1.9370 C   0  0  0  0  0  0  0  0  0  0  0  0
    1.4300    4.1760    0.6070 C   0  0  0  0  0  0  0  0  0  0  0  0
    1.7140    3.2690   -0.3890 C   0  0  0  0  0  0  0  0  0  0  0  0
    1.9620    1.9580    0.0140 C   0  0  0  0  0  0  0  0  0  0  0  0
    0.2000   -0.7680    0.6210 C   0  0  0  0  0  0  0  0  0  0  0  0
   -0.2180    0.2860    0.0660 O   0  0  0  0  0  0  0  0  0  0  0  0
    2.0590   -2.6090    1.6330 H   0  0  0  0  0  0  0  0  0  0  0  0
    0.3310   -0.3310    2.6570 H   0  0  0  0  0  0  0  0  0  0  0  0
    2.9510   -0.2240    0.9780 H   0  0  0  0  0  0  0  0  0  0  0  0
    2.7940    0.2390    2.6770 H   0  0  0  0  0  0  0  0  0  0  0  0
    1.6140    2.2030    3.3620 H   0  0  0  0  0  0  0  0  0  0  0  0
    1.1630    4.5440    2.7270 H   0  0  0  0  0  0  0  0  0  0  0  0
    1.2260    5.2190    0.3550 H   0  0  0  0  0  0  0  0  0  0  0  0
    1.7390    3.5750   -1.4240 H   0  0  0  0  0  0  0  0  0  0  0  0
    2.1910    1.2660   -0.7900 H   0  0  0  0  0  0  0  0  0  0  0  0
   -0.1430   -2.0170    0.0460 N   0  0  0  0  0  0  0  0  0  0  0  0
   -0.9900   -2.1060   -1.1960 C   0  0  1  0  0  0  0  0  0  0  0  0
   -2.3290   -1.7280   -0.7630 C   0  0  0  0  0  0  0  0  0  0  0  0
   -3.5190   -1.6720   -1.5970 C   0  0  0  0  0  0  0  0  0  0  0  0
   -3.6230   -0.7240   -2.7370 C   0  0  0  0  0  0  0  0  0  0  0  0
   -3.4360    0.7310   -2.2780 C   0  0  0  0  0  0  0  0  0  0  0  0
   -3.5550    1.5550   -3.4540 N   0  0  0  0  0  0  0  0  0  0  0  0
   -0.3020   -1.4700   -2.2840 C   0  0  0  0  0  0  0  0  0  0  0  0
   -0.6680   -1.4820   -3.4630 O   0  0  0  0  0  0  0  0  0  0  0  0
    0.8970   -0.7610   -2.0440 O   0  0  0  0  0  0  0  0  0  0  0  0
    0.2020   -2.8850    0.5000 H   0  0  0  0  0  0  0  0  0  0  0  0
   -0.9900   -3.2250   -1.4280 H   0  0  0  0  0  0  0  0  0  0  0  0
   -2.2660   -0.7270   -0.2090 H   0  0  0  0  0  0  0  0  0  0  0  0
   -2.5960   -2.4320    0.1170 H   0  0  0  0  0  0  0  0  0  0  0  0
   -3.8910   -2.7050   -1.9120 H   0  0  0  0  0  0  0  0  0  0  0  0
   -4.3830   -1.3670   -0.8970 H   0  0  0  0  0  0  0  0  0  0  0  0
   -4.7390   -0.7940   -3.0710 H   0  0  0  0  0  0  0  0  0  0  0  0
   -3.0660   -0.8750   -3.6290 H   0  0  0  0  0  0  0  0  0  0  0  0
   -2.4370    0.8710   -1.8440 H   0  0  0  0  0  0  0  0  0  0  0  0
   -4.2200    0.9560   -1.5160 H   0  0  0  0  0  0  0  0  0  0  0  0
   -2.9800    1.1090   -4.2080 H   0  0  0  0  0  0  0  0  0  0  0  0
   -4.5440    1.5260   -3.7820 H   0  0  0  0  0  0  0  0  0  0  0  0
  1  6  1  0  0  0  0
  1  8  1  0  0  0  0
  2  9  1  1  0  0  0
  2  1  1  0  0  0  0
  3 11  1  0  0  0  0
  3  2  1  0  0  0  0
  4  2  1  0  0  0  0
  4  5  2  0  0  0  0
  7  1  1  0  0  0  0
 10  3  1  0  0  0  0
 12  4  1  0  0  0  0
 13 12  1  0  0  0  0
 13 24  1  1  0  0  0
 14 13  1  0  0  0  0
 14 26  1  0  0  0  0
 15 14  1  0  0  0  0
 15 16  1  0  0  0  0
 16 27  1  0  0  0  0
 17 16  2  0  0  0  0
 17 28  1  0  0  0  0
 18 17  1  0  0  0  0
 19 20  1  0  0  0  0
 19 18  2  0  0  0  0
 20 15  2  0  0  0  0
 21 13  1  0  0  0  0
 22 21  2  0  0  0  0
 23 12  1  0  0  0  0
 25 14  1  0  0  0  0
 29 18  1  0  0  0  0
 30 19  1  0  0  0  0
 31 20  1  0  0  0  0
 32 42  1  0  0  0  0
 32 21  1  0  0  0  0
 33 43  1  6  0  0  0
 33 34  1  0  0  0  0
 33 32  1  0  0  0  0
 34 44  1  0  0  0  0
 34 45  1  0  0  0  0
 35 47  1  0  0  0  0
 35 34  1  0  0  0  0
 36 37  1  0  0  0  0
 36 35  1  0  0  0  0
 37 50  1  0  0  0  0
 37 51  1  0  0  0  0
 38 37  1  0  0  0  0
 39 41  1  0  0  0  0
 39 33  1  0  0  0  0
 40 39  2  0  0  0  0
 46 35  1  0  0  0  0
 48 36  1  0  0  0  0
 49 36  1  0  0  0  0
 52 38  1  0  0  0  0
 53 38  1  0  0  0  0
M  END
$$$$
