AFP.pdb
 OpenBabel07022418023D

 46 47  0  0  1  0  0  0  0  0999 V2000
   -0.3120   -4.7220    0.7800 C   0  0  0  0  0  0  0  0  0  0  0  0
    1.1070   -4.3000    0.9900 C   0  0  2  0  0  0  0  0  0  0  0  0
    1.5960   -4.9960    2.1710 N   0  0  0  0  0  0  0  0  0  0  0  0
    1.3110   -2.8530    1.1650 C   0  0  0  0  0  0  0  0  0  0  0  0
    1.8210   -2.4490    2.2720 O   0  0  0  0  0  0  0  0  0  0  0  0
   -0.9290   -4.2110    1.5610 H   0  0  0  0  0  0  0  0  0  0  0  0
   -0.6800   -4.4850   -0.2490 H   0  0  0  0  0  0  0  0  0  0  0  0
   -0.3720   -5.8160    0.9890 H   0  0  0  0  0  0  0  0  0  0  0  0
    1.7610   -4.6280    0.1310 H   0  0  0  0  0  0  0  0  0  0  0  0
    0.8060   -4.9800    2.8800 H   0  0  0  0  0  0  0  0  0  0  0  0
    2.3450   -4.3920    2.6200 H   0  0  0  0  0  0  0  0  0  0  0  0
    0.9780   -1.8780    0.1830 N   0  0  0  0  0  0  0  0  0  0  0  0
    1.2220   -0.5050    0.4450 C   0  0  1  0  0  0  0  0  0  0  0  0
    1.9560    0.1640   -0.6940 C   0  0  0  0  0  0  0  0  0  0  0  0
    2.1900    1.5820   -0.3970 C   0  0  0  0  0  0  0  0  0  0  0  0
    3.2850    1.9810    0.3540 C   0  0  0  0  0  0  0  0  0  0  0  0
    3.5700    3.3010    0.6300 C   0  0  0  0  0  0  0  0  0  0  0  0
    2.7590    4.3140    0.1610 C   0  0  0  0  0  0  0  0  0  0  0  0
    1.6630    3.9460   -0.5890 C   0  0  0  0  0  0  0  0  0  0  0  0
    1.3810    2.6260   -0.8630 C   0  0  0  0  0  0  0  0  0  0  0  0
    0.0540    0.2460    0.9100 C   0  0  0  0  0  0  0  0  0  0  0  0
    0.2260    1.5030    1.2180 O   0  0  0  0  0  0  0  0  0  0  0  0
    0.5820   -2.2400   -0.7380 H   0  0  0  0  0  0  0  0  0  0  0  0
    1.9530   -0.4790    1.3360 H   0  0  0  0  0  0  0  0  0  0  0  0
    1.2720    0.1330   -1.5870 H   0  0  0  0  0  0  0  0  0  0  0  0
    2.9230   -0.3100   -0.9090 H   0  0  0  0  0  0  0  0  0  0  0  0
    3.9380    1.1810    0.7320 H   0  0  0  0  0  0  0  0  0  0  0  0
    4.4330    3.5820    1.2190 H   0  0  0  0  0  0  0  0  0  0  0  0
    2.9940    5.3510    0.3850 H   0  0  0  0  0  0  0  0  0  0  0  0
    1.0270    4.7350   -0.9570 H   0  0  0  0  0  0  0  0  0  0  0  0
    0.5220    2.3170   -1.4510 H   0  0  0  0  0  0  0  0  0  0  0  0
   -1.2560   -0.2230    1.0730 N   0  0  0  0  0  0  0  0  0  0  0  0
   -1.9310   -1.4660    0.8770 C   0  0  0  0  0  0  0  0  0  0  0  0
   -3.2230   -1.0140    0.1640 C   0  0  0  0  0  0  0  0  0  0  0  0
   -3.5190    0.3260    0.7470 C   0  0  0  0  0  0  0  0  0  0  0  0
   -2.3210    0.6730    1.5840 C   0  0  1  0  0  0  0  0  0  0  0  0
   -2.5120    0.3680    2.9990 C   0  0  0  0  0  0  0  0  0  0  0  0
   -3.4000    0.9510    3.6820 O   0  0  0  0  0  0  0  0  0  0  0  0
   -1.7310   -0.5650    3.6440 O   0  0  0  0  0  0  0  0  0  0  0  0
   -1.4160   -2.1490    0.2220 H   0  0  0  0  0  0  0  0  0  0  0  0
   -2.2220   -1.9470    1.8590 H   0  0  0  0  0  0  0  0  0  0  0  0
   -2.9810   -0.9570   -0.9300 H   0  0  0  0  0  0  0  0  0  0  0  0
   -4.0030   -1.7750    0.3330 H   0  0  0  0  0  0  0  0  0  0  0  0
   -3.6800    1.0750   -0.0750 H   0  0  0  0  0  0  0  0  0  0  0  0
   -4.4610    0.3170    1.3380 H   0  0  0  0  0  0  0  0  0  0  0  0
   -2.0220    1.7450    1.4290 H   0  0  0  0  0  0  0  0  0  0  0  0
  1  8  1  0  0  0  0
  1  2  1  0  0  0  0
  1  6  1  0  0  0  0
  2  9  1  6  0  0  0
  2  4  1  0  0  0  0
  2  3  1  0  0  0  0
  3 11  1  0  0  0  0
  3 10  1  0  0  0  0
  4  5  2  0  0  0  0
  7  1  1  0  0  0  0
 12 13  1  0  0  0  0
 12  4  1  0  0  0  0
 13 21  1  0  0  0  0
 13 24  1  1  0  0  0
 14 15  1  0  0  0  0
 14 13  1  0  0  0  0
 15 16  1  0  0  0  0
 16 17  2  0  0  0  0
 16 27  1  0  0  0  0
 17 28  1  0  0  0  0
 18 29  1  0  0  0  0
 18 17  1  0  0  0  0
 19 18  2  0  0  0  0
 20 19  1  0  0  0  0
 20 15  2  0  0  0  0
 21 32  1  0  0  0  0
 21 22  2  0  0  0  0
 23 12  1  0  0  0  0
 25 14  1  0  0  0  0
 26 14  1  0  0  0  0
 30 19  1  0  0  0  0
 31 20  1  0  0  0  0
 32 36  1  0  0  0  0
 33 32  1  0  0  0  0
 33 41  1  0  0  0  0
 34 43  1  0  0  0  0
 34 35  1  0  0  0  0
 34 33  1  0  0  0  0
 35 45  1  0  0  0  0
 35 36  1  0  0  0  0
 36 46  1  6  0  0  0
 36 37  1  0  0  0  0
 37 39  2  0  0  0  0
 37 38  1  0  0  0  0
 40 33  1  0  0  0  0
 42 34  1  0  0  0  0
 44 35  1  0  0  0  0
M  END
$$$$
