AFQ.pdb
 OpenBabel07022418023D

 49 49  0  0  1  0  0  0  0  0999 V2000
    1.1600   -1.2150    5.2660 C   0  0  0  0  0  0  0  0  0  0  0  0
    0.6000   -2.0230    4.1230 C   0  0  2  0  0  0  0  0  0  0  0  0
    1.4500   -3.1210    3.7460 N   0  0  0  0  0  0  0  0  0  0  0  0
    0.2780   -1.1370    2.9740 C   0  0  0  0  0  0  0  0  0  0  0  0
   -0.4640   -0.1470    3.2200 O   0  0  0  0  0  0  0  0  0  0  0  0
    2.0490   -1.7400    5.6870 H   0  0  0  0  0  0  0  0  0  0  0  0
    1.4120   -0.1760    4.9530 H   0  0  0  0  0  0  0  0  0  0  0  0
    0.4320   -1.1170    6.0970 H   0  0  0  0  0  0  0  0  0  0  0  0
   -0.3680   -2.4590    4.4710 H   0  0  0  0  0  0  0  0  0  0  0  0
    0.9180   -3.7150    3.0820 H   0  0  0  0  0  0  0  0  0  0  0  0
    1.6270   -3.6870    4.5980 H   0  0  0  0  0  0  0  0  0  0  0  0
    0.7550   -1.3510    1.6590 N   0  0  0  0  0  0  0  0  0  0  0  0
    0.4150   -0.4560    0.5560 C   0  0  1  0  0  0  0  0  0  0  0  0
    1.6740    0.0440   -0.0930 C   0  0  0  0  0  0  0  0  0  0  0  0
    2.5560    0.7870    0.8020 C   0  0  0  0  0  0  0  0  0  0  0  0
    2.4760    2.1500    0.9800 C   0  0  0  0  0  0  0  0  0  0  0  0
    3.3630    2.7350    1.8520 C   0  0  0  0  0  0  0  0  0  0  0  0
    4.3130    2.0050    2.5390 C   0  0  0  0  0  0  0  0  0  0  0  0
    4.4010    0.6420    2.3670 C   0  0  0  0  0  0  0  0  0  0  0  0
    3.5190    0.0440    1.4980 C   0  0  0  0  0  0  0  0  0  0  0  0
   -0.3890   -1.2340   -0.4250 C   0  0  0  0  0  0  0  0  0  0  0  0
   -0.6860   -2.4390   -0.2710 O   0  0  0  0  0  0  0  0  0  0  0  0
    1.3730   -2.1980    1.5190 H   0  0  0  0  0  0  0  0  0  0  0  0
   -0.2250    0.3300    0.9510 H   0  0  0  0  0  0  0  0  0  0  0  0
    1.3560    0.7560   -0.9120 H   0  0  0  0  0  0  0  0  0  0  0  0
    2.2420   -0.7510   -0.6040 H   0  0  0  0  0  0  0  0  0  0  0  0
    1.7170    2.6770    0.4210 H   0  0  0  0  0  0  0  0  0  0  0  0
    3.3020    3.8000    1.9920 H   0  0  0  0  0  0  0  0  0  0  0  0
    4.9970    2.5110    3.2200 H   0  0  0  0  0  0  0  0  0  0  0  0
    5.1390    0.0840    2.9030 H   0  0  0  0  0  0  0  0  0  0  0  0
    3.5890   -1.0430    1.3610 H   0  0  0  0  0  0  0  0  0  0  0  0
   -5.0220   -1.4850    0.1300 N   0  0  0  0  0  0  0  0  0  0  0  0
   -4.2320   -1.5120   -1.0380 C   0  0  0  0  0  0  0  0  0  0  0  0
   -3.9680   -2.6120   -1.5640 O   0  0  0  0  0  0  0  0  0  0  0  0
   -3.7320   -0.2720   -1.6230 C   0  0  0  0  0  0  0  0  0  0  0  0
   -2.8780   -0.4560   -2.8370 C   0  0  0  0  0  0  0  0  0  0  0  0
   -1.6400   -1.2570   -2.6210 C   0  0  2  0  0  0  0  0  0  0  0  0
   -0.8440   -0.5580   -1.6090 N   0  0  0  0  0  0  0  0  0  0  0  0
   -0.8880   -1.2410   -3.9280 C   0  0  0  0  0  0  0  0  0  0  0  0
   -1.4090   -1.7930   -4.9210 O   0  0  0  0  0  0  0  0  0  0  0  0
    0.3510   -0.6280   -4.0150 O   0  0  0  0  0  0  0  0  0  0  0  0
   -5.5700   -0.6280    0.3420 H   0  0  0  0  0  0  0  0  0  0  0  0
   -5.0740   -2.2870    0.7810 H   0  0  0  0  0  0  0  0  0  0  0  0
   -3.1130    0.3300   -0.8940 H   0  0  0  0  0  0  0  0  0  0  0  0
   -4.5930    0.3970   -1.8570 H   0  0  0  0  0  0  0  0  0  0  0  0
   -2.5820    0.5060   -3.3020 H   0  0  0  0  0  0  0  0  0  0  0  0
   -3.4920   -0.9790   -3.6050 H   0  0  0  0  0  0  0  0  0  0  0  0
   -1.7910   -2.2960   -2.3020 H   0  0  0  0  0  0  0  0  0  0  0  0
   -0.5970    0.4440   -1.7370 H   0  0  0  0  0  0  0  0  0  0  0  0
  1  6  1  0  0  0  0
  1  8  1  0  0  0  0
  2  9  1  1  0  0  0
  2  1  1  0  0  0  0
  3  2  1  0  0  0  0
  3 11  1  0  0  0  0
  4  5  2  0  0  0  0
  4  2  1  0  0  0  0
  7  1  1  0  0  0  0
 10  3  1  0  0  0  0
 12  4  1  0  0  0  0
 13 24  1  1  0  0  0
 13 12  1  0  0  0  0
 14 13  1  0  0  0  0
 14 15  1  0  0  0  0
 15 16  2  0  0  0  0
 15 20  1  0  0  0  0
 16 17  1  0  0  0  0
 17 28  1  0  0  0  0
 17 18  2  0  0  0  0
 18 29  1  0  0  0  0
 19 18  1  0  0  0  0
 19 30  1  0  0  0  0
 20 19  2  0  0  0  0
 21 22  2  0  0  0  0
 21 13  1  0  0  0  0
 23 12  1  0  0  0  0
 25 14  1  0  0  0  0
 26 14  1  0  0  0  0
 27 16  1  0  0  0  0
 31 20  1  0  0  0  0
 32 42  1  0  0  0  0
 32 43  1  0  0  0  0
 33 32  1  0  0  0  0
 34 33  2  0  0  0  0
 35 33  1  0  0  0  0
 35 44  1  0  0  0  0
 36 37  1  0  0  0  0
 36 35  1  0  0  0  0
 37 48  1  1  0  0  0
 37 38  1  0  0  0  0
 38 21  1  0  0  0  0
 39 37  1  0  0  0  0
 40 39  2  0  0  0  0
 41 39  1  0  0  0  0
 45 35  1  0  0  0  0
 46 36  1  0  0  0  0
 47 36  1  0  0  0  0
 49 38  1  0  0  0  0
M  END
$$$$
