AFR.pdb
 OpenBabel07022418023D

 55 55  0  0  1  0  0  0  0  0999 V2000
    1.4950   -3.7740    5.1640 C   0  0  0  0  0  0  0  0  0  0  0  0
    1.5260   -2.2870    5.5350 C   0  0  2  0  0  0  0  0  0  0  0  0
    0.6970   -2.1070    6.7000 N   0  0  0  0  0  0  0  0  0  0  0  0
    0.9850   -1.5170    4.4060 C   0  0  0  0  0  0  0  0  0  0  0  0
   -0.0430   -0.8360    4.5410 O   0  0  0  0  0  0  0  0  0  0  0  0
    1.3250   -4.3450    6.1130 H   0  0  0  0  0  0  0  0  0  0  0  0
    2.4470   -4.0550    4.6820 H   0  0  0  0  0  0  0  0  0  0  0  0
    0.6650   -3.9990    4.4790 H   0  0  0  0  0  0  0  0  0  0  0  0
    2.5870   -2.0300    5.7540 H   0  0  0  0  0  0  0  0  0  0  0  0
   -0.1000   -2.7910    6.6890 H   0  0  0  0  0  0  0  0  0  0  0  0
    0.3500   -1.1190    6.7780 H   0  0  0  0  0  0  0  0  0  0  0  0
    1.6400   -1.5490    3.1470 N   0  0  0  0  0  0  0  0  0  0  0  0
    1.1200   -0.7840    1.9910 C   0  0  1  0  0  0  0  0  0  0  0  0
    2.1630    0.2480    1.7250 C   0  0  0  0  0  0  0  0  0  0  0  0
    1.9330    1.1640    0.6210 C   0  0  0  0  0  0  0  0  0  0  0  0
    2.4370    0.8670   -0.6290 C   0  0  0  0  0  0  0  0  0  0  0  0
    2.2180    1.7290   -1.6580 C   0  0  0  0  0  0  0  0  0  0  0  0
    1.5050    2.9090   -1.5110 C   0  0  0  0  0  0  0  0  0  0  0  0
    1.0010    3.2080   -0.2630 C   0  0  0  0  0  0  0  0  0  0  0  0
    1.2190    2.3310    0.7990 C   0  0  0  0  0  0  0  0  0  0  0  0
    0.8660   -1.7460    0.9250 C   0  0  0  0  0  0  0  0  0  0  0  0
    1.2030   -2.9750    1.0490 O   0  0  0  0  0  0  0  0  0  0  0  0
    2.5030   -2.1000    2.9710 H   0  0  0  0  0  0  0  0  0  0  0  0
    0.2210   -0.2660    2.3630 H   0  0  0  0  0  0  0  0  0  0  0  0
    3.1500   -0.2910    1.5910 H   0  0  0  0  0  0  0  0  0  0  0  0
    2.3060    0.7990    2.7040 H   0  0  0  0  0  0  0  0  0  0  0  0
    3.0050   -0.0490   -0.8000 H   0  0  0  0  0  0  0  0  0  0  0  0
    2.6280    1.4720   -2.6410 H   0  0  0  0  0  0  0  0  0  0  0  0
    1.3580    3.5600   -2.3560 H   0  0  0  0  0  0  0  0  0  0  0  0
    0.4470    4.1300   -0.1640 H   0  0  0  0  0  0  0  0  0  0  0  0
    0.7970    2.6250    1.7510 H   0  0  0  0  0  0  0  0  0  0  0  0
   -4.1030    2.2910   -2.2550 N   0  0  0  0  0  0  0  0  0  0  0  0
   -4.0720    0.9330   -1.8090 C   0  0  0  0  0  0  0  0  0  0  0  0
   -4.0670    0.7210   -0.5470 N   0  0  0  0  0  0  0  0  0  0  0  0
   -4.0470   -0.1540   -2.7210 N   0  0  0  0  0  0  0  0  0  0  0  0
   -3.5400   -1.4360   -2.2840 C   0  0  0  0  0  0  0  0  0  0  0  0
   -2.0420   -1.3370   -2.0330 C   0  0  0  0  0  0  0  0  0  0  0  0
   -1.4750   -2.6520   -1.5740 C   0  0  0  0  0  0  0  0  0  0  0  0
    0.0230   -2.4800   -1.3490 C   0  0  2  0  0  0  0  0  0  0  0  0
    0.2380   -1.4580   -0.3320 N   0  0  0  0  0  0  0  0  0  0  0  0
    0.6450   -2.1500   -2.6340 C   0  0  0  0  0  0  0  0  0  0  0  0
    1.2990   -1.1360   -2.9140 O   0  0  0  0  0  0  0  0  0  0  0  0
    0.4790   -3.0940   -3.6610 O   0  0  0  0  0  0  0  0  0  0  0  0
   -4.6380    2.6090   -3.0880 H   0  0  0  0  0  0  0  0  0  0  0  0
   -3.5630    3.0140   -1.7240 H   0  0  0  0  0  0  0  0  0  0  0  0
   -4.0450   -0.2110   -0.1150 H   0  0  0  0  0  0  0  0  0  0  0  0
   -4.4050    0.0340   -3.6820 H   0  0  0  0  0  0  0  0  0  0  0  0
   -4.0490   -1.8100   -1.3790 H   0  0  0  0  0  0  0  0  0  0  0  0
   -3.6750   -2.1410   -3.1520 H   0  0  0  0  0  0  0  0  0  0  0  0
   -1.5030   -1.0330   -2.9410 H   0  0  0  0  0  0  0  0  0  0  0  0
   -1.9430   -0.6050   -1.1980 H   0  0  0  0  0  0  0  0  0  0  0  0
   -1.6770   -3.4820   -2.2590 H   0  0  0  0  0  0  0  0  0  0  0  0
   -1.9420   -2.8990   -0.5970 H   0  0  0  0  0  0  0  0  0  0  0  0
    0.4730   -3.4250   -0.9750 H   0  0  0  0  0  0  0  0  0  0  0  0
   -0.0650   -0.4680   -0.4690 H   0  0  0  0  0  0  0  0  0  0  0  0
  1  2  1  0  0  0  0
  1  6  1  0  0  0  0
  2  9  1  1  0  0  0
  2  3  1  0  0  0  0
  3 11  1  0  0  0  0
  4  5  2  0  0  0  0
  4  2  1  0  0  0  0
  7  1  1  0  0  0  0
  8  1  1  0  0  0  0
 10  3  1  0  0  0  0
 12  4  1  0  0  0  0
 13 24  1  1  0  0  0
 13 12  1  0  0  0  0
 14 13  1  0  0  0  0
 14 26  1  0  0  0  0
 15 20  1  0  0  0  0
 15 14  1  0  0  0  0
 16 15  2  0  0  0  0
 17 18  2  0  0  0  0
 17 16  1  0  0  0  0
 18 19  1  0  0  0  0
 19 30  1  0  0  0  0
 19 20  2  0  0  0  0
 20 31  1  0  0  0  0
 21 22  2  0  0  0  0
 21 13  1  0  0  0  0
 23 12  1  0  0  0  0
 25 14  1  0  0  0  0
 27 16  1  0  0  0  0
 28 17  1  0  0  0  0
 29 18  1  0  0  0  0
 32 33  1  0  0  0  0
 32 45  1  0  0  0  0
 33 34  2  0  0  0  0
 34 46  1  0  0  0  0
 35 36  1  0  0  0  0
 35 33  1  0  0  0  0
 36 37  1  0  0  0  0
 36 48  1  0  0  0  0
 37 38  1  0  0  0  0
 37 51  1  0  0  0  0
 38 39  1  0  0  0  0
 38 53  1  0  0  0  0
 39 54  1  1  0  0  0
 39 40  1  0  0  0  0
 40 21  1  0  0  0  0
 41 39  1  0  0  0  0
 42 41  1  0  0  0  0
 43 41  2  0  0  0  0
 44 32  1  0  0  0  0
 47 35  1  0  0  0  0
 49 36  1  0  0  0  0
 50 37  1  0  0  0  0
 52 38  1  0  0  0  0
 55 40  1  0  0  0  0
M  END
$$$$
