AFT.pdb
 OpenBabel07022418023D

 46 46  0  0  1  0  0  0  0  0999 V2000
    3.0800   -4.2570    3.2320 C   0  0  0  0  0  0  0  0  0  0  0  0
    2.9680   -3.6050    1.8700 C   0  0  2  0  0  0  0  0  0  0  0  0
    3.9720   -2.5700    1.7960 N   0  0  0  0  0  0  0  0  0  0  0  0
    1.6000   -3.0560    1.6520 C   0  0  0  0  0  0  0  0  0  0  0  0
    0.6310   -3.8400    1.6880 O   0  0  0  0  0  0  0  0  0  0  0  0
    3.6740   -3.6140    3.9410 H   0  0  0  0  0  0  0  0  0  0  0  0
    2.0610   -4.3200    3.6950 H   0  0  0  0  0  0  0  0  0  0  0  0
    3.5700   -5.2350    3.1980 H   0  0  0  0  0  0  0  0  0  0  0  0
    3.1680   -4.4130    1.1120 H   0  0  0  0  0  0  0  0  0  0  0  0
    4.8670   -2.9940    2.1750 H   0  0  0  0  0  0  0  0  0  0  0  0
    3.6980   -1.8380    2.4970 H   0  0  0  0  0  0  0  0  0  0  0  0
    1.3450   -1.6910    1.4060 N   0  0  0  0  0  0  0  0  0  0  0  0
    0.0010   -1.1930    1.1980 C   0  0  1  0  0  0  0  0  0  0  0  0
   -0.3980   -0.3120    2.3420 C   0  0  0  0  0  0  0  0  0  0  0  0
    0.5190    0.8630    2.5070 C   0  0  0  0  0  0  0  0  0  0  0  0
    0.2840    2.0570    1.8760 C   0  0  0  0  0  0  0  0  0  0  0  0
    1.1580    3.0970    2.0620 C   0  0  0  0  0  0  0  0  0  0  0  0
    2.2540    2.9450    2.8680 C   0  0  0  0  0  0  0  0  0  0  0  0
    2.5350    1.7580    3.5280 C   0  0  0  0  0  0  0  0  0  0  0  0
    1.6270    0.7400    3.3100 C   0  0  0  0  0  0  0  0  0  0  0  0
   -0.2330   -0.6870   -0.1430 C   0  0  0  0  0  0  0  0  0  0  0  0
    0.7200   -0.6660   -0.9580 O   0  0  0  0  0  0  0  0  0  0  0  0
    2.1570   -1.0130    1.3720 H   0  0  0  0  0  0  0  0  0  0  0  0
   -0.6680   -2.1040    1.2830 H   0  0  0  0  0  0  0  0  0  0  0  0
   -1.4120    0.0680    2.2980 H   0  0  0  0  0  0  0  0  0  0  0  0
   -0.3010   -0.9000    3.2770 H   0  0  0  0  0  0  0  0  0  0  0  0
   -0.6050    2.1800    1.2220 H   0  0  0  0  0  0  0  0  0  0  0  0
    0.9800    4.0450    1.5670 H   0  0  0  0  0  0  0  0  0  0  0  0
    2.9720    3.7580    3.0380 H   0  0  0  0  0  0  0  0  0  0  0  0
    3.4060    1.6580    4.1610 H   0  0  0  0  0  0  0  0  0  0  0  0
    1.8600   -0.1970    3.8380 H   0  0  0  0  0  0  0  0  0  0  0  0
   -4.1310   -0.7380   -1.8900 C   0  0  0  0  0  0  0  0  0  0  0  0
   -2.8120   -0.5910   -2.5810 C   0  0  1  0  0  0  0  0  0  0  0  0
   -3.0360    0.0310   -3.8120 O   0  0  0  0  0  0  0  0  0  0  0  0
   -1.8380    0.2850   -1.8250 C   0  0  2  0  0  0  0  0  0  0  0  0
   -1.5090   -0.2250   -0.5340 N   0  0  0  0  0  0  0  0  0  0  0  0
   -2.4660    1.6170   -1.7040 C   0  0  0  0  0  0  0  0  0  0  0  0
   -2.7960    2.2040   -2.7830 O   0  0  0  0  0  0  0  0  0  0  0  0
   -2.7090    2.2440   -0.5030 O   0  0  0  0  0  0  0  0  0  0  0  0
   -4.3480    0.0430   -1.1530 H   0  0  0  0  0  0  0  0  0  0  0  0
   -4.9910   -0.7430   -2.6110 H   0  0  0  0  0  0  0  0  0  0  0  0
   -4.2180   -1.7230   -1.3440 H   0  0  0  0  0  0  0  0  0  0  0  0
   -2.3560   -1.5860   -2.8240 H   0  0  0  0  0  0  0  0  0  0  0  0
   -3.2650   -0.6260   -4.5280 H   0  0  0  0  0  0  0  0  0  0  0  0
   -0.9460    0.3650   -2.4630 H   0  0  0  0  0  0  0  0  0  0  0  0
   -2.2550   -0.2650    0.1870 H   0  0  0  0  0  0  0  0  0  0  0  0
  1  7  1  0  0  0  0
  1  6  1  0  0  0  0
  2  9  1  6  0  0  0
  2  1  1  0  0  0  0
  3  2  1  0  0  0  0
  3 10  1  0  0  0  0
  3 11  1  0  0  0  0
  4  5  2  0  0  0  0
  4  2  1  0  0  0  0
  8  1  1  0  0  0  0
 12  4  1  0  0  0  0
 13 24  1  1  0  0  0
 13 12  1  0  0  0  0
 13 14  1  0  0  0  0
 14 15  1  0  0  0  0
 14 26  1  0  0  0  0
 15 20  1  0  0  0  0
 16 17  1  0  0  0  0
 16 15  2  0  0  0  0
 17 18  2  0  0  0  0
 18 29  1  0  0  0  0
 18 19  1  0  0  0  0
 19 30  1  0  0  0  0
 20 19  2  0  0  0  0
 20 31  1  0  0  0  0
 21 13  1  0  0  0  0
 22 21  2  0  0  0  0
 23 12  1  0  0  0  0
 25 14  1  0  0  0  0
 27 16  1  0  0  0  0
 28 17  1  0  0  0  0
 32 42  1  0  0  0  0
 32 40  1  0  0  0  0
 33 43  1  6  0  0  0
 33 32  1  0  0  0  0
 33 35  1  0  0  0  0
 34 33  1  0  0  0  0
 35 45  1  6  0  0  0
 35 37  1  0  0  0  0
 35 36  1  0  0  0  0
 36 21  1  0  0  0  0
 36 46  1  0  0  0  0
 37 39  1  0  0  0  0
 38 37  2  0  0  0  0
 41 32  1  0  0  0  0
 44 34  1  0  0  0  0
M  END
$$$$
