AFW.pdb
 OpenBabel07022418023D

 56 58  0  0  1  0  0  0  0  0999 V2000
    0.3730   -2.1410    4.1790 C   0  0  0  0  0  0  0  0  0  0  0  0
    1.6060   -1.2870    4.3010 C   0  0  2  0  0  0  0  0  0  0  0  0
    1.7700   -0.8980    5.6680 N   0  0  0  0  0  0  0  0  0  0  0  0
    1.5760   -0.1210    3.3770 C   0  0  0  0  0  0  0  0  0  0  0  0
    1.6180    1.0110    3.8700 O   0  0  0  0  0  0  0  0  0  0  0  0
   -0.2650   -1.9920    5.0900 H   0  0  0  0  0  0  0  0  0  0  0  0
   -0.1920   -2.0030    3.2530 H   0  0  0  0  0  0  0  0  0  0  0  0
    0.6860   -3.2030    4.2300 H   0  0  0  0  0  0  0  0  0  0  0  0
    2.4770   -1.9020    4.0020 H   0  0  0  0  0  0  0  0  0  0  0  0
    2.7760   -0.9570    5.9670 H   0  0  0  0  0  0  0  0  0  0  0  0
    1.1270   -1.3700    6.3250 H   0  0  0  0  0  0  0  0  0  0  0  0
    1.5040   -0.2390    1.9710 N   0  0  0  0  0  0  0  0  0  0  0  0
    1.4730    0.8780    1.0460 C   0  0  1  0  0  0  0  0  0  0  0  0
    2.6430    0.9650    0.1550 C   0  0  0  0  0  0  0  0  0  0  0  0
    2.5180    2.1250   -0.7480 C   0  0  0  0  0  0  0  0  0  0  0  0
    2.0070    2.0730   -2.0290 C   0  0  0  0  0  0  0  0  0  0  0  0
    1.8950    3.1560   -2.8500 C   0  0  0  0  0  0  0  0  0  0  0  0
    2.3160    4.3770   -2.3740 C   0  0  0  0  0  0  0  0  0  0  0  0
    2.8320    4.4950   -1.1120 C   0  0  0  0  0  0  0  0  0  0  0  0
    2.9270    3.3830   -0.3200 C   0  0  0  0  0  0  0  0  0  0  0  0
    0.1840    0.9700    0.3360 C   0  0  0  0  0  0  0  0  0  0  0  0
   -0.1160    1.8830   -0.4290 O   0  0  0  0  0  0  0  0  0  0  0  0
    1.4720   -1.2080    1.5810 H   0  0  0  0  0  0  0  0  0  0  0  0
    1.5120    1.7940    1.7130 H   0  0  0  0  0  0  0  0  0  0  0  0
    2.8040    0.0820   -0.4980 H   0  0  0  0  0  0  0  0  0  0  0  0
    3.5950    1.1390    0.7310 H   0  0  0  0  0  0  0  0  0  0  0  0
    1.6730    1.1150   -2.4110 H   0  0  0  0  0  0  0  0  0  0  0  0
    1.4890    3.0840   -3.8530 H   0  0  0  0  0  0  0  0  0  0  0  0
    2.2210    5.2450   -3.0430 H   0  0  0  0  0  0  0  0  0  0  0  0
    3.1550    5.4490   -0.7570 H   0  0  0  0  0  0  0  0  0  0  0  0
    3.3300    3.4400    0.6830 H   0  0  0  0  0  0  0  0  0  0  0  0
   -0.7850   -0.0670    0.5460 N   0  0  0  0  0  0  0  0  0  0  0  0
   -2.0660   -0.0600   -0.0990 C   0  0  1  0  0  0  0  0  0  0  0  0
   -2.2960   -1.1480   -1.0810 C   0  0  0  0  0  0  0  0  0  0  0  0
   -2.2220   -2.5190   -0.5650 C   0  0  0  0  0  0  0  0  0  0  0  0
   -2.1670   -3.0510    0.6850 C   0  0  0  0  0  0  0  0  0  0  0  0
   -2.1130   -4.4090    0.6010 N   0  0  0  0  0  0  0  0  0  0  0  0
   -2.1320   -4.7820   -0.6950 C   0  0  0  0  0  0  0  0  0  0  0  0
   -2.0960   -6.0260   -1.3130 C   0  0  0  0  0  0  0  0  0  0  0  0
   -2.1280   -6.1380   -2.6840 C   0  0  0  0  0  0  0  0  0  0  0  0
   -2.1960   -4.9800   -3.4250 C   0  0  0  0  0  0  0  0  0  0  0  0
   -2.2310   -3.7480   -2.8070 C   0  0  0  0  0  0  0  0  0  0  0  0
   -2.2000   -3.6200   -1.4280 C   0  0  0  0  0  0  0  0  0  0  0  0
   -3.1650    0.0190    0.8740 C   0  0  0  0  0  0  0  0  0  0  0  0
   -2.8880    0.0950    2.0980 O   0  0  0  0  0  0  0  0  0  0  0  0
   -4.4980    0.0130    0.5030 O   0  0  0  0  0  0  0  0  0  0  0  0
   -0.5320   -0.8390    1.1870 H   0  0  0  0  0  0  0  0  0  0  0  0
   -2.1110    0.9000   -0.6870 H   0  0  0  0  0  0  0  0  0  0  0  0
   -1.6290   -1.0670   -1.9700 H   0  0  0  0  0  0  0  0  0  0  0  0
   -3.3310   -0.9780   -1.5020 H   0  0  0  0  0  0  0  0  0  0  0  0
   -2.1710   -2.4860    1.5960 H   0  0  0  0  0  0  0  0  0  0  0  0
   -2.0640   -5.1000    1.3810 H   0  0  0  0  0  0  0  0  0  0  0  0
   -2.0440   -6.9200   -0.7090 H   0  0  0  0  0  0  0  0  0  0  0  0
   -2.0990   -7.1270   -3.1700 H   0  0  0  0  0  0  0  0  0  0  0  0
   -2.2230   -5.0200   -4.5050 H   0  0  0  0  0  0  0  0  0  0  0  0
   -2.2850   -2.8240   -3.3970 H   0  0  0  0  0  0  0  0  0  0  0  0
  1  8  1  0  0  0  0
  1  2  1  0  0  0  0
  1  6  1  0  0  0  0
  2  9  1  6  0  0  0
  2  3  1  0  0  0  0
  3 10  1  0  0  0  0
  3 11  1  0  0  0  0
  4  5  2  0  0  0  0
  4  2  1  0  0  0  0
  7  1  1  0  0  0  0
 12  4  1  0  0  0  0
 13 24  1  1  0  0  0
 13 12  1  0  0  0  0
 14 26  1  0  0  0  0
 14 13  1  0  0  0  0
 15 20  1  0  0  0  0
 15 14  1  0  0  0  0
 16 15  2  0  0  0  0
 17 18  2  0  0  0  0
 17 16  1  0  0  0  0
 18 19  1  0  0  0  0
 19 30  1  0  0  0  0
 19 20  2  0  0  0  0
 20 31  1  0  0  0  0
 21 32  1  0  0  0  0
 21 13  1  0  0  0  0
 22 21  2  0  0  0  0
 23 12  1  0  0  0  0
 25 14  1  0  0  0  0
 27 16  1  0  0  0  0
 28 17  1  0  0  0  0
 29 18  1  0  0  0  0
 32 47  1  0  0  0  0
 33 48  1  6  0  0  0
 33 32  1  0  0  0  0
 33 44  1  0  0  0  0
 34 35  1  0  0  0  0
 34 33  1  0  0  0  0
 35 36  2  0  0  0  0
 36 51  1  0  0  0  0
 37 36  1  0  0  0  0
 37 52  1  0  0  0  0
 38 37  1  0  0  0  0
 39 53  1  0  0  0  0
 39 38  1  0  0  0  0
 40 39  2  0  0  0  0
 41 42  2  0  0  0  0
 41 40  1  0  0  0  0
 42 43  1  0  0  0  0
 43 38  2  0  0  0  0
 43 35  1  0  0  0  0
 44 45  1  0  0  0  0
 46 44  2  0  0  0  0
 49 34  1  0  0  0  0
 50 34  1  0  0  0  0
 54 40  1  0  0  0  0
 55 41  1  0  0  0  0
 56 42  1  0  0  0  0
M  END
$$$$
