AFY.pdb
 OpenBabel07022418023D

 53 54  0  0  1  0  0  0  0  0999 V2000
   -1.4400   -1.0070    3.6260 C   0  0  0  0  0  0  0  0  0  0  0  0
   -0.2770   -0.2090    4.1770 C   0  0  2  0  0  0  0  0  0  0  0  0
   -0.7560    0.6570    5.2060 N   0  0  0  0  0  0  0  0  0  0  0  0
    0.2690    0.5790    3.0130 C   0  0  0  0  0  0  0  0  0  0  0  0
    0.2710    1.8380    3.0130 O   0  0  0  0  0  0  0  0  0  0  0  0
   -1.9910   -1.5180    4.4550 H   0  0  0  0  0  0  0  0  0  0  0  0
   -2.1370   -0.3040    3.0990 H   0  0  0  0  0  0  0  0  0  0  0  0
   -1.0510   -1.7120    2.8920 H   0  0  0  0  0  0  0  0  0  0  0  0
    0.5310   -0.8890    4.4950 H   0  0  0  0  0  0  0  0  0  0  0  0
   -1.7690    0.7780    5.1140 H   0  0  0  0  0  0  0  0  0  0  0  0
   -0.3940    0.4820    6.1470 H   0  0  0  0  0  0  0  0  0  0  0  0
    0.8000   -0.0760    1.8740 N   0  0  0  0  0  0  0  0  0  0  0  0
    1.3400    0.6260    0.7220 C   0  0  1  0  0  0  0  0  0  0  0  0
    2.7760    0.3040    0.4910 C   0  0  0  0  0  0  0  0  0  0  0  0
    3.2810    1.0350   -0.6830 C   0  0  0  0  0  0  0  0  0  0  0  0
    3.3220    0.5230   -1.9610 C   0  0  0  0  0  0  0  0  0  0  0  0
    3.8120    1.2820   -3.0230 C   0  0  0  0  0  0  0  0  0  0  0  0
    4.2700    2.5720   -2.8160 C   0  0  0  0  0  0  0  0  0  0  0  0
    4.2320    3.0810   -1.5590 C   0  0  0  0  0  0  0  0  0  0  0  0
    3.7490    2.3300   -0.5180 C   0  0  0  0  0  0  0  0  0  0  0  0
    0.4930    0.3780   -0.4590 C   0  0  0  0  0  0  0  0  0  0  0  0
    0.6750    0.8940   -1.5930 O   0  0  0  0  0  0  0  0  0  0  0  0
    0.8020   -1.1180    1.8700 H   0  0  0  0  0  0  0  0  0  0  0  0
    1.2900    1.7450    0.8860 H   0  0  0  0  0  0  0  0  0  0  0  0
    3.3620    0.6530    1.3830 H   0  0  0  0  0  0  0  0  0  0  0  0
    2.9420   -0.7930    0.3970 H   0  0  0  0  0  0  0  0  0  0  0  0
    2.9730   -0.4770   -2.1340 H   0  0  0  0  0  0  0  0  0  0  0  0
    3.8290    0.8460   -4.0140 H   0  0  0  0  0  0  0  0  0  0  0  0
    4.6360    3.1000   -3.6880 H   0  0  0  0  0  0  0  0  0  0  0  0
    4.5810    4.0770   -1.3720 H   0  0  0  0  0  0  0  0  0  0  0  0
    3.7280    2.7510    0.4680 H   0  0  0  0  0  0  0  0  0  0  0  0
   -3.0910   -5.3410    2.7240 O   0  0  0  0  0  0  0  0  0  0  0  0
   -2.7010   -4.5920    1.6230 C   0  0  0  0  0  0  0  0  0  0  0  0
   -3.5850   -4.1930    0.6460 C   0  0  0  0  0  0  0  0  0  0  0  0
   -3.1600   -3.4450   -0.4400 C   0  0  0  0  0  0  0  0  0  0  0  0
   -1.8380   -3.0820   -0.5710 C   0  0  0  0  0  0  0  0  0  0  0  0
   -1.3870   -2.2810   -1.7350 C   0  0  0  0  0  0  0  0  0  0  0  0
   -1.4780   -0.7890   -1.4410 C   0  0  2  0  0  0  0  0  0  0  0  0
   -0.6250   -0.5210   -0.3020 N   0  0  0  0  0  0  0  0  0  0  0  0
   -2.8790   -0.4170   -1.1410 C   0  0  0  0  0  0  0  0  0  0  0  0
   -3.1550    0.0560   -0.0130 O   0  0  0  0  0  0  0  0  0  0  0  0
   -0.9640   -3.4890    0.4150 C   0  0  0  0  0  0  0  0  0  0  0  0
   -1.3800   -4.2400    1.5100 C   0  0  0  0  0  0  0  0  0  0  0  0
   -3.8710   -0.5870   -2.0920 O   0  0  0  0  0  0  0  0  0  0  0  0
   -4.0690   -5.5200    2.9430 H   0  0  0  0  0  0  0  0  0  0  0  0
   -4.6170   -4.4830    0.7590 H   0  0  0  0  0  0  0  0  0  0  0  0
   -3.9200   -3.1740   -1.1600 H   0  0  0  0  0  0  0  0  0  0  0  0
   -2.0550   -2.4760   -2.5950 H   0  0  0  0  0  0  0  0  0  0  0  0
   -0.3590   -2.5340   -2.0060 H   0  0  0  0  0  0  0  0  0  0  0  0
   -1.1260   -0.2290   -2.3140 H   0  0  0  0  0  0  0  0  0  0  0  0
   -0.7940   -0.9580    0.6280 H   0  0  0  0  0  0  0  0  0  0  0  0
    0.0820   -3.2230    0.3470 H   0  0  0  0  0  0  0  0  0  0  0  0
   -0.6400   -4.5250    2.2470 H   0  0  0  0  0  0  0  0  0  0  0  0
  1  2  1  0  0  0  0
  1  6  1  0  0  0  0
  2  9  1  1  0  0  0
  2  3  1  0  0  0  0
  3 11  1  0  0  0  0
  4  2  1  0  0  0  0
  5  4  2  0  0  0  0
  7  1  1  0  0  0  0
  8  1  1  0  0  0  0
 10  3  1  0  0  0  0
 12  4  1  0  0  0  0
 13 24  1  1  0  0  0
 13 12  1  0  0  0  0
 14 13  1  0  0  0  0
 14 25  1  0  0  0  0
 15 20  1  0  0  0  0
 15 14  1  0  0  0  0
 16 15  2  0  0  0  0
 17 18  2  0  0  0  0
 17 16  1  0  0  0  0
 18 19  1  0  0  0  0
 19 30  1  0  0  0  0
 19 20  2  0  0  0  0
 20 31  1  0  0  0  0
 21 39  1  0  0  0  0
 21 13  1  0  0  0  0
 22 21  2  0  0  0  0
 23 12  1  0  0  0  0
 26 14  1  0  0  0  0
 27 16  1  0  0  0  0
 28 17  1  0  0  0  0
 29 18  1  0  0  0  0
 32 45  1  0  0  0  0
 33 32  1  0  0  0  0
 34 46  1  0  0  0  0
 34 33  2  0  0  0  0
 35 34  1  0  0  0  0
 36 35  2  0  0  0  0
 36 42  1  0  0  0  0
 37 38  1  0  0  0  0
 37 36  1  0  0  0  0
 38 50  1  6  0  0  0
 38 40  1  0  0  0  0
 38 39  1  0  0  0  0
 39 51  1  0  0  0  0
 40 41  1  0  0  0  0
 42 43  2  0  0  0  0
 43 33  1  0  0  0  0
 43 53  1  0  0  0  0
 44 40  2  0  0  0  0
 47 35  1  0  0  0  0
 48 37  1  0  0  0  0
 49 37  1  0  0  0  0
 52 42  1  0  0  0  0
M  END
$$$$
