AGA.pdb
 OpenBabel07022418003D

 29 28  0  0  1  0  0  0  0  0999 V2000
   -1.0690   -2.7330    2.5240 C   0  0  0  0  0  0  0  0  0  0  0  0
   -0.2770   -1.7500    3.3450 C   0  0  2  0  0  0  0  0  0  0  0  0
   -1.1930   -0.8430    3.9830 N   0  0  0  0  0  0  0  0  0  0  0  0
    0.7330   -1.0220    2.5430 C   0  0  0  0  0  0  0  0  0  0  0  0
    0.6700    0.2560    2.5170 O   0  0  0  0  0  0  0  0  0  0  0  0
   -0.4430   -3.3570    1.8630 H   0  0  0  0  0  0  0  0  0  0  0  0
   -1.8570   -2.2280    1.9080 H   0  0  0  0  0  0  0  0  0  0  0  0
   -1.6060   -3.4160    3.2110 H   0  0  0  0  0  0  0  0  0  0  0  0
    0.2580   -2.3480    4.1300 H   0  0  0  0  0  0  0  0  0  0  0  0
   -1.3250    0.0220    3.4200 H   0  0  0  0  0  0  0  0  0  0  0  0
   -2.1470   -1.2960    4.0450 H   0  0  0  0  0  0  0  0  0  0  0  0
    1.7300   -1.7490    1.8340 N   0  0  0  0  0  0  0  0  0  0  0  0
    2.7130   -1.0890    1.0470 C   0  0  0  0  0  0  0  0  0  0  0  0
    2.2450   -0.3000   -0.0830 C   0  0  0  0  0  0  0  0  0  0  0  0
    3.1320    0.3140   -0.7690 O   0  0  0  0  0  0  0  0  0  0  0  0
    1.6940   -2.8000    1.9270 H   0  0  0  0  0  0  0  0  0  0  0  0
    3.4310   -0.4850    1.6810 H   0  0  0  0  0  0  0  0  0  0  0  0
    3.3950   -1.8840    0.6150 H   0  0  0  0  0  0  0  0  0  0  0  0
   -0.2420   -0.3360   -2.5510 C   0  0  0  0  0  0  0  0  0  0  0  0
    0.4770    0.6390   -1.6110 C   0  0  2  0  0  0  0  0  0  0  0  0
    0.9190   -0.1590   -0.4800 N   0  0  0  0  0  0  0  0  0  0  0  0
   -0.5400    1.5920   -1.1360 C   0  0  0  0  0  0  0  0  0  0  0  0
   -1.0900    2.4040   -1.9100 O   0  0  0  0  0  0  0  0  0  0  0  0
   -0.9020    1.5980    0.1960 O   0  0  0  0  0  0  0  0  0  0  0  0
   -1.2140   -0.5710   -2.0350 H   0  0  0  0  0  0  0  0  0  0  0  0
   -0.4870    0.1150   -3.5120 H   0  0  0  0  0  0  0  0  0  0  0  0
    0.2920   -1.3000   -2.6180 H   0  0  0  0  0  0  0  0  0  0  0  0
    1.3220    1.1290   -2.1300 H   0  0  0  0  0  0  0  0  0  0  0  0
    0.1690   -0.6450    0.0340 H   0  0  0  0  0  0  0  0  0  0  0  0
  1  8  1  0  0  0  0
  1  2  1  0  0  0  0
  2  3  1  0  0  0  0
  2  9  1  1  0  0  0
  3 11  1  0  0  0  0
  4  2  1  0  0  0  0
  5  4  2  0  0  0  0
  6  1  1  0  0  0  0
  7  1  1  0  0  0  0
 10  3  1  0  0  0  0
 12 16  1  0  0  0  0
 12  4  1  0  0  0  0
 13 17  1  0  0  0  0
 13 12  1  0  0  0  0
 14 13  1  0  0  0  0
 15 14  2  0  0  0  0
 18 13  1  0  0  0  0
 19 25  1  0  0  0  0
 19 20  1  0  0  0  0
 20 28  1  6  0  0  0
 20 22  1  0  0  0  0
 20 21  1  0  0  0  0
 21 14  1  0  0  0  0
 21 29  1  0  0  0  0
 22 24  1  0  0  0  0
 23 22  2  0  0  0  0
 26 19  1  0  0  0  0
 27 19  1  0  0  0  0
M  END
$$$$
