AGP.pdb
 OpenBabel07022418003D

 33 33  0  0  1  0  0  0  0  0999 V2000
   -1.4230   -3.6190    0.8990 C   0  0  0  0  0  0  0  0  0  0  0  0
   -1.1530   -2.9510    2.2050 C   0  0  2  0  0  0  0  0  0  0  0  0
   -2.4130   -2.3620    2.6770 N   0  0  0  0  0  0  0  0  0  0  0  0
   -0.1750   -1.8390    2.1250 C   0  0  0  0  0  0  0  0  0  0  0  0
   -0.4630   -0.6460    2.4350 O   0  0  0  0  0  0  0  0  0  0  0  0
   -2.1140   -3.0010    0.2660 H   0  0  0  0  0  0  0  0  0  0  0  0
   -1.8840   -4.5960    1.0630 H   0  0  0  0  0  0  0  0  0  0  0  0
   -0.4750   -3.7310    0.3190 H   0  0  0  0  0  0  0  0  0  0  0  0
   -0.8370   -3.7310    2.9300 H   0  0  0  0  0  0  0  0  0  0  0  0
   -2.5810   -2.6070    3.6650 H   0  0  0  0  0  0  0  0  0  0  0  0
   -3.2060   -2.5960    2.0660 H   0  0  0  0  0  0  0  0  0  0  0  0
    1.1810   -2.0360    1.6870 N   0  0  0  0  0  0  0  0  0  0  0  0
    2.1500   -0.9990    1.5980 C   0  0  0  0  0  0  0  0  0  0  0  0
    2.0110    0.0930    0.6820 C   0  0  0  0  0  0  0  0  0  0  0  0
    2.9250    1.0220    0.8140 O   0  0  0  0  0  0  0  0  0  0  0  0
    1.3890   -3.0450    1.4330 H   0  0  0  0  0  0  0  0  0  0  0  0
    3.1540   -1.5200    1.3810 H   0  0  0  0  0  0  0  0  0  0  0  0
    2.3600   -0.6170    2.6620 H   0  0  0  0  0  0  0  0  0  0  0  0
    1.0740    0.3450   -0.3350 N   0  0  0  0  0  0  0  0  0  0  0  0
    0.0250   -0.4810   -0.8890 C   0  0  0  0  0  0  0  0  0  0  0  0
   -1.1430    0.5060   -0.7750 C   0  0  0  0  0  0  0  0  0  0  0  0
   -0.5090    1.6300   -1.5960 C   0  0  0  0  0  0  0  0  0  0  0  0
    0.9430    1.6040   -1.0830 C   0  0  1  0  0  0  0  0  0  0  0  0
    1.0920    2.8040   -0.2710 C   0  0  0  0  0  0  0  0  0  0  0  0
    1.1960    3.9100   -0.8440 O   0  0  0  0  0  0  0  0  0  0  0  0
    1.1180    2.7650    1.0960 O   0  0  0  0  0  0  0  0  0  0  0  0
   -0.1350   -1.4500   -0.5030 H   0  0  0  0  0  0  0  0  0  0  0  0
    0.2520   -0.5100   -2.0180 H   0  0  0  0  0  0  0  0  0  0  0  0
   -2.0690    0.1290   -1.1930 H   0  0  0  0  0  0  0  0  0  0  0  0
   -1.1710    0.8560    0.2570 H   0  0  0  0  0  0  0  0  0  0  0  0
   -0.5060    1.4220   -2.6650 H   0  0  0  0  0  0  0  0  0  0  0  0
   -0.9980    2.5860   -1.3970 H   0  0  0  0  0  0  0  0  0  0  0  0
    1.6660    1.6060   -1.9030 H   0  0  0  0  0  0  0  0  0  0  0  0
  1  7  1  0  0  0  0
  1  2  1  0  0  0  0
  2  3  1  0  0  0  0
  2  9  1  1  0  0  0
  3 10  1  0  0  0  0
  4  2  1  0  0  0  0
  4  5  2  0  0  0  0
  6  1  1  0  0  0  0
  8  1  1  0  0  0  0
 11  3  1  0  0  0  0
 12  4  1  0  0  0  0
 13 12  1  0  0  0  0
 13 18  1  0  0  0  0
 14 15  2  0  0  0  0
 14 13  1  0  0  0  0
 16 12  1  0  0  0  0
 17 13  1  0  0  0  0
 19 14  1  0  0  0  0
 20 21  1  0  0  0  0
 20 27  1  0  0  0  0
 20 19  1  0  0  0  0
 21 30  1  0  0  0  0
 22 32  1  0  0  0  0
 22 23  1  0  0  0  0
 22 21  1  0  0  0  0
 23 33  1  6  0  0  0
 23 19  1  0  0  0  0
 23 24  1  0  0  0  0
 24 26  1  0  0  0  0
 25 24  2  0  0  0  0
 28 20  1  0  0  0  0
 29 21  1  0  0  0  0
 31 22  1  0  0  0  0
M  END
$$$$
