AGQ.pdb
 OpenBabel07022418003D

 36 35  0  0  1  0  0  0  0  0999 V2000
   -1.1120   -3.2250    0.7590 C   0  0  0  0  0  0  0  0  0  0  0  0
   -0.0300   -3.5960    1.7650 C   0  0  2  0  0  0  0  0  0  0  0  0
   -0.6140   -3.5480    3.0700 N   0  0  0  0  0  0  0  0  0  0  0  0
    1.1260   -2.6550    1.6320 C   0  0  0  0  0  0  0  0  0  0  0  0
    1.4270   -1.9740    2.6240 O   0  0  0  0  0  0  0  0  0  0  0  0
   -1.2100   -2.1190    0.7980 H   0  0  0  0  0  0  0  0  0  0  0  0
   -0.9040   -3.6240   -0.2340 H   0  0  0  0  0  0  0  0  0  0  0  0
   -2.0980   -3.6300    1.0940 H   0  0  0  0  0  0  0  0  0  0  0  0
    0.2940   -4.6330    1.5610 H   0  0  0  0  0  0  0  0  0  0  0  0
   -1.6010   -3.8830    2.9990 H   0  0  0  0  0  0  0  0  0  0  0  0
   -0.0730   -4.1290    3.7680 H   0  0  0  0  0  0  0  0  0  0  0  0
    1.8560   -2.5350    0.4280 N   0  0  0  0  0  0  0  0  0  0  0  0
    2.9620   -1.6510    0.2290 C   0  0  0  0  0  0  0  0  0  0  0  0
    2.6290   -0.2060    0.3530 C   0  0  0  0  0  0  0  0  0  0  0  0
    3.5600    0.6690    0.2330 O   0  0  0  0  0  0  0  0  0  0  0  0
    1.5190   -3.1700   -0.3570 H   0  0  0  0  0  0  0  0  0  0  0  0
    3.3440   -1.7850   -0.8180 H   0  0  0  0  0  0  0  0  0  0  0  0
    3.8320   -1.8930    0.8760 H   0  0  0  0  0  0  0  0  0  0  0  0
   -2.0910   -0.1680   -1.4430 N   0  0  0  0  0  0  0  0  0  0  0  0
   -0.8810    0.5620   -1.4190 C   0  0  0  0  0  0  0  0  0  0  0  0
    0.1610    0.0230   -1.8450 O   0  0  0  0  0  0  0  0  0  0  0  0
   -0.8340    1.9400   -0.9090 C   0  0  0  0  0  0  0  0  0  0  0  0
    0.5090    2.4140   -0.4670 C   0  0  0  0  0  0  0  0  0  0  0  0
    1.1180    1.7270    0.7040 C   0  0  2  0  0  0  0  0  0  0  0  0
    1.3340    0.3140    0.5960 N   0  0  0  0  0  0  0  0  0  0  0  0
    0.2640    2.0280    1.9000 C   0  0  0  0  0  0  0  0  0  0  0  0
   -0.0720    3.1730    2.2210 O   0  0  0  0  0  0  0  0  0  0  0  0
   -0.1790    0.9680    2.6980 O   0  0  0  0  0  0  0  0  0  0  0  0
   -2.0480   -1.1910   -1.2500 H   0  0  0  0  0  0  0  0  0  0  0  0
   -3.0190    0.2410   -1.6380 H   0  0  0  0  0  0  0  0  0  0  0  0
   -1.1710    2.6430   -1.7210 H   0  0  0  0  0  0  0  0  0  0  0  0
   -1.5870    2.0940   -0.1000 H   0  0  0  0  0  0  0  0  0  0  0  0
    1.1940    2.4870   -1.3410 H   0  0  0  0  0  0  0  0  0  0  0  0
    0.3580    3.4900   -0.1430 H   0  0  0  0  0  0  0  0  0  0  0  0
    2.1390    2.1980    0.8700 H   0  0  0  0  0  0  0  0  0  0  0  0
    0.5220   -0.3620    0.7110 H   0  0  0  0  0  0  0  0  0  0  0  0
  1  6  1  0  0  0  0
  1  8  1  0  0  0  0
  1  2  1  0  0  0  0
  2  9  1  6  0  0  0
  2  3  1  0  0  0  0
  3 11  1  0  0  0  0
  4  2  1  0  0  0  0
  4  5  2  0  0  0  0
  7  1  1  0  0  0  0
 10  3  1  0  0  0  0
 12  4  1  0  0  0  0
 13 14  1  0  0  0  0
 13 12  1  0  0  0  0
 13 18  1  0  0  0  0
 14 25  1  0  0  0  0
 15 14  2  0  0  0  0
 16 12  1  0  0  0  0
 17 13  1  0  0  0  0
 19 20  1  0  0  0  0
 19 29  1  0  0  0  0
 20 22  1  0  0  0  0
 21 20  2  0  0  0  0
 22 23  1  0  0  0  0
 22 32  1  0  0  0  0
 23 34  1  0  0  0  0
 23 24  1  0  0  0  0
 24 35  1  1  0  0  0
 24 26  1  0  0  0  0
 25 24  1  0  0  0  0
 25 36  1  0  0  0  0
 26 27  2  0  0  0  0
 26 28  1  0  0  0  0
 30 19  1  0  0  0  0
 31 22  1  0  0  0  0
 33 23  1  0  0  0  0
M  END
$$$$
