AGV.pdb
 OpenBabel07022418003D

 35 34  0  0  1  0  0  0  0  0999 V2000
    1.9220   -3.8730    4.0410 C   0  0  0  0  0  0  0  0  0  0  0  0
    0.7260   -2.9840    3.8870 C   0  0  2  0  0  0  0  0  0  0  0  0
   -0.4830   -3.7010    4.2310 N   0  0  0  0  0  0  0  0  0  0  0  0
    0.6090   -2.4500    2.5060 C   0  0  0  0  0  0  0  0  0  0  0  0
    1.5800   -1.7910    2.0360 O   0  0  0  0  0  0  0  0  0  0  0  0
    2.7270   -3.3640    4.6400 H   0  0  0  0  0  0  0  0  0  0  0  0
    1.6220   -4.7620    4.6280 H   0  0  0  0  0  0  0  0  0  0  0  0
    2.3220   -4.2350    3.0750 H   0  0  0  0  0  0  0  0  0  0  0  0
    0.8340   -2.1370    4.5990 H   0  0  0  0  0  0  0  0  0  0  0  0
   -1.3250   -3.1210    4.2140 H   0  0  0  0  0  0  0  0  0  0  0  0
   -0.5540   -4.6340    3.8080 H   0  0  0  0  0  0  0  0  0  0  0  0
   -0.5370   -2.6420    1.6910 N   0  0  0  0  0  0  0  0  0  0  0  0
   -0.6180   -2.1070    0.3480 C   0  0  0  0  0  0  0  0  0  0  0  0
   -0.4870   -0.6060    0.3850 C   0  0  0  0  0  0  0  0  0  0  0  0
   -0.3310   -0.0170    1.4930 O   0  0  0  0  0  0  0  0  0  0  0  0
   -1.3350   -3.2000    2.1160 H   0  0  0  0  0  0  0  0  0  0  0  0
    0.2060   -2.5470   -0.2390 H   0  0  0  0  0  0  0  0  0  0  0  0
   -1.6240   -2.3250   -0.0620 H   0  0  0  0  0  0  0  0  0  0  0  0
    2.0720    1.4770   -1.0990 C   0  0  0  0  0  0  0  0  0  0  0  0
    0.7740    2.0750   -1.5740 C   0  0  0  0  0  0  0  0  0  0  0  0
    0.5970    1.7230   -3.0280 C   0  0  0  0  0  0  0  0  0  0  0  0
   -0.4030    1.6120   -0.7360 C   0  0  2  0  0  0  0  0  0  0  0  0
   -0.5330    0.1670   -0.7980 N   0  0  0  0  0  0  0  0  0  0  0  0
   -1.6070    2.2780   -1.2860 C   0  0  0  0  0  0  0  0  0  0  0  0
   -2.5310    1.5460   -1.7120 O   0  0  0  0  0  0  0  0  0  0  0  0
   -1.7730    3.6480   -1.3600 O   0  0  0  0  0  0  0  0  0  0  0  0
    2.8020    1.5750   -1.9360 H   0  0  0  0  0  0  0  0  0  0  0  0
    2.5180    2.0470   -0.2480 H   0  0  0  0  0  0  0  0  0  0  0  0
    1.9900    0.3950   -0.8830 H   0  0  0  0  0  0  0  0  0  0  0  0
    0.8800    3.1750   -1.5170 H   0  0  0  0  0  0  0  0  0  0  0  0
    0.7890    0.6370   -3.2180 H   0  0  0  0  0  0  0  0  0  0  0  0
    1.2920    2.3620   -3.6180 H   0  0  0  0  0  0  0  0  0  0  0  0
   -0.4750    1.9300   -3.2860 H   0  0  0  0  0  0  0  0  0  0  0  0
   -0.2750    1.9710    0.2980 H   0  0  0  0  0  0  0  0  0  0  0  0
   -0.6620   -0.3470   -1.6950 H   0  0  0  0  0  0  0  0  0  0  0  0
  1  7  1  0  0  0  0
  1  6  1  0  0  0  0
  2  1  1  0  0  0  0
  2  3  1  0  0  0  0
  2  9  1  1  0  0  0
  4  2  1  0  0  0  0
  5  4  2  0  0  0  0
  8  1  1  0  0  0  0
 10  3  1  0  0  0  0
 11  3  1  0  0  0  0
 12 16  1  0  0  0  0
 12  4  1  0  0  0  0
 13 14  1  0  0  0  0
 13 12  1  0  0  0  0
 14 15  2  0  0  0  0
 17 13  1  0  0  0  0
 18 13  1  0  0  0  0
 19 29  1  0  0  0  0
 19 28  1  0  0  0  0
 20 30  1  0  0  0  0
 20 19  1  0  0  0  0
 20 22  1  0  0  0  0
 21 20  1  0  0  0  0
 22 34  1  1  0  0  0
 23 22  1  0  0  0  0
 23 14  1  0  0  0  0
 24 22  1  0  0  0  0
 25 24  2  0  0  0  0
 26 24  1  0  0  0  0
 27 19  1  0  0  0  0
 31 21  1  0  0  0  0
 32 21  1  0  0  0  0
 33 21  1  0  0  0  0
 35 23  1  0  0  0  0
M  END
$$$$
