AGW.pdb
 OpenBabel07022418003D

 43 44  0  0  1  0  0  0  0  0999 V2000
    0.6810   -4.0200    0.9730 C   0  0  0  0  0  0  0  0  0  0  0  0
    0.8150   -4.1480   -0.5280 C   0  0  2  0  0  0  0  0  0  0  0  0
    2.0680   -4.6920   -0.9530 N   0  0  0  0  0  0  0  0  0  0  0  0
    0.5380   -2.8210   -1.1860 C   0  0  0  0  0  0  0  0  0  0  0  0
    1.3740   -2.3620   -2.0040 O   0  0  0  0  0  0  0  0  0  0  0  0
    1.0720   -3.0190    1.3100 H   0  0  0  0  0  0  0  0  0  0  0  0
   -0.3900   -4.1470    1.2420 H   0  0  0  0  0  0  0  0  0  0  0  0
    1.2500   -4.8130    1.4910 H   0  0  0  0  0  0  0  0  0  0  0  0
    0.0030   -4.8370   -0.8770 H   0  0  0  0  0  0  0  0  0  0  0  0
    2.4870   -5.2870   -0.1850 H   0  0  0  0  0  0  0  0  0  0  0  0
    1.9790   -5.2960   -1.7930 H   0  0  0  0  0  0  0  0  0  0  0  0
   -0.6250   -2.0910   -0.9060 N   0  0  0  0  0  0  0  0  0  0  0  0
   -0.9800   -0.8330   -1.4580 C   0  0  0  0  0  0  0  0  0  0  0  0
   -0.0720    0.2880   -1.1460 C   0  0  0  0  0  0  0  0  0  0  0  0
   -0.2880    1.4530   -1.6330 O   0  0  0  0  0  0  0  0  0  0  0  0
   -1.2900   -2.5460   -0.2100 H   0  0  0  0  0  0  0  0  0  0  0  0
   -0.9970   -0.9370   -2.5830 H   0  0  0  0  0  0  0  0  0  0  0  0
   -2.0420   -0.5690   -1.2080 H   0  0  0  0  0  0  0  0  0  0  0  0
    1.0720    0.1640   -0.3090 N   0  0  0  0  0  0  0  0  0  0  0  0
    1.9150    1.3190   -0.0610 C   0  0  1  0  0  0  0  0  0  0  0  0
    1.9290    1.7580    1.3680 C   0  0  0  0  0  0  0  0  0  0  0  0
    0.6420    2.1610    1.9330 C   0  0  0  0  0  0  0  0  0  0  0  0
    0.1590    3.4730    2.0670 C   0  0  0  0  0  0  0  0  0  0  0  0
   -1.0700    3.4320    2.6000 N   0  0  0  0  0  0  0  0  0  0  0  0
   -1.4340    2.1430    2.8300 C   0  0  0  0  0  0  0  0  0  0  0  0
   -2.5680    1.5670    3.3590 C   0  0  0  0  0  0  0  0  0  0  0  0
   -2.6720    0.1980    3.4910 C   0  0  0  0  0  0  0  0  0  0  0  0
   -1.6300   -0.6030    3.0880 C   0  0  0  0  0  0  0  0  0  0  0  0
   -0.5100    0.0010    2.5630 C   0  0  0  0  0  0  0  0  0  0  0  0
   -0.3560    1.3570    2.4100 C   0  0  0  0  0  0  0  0  0  0  0  0
    3.3010    0.9410   -0.4440 C   0  0  0  0  0  0  0  0  0  0  0  0
    4.2710    1.7370   -0.3400 O   0  0  0  0  0  0  0  0  0  0  0  0
    3.6120   -0.3300   -0.9430 O   0  0  0  0  0  0  0  0  0  0  0  0
    1.3000   -0.7740    0.1310 H   0  0  0  0  0  0  0  0  0  0  0  0
    1.5720    2.1820   -0.7160 H   0  0  0  0  0  0  0  0  0  0  0  0
    2.4330    0.9500    1.9430 H   0  0  0  0  0  0  0  0  0  0  0  0
    2.6450    2.6290    1.4390 H   0  0  0  0  0  0  0  0  0  0  0  0
    0.6980    4.3520    1.7840 H   0  0  0  0  0  0  0  0  0  0  0  0
   -1.6910    4.2480    2.8210 H   0  0  0  0  0  0  0  0  0  0  0  0
   -3.3870    2.2170    3.6750 H   0  0  0  0  0  0  0  0  0  0  0  0
   -3.5560   -0.2850    3.9040 H   0  0  0  0  0  0  0  0  0  0  0  0
   -1.6380   -1.6830    3.1600 H   0  0  0  0  0  0  0  0  0  0  0  0
    0.3340   -0.6310    2.2510 H   0  0  0  0  0  0  0  0  0  0  0  0
  1  7  1  0  0  0  0
  1  6  1  0  0  0  0
  1  8  1  0  0  0  0
  2  9  1  6  0  0  0
  2  1  1  0  0  0  0
  3  2  1  0  0  0  0
  3 10  1  0  0  0  0
  4 12  1  0  0  0  0
  4  2  1  0  0  0  0
  5  4  2  0  0  0  0
 11  3  1  0  0  0  0
 12 16  1  0  0  0  0
 13 18  1  0  0  0  0
 13 14  1  0  0  0  0
 13 12  1  0  0  0  0
 14 19  1  0  0  0  0
 15 14  2  0  0  0  0
 17 13  1  0  0  0  0
 19 20  1  0  0  0  0
 19 34  1  0  0  0  0
 20 35  1  6  0  0  0
 20 21  1  0  0  0  0
 21 37  1  0  0  0  0
 21 22  1  0  0  0  0
 21 36  1  0  0  0  0
 22 23  2  0  0  0  0
 22 30  1  0  0  0  0
 23 24  1  0  0  0  0
 24 39  1  0  0  0  0
 24 25  1  0  0  0  0
 25 26  1  0  0  0  0
 26 27  2  0  0  0  0
 26 40  1  0  0  0  0
 27 41  1  0  0  0  0
 28 42  1  0  0  0  0
 28 27  1  0  0  0  0
 29 28  2  0  0  0  0
 30 29  1  0  0  0  0
 30 25  2  0  0  0  0
 31 32  1  0  0  0  0
 31 20  1  0  0  0  0
 33 31  2  0  0  0  0
 38 23  1  0  0  0  0
 43 29  1  0  0  0  0
M  END
$$$$
