AHF.pdb
 OpenBabel07022418013D

 49 50  0  0  1  0  0  0  0  0999 V2000
    0.2220   -2.9670    4.4600 C   0  0  0  0  0  0  0  0  0  0  0  0
    0.6700   -1.5760    4.9020 C   0  0  2  0  0  0  0  0  0  0  0  0
   -0.2970   -1.0520    5.8440 N   0  0  0  0  0  0  0  0  0  0  0  0
    0.6070   -0.6960    3.6840 C   0  0  0  0  0  0  0  0  0  0  0  0
   -0.1860    0.2920    3.6180 O   0  0  0  0  0  0  0  0  0  0  0  0
    1.0610   -3.6720    4.5140 H   0  0  0  0  0  0  0  0  0  0  0  0
   -0.6330   -3.3110    5.1090 H   0  0  0  0  0  0  0  0  0  0  0  0
   -0.1860   -2.9550    3.4250 H   0  0  0  0  0  0  0  0  0  0  0  0
    1.6830   -1.5950    5.3310 H   0  0  0  0  0  0  0  0  0  0  0  0
   -0.5870   -0.0830    5.5850 H   0  0  0  0  0  0  0  0  0  0  0  0
   -1.1610   -1.6380    5.8250 H   0  0  0  0  0  0  0  0  0  0  0  0
    1.4300   -0.9310    2.5570 N   0  0  0  0  0  0  0  0  0  0  0  0
    1.3670   -0.0630    1.3570 C   0  0  1  0  0  0  0  0  0  0  0  0
    2.6600    0.6480    1.2040 C   0  0  0  0  0  0  0  0  0  0  0  0
    2.6880    1.5330    0.0360 C   0  0  0  0  0  0  0  0  0  0  0  0
    2.2760    2.8760   -0.0060 C   0  0  0  0  0  0  0  0  0  0  0  0
    2.4630    3.3240   -1.2540 N   0  0  0  0  0  0  0  0  0  0  0  0
    2.9710    2.3460   -2.0170 C   0  0  0  0  0  0  0  0  0  0  0  0
    3.0970    1.2780   -1.2190 N   0  0  0  0  0  0  0  0  0  0  0  0
    0.8850   -0.8150    0.2100 C   0  0  0  0  0  0  0  0  0  0  0  0
    0.8240   -2.0960    0.3710 O   0  0  0  0  0  0  0  0  0  0  0  0
    2.1020   -1.7240    2.5440 H   0  0  0  0  0  0  0  0  0  0  0  0
    0.5950    0.7000    1.5980 H   0  0  0  0  0  0  0  0  0  0  0  0
    2.8600    1.2570    2.1200 H   0  0  0  0  0  0  0  0  0  0  0  0
    3.5200   -0.0660    1.0770 H   0  0  0  0  0  0  0  0  0  0  0  0
    1.8820    3.4050    0.8620 H   0  0  0  0  0  0  0  0  0  0  0  0
    2.2510    4.2790   -1.5930 H   0  0  0  0  0  0  0  0  0  0  0  0
    3.2270    2.4240   -3.0860 H   0  0  0  0  0  0  0  0  0  0  0  0
    0.4680   -0.3580   -1.0490 N   0  0  0  0  0  0  0  0  0  0  0  0
   -0.0030   -1.2370   -2.0980 C   0  0  1  0  0  0  0  0  0  0  0  0
   -1.4830   -1.0220   -2.3740 C   0  0  0  0  0  0  0  0  0  0  0  0
   -2.3010   -1.2880   -1.1640 C   0  0  0  0  0  0  0  0  0  0  0  0
   -2.6130   -0.3150   -0.2400 C   0  0  0  0  0  0  0  0  0  0  0  0
   -3.3720   -0.5680    0.8800 C   0  0  0  0  0  0  0  0  0  0  0  0
   -3.8420   -1.8430    1.0930 C   0  0  0  0  0  0  0  0  0  0  0  0
   -3.5460   -2.8500    0.1820 C   0  0  0  0  0  0  0  0  0  0  0  0
   -2.7820   -2.5590   -0.9320 C   0  0  0  0  0  0  0  0  0  0  0  0
    0.7940   -1.1110   -3.3270 C   0  0  0  0  0  0  0  0  0  0  0  0
    0.4450   -1.8690   -4.3030 O   0  0  0  0  0  0  0  0  0  0  0  0
    1.8570   -0.2900   -3.5580 O   0  0  0  0  0  0  0  0  0  0  0  0
    0.4800    0.6600   -1.2300 H   0  0  0  0  0  0  0  0  0  0  0  0
    0.0690   -2.3190   -1.7710 H   0  0  0  0  0  0  0  0  0  0  0  0
   -1.6910   -0.0260   -2.8090 H   0  0  0  0  0  0  0  0  0  0  0  0
   -1.7740   -1.7740   -3.1380 H   0  0  0  0  0  0  0  0  0  0  0  0
   -2.2490    0.7000   -0.3940 H   0  0  0  0  0  0  0  0  0  0  0  0
   -3.6040    0.2170    1.5930 H   0  0  0  0  0  0  0  0  0  0  0  0
   -4.4390   -2.0330    1.9780 H   0  0  0  0  0  0  0  0  0  0  0  0
   -3.9320   -3.8450    0.3790 H   0  0  0  0  0  0  0  0  0  0  0  0
   -2.5730   -3.3630   -1.6150 H   0  0  0  0  0  0  0  0  0  0  0  0
  1  6  1  0  0  0  0
  1  2  1  0  0  0  0
  1  7  1  0  0  0  0
  2  9  1  1  0  0  0
  2  3  1  0  0  0  0
  4  2  1  0  0  0  0
  5  4  2  0  0  0  0
  8  1  1  0  0  0  0
 10  3  1  0  0  0  0
 11  3  1  0  0  0  0
 12  4  1  0  0  0  0
 13 23  1  1  0  0  0
 13 12  1  0  0  0  0
 14 13  1  0  0  0  0
 14 24  1  0  0  0  0
 15 14  1  0  0  0  0
 16 15  2  0  0  0  0
 16 26  1  0  0  0  0
 17 16  1  0  0  0  0
 18 17  1  0  0  0  0
 18 19  2  0  0  0  0
 19 15  1  0  0  0  0
 20 21  2  0  0  0  0
 20 13  1  0  0  0  0
 22 12  1  0  0  0  0
 25 14  1  0  0  0  0
 27 17  1  0  0  0  0
 28 18  1  0  0  0  0
 29 20  1  0  0  0  0
 30 42  1  1  0  0  0
 30 29  1  0  0  0  0
 31 30  1  0  0  0  0
 31 32  1  0  0  0  0
 32 37  2  0  0  0  0
 32 33  1  0  0  0  0
 33 34  2  0  0  0  0
 34 35  1  0  0  0  0
 34 46  1  0  0  0  0
 35 47  1  0  0  0  0
 36 48  1  0  0  0  0
 36 35  2  0  0  0  0
 37 36  1  0  0  0  0
 38 30  1  0  0  0  0
 39 38  2  0  0  0  0
 40 38  1  0  0  0  0
 41 29  1  0  0  0  0
 43 31  1  0  0  0  0
 44 31  1  0  0  0  0
 45 33  1  0  0  0  0
 49 37  1  0  0  0  0
M  END
$$$$
