AHH.pdb
 OpenBabel07022418013D

 46 47  0  0  1  0  0  0  0  0999 V2000
    4.4080   -4.0390    1.1250 C   0  0  0  0  0  0  0  0  0  0  0  0
    2.9440   -3.6870    1.2020 C   0  0  2  0  0  0  0  0  0  0  0  0
    2.3770   -3.6420   -0.1100 N   0  0  0  0  0  0  0  0  0  0  0  0
    2.8060   -2.3860    1.9230 C   0  0  0  0  0  0  0  0  0  0  0  0
    3.2550   -2.2640    3.0910 O   0  0  0  0  0  0  0  0  0  0  0  0
    4.6060   -5.1100    1.0660 H   0  0  0  0  0  0  0  0  0  0  0  0
    4.8690   -3.6520    2.0790 H   0  0  0  0  0  0  0  0  0  0  0  0
    4.8820   -3.4490    0.3090 H   0  0  0  0  0  0  0  0  0  0  0  0
    2.4450   -4.5080    1.7660 H   0  0  0  0  0  0  0  0  0  0  0  0
    1.3540   -3.4550   -0.0810 H   0  0  0  0  0  0  0  0  0  0  0  0
    2.5100   -4.5820   -0.5420 H   0  0  0  0  0  0  0  0  0  0  0  0
    2.1760   -1.2500    1.3450 N   0  0  0  0  0  0  0  0  0  0  0  0
    2.0320    0.0080    2.0160 C   0  0  1  0  0  0  0  0  0  0  0  0
    2.7640    1.1030    1.2310 C   0  0  0  0  0  0  0  0  0  0  0  0
    2.2060    1.2270   -0.1390 C   0  0  0  0  0  0  0  0  0  0  0  0
    2.6570    0.5260   -1.2360 C   0  0  0  0  0  0  0  0  0  0  0  0
    1.8950    0.9240   -2.2690 N   0  0  0  0  0  0  0  0  0  0  0  0
    0.9980    1.8350   -1.8640 C   0  0  0  0  0  0  0  0  0  0  0  0
    1.1970    2.0160   -0.5510 N   0  0  0  0  0  0  0  0  0  0  0  0
    0.6100    0.3990    2.1590 C   0  0  0  0  0  0  0  0  0  0  0  0
    0.3520    1.4890    2.7350 O   0  0  0  0  0  0  0  0  0  0  0  0
    1.8030   -1.3690    0.3620 H   0  0  0  0  0  0  0  0  0  0  0  0
    2.4780   -0.0550    3.0250 H   0  0  0  0  0  0  0  0  0  0  0  0
    3.8550    0.9000    1.2300 H   0  0  0  0  0  0  0  0  0  0  0  0
    2.6190    2.0780    1.7460 H   0  0  0  0  0  0  0  0  0  0  0  0
    3.4710   -0.2140   -1.2860 H   0  0  0  0  0  0  0  0  0  0  0  0
    2.0070    0.5540   -3.2590 H   0  0  0  0  0  0  0  0  0  0  0  0
    0.2760    2.3050   -2.5060 H   0  0  0  0  0  0  0  0  0  0  0  0
   -0.4710   -0.3700    1.6940 N   0  0  0  0  0  0  0  0  0  0  0  0
   -1.8350    0.1100    1.8890 C   0  0  1  0  0  0  0  0  0  0  0  0
   -2.4220    0.2400    0.4780 C   0  0  0  0  0  0  0  0  0  0  0  0
   -3.8030    0.7170    0.4860 C   0  0  0  0  0  0  0  0  0  0  0  0
   -4.2390    2.0200    0.4390 C   0  0  0  0  0  0  0  0  0  0  0  0
   -5.5840    2.0100    0.4680 N   0  0  0  0  0  0  0  0  0  0  0  0
   -5.9790    0.7340    0.5310 C   0  0  0  0  0  0  0  0  0  0  0  0
   -4.9000   -0.0540    0.5430 N   0  0  0  0  0  0  0  0  0  0  0  0
   -2.5890   -0.9410    2.5980 C   0  0  0  0  0  0  0  0  0  0  0  0
   -2.0590   -2.0330    2.9350 O   0  0  0  0  0  0  0  0  0  0  0  0
   -3.9280   -0.7770    2.9290 O   0  0  0  0  0  0  0  0  0  0  0  0
   -0.2910   -1.2780    1.2140 H   0  0  0  0  0  0  0  0  0  0  0  0
   -1.8230    1.0710    2.4080 H   0  0  0  0  0  0  0  0  0  0  0  0
   -1.7520    0.8850   -0.1580 H   0  0  0  0  0  0  0  0  0  0  0  0
   -2.3380   -0.7880    0.0310 H   0  0  0  0  0  0  0  0  0  0  0  0
   -3.6390    2.9380    0.3870 H   0  0  0  0  0  0  0  0  0  0  0  0
   -6.2440    2.8410    0.4460 H   0  0  0  0  0  0  0  0  0  0  0  0
   -6.9900    0.3320    0.5700 H   0  0  0  0  0  0  0  0  0  0  0  0
  1  2  1  0  0  0  0
  1  7  1  0  0  0  0
  2  9  1  1  0  0  0
  2  4  1  0  0  0  0
  3 10  1  0  0  0  0
  3  2  1  0  0  0  0
  4  5  2  0  0  0  0
  6  1  1  0  0  0  0
  8  1  1  0  0  0  0
 11  3  1  0  0  0  0
 12  4  1  0  0  0  0
 12 13  1  0  0  0  0
 13 20  1  0  0  0  0
 13 23  1  1  0  0  0
 14 25  1  0  0  0  0
 14 13  1  0  0  0  0
 15 14  1  0  0  0  0
 16 15  2  0  0  0  0
 17 18  1  0  0  0  0
 17 16  1  0  0  0  0
 18 19  2  0  0  0  0
 19 15  1  0  0  0  0
 20 21  2  0  0  0  0
 22 12  1  0  0  0  0
 24 14  1  0  0  0  0
 26 16  1  0  0  0  0
 27 17  1  0  0  0  0
 28 18  1  0  0  0  0
 29 30  1  0  0  0  0
 29 20  1  0  0  0  0
 30 41  1  1  0  0  0
 30 37  1  0  0  0  0
 31 32  1  0  0  0  0
 31 30  1  0  0  0  0
 32 36  1  0  0  0  0
 33 34  1  0  0  0  0
 33 32  2  0  0  0  0
 34 35  1  0  0  0  0
 35 36  2  0  0  0  0
 35 46  1  0  0  0  0
 37 39  2  0  0  0  0
 37 38  1  0  0  0  0
 40 29  1  0  0  0  0
 42 31  1  0  0  0  0
 43 31  1  0  0  0  0
 44 33  1  0  0  0  0
 45 34  1  0  0  0  0
M  END
$$$$
