AHK.pdb
 OpenBabel07022418013D

 50 50  0  0  1  0  0  0  0  0999 V2000
    4.4150   -3.6910    3.0920 C   0  0  0  0  0  0  0  0  0  0  0  0
    3.0440   -3.3100    2.5950 C   0  0  2  0  0  0  0  0  0  0  0  0
    2.8820   -3.4730    1.1800 N   0  0  0  0  0  0  0  0  0  0  0  0
    2.6490   -1.9490    3.0430 C   0  0  0  0  0  0  0  0  0  0  0  0
    2.7340   -1.6510    4.2550 O   0  0  0  0  0  0  0  0  0  0  0  0
    4.4460   -4.7980    3.1810 H   0  0  0  0  0  0  0  0  0  0  0  0
    5.2230   -3.3870    2.4240 H   0  0  0  0  0  0  0  0  0  0  0  0
    4.5090   -3.2890    4.1210 H   0  0  0  0  0  0  0  0  0  0  0  0
    2.3270   -4.0280    3.0920 H   0  0  0  0  0  0  0  0  0  0  0  0
    3.5590   -2.8630    0.6860 H   0  0  0  0  0  0  0  0  0  0  0  0
    1.9230   -3.2220    0.9250 H   0  0  0  0  0  0  0  0  0  0  0  0
    2.1720   -0.9470    2.1580 N   0  0  0  0  0  0  0  0  0  0  0  0
    1.7890    0.3790    2.6040 C   0  0  1  0  0  0  0  0  0  0  0  0
    2.7010    1.4140    1.9540 C   0  0  0  0  0  0  0  0  0  0  0  0
    2.6050    1.3680    0.4790 C   0  0  0  0  0  0  0  0  0  0  0  0
    3.3880    0.5880   -0.3460 C   0  0  0  0  0  0  0  0  0  0  0  0
    3.0020    0.8210   -1.6160 N   0  0  0  0  0  0  0  0  0  0  0  0
    2.0050    1.7200   -1.6150 C   0  0  0  0  0  0  0  0  0  0  0  0
    1.7740    2.0440   -0.3340 N   0  0  0  0  0  0  0  0  0  0  0  0
    0.3700    0.6760    2.2060 C   0  0  0  0  0  0  0  0  0  0  0  0
   -0.1790    1.7660    2.4850 O   0  0  0  0  0  0  0  0  0  0  0  0
    2.1010   -1.1950    1.1470 H   0  0  0  0  0  0  0  0  0  0  0  0
    1.9300    0.4580    3.7000 H   0  0  0  0  0  0  0  0  0  0  0  0
    2.4510    2.4200    2.3100 H   0  0  0  0  0  0  0  0  0  0  0  0
    3.7470    1.1940    2.2470 H   0  0  0  0  0  0  0  0  0  0  0  0
    4.1910   -0.1090   -0.0610 H   0  0  0  0  0  0  0  0  0  0  0  0
    3.4390    0.3520   -2.4580 H   0  0  0  0  0  0  0  0  0  0  0  0
    1.5240    2.0730   -2.5110 H   0  0  0  0  0  0  0  0  0  0  0  0
   -0.3600   -0.3060    1.4980 N   0  0  0  0  0  0  0  0  0  0  0  0
   -1.7940    0.0270    1.1100 C   0  0  1  0  0  0  0  0  0  0  0  0
   -1.8970   -0.2370   -0.3490 C   0  0  0  0  0  0  0  0  0  0  0  0
   -3.0770    0.0560   -1.1360 C   0  0  0  0  0  0  0  0  0  0  0  0
   -4.3680   -0.5470   -0.7520 C   0  0  0  0  0  0  0  0  0  0  0  0
   -5.3740   -0.1310   -1.8760 C   0  0  0  0  0  0  0  0  0  0  0  0
   -4.8770   -0.6550   -3.1210 N   0  0  0  0  0  0  0  0  0  0  0  0
   -2.5070   -1.0600    1.8720 C   0  0  0  0  0  0  0  0  0  0  0  0
   -1.8310   -1.9930    2.4650 O   0  0  0  0  0  0  0  0  0  0  0  0
   -3.8580   -1.1940    2.0330 O   0  0  0  0  0  0  0  0  0  0  0  0
    0.0370   -1.2240    1.2380 H   0  0  0  0  0  0  0  0  0  0  0  0
   -2.0660    1.0060    1.4420 H   0  0  0  0  0  0  0  0  0  0  0  0
   -1.0330    0.3590   -0.8240 H   0  0  0  0  0  0  0  0  0  0  0  0
   -1.5530   -1.3010   -0.5840 H   0  0  0  0  0  0  0  0  0  0  0  0
   -3.2510    1.1780   -1.2340 H   0  0  0  0  0  0  0  0  0  0  0  0
   -2.8190   -0.2280   -2.2200 H   0  0  0  0  0  0  0  0  0  0  0  0
   -4.7970    0.0210    0.1350 H   0  0  0  0  0  0  0  0  0  0  0  0
   -4.3550   -1.6090   -0.6310 H   0  0  0  0  0  0  0  0  0  0  0  0
   -5.3820    0.9590   -1.9240 H   0  0  0  0  0  0  0  0  0  0  0  0
   -6.3690   -0.5280   -1.5920 H   0  0  0  0  0  0  0  0  0  0  0  0
   -4.3000   -1.5020   -2.9720 H   0  0  0  0  0  0  0  0  0  0  0  0
   -4.3730    0.0830   -3.6400 H   0  0  0  0  0  0  0  0  0  0  0  0
  1  6  1  0  0  0  0
  1  8  1  0  0  0  0
  2  4  1  0  0  0  0
  2  9  1  1  0  0  0
  2  1  1  0  0  0  0
  3  2  1  0  0  0  0
  4  5  2  0  0  0  0
  7  1  1  0  0  0  0
 10  3  1  0  0  0  0
 11  3  1  0  0  0  0
 12 13  1  0  0  0  0
 12  4  1  0  0  0  0
 13 23  1  1  0  0  0
 14 25  1  0  0  0  0
 14 24  1  0  0  0  0
 14 13  1  0  0  0  0
 15 14  1  0  0  0  0
 16 26  1  0  0  0  0
 16 15  2  0  0  0  0
 17 18  1  0  0  0  0
 17 16  1  0  0  0  0
 18 19  2  0  0  0  0
 19 15  1  0  0  0  0
 20 21  2  0  0  0  0
 20 13  1  0  0  0  0
 22 12  1  0  0  0  0
 27 17  1  0  0  0  0
 28 18  1  0  0  0  0
 29 20  1  0  0  0  0
 30 40  1  1  0  0  0
 30 29  1  0  0  0  0
 30 36  1  0  0  0  0
 31 30  1  0  0  0  0
 32 33  1  0  0  0  0
 32 31  1  0  0  0  0
 33 46  1  0  0  0  0
 33 45  1  0  0  0  0
 34 48  1  0  0  0  0
 34 33  1  0  0  0  0
 35 49  1  0  0  0  0
 35 34  1  0  0  0  0
 36 38  2  0  0  0  0
 36 37  1  0  0  0  0
 39 29  1  0  0  0  0
 41 31  1  0  0  0  0
 42 31  1  0  0  0  0
 43 32  1  0  0  0  0
 44 32  1  0  0  0  0
 47 34  1  0  0  0  0
 50 35  1  0  0  0  0
M  END
$$$$
