AHL.pdb
 OpenBabel07022418013D

 48 48  0  0  1  0  0  0  0  0999 V2000
    3.4590   -3.8300    1.5820 C   0  0  0  0  0  0  0  0  0  0  0  0
    4.0720   -2.5960    0.9670 C   0  0  2  0  0  0  0  0  0  0  0  0
    5.1300   -2.1500    1.8520 N   0  0  0  0  0  0  0  0  0  0  0  0
    3.0970   -1.5230    0.7460 C   0  0  0  0  0  0  0  0  0  0  0  0
    3.2800   -0.4140    1.3120 O   0  0  0  0  0  0  0  0  0  0  0  0
    2.6820   -3.5800    2.3450 H   0  0  0  0  0  0  0  0  0  0  0  0
    4.2670   -4.3630    2.1240 H   0  0  0  0  0  0  0  0  0  0  0  0
    3.0770   -4.5430    0.8230 H   0  0  0  0  0  0  0  0  0  0  0  0
    4.5100   -2.8800   -0.0150 H   0  0  0  0  0  0  0  0  0  0  0  0
    4.7730   -1.4650    2.5800 H   0  0  0  0  0  0  0  0  0  0  0  0
    5.4830   -2.9710    2.4220 H   0  0  0  0  0  0  0  0  0  0  0  0
    1.9490   -1.6360   -0.0670 N   0  0  0  0  0  0  0  0  0  0  0  0
    1.0280   -0.5420   -0.2440 C   0  0  1  0  0  0  0  0  0  0  0  0
    1.0180   -0.0820   -1.6610 C   0  0  0  0  0  0  0  0  0  0  0  0
    2.4100    0.3650   -1.9990 C   0  0  0  0  0  0  0  0  0  0  0  0
    2.9290    1.6420   -1.8500 C   0  0  0  0  0  0  0  0  0  0  0  0
    4.2090    1.6210   -2.2680 N   0  0  0  0  0  0  0  0  0  0  0  0
    4.5060    0.3930   -2.6690 C   0  0  0  0  0  0  0  0  0  0  0  0
    3.4120   -0.3720   -2.5060 N   0  0  0  0  0  0  0  0  0  0  0  0
   -0.2690   -0.8960    0.3170 C   0  0  0  0  0  0  0  0  0  0  0  0
   -0.4220   -2.0260    0.8480 O   0  0  0  0  0  0  0  0  0  0  0  0
    1.7530   -2.5290   -0.5560 H   0  0  0  0  0  0  0  0  0  0  0  0
    1.4230    0.3190    0.3660 H   0  0  0  0  0  0  0  0  0  0  0  0
    0.7260   -0.8190   -2.4000 H   0  0  0  0  0  0  0  0  0  0  0  0
    0.3780    0.8180   -1.7810 H   0  0  0  0  0  0  0  0  0  0  0  0
    2.3930    2.4990   -1.4650 H   0  0  0  0  0  0  0  0  0  0  0  0
    4.8800    2.4160   -2.2880 H   0  0  0  0  0  0  0  0  0  0  0  0
    5.4650    0.0610   -3.0610 H   0  0  0  0  0  0  0  0  0  0  0  0
   -4.7260    1.1950    3.7370 C   0  0  0  0  0  0  0  0  0  0  0  0
   -4.4100    0.1880    2.6190 C   0  0  0  0  0  0  0  0  0  0  0  0
   -4.5020   -1.1760    3.2140 C   0  0  0  0  0  0  0  0  0  0  0  0
   -3.1050    0.5050    1.9850 C   0  0  0  0  0  0  0  0  0  0  0  0
   -2.6980   -0.4220    0.8810 C   0  0  2  0  0  0  0  0  0  0  0  0
   -1.4100   -0.0470    0.3140 N   0  0  0  0  0  0  0  0  0  0  0  0
   -3.6650   -0.4700   -0.2410 C   0  0  0  0  0  0  0  0  0  0  0  0
   -3.2830   -0.1900   -1.4200 O   0  0  0  0  0  0  0  0  0  0  0  0
   -5.0020   -0.8110   -0.0930 O   0  0  0  0  0  0  0  0  0  0  0  0
   -4.7480    2.2180    3.3510 H   0  0  0  0  0  0  0  0  0  0  0  0
   -5.6840    0.8840    4.2110 H   0  0  0  0  0  0  0  0  0  0  0  0
   -3.9420    1.0430    4.4970 H   0  0  0  0  0  0  0  0  0  0  0  0
   -5.2700    0.3120    1.9110 H   0  0  0  0  0  0  0  0  0  0  0  0
   -5.4200   -1.1980    3.8630 H   0  0  0  0  0  0  0  0  0  0  0  0
   -3.6530   -1.3190    3.9130 H   0  0  0  0  0  0  0  0  0  0  0  0
   -4.6160   -1.9930    2.4930 H   0  0  0  0  0  0  0  0  0  0  0  0
   -2.3080    0.6170    2.7240 H   0  0  0  0  0  0  0  0  0  0  0  0
   -3.2160    1.5240    1.5100 H   0  0  0  0  0  0  0  0  0  0  0  0
   -2.6710   -1.4460    1.3100 H   0  0  0  0  0  0  0  0  0  0  0  0
   -1.2720    0.8850   -0.1290 H   0  0  0  0  0  0  0  0  0  0  0  0
  1  7  1  0  0  0  0
  1  6  1  0  0  0  0
  2  9  1  6  0  0  0
  2  1  1  0  0  0  0
  2  3  1  0  0  0  0
  3 11  1  0  0  0  0
  3 10  1  0  0  0  0
  4  2  1  0  0  0  0
  4  5  2  0  0  0  0
  8  1  1  0  0  0  0
 12  4  1  0  0  0  0
 13 12  1  0  0  0  0
 13 20  1  0  0  0  0
 13 23  1  1  0  0  0
 14 13  1  0  0  0  0
 15 16  2  0  0  0  0
 15 14  1  0  0  0  0
 16 26  1  0  0  0  0
 17 16  1  0  0  0  0
 18 19  2  0  0  0  0
 18 17  1  0  0  0  0
 19 15  1  0  0  0  0
 20 21  2  0  0  0  0
 22 12  1  0  0  0  0
 24 14  1  0  0  0  0
 25 14  1  0  0  0  0
 27 17  1  0  0  0  0
 28 18  1  0  0  0  0
 29 39  1  0  0  0  0
 29 40  1  0  0  0  0
 30 31  1  0  0  0  0
 30 29  1  0  0  0  0
 31 42  1  0  0  0  0
 31 43  1  0  0  0  0
 32 30  1  0  0  0  0
 32 45  1  0  0  0  0
 33 47  1  1  0  0  0
 33 32  1  0  0  0  0
 34 20  1  0  0  0  0
 34 33  1  0  0  0  0
 35 37  1  0  0  0  0
 35 33  1  0  0  0  0
 36 35  2  0  0  0  0
 38 29  1  0  0  0  0
 41 30  1  0  0  0  0
 44 31  1  0  0  0  0
 46 32  1  0  0  0  0
 48 34  1  0  0  0  0
M  END
$$$$
