AHM.pdb
 OpenBabel07022418013D

 46 46  0  0  1  0  0  0  0  0999 V2000
    1.0270   -4.9000   -0.2930 C   0  0  0  0  0  0  0  0  0  0  0  0
    2.0390   -3.8650   -0.6840 C   0  0  2  0  0  0  0  0  0  0  0  0
    3.3370   -4.2810   -0.2340 N   0  0  0  0  0  0  0  0  0  0  0  0
    1.7290   -2.5270   -0.1550 C   0  0  0  0  0  0  0  0  0  0  0  0
    2.5650   -1.9360    0.5740 O   0  0  0  0  0  0  0  0  0  0  0  0
    0.4920   -4.6400    0.6630 H   0  0  0  0  0  0  0  0  0  0  0  0
    1.5580   -5.8500   -0.0930 H   0  0  0  0  0  0  0  0  0  0  0  0
    0.2880   -5.0980   -1.1100 H   0  0  0  0  0  0  0  0  0  0  0  0
    2.0850   -3.8470   -1.8060 H   0  0  0  0  0  0  0  0  0  0  0  0
    4.0440   -3.5240   -0.2270 H   0  0  0  0  0  0  0  0  0  0  0  0
    3.3270   -4.8790    0.6070 H   0  0  0  0  0  0  0  0  0  0  0  0
    0.5150   -1.8370   -0.4190 N   0  0  0  0  0  0  0  0  0  0  0  0
    0.2290   -0.5200    0.1090 C   0  0  1  0  0  0  0  0  0  0  0  0
    0.1070    0.4550   -1.0410 C   0  0  0  0  0  0  0  0  0  0  0  0
    1.3880    0.4710   -1.7850 C   0  0  0  0  0  0  0  0  0  0  0  0
    2.5000    1.2720   -1.5910 C   0  0  0  0  0  0  0  0  0  0  0  0
    3.4440    0.9460   -2.5010 N   0  0  0  0  0  0  0  0  0  0  0  0
    2.9240   -0.0500   -3.2560 C   0  0  0  0  0  0  0  0  0  0  0  0
    1.6980   -0.3280   -2.8230 N   0  0  0  0  0  0  0  0  0  0  0  0
   -1.0090   -0.6070    0.9040 C   0  0  0  0  0  0  0  0  0  0  0  0
   -1.6130   -1.7070    1.0200 O   0  0  0  0  0  0  0  0  0  0  0  0
   -0.1880   -2.3090   -1.0190 H   0  0  0  0  0  0  0  0  0  0  0  0
    1.1090   -0.2110    0.7080 H   0  0  0  0  0  0  0  0  0  0  0  0
   -0.7310    0.2320   -1.7010 H   0  0  0  0  0  0  0  0  0  0  0  0
   -0.0580    1.4760   -0.6290 H   0  0  0  0  0  0  0  0  0  0  0  0
    2.5850    2.0260   -0.8360 H   0  0  0  0  0  0  0  0  0  0  0  0
    4.3750    1.3870   -2.5830 H   0  0  0  0  0  0  0  0  0  0  0  0
    3.4570   -0.5190   -4.0730 H   0  0  0  0  0  0  0  0  0  0  0  0
    0.8100    1.3900    4.3250 C   0  0  0  0  0  0  0  0  0  0  0  0
   -0.5020    2.4030    3.6440 S   0  0  0  0  0  0  0  0  0  0  0  0
   -2.1280    1.9590    4.2260 C   0  0  0  0  0  0  0  0  0  0  0  0
   -2.6220    0.6210    3.8060 C   0  0  0  0  0  0  0  0  0  0  0  0
   -2.7580    0.4150    2.3200 C   0  0  2  0  0  0  0  0  0  0  0  0
   -1.5670    0.5500    1.5680 N   0  0  0  0  0  0  0  0  0  0  0  0
   -3.8650    1.2880    1.8520 C   0  0  0  0  0  0  0  0  0  0  0  0
   -3.7800    2.0730    0.8940 O   0  0  0  0  0  0  0  0  0  0  0  0
   -5.0630    1.2020    2.5480 O   0  0  0  0  0  0  0  0  0  0  0  0
    1.7530    1.9920    4.2930 H   0  0  0  0  0  0  0  0  0  0  0  0
    0.5580    1.1660    5.3810 H   0  0  0  0  0  0  0  0  0  0  0  0
    0.9530    0.4340    3.7810 H   0  0  0  0  0  0  0  0  0  0  0  0
   -2.8320    2.7670    3.8600 H   0  0  0  0  0  0  0  0  0  0  0  0
   -2.2090    2.0610    5.3480 H   0  0  0  0  0  0  0  0  0  0  0  0
   -3.5870    0.3730    4.3020 H   0  0  0  0  0  0  0  0  0  0  0  0
   -1.8400   -0.1240    4.1360 H   0  0  0  0  0  0  0  0  0  0  0  0
   -3.1350   -0.6460    2.1980 H   0  0  0  0  0  0  0  0  0  0  0  0
   -1.0130    1.4120    1.4140 H   0  0  0  0  0  0  0  0  0  0  0  0
  1  7  1  0  0  0  0
  1  6  1  0  0  0  0
  2  9  1  6  0  0  0
  2  1  1  0  0  0  0
  2  3  1  0  0  0  0
  2  4  1  0  0  0  0
  3 10  1  0  0  0  0
  3 11  1  0  0  0  0
  4  5  2  0  0  0  0
  8  1  1  0  0  0  0
 12  4  1  0  0  0  0
 12 13  1  0  0  0  0
 13 23  1  1  0  0  0
 13 20  1  0  0  0  0
 14 25  1  0  0  0  0
 14 13  1  0  0  0  0
 15 16  2  0  0  0  0
 15 14  1  0  0  0  0
 16 26  1  0  0  0  0
 17 16  1  0  0  0  0
 18 19  2  0  0  0  0
 18 17  1  0  0  0  0
 19 15  1  0  0  0  0
 20 21  2  0  0  0  0
 20 34  1  0  0  0  0
 22 12  1  0  0  0  0
 24 14  1  0  0  0  0
 27 17  1  0  0  0  0
 28 18  1  0  0  0  0
 29 39  1  0  0  0  0
 30 31  1  0  0  0  0
 30 29  1  0  0  0  0
 31 42  1  0  0  0  0
 32 44  1  0  0  0  0
 32 31  1  0  0  0  0
 32 43  1  0  0  0  0
 33 45  1  6  0  0  0
 33 32  1  0  0  0  0
 34 33  1  0  0  0  0
 35 33  1  0  0  0  0
 35 37  1  0  0  0  0
 36 35  2  0  0  0  0
 38 29  1  0  0  0  0
 40 29  1  0  0  0  0
 41 31  1  0  0  0  0
 46 34  1  0  0  0  0
M  END
$$$$
