AHN.pdb
 OpenBabel07022418003D

 43 43  0  0  1  0  0  0  0  0999 V2000
    0.9260   -4.0850    0.3570 C   0  0  0  0  0  0  0  0  0  0  0  0
    2.1400   -3.2440    0.1770 C   0  0  2  0  0  0  0  0  0  0  0  0
    3.2320   -3.8530    0.9540 N   0  0  0  0  0  0  0  0  0  0  0  0
    2.0000   -1.8520    0.6110 C   0  0  0  0  0  0  0  0  0  0  0  0
    2.7610   -1.3720    1.5160 O   0  0  0  0  0  0  0  0  0  0  0  0
    0.3050   -3.7170    1.1850 H   0  0  0  0  0  0  0  0  0  0  0  0
    0.3470   -4.2450   -0.5780 H   0  0  0  0  0  0  0  0  0  0  0  0
    1.2480   -5.1150    0.6620 H   0  0  0  0  0  0  0  0  0  0  0  0
    2.4510   -3.2530   -0.9080 H   0  0  0  0  0  0  0  0  0  0  0  0
    2.8270   -4.5400    1.6480 H   0  0  0  0  0  0  0  0  0  0  0  0
    3.7460   -3.1410    1.5140 H   0  0  0  0  0  0  0  0  0  0  0  0
    1.0410   -0.9300    0.0910 N   0  0  0  0  0  0  0  0  0  0  0  0
    0.9560    0.4260    0.5620 C   0  0  1  0  0  0  0  0  0  0  0  0
    1.1750    1.3570   -0.6140 C   0  0  0  0  0  0  0  0  0  0  0  0
    2.5110    1.1390   -1.2250 C   0  0  0  0  0  0  0  0  0  0  0  0
    3.6690    1.8010   -0.8400 C   0  0  0  0  0  0  0  0  0  0  0  0
    4.6780    1.3390   -1.6150 N   0  0  0  0  0  0  0  0  0  0  0  0
    4.1890    0.4180   -2.4610 C   0  0  0  0  0  0  0  0  0  0  0  0
    2.8750    0.3100   -2.2120 N   0  0  0  0  0  0  0  0  0  0  0  0
   -0.3840    0.6690    1.1760 C   0  0  0  0  0  0  0  0  0  0  0  0
   -0.6460    1.8000    1.6550 O   0  0  0  0  0  0  0  0  0  0  0  0
    0.3880   -1.2450   -0.6500 H   0  0  0  0  0  0  0  0  0  0  0  0
    1.7640    0.5710    1.3130 H   0  0  0  0  0  0  0  0  0  0  0  0
    1.1420    2.4010   -0.2500 H   0  0  0  0  0  0  0  0  0  0  0  0
    0.3780    1.2280   -1.3750 H   0  0  0  0  0  0  0  0  0  0  0  0
    3.7550    2.5570   -0.0570 H   0  0  0  0  0  0  0  0  0  0  0  0
    5.6800    1.6620   -1.5480 H   0  0  0  0  0  0  0  0  0  0  0  0
    4.7660   -0.1170   -3.1940 H   0  0  0  0  0  0  0  0  0  0  0  0
   -2.4440    2.4650    4.2660 N   0  0  0  0  0  0  0  0  0  0  0  0
   -2.3350    1.2280    3.5980 C   0  0  0  0  0  0  0  0  0  0  0  0
   -1.5070    0.3590    4.0460 O   0  0  0  0  0  0  0  0  0  0  0  0
   -3.1310    0.8860    2.4040 C   0  0  0  0  0  0  0  0  0  0  0  0
   -2.6350   -0.3890    1.7560 C   0  0  2  0  0  0  0  0  0  0  0  0
   -1.3310   -0.3720    1.2080 N   0  0  0  0  0  0  0  0  0  0  0  0
   -3.5860   -1.0840    0.9250 C   0  0  0  0  0  0  0  0  0  0  0  0
   -4.8110   -1.2380    1.1820 O   0  0  0  0  0  0  0  0  0  0  0  0
   -3.1360   -1.6470   -0.2810 O   0  0  0  0  0  0  0  0  0  0  0  0
   -2.5880    3.3830    3.7700 H   0  0  0  0  0  0  0  0  0  0  0  0
   -2.3840    2.5190    5.3030 H   0  0  0  0  0  0  0  0  0  0  0  0
   -3.1990    1.7040    1.6670 H   0  0  0  0  0  0  0  0  0  0  0  0
   -4.1690    0.6790    2.7500 H   0  0  0  0  0  0  0  0  0  0  0  0
   -2.4870   -1.0450    2.7270 H   0  0  0  0  0  0  0  0  0  0  0  0
   -1.0580   -1.3240    0.7580 H   0  0  0  0  0  0  0  0  0  0  0  0
  1  8  1  0  0  0  0
  1  6  1  0  0  0  0
  2  9  1  6  0  0  0
  2  1  1  0  0  0  0
  2  4  1  0  0  0  0
  2  3  1  0  0  0  0
  3 11  1  0  0  0  0
  3 10  1  0  0  0  0
  4  5  2  0  0  0  0
  7  1  1  0  0  0  0
 12 13  1  0  0  0  0
 12  4  1  0  0  0  0
 13 20  1  0  0  0  0
 13 23  1  1  0  0  0
 14 24  1  0  0  0  0
 14 13  1  0  0  0  0
 15 16  2  0  0  0  0
 15 14  1  0  0  0  0
 16 26  1  0  0  0  0
 17 27  1  0  0  0  0
 17 16  1  0  0  0  0
 18 19  2  0  0  0  0
 18 17  1  0  0  0  0
 19 15  1  0  0  0  0
 20 34  1  0  0  0  0
 20 21  2  0  0  0  0
 22 12  1  0  0  0  0
 25 14  1  0  0  0  0
 28 18  1  0  0  0  0
 29 39  1  0  0  0  0
 30 31  2  0  0  0  0
 30 29  1  0  0  0  0
 32 41  1  0  0  0  0
 32 30  1  0  0  0  0
 33 32  1  0  0  0  0
 33 42  1  1  0  0  0
 34 33  1  0  0  0  0
 35 36  1  0  0  0  0
 35 33  1  0  0  0  0
 37 35  2  0  0  0  0
 38 29  1  0  0  0  0
 40 32  1  0  0  0  0
 43 34  1  0  0  0  0
M  END
$$$$
