AHT.pdb
 OpenBabel07022418013D

 43 43  0  0  1  0  0  0  0  0999 V2000
    3.9200   -3.3420    2.5230 C   0  0  0  0  0  0  0  0  0  0  0  0
    2.6370   -2.5740    2.7570 C   0  0  2  0  0  0  0  0  0  0  0  0
    1.5300   -3.4560    2.4440 N   0  0  0  0  0  0  0  0  0  0  0  0
    2.5890   -1.4070    1.8400 C   0  0  0  0  0  0  0  0  0  0  0  0
    3.4350   -0.4750    1.8770 O   0  0  0  0  0  0  0  0  0  0  0  0
    4.5360   -3.2910    3.4510 H   0  0  0  0  0  0  0  0  0  0  0  0
    3.7220   -4.4320    2.3470 H   0  0  0  0  0  0  0  0  0  0  0  0
    4.4630   -2.9880    1.6300 H   0  0  0  0  0  0  0  0  0  0  0  0
    2.5150   -2.2850    3.8200 H   0  0  0  0  0  0  0  0  0  0  0  0
    0.7590   -3.4160    3.1200 H   0  0  0  0  0  0  0  0  0  0  0  0
    1.8540   -4.4550    2.4120 H   0  0  0  0  0  0  0  0  0  0  0  0
    1.5700   -1.2900    0.8640 N   0  0  0  0  0  0  0  0  0  0  0  0
    1.5140   -0.1510   -0.0400 C   0  0  1  0  0  0  0  0  0  0  0  0
    1.4980   -0.5430   -1.4690 C   0  0  0  0  0  0  0  0  0  0  0  0
    1.4500    0.6390   -2.3450 C   0  0  0  0  0  0  0  0  0  0  0  0
    2.5780    1.3130   -2.8220 C   0  0  0  0  0  0  0  0  0  0  0  0
    2.1980    2.3470   -3.5950 N   0  0  0  0  0  0  0  0  0  0  0  0
    0.8470    2.3320   -3.6110 C   0  0  0  0  0  0  0  0  0  0  0  0
    0.4060    1.3040   -2.8580 N   0  0  0  0  0  0  0  0  0  0  0  0
    0.2600    0.6040    0.2440 C   0  0  0  0  0  0  0  0  0  0  0  0
   -0.0720    1.6700   -0.3300 O   0  0  0  0  0  0  0  0  0  0  0  0
    0.8550   -2.0570    0.8170 H   0  0  0  0  0  0  0  0  0  0  0  0
    2.3720    0.5080    0.2050 H   0  0  0  0  0  0  0  0  0  0  0  0
    2.3720   -1.1410   -1.7950 H   0  0  0  0  0  0  0  0  0  0  0  0
    0.5530   -1.1450   -1.6310 H   0  0  0  0  0  0  0  0  0  0  0  0
    3.6190    1.0800   -2.6280 H   0  0  0  0  0  0  0  0  0  0  0  0
    2.8200    3.0260   -4.0850 H   0  0  0  0  0  0  0  0  0  0  0  0
    0.2470    3.0600   -4.1620 H   0  0  0  0  0  0  0  0  0  0  0  0
   -2.9930   -1.3530    1.8780 C   0  0  0  0  0  0  0  0  0  0  0  0
   -3.0460   -0.0660    1.1090 C   0  0  1  0  0  0  0  0  0  0  0  0
   -4.2810    0.5310    1.3460 O   0  0  0  0  0  0  0  0  0  0  0  0
   -1.9050    0.8670    1.5150 C   0  0  2  0  0  0  0  0  0  0  0  0
   -0.6800    0.1450    1.2250 N   0  0  0  0  0  0  0  0  0  0  0  0
   -2.0020    1.2400    2.9420 C   0  0  0  0  0  0  0  0  0  0  0  0
   -1.1470    0.9790    3.8090 O   0  0  0  0  0  0  0  0  0  0  0  0
   -3.1320    1.9340    3.3440 O   0  0  0  0  0  0  0  0  0  0  0  0
   -2.4570   -2.1040    1.2760 H   0  0  0  0  0  0  0  0  0  0  0  0
   -3.9960   -1.7220    2.1510 H   0  0  0  0  0  0  0  0  0  0  0  0
   -2.4220   -1.2520    2.8280 H   0  0  0  0  0  0  0  0  0  0  0  0
   -2.9210   -0.2990    0.0330 H   0  0  0  0  0  0  0  0  0  0  0  0
   -4.9670   -0.1940    1.4880 H   0  0  0  0  0  0  0  0  0  0  0  0
   -1.9840    1.7620    0.8960 H   0  0  0  0  0  0  0  0  0  0  0  0
   -0.4370   -0.7350    1.7200 H   0  0  0  0  0  0  0  0  0  0  0  0
  1  2  1  0  0  0  0
  1  6  1  0  0  0  0
  2  9  1  1  0  0  0
  3  2  1  0  0  0  0
  3 10  1  0  0  0  0
  4  5  2  0  0  0  0
  4  2  1  0  0  0  0
  7  1  1  0  0  0  0
  8  1  1  0  0  0  0
 11  3  1  0  0  0  0
 12  4  1  0  0  0  0
 13 23  1  1  0  0  0
 13 20  1  0  0  0  0
 13 12  1  0  0  0  0
 14 13  1  0  0  0  0
 15 14  1  0  0  0  0
 16 26  1  0  0  0  0
 16 15  2  0  0  0  0
 17 16  1  0  0  0  0
 18 17  1  0  0  0  0
 18 19  2  0  0  0  0
 19 15  1  0  0  0  0
 20 33  1  0  0  0  0
 21 20  2  0  0  0  0
 22 12  1  0  0  0  0
 24 14  1  0  0  0  0
 25 14  1  0  0  0  0
 27 17  1  0  0  0  0
 28 18  1  0  0  0  0
 29 38  1  0  0  0  0
 29 39  1  0  0  0  0
 30 40  1  6  0  0  0
 30 31  1  0  0  0  0
 30 32  1  0  0  0  0
 30 29  1  0  0  0  0
 31 41  1  0  0  0  0
 32 42  1  6  0  0  0
 32 34  1  0  0  0  0
 33 32  1  0  0  0  0
 33 43  1  0  0  0  0
 34 36  2  0  0  0  0
 34 35  1  0  0  0  0
 37 29  1  0  0  0  0
M  END
$$$$
