AHV.pdb
 OpenBabel07022418013D

 45 45  0  0  1  0  0  0  0  0999 V2000
   -1.7680   -1.8970   -1.8250 C   0  0  0  0  0  0  0  0  0  0  0  0
   -0.3490   -1.8450   -2.2840 C   0  0  2  0  0  0  0  0  0  0  0  0
   -0.0550   -3.0840   -2.9750 N   0  0  0  0  0  0  0  0  0  0  0  0
    0.6340   -1.6580   -1.2170 C   0  0  0  0  0  0  0  0  0  0  0  0
    1.5300   -2.5250   -1.0540 O   0  0  0  0  0  0  0  0  0  0  0  0
   -2.3210   -2.6690   -2.3950 H   0  0  0  0  0  0  0  0  0  0  0  0
   -1.7690   -2.1510   -0.7450 H   0  0  0  0  0  0  0  0  0  0  0  0
   -2.3260   -0.9520   -1.9680 H   0  0  0  0  0  0  0  0  0  0  0  0
   -0.2820   -1.0080   -3.0320 H   0  0  0  0  0  0  0  0  0  0  0  0
    0.7910   -2.9490   -3.5770 H   0  0  0  0  0  0  0  0  0  0  0  0
    0.2200   -3.7820   -2.2470 H   0  0  0  0  0  0  0  0  0  0  0  0
    0.6580   -0.5510   -0.3310 N   0  0  0  0  0  0  0  0  0  0  0  0
    1.6720   -0.4700    0.6830 C   0  0  1  0  0  0  0  0  0  0  0  0
    2.5140    0.7720    0.5430 C   0  0  0  0  0  0  0  0  0  0  0  0
    3.1600    0.7210   -0.7950 C   0  0  0  0  0  0  0  0  0  0  0  0
    4.3720    0.1670   -1.1240 C   0  0  0  0  0  0  0  0  0  0  0  0
    4.6000    0.3260   -2.4400 N   0  0  0  0  0  0  0  0  0  0  0  0
    3.5410    0.9790   -2.9530 C   0  0  0  0  0  0  0  0  0  0  0  0
    2.6670    1.2190   -1.9560 N   0  0  0  0  0  0  0  0  0  0  0  0
    0.9860   -0.5240    2.0120 C   0  0  0  0  0  0  0  0  0  0  0  0
    1.6340   -0.4720    3.0950 O   0  0  0  0  0  0  0  0  0  0  0  0
   -0.0500    0.1770   -0.4260 H   0  0  0  0  0  0  0  0  0  0  0  0
    2.3570   -1.3410    0.6470 H   0  0  0  0  0  0  0  0  0  0  0  0
    3.2640    0.8240    1.3340 H   0  0  0  0  0  0  0  0  0  0  0  0
    1.8090    1.6370    0.5250 H   0  0  0  0  0  0  0  0  0  0  0  0
    5.0730   -0.3300   -0.4740 H   0  0  0  0  0  0  0  0  0  0  0  0
    5.4370    0.0080   -2.9770 H   0  0  0  0  0  0  0  0  0  0  0  0
    3.4260    1.2580   -4.0020 H   0  0  0  0  0  0  0  0  0  0  0  0
   -2.7830    0.3640    4.8960 C   0  0  0  0  0  0  0  0  0  0  0  0
   -2.0580    0.4950    3.5790 C   0  0  0  0  0  0  0  0  0  0  0  0
   -1.2500    1.7800    3.6100 C   0  0  0  0  0  0  0  0  0  0  0  0
   -1.1480   -0.6910    3.3540 C   0  0  2  0  0  0  0  0  0  0  0  0
   -0.4280   -0.6350    2.1260 N   0  0  0  0  0  0  0  0  0  0  0  0
   -1.8550   -1.9740    3.5700 C   0  0  0  0  0  0  0  0  0  0  0  0
   -2.5140   -2.1030    4.6290 O   0  0  0  0  0  0  0  0  0  0  0  0
   -1.8390   -3.0370    2.6870 O   0  0  0  0  0  0  0  0  0  0  0  0
   -2.1520   -0.0580    5.6970 H   0  0  0  0  0  0  0  0  0  0  0  0
   -3.7620   -0.1320    4.7820 H   0  0  0  0  0  0  0  0  0  0  0  0
   -3.0120    1.4170    5.2310 H   0  0  0  0  0  0  0  0  0  0  0  0
   -2.8180    0.6180    2.7930 H   0  0  0  0  0  0  0  0  0  0  0  0
   -0.8750    1.9290    2.5750 H   0  0  0  0  0  0  0  0  0  0  0  0
   -0.3500    1.5640    4.2450 H   0  0  0  0  0  0  0  0  0  0  0  0
   -1.8250    2.6210    3.9940 H   0  0  0  0  0  0  0  0  0  0  0  0
   -0.3770   -0.6310    4.1820 H   0  0  0  0  0  0  0  0  0  0  0  0
   -0.9460   -0.6770    1.1970 H   0  0  0  0  0  0  0  0  0  0  0  0
  1  7  1  0  0  0  0
  2  9  1  6  0  0  0
  2  1  1  0  0  0  0
  2  4  1  0  0  0  0
  3  2  1  0  0  0  0
  3 11  1  0  0  0  0
  4  5  2  0  0  0  0
  4 12  1  0  0  0  0
  6  1  1  0  0  0  0
  8  1  1  0  0  0  0
 10  3  1  0  0  0  0
 12 13  1  0  0  0  0
 13 23  1  6  0  0  0
 13 20  1  0  0  0  0
 14 13  1  0  0  0  0
 14 24  1  0  0  0  0
 15 14  1  0  0  0  0
 16 15  2  0  0  0  0
 16 26  1  0  0  0  0
 17 16  1  0  0  0  0
 18 17  1  0  0  0  0
 18 19  2  0  0  0  0
 19 15  1  0  0  0  0
 20 33  1  0  0  0  0
 20 21  2  0  0  0  0
 22 12  1  0  0  0  0
 25 14  1  0  0  0  0
 27 17  1  0  0  0  0
 28 18  1  0  0  0  0
 29 39  1  0  0  0  0
 29 37  1  0  0  0  0
 30 31  1  0  0  0  0
 30 29  1  0  0  0  0
 31 43  1  0  0  0  0
 31 42  1  0  0  0  0
 32 34  1  0  0  0  0
 32 30  1  0  0  0  0
 32 44  1  1  0  0  0
 33 32  1  0  0  0  0
 34 35  1  0  0  0  0
 36 34  2  0  0  0  0
 38 29  1  0  0  0  0
 40 30  1  0  0  0  0
 41 31  1  0  0  0  0
 45 33  1  0  0  0  0
M  END
$$$$
