AHW.pdb
 OpenBabel07022418013D

 53 55  0  0  1  0  0  0  0  0999 V2000
    2.5970   -2.1880   -0.2460 C   0  0  0  0  0  0  0  0  0  0  0  0
    3.6630   -1.4180    0.4650 C   0  0  2  0  0  0  0  0  0  0  0  0
    4.7400   -2.3060    0.8530 N   0  0  0  0  0  0  0  0  0  0  0  0
    3.1440   -0.6210    1.6170 C   0  0  0  0  0  0  0  0  0  0  0  0
    3.6400   -0.7450    2.7880 O   0  0  0  0  0  0  0  0  0  0  0  0
    2.3750   -3.1830    0.1980 H   0  0  0  0  0  0  0  0  0  0  0  0
    2.9090   -2.3400   -1.3200 H   0  0  0  0  0  0  0  0  0  0  0  0
    1.6640   -1.5770   -0.2780 H   0  0  0  0  0  0  0  0  0  0  0  0
    4.1090   -0.7090   -0.2900 H   0  0  0  0  0  0  0  0  0  0  0  0
    5.6050   -1.6930    0.9480 H   0  0  0  0  0  0  0  0  0  0  0  0
    4.9500   -2.9010    0.0180 H   0  0  0  0  0  0  0  0  0  0  0  0
    2.0820    0.2760    1.3520 N   0  0  0  0  0  0  0  0  0  0  0  0
    1.4970    1.0970    2.3670 C   0  0  1  0  0  0  0  0  0  0  0  0
    1.6980    2.5620    2.0910 C   0  0  0  0  0  0  0  0  0  0  0  0
    1.0870    2.9850    0.7880 C   0  0  0  0  0  0  0  0  0  0  0  0
    1.6740    3.0020   -0.4540 C   0  0  0  0  0  0  0  0  0  0  0  0
    0.7970    3.4470   -1.3620 N   0  0  0  0  0  0  0  0  0  0  0  0
   -0.3420    3.7080   -0.6870 C   0  0  0  0  0  0  0  0  0  0  0  0
   -0.1700    3.4290    0.6190 N   0  0  0  0  0  0  0  0  0  0  0  0
    0.0590    0.7850    2.5950 C   0  0  0  0  0  0  0  0  0  0  0  0
   -0.5690    1.4770    3.4320 O   0  0  0  0  0  0  0  0  0  0  0  0
    1.6990    0.3520    0.3820 H   0  0  0  0  0  0  0  0  0  0  0  0
    2.0310    0.8820    3.3170 H   0  0  0  0  0  0  0  0  0  0  0  0
    2.7610    2.8630    2.1720 H   0  0  0  0  0  0  0  0  0  0  0  0
    1.1440    3.1180    2.8950 H   0  0  0  0  0  0  0  0  0  0  0  0
    2.6850    2.7010   -0.6460 H   0  0  0  0  0  0  0  0  0  0  0  0
    0.9360    3.5790   -2.4070 H   0  0  0  0  0  0  0  0  0  0  0  0
   -1.2590    4.0880   -1.1380 H   0  0  0  0  0  0  0  0  0  0  0  0
   -0.6020   -0.2500    1.9060 N   0  0  0  0  0  0  0  0  0  0  0  0
   -2.0090   -0.4980    2.1730 C   0  0  1  0  0  0  0  0  0  0  0  0
   -2.8280   -0.2810    0.9280 C   0  0  0  0  0  0  0  0  0  0  0  0
   -2.4240   -1.1460   -0.2150 C   0  0  0  0  0  0  0  0  0  0  0  0
   -1.5080   -0.7960   -1.2000 C   0  0  0  0  0  0  0  0  0  0  0  0
   -1.3620   -1.8310   -2.0080 N   0  0  0  0  0  0  0  0  0  0  0  0
   -2.1440   -2.8670   -1.6080 C   0  0  0  0  0  0  0  0  0  0  0  0
   -2.3190   -4.1390   -2.1570 C   0  0  0  0  0  0  0  0  0  0  0  0
   -3.1960   -5.0150   -1.5610 C   0  0  0  0  0  0  0  0  0  0  0  0
   -3.8600   -4.5730   -0.4380 C   0  0  0  0  0  0  0  0  0  0  0  0
   -3.6900   -3.3270    0.1020 C   0  0  0  0  0  0  0  0  0  0  0  0
   -2.8100   -2.4340   -0.4830 C   0  0  0  0  0  0  0  0  0  0  0  0
   -2.1710   -1.8090    2.7610 C   0  0  0  0  0  0  0  0  0  0  0  0
   -3.2740   -2.1920    3.2180 O   0  0  0  0  0  0  0  0  0  0  0  0
   -1.1040   -2.6920    2.8410 O   0  0  0  0  0  0  0  0  0  0  0  0
   -0.0900   -0.8520    1.1960 H   0  0  0  0  0  0  0  0  0  0  0  0
   -2.3430    0.3320    2.8740 H   0  0  0  0  0  0  0  0  0  0  0  0
   -2.8400    0.7920    0.6480 H   0  0  0  0  0  0  0  0  0  0  0  0
   -3.8760   -0.5560    1.1720 H   0  0  0  0  0  0  0  0  0  0  0  0
   -1.0250    0.1940   -1.2400 H   0  0  0  0  0  0  0  0  0  0  0  0
   -0.7440   -1.8980   -2.8530 H   0  0  0  0  0  0  0  0  0  0  0  0
   -1.7720   -4.4330   -3.0390 H   0  0  0  0  0  0  0  0  0  0  0  0
   -3.3660   -6.0190   -1.9520 H   0  0  0  0  0  0  0  0  0  0  0  0
   -4.5520   -5.3040    0.0080 H   0  0  0  0  0  0  0  0  0  0  0  0
   -4.2470   -3.0250    0.9660 H   0  0  0  0  0  0  0  0  0  0  0  0
  1  6  1  0  0  0  0
  1  2  1  0  0  0  0
  2  9  1  6  0  0  0
  2  3  1  0  0  0  0
  2  4  1  0  0  0  0
  3 10  1  0  0  0  0
  4  5  2  0  0  0  0
  7  1  1  0  0  0  0
  8  1  1  0  0  0  0
 11  3  1  0  0  0  0
 12  4  1  0  0  0  0
 12 13  1  0  0  0  0
 13 20  1  0  0  0  0
 13 23  1  1  0  0  0
 14 24  1  0  0  0  0
 14 13  1  0  0  0  0
 14 25  1  0  0  0  0
 15 14  1  0  0  0  0
 16 15  2  0  0  0  0
 17 18  1  0  0  0  0
 17 16  1  0  0  0  0
 18 19  2  0  0  0  0
 19 15  1  0  0  0  0
 20 21  2  0  0  0  0
 22 12  1  0  0  0  0
 26 16  1  0  0  0  0
 27 17  1  0  0  0  0
 28 18  1  0  0  0  0
 29 30  1  0  0  0  0
 29 20  1  0  0  0  0
 30 41  1  0  0  0  0
 30 45  1  1  0  0  0
 31 47  1  0  0  0  0
 31 30  1  0  0  0  0
 32 31  1  0  0  0  0
 33 32  2  0  0  0  0
 34 35  1  0  0  0  0
 34 33  1  0  0  0  0
 35 40  1  0  0  0  0
 36 35  2  0  0  0  0
 36 37  1  0  0  0  0
 37 38  2  0  0  0  0
 38 52  1  0  0  0  0
 38 39  1  0  0  0  0
 39 53  1  0  0  0  0
 40 32  1  0  0  0  0
 40 39  2  0  0  0  0
 41 43  2  0  0  0  0
 41 42  1  0  0  0  0
 44 29  1  0  0  0  0
 46 31  1  0  0  0  0
 48 33  1  0  0  0  0
 49 34  1  0  0  0  0
 50 36  1  0  0  0  0
 51 37  1  0  0  0  0
M  END
$$$$
