AIF.pdb
 OpenBabel07022418013D

 51 51  0  0  1  0  0  0  0  0999 V2000
    3.7610   -4.9320    2.0130 C   0  0  0  0  0  0  0  0  0  0  0  0
    2.5140   -4.6070    1.2040 C   0  0  2  0  0  0  0  0  0  0  0  0
    2.8260   -4.6940   -0.1890 N   0  0  0  0  0  0  0  0  0  0  0  0
    2.0720   -3.2590    1.6160 C   0  0  0  0  0  0  0  0  0  0  0  0
    1.7770   -3.1070    2.8410 O   0  0  0  0  0  0  0  0  0  0  0  0
    3.7280   -4.4250    3.0110 H   0  0  0  0  0  0  0  0  0  0  0  0
    3.7850   -6.0250    2.1830 H   0  0  0  0  0  0  0  0  0  0  0  0
    4.6890   -4.6480    1.4930 H   0  0  0  0  0  0  0  0  0  0  0  0
    1.7080   -5.3460    1.4560 H   0  0  0  0  0  0  0  0  0  0  0  0
    3.2950   -5.6310   -0.3420 H   0  0  0  0  0  0  0  0  0  0  0  0
    1.9840   -4.6890   -0.7870 H   0  0  0  0  0  0  0  0  0  0  0  0
    4.5900   -1.3390    1.4430 C   0  0  0  0  0  0  0  0  0  0  0  0
    3.8850   -0.0640    1.7020 C   0  0  0  0  0  0  0  0  0  0  0  0
    2.6020    0.1900    0.9570 C   0  0  2  0  0  0  0  0  0  0  0  0
    2.1550    1.5890    1.4310 C   0  0  0  0  0  0  0  0  0  0  0  0
    1.5210   -0.8250    1.1760 C   0  0  2  0  0  0  0  0  0  0  0  0
    1.9650   -2.1600    0.7320 N   0  0  0  0  0  0  0  0  0  0  0  0
    0.2520   -0.5210    0.4680 C   0  0  0  0  0  0  0  0  0  0  0  0
   -0.0870   -1.3170   -0.4770 O   0  0  0  0  0  0  0  0  0  0  0  0
    4.3050   -1.8050    0.5000 H   0  0  0  0  0  0  0  0  0  0  0  0
    5.7050   -1.0990    1.3070 H   0  0  0  0  0  0  0  0  0  0  0  0
    4.5120   -2.0360    2.3330 H   0  0  0  0  0  0  0  0  0  0  0  0
    4.6070    0.7870    1.4720 H   0  0  0  0  0  0  0  0  0  0  0  0
    3.7220    0.0530    2.8090 H   0  0  0  0  0  0  0  0  0  0  0  0
    2.8140    0.3260   -0.1440 H   0  0  0  0  0  0  0  0  0  0  0  0
    3.0900    2.2080    1.6300 H   0  0  0  0  0  0  0  0  0  0  0  0
    1.6660    1.4410    2.4020 H   0  0  0  0  0  0  0  0  0  0  0  0
    1.5390    2.1040    0.6810 H   0  0  0  0  0  0  0  0  0  0  0  0
    1.3500   -0.9180    2.2730 H   0  0  0  0  0  0  0  0  0  0  0  0
    2.1930   -2.3070   -0.2710 H   0  0  0  0  0  0  0  0  0  0  0  0
   -0.6240    0.5380    0.7180 N   0  0  0  0  0  0  0  0  0  0  0  0
   -1.8590    0.7470   -0.0580 C   0  0  1  0  0  0  0  0  0  0  0  0
   -3.0260    0.5200    0.8640 C   0  0  0  0  0  0  0  0  0  0  0  0
   -4.3120    0.7100    0.1680 C   0  0  0  0  0  0  0  0  0  0  0  0
   -4.8980   -0.3820   -0.4720 C   0  0  0  0  0  0  0  0  0  0  0  0
   -6.0870   -0.2770   -1.1270 C   0  0  0  0  0  0  0  0  0  0  0  0
   -6.7580    0.9320   -1.1780 C   0  0  0  0  0  0  0  0  0  0  0  0
   -6.1790    2.0010   -0.5490 C   0  0  0  0  0  0  0  0  0  0  0  0
   -4.9770    1.9070    0.1170 C   0  0  0  0  0  0  0  0  0  0  0  0
   -1.8460    2.0360   -0.7430 C   0  0  0  0  0  0  0  0  0  0  0  0
   -0.8590    2.8120   -0.6060 O   0  0  0  0  0  0  0  0  0  0  0  0
   -2.8750    2.4740   -1.5560 O   0  0  0  0  0  0  0  0  0  0  0  0
   -0.4470    1.2070    1.4670 H   0  0  0  0  0  0  0  0  0  0  0  0
   -1.8940   -0.0880   -0.8160 H   0  0  0  0  0  0  0  0  0  0  0  0
   -2.9940    1.1920    1.7540 H   0  0  0  0  0  0  0  0  0  0  0  0
   -2.9650   -0.5560    1.1820 H   0  0  0  0  0  0  0  0  0  0  0  0
   -4.4020   -1.3440   -0.4530 H   0  0  0  0  0  0  0  0  0  0  0  0
   -6.5640   -1.1110   -1.6330 H   0  0  0  0  0  0  0  0  0  0  0  0
   -7.6950    1.0530   -1.6850 H   0  0  0  0  0  0  0  0  0  0  0  0
   -6.6480    2.9890   -0.5450 H   0  0  0  0  0  0  0  0  0  0  0  0
   -4.5340    2.7620    0.6100 H   0  0  0  0  0  0  0  0  0  0  0  0
  1  7  1  0  0  0  0
  1  6  1  0  0  0  0
  2  9  1  1  0  0  0
  2  4  1  0  0  0  0
  2  1  1  0  0  0  0
  3  2  1  0  0  0  0
  4  5  2  0  0  0  0
  8  1  1  0  0  0  0
 10  3  1  0  0  0  0
 11  3  1  0  0  0  0
 12 13  1  0  0  0  0
 12 22  1  0  0  0  0
 13 24  1  0  0  0  0
 14 25  1  6  0  0  0
 14 16  1  0  0  0  0
 14 15  1  0  0  0  0
 14 13  1  0  0  0  0
 15 26  1  0  0  0  0
 15 27  1  0  0  0  0
 16 29  1  1  0  0  0
 17 16  1  0  0  0  0
 17  4  1  0  0  0  0
 18 31  1  0  0  0  0
 18 16  1  0  0  0  0
 19 18  2  0  0  0  0
 20 12  1  0  0  0  0
 21 12  1  0  0  0  0
 23 13  1  0  0  0  0
 28 15  1  0  0  0  0
 30 17  1  0  0  0  0
 31 43  1  0  0  0  0
 32 44  1  6  0  0  0
 32 31  1  0  0  0  0
 32 33  1  0  0  0  0
 33 46  1  0  0  0  0
 33 45  1  0  0  0  0
 34 33  1  0  0  0  0
 35 47  1  0  0  0  0
 35 34  2  0  0  0  0
 36 35  1  0  0  0  0
 37 36  2  0  0  0  0
 37 38  1  0  0  0  0
 38 50  1  0  0  0  0
 38 39  2  0  0  0  0
 39 34  1  0  0  0  0
 39 51  1  0  0  0  0
 40 41  1  0  0  0  0
 40 32  1  0  0  0  0
 42 40  2  0  0  0  0
 48 36  1  0  0  0  0
 49 37  1  0  0  0  0
M  END
$$$$
