AIH.pdb
 OpenBabel07022418013D

 48 48  0  0  1  0  0  0  0  0999 V2000
    0.1700   -3.8170    1.6090 C   0  0  0  0  0  0  0  0  0  0  0  0
    1.6400   -3.7340    1.2820 C   0  0  2  0  0  0  0  0  0  0  0  0
    2.4190   -4.5870    2.1320 N   0  0  0  0  0  0  0  0  0  0  0  0
    2.0750   -2.3080    1.3970 C   0  0  0  0  0  0  0  0  0  0  0  0
    3.0190   -2.0430    2.1810 O   0  0  0  0  0  0  0  0  0  0  0  0
    0.0400   -4.6290    2.3610 H   0  0  0  0  0  0  0  0  0  0  0  0
   -0.1700   -2.8800    2.1270 H   0  0  0  0  0  0  0  0  0  0  0  0
   -0.4370   -4.0070    0.7000 H   0  0  0  0  0  0  0  0  0  0  0  0
    1.7680   -4.0940    0.2370 H   0  0  0  0  0  0  0  0  0  0  0  0
    2.9200   -4.0680    2.8870 H   0  0  0  0  0  0  0  0  0  0  0  0
    1.9220   -5.4280    2.4720 H   0  0  0  0  0  0  0  0  0  0  0  0
    3.4790    2.1610   -2.0490 C   0  0  0  0  0  0  0  0  0  0  0  0
    2.8550    1.9400   -0.6850 C   0  0  0  0  0  0  0  0  0  0  0  0
    2.3790    0.5090   -0.6210 C   0  0  2  0  0  0  0  0  0  0  0  0
    1.3550    0.2700   -1.7080 C   0  0  0  0  0  0  0  0  0  0  0  0
    1.8560    0.1170    0.7450 C   0  0  2  0  0  0  0  0  0  0  0  0
    1.4370   -1.2890    0.6410 N   0  0  0  0  0  0  0  0  0  0  0  0
    0.6940    0.9320    1.1580 C   0  0  0  0  0  0  0  0  0  0  0  0
    0.7480    2.1750    1.3350 O   0  0  0  0  0  0  0  0  0  0  0  0
    3.9800    1.2290   -2.3650 H   0  0  0  0  0  0  0  0  0  0  0  0
    4.2880    2.9350   -1.9870 H   0  0  0  0  0  0  0  0  0  0  0  0
    2.7390    2.5220   -2.7790 H   0  0  0  0  0  0  0  0  0  0  0  0
    1.9620    2.6240   -0.5930 H   0  0  0  0  0  0  0  0  0  0  0  0
    3.5670    2.1510    0.1300 H   0  0  0  0  0  0  0  0  0  0  0  0
    3.2500   -0.1580   -0.8940 H   0  0  0  0  0  0  0  0  0  0  0  0
    0.3690    0.0290   -1.2170 H   0  0  0  0  0  0  0  0  0  0  0  0
    1.5850   -0.5860   -2.3490 H   0  0  0  0  0  0  0  0  0  0  0  0
    1.2380    1.1960   -2.3330 H   0  0  0  0  0  0  0  0  0  0  0  0
    2.6950    0.1860    1.4600 H   0  0  0  0  0  0  0  0  0  0  0  0
    0.6610   -1.5770    0.0080 H   0  0  0  0  0  0  0  0  0  0  0  0
   -0.5830    0.3220    1.3810 N   0  0  0  0  0  0  0  0  0  0  0  0
   -1.7360    1.0670    1.7800 C   0  0  1  0  0  0  0  0  0  0  0  0
   -2.8780    0.9670    0.7960 C   0  0  0  0  0  0  0  0  0  0  0  0
   -3.3280   -0.4380    0.6180 C   0  0  0  0  0  0  0  0  0  0  0  0
   -4.2970   -1.1160    1.3290 C   0  0  0  0  0  0  0  0  0  0  0  0
   -4.3780   -2.3630    0.8330 N   0  0  0  0  0  0  0  0  0  0  0  0
   -3.4950   -2.5030   -0.1680 C   0  0  0  0  0  0  0  0  0  0  0  0
   -2.8660   -1.3330   -0.2890 N   0  0  0  0  0  0  0  0  0  0  0  0
   -2.2190    0.5530    3.0710 C   0  0  0  0  0  0  0  0  0  0  0  0
   -1.6300   -0.3890    3.6280 O   0  0  0  0  0  0  0  0  0  0  0  0
   -3.3260    1.1150    3.6630 O   0  0  0  0  0  0  0  0  0  0  0  0
   -0.6950   -0.7080    1.2510 H   0  0  0  0  0  0  0  0  0  0  0  0
   -1.4650    2.1590    1.8800 H   0  0  0  0  0  0  0  0  0  0  0  0
   -3.7450    1.5240    1.2060 H   0  0  0  0  0  0  0  0  0  0  0  0
   -2.6410    1.3930   -0.1860 H   0  0  0  0  0  0  0  0  0  0  0  0
   -4.8940   -0.7510    2.1320 H   0  0  0  0  0  0  0  0  0  0  0  0
   -5.0080   -3.1540    1.1330 H   0  0  0  0  0  0  0  0  0  0  0  0
   -3.3060   -3.3790   -0.7770 H   0  0  0  0  0  0  0  0  0  0  0  0
  1  7  1  0  0  0  0
  1  6  1  0  0  0  0
  2  9  1  6  0  0  0
  2  4  1  0  0  0  0
  2  1  1  0  0  0  0
  2  3  1  0  0  0  0
  3 11  1  0  0  0  0
  3 10  1  0  0  0  0
  4  5  2  0  0  0  0
  8  1  1  0  0  0  0
 12 21  1  0  0  0  0
 12 13  1  0  0  0  0
 13 14  1  0  0  0  0
 13 23  1  0  0  0  0
 13 24  1  0  0  0  0
 14 25  1  6  0  0  0
 14 16  1  0  0  0  0
 15 26  1  0  0  0  0
 15 14  1  0  0  0  0
 16 18  1  0  0  0  0
 16 29  1  1  0  0  0
 17 16  1  0  0  0  0
 17  4  1  0  0  0  0
 18 19  2  0  0  0  0
 18 31  1  0  0  0  0
 20 12  1  0  0  0  0
 22 12  1  0  0  0  0
 27 15  1  0  0  0  0
 28 15  1  0  0  0  0
 30 17  1  0  0  0  0
 31 32  1  0  0  0  0
 32 43  1  1  0  0  0
 32 39  1  0  0  0  0
 33 44  1  0  0  0  0
 33 32  1  0  0  0  0
 34 33  1  0  0  0  0
 34 35  2  0  0  0  0
 35 46  1  0  0  0  0
 36 47  1  0  0  0  0
 36 35  1  0  0  0  0
 37 36  1  0  0  0  0
 38 37  2  0  0  0  0
 38 34  1  0  0  0  0
 39 40  2  0  0  0  0
 39 41  1  0  0  0  0
 42 31  1  0  0  0  0
 45 33  1  0  0  0  0
 48 37  1  0  0  0  0
M  END
$$$$
