AII.pdb
 OpenBabel07022418013D

 50 49  0  0  1  0  0  0  0  0999 V2000
    1.9310   -5.5560    1.0010 C   0  0  0  0  0  0  0  0  0  0  0  0
    1.1570   -4.3420    1.5210 C   0  0  2  0  0  0  0  0  0  0  0  0
   -0.1470   -4.3830    0.9060 N   0  0  0  0  0  0  0  0  0  0  0  0
    1.8510   -3.0870    1.2100 C   0  0  0  0  0  0  0  0  0  0  0  0
    3.0040   -2.8520    1.6520 O   0  0  0  0  0  0  0  0  0  0  0  0
    2.3320   -5.2970    0.0010 H   0  0  0  0  0  0  0  0  0  0  0  0
    2.7380   -5.8490    1.7040 H   0  0  0  0  0  0  0  0  0  0  0  0
    1.1830   -6.3690    0.8870 H   0  0  0  0  0  0  0  0  0  0  0  0
    1.0030   -4.4330    2.6270 H   0  0  0  0  0  0  0  0  0  0  0  0
   -0.7770   -3.6330    1.2100 H   0  0  0  0  0  0  0  0  0  0  0  0
   -0.0980   -4.5120   -0.1310 H   0  0  0  0  0  0  0  0  0  0  0  0
   -0.2330   -0.0400   -2.1500 C   0  0  0  0  0  0  0  0  0  0  0  0
    0.9000   -0.9980   -2.3430 C   0  0  0  0  0  0  0  0  0  0  0  0
    2.0630   -0.8210   -1.4410 C   0  0  2  0  0  0  0  0  0  0  0  0
    3.0920   -1.8980   -1.8170 C   0  0  0  0  0  0  0  0  0  0  0  0
    1.7800   -0.8660    0.0260 C   0  0  2  0  0  0  0  0  0  0  0  0
    1.2020   -2.1220    0.3940 N   0  0  0  0  0  0  0  0  0  0  0  0
    1.0830    0.2990    0.5760 C   0  0  0  0  0  0  0  0  0  0  0  0
    1.4860    1.4750    0.3350 O   0  0  0  0  0  0  0  0  0  0  0  0
   -0.7980   -0.2940   -1.2370 H   0  0  0  0  0  0  0  0  0  0  0  0
    0.1590    1.0000   -2.0040 H   0  0  0  0  0  0  0  0  0  0  0  0
   -0.9540   -0.0570   -2.9990 H   0  0  0  0  0  0  0  0  0  0  0  0
    0.4880   -2.0280   -2.3600 H   0  0  0  0  0  0  0  0  0  0  0  0
    1.2710   -0.8320   -3.3980 H   0  0  0  0  0  0  0  0  0  0  0  0
    2.5660    0.1460   -1.7270 H   0  0  0  0  0  0  0  0  0  0  0  0
    4.1340   -1.4970   -1.7020 H   0  0  0  0  0  0  0  0  0  0  0  0
    2.9000   -2.2900   -2.8170 H   0  0  0  0  0  0  0  0  0  0  0  0
    2.9920   -2.7420   -1.1040 H   0  0  0  0  0  0  0  0  0  0  0  0
    2.8050   -0.8630    0.5240 H   0  0  0  0  0  0  0  0  0  0  0  0
    0.2240   -2.3100    0.0140 H   0  0  0  0  0  0  0  0  0  0  0  0
   -2.2500    4.0070    1.6340 C   0  0  0  0  0  0  0  0  0  0  0  0
   -2.8970    2.6950    1.9400 C   0  0  0  0  0  0  0  0  0  0  0  0
   -2.1440    1.4910    1.4450 C   0  0  2  0  0  0  0  0  0  0  0  0
   -2.9680    0.2700    1.8540 C   0  0  0  0  0  0  0  0  0  0  0  0
   -0.7410    1.3940    1.9350 C   0  0  2  0  0  0  0  0  0  0  0  0
   -0.0720    0.2040    1.4040 N   0  0  0  0  0  0  0  0  0  0  0  0
   -0.6750    1.4140    3.4080 C   0  0  0  0  0  0  0  0  0  0  0  0
   -1.1700    2.3730    4.0360 O   0  0  0  0  0  0  0  0  0  0  0  0
   -0.0820    0.4090    4.1610 O   0  0  0  0  0  0  0  0  0  0  0  0
   -2.9460    4.7040    1.0760 H   0  0  0  0  0  0  0  0  0  0  0  0
   -1.9750    4.5340    2.5770 H   0  0  0  0  0  0  0  0  0  0  0  0
   -1.3380    3.8260    1.0420 H   0  0  0  0  0  0  0  0  0  0  0  0
   -3.9010    2.7030    1.3990 H   0  0  0  0  0  0  0  0  0  0  0  0
   -3.2060    2.6120    3.0130 H   0  0  0  0  0  0  0  0  0  0  0  0
   -2.1070    1.5740    0.3370 H   0  0  0  0  0  0  0  0  0  0  0  0
   -3.9750    0.5490    2.2150 H   0  0  0  0  0  0  0  0  0  0  0  0
   -2.4750   -0.3030    2.6610 H   0  0  0  0  0  0  0  0  0  0  0  0
   -3.1360   -0.3410    0.9330 H   0  0  0  0  0  0  0  0  0  0  0  0
   -0.1690    2.2630    1.5600 H   0  0  0  0  0  0  0  0  0  0  0  0
   -0.4430   -0.7310    1.6320 H   0  0  0  0  0  0  0  0  0  0  0  0
  1  2  1  0  0  0  0
  1  7  1  0  0  0  0
  2  9  1  1  0  0  0
  3 10  1  0  0  0  0
  3  2  1  0  0  0  0
  4  2  1  0  0  0  0
  4  5  2  0  0  0  0
  6  1  1  0  0  0  0
  8  1  1  0  0  0  0
 11  3  1  0  0  0  0
 12 21  1  0  0  0  0
 12 20  1  0  0  0  0
 13 12  1  0  0  0  0
 13 14  1  0  0  0  0
 14 25  1  6  0  0  0
 14 16  1  0  0  0  0
 15 26  1  0  0  0  0
 15 14  1  0  0  0  0
 15 28  1  0  0  0  0
 16 17  1  0  0  0  0
 16 29  1  1  0  0  0
 16 18  1  0  0  0  0
 17  4  1  0  0  0  0
 18 36  1  0  0  0  0
 19 18  2  0  0  0  0
 22 12  1  0  0  0  0
 23 13  1  0  0  0  0
 24 13  1  0  0  0  0
 27 15  1  0  0  0  0
 30 17  1  0  0  0  0
 31 32  1  0  0  0  0
 31 41  1  0  0  0  0
 32 44  1  0  0  0  0
 33 45  1  6  0  0  0
 33 34  1  0  0  0  0
 33 35  1  0  0  0  0
 33 32  1  0  0  0  0
 34 46  1  0  0  0  0
 34 47  1  0  0  0  0
 35 49  1  6  0  0  0
 35 37  1  0  0  0  0
 36 50  1  0  0  0  0
 36 35  1  0  0  0  0
 37 38  2  0  0  0  0
 37 39  1  0  0  0  0
 40 31  1  0  0  0  0
 42 31  1  0  0  0  0
 43 32  1  0  0  0  0
 48 34  1  0  0  0  0
M  END
$$$$
