AIR.pdb
 OpenBabel07022418013D

 54 53  0  0  1  0  0  0  0  0999 V2000
    6.0330    0.0260    1.2910 C   0  0  0  0  0  0  0  0  0  0  0  0
    4.8810    0.9030    0.8620 C   0  0  2  0  0  0  0  0  0  0  0  0
    4.5620    1.7960    1.9500 N   0  0  0  0  0  0  0  0  0  0  0  0
    3.6990    0.0960    0.4620 C   0  0  0  0  0  0  0  0  0  0  0  0
    3.8730   -0.7360   -0.4900 O   0  0  0  0  0  0  0  0  0  0  0  0
    5.6040   -0.9070    1.7430 H   0  0  0  0  0  0  0  0  0  0  0  0
    6.6820   -0.2430    0.4170 H   0  0  0  0  0  0  0  0  0  0  0  0
    6.6160    0.5850    2.0510 H   0  0  0  0  0  0  0  0  0  0  0  0
    5.2430    1.5430    0.0110 H   0  0  0  0  0  0  0  0  0  0  0  0
    4.2870    1.1980    2.7750 H   0  0  0  0  0  0  0  0  0  0  0  0
    5.4090    2.3420    2.2120 H   0  0  0  0  0  0  0  0  0  0  0  0
   -0.6800    0.0800    3.0740 C   0  0  0  0  0  0  0  0  0  0  0  0
    0.3790   -0.9470    3.0420 C   0  0  0  0  0  0  0  0  0  0  0  0
    0.8040   -1.4980    1.7430 C   0  0  2  0  0  0  0  0  0  0  0  0
    1.8990   -2.5470    2.0590 C   0  0  0  0  0  0  0  0  0  0  0  0
    1.2910   -0.5530    0.7050 C   0  0  2  0  0  0  0  0  0  0  0  0
    2.4320    0.2270    1.0920 N   0  0  0  0  0  0  0  0  0  0  0  0
    0.2440    0.2810    0.0870 C   0  0  0  0  0  0  0  0  0  0  0  0
    0.4470    1.5260   -0.0570 O   0  0  0  0  0  0  0  0  0  0  0  0
   -0.6630    0.7030    4.0150 H   0  0  0  0  0  0  0  0  0  0  0  0
   -0.7780    0.7580    2.2370 H   0  0  0  0  0  0  0  0  0  0  0  0
   -1.6720   -0.4620    3.1470 H   0  0  0  0  0  0  0  0  0  0  0  0
    1.2470   -0.5660    3.6380 H   0  0  0  0  0  0  0  0  0  0  0  0
    0.0190   -1.8240    3.6650 H   0  0  0  0  0  0  0  0  0  0  0  0
   -0.0220   -2.0970    1.2860 H   0  0  0  0  0  0  0  0  0  0  0  0
    2.6180   -2.6000    1.2190 H   0  0  0  0  0  0  0  0  0  0  0  0
    2.3760   -2.3050    3.0280 H   0  0  0  0  0  0  0  0  0  0  0  0
    1.4440   -3.5530    2.1590 H   0  0  0  0  0  0  0  0  0  0  0  0
    1.6680   -1.2310   -0.1440 H   0  0  0  0  0  0  0  0  0  0  0  0
    2.3510    0.9230    1.8640 H   0  0  0  0  0  0  0  0  0  0  0  0
   -3.7580   -2.9570    1.1020 N   0  0  0  0  0  0  0  0  0  0  0  0
   -3.5450   -2.8170   -0.2970 C   0  0  0  0  0  0  0  0  0  0  0  0
   -2.6890   -3.6110   -0.8860 N   0  0  0  0  0  0  0  0  0  0  0  0
   -4.2580   -1.8270   -1.0190 N   0  0  0  0  0  0  0  0  0  0  0  0
   -3.9970   -1.5930   -2.3890 C   0  0  0  0  0  0  0  0  0  0  0  0
   -2.7180   -1.0250   -2.8220 C   0  0  0  0  0  0  0  0  0  0  0  0
   -2.2730    0.3070   -2.4040 C   0  0  0  0  0  0  0  0  0  0  0  0
   -2.0180    0.6060   -0.9780 C   0  0  2  0  0  0  0  0  0  0  0  0
   -1.0030   -0.2190   -0.3700 N   0  0  0  0  0  0  0  0  0  0  0  0
   -3.2210    0.8190   -0.1720 C   0  0  0  0  0  0  0  0  0  0  0  0
   -4.1630    1.5000   -0.6200 O   0  0  0  0  0  0  0  0  0  0  0  0
   -3.3160    0.2700    1.0850 O   0  0  0  0  0  0  0  0  0  0  0  0
   -3.3720   -3.7850    1.6040 H   0  0  0  0  0  0  0  0  0  0  0  0
   -4.2870   -2.2660    1.6620 H   0  0  0  0  0  0  0  0  0  0  0  0
   -2.1640   -4.3320   -0.3820 H   0  0  0  0  0  0  0  0  0  0  0  0
   -4.9970   -1.2900   -0.5210 H   0  0  0  0  0  0  0  0  0  0  0  0
   -4.1550   -2.5470   -3.0080 H   0  0  0  0  0  0  0  0  0  0  0  0
   -4.8240   -0.9310   -2.8300 H   0  0  0  0  0  0  0  0  0  0  0  0
   -2.6860   -1.1400   -3.9650 H   0  0  0  0  0  0  0  0  0  0  0  0
   -1.9110   -1.7540   -2.5070 H   0  0  0  0  0  0  0  0  0  0  0  0
   -3.0070    1.0730   -2.8300 H   0  0  0  0  0  0  0  0  0  0  0  0
   -1.3450    0.5430   -3.0290 H   0  0  0  0  0  0  0  0  0  0  0  0
   -1.5410    1.6740   -1.0070 H   0  0  0  0  0  0  0  0  0  0  0  0
   -1.1710   -1.2350   -0.2510 H   0  0  0  0  0  0  0  0  0  0  0  0
  1  6  1  0  0  0  0
  1  8  1  0  0  0  0
  2  9  1  6  0  0  0
  2  1  1  0  0  0  0
  2  3  1  0  0  0  0
  3 11  1  0  0  0  0
  3 10  1  0  0  0  0
  4  2  1  0  0  0  0
  4 17  1  0  0  0  0
  5  4  2  0  0  0  0
  7  1  1  0  0  0  0
 12 22  1  0  0  0  0
 12 20  1  0  0  0  0
 13 12  1  0  0  0  0
 13 23  1  0  0  0  0
 13 24  1  0  0  0  0
 14 25  1  6  0  0  0
 14 15  1  0  0  0  0
 14 13  1  0  0  0  0
 15 28  1  0  0  0  0
 15 27  1  0  0  0  0
 16 29  1  6  0  0  0
 16 17  1  0  0  0  0
 16 14  1  0  0  0  0
 17 30  1  0  0  0  0
 18 16  1  0  0  0  0
 19 18  2  0  0  0  0
 21 12  1  0  0  0  0
 26 15  1  0  0  0  0
 31 43  1  0  0  0  0
 31 44  1  0  0  0  0
 32 31  1  0  0  0  0
 33 45  1  0  0  0  0
 33 32  2  0  0  0  0
 34 46  1  0  0  0  0
 34 32  1  0  0  0  0
 35 34  1  0  0  0  0
 36 50  1  0  0  0  0
 36 37  1  0  0  0  0
 36 35  1  0  0  0  0
 37 38  1  0  0  0  0
 38 53  1  6  0  0  0
 38 39  1  0  0  0  0
 38 40  1  0  0  0  0
 39 54  1  0  0  0  0
 39 18  1  0  0  0  0
 40 42  1  0  0  0  0
 41 40  2  0  0  0  0
 47 35  1  0  0  0  0
 48 35  1  0  0  0  0
 49 36  1  0  0  0  0
 51 37  1  0  0  0  0
 52 37  1  0  0  0  0
M  END
$$$$
