AIY.pdb
 OpenBabel07022418013D

 52 52  0  0  1  0  0  0  0  0999 V2000
    4.2600    1.7560    3.2600 C   0  0  0  0  0  0  0  0  0  0  0  0
    2.8930    1.9810    2.6890 C   0  0  2  0  0  0  0  0  0  0  0  0
    1.9120    1.5920    3.6830 N   0  0  0  0  0  0  0  0  0  0  0  0
    2.6650    1.2180    1.4470 C   0  0  0  0  0  0  0  0  0  0  0  0
    3.3780    1.3570    0.4090 O   0  0  0  0  0  0  0  0  0  0  0  0
    4.6980    0.8200    2.8570 H   0  0  0  0  0  0  0  0  0  0  0  0
    4.8840    2.6480    2.9590 H   0  0  0  0  0  0  0  0  0  0  0  0
    4.1960    1.7050    4.3660 H   0  0  0  0  0  0  0  0  0  0  0  0
    2.6940    3.0520    2.4600 H   0  0  0  0  0  0  0  0  0  0  0  0
    2.0790    0.6560    4.0860 H   0  0  0  0  0  0  0  0  0  0  0  0
    1.8570    2.2690    4.4770 H   0  0  0  0  0  0  0  0  0  0  0  0
    2.4210   -2.6140   -1.8020 C   0  0  0  0  0  0  0  0  0  0  0  0
    1.5280   -2.9190   -0.6230 C   0  0  0  0  0  0  0  0  0  0  0  0
    1.6250   -1.9220    0.4690 C   0  0  2  0  0  0  0  0  0  0  0  0
    0.7130   -2.3030    1.6540 C   0  0  0  0  0  0  0  0  0  0  0  0
    1.4020   -0.4810    0.1050 C   0  0  2  0  0  0  0  0  0  0  0  0
    1.6080    0.2760    1.3770 N   0  0  0  0  0  0  0  0  0  0  0  0
    0.0620   -0.0970   -0.3270 C   0  0  0  0  0  0  0  0  0  0  0  0
   -0.6120    0.6610    0.4650 O   0  0  0  0  0  0  0  0  0  0  0  0
    3.4410   -3.0190   -1.6400 H   0  0  0  0  0  0  0  0  0  0  0  0
    2.0070   -3.2100   -2.6670 H   0  0  0  0  0  0  0  0  0  0  0  0
    2.4470   -1.5710   -2.1080 H   0  0  0  0  0  0  0  0  0  0  0  0
    0.5050   -3.1530   -0.9820 H   0  0  0  0  0  0  0  0  0  0  0  0
    1.8870   -3.9420   -0.2760 H   0  0  0  0  0  0  0  0  0  0  0  0
    2.6450   -1.9770    0.8910 H   0  0  0  0  0  0  0  0  0  0  0  0
    1.2280   -2.1340    2.6220 H   0  0  0  0  0  0  0  0  0  0  0  0
    0.4210   -3.3480    1.6160 H   0  0  0  0  0  0  0  0  0  0  0  0
   -0.1210   -1.5780    1.6230 H   0  0  0  0  0  0  0  0  0  0  0  0
    2.1390   -0.1910   -0.6460 H   0  0  0  0  0  0  0  0  0  0  0  0
    0.9730    0.0980    2.1840 H   0  0  0  0  0  0  0  0  0  0  0  0
   -3.8290   -2.4790    3.6200 O   0  0  0  0  0  0  0  0  0  0  0  0
   -3.6140   -2.1380    2.2960 C   0  0  0  0  0  0  0  0  0  0  0  0
   -4.2900   -1.0830    1.7150 C   0  0  0  0  0  0  0  0  0  0  0  0
   -4.0770   -0.7420    0.3980 C   0  0  0  0  0  0  0  0  0  0  0  0
   -3.1780   -1.4560   -0.3660 C   0  0  0  0  0  0  0  0  0  0  0  0
   -2.9250   -1.1250   -1.7880 C   0  0  0  0  0  0  0  0  0  0  0  0
   -1.8430   -0.1320   -2.0180 C   0  0  2  0  0  0  0  0  0  0  0  0
   -0.5420   -0.4940   -1.5440 N   0  0  0  0  0  0  0  0  0  0  0  0
   -2.2680    1.2550   -1.7830 C   0  0  0  0  0  0  0  0  0  0  0  0
   -1.5140    2.1080   -1.3090 O   0  0  0  0  0  0  0  0  0  0  0  0
   -2.5180   -2.5030    0.2370 C   0  0  0  0  0  0  0  0  0  0  0  0
   -2.7100   -2.8710    1.5590 C   0  0  0  0  0  0  0  0  0  0  0  0
   -3.5670    1.6040   -2.1100 O   0  0  0  0  0  0  0  0  0  0  0  0
   -3.5330   -1.8350    4.3420 H   0  0  0  0  0  0  0  0  0  0  0  0
   -4.9880   -0.5520    2.3640 H   0  0  0  0  0  0  0  0  0  0  0  0
   -4.6380    0.1080   -0.0240 H   0  0  0  0  0  0  0  0  0  0  0  0
   -2.7700   -2.0560   -2.3760 H   0  0  0  0  0  0  0  0  0  0  0  0
   -3.8860   -0.6990   -2.1870 H   0  0  0  0  0  0  0  0  0  0  0  0
   -1.7050   -0.1290   -3.1780 H   0  0  0  0  0  0  0  0  0  0  0  0
    0.0920   -1.1230   -2.1300 H   0  0  0  0  0  0  0  0  0  0  0  0
   -1.7890   -3.1180   -0.3080 H   0  0  0  0  0  0  0  0  0  0  0  0
   -2.1910   -3.6890    2.0210 H   0  0  0  0  0  0  0  0  0  0  0  0
  1  8  1  0  0  0  0
  2  9  1  6  0  0  0
  2  1  1  0  0  0  0
  2  3  1  0  0  0  0
  3 10  1  0  0  0  0
  3 11  1  0  0  0  0
  4  2  1  0  0  0  0
  5  4  2  0  0  0  0
  6  1  1  0  0  0  0
  7  1  1  0  0  0  0
 12 20  1  0  0  0  0
 12 13  1  0  0  0  0
 13 24  1  0  0  0  0
 13 14  1  0  0  0  0
 14 25  1  1  0  0  0
 14 15  1  0  0  0  0
 15 26  1  0  0  0  0
 16 29  1  6  0  0  0
 16 14  1  0  0  0  0
 16 17  1  0  0  0  0
 17  4  1  0  0  0  0
 17 30  1  0  0  0  0
 18 16  1  0  0  0  0
 18 19  2  0  0  0  0
 21 12  1  0  0  0  0
 22 12  1  0  0  0  0
 23 13  1  0  0  0  0
 27 15  1  0  0  0  0
 28 15  1  0  0  0  0
 31 44  1  0  0  0  0
 32 31  1  0  0  0  0
 33 32  1  0  0  0  0
 33 45  1  0  0  0  0
 34 33  2  0  0  0  0
 35 41  2  0  0  0  0
 35 34  1  0  0  0  0
 36 35  1  0  0  0  0
 37 49  1  6  0  0  0
 37 36  1  0  0  0  0
 37 39  1  0  0  0  0
 37 38  1  0  0  0  0
 38 18  1  0  0  0  0
 39 40  1  0  0  0  0
 41 42  1  0  0  0  0
 42 52  1  0  0  0  0
 42 32  2  0  0  0  0
 43 39  2  0  0  0  0
 46 34  1  0  0  0  0
 47 36  1  0  0  0  0
 48 36  1  0  0  0  0
 50 38  1  0  0  0  0
 51 41  1  0  0  0  0
M  END
$$$$
