AKD.pdb
 OpenBabel07022418013D

 46 45  0  0  1  0  0  0  0  0999 V2000
   -1.6520   -1.2480   -2.7560 C   0  0  0  0  0  0  0  0  0  0  0  0
   -0.7770   -0.0030   -2.9540 C   0  0  2  0  0  0  0  0  0  0  0  0
   -0.2160   -0.1200   -4.2810 N   0  0  0  0  0  0  0  0  0  0  0  0
    0.3260   -0.0350   -1.9690 C   0  0  0  0  0  0  0  0  0  0  0  0
    1.4980   -0.1960   -2.3920 O   0  0  0  0  0  0  0  0  0  0  0  0
   -1.1990   -2.0790   -3.3520 H   0  0  0  0  0  0  0  0  0  0  0  0
   -2.6350   -0.9990   -3.2130 H   0  0  0  0  0  0  0  0  0  0  0  0
   -1.7660   -1.5140   -1.7000 H   0  0  0  0  0  0  0  0  0  0  0  0
   -1.4110    0.8980   -2.8430 H   0  0  0  0  0  0  0  0  0  0  0  0
   -0.9190   -0.2690   -5.0230 H   0  0  0  0  0  0  0  0  0  0  0  0
    0.5420   -0.8390   -4.2660 H   0  0  0  0  0  0  0  0  0  0  0  0
    0.1740    0.1030   -0.5720 N   0  0  0  0  0  0  0  0  0  0  0  0
    1.2570    0.0700    0.3870 C   0  0  1  0  0  0  0  0  0  0  0  0
    1.4800    1.3920    1.0320 C   0  0  0  0  0  0  0  0  0  0  0  0
    2.5840    1.4160    2.0300 C   0  0  0  0  0  0  0  0  0  0  0  0
    2.7760    2.7950    2.6430 C   0  0  0  0  0  0  0  0  0  0  0  0
    1.5260    3.2650    3.3500 C   0  0  0  0  0  0  0  0  0  0  0  0
    1.1310    2.3900    4.4160 N   0  0  0  0  0  0  0  0  0  0  0  0
    1.0500   -1.0590    1.3170 C   0  0  0  0  0  0  0  0  0  0  0  0
    1.8370   -1.3770    2.2300 O   0  0  0  0  0  0  0  0  0  0  0  0
   -0.7850    0.2370   -0.1960 H   0  0  0  0  0  0  0  0  0  0  0  0
    2.1850   -0.1540   -0.1980 H   0  0  0  0  0  0  0  0  0  0  0  0
    1.7790    2.0940    0.2080 H   0  0  0  0  0  0  0  0  0  0  0  0
    0.5520    1.7280    1.5340 H   0  0  0  0  0  0  0  0  0  0  0  0
    2.4110    0.7430    2.9110 H   0  0  0  0  0  0  0  0  0  0  0  0
    3.5700    1.1280    1.6180 H   0  0  0  0  0  0  0  0  0  0  0  0
    3.1000    3.4980    1.8800 H   0  0  0  0  0  0  0  0  0  0  0  0
    3.5660    2.6920    3.4150 H   0  0  0  0  0  0  0  0  0  0  0  0
    1.7350    4.2570    3.8030 H   0  0  0  0  0  0  0  0  0  0  0  0
    0.6790    3.4240    2.6520 H   0  0  0  0  0  0  0  0  0  0  0  0
    1.8830    2.3160    5.1310 H   0  0  0  0  0  0  0  0  0  0  0  0
    0.3320    2.8830    4.9180 H   0  0  0  0  0  0  0  0  0  0  0  0
   -0.1240   -1.8990    1.2290 N   0  0  0  0  0  0  0  0  0  0  0  0
   -0.3390   -2.9980    2.1260 C   0  0  1  0  0  0  0  0  0  0  0  0
   -1.6140   -2.6830    2.9220 C   0  0  0  0  0  0  0  0  0  0  0  0
   -2.7220   -2.5460    1.9420 C   0  0  0  0  0  0  0  0  0  0  0  0
   -2.9800   -1.5000    1.3240 O   0  0  0  0  0  0  0  0  0  0  0  0
   -0.5910   -4.2850    1.4420 C   0  0  0  0  0  0  0  0  0  0  0  0
   -0.6160   -4.4170    0.1980 O   0  0  0  0  0  0  0  0  0  0  0  0
   -3.5350   -3.6500    1.6870 O   0  0  0  0  0  0  0  0  0  0  0  0
   -0.8110   -5.4040    2.2240 O   0  0  0  0  0  0  0  0  0  0  0  0
   -0.8230   -1.6910    0.4890 H   0  0  0  0  0  0  0  0  0  0  0  0
    0.5060   -3.1500    2.8310 H   0  0  0  0  0  0  0  0  0  0  0  0
   -1.8400   -3.5100    3.6450 H   0  0  0  0  0  0  0  0  0  0  0  0
   -1.3970   -1.7360    3.4580 H   0  0  0  0  0  0  0  0  0  0  0  0
   -4.2660   -3.5740    1.0060 H   0  0  0  0  0  0  0  0  0  0  0  0
  1  8  1  0  0  0  0
  2  9  1  1  0  0  0
  2  1  1  0  0  0  0
  2  4  1  0  0  0  0
  3 11  1  0  0  0  0
  3  2  1  0  0  0  0
  4 12  1  0  0  0  0
  5  4  2  0  0  0  0
  6  1  1  0  0  0  0
  7  1  1  0  0  0  0
 10  3  1  0  0  0  0
 12 21  1  0  0  0  0
 12 13  1  0  0  0  0
 13 22  1  6  0  0  0
 13 14  1  0  0  0  0
 13 19  1  0  0  0  0
 14 24  1  0  0  0  0
 14 15  1  0  0  0  0
 15 16  1  0  0  0  0
 15 25  1  0  0  0  0
 16 17  1  0  0  0  0
 16 28  1  0  0  0  0
 17 29  1  0  0  0  0
 17 18  1  0  0  0  0
 18 32  1  0  0  0  0
 18 31  1  0  0  0  0
 19 20  2  0  0  0  0
 23 14  1  0  0  0  0
 26 15  1  0  0  0  0
 27 16  1  0  0  0  0
 30 17  1  0  0  0  0
 33 19  1  0  0  0  0
 33 34  1  0  0  0  0
 34 43  1  1  0  0  0
 34 35  1  0  0  0  0
 35 45  1  0  0  0  0
 35 44  1  0  0  0  0
 36 35  1  0  0  0  0
 37 36  2  0  0  0  0
 38 34  1  0  0  0  0
 38 41  1  0  0  0  0
 39 38  2  0  0  0  0
 40 36  1  0  0  0  0
 42 33  1  0  0  0  0
 46 40  1  0  0  0  0
M  END
$$$$
