AKP.pdb
 OpenBabel07022418013D

 47 47  0  0  1  0  0  0  0  0999 V2000
    0.9370   -4.0160   -1.0680 C   0  0  0  0  0  0  0  0  0  0  0  0
   -0.1220   -3.3330   -0.2630 C   0  0  2  0  0  0  0  0  0  0  0  0
   -1.2340   -3.0070   -1.0860 N   0  0  0  0  0  0  0  0  0  0  0  0
    0.4900   -2.1750    0.4320 C   0  0  0  0  0  0  0  0  0  0  0  0
    1.4870   -2.4020    1.1560 O   0  0  0  0  0  0  0  0  0  0  0  0
    1.6850   -3.2910   -1.4900 H   0  0  0  0  0  0  0  0  0  0  0  0
    0.5290   -4.5640   -1.9320 H   0  0  0  0  0  0  0  0  0  0  0  0
    1.5490   -4.7330   -0.4530 H   0  0  0  0  0  0  0  0  0  0  0  0
   -0.4240   -4.0510    0.5520 H   0  0  0  0  0  0  0  0  0  0  0  0
   -2.1000   -3.5400   -0.9060 H   0  0  0  0  0  0  0  0  0  0  0  0
   -1.0090   -2.8590   -2.0860 H   0  0  0  0  0  0  0  0  0  0  0  0
    0.0140   -0.8420    0.3210 N   0  0  0  0  0  0  0  0  0  0  0  0
    0.5700    0.3170    0.9570 C   0  0  1  0  0  0  0  0  0  0  0  0
    1.1410    1.1820   -0.1450 C   0  0  0  0  0  0  0  0  0  0  0  0
    2.1850    0.6150   -0.9560 C   0  0  0  0  0  0  0  0  0  0  0  0
    3.5440    0.2960   -0.6040 C   0  0  0  0  0  0  0  0  0  0  0  0
    4.0490   -0.6110    0.4050 C   0  0  0  0  0  0  0  0  0  0  0  0
    3.8120   -0.3810    1.7860 N   0  0  0  0  0  0  0  0  0  0  0  0
   -0.3720    1.1280    1.7670 C   0  0  0  0  0  0  0  0  0  0  0  0
    0.1620    2.2840    2.1220 O   0  0  0  0  0  0  0  0  0  0  0  0
   -0.8450   -0.7580   -0.3110 H   0  0  0  0  0  0  0  0  0  0  0  0
    1.3590   -0.0250    1.6200 H   0  0  0  0  0  0  0  0  0  0  0  0
    0.2220    1.4140   -0.7940 H   0  0  0  0  0  0  0  0  0  0  0  0
    1.3660    2.2150    0.2600 H   0  0  0  0  0  0  0  0  0  0  0  0
    2.2820    1.3090   -1.9010 H   0  0  0  0  0  0  0  0  0  0  0  0
    1.7570   -0.3140   -1.5320 H   0  0  0  0  0  0  0  0  0  0  0  0
    4.1770    1.2640   -0.4910 H   0  0  0  0  0  0  0  0  0  0  0  0
    4.0310   -0.0790   -1.6050 H   0  0  0  0  0  0  0  0  0  0  0  0
    3.8890   -1.7150    0.1380 H   0  0  0  0  0  0  0  0  0  0  0  0
    5.2020   -0.5740    0.3130 H   0  0  0  0  0  0  0  0  0  0  0  0
    3.6320    0.6150    2.0190 H   0  0  0  0  0  0  0  0  0  0  0  0
    4.5560   -0.7960    2.3920 H   0  0  0  0  0  0  0  0  0  0  0  0
   -1.6530    0.9480    2.2120 N   0  0  0  0  0  0  0  0  0  0  0  0
   -2.4890    2.0510    2.8680 C   0  0  0  0  0  0  0  0  0  0  0  0
   -3.6850    1.9500    1.9360 C   0  0  0  0  0  0  0  0  0  0  0  0
   -3.7020    0.4810    1.4170 C   0  0  0  0  0  0  0  0  0  0  0  0
   -2.6460   -0.0920    2.2990 C   0  0  1  0  0  0  0  0  0  0  0  0
   -2.2830   -1.4660    2.2360 C   0  0  0  0  0  0  0  0  0  0  0  0
   -1.2700   -1.8490    2.9190 O   0  0  0  0  0  0  0  0  0  0  0  0
   -2.9200   -2.4440    1.5050 O   0  0  0  0  0  0  0  0  0  0  0  0
   -2.6590    1.6850    3.8720 H   0  0  0  0  0  0  0  0  0  0  0  0
   -1.9580    2.9830    2.8500 H   0  0  0  0  0  0  0  0  0  0  0  0
   -4.6060    2.0830    2.5320 H   0  0  0  0  0  0  0  0  0  0  0  0
   -3.6350    2.6590    1.1090 H   0  0  0  0  0  0  0  0  0  0  0  0
   -4.6980    0.0540    1.5380 H   0  0  0  0  0  0  0  0  0  0  0  0
   -3.4420    0.5090    0.3470 H   0  0  0  0  0  0  0  0  0  0  0  0
   -3.1120    0.0990    3.3770 H   0  0  0  0  0  0  0  0  0  0  0  0
  1  8  1  0  0  0  0
  1  2  1  0  0  0  0
  2  4  1  0  0  0  0
  2  9  1  1  0  0  0
  3 10  1  0  0  0  0
  3  2  1  0  0  0  0
  4  5  2  0  0  0  0
  6  1  1  0  0  0  0
  7  1  1  0  0  0  0
 11  3  1  0  0  0  0
 12  4  1  0  0  0  0
 12 13  1  0  0  0  0
 13 22  1  1  0  0  0
 13 19  1  0  0  0  0
 14 24  1  0  0  0  0
 14 13  1  0  0  0  0
 15 16  1  0  0  0  0
 15 14  1  0  0  0  0
 16 27  1  0  0  0  0
 16 17  1  0  0  0  0
 17 18  1  0  0  0  0
 18 31  1  0  0  0  0
 18 32  1  0  0  0  0
 19 20  2  0  0  0  0
 19 33  1  0  0  0  0
 21 12  1  0  0  0  0
 23 14  1  0  0  0  0
 25 15  1  0  0  0  0
 26 15  1  0  0  0  0
 28 16  1  0  0  0  0
 29 17  1  0  0  0  0
 30 17  1  0  0  0  0
 33 37  1  0  0  0  0
 33 34  1  0  0  0  0
 34 41  1  0  0  0  0
 35 43  1  0  0  0  0
 35 34  1  0  0  0  0
 36 45  1  0  0  0  0
 36 35  1  0  0  0  0
 36 37  1  0  0  0  0
 37 47  1  1  0  0  0
 38 37  1  0  0  0  0
 38 39  1  0  0  0  0
 40 38  2  0  0  0  0
 42 34  1  0  0  0  0
 44 35  1  0  0  0  0
 46 36  1  0  0  0  0
M  END
$$$$
