AKS.pdb
 OpenBabel07022418013D

 44 43  0  0  1  0  0  0  0  0999 V2000
    2.0410   -5.3040    1.8570 C   0  0  0  0  0  0  0  0  0  0  0  0
    0.9730   -4.4480    2.4720 C   0  0  2  0  0  0  0  0  0  0  0  0
   -0.3250   -5.0270    2.3150 N   0  0  0  0  0  0  0  0  0  0  0  0
    1.0870   -3.0910    1.9280 C   0  0  0  0  0  0  0  0  0  0  0  0
    2.2080   -2.5140    2.0310 O   0  0  0  0  0  0  0  0  0  0  0  0
    1.8810   -6.3960    2.0650 H   0  0  0  0  0  0  0  0  0  0  0  0
    2.1270   -5.1710    0.7600 H   0  0  0  0  0  0  0  0  0  0  0  0
    3.0090   -5.0380    2.2970 H   0  0  0  0  0  0  0  0  0  0  0  0
    1.1820   -4.3880    3.5660 H   0  0  0  0  0  0  0  0  0  0  0  0
   -0.6240   -5.1620    1.3430 H   0  0  0  0  0  0  0  0  0  0  0  0
   -1.0370   -4.6660    2.9650 H   0  0  0  0  0  0  0  0  0  0  0  0
    0.0500   -2.3860    1.3030 N   0  0  0  0  0  0  0  0  0  0  0  0
    0.2280   -1.0030    0.7680 C   0  0  1  0  0  0  0  0  0  0  0  0
    0.0730   -1.0790   -0.7350 C   0  0  0  0  0  0  0  0  0  0  0  0
    0.2280    0.1630   -1.4960 C   0  0  0  0  0  0  0  0  0  0  0  0
    1.5330    0.8630   -1.4120 C   0  0  0  0  0  0  0  0  0  0  0  0
    2.7110    0.0730   -1.8940 C   0  0  0  0  0  0  0  0  0  0  0  0
    3.9300    0.8510   -1.7670 N   0  0  0  0  0  0  0  0  0  0  0  0
   -0.7790   -0.2060    1.4610 C   0  0  0  0  0  0  0  0  0  0  0  0
   -1.6130   -0.7700    2.2070 O   0  0  0  0  0  0  0  0  0  0  0  0
   -0.8830   -2.8460    1.2090 H   0  0  0  0  0  0  0  0  0  0  0  0
    1.2770   -0.7510    0.9870 H   0  0  0  0  0  0  0  0  0  0  0  0
   -0.9960   -1.4250   -0.8900 H   0  0  0  0  0  0  0  0  0  0  0  0
    0.6650   -1.9480   -1.1500 H   0  0  0  0  0  0  0  0  0  0  0  0
   -0.6380    0.8250   -1.3270 H   0  0  0  0  0  0  0  0  0  0  0  0
    0.0970   -0.1330   -2.5950 H   0  0  0  0  0  0  0  0  0  0  0  0
    1.7430    1.1230   -0.3560 H   0  0  0  0  0  0  0  0  0  0  0  0
    1.4990    1.8160   -1.9740 H   0  0  0  0  0  0  0  0  0  0  0  0
    2.6200   -0.1650   -2.9950 H   0  0  0  0  0  0  0  0  0  0  0  0
    2.8620   -0.8780   -1.3870 H   0  0  0  0  0  0  0  0  0  0  0  0
    4.4940    0.5740   -0.9370 H   0  0  0  0  0  0  0  0  0  0  0  0
    3.7930    1.8620   -1.8830 H   0  0  0  0  0  0  0  0  0  0  0  0
   -0.4330    3.7590    2.2690 O   0  0  0  0  0  0  0  0  0  0  0  0
   -1.2240    2.8870    3.0160 C   0  0  0  0  0  0  0  0  0  0  0  0
   -1.9120    1.9260    2.0670 C   0  0  2  0  0  0  0  0  0  0  0  0
   -0.8750    1.1950    1.3450 N   0  0  0  0  0  0  0  0  0  0  0  0
   -2.7730    2.6610    1.1230 C   0  0  0  0  0  0  0  0  0  0  0  0
   -2.6030    2.6330   -0.1030 O   0  0  0  0  0  0  0  0  0  0  0  0
   -3.8180    3.4160    1.6370 O   0  0  0  0  0  0  0  0  0  0  0  0
   -1.0480    4.3950    1.8270 H   0  0  0  0  0  0  0  0  0  0  0  0
   -1.9890    3.4200    3.6120 H   0  0  0  0  0  0  0  0  0  0  0  0
   -0.5800    2.3050    3.6940 H   0  0  0  0  0  0  0  0  0  0  0  0
   -2.4990    1.1850    2.6330 H   0  0  0  0  0  0  0  0  0  0  0  0
   -0.2160    1.7720    0.7570 H   0  0  0  0  0  0  0  0  0  0  0  0
  1  6  1  0  0  0  0
  1  8  1  0  0  0  0
  1  2  1  0  0  0  0
  2  9  1  1  0  0  0
  3  2  1  0  0  0  0
  3 11  1  0  0  0  0
  4  5  2  0  0  0  0
  4  2  1  0  0  0  0
  7  1  1  0  0  0  0
 10  3  1  0  0  0  0
 12  4  1  0  0  0  0
 13 22  1  1  0  0  0
 13 12  1  0  0  0  0
 13 19  1  0  0  0  0
 14 13  1  0  0  0  0
 15 16  1  0  0  0  0
 15 25  1  0  0  0  0
 15 14  1  0  0  0  0
 16 27  1  0  0  0  0
 17 18  1  0  0  0  0
 17 16  1  0  0  0  0
 17 30  1  0  0  0  0
 18 31  1  0  0  0  0
 19 20  2  0  0  0  0
 21 12  1  0  0  0  0
 23 14  1  0  0  0  0
 24 14  1  0  0  0  0
 26 15  1  0  0  0  0
 28 16  1  0  0  0  0
 29 17  1  0  0  0  0
 32 18  1  0  0  0  0
 33 34  1  0  0  0  0
 34 41  1  0  0  0  0
 34 42  1  0  0  0  0
 35 43  1  1  0  0  0
 35 34  1  0  0  0  0
 36 19  1  0  0  0  0
 36 35  1  0  0  0  0
 37 39  1  0  0  0  0
 37 35  1  0  0  0  0
 38 37  2  0  0  0  0
 40 33  1  0  0  0  0
 44 36  1  0  0  0  0
M  END
$$$$
