AKT.pdb
 OpenBabel07022418013D

 47 46  0  0  1  0  0  0  0  0999 V2000
    2.1210   -4.7320    2.0600 C   0  0  0  0  0  0  0  0  0  0  0  0
    3.1900   -3.8170    1.5270 C   0  0  2  0  0  0  0  0  0  0  0  0
    4.1960   -3.6510    2.5550 N   0  0  0  0  0  0  0  0  0  0  0  0
    2.5760   -2.4730    1.2780 C   0  0  0  0  0  0  0  0  0  0  0  0
    2.9900   -1.4740    1.9460 O   0  0  0  0  0  0  0  0  0  0  0  0
    2.5690   -5.5430    2.6750 H   0  0  0  0  0  0  0  0  0  0  0  0
    1.5400   -5.1340    1.2120 H   0  0  0  0  0  0  0  0  0  0  0  0
    1.4870   -4.1390    2.7480 H   0  0  0  0  0  0  0  0  0  0  0  0
    3.6550   -4.1800    0.5930 H   0  0  0  0  0  0  0  0  0  0  0  0
    3.8200   -3.9250    3.5050 H   0  0  0  0  0  0  0  0  0  0  0  0
    4.5560   -2.6680    2.6120 H   0  0  0  0  0  0  0  0  0  0  0  0
    1.5540   -2.2820    0.3290 N   0  0  0  0  0  0  0  0  0  0  0  0
    1.0130   -0.8860    0.1660 C   0  0  1  0  0  0  0  0  0  0  0  0
    1.1950   -0.5110   -1.2600 C   0  0  0  0  0  0  0  0  0  0  0  0
    0.8670    0.8200   -1.7500 C   0  0  0  0  0  0  0  0  0  0  0  0
    1.6460    1.9980   -1.3610 C   0  0  0  0  0  0  0  0  0  0  0  0
    1.8220    2.4480    0.0170 C   0  0  0  0  0  0  0  0  0  0  0  0
    0.6800    2.8080    0.7790 N   0  0  0  0  0  0  0  0  0  0  0  0
   -0.4320   -1.1160    0.5130 C   0  0  0  0  0  0  0  0  0  0  0  0
   -0.7860   -2.3000    0.7410 O   0  0  0  0  0  0  0  0  0  0  0  0
    1.1670   -3.0390   -0.2490 H   0  0  0  0  0  0  0  0  0  0  0  0
    1.5500   -0.2740    0.8510 H   0  0  0  0  0  0  0  0  0  0  0  0
    0.6310   -1.2480   -1.9410 H   0  0  0  0  0  0  0  0  0  0  0  0
    2.2650   -0.7430   -1.5650 H   0  0  0  0  0  0  0  0  0  0  0  0
    0.9420    0.7270   -2.9170 H   0  0  0  0  0  0  0  0  0  0  0  0
   -0.2500    1.0370   -1.6820 H   0  0  0  0  0  0  0  0  0  0  0  0
    1.1890    2.8870   -1.9440 H   0  0  0  0  0  0  0  0  0  0  0  0
    2.6530    1.9240   -1.8940 H   0  0  0  0  0  0  0  0  0  0  0  0
    2.4810    1.7590    0.6190 H   0  0  0  0  0  0  0  0  0  0  0  0
    2.4800    3.4130    0.0180 H   0  0  0  0  0  0  0  0  0  0  0  0
    0.4480    3.8080    0.6720 H   0  0  0  0  0  0  0  0  0  0  0  0
    0.6290    2.4330    1.7310 H   0  0  0  0  0  0  0  0  0  0  0  0
   -4.6150    0.1220    2.3740 C   0  0  0  0  0  0  0  0  0  0  0  0
   -3.1650    0.4720    2.1060 C   0  0  1  0  0  0  0  0  0  0  0  0
   -2.3850    0.2170    3.2340 O   0  0  0  0  0  0  0  0  0  0  0  0
   -2.7150   -0.3360    0.9140 C   0  0  2  0  0  0  0  0  0  0  0  0
   -1.3220   -0.0440    0.5730 N   0  0  0  0  0  0  0  0  0  0  0  0
   -3.5410    0.0550   -0.2410 C   0  0  0  0  0  0  0  0  0  0  0  0
   -2.9960    0.5560   -1.2470 O   0  0  0  0  0  0  0  0  0  0  0  0
   -4.9060   -0.1210   -0.2410 O   0  0  0  0  0  0  0  0  0  0  0  0
   -5.2620    0.8490    1.8280 H   0  0  0  0  0  0  0  0  0  0  0  0
   -4.8300   -0.8770    1.9440 H   0  0  0  0  0  0  0  0  0  0  0  0
   -4.8420    0.1500    3.4650 H   0  0  0  0  0  0  0  0  0  0  0  0
   -3.1190    1.5610    1.9220 H   0  0  0  0  0  0  0  0  0  0  0  0
   -2.6560    0.8560    3.9210 H   0  0  0  0  0  0  0  0  0  0  0  0
   -2.8230   -1.4060    1.0720 H   0  0  0  0  0  0  0  0  0  0  0  0
   -1.1370    0.9580    0.4140 H   0  0  0  0  0  0  0  0  0  0  0  0
  1  6  1  0  0  0  0
  1  8  1  0  0  0  0
  2  9  1  6  0  0  0
  2  1  1  0  0  0  0
  2  3  1  0  0  0  0
  3 11  1  0  0  0  0
  3 10  1  0  0  0  0
  4  2  1  0  0  0  0
  4  5  2  0  0  0  0
  7  1  1  0  0  0  0
 12  4  1  0  0  0  0
 13 12  1  0  0  0  0
 13 19  1  0  0  0  0
 13 22  1  1  0  0  0
 14 13  1  0  0  0  0
 15 26  1  0  0  0  0
 15 16  1  0  0  0  0
 15 14  1  0  0  0  0
 16 17  1  0  0  0  0
 17 30  1  0  0  0  0
 17 29  1  0  0  0  0
 17 18  1  0  0  0  0
 18 32  1  0  0  0  0
 19 37  1  0  0  0  0
 19 20  2  0  0  0  0
 21 12  1  0  0  0  0
 23 14  1  0  0  0  0
 24 14  1  0  0  0  0
 25 15  1  0  0  0  0
 27 16  1  0  0  0  0
 28 16  1  0  0  0  0
 31 18  1  0  0  0  0
 33 43  1  0  0  0  0
 34 44  1  6  0  0  0
 34 33  1  0  0  0  0
 34 35  1  0  0  0  0
 35 45  1  0  0  0  0
 36 46  1  1  0  0  0
 36 34  1  0  0  0  0
 37 36  1  0  0  0  0
 38 40  1  0  0  0  0
 38 36  1  0  0  0  0
 39 38  2  0  0  0  0
 41 33  1  0  0  0  0
 42 33  1  0  0  0  0
 47 37  1  0  0  0  0
M  END
$$$$
