ALA.pdb
 OpenBabel07022418013D

 41 40  0  0  1  0  0  0  0  0999 V2000
    0.3550   -4.1380    3.1400 C   0  0  0  0  0  0  0  0  0  0  0  0
    1.5710   -4.2380    2.2370 C   0  0  2  0  0  0  0  0  0  0  0  0
    2.6760   -4.8400    2.9500 N   0  0  0  0  0  0  0  0  0  0  0  0
    1.9210   -2.8550    1.8330 C   0  0  0  0  0  0  0  0  0  0  0  0
    3.0400   -2.3450    2.1070 O   0  0  0  0  0  0  0  0  0  0  0  0
   -0.5480   -4.1650    2.4980 H   0  0  0  0  0  0  0  0  0  0  0  0
    0.3320   -3.1330    3.6510 H   0  0  0  0  0  0  0  0  0  0  0  0
    0.2740   -4.9700    3.8490 H   0  0  0  0  0  0  0  0  0  0  0  0
    1.3020   -4.8500    1.3650 H   0  0  0  0  0  0  0  0  0  0  0  0
    3.2460   -5.4750    2.3240 H   0  0  0  0  0  0  0  0  0  0  0  0
    2.3180   -5.3610    3.7940 H   0  0  0  0  0  0  0  0  0  0  0  0
    0.1540   -1.2400   -2.9470 C   0  0  0  0  0  0  0  0  0  0  0  0
    0.0700   -1.2210   -1.4120 C   0  0  0  0  0  0  0  0  0  0  0  0
   -1.1730   -0.4600   -1.0890 C   0  0  0  0  0  0  0  0  0  0  0  0
    1.3310   -0.7360   -0.8040 C   0  0  0  0  0  0  0  0  0  0  0  0
    1.2680   -0.7170    0.6990 C   0  0  2  0  0  0  0  0  0  0  0  0
    0.9920   -2.0740    1.1240 N   0  0  0  0  0  0  0  0  0  0  0  0
    0.4070    0.3080    1.2580 C   0  0  0  0  0  0  0  0  0  0  0  0
   -0.5340    0.0300    2.0430 O   0  0  0  0  0  0  0  0  0  0  0  0
   -0.8460   -1.5680   -3.3030 H   0  0  0  0  0  0  0  0  0  0  0  0
    0.9660   -1.8920   -3.2920 H   0  0  0  0  0  0  0  0  0  0  0  0
    0.2670   -0.1780   -3.2620 H   0  0  0  0  0  0  0  0  0  0  0  0
   -0.1410   -2.2990   -1.1530 H   0  0  0  0  0  0  0  0  0  0  0  0
   -1.0000    0.6120   -1.0380 H   0  0  0  0  0  0  0  0  0  0  0  0
   -1.9290   -0.5850   -1.9300 H   0  0  0  0  0  0  0  0  0  0  0  0
   -1.7380   -0.8880   -0.2110 H   0  0  0  0  0  0  0  0  0  0  0  0
    2.1430   -1.4680   -1.0950 H   0  0  0  0  0  0  0  0  0  0  0  0
    1.6710    0.2460   -1.1950 H   0  0  0  0  0  0  0  0  0  0  0  0
    2.3290   -0.4750    1.0590 H   0  0  0  0  0  0  0  0  0  0  0  0
    0.0430   -2.4540    0.8710 H   0  0  0  0  0  0  0  0  0  0  0  0
    0.5050    3.6050    2.4340 C   0  0  0  0  0  0  0  0  0  0  0  0
   -0.2780    2.6800    1.5180 C   0  0  2  0  0  0  0  0  0  0  0  0
    0.5940    1.6800    0.9430 N   0  0  0  0  0  0  0  0  0  0  0  0
   -0.9260    3.4860    0.4620 C   0  0  0  0  0  0  0  0  0  0  0  0
   -0.7410    3.3300   -0.7690 O   0  0  0  0  0  0  0  0  0  0  0  0
   -1.8160    4.5080    0.8140 O   0  0  0  0  0  0  0  0  0  0  0  0
    1.3220    2.9950    2.8800 H   0  0  0  0  0  0  0  0  0  0  0  0
    0.9490    4.4490    1.8320 H   0  0  0  0  0  0  0  0  0  0  0  0
   -0.1950    4.0150    3.1810 H   0  0  0  0  0  0  0  0  0  0  0  0
   -1.0380    2.1930    2.1520 H   0  0  0  0  0  0  0  0  0  0  0  0
    1.3510    2.0160    0.2980 H   0  0  0  0  0  0  0  0  0  0  0  0
  1  7  1  0  0  0  0
  1  8  1  0  0  0  0
  2  9  1  6  0  0  0
  2  3  1  0  0  0  0
  2  1  1  0  0  0  0
  3 11  1  0  0  0  0
  4  5  2  0  0  0  0
  4  2  1  0  0  0  0
  6  1  1  0  0  0  0
 10  3  1  0  0  0  0
 12 13  1  0  0  0  0
 13 23  1  0  0  0  0
 13 14  1  0  0  0  0
 13 15  1  0  0  0  0
 14 24  1  0  0  0  0
 14 26  1  0  0  0  0
 15 16  1  0  0  0  0
 16 29  1  1  0  0  0
 16 17  1  0  0  0  0
 16 18  1  0  0  0  0
 17  4  1  0  0  0  0
 18 19  2  0  0  0  0
 20 12  1  0  0  0  0
 21 12  1  0  0  0  0
 22 12  1  0  0  0  0
 25 14  1  0  0  0  0
 27 15  1  0  0  0  0
 28 15  1  0  0  0  0
 30 17  1  0  0  0  0
 31 37  1  0  0  0  0
 31 39  1  0  0  0  0
 32 40  1  1  0  0  0
 32 31  1  0  0  0  0
 33 18  1  0  0  0  0
 33 32  1  0  0  0  0
 34 36  1  0  0  0  0
 34 32  1  0  0  0  0
 35 34  2  0  0  0  0
 38 31  1  0  0  0  0
 41 33  1  0  0  0  0
M  END
$$$$
