ALE.pdb
 OpenBabel07022418013D

 47 46  0  0  1  0  0  0  0  0999 V2000
   -0.4980    2.1370    5.6320 C   0  0  0  0  0  0  0  0  0  0  0  0
    0.6100    1.8030    4.6660 C   0  0  2  0  0  0  0  0  0  0  0  0
    1.1230    2.9320    3.9560 N   0  0  0  0  0  0  0  0  0  0  0  0
    0.1020    0.7350    3.7630 C   0  0  0  0  0  0  0  0  0  0  0  0
   -0.3820   -0.3070    4.2640 O   0  0  0  0  0  0  0  0  0  0  0  0
   -0.0970    2.5400    6.5910 H   0  0  0  0  0  0  0  0  0  0  0  0
   -1.2280    2.8560    5.2100 H   0  0  0  0  0  0  0  0  0  0  0  0
   -1.0200    1.1610    5.8530 H   0  0  0  0  0  0  0  0  0  0  0  0
    1.4580    1.4100    5.3010 H   0  0  0  0  0  0  0  0  0  0  0  0
    2.0390    3.2460    4.2940 H   0  0  0  0  0  0  0  0  0  0  0  0
    0.4340    3.7070    3.8420 H   0  0  0  0  0  0  0  0  0  0  0  0
   -2.8480    1.3360   -0.9690 C   0  0  0  0  0  0  0  0  0  0  0  0
   -1.4600    1.2910   -0.2930 C   0  0  0  0  0  0  0  0  0  0  0  0
   -1.2840    2.6450    0.3010 C   0  0  0  0  0  0  0  0  0  0  0  0
   -1.5370    0.1490    0.6470 C   0  0  0  0  0  0  0  0  0  0  0  0
   -0.3450   -0.1780    1.4590 C   0  0  2  0  0  0  0  0  0  0  0  0
    0.1360    0.8330    2.3420 N   0  0  0  0  0  0  0  0  0  0  0  0
    0.7400   -0.7150    0.6280 C   0  0  0  0  0  0  0  0  0  0  0  0
    1.8980   -0.2500    0.7550 O   0  0  0  0  0  0  0  0  0  0  0  0
   -3.5770    1.3050   -0.1360 H   0  0  0  0  0  0  0  0  0  0  0  0
   -2.9190    0.4150   -1.5570 H   0  0  0  0  0  0  0  0  0  0  0  0
   -2.9750    2.2650   -1.5400 H   0  0  0  0  0  0  0  0  0  0  0  0
   -0.7440    1.1310   -1.1460 H   0  0  0  0  0  0  0  0  0  0  0  0
   -1.8930    3.4170   -0.2340 H   0  0  0  0  0  0  0  0  0  0  0  0
   -1.4950    2.7490    1.3600 H   0  0  0  0  0  0  0  0  0  0  0  0
   -0.2290    2.9730    0.1250 H   0  0  0  0  0  0  0  0  0  0  0  0
   -1.7710   -0.7590    0.0230 H   0  0  0  0  0  0  0  0  0  0  0  0
   -2.4490    0.2810    1.2690 H   0  0  0  0  0  0  0  0  0  0  0  0
   -0.6690   -1.0360    2.1300 H   0  0  0  0  0  0  0  0  0  0  0  0
    0.5540    1.7150    1.9770 H   0  0  0  0  0  0  0  0  0  0  0  0
    0.5330   -1.7460   -0.3220 N   0  0  0  0  0  0  0  0  0  0  0  0
    1.6800   -2.2030   -1.0940 C   0  0  1  0  0  0  0  0  0  0  0  0
    1.9230   -3.6810   -0.8690 C   0  0  0  0  0  0  0  0  0  0  0  0
    0.7180   -4.5020   -1.2870 C   0  0  0  0  0  0  0  0  0  0  0  0
    0.9950   -5.9410   -1.0510 C   0  0  0  0  0  0  0  0  0  0  0  0
    0.9930   -6.4350    0.1060 O   0  0  0  0  0  0  0  0  0  0  0  0
    1.3820   -2.0140   -2.5360 C   0  0  0  0  0  0  0  0  0  0  0  0
    2.2360   -2.3380   -3.4170 O   0  0  0  0  0  0  0  0  0  0  0  0
    1.2640   -6.7820   -2.1130 O   0  0  0  0  0  0  0  0  0  0  0  0
    0.1860   -1.4870   -3.0120 O   0  0  0  0  0  0  0  0  0  0  0  0
   -0.4190   -2.1830   -0.4780 H   0  0  0  0  0  0  0  0  0  0  0  0
    2.5970   -1.6480   -0.8200 H   0  0  0  0  0  0  0  0  0  0  0  0
    2.8080   -3.9760   -1.4650 H   0  0  0  0  0  0  0  0  0  0  0  0
    2.1520   -3.9080    0.1910 H   0  0  0  0  0  0  0  0  0  0  0  0
    0.4760   -4.3690   -2.3530 H   0  0  0  0  0  0  0  0  0  0  0  0
   -0.1560   -4.2470   -0.6360 H   0  0  0  0  0  0  0  0  0  0  0  0
    1.9470   -7.5480   -2.0320 H   0  0  0  0  0  0  0  0  0  0  0  0
  1  8  1  0  0  0  0
  1  6  1  0  0  0  0
  2  9  1  1  0  0  0
  2  1  1  0  0  0  0
  3 10  1  0  0  0  0
  3  2  1  0  0  0  0
  4  5  2  0  0  0  0
  4  2  1  0  0  0  0
  7  1  1  0  0  0  0
 11  3  1  0  0  0  0
 12 13  1  0  0  0  0
 12 20  1  0  0  0  0
 13 14  1  0  0  0  0
 13 15  1  0  0  0  0
 14 25  1  0  0  0  0
 15 28  1  0  0  0  0
 15 16  1  0  0  0  0
 16 29  1  1  0  0  0
 16 17  1  0  0  0  0
 17  4  1  0  0  0  0
 18 19  2  0  0  0  0
 18 16  1  0  0  0  0
 21 12  1  0  0  0  0
 22 12  1  0  0  0  0
 23 13  1  0  0  0  0
 24 14  1  0  0  0  0
 26 14  1  0  0  0  0
 27 15  1  0  0  0  0
 30 17  1  0  0  0  0
 31 18  1  0  0  0  0
 32 33  1  0  0  0  0
 32 42  1  1  0  0  0
 32 31  1  0  0  0  0
 33 44  1  0  0  0  0
 34 35  1  0  0  0  0
 34 33  1  0  0  0  0
 34 46  1  0  0  0  0
 35 36  2  0  0  0  0
 37 32  1  0  0  0  0
 38 37  2  0  0  0  0
 39 47  1  0  0  0  0
 39 35  1  0  0  0  0
 40 37  1  0  0  0  0
 41 31  1  0  0  0  0
 43 33  1  0  0  0  0
 45 34  1  0  0  0  0
M  END
$$$$
