ALF.pdb
 OpenBabel07022418013D

 51 51  0  0  1  0  0  0  0  0999 V2000
    4.8470   -3.3750   -0.8690 C   0  0  0  0  0  0  0  0  0  0  0  0
    3.4130   -2.9660   -1.1220 C   0  0  2  0  0  0  0  0  0  0  0  0
    3.3460   -1.7920   -1.9600 N   0  0  0  0  0  0  0  0  0  0  0  0
    2.8050   -2.6970    0.2220 C   0  0  0  0  0  0  0  0  0  0  0  0
    2.7620   -3.5960    1.1070 O   0  0  0  0  0  0  0  0  0  0  0  0
    4.8950   -4.3850   -0.4350 H   0  0  0  0  0  0  0  0  0  0  0  0
    5.4030   -3.3910   -1.8320 H   0  0  0  0  0  0  0  0  0  0  0  0
    5.3680   -2.6640   -0.1960 H   0  0  0  0  0  0  0  0  0  0  0  0
    2.8950   -3.7880   -1.6370 H   0  0  0  0  0  0  0  0  0  0  0  0
    2.3450   -1.6360   -2.2250 H   0  0  0  0  0  0  0  0  0  0  0  0
    3.8440   -2.0290   -2.8490 H   0  0  0  0  0  0  0  0  0  0  0  0
    0.8580    1.2290    3.9570 C   0  0  0  0  0  0  0  0  0  0  0  0
    2.1840    0.6020    3.6870 C   0  0  0  0  0  0  0  0  0  0  0  0
    2.5570   -0.2920    4.8690 C   0  0  0  0  0  0  0  0  0  0  0  0
    2.4300   -0.0170    2.3890 C   0  0  0  0  0  0  0  0  0  0  0  0
    1.6490   -1.1630    1.8930 C   0  0  2  0  0  0  0  0  0  0  0  0
    2.2560   -1.4470    0.5640 N   0  0  0  0  0  0  0  0  0  0  0  0
    0.2100   -0.9680    1.6330 C   0  0  0  0  0  0  0  0  0  0  0  0
   -0.6290   -0.8280    2.5520 O   0  0  0  0  0  0  0  0  0  0  0  0
    0.3570    1.5840    3.0550 H   0  0  0  0  0  0  0  0  0  0  0  0
    0.9840    2.1850    4.5810 H   0  0  0  0  0  0  0  0  0  0  0  0
    0.2230    0.6060    4.6130 H   0  0  0  0  0  0  0  0  0  0  0  0
    2.9360    1.4560    3.7800 H   0  0  0  0  0  0  0  0  0  0  0  0
    3.6120   -0.6510    4.7810 H   0  0  0  0  0  0  0  0  0  0  0  0
    1.8450   -1.1010    5.0300 H   0  0  0  0  0  0  0  0  0  0  0  0
    2.5310    0.3640    5.7650 H   0  0  0  0  0  0  0  0  0  0  0  0
    2.4140    0.7820    1.5960 H   0  0  0  0  0  0  0  0  0  0  0  0
    3.5210   -0.3640    2.3870 H   0  0  0  0  0  0  0  0  0  0  0  0
    1.8020   -2.1080    2.4600 H   0  0  0  0  0  0  0  0  0  0  0  0
    2.2530   -0.6570   -0.0930 H   0  0  0  0  0  0  0  0  0  0  0  0
   -0.3490   -0.9220    0.3110 N   0  0  0  0  0  0  0  0  0  0  0  0
   -1.7780   -0.7280    0.0640 C   0  0  1  0  0  0  0  0  0  0  0  0
   -2.0500    0.5520   -0.6450 C   0  0  0  0  0  0  0  0  0  0  0  0
   -3.4930    0.7140   -0.8770 C   0  0  0  0  0  0  0  0  0  0  0  0
   -4.3050    1.3050    0.0610 C   0  0  0  0  0  0  0  0  0  0  0  0
   -5.6630    1.4770   -0.1510 C   0  0  0  0  0  0  0  0  0  0  0  0
   -6.1960    1.0360   -1.3400 C   0  0  0  0  0  0  0  0  0  0  0  0
   -5.4160    0.4410   -2.3020 C   0  0  0  0  0  0  0  0  0  0  0  0
   -4.0480    0.2830   -2.0560 C   0  0  0  0  0  0  0  0  0  0  0  0
   -2.3060   -1.9390   -0.5500 C   0  0  0  0  0  0  0  0  0  0  0  0
   -1.5370   -2.9290   -0.8180 O   0  0  0  0  0  0  0  0  0  0  0  0
   -3.6360   -2.1400   -0.8940 O   0  0  0  0  0  0  0  0  0  0  0  0
    0.3130   -1.0360   -0.4810 H   0  0  0  0  0  0  0  0  0  0  0  0
   -2.2480   -0.6370    1.0820 H   0  0  0  0  0  0  0  0  0  0  0  0
   -1.4920    0.5880   -1.6170 H   0  0  0  0  0  0  0  0  0  0  0  0
   -1.7410    1.4360   -0.0190 H   0  0  0  0  0  0  0  0  0  0  0  0
   -3.9060    1.6530    0.9920 H   0  0  0  0  0  0  0  0  0  0  0  0
   -6.2730    1.9410    0.5970 H   0  0  0  0  0  0  0  0  0  0  0  0
   -7.2690    1.1480   -1.5600 H   0  0  0  0  0  0  0  0  0  0  0  0
   -5.8000    0.0860   -3.2410 H   0  0  0  0  0  0  0  0  0  0  0  0
   -3.4320   -0.1850   -2.8100 H   0  0  0  0  0  0  0  0  0  0  0  0
  1  6  1  0  0  0  0
  1  8  1  0  0  0  0
  2  9  1  6  0  0  0
  2  1  1  0  0  0  0
  2  4  1  0  0  0  0
  3  2  1  0  0  0  0
  4 17  1  0  0  0  0
  4  5  2  0  0  0  0
  7  1  1  0  0  0  0
 10  3  1  0  0  0  0
 11  3  1  0  0  0  0
 12 21  1  0  0  0  0
 12 22  1  0  0  0  0
 13 23  1  0  0  0  0
 13 12  1  0  0  0  0
 13 14  1  0  0  0  0
 14 25  1  0  0  0  0
 14 26  1  0  0  0  0
 15 13  1  0  0  0  0
 16 15  1  0  0  0  0
 16 29  1  1  0  0  0
 17 16  1  0  0  0  0
 18 16  1  0  0  0  0
 18 19  2  0  0  0  0
 20 12  1  0  0  0  0
 24 14  1  0  0  0  0
 27 15  1  0  0  0  0
 28 15  1  0  0  0  0
 30 17  1  0  0  0  0
 31 18  1  0  0  0  0
 32 31  1  0  0  0  0
 32 44  1  1  0  0  0
 33 46  1  0  0  0  0
 33 32  1  0  0  0  0
 34 33  1  0  0  0  0
 34 35  1  0  0  0  0
 35 47  1  0  0  0  0
 36 35  2  0  0  0  0
 36 48  1  0  0  0  0
 37 36  1  0  0  0  0
 38 39  1  0  0  0  0
 38 37  2  0  0  0  0
 39 34  2  0  0  0  0
 40 32  1  0  0  0  0
 41 40  1  0  0  0  0
 42 40  2  0  0  0  0
 43 31  1  0  0  0  0
 45 33  1  0  0  0  0
 49 37  1  0  0  0  0
 50 38  1  0  0  0  0
 51 39  1  0  0  0  0
M  END
$$$$
