ALH.pdb
 OpenBabel07022418013D

 48 48  0  0  1  0  0  0  0  0999 V2000
   -0.3900   -3.2610    1.8970 C   0  0  0  0  0  0  0  0  0  0  0  0
    1.1200   -3.2570    1.7410 C   0  0  2  0  0  0  0  0  0  0  0  0
    1.6890   -4.0270    2.8040 N   0  0  0  0  0  0  0  0  0  0  0  0
    1.6280   -1.8690    1.6850 C   0  0  0  0  0  0  0  0  0  0  0  0
    2.4760   -1.4800    2.5250 O   0  0  0  0  0  0  0  0  0  0  0  0
   -0.6530   -4.2550    2.3530 H   0  0  0  0  0  0  0  0  0  0  0  0
   -0.7300   -2.5070    2.6330 H   0  0  0  0  0  0  0  0  0  0  0  0
   -0.8550   -3.1350    0.8980 H   0  0  0  0  0  0  0  0  0  0  0  0
    1.3260   -3.8100    0.7870 H   0  0  0  0  0  0  0  0  0  0  0  0
    0.9790   -4.6780    3.2540 H   0  0  0  0  0  0  0  0  0  0  0  0
    2.4570   -4.6650    2.4790 H   0  0  0  0  0  0  0  0  0  0  0  0
    3.6770    0.2620   -2.6190 C   0  0  0  0  0  0  0  0  0  0  0  0
    3.2780   -0.1800   -1.2220 C   0  0  0  0  0  0  0  0  0  0  0  0
    4.4910    0.0220   -0.3400 C   0  0  0  0  0  0  0  0  0  0  0  0
    2.1160    0.6780   -0.8010 C   0  0  0  0  0  0  0  0  0  0  0  0
    1.6030    0.3570    0.5770 C   0  0  2  0  0  0  0  0  0  0  0  0
    1.1480   -1.0010    0.6830 N   0  0  0  0  0  0  0  0  0  0  0  0
    0.4390    1.2520    0.8230 C   0  0  0  0  0  0  0  0  0  0  0  0
    0.5620    2.5220    0.7890 O   0  0  0  0  0  0  0  0  0  0  0  0
    4.1050    1.2830   -2.5840 H   0  0  0  0  0  0  0  0  0  0  0  0
    4.4200   -0.4900   -3.0090 H   0  0  0  0  0  0  0  0  0  0  0  0
    2.7560    0.2540   -3.2560 H   0  0  0  0  0  0  0  0  0  0  0  0
    3.0570   -1.2460   -1.2640 H   0  0  0  0  0  0  0  0  0  0  0  0
    5.2600   -0.7010   -0.6900 H   0  0  0  0  0  0  0  0  0  0  0  0
    4.9260    1.0360   -0.5590 H   0  0  0  0  0  0  0  0  0  0  0  0
    4.2750   -0.1120    0.7270 H   0  0  0  0  0  0  0  0  0  0  0  0
    2.4390    1.7210   -0.8200 H   0  0  0  0  0  0  0  0  0  0  0  0
    1.3040    0.5260   -1.5250 H   0  0  0  0  0  0  0  0  0  0  0  0
    2.3540    0.6130    1.3640 H   0  0  0  0  0  0  0  0  0  0  0  0
    0.4530   -1.3560    0.0120 H   0  0  0  0  0  0  0  0  0  0  0  0
   -0.8420    0.7410    1.1020 N   0  0  0  0  0  0  0  0  0  0  0  0
   -2.0130    1.5170    1.3500 C   0  0  1  0  0  0  0  0  0  0  0  0
   -3.1260    1.2410    0.3590 C   0  0  0  0  0  0  0  0  0  0  0  0
   -3.5430   -0.1850    0.3980 C   0  0  0  0  0  0  0  0  0  0  0  0
   -4.5410   -0.7360    1.2100 C   0  0  0  0  0  0  0  0  0  0  0  0
   -4.6410   -2.0440    0.9770 N   0  0  0  0  0  0  0  0  0  0  0  0
   -3.7370   -2.3630    0.0350 C   0  0  0  0  0  0  0  0  0  0  0  0
   -3.0720   -1.2290   -0.3130 N   0  0  0  0  0  0  0  0  0  0  0  0
   -2.5480    1.2150    2.6970 C   0  0  0  0  0  0  0  0  0  0  0  0
   -1.9550    0.3740    3.4130 O   0  0  0  0  0  0  0  0  0  0  0  0
   -3.6820    1.8190    3.2140 O   0  0  0  0  0  0  0  0  0  0  0  0
   -0.9240   -0.3190    1.1260 H   0  0  0  0  0  0  0  0  0  0  0  0
   -1.7860    2.6070    1.2940 H   0  0  0  0  0  0  0  0  0  0  0  0
   -3.9920    1.8740    0.5950 H   0  0  0  0  0  0  0  0  0  0  0  0
   -2.8210    1.4560   -0.6800 H   0  0  0  0  0  0  0  0  0  0  0  0
   -5.1380   -0.1950    1.9150 H   0  0  0  0  0  0  0  0  0  0  0  0
   -5.2910   -2.7250    1.4260 H   0  0  0  0  0  0  0  0  0  0  0  0
   -3.5360   -3.3350   -0.4000 H   0  0  0  0  0  0  0  0  0  0  0  0
  1  6  1  0  0  0  0
  1  7  1  0  0  0  0
  2  9  1  6  0  0  0
  2  1  1  0  0  0  0
  2  3  1  0  0  0  0
  3 10  1  0  0  0  0
  4  2  1  0  0  0  0
  4  5  2  0  0  0  0
  8  1  1  0  0  0  0
 11  3  1  0  0  0  0
 12 20  1  0  0  0  0
 12 13  1  0  0  0  0
 13 15  1  0  0  0  0
 13 14  1  0  0  0  0
 14 26  1  0  0  0  0
 15 16  1  0  0  0  0
 16 17  1  0  0  0  0
 16 18  1  0  0  0  0
 16 29  1  1  0  0  0
 17  4  1  0  0  0  0
 18 31  1  0  0  0  0
 19 18  2  0  0  0  0
 21 12  1  0  0  0  0
 22 12  1  0  0  0  0
 23 13  1  0  0  0  0
 24 14  1  0  0  0  0
 25 14  1  0  0  0  0
 27 15  1  0  0  0  0
 28 15  1  0  0  0  0
 30 17  1  0  0  0  0
 31 42  1  0  0  0  0
 31 32  1  0  0  0  0
 32 43  1  6  0  0  0
 32 39  1  0  0  0  0
 33 34  1  0  0  0  0
 33 44  1  0  0  0  0
 33 32  1  0  0  0  0
 34 35  2  0  0  0  0
 35 46  1  0  0  0  0
 36 35  1  0  0  0  0
 36 47  1  0  0  0  0
 37 36  1  0  0  0  0
 38 37  2  0  0  0  0
 38 34  1  0  0  0  0
 39 41  2  0  0  0  0
 39 40  1  0  0  0  0
 45 33  1  0  0  0  0
 48 37  1  0  0  0  0
M  END
$$$$
