ALK.pdb
 OpenBabel07022418013D

 52 51  0  0  1  0  0  0  0  0999 V2000
    0.3530   -3.6460    2.8130 C   0  0  0  0  0  0  0  0  0  0  0  0
    1.8470   -3.3810    2.7610 C   0  0  2  0  0  0  0  0  0  0  0  0
    2.4840   -3.8810    3.9570 N   0  0  0  0  0  0  0  0  0  0  0  0
    2.1250   -1.9400    2.5770 C   0  0  0  0  0  0  0  0  0  0  0  0
    2.8370   -1.3550    3.4280 O   0  0  0  0  0  0  0  0  0  0  0  0
    0.2230   -4.6090    3.3630 H   0  0  0  0  0  0  0  0  0  0  0  0
   -0.1880   -2.8740    3.3950 H   0  0  0  0  0  0  0  0  0  0  0  0
   -0.0380   -3.7720    1.7820 H   0  0  0  0  0  0  0  0  0  0  0  0
    2.2420   -3.9110    1.8640 H   0  0  0  0  0  0  0  0  0  0  0  0
    1.9620   -4.7230    4.3300 H   0  0  0  0  0  0  0  0  0  0  0  0
    2.5270   -3.1080    4.6650 H   0  0  0  0  0  0  0  0  0  0  0  0
    2.1810   -1.2860   -1.4510 C   0  0  0  0  0  0  0  0  0  0  0  0
    2.4590    0.1360   -1.1400 C   0  0  0  0  0  0  0  0  0  0  0  0
    3.5610    0.6550   -2.0790 C   0  0  0  0  0  0  0  0  0  0  0  0
    2.8510    0.4990    0.2220 C   0  0  0  0  0  0  0  0  0  0  0  0
    1.9260    0.2230    1.3500 C   0  0  2  0  0  0  0  0  0  0  0  0
    1.6240   -1.1850    1.4820 N   0  0  0  0  0  0  0  0  0  0  0  0
    0.7330    1.0640    1.3950 C   0  0  0  0  0  0  0  0  0  0  0  0
    0.8200    2.2950    1.2950 O   0  0  0  0  0  0  0  0  0  0  0  0
    2.7160   -2.0260   -0.8350 H   0  0  0  0  0  0  0  0  0  0  0  0
    1.0820   -1.5310   -1.5550 H   0  0  0  0  0  0  0  0  0  0  0  0
    2.5580   -1.4930   -2.5020 H   0  0  0  0  0  0  0  0  0  0  0  0
    1.5420    0.7340   -1.4340 H   0  0  0  0  0  0  0  0  0  0  0  0
    4.0920    1.4990   -1.5990 H   0  0  0  0  0  0  0  0  0  0  0  0
    3.1270    0.9350   -3.0640 H   0  0  0  0  0  0  0  0  0  0  0  0
    4.3010   -0.1690   -2.1880 H   0  0  0  0  0  0  0  0  0  0  0  0
    3.8320   -0.0020    0.4760 H   0  0  0  0  0  0  0  0  0  0  0  0
    3.1130    1.5930    0.2270 H   0  0  0  0  0  0  0  0  0  0  0  0
    2.5100    0.5070    2.2870 H   0  0  0  0  0  0  0  0  0  0  0  0
    1.0330   -1.7160    0.8100 H   0  0  0  0  0  0  0  0  0  0  0  0
   -0.5290    0.4560    1.5550 N   0  0  0  0  0  0  0  0  0  0  0  0
   -1.7130    1.2570    1.6020 C   0  0  1  0  0  0  0  0  0  0  0  0
   -2.5630    0.8850    0.3720 C   0  0  0  0  0  0  0  0  0  0  0  0
   -2.9520   -0.5550    0.3570 C   0  0  0  0  0  0  0  0  0  0  0  0
   -3.8030   -0.8360   -0.8480 C   0  0  0  0  0  0  0  0  0  0  0  0
   -3.0420   -0.5290   -2.1060 C   0  0  0  0  0  0  0  0  0  0  0  0
   -3.9010   -0.8400   -3.2540 N   0  0  0  0  0  0  0  0  0  0  0  0
   -2.5180    0.9680    2.8170 C   0  0  0  0  0  0  0  0  0  0  0  0
   -2.1730    0.1180    3.6780 O   0  0  0  0  0  0  0  0  0  0  0  0
   -3.7060    1.6500    3.0380 O   0  0  0  0  0  0  0  0  0  0  0  0
   -0.6460   -0.5970    1.6490 H   0  0  0  0  0  0  0  0  0  0  0  0
   -1.4930    2.3500    1.5560 H   0  0  0  0  0  0  0  0  0  0  0  0
   -3.4590    1.5070    0.3510 H   0  0  0  0  0  0  0  0  0  0  0  0
   -1.9150    1.0580   -0.5390 H   0  0  0  0  0  0  0  0  0  0  0  0
   -2.0690   -1.2360    0.3970 H   0  0  0  0  0  0  0  0  0  0  0  0
   -3.5550   -0.8320    1.2560 H   0  0  0  0  0  0  0  0  0  0  0  0
   -4.1820   -1.8800   -0.8240 H   0  0  0  0  0  0  0  0  0  0  0  0
   -4.7120   -0.1920   -0.8010 H   0  0  0  0  0  0  0  0  0  0  0  0
   -2.0850   -1.0510   -2.1470 H   0  0  0  0  0  0  0  0  0  0  0  0
   -2.8730    0.5730   -2.1870 H   0  0  0  0  0  0  0  0  0  0  0  0
   -3.8720   -1.8740   -3.3780 H   0  0  0  0  0  0  0  0  0  0  0  0
   -4.8550   -0.4870   -3.0070 H   0  0  0  0  0  0  0  0  0  0  0  0
  1  6  1  0  0  0  0
  1  7  1  0  0  0  0
  2  9  1  6  0  0  0
  2  1  1  0  0  0  0
  2  3  1  0  0  0  0
  3 10  1  0  0  0  0
  3 11  1  0  0  0  0
  4  2  1  0  0  0  0
  4  5  2  0  0  0  0
  8  1  1  0  0  0  0
 12 13  1  0  0  0  0
 12 20  1  0  0  0  0
 13 15  1  0  0  0  0
 14 24  1  0  0  0  0
 14 13  1  0  0  0  0
 15 28  1  0  0  0  0
 15 27  1  0  0  0  0
 15 16  1  0  0  0  0
 16 18  1  0  0  0  0
 16 17  1  0  0  0  0
 16 29  1  1  0  0  0
 17  4  1  0  0  0  0
 18 31  1  0  0  0  0
 19 18  2  0  0  0  0
 21 12  1  0  0  0  0
 22 12  1  0  0  0  0
 23 13  1  0  0  0  0
 25 14  1  0  0  0  0
 26 14  1  0  0  0  0
 30 17  1  0  0  0  0
 31 32  1  0  0  0  0
 31 41  1  0  0  0  0
 32 42  1  6  0  0  0
 32 38  1  0  0  0  0
 33 32  1  0  0  0  0
 34 33  1  0  0  0  0
 34 45  1  0  0  0  0
 34 46  1  0  0  0  0
 35 47  1  0  0  0  0
 35 48  1  0  0  0  0
 35 34  1  0  0  0  0
 36 35  1  0  0  0  0
 37 52  1  0  0  0  0
 37 36  1  0  0  0  0
 38 40  2  0  0  0  0
 38 39  1  0  0  0  0
 43 33  1  0  0  0  0
 44 33  1  0  0  0  0
 49 36  1  0  0  0  0
 50 36  1  0  0  0  0
 51 37  1  0  0  0  0
M  END
$$$$
