ALN.pdb
 OpenBabel07022418013D

 45 44  0  0  1  0  0  0  0  0999 V2000
    4.9090   -3.0210    1.7040 C   0  0  0  0  0  0  0  0  0  0  0  0
    3.4820   -3.0480    2.1610 C   0  0  2  0  0  0  0  0  0  0  0  0
    2.7950   -4.2580    1.8200 N   0  0  0  0  0  0  0  0  0  0  0  0
    2.7340   -1.9100    1.5650 C   0  0  0  0  0  0  0  0  0  0  0  0
    3.1810   -0.7410    1.7520 O   0  0  0  0  0  0  0  0  0  0  0  0
    4.9860   -2.5470    0.7050 H   0  0  0  0  0  0  0  0  0  0  0  0
    5.3620   -4.0280    1.7250 H   0  0  0  0  0  0  0  0  0  0  0  0
    5.4690   -2.3390    2.4090 H   0  0  0  0  0  0  0  0  0  0  0  0
    3.4700   -2.9330    3.2670 H   0  0  0  0  0  0  0  0  0  0  0  0
    2.6930   -4.3550    0.7800 H   0  0  0  0  0  0  0  0  0  0  0  0
    1.8410   -4.2090    2.2600 H   0  0  0  0  0  0  0  0  0  0  0  0
   -1.0710    0.1420   -2.1800 C   0  0  0  0  0  0  0  0  0  0  0  0
    0.3980   -0.0490   -2.1560 C   0  0  0  0  0  0  0  0  0  0  0  0
    1.0170    1.3430   -1.9760 C   0  0  0  0  0  0  0  0  0  0  0  0
    0.9750   -1.0190   -1.2250 C   0  0  0  0  0  0  0  0  0  0  0  0
    0.8510   -0.8800    0.2330 C   0  0  2  0  0  0  0  0  0  0  0  0
    1.5720   -2.0800    0.8170 N   0  0  0  0  0  0  0  0  0  0  0  0
   -0.4640   -0.8180    0.8680 C   0  0  0  0  0  0  0  0  0  0  0  0
   -0.9400   -1.8580    1.4830 O   0  0  0  0  0  0  0  0  0  0  0  0
   -1.4400    0.0670   -3.2580 H   0  0  0  0  0  0  0  0  0  0  0  0
   -1.4120    1.1440   -1.8710 H   0  0  0  0  0  0  0  0  0  0  0  0
   -1.6190   -0.6660   -1.6480 H   0  0  0  0  0  0  0  0  0  0  0  0
    0.7260   -0.3480   -3.1950 H   0  0  0  0  0  0  0  0  0  0  0  0
    2.1150    1.3180   -2.2030 H   0  0  0  0  0  0  0  0  0  0  0  0
    0.5240    2.0680   -2.6530 H   0  0  0  0  0  0  0  0  0  0  0  0
    0.8830    1.7090   -0.9450 H   0  0  0  0  0  0  0  0  0  0  0  0
    2.0980   -1.0560   -1.4630 H   0  0  0  0  0  0  0  0  0  0  0  0
    0.6400   -2.0530   -1.5540 H   0  0  0  0  0  0  0  0  0  0  0  0
    1.4670   -0.0200    0.5600 H   0  0  0  0  0  0  0  0  0  0  0  0
    1.1600   -3.0140    0.6310 H   0  0  0  0  0  0  0  0  0  0  0  0
   -1.3880    2.1450    4.6820 N   0  0  0  0  0  0  0  0  0  0  0  0
   -1.4950    1.1860    3.6440 C   0  0  0  0  0  0  0  0  0  0  0  0
   -0.6380    0.2750    3.6430 O   0  0  0  0  0  0  0  0  0  0  0  0
   -2.5730    1.3160    2.6630 C   0  0  0  0  0  0  0  0  0  0  0  0
   -2.5900    0.2290    1.5990 C   0  0  2  0  0  0  0  0  0  0  0  0
   -1.3250    0.3090    0.9060 N   0  0  0  0  0  0  0  0  0  0  0  0
   -3.7840    0.4020    0.7860 C   0  0  0  0  0  0  0  0  0  0  0  0
   -4.9420    0.3260    1.3070 O   0  0  0  0  0  0  0  0  0  0  0  0
   -3.7580    0.6550   -0.5620 O   0  0  0  0  0  0  0  0  0  0  0  0
   -1.4120    3.1620    4.4880 H   0  0  0  0  0  0  0  0  0  0  0  0
   -1.2830    1.8100    5.6560 H   0  0  0  0  0  0  0  0  0  0  0  0
   -2.4630    2.2750    2.1150 H   0  0  0  0  0  0  0  0  0  0  0  0
   -3.5810    1.2810    3.1420 H   0  0  0  0  0  0  0  0  0  0  0  0
   -2.7050   -0.7370    2.1420 H   0  0  0  0  0  0  0  0  0  0  0  0
   -1.0090    1.1970    0.4400 H   0  0  0  0  0  0  0  0  0  0  0  0
  1  7  1  0  0  0  0
  1  2  1  0  0  0  0
  1  8  1  0  0  0  0
  2  9  1  1  0  0  0
  3  2  1  0  0  0  0
  3 11  1  0  0  0  0
  4  5  2  0  0  0  0
  4  2  1  0  0  0  0
  6  1  1  0  0  0  0
 10  3  1  0  0  0  0
 12 13  1  0  0  0  0
 12 21  1  0  0  0  0
 12 22  1  0  0  0  0
 13 14  1  0  0  0  0
 13 15  1  0  0  0  0
 14 26  1  0  0  0  0
 15 16  1  0  0  0  0
 16 29  1  1  0  0  0
 16 17  1  0  0  0  0
 16 18  1  0  0  0  0
 17  4  1  0  0  0  0
 18 36  1  0  0  0  0
 18 19  2  0  0  0  0
 20 12  1  0  0  0  0
 23 13  1  0  0  0  0
 24 14  1  0  0  0  0
 25 14  1  0  0  0  0
 27 15  1  0  0  0  0
 28 15  1  0  0  0  0
 30 17  1  0  0  0  0
 31 41  1  0  0  0  0
 32 31  1  0  0  0  0
 33 32  2  0  0  0  0
 34 43  1  0  0  0  0
 34 32  1  0  0  0  0
 35 44  1  1  0  0  0
 35 34  1  0  0  0  0
 36 35  1  0  0  0  0
 37 38  1  0  0  0  0
 37 35  1  0  0  0  0
 39 37  2  0  0  0  0
 40 31  1  0  0  0  0
 42 34  1  0  0  0  0
 45 36  1  0  0  0  0
M  END
$$$$
