AMC.pdb
 OpenBabel07022418013D

 40 39  0  0  1  0  0  0  0  0999 V2000
   -0.1780   -4.5100    1.5220 C   0  0  0  0  0  0  0  0  0  0  0  0
   -0.7470   -3.1370    1.2540 C   0  0  2  0  0  0  0  0  0  0  0  0
   -1.2220   -2.9950   -0.1000 N   0  0  0  0  0  0  0  0  0  0  0  0
    0.3200   -2.0960    1.4710 C   0  0  0  0  0  0  0  0  0  0  0  0
    0.8590   -2.0500    2.5940 O   0  0  0  0  0  0  0  0  0  0  0  0
    0.9140   -4.5550    1.4630 H   0  0  0  0  0  0  0  0  0  0  0  0
   -0.6620   -5.2590    0.8270 H   0  0  0  0  0  0  0  0  0  0  0  0
   -0.4780   -4.8310    2.5400 H   0  0  0  0  0  0  0  0  0  0  0  0
   -1.5780   -2.9530    1.9340 H   0  0  0  0  0  0  0  0  0  0  0  0
   -1.3440   -3.8970   -0.5840 H   0  0  0  0  0  0  0  0  0  0  0  0
   -1.9950   -2.3250   -0.2100 H   0  0  0  0  0  0  0  0  0  0  0  0
    3.8650   -2.6440    1.5470 C   0  0  0  0  0  0  0  0  0  0  0  0
    4.6750   -1.6760    0.2700 S   0  0  0  0  0  0  0  0  0  0  0  0
    3.5310   -1.0270   -0.9480 C   0  0  0  0  0  0  0  0  0  0  0  0
    2.6600    0.0180   -0.4200 C   0  0  0  0  0  0  0  0  0  0  0  0
    1.7090   -0.2260    0.6650 C   0  0  2  0  0  0  0  0  0  0  0  0
    0.6980   -1.2010    0.4380 N   0  0  0  0  0  0  0  0  0  0  0  0
    0.9860    1.0900    0.9560 C   0  0  0  0  0  0  0  0  0  0  0  0
    1.6250    2.1310    1.1950 O   0  0  0  0  0  0  0  0  0  0  0  0
    4.6020   -3.4810    1.7980 H   0  0  0  0  0  0  0  0  0  0  0  0
    3.7200   -2.0340    2.4440 H   0  0  0  0  0  0  0  0  0  0  0  0
    2.9460   -3.1340    1.1650 H   0  0  0  0  0  0  0  0  0  0  0  0
    3.0080   -1.8380   -1.5140 H   0  0  0  0  0  0  0  0  0  0  0  0
    4.1870   -0.5630   -1.7560 H   0  0  0  0  0  0  0  0  0  0  0  0
    2.0890    0.4670   -1.3020 H   0  0  0  0  0  0  0  0  0  0  0  0
    3.3310    0.8980   -0.1430 H   0  0  0  0  0  0  0  0  0  0  0  0
    2.2110   -0.4330    1.6320 H   0  0  0  0  0  0  0  0  0  0  0  0
    0.1900   -1.3160   -0.4710 H   0  0  0  0  0  0  0  0  0  0  0  0
   -0.4230    1.1160    0.9520 N   0  0  0  0  0  0  0  0  0  0  0  0
   -1.1990    2.2980    1.2120 C   0  0  1  0  0  0  0  0  0  0  0  0
   -1.9900    2.7230   -0.0180 C   0  0  0  0  0  0  0  0  0  0  0  0
   -2.9220    4.2010    0.4050 S   0  0  0  0  0  0  0  0  0  0  0  0
   -2.0830    2.1460    2.3920 C   0  0  0  0  0  0  0  0  0  0  0  0
   -2.1170    1.0660    3.0720 O   0  0  0  0  0  0  0  0  0  0  0  0
   -2.9260    3.1540    2.8350 O   0  0  0  0  0  0  0  0  0  0  0  0
   -0.9600    0.2200    0.7460 H   0  0  0  0  0  0  0  0  0  0  0  0
   -0.4770    3.1290    1.4040 H   0  0  0  0  0  0  0  0  0  0  0  0
   -2.5790    1.9180   -0.4540 H   0  0  0  0  0  0  0  0  0  0  0  0
   -1.2370    3.0190   -0.8060 H   0  0  0  0  0  0  0  0  0  0  0  0
   -3.6640    4.6170   -0.7340 H   0  0  0  0  0  0  0  0  0  0  0  0
  1  8  1  0  0  0  0
  2  4  1  0  0  0  0
  2  1  1  0  0  0  0
  2  9  1  1  0  0  0
  3  2  1  0  0  0  0
  4  5  2  0  0  0  0
  6  1  1  0  0  0  0
  7  1  1  0  0  0  0
 10  3  1  0  0  0  0
 11  3  1  0  0  0  0
 12 20  1  0  0  0  0
 12 21  1  0  0  0  0
 13 12  1  0  0  0  0
 14 15  1  0  0  0  0
 14 13  1  0  0  0  0
 15 26  1  0  0  0  0
 15 16  1  0  0  0  0
 16 18  1  0  0  0  0
 16 27  1  1  0  0  0
 17 16  1  0  0  0  0
 17  4  1  0  0  0  0
 18 19  2  0  0  0  0
 22 12  1  0  0  0  0
 23 14  1  0  0  0  0
 24 14  1  0  0  0  0
 25 15  1  0  0  0  0
 28 17  1  0  0  0  0
 29 18  1  0  0  0  0
 29 30  1  0  0  0  0
 30 37  1  1  0  0  0
 30 33  1  0  0  0  0
 31 32  1  0  0  0  0
 31 30  1  0  0  0  0
 33 35  2  0  0  0  0
 33 34  1  0  0  0  0
 36 29  1  0  0  0  0
 38 31  1  0  0  0  0
 39 31  1  0  0  0  0
 40 32  1  0  0  0  0
M  END
$$$$
