AMD.pdb
 OpenBabel07022418013D

 42 41  0  0  1  0  0  0  0  0999 V2000
    1.8020   -3.3110    2.8830 C   0  0  0  0  0  0  0  0  0  0  0  0
    0.4430   -3.8210    2.5560 C   0  0  2  0  0  0  0  0  0  0  0  0
    0.3870   -5.1510    2.0430 N   0  0  0  0  0  0  0  0  0  0  0  0
   -0.3350   -2.9040    1.6610 C   0  0  0  0  0  0  0  0  0  0  0  0
   -0.9400   -3.3610    0.6320 O   0  0  0  0  0  0  0  0  0  0  0  0
    2.2460   -2.7550    2.0160 H   0  0  0  0  0  0  0  0  0  0  0  0
    2.4430   -4.1920    3.1250 H   0  0  0  0  0  0  0  0  0  0  0  0
    1.7300   -2.6230    3.7740 H   0  0  0  0  0  0  0  0  0  0  0  0
   -0.1530   -3.8300    3.5170 H   0  0  0  0  0  0  0  0  0  0  0  0
    0.2540   -5.2040    1.0100 H   0  0  0  0  0  0  0  0  0  0  0  0
    1.1350   -5.7830    2.3890 H   0  0  0  0  0  0  0  0  0  0  0  0
   -3.2820   -0.6730   -1.6170 C   0  0  0  0  0  0  0  0  0  0  0  0
   -4.1040    0.0900   -0.2580 S   0  0  0  0  0  0  0  0  0  0  0  0
   -3.1320    0.9620    0.9440 C   0  0  0  0  0  0  0  0  0  0  0  0
   -2.2520    0.0730    1.7590 C   0  0  0  0  0  0  0  0  0  0  0  0
   -1.2090   -0.6520    1.0060 C   0  0  2  0  0  0  0  0  0  0  0  0
   -0.4370   -1.5320    1.8990 N   0  0  0  0  0  0  0  0  0  0  0  0
   -0.2650    0.3120    0.3740 C   0  0  0  0  0  0  0  0  0  0  0  0
   -0.6850    1.1850   -0.3990 O   0  0  0  0  0  0  0  0  0  0  0  0
   -3.8550   -0.5710   -2.5920 H   0  0  0  0  0  0  0  0  0  0  0  0
   -3.2430   -1.7840   -1.4230 H   0  0  0  0  0  0  0  0  0  0  0  0
   -2.2640   -0.3610   -1.8610 H   0  0  0  0  0  0  0  0  0  0  0  0
   -2.6010    1.8610    0.5190 H   0  0  0  0  0  0  0  0  0  0  0  0
   -3.8360    1.4470    1.7180 H   0  0  0  0  0  0  0  0  0  0  0  0
   -2.9190   -0.6200    2.3450 H   0  0  0  0  0  0  0  0  0  0  0  0
   -1.8050    0.7440    2.5670 H   0  0  0  0  0  0  0  0  0  0  0  0
   -1.6450   -1.2680    0.2220 H   0  0  0  0  0  0  0  0  0  0  0  0
    0.0230   -1.0870    2.7060 H   0  0  0  0  0  0  0  0  0  0  0  0
    1.1330    0.2690    0.6260 N   0  0  0  0  0  0  0  0  0  0  0  0
    1.9970    1.2620   -0.0410 C   0  0  1  0  0  0  0  0  0  0  0  0
    2.8110    1.9970    0.9860 C   0  0  0  0  0  0  0  0  0  0  0  0
    3.6410    3.0380    0.3710 C   0  0  0  0  0  0  0  0  0  0  0  0
    3.5070    3.3500   -0.8250 O   0  0  0  0  0  0  0  0  0  0  0  0
    2.8920    0.5200   -0.9830 C   0  0  0  0  0  0  0  0  0  0  0  0
    3.7340    1.0580   -1.7120 O   0  0  0  0  0  0  0  0  0  0  0  0
    4.6290    3.7290    1.1090 O   0  0  0  0  0  0  0  0  0  0  0  0
    2.7980   -0.8740   -1.0710 O   0  0  0  0  0  0  0  0  0  0  0  0
    1.5040   -0.4410    1.2560 H   0  0  0  0  0  0  0  0  0  0  0  0
    1.4080    1.9670   -0.6200 H   0  0  0  0  0  0  0  0  0  0  0  0
    2.0840    2.5070    1.6810 H   0  0  0  0  0  0  0  0  0  0  0  0
    3.4320    1.2730    1.5710 H   0  0  0  0  0  0  0  0  0  0  0  0
    5.3880    4.1560    0.5890 H   0  0  0  0  0  0  0  0  0  0  0  0
  1  7  1  0  0  0  0
  1  8  1  0  0  0  0
  2  1  1  0  0  0  0
  2  9  1  1  0  0  0
  3 11  1  0  0  0  0
  3  2  1  0  0  0  0
  4 17  1  0  0  0  0
  4  2  1  0  0  0  0
  5  4  2  0  0  0  0
  6  1  1  0  0  0  0
 10  3  1  0  0  0  0
 12 21  1  0  0  0  0
 12 13  1  0  0  0  0
 13 14  1  0  0  0  0
 14 24  1  0  0  0  0
 14 15  1  0  0  0  0
 15 25  1  0  0  0  0
 15 26  1  0  0  0  0
 16 27  1  6  0  0  0
 16 15  1  0  0  0  0
 16 17  1  0  0  0  0
 17 28  1  0  0  0  0
 18 29  1  0  0  0  0
 18 16  1  0  0  0  0
 19 18  2  0  0  0  0
 20 12  1  0  0  0  0
 22 12  1  0  0  0  0
 23 14  1  0  0  0  0
 29 38  1  0  0  0  0
 30 39  1  6  0  0  0
 30 29  1  0  0  0  0
 30 31  1  0  0  0  0
 31 41  1  0  0  0  0
 31 40  1  0  0  0  0
 32 31  1  0  0  0  0
 32 36  1  0  0  0  0
 33 32  2  0  0  0  0
 34 30  1  0  0  0  0
 35 34  2  0  0  0  0
 37 34  1  0  0  0  0
 42 36  1  0  0  0  0
M  END
$$$$
