AMG.pdb
 OpenBabel07022418013D

 36 35  0  0  1  0  0  0  0  0999 V2000
   -3.4190   -0.6250   -0.7870 C   0  0  0  0  0  0  0  0  0  0  0  0
   -3.0610   -1.7470    0.1970 C   0  0  2  0  0  0  0  0  0  0  0  0
   -4.2090   -1.9080    1.0530 N   0  0  0  0  0  0  0  0  0  0  0  0
   -1.9050   -1.2420    0.9770 C   0  0  0  0  0  0  0  0  0  0  0  0
   -2.0700   -1.0320    2.2040 O   0  0  0  0  0  0  0  0  0  0  0  0
   -2.6880   -0.5440   -1.5990 H   0  0  0  0  0  0  0  0  0  0  0  0
   -4.4340   -0.7690   -1.2010 H   0  0  0  0  0  0  0  0  0  0  0  0
   -3.4450    0.3550   -0.2530 H   0  0  0  0  0  0  0  0  0  0  0  0
   -2.8110   -2.6620   -0.3760 H   0  0  0  0  0  0  0  0  0  0  0  0
   -4.0060   -1.8440    2.0620 H   0  0  0  0  0  0  0  0  0  0  0  0
   -4.7920   -2.7360    0.7980 H   0  0  0  0  0  0  0  0  0  0  0  0
    0.6050   -4.4250   -0.3400 C   0  0  0  0  0  0  0  0  0  0  0  0
    1.1640   -2.8440   -1.0060 S   0  0  0  0  0  0  0  0  0  0  0  0
    2.2150   -1.9640    0.1450 C   0  0  0  0  0  0  0  0  0  0  0  0
    1.5610   -1.5000    1.3940 C   0  0  0  0  0  0  0  0  0  0  0  0
    0.4440   -0.5150    1.1450 C   0  0  2  0  0  0  0  0  0  0  0  0
   -0.6330   -1.0000    0.3490 N   0  0  0  0  0  0  0  0  0  0  0  0
    1.0140    0.7390    0.5740 C   0  0  0  0  0  0  0  0  0  0  0  0
    0.5700    1.2300   -0.5150 O   0  0  0  0  0  0  0  0  0  0  0  0
    0.3800   -4.2960    0.7360 H   0  0  0  0  0  0  0  0  0  0  0  0
   -0.3020   -4.7330   -0.9150 H   0  0  0  0  0  0  0  0  0  0  0  0
    1.4280   -5.1710   -0.4860 H   0  0  0  0  0  0  0  0  0  0  0  0
    2.7010   -1.0980   -0.3990 H   0  0  0  0  0  0  0  0  0  0  0  0
    3.0580   -2.6310    0.4440 H   0  0  0  0  0  0  0  0  0  0  0  0
    2.3470   -0.9320    1.9740 H   0  0  0  0  0  0  0  0  0  0  0  0
    1.2300   -2.3380    2.0510 H   0  0  0  0  0  0  0  0  0  0  0  0
    0.0170   -0.2360    2.1650 H   0  0  0  0  0  0  0  0  0  0  0  0
   -0.6030   -1.1910   -0.6710 H   0  0  0  0  0  0  0  0  0  0  0  0
    2.0630    1.4420    1.2020 N   0  0  0  0  0  0  0  0  0  0  0  0
    2.6290    2.6620    0.6570 C   0  0  0  0  0  0  0  0  0  0  0  0
    3.6980    3.1280    1.5620 C   0  0  0  0  0  0  0  0  0  0  0  0
    3.9660    2.4830    2.5960 O   0  0  0  0  0  0  0  0  0  0  0  0
    4.4430    4.2820    1.3150 O   0  0  0  0  0  0  0  0  0  0  0  0
    2.4490    1.0640    2.1090 H   0  0  0  0  0  0  0  0  0  0  0  0
    3.0900    2.4430   -0.3290 H   0  0  0  0  0  0  0  0  0  0  0  0
    1.8760    3.4740    0.5960 H   0  0  0  0  0  0  0  0  0  0  0  0
  1  8  1  0  0  0  0
  1  2  1  0  0  0  0
  2  9  1  6  0  0  0
  2  4  1  0  0  0  0
  2  3  1  0  0  0  0
  3 10  1  0  0  0  0
  4  5  2  0  0  0  0
  6  1  1  0  0  0  0
  7  1  1  0  0  0  0
 11  3  1  0  0  0  0
 12 20  1  0  0  0  0
 13 12  1  0  0  0  0
 13 14  1  0  0  0  0
 14 24  1  0  0  0  0
 14 15  1  0  0  0  0
 15 25  1  0  0  0  0
 15 26  1  0  0  0  0
 16 15  1  0  0  0  0
 16 27  1  1  0  0  0
 17  4  1  0  0  0  0
 17 16  1  0  0  0  0
 18 16  1  0  0  0  0
 18 29  1  0  0  0  0
 19 18  2  0  0  0  0
 21 12  1  0  0  0  0
 22 12  1  0  0  0  0
 23 14  1  0  0  0  0
 28 17  1  0  0  0  0
 29 34  1  0  0  0  0
 30 29  1  0  0  0  0
 30 31  1  0  0  0  0
 31 32  1  0  0  0  0
 33 31  2  0  0  0  0
 35 30  1  0  0  0  0
 36 30  1  0  0  0  0
M  END
$$$$
