AMH.pdb
 OpenBabel07022418013D

 46 46  0  0  1  0  0  0  0  0999 V2000
   -2.4910   -0.8320    1.9130 C   0  0  0  0  0  0  0  0  0  0  0  0
   -2.0530    0.4700    2.5340 C   0  0  2  0  0  0  0  0  0  0  0  0
   -3.1500    1.4030    2.3830 N   0  0  0  0  0  0  0  0  0  0  0  0
   -0.8460    1.0480    1.9360 C   0  0  0  0  0  0  0  0  0  0  0  0
   -0.9030    2.1860    1.4070 O   0  0  0  0  0  0  0  0  0  0  0  0
   -3.1170   -1.3500    2.6990 H   0  0  0  0  0  0  0  0  0  0  0  0
   -3.1890   -0.6420    1.0740 H   0  0  0  0  0  0  0  0  0  0  0  0
   -1.6770   -1.5210    1.6840 H   0  0  0  0  0  0  0  0  0  0  0  0
   -1.8700    0.3690    3.6240 H   0  0  0  0  0  0  0  0  0  0  0  0
   -3.2290    1.6940    1.3800 H   0  0  0  0  0  0  0  0  0  0  0  0
   -4.0410    1.0520    2.7850 H   0  0  0  0  0  0  0  0  0  0  0  0
    1.1590    3.6220    3.4590 C   0  0  0  0  0  0  0  0  0  0  0  0
    2.7810    2.9320    3.7400 S   0  0  0  0  0  0  0  0  0  0  0  0
    2.9310    1.1730    3.4530 C   0  0  0  0  0  0  0  0  0  0  0  0
    2.8230    0.7460    2.0390 C   0  0  0  0  0  0  0  0  0  0  0  0
    1.5480    1.0140    1.3210 C   0  0  2  0  0  0  0  0  0  0  0  0
    0.4140    0.3770    1.9230 N   0  0  0  0  0  0  0  0  0  0  0  0
    1.7130    0.3260   -0.0310 C   0  0  0  0  0  0  0  0  0  0  0  0
    2.6510    0.7160   -0.7550 O   0  0  0  0  0  0  0  0  0  0  0  0
    0.3380    2.9350    3.7300 H   0  0  0  0  0  0  0  0  0  0  0  0
    0.9700    4.5310    4.1010 H   0  0  0  0  0  0  0  0  0  0  0  0
    1.0270    3.9430    2.4090 H   0  0  0  0  0  0  0  0  0  0  0  0
    2.2530    0.5950    4.1370 H   0  0  0  0  0  0  0  0  0  0  0  0
    3.9690    0.8590    3.7940 H   0  0  0  0  0  0  0  0  0  0  0  0
    3.7080    1.2100    1.5010 H   0  0  0  0  0  0  0  0  0  0  0  0
    3.0320   -0.3500    1.9790 H   0  0  0  0  0  0  0  0  0  0  0  0
    1.3710    2.0540    1.0460 H   0  0  0  0  0  0  0  0  0  0  0  0
    0.4390   -0.5600    2.3620 H   0  0  0  0  0  0  0  0  0  0  0  0
    0.8640   -0.7050   -0.4700 N   0  0  0  0  0  0  0  0  0  0  0  0
    1.0340   -1.3520   -1.7550 C   0  0  1  0  0  0  0  0  0  0  0  0
    1.2830   -2.8280   -1.5460 C   0  0  0  0  0  0  0  0  0  0  0  0
    0.1910   -3.5150   -0.8530 C   0  0  0  0  0  0  0  0  0  0  0  0
   -0.8930   -4.1170   -1.4420 C   0  0  0  0  0  0  0  0  0  0  0  0
   -1.6480   -4.6250   -0.4540 N   0  0  0  0  0  0  0  0  0  0  0  0
   -1.0830   -4.3670    0.7280 C   0  0  0  0  0  0  0  0  0  0  0  0
    0.0490   -3.6830    0.4710 N   0  0  0  0  0  0  0  0  0  0  0  0
   -0.1790   -1.1530   -2.6040 C   0  0  0  0  0  0  0  0  0  0  0  0
   -1.1470   -0.4980   -2.1530 O   0  0  0  0  0  0  0  0  0  0  0  0
   -0.2510   -1.6830   -3.8820 O   0  0  0  0  0  0  0  0  0  0  0  0
    0.0930   -1.0070    0.1540 H   0  0  0  0  0  0  0  0  0  0  0  0
    1.8910   -0.9440   -2.3200 H   0  0  0  0  0  0  0  0  0  0  0  0
    1.5630   -3.3330   -2.4940 H   0  0  0  0  0  0  0  0  0  0  0  0
    2.1920   -2.9200   -0.8900 H   0  0  0  0  0  0  0  0  0  0  0  0
   -1.0910   -4.1650   -2.5180 H   0  0  0  0  0  0  0  0  0  0  0  0
   -2.5420   -5.1430   -0.5920 H   0  0  0  0  0  0  0  0  0  0  0  0
   -1.4630   -4.6540    1.7030 H   0  0  0  0  0  0  0  0  0  0  0  0
  1  2  1  0  0  0  0
  1  6  1  0  0  0  0
  2  9  1  1  0  0  0
  3  2  1  0  0  0  0
  3 11  1  0  0  0  0
  4  2  1  0  0  0  0
  5  4  2  0  0  0  0
  7  1  1  0  0  0  0
  8  1  1  0  0  0  0
 10  3  1  0  0  0  0
 12 20  1  0  0  0  0
 12 13  1  0  0  0  0
 12 21  1  0  0  0  0
 14 13  1  0  0  0  0
 14 24  1  0  0  0  0
 14 23  1  0  0  0  0
 15 14  1  0  0  0  0
 16 27  1  6  0  0  0
 16 17  1  0  0  0  0
 16 15  1  0  0  0  0
 17  4  1  0  0  0  0
 17 28  1  0  0  0  0
 18 16  1  0  0  0  0
 19 18  2  0  0  0  0
 22 12  1  0  0  0  0
 25 15  1  0  0  0  0
 26 15  1  0  0  0  0
 29 18  1  0  0  0  0
 29 40  1  0  0  0  0
 30 41  1  6  0  0  0
 30 31  1  0  0  0  0
 30 29  1  0  0  0  0
 31 43  1  0  0  0  0
 31 32  1  0  0  0  0
 32 36  1  0  0  0  0
 33 32  2  0  0  0  0
 33 34  1  0  0  0  0
 34 35  1  0  0  0  0
 35 46  1  0  0  0  0
 36 35  2  0  0  0  0
 37 38  1  0  0  0  0
 37 30  1  0  0  0  0
 39 37  2  0  0  0  0
 42 31  1  0  0  0  0
 44 33  1  0  0  0  0
 45 34  1  0  0  0  0
M  END
$$$$
