AML.pdb
 OpenBabel07022418013D

 48 47  0  0  1  0  0  0  0  0999 V2000
    3.2140   -4.7310    1.4060 C   0  0  0  0  0  0  0  0  0  0  0  0
    2.2970   -3.6480    1.9240 C   0  0  2  0  0  0  0  0  0  0  0  0
    1.0350   -4.2940    2.2590 N   0  0  0  0  0  0  0  0  0  0  0  0
    2.0340   -2.6080    0.8620 C   0  0  0  0  0  0  0  0  0  0  0  0
    2.9880   -1.9200    0.4190 O   0  0  0  0  0  0  0  0  0  0  0  0
    3.9340   -4.3830    0.6680 H   0  0  0  0  0  0  0  0  0  0  0  0
    3.7860   -5.1190    2.2830 H   0  0  0  0  0  0  0  0  0  0  0  0
    2.6280   -5.6180    1.0320 H   0  0  0  0  0  0  0  0  0  0  0  0
    2.6890   -3.1710    2.8200 H   0  0  0  0  0  0  0  0  0  0  0  0
    0.7820   -4.9970    1.5310 H   0  0  0  0  0  0  0  0  0  0  0  0
    1.1420   -4.8080    3.1590 H   0  0  0  0  0  0  0  0  0  0  0  0
   -3.1390   -0.8870   -2.4840 C   0  0  0  0  0  0  0  0  0  0  0  0
   -1.6130    0.1130   -2.6400 S   0  0  0  0  0  0  0  0  0  0  0  0
   -0.2780   -1.0380   -3.0240 C   0  0  0  0  0  0  0  0  0  0  0  0
   -0.0020   -1.9620   -1.9030 C   0  0  0  0  0  0  0  0  0  0  0  0
    0.5480   -1.3590   -0.6820 C   0  0  2  0  0  0  0  0  0  0  0  0
    0.7520   -2.3810    0.3480 N   0  0  0  0  0  0  0  0  0  0  0  0
   -0.1290   -0.2150   -0.0500 C   0  0  0  0  0  0  0  0  0  0  0  0
   -0.2220    0.8990   -0.6370 O   0  0  0  0  0  0  0  0  0  0  0  0
   -3.0120   -1.6710   -1.6870 H   0  0  0  0  0  0  0  0  0  0  0  0
   -3.3090   -1.3760   -3.4670 H   0  0  0  0  0  0  0  0  0  0  0  0
   -4.0050   -0.2830   -2.1950 H   0  0  0  0  0  0  0  0  0  0  0  0
   -0.5730   -1.6110   -3.9630 H   0  0  0  0  0  0  0  0  0  0  0  0
    0.6440   -0.4910   -3.3610 H   0  0  0  0  0  0  0  0  0  0  0  0
   -0.9800   -2.5120   -1.7070 H   0  0  0  0  0  0  0  0  0  0  0  0
    0.7550   -2.7290   -2.2530 H   0  0  0  0  0  0  0  0  0  0  0  0
    1.5850   -0.9710   -0.9560 H   0  0  0  0  0  0  0  0  0  0  0  0
   -0.0600   -2.9230    0.6730 H   0  0  0  0  0  0  0  0  0  0  0  0
    0.7660    2.2100    3.3940 C   0  0  0  0  0  0  0  0  0  0  0  0
    0.4530    2.3850    1.8940 C   0  0  0  0  0  0  0  0  0  0  0  0
    0.8430    3.7860    1.5350 C   0  0  0  0  0  0  0  0  0  0  0  0
   -0.9870    2.1150    1.6220 C   0  0  0  0  0  0  0  0  0  0  0  0
   -1.3710    0.6860    1.9990 C   0  0  2  0  0  0  0  0  0  0  0  0
   -0.7060   -0.3320    1.2550 N   0  0  0  0  0  0  0  0  0  0  0  0
   -2.7810    0.4980    2.2460 C   0  0  0  0  0  0  0  0  0  0  0  0
   -3.4280    1.3550    2.8930 O   0  0  0  0  0  0  0  0  0  0  0  0
   -3.4380   -0.6260    1.7740 O   0  0  0  0  0  0  0  0  0  0  0  0
   -0.1730    2.3930    3.9380 H   0  0  0  0  0  0  0  0  0  0  0  0
    1.0920    1.1710    3.6080 H   0  0  0  0  0  0  0  0  0  0  0  0
    1.5940    2.8760    3.6920 H   0  0  0  0  0  0  0  0  0  0  0  0
    1.1090    1.6760    1.4010 H   0  0  0  0  0  0  0  0  0  0  0  0
    1.8580    3.8080    1.0430 H   0  0  0  0  0  0  0  0  0  0  0  0
    0.9360    4.4620    2.4150 H   0  0  0  0  0  0  0  0  0  0  0  0
    0.1250    4.2410    0.8300 H   0  0  0  0  0  0  0  0  0  0  0  0
   -1.3370    2.4330    0.6480 H   0  0  0  0  0  0  0  0  0  0  0  0
   -1.5620    2.7450    2.3680 H   0  0  0  0  0  0  0  0  0  0  0  0
   -0.8360    0.6300    3.0410 H   0  0  0  0  0  0  0  0  0  0  0  0
   -0.6090   -1.3010    1.6940 H   0  0  0  0  0  0  0  0  0  0  0  0
  1  2  1  0  0  0  0
  1  7  1  0  0  0  0
  2  3  1  0  0  0  0
  2  9  1  1  0  0  0
  3 11  1  0  0  0  0
  4  2  1  0  0  0  0
  5  4  2  0  0  0  0
  6  1  1  0  0  0  0
  8  1  1  0  0  0  0
 10  3  1  0  0  0  0
 12 22  1  0  0  0  0
 12 20  1  0  0  0  0
 13 12  1  0  0  0  0
 14 13  1  0  0  0  0
 14 15  1  0  0  0  0
 15 25  1  0  0  0  0
 15 16  1  0  0  0  0
 16 27  1  6  0  0  0
 16 18  1  0  0  0  0
 16 17  1  0  0  0  0
 17 28  1  0  0  0  0
 17  4  1  0  0  0  0
 18 34  1  0  0  0  0
 19 18  2  0  0  0  0
 21 12  1  0  0  0  0
 23 14  1  0  0  0  0
 24 14  1  0  0  0  0
 26 15  1  0  0  0  0
 29 39  1  0  0  0  0
 29 40  1  0  0  0  0
 29 38  1  0  0  0  0
 30 29  1  0  0  0  0
 31 30  1  0  0  0  0
 31 43  1  0  0  0  0
 32 30  1  0  0  0  0
 32 33  1  0  0  0  0
 32 46  1  0  0  0  0
 33 35  1  0  0  0  0
 33 47  1  1  0  0  0
 34 48  1  0  0  0  0
 34 33  1  0  0  0  0
 35 36  1  0  0  0  0
 37 35  2  0  0  0  0
 41 30  1  0  0  0  0
 42 31  1  0  0  0  0
 44 31  1  0  0  0  0
 45 32  1  0  0  0  0
M  END
$$$$
