AMM.pdb
 OpenBabel07022418013D

 46 45  0  0  1  0  0  0  0  0999 V2000
   -1.2820   -3.4410   -0.7310 C   0  0  0  0  0  0  0  0  0  0  0  0
    0.0120   -3.4830   -1.5200 C   0  0  2  0  0  0  0  0  0  0  0  0
    0.2490   -4.7770   -2.0830 N   0  0  0  0  0  0  0  0  0  0  0  0
    1.1070   -3.0770   -0.5770 C   0  0  0  0  0  0  0  0  0  0  0  0
    2.0620   -3.8650   -0.3450 O   0  0  0  0  0  0  0  0  0  0  0  0
   -1.9000   -2.5830   -1.0160 H   0  0  0  0  0  0  0  0  0  0  0  0
   -1.8630   -4.3720   -0.9680 H   0  0  0  0  0  0  0  0  0  0  0  0
   -1.0820   -3.3570    0.3550 H   0  0  0  0  0  0  0  0  0  0  0  0
   -0.0340   -2.7280   -2.3260 H   0  0  0  0  0  0  0  0  0  0  0  0
    1.2570   -5.0060   -2.0500 H   0  0  0  0  0  0  0  0  0  0  0  0
   -0.3830   -5.5070   -1.7190 H   0  0  0  0  0  0  0  0  0  0  0  0
    0.6870    0.7390   -1.9980 C   0  0  0  0  0  0  0  0  0  0  0  0
    2.4410    0.7400   -1.8960 S   0  0  0  0  0  0  0  0  0  0  0  0
    3.2160    0.6140   -0.3060 C   0  0  0  0  0  0  0  0  0  0  0  0
    3.2090   -0.6380    0.4370 C   0  0  0  0  0  0  0  0  0  0  0  0
    2.0230   -1.3310    0.9400 C   0  0  2  0  0  0  0  0  0  0  0  0
    1.0260   -1.7870    0.0340 N   0  0  0  0  0  0  0  0  0  0  0  0
    1.4160   -0.6530    2.1480 C   0  0  0  0  0  0  0  0  0  0  0  0
    2.2010   -0.2030    2.9940 O   0  0  0  0  0  0  0  0  0  0  0  0
    0.1620    0.9880   -1.0560 H   0  0  0  0  0  0  0  0  0  0  0  0
    0.2970   -0.2530   -2.3500 H   0  0  0  0  0  0  0  0  0  0  0  0
    0.3190    1.4890   -2.7640 H   0  0  0  0  0  0  0  0  0  0  0  0
    4.3320    0.8510   -0.5010 H   0  0  0  0  0  0  0  0  0  0  0  0
    2.9560    1.5150    0.3510 H   0  0  0  0  0  0  0  0  0  0  0  0
    4.0100   -0.6140    1.2780 H   0  0  0  0  0  0  0  0  0  0  0  0
    3.7400   -1.4040   -0.2590 H   0  0  0  0  0  0  0  0  0  0  0  0
    2.4760   -2.3350    1.3460 H   0  0  0  0  0  0  0  0  0  0  0  0
    0.1920   -1.2230   -0.1880 H   0  0  0  0  0  0  0  0  0  0  0  0
   -2.7820    3.5460    0.8970 C   0  0  0  0  0  0  0  0  0  0  0  0
   -1.5350    3.8690    2.1700 S   0  0  0  0  0  0  0  0  0  0  0  0
   -0.5740    2.3960    2.5380 C   0  0  0  0  0  0  0  0  0  0  0  0
   -1.4270    1.3110    3.1860 C   0  0  0  0  0  0  0  0  0  0  0  0
   -0.5900    0.1190    3.4740 C   0  0  2  0  0  0  0  0  0  0  0  0
    0.0400   -0.5070    2.3620 N   0  0  0  0  0  0  0  0  0  0  0  0
   -1.4180   -0.8720    4.2010 C   0  0  0  0  0  0  0  0  0  0  0  0
   -1.4670   -2.0410    3.7840 O   0  0  0  0  0  0  0  0  0  0  0  0
   -2.1470   -0.5450    5.3400 O   0  0  0  0  0  0  0  0  0  0  0  0
   -3.8210    3.5970    1.3100 H   0  0  0  0  0  0  0  0  0  0  0  0
   -2.6380    4.2510    0.0780 H   0  0  0  0  0  0  0  0  0  0  0  0
   -2.5740    2.5280    0.4770 H   0  0  0  0  0  0  0  0  0  0  0  0
    0.2100    2.6950    3.2860 H   0  0  0  0  0  0  0  0  0  0  0  0
   -0.0100    1.9990    1.6710 H   0  0  0  0  0  0  0  0  0  0  0  0
   -1.7220    1.7400    4.1840 H   0  0  0  0  0  0  0  0  0  0  0  0
   -2.3610    1.1250    2.6620 H   0  0  0  0  0  0  0  0  0  0  0  0
    0.2140    0.4500    4.1780 H   0  0  0  0  0  0  0  0  0  0  0  0
   -0.6120   -0.8960    1.6340 H   0  0  0  0  0  0  0  0  0  0  0  0
  1  8  1  0  0  0  0
  2  9  1  6  0  0  0
  2  1  1  0  0  0  0
  2  4  1  0  0  0  0
  3 10  1  0  0  0  0
  3 11  1  0  0  0  0
  3  2  1  0  0  0  0
  4  5  2  0  0  0  0
  4 17  1  0  0  0  0
  6  1  1  0  0  0  0
  7  1  1  0  0  0  0
 12 13  1  0  0  0  0
 12 20  1  0  0  0  0
 13 14  1  0  0  0  0
 14 24  1  0  0  0  0
 14 15  1  0  0  0  0
 15 16  1  0  0  0  0
 15 25  1  0  0  0  0
 16 27  1  1  0  0  0
 16 18  1  0  0  0  0
 17 16  1  0  0  0  0
 18 34  1  0  0  0  0
 18 19  2  0  0  0  0
 21 12  1  0  0  0  0
 22 12  1  0  0  0  0
 23 14  1  0  0  0  0
 26 15  1  0  0  0  0
 28 17  1  0  0  0  0
 29 38  1  0  0  0  0
 29 30  1  0  0  0  0
 30 31  1  0  0  0  0
 31 32  1  0  0  0  0
 31 41  1  0  0  0  0
 32 33  1  0  0  0  0
 32 43  1  0  0  0  0
 33 45  1  1  0  0  0
 33 35  1  0  0  0  0
 34 33  1  0  0  0  0
 35 37  1  0  0  0  0
 36 35  2  0  0  0  0
 39 29  1  0  0  0  0
 40 29  1  0  0  0  0
 42 31  1  0  0  0  0
 44 32  1  0  0  0  0
 46 34  1  0  0  0  0
M  END
$$$$
