AMN.pdb
 OpenBabel07022418013D

 43 42  0  0  1  0  0  0  0  0999 V2000
   -0.4520   -3.9600   -0.3020 C   0  0  0  0  0  0  0  0  0  0  0  0
    0.7880   -3.5860   -1.0880 C   0  0  2  0  0  0  0  0  0  0  0  0
    1.5120   -4.7950   -1.3960 N   0  0  0  0  0  0  0  0  0  0  0  0
    1.6620   -2.6690   -0.3550 C   0  0  0  0  0  0  0  0  0  0  0  0
    2.8290   -3.0140   -0.0690 O   0  0  0  0  0  0  0  0  0  0  0  0
   -0.7160   -4.9990   -0.5820 H   0  0  0  0  0  0  0  0  0  0  0  0
   -0.2790   -3.9260    0.7820 H   0  0  0  0  0  0  0  0  0  0  0  0
   -1.3270   -3.3300   -0.5710 H   0  0  0  0  0  0  0  0  0  0  0  0
    0.4250   -3.1690   -2.0510 H   0  0  0  0  0  0  0  0  0  0  0  0
    1.3040   -5.5400   -0.7080 H   0  0  0  0  0  0  0  0  0  0  0  0
    2.5510   -4.6010   -1.3700 H   0  0  0  0  0  0  0  0  0  0  0  0
   -0.0760    0.8150   -2.0080 C   0  0  0  0  0  0  0  0  0  0  0  0
    1.6530    1.0730   -2.3290 S   0  0  0  0  0  0  0  0  0  0  0  0
    2.6300    1.4150   -0.9030 C   0  0  0  0  0  0  0  0  0  0  0  0
    3.0140    0.3410   -0.0050 C   0  0  0  0  0  0  0  0  0  0  0  0
    2.1190   -0.5240    0.7620 C   0  0  2  0  0  0  0  0  0  0  0  0
    1.2220   -1.3500    0.0600 N   0  0  0  0  0  0  0  0  0  0  0  0
    1.4470    0.1940    1.9010 C   0  0  0  0  0  0  0  0  0  0  0  0
    2.1090    0.9870    2.6150 O   0  0  0  0  0  0  0  0  0  0  0  0
   -0.3850    0.9900   -0.9420 H   0  0  0  0  0  0  0  0  0  0  0  0
   -0.3670   -0.2190   -2.2730 H   0  0  0  0  0  0  0  0  0  0  0  0
   -0.6950    1.5300   -2.6400 H   0  0  0  0  0  0  0  0  0  0  0  0
    2.1600    2.2860   -0.2830 H   0  0  0  0  0  0  0  0  0  0  0  0
    3.6050    1.9220   -1.2830 H   0  0  0  0  0  0  0  0  0  0  0  0
    3.8350    0.7820    0.7050 H   0  0  0  0  0  0  0  0  0  0  0  0
    3.7100   -0.3920   -0.5950 H   0  0  0  0  0  0  0  0  0  0  0  0
    2.8570   -1.2730    1.2810 H   0  0  0  0  0  0  0  0  0  0  0  0
    0.2160   -1.1540   -0.1920 H   0  0  0  0  0  0  0  0  0  0  0  0
   -2.3560    3.4620    1.3920 N   0  0  0  0  0  0  0  0  0  0  0  0
   -1.3490    2.5990    1.8880 C   0  0  0  0  0  0  0  0  0  0  0  0
   -0.1700    2.8040    1.5530 O   0  0  0  0  0  0  0  0  0  0  0  0
   -1.7650    1.4950    2.7850 C   0  0  0  0  0  0  0  0  0  0  0  0
   -0.6290    0.6450    3.2520 C   0  0  2  0  0  0  0  0  0  0  0  0
    0.1000    0.0010    2.1850 N   0  0  0  0  0  0  0  0  0  0  0  0
   -1.1320   -0.3750    4.1820 C   0  0  0  0  0  0  0  0  0  0  0  0
   -1.8030   -0.0770    5.1990 O   0  0  0  0  0  0  0  0  0  0  0  0
   -0.8720   -1.7160    3.9530 O   0  0  0  0  0  0  0  0  0  0  0  0
   -3.2020    3.0840    0.9280 H   0  0  0  0  0  0  0  0  0  0  0  0
   -2.2290    4.4850    1.5030 H   0  0  0  0  0  0  0  0  0  0  0  0
   -2.5840    0.8860    2.3290 H   0  0  0  0  0  0  0  0  0  0  0  0
   -2.2190    1.9680    3.6810 H   0  0  0  0  0  0  0  0  0  0  0  0
    0.0920    1.2970    3.7940 H   0  0  0  0  0  0  0  0  0  0  0  0
   -0.4680   -0.6530    1.6080 H   0  0  0  0  0  0  0  0  0  0  0  0
  1  7  1  0  0  0  0
  2  9  1  6  0  0  0
  2  4  1  0  0  0  0
  2  1  1  0  0  0  0
  3 11  1  0  0  0  0
  3  2  1  0  0  0  0
  3 10  1  0  0  0  0
  4  5  2  0  0  0  0
  4 17  1  0  0  0  0
  6  1  1  0  0  0  0
  8  1  1  0  0  0  0
 12 20  1  0  0  0  0
 13 12  1  0  0  0  0
 13 14  1  0  0  0  0
 14 23  1  0  0  0  0
 14 15  1  0  0  0  0
 15 25  1  0  0  0  0
 15 16  1  0  0  0  0
 16 27  1  1  0  0  0
 16 18  1  0  0  0  0
 17 16  1  0  0  0  0
 18 34  1  0  0  0  0
 18 19  2  0  0  0  0
 21 12  1  0  0  0  0
 22 12  1  0  0  0  0
 24 14  1  0  0  0  0
 26 15  1  0  0  0  0
 28 17  1  0  0  0  0
 29 39  1  0  0  0  0
 29 30  1  0  0  0  0
 30 32  1  0  0  0  0
 31 30  2  0  0  0  0
 32 33  1  0  0  0  0
 32 41  1  0  0  0  0
 33 42  1  1  0  0  0
 33 35  1  0  0  0  0
 34 33  1  0  0  0  0
 35 36  1  0  0  0  0
 37 35  2  0  0  0  0
 38 29  1  0  0  0  0
 40 32  1  0  0  0  0
 43 34  1  0  0  0  0
M  END
$$$$
