AMP.pdb
 OpenBabel07022418013D

 43 43  0  0  1  0  0  0  0  0999 V2000
    2.5930   -4.5810   -0.2680 C   0  0  0  0  0  0  0  0  0  0  0  0
    1.2970   -3.7640   -0.1380 C   0  0  2  0  0  0  0  0  0  0  0  0
    0.3140   -4.5490   -0.9200 N   0  0  0  0  0  0  0  0  0  0  0  0
    1.4560   -2.4260   -0.7350 C   0  0  0  0  0  0  0  0  0  0  0  0
    2.0170   -2.2440   -1.8470 O   0  0  0  0  0  0  0  0  0  0  0  0
    2.3930   -5.5340    0.2780 H   0  0  0  0  0  0  0  0  0  0  0  0
    2.7190   -4.7940   -1.3660 H   0  0  0  0  0  0  0  0  0  0  0  0
    3.4660   -4.0700    0.1160 H   0  0  0  0  0  0  0  0  0  0  0  0
    1.0550   -3.7040    0.9170 H   0  0  0  0  0  0  0  0  0  0  0  0
    0.1500   -4.1180   -1.8580 H   0  0  0  0  0  0  0  0  0  0  0  0
   -0.5860   -4.5330   -0.3920 H   0  0  0  0  0  0  0  0  0  0  0  0
   -2.2490   -1.5020    1.0510 C   0  0  0  0  0  0  0  0  0  0  0  0
   -1.8320   -1.6450   -0.6880 S   0  0  0  0  0  0  0  0  0  0  0  0
   -1.3600   -0.1260   -1.4800 C   0  0  0  0  0  0  0  0  0  0  0  0
    0.0510    0.0520   -1.8640 C   0  0  0  0  0  0  0  0  0  0  0  0
    1.0760    0.0280   -0.6810 C   0  0  2  0  0  0  0  0  0  0  0  0
    0.9500   -1.2300   -0.0620 N   0  0  0  0  0  0  0  0  0  0  0  0
    0.9840    1.2840    0.0050 C   0  0  0  0  0  0  0  0  0  0  0  0
    1.0760    2.3470   -0.7840 O   0  0  0  0  0  0  0  0  0  0  0  0
   -1.5020   -1.6850    1.7970 H   0  0  0  0  0  0  0  0  0  0  0  0
   -2.8490   -0.5370    1.2100 H   0  0  0  0  0  0  0  0  0  0  0  0
   -3.0860   -2.2800    1.2840 H   0  0  0  0  0  0  0  0  0  0  0  0
   -1.6210    0.7690   -0.7780 H   0  0  0  0  0  0  0  0  0  0  0  0
   -2.0210    0.0790   -2.3460 H   0  0  0  0  0  0  0  0  0  0  0  0
    0.3750   -0.8010   -2.5350 H   0  0  0  0  0  0  0  0  0  0  0  0
    0.2550    0.9920   -2.3810 H   0  0  0  0  0  0  0  0  0  0  0  0
    2.0370    0.0040   -1.2940 H   0  0  0  0  0  0  0  0  0  0  0  0
    0.5380   -1.4670    0.8630 H   0  0  0  0  0  0  0  0  0  0  0  0
    0.8090    1.6540    1.3370 N   0  0  0  0  0  0  0  0  0  0  0  0
    0.6610    3.0520    1.8090 C   0  0  0  0  0  0  0  0  0  0  0  0
    1.0930    3.1040    3.2240 C   0  0  0  0  0  0  0  0  0  0  0  0
    1.6030    1.7040    3.5140 C   0  0  0  0  0  0  0  0  0  0  0  0
    0.7470    0.8750    2.5290 C   0  0  1  0  0  0  0  0  0  0  0  0
   -0.6020    0.8260    3.1290 C   0  0  0  0  0  0  0  0  0  0  0  0
   -0.7970    0.1570    4.1700 O   0  0  0  0  0  0  0  0  0  0  0  0
   -1.6950    1.4790    2.6040 O   0  0  0  0  0  0  0  0  0  0  0  0
   -0.3840    3.4130    1.6570 H   0  0  0  0  0  0  0  0  0  0  0  0
    1.3180    3.7080    1.2130 H   0  0  0  0  0  0  0  0  0  0  0  0
    0.2720    3.3520    3.9360 H   0  0  0  0  0  0  0  0  0  0  0  0
    1.9330    3.8130    3.4220 H   0  0  0  0  0  0  0  0  0  0  0  0
    2.6560    1.5810    3.2300 H   0  0  0  0  0  0  0  0  0  0  0  0
    1.4520    1.3790    4.5480 H   0  0  0  0  0  0  0  0  0  0  0  0
    1.2780   -0.0910    2.4930 H   0  0  0  0  0  0  0  0  0  0  0  0
  1  2  1  0  0  0  0
  1  8  1  0  0  0  0
  1  6  1  0  0  0  0
  2  9  1  1  0  0  0
  3 11  1  0  0  0  0
  3  2  1  0  0  0  0
  4  2  1  0  0  0  0
  4 17  1  0  0  0  0
  5  4  2  0  0  0  0
  7  1  1  0  0  0  0
 10  3  1  0  0  0  0
 12 21  1  0  0  0  0
 12 22  1  0  0  0  0
 12 20  1  0  0  0  0
 13 12  1  0  0  0  0
 14 23  1  0  0  0  0
 14 13  1  0  0  0  0
 15 14  1  0  0  0  0
 15 16  1  0  0  0  0
 16 27  1  6  0  0  0
 16 17  1  0  0  0  0
 16 18  1  0  0  0  0
 17 28  1  0  0  0  0
 18 29  1  0  0  0  0
 19 18  2  0  0  0  0
 24 14  1  0  0  0  0
 25 15  1  0  0  0  0
 26 15  1  0  0  0  0
 29 30  1  0  0  0  0
 29 33  1  0  0  0  0
 30 31  1  0  0  0  0
 31 40  1  0  0  0  0
 31 32  1  0  0  0  0
 31 39  1  0  0  0  0
 32 42  1  0  0  0  0
 33 43  1  6  0  0  0
 33 34  1  0  0  0  0
 33 32  1  0  0  0  0
 34 35  1  0  0  0  0
 36 34  2  0  0  0  0
 37 30  1  0  0  0  0
 38 30  1  0  0  0  0
 41 32  1  0  0  0  0
M  END
$$$$
