AMQ.pdb
 OpenBabel07022418013D

 46 45  0  0  1  0  0  0  0  0999 V2000
    1.4620   -3.0940    1.6700 C   0  0  0  0  0  0  0  0  0  0  0  0
    2.7060   -2.7670    0.8680 C   0  0  2  0  0  0  0  0  0  0  0  0
    3.8520   -2.7660    1.7530 N   0  0  0  0  0  0  0  0  0  0  0  0
    2.6010   -1.4420    0.2330 C   0  0  0  0  0  0  0  0  0  0  0  0
    3.4590   -0.5660    0.4700 O   0  0  0  0  0  0  0  0  0  0  0  0
    1.6080   -4.0850    2.1300 H   0  0  0  0  0  0  0  0  0  0  0  0
    1.3740   -2.3200    2.4670 H   0  0  0  0  0  0  0  0  0  0  0  0
    0.5650   -3.0820    1.0190 H   0  0  0  0  0  0  0  0  0  0  0  0
    2.8370   -3.5350    0.0530 H   0  0  0  0  0  0  0  0  0  0  0  0
    4.6170   -2.2370    1.2780 H   0  0  0  0  0  0  0  0  0  0  0  0
    3.5740   -2.1600    2.5820 H   0  0  0  0  0  0  0  0  0  0  0  0
   -1.7200   -2.0630   -1.0420 C   0  0  0  0  0  0  0  0  0  0  0  0
   -1.1080   -1.8070   -2.7150 S   0  0  0  0  0  0  0  0  0  0  0  0
   -0.3990   -0.2250   -3.0480 C   0  0  0  0  0  0  0  0  0  0  0  0
    0.9420    0.1530   -2.6380 C   0  0  0  0  0  0  0  0  0  0  0  0
    1.4380    0.1280   -1.2580 C   0  0  2  0  0  0  0  0  0  0  0  0
    1.5050   -1.1440   -0.6710 N   0  0  0  0  0  0  0  0  0  0  0  0
    0.6350    1.0960   -0.4030 C   0  0  0  0  0  0  0  0  0  0  0  0
    0.4630    2.2320   -0.8830 O   0  0  0  0  0  0  0  0  0  0  0  0
   -1.2500   -3.0060   -0.6440 H   0  0  0  0  0  0  0  0  0  0  0  0
   -2.8280   -2.1690   -1.0210 H   0  0  0  0  0  0  0  0  0  0  0  0
   -1.3780   -1.2400   -0.3820 H   0  0  0  0  0  0  0  0  0  0  0  0
   -0.4250   -0.0810   -4.2010 H   0  0  0  0  0  0  0  0  0  0  0  0
   -1.1850    0.5450   -2.7190 H   0  0  0  0  0  0  0  0  0  0  0  0
    1.6590   -0.4690   -3.3080 H   0  0  0  0  0  0  0  0  0  0  0  0
    1.2170    1.2030   -3.0390 H   0  0  0  0  0  0  0  0  0  0  0  0
    2.4780    0.6270   -1.1820 H   0  0  0  0  0  0  0  0  0  0  0  0
    0.8710   -1.9130   -0.8270 H   0  0  0  0  0  0  0  0  0  0  0  0
   -1.9800   -1.5340    4.5250 N   0  0  0  0  0  0  0  0  0  0  0  0
   -1.8310   -0.2600    3.8890 C   0  0  0  0  0  0  0  0  0  0  0  0
   -1.2580    0.6130    4.5690 O   0  0  0  0  0  0  0  0  0  0  0  0
   -2.3220   -0.0100    2.5320 C   0  0  0  0  0  0  0  0  0  0  0  0
   -2.0550    1.2800    1.8890 C   0  0  0  0  0  0  0  0  0  0  0  0
   -0.6560    1.7100    1.6610 C   0  0  2  0  0  0  0  0  0  0  0  0
    0.1070    0.7620    0.8580 N   0  0  0  0  0  0  0  0  0  0  0  0
    0.0730    2.2530    2.8090 C   0  0  0  0  0  0  0  0  0  0  0  0
    1.2000    1.8910    3.2170 O   0  0  0  0  0  0  0  0  0  0  0  0
   -0.5490    3.2920    3.5290 O   0  0  0  0  0  0  0  0  0  0  0  0
   -2.2760   -2.3370    3.9180 H   0  0  0  0  0  0  0  0  0  0  0  0
   -1.8100   -1.6690    5.5250 H   0  0  0  0  0  0  0  0  0  0  0  0
   -2.1050   -0.8840    1.8490 H   0  0  0  0  0  0  0  0  0  0  0  0
   -3.4610   -0.0860    2.6240 H   0  0  0  0  0  0  0  0  0  0  0  0
   -2.6660    1.3090    0.9360 H   0  0  0  0  0  0  0  0  0  0  0  0
   -2.5410    2.0930    2.5060 H   0  0  0  0  0  0  0  0  0  0  0  0
   -0.7640    2.6330    0.9630 H   0  0  0  0  0  0  0  0  0  0  0  0
    0.2620   -0.2160    1.2530 H   0  0  0  0  0  0  0  0  0  0  0  0
  1  6  1  0  0  0  0
  1  7  1  0  0  0  0
  2  9  1  6  0  0  0
  2  1  1  0  0  0  0
  2  3  1  0  0  0  0
  3 11  1  0  0  0  0
  4  5  2  0  0  0  0
  4  2  1  0  0  0  0
  8  1  1  0  0  0  0
 10  3  1  0  0  0  0
 12 21  1  0  0  0  0
 12 20  1  0  0  0  0
 12 22  1  0  0  0  0
 13 12  1  0  0  0  0
 14 24  1  0  0  0  0
 14 13  1  0  0  0  0
 14 15  1  0  0  0  0
 15 16  1  0  0  0  0
 16 27  1  6  0  0  0
 16 17  1  0  0  0  0
 16 18  1  0  0  0  0
 17  4  1  0  0  0  0
 18 35  1  0  0  0  0
 19 18  2  0  0  0  0
 23 14  1  0  0  0  0
 25 15  1  0  0  0  0
 26 15  1  0  0  0  0
 28 17  1  0  0  0  0
 29 40  1  0  0  0  0
 30 29  1  0  0  0  0
 30 31  2  0  0  0  0
 32 42  1  0  0  0  0
 32 30  1  0  0  0  0
 33 44  1  0  0  0  0
 33 32  1  0  0  0  0
 34 45  1  6  0  0  0
 34 33  1  0  0  0  0
 34 36  1  0  0  0  0
 35 46  1  0  0  0  0
 35 34  1  0  0  0  0
 36 37  2  0  0  0  0
 36 38  1  0  0  0  0
 39 29  1  0  0  0  0
 41 32  1  0  0  0  0
 43 33  1  0  0  0  0
M  END
$$$$
