AMT.pdb
 OpenBabel07022418023D

 43 42  0  0  1  0  0  0  0  0999 V2000
    1.8250   -4.6910    0.6210 C   0  0  0  0  0  0  0  0  0  0  0  0
    1.4170   -4.4730   -0.8190 C   0  0  2  0  0  0  0  0  0  0  0  0
    2.4450   -4.9350   -1.7360 N   0  0  0  0  0  0  0  0  0  0  0  0
    1.1850   -3.0320   -1.1070 C   0  0  0  0  0  0  0  0  0  0  0  0
    1.8090   -2.4030   -1.9980 O   0  0  0  0  0  0  0  0  0  0  0  0
    1.4300   -5.6740    0.9450 H   0  0  0  0  0  0  0  0  0  0  0  0
    2.9360   -4.7450    0.6450 H   0  0  0  0  0  0  0  0  0  0  0  0
    1.4560   -3.8540    1.2170 H   0  0  0  0  0  0  0  0  0  0  0  0
    0.4470   -4.9970   -0.9780 H   0  0  0  0  0  0  0  0  0  0  0  0
    1.9610   -5.4600   -2.5050 H   0  0  0  0  0  0  0  0  0  0  0  0
    2.9900   -4.1310   -2.0880 H   0  0  0  0  0  0  0  0  0  0  0  0
   -1.8930   -0.8570    2.4970 C   0  0  0  0  0  0  0  0  0  0  0  0
   -2.9490   -0.2930    1.1730 S   0  0  0  0  0  0  0  0  0  0  0  0
   -2.6260   -1.0320   -0.4000 C   0  0  0  0  0  0  0  0  0  0  0  0
   -1.4050   -0.6420   -1.1090 C   0  0  0  0  0  0  0  0  0  0  0  0
   -0.0610   -0.8840   -0.5850 C   0  0  2  0  0  0  0  0  0  0  0  0
    0.2120   -2.2740   -0.3600 N   0  0  0  0  0  0  0  0  0  0  0  0
    0.4170   -0.0660    0.5420 C   0  0  0  0  0  0  0  0  0  0  0  0
    1.0850   -0.6100    1.4900 O   0  0  0  0  0  0  0  0  0  0  0  0
   -1.2790   -1.7410    2.2370 H   0  0  0  0  0  0  0  0  0  0  0  0
   -1.2300   -0.0390    2.8800 H   0  0  0  0  0  0  0  0  0  0  0  0
   -2.5140   -1.2110    3.3890 H   0  0  0  0  0  0  0  0  0  0  0  0
   -3.4930   -0.7160   -1.0870 H   0  0  0  0  0  0  0  0  0  0  0  0
   -2.7840   -2.1590   -0.3900 H   0  0  0  0  0  0  0  0  0  0  0  0
   -1.4470   -1.1750   -2.1260 H   0  0  0  0  0  0  0  0  0  0  0  0
   -1.5460    0.4730   -1.3760 H   0  0  0  0  0  0  0  0  0  0  0  0
    0.6400   -0.6040   -1.4780 H   0  0  0  0  0  0  0  0  0  0  0  0
   -0.3060   -2.7980    0.3760 H   0  0  0  0  0  0  0  0  0  0  0  0
    2.1510    3.8380    2.6190 C   0  0  0  0  0  0  0  0  0  0  0  0
    1.6890    3.1100    1.3730 C   0  0  1  0  0  0  0  0  0  0  0  0
    2.7800    2.5340    0.7170 O   0  0  0  0  0  0  0  0  0  0  0  0
    0.6830    2.0560    1.7900 C   0  0  2  0  0  0  0  0  0  0  0  0
    0.1830    1.3220    0.6560 N   0  0  0  0  0  0  0  0  0  0  0  0
   -0.3990    2.7160    2.5480 C   0  0  0  0  0  0  0  0  0  0  0  0
   -1.5760    2.6010    2.1460 O   0  0  0  0  0  0  0  0  0  0  0  0
   -0.1360    3.4470    3.6800 O   0  0  0  0  0  0  0  0  0  0  0  0
    3.2200    4.1800    2.4620 H   0  0  0  0  0  0  0  0  0  0  0  0
    1.5580    4.7530    2.7970 H   0  0  0  0  0  0  0  0  0  0  0  0
    2.1600    3.2020    3.5140 H   0  0  0  0  0  0  0  0  0  0  0  0
    1.1750    3.8270    0.7130 H   0  0  0  0  0  0  0  0  0  0  0  0
    3.1500    1.7890    1.2550 H   0  0  0  0  0  0  0  0  0  0  0  0
    1.2310    1.3930    2.5070 H   0  0  0  0  0  0  0  0  0  0  0  0
   -0.3510    1.8020   -0.0840 H   0  0  0  0  0  0  0  0  0  0  0  0
  1  7  1  0  0  0  0
  1  6  1  0  0  0  0
  1  8  1  0  0  0  0
  2  9  1  6  0  0  0
  2  1  1  0  0  0  0
  3  2  1  0  0  0  0
  4  2  1  0  0  0  0
  4 17  1  0  0  0  0
  5  4  2  0  0  0  0
 10  3  1  0  0  0  0
 11  3  1  0  0  0  0
 12 21  1  0  0  0  0
 12 22  1  0  0  0  0
 13 12  1  0  0  0  0
 14 24  1  0  0  0  0
 14 13  1  0  0  0  0
 15 16  1  0  0  0  0
 15 14  1  0  0  0  0
 16 27  1  6  0  0  0
 16 17  1  0  0  0  0
 16 18  1  0  0  0  0
 17 28  1  0  0  0  0
 18 33  1  0  0  0  0
 18 19  2  0  0  0  0
 20 12  1  0  0  0  0
 23 14  1  0  0  0  0
 25 15  1  0  0  0  0
 26 15  1  0  0  0  0
 29 38  1  0  0  0  0
 29 39  1  0  0  0  0
 30 40  1  6  0  0  0
 30 32  1  0  0  0  0
 30 29  1  0  0  0  0
 31 41  1  0  0  0  0
 31 30  1  0  0  0  0
 32 42  1  1  0  0  0
 32 34  1  0  0  0  0
 33 32  1  0  0  0  0
 34 36  1  0  0  0  0
 35 34  2  0  0  0  0
 37 29  1  0  0  0  0
 43 33  1  0  0  0  0
M  END
$$$$
