AMW.pdb
 OpenBabel07022418023D

 53 54  0  0  1  0  0  0  0  0999 V2000
   -1.8160   -4.5740    0.5840 C   0  0  0  0  0  0  0  0  0  0  0  0
   -3.2640   -4.2210    0.2160 C   0  0  2  0  0  0  0  0  0  0  0  0
   -3.7440   -5.2820   -0.6480 N   0  0  0  0  0  0  0  0  0  0  0  0
   -3.1910   -2.9490   -0.5480 C   0  0  0  0  0  0  0  0  0  0  0  0
   -3.5010   -2.9420   -1.7660 O   0  0  0  0  0  0  0  0  0  0  0  0
   -1.3890   -5.0010   -0.3590 H   0  0  0  0  0  0  0  0  0  0  0  0
   -1.7560   -5.2520    1.4380 H   0  0  0  0  0  0  0  0  0  0  0  0
   -1.2400   -3.6520    0.7970 H   0  0  0  0  0  0  0  0  0  0  0  0
   -3.8590   -4.1350    1.1430 H   0  0  0  0  0  0  0  0  0  0  0  0
   -3.1230   -6.1200   -0.6060 H   0  0  0  0  0  0  0  0  0  0  0  0
   -4.6950   -5.5850   -0.3480 H   0  0  0  0  0  0  0  0  0  0  0  0
   -6.3040    1.6670    1.5150 C   0  0  0  0  0  0  0  0  0  0  0  0
   -4.6130    2.3120    1.5860 S   0  0  0  0  0  0  0  0  0  0  0  0
   -3.4020    0.9910    1.2270 C   0  0  0  0  0  0  0  0  0  0  0  0
   -3.6190    0.5990   -0.2100 C   0  0  0  0  0  0  0  0  0  0  0  0
   -2.7060   -0.4850   -0.6880 C   0  0  2  0  0  0  0  0  0  0  0  0
   -2.7890   -1.7160    0.0030 N   0  0  0  0  0  0  0  0  0  0  0  0
   -1.3270    0.0830   -0.7110 C   0  0  0  0  0  0  0  0  0  0  0  0
   -1.1070    1.1890   -1.2870 O   0  0  0  0  0  0  0  0  0  0  0  0
   -7.0250    2.4870    1.3470 H   0  0  0  0  0  0  0  0  0  0  0  0
   -6.3950    1.0060    0.6080 H   0  0  0  0  0  0  0  0  0  0  0  0
   -6.4930    1.0960    2.4320 H   0  0  0  0  0  0  0  0  0  0  0  0
   -2.4000    1.4630    1.3410 H   0  0  0  0  0  0  0  0  0  0  0  0
   -3.4590    0.1630    1.9300 H   0  0  0  0  0  0  0  0  0  0  0  0
   -3.3480    1.5110   -0.8100 H   0  0  0  0  0  0  0  0  0  0  0  0
   -4.6880    0.4220   -0.4470 H   0  0  0  0  0  0  0  0  0  0  0  0
   -2.9870   -0.6700   -1.7580 H   0  0  0  0  0  0  0  0  0  0  0  0
   -2.5300   -1.7220    1.0200 H   0  0  0  0  0  0  0  0  0  0  0  0
   -0.2200   -0.5510   -0.1160 N   0  0  0  0  0  0  0  0  0  0  0  0
    1.1440    0.0130   -0.1380 C   0  0  1  0  0  0  0  0  0  0  0  0
    1.6030    0.3200    1.2370 C   0  0  0  0  0  0  0  0  0  0  0  0
    2.9710    0.8540    1.2590 C   0  0  0  0  0  0  0  0  0  0  0  0
    3.2730    2.2030    1.2100 C   0  0  0  0  0  0  0  0  0  0  0  0
    4.5980    2.3500    1.2100 N   0  0  0  0  0  0  0  0  0  0  0  0
    5.1620    1.1400    1.2580 C   0  0  0  0  0  0  0  0  0  0  0  0
    6.4790    0.7430    1.2950 C   0  0  0  0  0  0  0  0  0  0  0  0
    6.7900   -0.6000    1.3630 C   0  0  0  0  0  0  0  0  0  0  0  0
    5.8240   -1.5670    1.3970 C   0  0  0  0  0  0  0  0  0  0  0  0
    4.5020   -1.1780    1.3600 C   0  0  0  0  0  0  0  0  0  0  0  0
    4.1760    0.1630    1.2910 C   0  0  0  0  0  0  0  0  0  0  0  0
    1.9730   -0.8150   -0.9920 C   0  0  0  0  0  0  0  0  0  0  0  0
    1.5020   -1.9250   -1.4370 O   0  0  0  0  0  0  0  0  0  0  0  0
    3.2690   -0.5190   -1.4000 O   0  0  0  0  0  0  0  0  0  0  0  0
   -0.3740   -1.4620    0.3630 H   0  0  0  0  0  0  0  0  0  0  0  0
    1.0880    1.0270   -0.6660 H   0  0  0  0  0  0  0  0  0  0  0  0
    0.9390    1.0950    1.7280 H   0  0  0  0  0  0  0  0  0  0  0  0
    1.5580   -0.5840    1.9080 H   0  0  0  0  0  0  0  0  0  0  0  0
    2.5540    2.9960    1.1770 H   0  0  0  0  0  0  0  0  0  0  0  0
    5.0710    3.2820    1.1770 H   0  0  0  0  0  0  0  0  0  0  0  0
    7.2590    1.4860    1.2700 H   0  0  0  0  0  0  0  0  0  0  0  0
    7.8490   -0.8560    1.3890 H   0  0  0  0  0  0  0  0  0  0  0  0
    6.0930   -2.6260    1.4520 H   0  0  0  0  0  0  0  0  0  0  0  0
    3.6850   -1.8970    1.3840 H   0  0  0  0  0  0  0  0  0  0  0  0
  1  8  1  0  0  0  0
  1  7  1  0  0  0  0
  2  1  1  0  0  0  0
  2  9  1  1  0  0  0
  3 10  1  0  0  0  0
  3 11  1  0  0  0  0
  3  2  1  0  0  0  0
  4 17  1  0  0  0  0
  4  2  1  0  0  0  0
  5  4  2  0  0  0  0
  6  1  1  0  0  0  0
 12 13  1  0  0  0  0
 12 22  1  0  0  0  0
 14 23  1  0  0  0  0
 14 13  1  0  0  0  0
 14 24  1  0  0  0  0
 15 14  1  0  0  0  0
 16 27  1  6  0  0  0
 16 15  1  0  0  0  0
 16 17  1  0  0  0  0
 17 28  1  0  0  0  0
 18 16  1  0  0  0  0
 18 29  1  0  0  0  0
 19 18  2  0  0  0  0
 20 12  1  0  0  0  0
 21 12  1  0  0  0  0
 25 15  1  0  0  0  0
 26 15  1  0  0  0  0
 29 44  1  0  0  0  0
 30 45  1  6  0  0  0
 30 29  1  0  0  0  0
 30 31  1  0  0  0  0
 31 32  1  0  0  0  0
 31 46  1  0  0  0  0
 31 47  1  0  0  0  0
 32 40  1  0  0  0  0
 33 34  1  0  0  0  0
 33 32  2  0  0  0  0
 34 35  1  0  0  0  0
 35 40  2  0  0  0  0
 35 36  1  0  0  0  0
 36 37  2  0  0  0  0
 37 51  1  0  0  0  0
 37 38  1  0  0  0  0
 38 52  1  0  0  0  0
 39 53  1  0  0  0  0
 39 38  2  0  0  0  0
 40 39  1  0  0  0  0
 41 30  1  0  0  0  0
 42 41  2  0  0  0  0
 43 41  1  0  0  0  0
 48 33  1  0  0  0  0
 49 34  1  0  0  0  0
 50 36  1  0  0  0  0
M  END
$$$$
