AMY.pdb
 OpenBabel07022418023D

 50 50  0  0  1  0  0  0  0  0999 V2000
    3.1840   -0.4690    3.0550 C   0  0  0  0  0  0  0  0  0  0  0  0
    1.8210   -1.0710    2.8390 C   0  0  2  0  0  0  0  0  0  0  0  0
    1.6420   -2.2200    3.6600 N   0  0  0  0  0  0  0  0  0  0  0  0
    1.5880   -1.4350    1.4150 C   0  0  0  0  0  0  0  0  0  0  0  0
    1.2910   -2.6320    1.1860 O   0  0  0  0  0  0  0  0  0  0  0  0
    3.9900   -0.9940    2.5270 H   0  0  0  0  0  0  0  0  0  0  0  0
    3.1420    0.6080    2.8650 H   0  0  0  0  0  0  0  0  0  0  0  0
    3.4080   -0.5890    4.1560 H   0  0  0  0  0  0  0  0  0  0  0  0
    1.0710   -0.2780    3.1040 H   0  0  0  0  0  0  0  0  0  0  0  0
    1.2820   -3.0480    3.1730 H   0  0  0  0  0  0  0  0  0  0  0  0
    2.3640   -2.3820    4.3700 H   0  0  0  0  0  0  0  0  0  0  0  0
    4.7430    0.0700   -1.3950 C   0  0  0  0  0  0  0  0  0  0  0  0
    4.5590   -1.6080   -2.0250 S   0  0  0  0  0  0  0  0  0  0  0  0
    3.2860   -2.5350   -1.1880 C   0  0  0  0  0  0  0  0  0  0  0  0
    1.8830   -2.1280   -1.4380 C   0  0  0  0  0  0  0  0  0  0  0  0
    1.5090   -0.7250   -1.0430 C   0  0  2  0  0  0  0  0  0  0  0  0
    1.6830   -0.5340    0.3590 N   0  0  0  0  0  0  0  0  0  0  0  0
    0.1650   -0.4110   -1.5350 C   0  0  0  0  0  0  0  0  0  0  0  0
   -0.0680   -0.5530   -2.7640 O   0  0  0  0  0  0  0  0  0  0  0  0
    4.2350    0.2470   -0.4270 H   0  0  0  0  0  0  0  0  0  0  0  0
    5.8270    0.3180   -1.2140 H   0  0  0  0  0  0  0  0  0  0  0  0
    4.3570    0.7720   -2.1660 H   0  0  0  0  0  0  0  0  0  0  0  0
    3.3730   -3.6030   -1.5400 H   0  0  0  0  0  0  0  0  0  0  0  0
    3.5500   -2.5980   -0.1100 H   0  0  0  0  0  0  0  0  0  0  0  0
    1.1990   -2.9000   -1.0380 H   0  0  0  0  0  0  0  0  0  0  0  0
    1.7370   -2.2270   -2.5710 H   0  0  0  0  0  0  0  0  0  0  0  0
    2.2530   -0.1030   -1.6330 H   0  0  0  0  0  0  0  0  0  0  0  0
    1.9270    0.4730    0.6390 H   0  0  0  0  0  0  0  0  0  0  0  0
   -3.4190   -0.5920    5.0080 O   0  0  0  0  0  0  0  0  0  0  0  0
   -3.4060   -0.5660    3.6120 C   0  0  0  0  0  0  0  0  0  0  0  0
   -4.2010    0.3000    2.8820 C   0  0  0  0  0  0  0  0  0  0  0  0
   -4.1790    0.3170    1.4950 C   0  0  0  0  0  0  0  0  0  0  0  0
   -3.3580   -0.5360    0.7940 C   0  0  0  0  0  0  0  0  0  0  0  0
   -3.2680   -0.5890   -0.6800 C   0  0  0  0  0  0  0  0  0  0  0  0
   -2.2160    0.3480   -1.2260 C   0  0  2  0  0  0  0  0  0  0  0  0
   -0.9000    0.0440   -0.7240 N   0  0  0  0  0  0  0  0  0  0  0  0
   -2.5810    1.7610   -1.0600 C   0  0  0  0  0  0  0  0  0  0  0  0
   -1.7920    2.5560   -0.5340 O   0  0  0  0  0  0  0  0  0  0  0  0
   -2.5690   -1.3970    1.5310 C   0  0  0  0  0  0  0  0  0  0  0  0
   -2.5850   -1.4190    2.9100 C   0  0  0  0  0  0  0  0  0  0  0  0
   -3.8280    2.1730   -1.5070 O   0  0  0  0  0  0  0  0  0  0  0  0
   -2.6530   -0.1840    5.5520 H   0  0  0  0  0  0  0  0  0  0  0  0
   -4.8340    0.9570    3.4380 H   0  0  0  0  0  0  0  0  0  0  0  0
   -4.7980    0.9920    0.9320 H   0  0  0  0  0  0  0  0  0  0  0  0
   -2.9760   -1.6190   -0.9750 H   0  0  0  0  0  0  0  0  0  0  0  0
   -4.2160   -0.3590   -1.1890 H   0  0  0  0  0  0  0  0  0  0  0  0
   -2.1840    0.1520   -2.3370 H   0  0  0  0  0  0  0  0  0  0  0  0
   -0.7280    0.1690    0.3030 H   0  0  0  0  0  0  0  0  0  0  0  0
   -1.9060   -2.0870    1.0330 H   0  0  0  0  0  0  0  0  0  0  0  0
   -1.9580   -2.1030    3.4970 H   0  0  0  0  0  0  0  0  0  0  0  0
  1  8  1  0  0  0  0
  2  1  1  0  0  0  0
  2  9  1  1  0  0  0
  2  3  1  0  0  0  0
  3 11  1  0  0  0  0
  4  2  1  0  0  0  0
  5  4  2  0  0  0  0
  6  1  1  0  0  0  0
  7  1  1  0  0  0  0
 10  3  1  0  0  0  0
 12 21  1  0  0  0  0
 12 20  1  0  0  0  0
 13 12  1  0  0  0  0
 13 14  1  0  0  0  0
 14 24  1  0  0  0  0
 15 14  1  0  0  0  0
 15 16  1  0  0  0  0
 15 25  1  0  0  0  0
 16 27  1  6  0  0  0
 16 17  1  0  0  0  0
 17 28  1  0  0  0  0
 17  4  1  0  0  0  0
 18 16  1  0  0  0  0
 18 36  1  0  0  0  0
 19 18  2  0  0  0  0
 22 12  1  0  0  0  0
 23 14  1  0  0  0  0
 26 15  1  0  0  0  0
 29 42  1  0  0  0  0
 30 29  1  0  0  0  0
 31 43  1  0  0  0  0
 31 30  2  0  0  0  0
 32 31  1  0  0  0  0
 33 32  2  0  0  0  0
 33 39  1  0  0  0  0
 34 33  1  0  0  0  0
 35 47  1  6  0  0  0
 35 37  1  0  0  0  0
 35 36  1  0  0  0  0
 35 34  1  0  0  0  0
 36 48  1  0  0  0  0
 37 38  1  0  0  0  0
 39 40  2  0  0  0  0
 40 50  1  0  0  0  0
 40 30  1  0  0  0  0
 41 37  2  0  0  0  0
 44 32  1  0  0  0  0
 45 34  1  0  0  0  0
 46 34  1  0  0  0  0
 49 39  1  0  0  0  0
M  END
$$$$
