ANC.pdb
 OpenBabel07022417593D

 37 36  0  0  1  0  0  0  0  0999 V2000
   -2.2650   -4.9870    1.0810 C   0  0  0  0  0  0  0  0  0  0  0  0
   -2.6160   -3.5560    0.7290 C   0  0  2  0  0  0  0  0  0  0  0  0
   -2.5810   -3.4570   -0.7290 N   0  0  0  0  0  0  0  0  0  0  0  0
   -1.5720   -2.6930    1.3390 C   0  0  0  0  0  0  0  0  0  0  0  0
   -1.4760   -2.6710    2.5840 O   0  0  0  0  0  0  0  0  0  0  0  0
   -2.6180   -5.7040    0.3200 H   0  0  0  0  0  0  0  0  0  0  0  0
   -1.1890   -5.0970    1.3110 H   0  0  0  0  0  0  0  0  0  0  0  0
   -2.8100   -5.2650    2.0260 H   0  0  0  0  0  0  0  0  0  0  0  0
   -3.6280   -3.3200    1.1170 H   0  0  0  0  0  0  0  0  0  0  0  0
   -1.5870   -3.7240   -0.9960 H   0  0  0  0  0  0  0  0  0  0  0  0
   -3.1660   -4.2680   -1.0830 H   0  0  0  0  0  0  0  0  0  0  0  0
    3.1600   -2.0100   -1.1750 N   0  0  0  0  0  0  0  0  0  0  0  0
    1.9040   -1.5400   -0.7060 C   0  0  0  0  0  0  0  0  0  0  0  0
    1.0940   -1.1590   -1.5730 O   0  0  0  0  0  0  0  0  0  0  0  0
    1.6850   -1.5500    0.7510 C   0  0  0  0  0  0  0  0  0  0  0  0
    0.3350   -1.0530    1.1720 C   0  0  2  0  0  0  0  0  0  0  0  0
   -0.6720   -1.8860    0.5880 N   0  0  0  0  0  0  0  0  0  0  0  0
    0.1390    0.3870    0.8510 C   0  0  0  0  0  0  0  0  0  0  0  0
   -0.8400    0.6900    0.1380 O   0  0  0  0  0  0  0  0  0  0  0  0
    3.3500   -3.0290   -1.1010 H   0  0  0  0  0  0  0  0  0  0  0  0
    3.8490   -1.3500   -1.5720 H   0  0  0  0  0  0  0  0  0  0  0  0
    2.5170   -1.0500    1.2920 H   0  0  0  0  0  0  0  0  0  0  0  0
    1.7380   -2.6260    1.0840 H   0  0  0  0  0  0  0  0  0  0  0  0
    0.3240   -1.1060    2.3000 H   0  0  0  0  0  0  0  0  0  0  0  0
   -0.7830   -1.9300   -0.4460 H   0  0  0  0  0  0  0  0  0  0  0  0
    0.9920    1.4090    1.3050 N   0  0  0  0  0  0  0  0  0  0  0  0
    0.8200    2.8170    1.0040 C   0  0  1  0  0  0  0  0  0  0  0  0
    0.5030    3.6280    2.2380 C   0  0  0  0  0  0  0  0  0  0  0  0
    0.3170    5.3570    1.7050 S   0  0  0  0  0  0  0  0  0  0  0  0
    2.0010    3.3850    0.3620 C   0  0  0  0  0  0  0  0  0  0  0  0
    3.0000    2.6660    0.1370 O   0  0  0  0  0  0  0  0  0  0  0  0
    2.0210    4.7170    0.0020 O   0  0  0  0  0  0  0  0  0  0  0  0
    1.8090    1.1300    1.9030 H   0  0  0  0  0  0  0  0  0  0  0  0
   -0.1050    2.8720    0.3590 H   0  0  0  0  0  0  0  0  0  0  0  0
    1.3880    3.5910    2.9060 H   0  0  0  0  0  0  0  0  0  0  0  0
   -0.3940    3.2640    2.7650 H   0  0  0  0  0  0  0  0  0  0  0  0
    0.1930    6.2180    2.8310 H   0  0  0  0  0  0  0  0  0  0  0  0
  1  7  1  0  0  0  0
  1  8  1  0  0  0  0
  2  1  1  0  0  0  0
  2  9  1  1  0  0  0
  2  4  1  0  0  0  0
  3  2  1  0  0  0  0
  4  5  2  0  0  0  0
  6  1  1  0  0  0  0
 10  3  1  0  0  0  0
 11  3  1  0  0  0  0
 12 20  1  0  0  0  0
 12 13  1  0  0  0  0
 13 15  1  0  0  0  0
 14 13  2  0  0  0  0
 15 23  1  0  0  0  0
 15 16  1  0  0  0  0
 15 22  1  0  0  0  0
 16 24  1  1  0  0  0
 17 16  1  0  0  0  0
 17  4  1  0  0  0  0
 18 16  1  0  0  0  0
 18 26  1  0  0  0  0
 19 18  2  0  0  0  0
 21 12  1  0  0  0  0
 25 17  1  0  0  0  0
 26 33  1  0  0  0  0
 27 34  1  6  0  0  0
 27 26  1  0  0  0  0
 27 28  1  0  0  0  0
 28 36  1  0  0  0  0
 28 35  1  0  0  0  0
 29 28  1  0  0  0  0
 29 37  1  0  0  0  0
 30 27  1  0  0  0  0
 31 30  1  0  0  0  0
 32 30  2  0  0  0  0
M  END
$$$$
