ANK.pdb
 OpenBabel07022417593D

 47 46  0  0  1  0  0  0  0  0999 V2000
    1.7320   -3.4730    1.5990 C   0  0  0  0  0  0  0  0  0  0  0  0
    2.5510   -3.3670    0.3410 C   0  0  2  0  0  0  0  0  0  0  0  0
    3.8540   -3.9350    0.5760 N   0  0  0  0  0  0  0  0  0  0  0  0
    2.6840   -1.9640   -0.1250 C   0  0  0  0  0  0  0  0  0  0  0  0
    3.8550   -1.4730   -0.2570 O   0  0  0  0  0  0  0  0  0  0  0  0
    2.0980   -4.3450    2.1750 H   0  0  0  0  0  0  0  0  0  0  0  0
    1.7990   -2.5580    2.2360 H   0  0  0  0  0  0  0  0  0  0  0  0
    0.6550   -3.6570    1.3890 H   0  0  0  0  0  0  0  0  0  0  0  0
    2.0480   -3.9880   -0.4300 H   0  0  0  0  0  0  0  0  0  0  0  0
    3.8330   -4.9720    0.3470 H   0  0  0  0  0  0  0  0  0  0  0  0
    4.0700   -3.8980    1.6060 H   0  0  0  0  0  0  0  0  0  0  0  0
   -0.7080   -1.1650   -3.1900 N   0  0  0  0  0  0  0  0  0  0  0  0
   -0.3500   -0.0100   -2.4610 C   0  0  0  0  0  0  0  0  0  0  0  0
   -1.2720    0.7010   -2.0020 O   0  0  0  0  0  0  0  0  0  0  0  0
    1.0380    0.3530   -2.2450 C   0  0  0  0  0  0  0  0  0  0  0  0
    1.5770    0.1540   -0.8630 C   0  0  2  0  0  0  0  0  0  0  0  0
    1.5220   -1.2100   -0.4090 N   0  0  0  0  0  0  0  0  0  0  0  0
    1.0040    1.0990    0.1340 C   0  0  0  0  0  0  0  0  0  0  0  0
    0.9390    2.3200   -0.1530 O   0  0  0  0  0  0  0  0  0  0  0  0
   -1.2980   -1.8870   -2.7640 H   0  0  0  0  0  0  0  0  0  0  0  0
   -0.3900   -1.3280   -4.1810 H   0  0  0  0  0  0  0  0  0  0  0  0
    1.6790   -0.2900   -2.9170 H   0  0  0  0  0  0  0  0  0  0  0  0
    1.2890    1.3940   -2.5470 H   0  0  0  0  0  0  0  0  0  0  0  0
    2.6780    0.4130   -0.9350 H   0  0  0  0  0  0  0  0  0  0  0  0
    0.5990   -1.6600   -0.2850 H   0  0  0  0  0  0  0  0  0  0  0  0
    0.5380    0.6220    1.3950 N   0  0  0  0  0  0  0  0  0  0  0  0
   -0.0100    1.5420    2.3310 C   0  0  1  0  0  0  0  0  0  0  0  0
   -1.2470    1.1690    3.0330 C   0  0  0  0  0  0  0  0  0  0  0  0
   -2.4700    0.8890    2.2650 C   0  0  0  0  0  0  0  0  0  0  0  0
   -2.3330   -0.2660    1.3120 C   0  0  0  0  0  0  0  0  0  0  0  0
   -3.6970   -0.4080    0.6210 C   0  0  0  0  0  0  0  0  0  0  0  0
   -4.6550   -0.6620    1.6620 N   0  0  0  0  0  0  0  0  0  0  0  0
    1.0300    1.8020    3.3610 C   0  0  0  0  0  0  0  0  0  0  0  0
    0.7670    2.5810    4.2900 O   0  0  0  0  0  0  0  0  0  0  0  0
    2.2490    1.1930    3.2830 O   0  0  0  0  0  0  0  0  0  0  0  0
    0.6320   -0.4030    1.5580 H   0  0  0  0  0  0  0  0  0  0  0  0
   -0.1380    2.5390    1.8120 H   0  0  0  0  0  0  0  0  0  0  0  0
   -1.4810    2.0100    3.7550 H   0  0  0  0  0  0  0  0  0  0  0  0
   -1.0670    0.2930    3.7190 H   0  0  0  0  0  0  0  0  0  0  0  0
   -2.9320    1.7790    1.7830 H   0  0  0  0  0  0  0  0  0  0  0  0
   -3.2580    0.5580    3.0090 H   0  0  0  0  0  0  0  0  0  0  0  0
   -1.5370   -0.1410    0.5860 H   0  0  0  0  0  0  0  0  0  0  0  0
   -2.1960   -1.2220    1.8870 H   0  0  0  0  0  0  0  0  0  0  0  0
   -3.8790    0.5390    0.0980 H   0  0  0  0  0  0  0  0  0  0  0  0
   -3.6760   -1.2960   -0.0390 H   0  0  0  0  0  0  0  0  0  0  0  0
   -5.4120   -1.2590    1.2800 H   0  0  0  0  0  0  0  0  0  0  0  0
   -5.0460    0.2230    2.0600 H   0  0  0  0  0  0  0  0  0  0  0  0
  1  6  1  0  0  0  0
  1  7  1  0  0  0  0
  2  9  1  6  0  0  0
  2  3  1  0  0  0  0
  2  1  1  0  0  0  0
  3 11  1  0  0  0  0
  4  2  1  0  0  0  0
  5  4  2  0  0  0  0
  8  1  1  0  0  0  0
 10  3  1  0  0  0  0
 12 20  1  0  0  0  0
 12 13  1  0  0  0  0
 13 15  1  0  0  0  0
 13 14  2  0  0  0  0
 15 16  1  0  0  0  0
 16 24  1  6  0  0  0
 16 17  1  0  0  0  0
 16 18  1  0  0  0  0
 17 25  1  0  0  0  0
 17  4  1  0  0  0  0
 18 26  1  0  0  0  0
 19 18  2  0  0  0  0
 21 12  1  0  0  0  0
 22 15  1  0  0  0  0
 23 15  1  0  0  0  0
 26 36  1  0  0  0  0
 26 27  1  0  0  0  0
 27 37  1  6  0  0  0
 27 28  1  0  0  0  0
 27 33  1  0  0  0  0
 28 39  1  0  0  0  0
 28 38  1  0  0  0  0
 29 41  1  0  0  0  0
 29 28  1  0  0  0  0
 30 43  1  0  0  0  0
 30 29  1  0  0  0  0
 31 30  1  0  0  0  0
 31 32  1  0  0  0  0
 32 47  1  0  0  0  0
 33 34  1  0  0  0  0
 35 33  2  0  0  0  0
 40 29  1  0  0  0  0
 42 30  1  0  0  0  0
 44 31  1  0  0  0  0
 45 31  1  0  0  0  0
 46 32  1  0  0  0  0
M  END
$$$$
