ANM.pdb
 OpenBabel07022417593D

 43 42  0  0  1  0  0  0  0  0999 V2000
    3.6280   -1.8830   -2.5990 C   0  0  0  0  0  0  0  0  0  0  0  0
    2.9890   -0.8740   -1.6680 C   0  0  2  0  0  0  0  0  0  0  0  0
    3.2890   -1.2490   -0.3260 N   0  0  0  0  0  0  0  0  0  0  0  0
    1.5350   -0.8390   -1.9490 C   0  0  0  0  0  0  0  0  0  0  0  0
    1.0400   -0.5460   -3.0460 O   0  0  0  0  0  0  0  0  0  0  0  0
    4.2780   -1.3060   -3.3140 H   0  0  0  0  0  0  0  0  0  0  0  0
    4.2580   -2.6180   -2.0730 H   0  0  0  0  0  0  0  0  0  0  0  0
    2.8610   -2.4130   -3.1960 H   0  0  0  0  0  0  0  0  0  0  0  0
    3.3770    0.1490   -1.8380 H   0  0  0  0  0  0  0  0  0  0  0  0
    3.1560   -2.2610   -0.1240 H   0  0  0  0  0  0  0  0  0  0  0  0
    2.9190   -0.6140    0.4010 H   0  0  0  0  0  0  0  0  0  0  0  0
   -1.9980   -3.8560    1.2910 N   0  0  0  0  0  0  0  0  0  0  0  0
   -1.3370   -2.7020    0.7830 C   0  0  0  0  0  0  0  0  0  0  0  0
   -0.6300   -2.0120    1.5570 O   0  0  0  0  0  0  0  0  0  0  0  0
   -1.5160   -2.3640   -0.6530 C   0  0  0  0  0  0  0  0  0  0  0  0
   -0.7800   -1.1600   -1.0490 C   0  0  2  0  0  0  0  0  0  0  0  0
    0.6260   -1.1600   -0.8970 N   0  0  0  0  0  0  0  0  0  0  0  0
   -1.3120   -0.0240   -0.2140 C   0  0  0  0  0  0  0  0  0  0  0  0
   -2.5350    0.2380   -0.1460 O   0  0  0  0  0  0  0  0  0  0  0  0
   -3.0310   -3.8960    1.4380 H   0  0  0  0  0  0  0  0  0  0  0  0
   -1.4730   -4.7240    1.5410 H   0  0  0  0  0  0  0  0  0  0  0  0
   -1.3130   -3.2830   -1.2240 H   0  0  0  0  0  0  0  0  0  0  0  0
   -2.6160   -2.1560   -0.8120 H   0  0  0  0  0  0  0  0  0  0  0  0
   -1.0540   -0.8830   -2.1040 H   0  0  0  0  0  0  0  0  0  0  0  0
    1.0300   -1.4090    0.0350 H   0  0  0  0  0  0  0  0  0  0  0  0
    0.2070   -0.8700    5.1700 C   0  0  0  0  0  0  0  0  0  0  0  0
    1.0770    0.6870    4.7930 S   0  0  0  0  0  0  0  0  0  0  0  0
    0.8340    1.1590    3.0490 C   0  0  0  0  0  0  0  0  0  0  0  0
   -0.6320    1.5020    2.8020 C   0  0  0  0  0  0  0  0  0  0  0  0
   -0.8610    1.9030    1.3530 C   0  0  2  0  0  0  0  0  0  0  0  0
   -0.4900    0.8230    0.5450 N   0  0  0  0  0  0  0  0  0  0  0  0
   -0.3180    3.2180    1.1870 C   0  0  0  0  0  0  0  0  0  0  0  0
   -0.7670    4.0760    2.0080 O   0  0  0  0  0  0  0  0  0  0  0  0
    0.5900    3.7220    0.3130 O   0  0  0  0  0  0  0  0  0  0  0  0
    0.9280   -1.6870    5.2720 H   0  0  0  0  0  0  0  0  0  0  0  0
   -0.5200   -1.0280    4.3560 H   0  0  0  0  0  0  0  0  0  0  0  0
   -0.3210   -0.7690    6.1560 H   0  0  0  0  0  0  0  0  0  0  0  0
    1.4890    2.0120    2.8550 H   0  0  0  0  0  0  0  0  0  0  0  0
    1.1710    0.3090    2.4130 H   0  0  0  0  0  0  0  0  0  0  0  0
   -0.8790    2.3270    3.5000 H   0  0  0  0  0  0  0  0  0  0  0  0
   -1.2110    0.6190    3.0920 H   0  0  0  0  0  0  0  0  0  0  0  0
   -1.9890    1.9980    1.2740 H   0  0  0  0  0  0  0  0  0  0  0  0
    0.5490    0.6270    0.5060 H   0  0  0  0  0  0  0  0  0  0  0  0
  1  7  1  0  0  0  0
  1  2  1  0  0  0  0
  2  9  1  6  0  0  0
  2  3  1  0  0  0  0
  3 10  1  0  0  0  0
  3 11  1  0  0  0  0
  4  2  1  0  0  0  0
  4 17  1  0  0  0  0
  5  4  2  0  0  0  0
  6  1  1  0  0  0  0
  8  1  1  0  0  0  0
 12 20  1  0  0  0  0
 12 21  1  0  0  0  0
 13 12  1  0  0  0  0
 13 14  2  0  0  0  0
 15 13  1  0  0  0  0
 16 24  1  6  0  0  0
 16 17  1  0  0  0  0
 16 15  1  0  0  0  0
 16 18  1  0  0  0  0
 17 25  1  0  0  0  0
 18 19  2  0  0  0  0
 18 31  1  0  0  0  0
 22 15  1  0  0  0  0
 23 15  1  0  0  0  0
 26 35  1  0  0  0  0
 26 37  1  0  0  0  0
 27 26  1  0  0  0  0
 28 27  1  0  0  0  0
 29 28  1  0  0  0  0
 29 41  1  0  0  0  0
 29 40  1  0  0  0  0
 30 42  1  6  0  0  0
 30 29  1  0  0  0  0
 31 30  1  0  0  0  0
 32 30  1  0  0  0  0
 32 33  1  0  0  0  0
 34 32  2  0  0  0  0
 36 26  1  0  0  0  0
 38 28  1  0  0  0  0
 39 28  1  0  0  0  0
 43 31  1  0  0  0  0
M  END
$$$$
