ANQ.pdb
 OpenBabel07022417593D

 43 42  0  0  1  0  0  0  0  0999 V2000
   -1.6800   -4.9880   -1.1180 C   0  0  0  0  0  0  0  0  0  0  0  0
   -1.4670   -3.8960   -0.0930 C   0  0  2  0  0  0  0  0  0  0  0  0
   -2.3230   -2.8010   -0.4440 N   0  0  0  0  0  0  0  0  0  0  0  0
   -0.0410   -3.5020    0.0080 C   0  0  0  0  0  0  0  0  0  0  0  0
    0.7880   -4.4110    0.3230 O   0  0  0  0  0  0  0  0  0  0  0  0
   -0.8250   -5.6820   -1.1620 H   0  0  0  0  0  0  0  0  0  0  0  0
   -2.5720   -5.5670   -0.8020 H   0  0  0  0  0  0  0  0  0  0  0  0
   -1.9360   -4.5660   -2.1210 H   0  0  0  0  0  0  0  0  0  0  0  0
   -1.7990   -4.2980    0.8880 H   0  0  0  0  0  0  0  0  0  0  0  0
   -2.7300   -2.3040    0.3760 H   0  0  0  0  0  0  0  0  0  0  0  0
   -3.0290   -3.0330   -1.1710 H   0  0  0  0  0  0  0  0  0  0  0  0
    0.9560   -2.2750   -3.4560 N   0  0  0  0  0  0  0  0  0  0  0  0
    2.0510   -2.2480   -2.5640 C   0  0  0  0  0  0  0  0  0  0  0  0
    2.9800   -3.0990   -2.5950 O   0  0  0  0  0  0  0  0  0  0  0  0
    2.1810   -1.1900   -1.5080 C   0  0  0  0  0  0  0  0  0  0  0  0
    1.7330   -1.7500   -0.1480 C   0  0  2  0  0  0  0  0  0  0  0  0
    0.3720   -2.1660   -0.2370 N   0  0  0  0  0  0  0  0  0  0  0  0
    1.9530   -0.6530    0.8210 C   0  0  0  0  0  0  0  0  0  0  0  0
    3.1360   -0.2310    0.9650 O   0  0  0  0  0  0  0  0  0  0  0  0
    0.4300   -1.4300   -3.7590 H   0  0  0  0  0  0  0  0  0  0  0  0
    0.6460   -3.1910   -3.8410 H   0  0  0  0  0  0  0  0  0  0  0  0
    3.2400   -0.8460   -1.4250 H   0  0  0  0  0  0  0  0  0  0  0  0
    1.5690   -0.3320   -1.7920 H   0  0  0  0  0  0  0  0  0  0  0  0
    2.3970   -2.5930    0.1450 H   0  0  0  0  0  0  0  0  0  0  0  0
   -0.3590   -1.4730   -0.4910 H   0  0  0  0  0  0  0  0  0  0  0  0
    0.0170    5.8920    3.1050 N   0  0  0  0  0  0  0  0  0  0  0  0
    0.0010    4.6440    2.4390 C   0  0  0  0  0  0  0  0  0  0  0  0
   -0.5980    4.5230    1.3510 O   0  0  0  0  0  0  0  0  0  0  0  0
    0.6920    3.4720    3.0250 C   0  0  0  0  0  0  0  0  0  0  0  0
    0.5100    2.2950    2.1130 C   0  0  0  0  0  0  0  0  0  0  0  0
    1.1680    1.0340    2.5430 C   0  0  2  0  0  0  0  0  0  0  0  0
    0.9330   -0.0490    1.5910 N   0  0  0  0  0  0  0  0  0  0  0  0
    0.8180    0.6390    3.9090 C   0  0  0  0  0  0  0  0  0  0  0  0
    0.3270   -0.5050    4.0960 O   0  0  0  0  0  0  0  0  0  0  0  0
    0.9900    1.4340    5.0200 O   0  0  0  0  0  0  0  0  0  0  0  0
    0.8060    6.5700    3.0760 H   0  0  0  0  0  0  0  0  0  0  0  0
   -0.8240    6.1500    3.6650 H   0  0  0  0  0  0  0  0  0  0  0  0
    0.1520    3.2750    4.0020 H   0  0  0  0  0  0  0  0  0  0  0  0
    1.7580    3.6770    3.2370 H   0  0  0  0  0  0  0  0  0  0  0  0
    0.8420    2.5340    1.0800 H   0  0  0  0  0  0  0  0  0  0  0  0
   -0.6020    2.1180    2.0000 H   0  0  0  0  0  0  0  0  0  0  0  0
    2.2810    1.2230    2.4940 H   0  0  0  0  0  0  0  0  0  0  0  0
   -0.0400   -0.4200    1.4500 H   0  0  0  0  0  0  0  0  0  0  0  0
  1  7  1  0  0  0  0
  1  2  1  0  0  0  0
  2  4  1  0  0  0  0
  2  9  1  1  0  0  0
  3  2  1  0  0  0  0
  3 10  1  0  0  0  0
  4  5  2  0  0  0  0
  6  1  1  0  0  0  0
  8  1  1  0  0  0  0
 11  3  1  0  0  0  0
 12 13  1  0  0  0  0
 13 15  1  0  0  0  0
 14 13  2  0  0  0  0
 15 22  1  0  0  0  0
 15 16  1  0  0  0  0
 16 24  1  1  0  0  0
 16 18  1  0  0  0  0
 17 16  1  0  0  0  0
 17  4  1  0  0  0  0
 18 19  2  0  0  0  0
 18 32  1  0  0  0  0
 20 12  1  0  0  0  0
 21 12  1  0  0  0  0
 23 15  1  0  0  0  0
 25 17  1  0  0  0  0
 26 37  1  0  0  0  0
 27 29  1  0  0  0  0
 27 26  1  0  0  0  0
 28 27  2  0  0  0  0
 29 39  1  0  0  0  0
 29 38  1  0  0  0  0
 30 31  1  0  0  0  0
 30 29  1  0  0  0  0
 31 42  1  6  0  0  0
 31 33  1  0  0  0  0
 32 31  1  0  0  0  0
 33 34  2  0  0  0  0
 33 35  1  0  0  0  0
 36 26  1  0  0  0  0
 40 30  1  0  0  0  0
 41 30  1  0  0  0  0
 43 32  1  0  0  0  0
M  END
$$$$
