ANS.pdb
 OpenBabel07022417593D

 37 36  0  0  1  0  0  0  0  0999 V2000
   -2.0610   -2.9740    0.0410 C   0  0  0  0  0  0  0  0  0  0  0  0
   -0.9670   -3.6990    0.8050 C   0  0  2  0  0  0  0  0  0  0  0  0
   -1.5870   -4.6600    1.6540 N   0  0  0  0  0  0  0  0  0  0  0  0
   -0.1690   -2.7580    1.6220 C   0  0  0  0  0  0  0  0  0  0  0  0
   -0.1280   -2.8950    2.8600 O   0  0  0  0  0  0  0  0  0  0  0  0
   -3.0840   -3.3060    0.3740 H   0  0  0  0  0  0  0  0  0  0  0  0
   -2.0280   -3.1770   -1.0440 H   0  0  0  0  0  0  0  0  0  0  0  0
   -2.0390   -1.8840    0.1920 H   0  0  0  0  0  0  0  0  0  0  0  0
   -0.3540   -4.2240    0.0440 H   0  0  0  0  0  0  0  0  0  0  0  0
   -1.9830   -4.3050    2.5270 H   0  0  0  0  0  0  0  0  0  0  0  0
   -1.0650   -5.5560    1.7450 H   0  0  0  0  0  0  0  0  0  0  0  0
    4.5010   -0.4760   -0.2900 N   0  0  0  0  0  0  0  0  0  0  0  0
    3.1720   -0.4780    0.1950 C   0  0  0  0  0  0  0  0  0  0  0  0
    2.2450   -0.1770   -0.5910 O   0  0  0  0  0  0  0  0  0  0  0  0
    2.8330   -0.8210    1.5940 C   0  0  0  0  0  0  0  0  0  0  0  0
    1.3480   -0.7660    1.8640 C   0  0  2  0  0  0  0  0  0  0  0  0
    0.5800   -1.6690    1.0560 N   0  0  0  0  0  0  0  0  0  0  0  0
    0.9130    0.6570    1.6730 C   0  0  0  0  0  0  0  0  0  0  0  0
    1.4890    1.5750    2.3120 O   0  0  0  0  0  0  0  0  0  0  0  0
    4.7530   -0.7820   -1.2640 H   0  0  0  0  0  0  0  0  0  0  0  0
    5.2550   -0.1510    0.3680 H   0  0  0  0  0  0  0  0  0  0  0  0
    3.3690   -0.1570    2.3130 H   0  0  0  0  0  0  0  0  0  0  0  0
    3.2470   -1.8480    1.8210 H   0  0  0  0  0  0  0  0  0  0  0  0
    1.2330   -1.0750    2.9440 H   0  0  0  0  0  0  0  0  0  0  0  0
    0.5140   -1.5950    0.0220 H   0  0  0  0  0  0  0  0  0  0  0  0
    0.9510    2.7000   -1.1640 O   0  0  0  0  0  0  0  0  0  0  0  0
   -0.4190    2.8290   -0.8440 C   0  0  0  0  0  0  0  0  0  0  0  0
   -0.5600    2.4050    0.6010 C   0  0  2  0  0  0  0  0  0  0  0  0
   -0.1280    1.0300    0.7960 N   0  0  0  0  0  0  0  0  0  0  0  0
   -1.9950    2.4830    0.9740 C   0  0  0  0  0  0  0  0  0  0  0  0
   -2.5840    3.5800    0.8850 O   0  0  0  0  0  0  0  0  0  0  0  0
   -2.6970    1.3840    1.4150 O   0  0  0  0  0  0  0  0  0  0  0  0
    0.9960    2.0460   -1.8970 H   0  0  0  0  0  0  0  0  0  0  0  0
   -1.0590    2.2620   -1.5310 H   0  0  0  0  0  0  0  0  0  0  0  0
   -0.6920    3.9020   -0.9020 H   0  0  0  0  0  0  0  0  0  0  0  0
    0.0100    3.1160    1.2080 H   0  0  0  0  0  0  0  0  0  0  0  0
   -0.6150    0.2830    0.2600 H   0  0  0  0  0  0  0  0  0  0  0  0
  1  8  1  0  0  0  0
  1  6  1  0  0  0  0
  1  2  1  0  0  0  0
  2  9  1  6  0  0  0
  2  4  1  0  0  0  0
  2  3  1  0  0  0  0
  3 11  1  0  0  0  0
  3 10  1  0  0  0  0
  4  5  2  0  0  0  0
  7  1  1  0  0  0  0
 12 13  1  0  0  0  0
 12 21  1  0  0  0  0
 13 15  1  0  0  0  0
 14 13  2  0  0  0  0
 15 23  1  0  0  0  0
 15 16  1  0  0  0  0
 15 22  1  0  0  0  0
 16 24  1  1  0  0  0
 17  4  1  0  0  0  0
 17 16  1  0  0  0  0
 18 16  1  0  0  0  0
 18 19  2  0  0  0  0
 20 12  1  0  0  0  0
 25 17  1  0  0  0  0
 26 27  1  0  0  0  0
 27 28  1  0  0  0  0
 28 29  1  0  0  0  0
 28 30  1  0  0  0  0
 28 36  1  1  0  0  0
 29 18  1  0  0  0  0
 30 32  1  0  0  0  0
 31 30  2  0  0  0  0
 33 26  1  0  0  0  0
 34 27  1  0  0  0  0
 35 27  1  0  0  0  0
 37 29  1  0  0  0  0
M  END
$$$$
