ANV.pdb
 OpenBabel07022417593D

 42 41  0  0  1  0  0  0  0  0999 V2000
    1.8300   -5.5010   -1.4850 C   0  0  0  0  0  0  0  0  0  0  0  0
    2.1030   -4.5330   -0.3480 C   0  0  2  0  0  0  0  0  0  0  0  0
    1.4180   -5.0390    0.8150 N   0  0  0  0  0  0  0  0  0  0  0  0
    1.6600   -3.1550   -0.6970 C   0  0  0  0  0  0  0  0  0  0  0  0
    2.1390   -2.5280   -1.6760 O   0  0  0  0  0  0  0  0  0  0  0  0
    2.7810   -5.7870   -1.9960 H   0  0  0  0  0  0  0  0  0  0  0  0
    1.3870   -6.4500   -1.1170 H   0  0  0  0  0  0  0  0  0  0  0  0
    1.1120   -5.0910   -2.2200 H   0  0  0  0  0  0  0  0  0  0  0  0
    3.1850   -4.4930   -0.1050 H   0  0  0  0  0  0  0  0  0  0  0  0
    1.5610   -4.4740    1.6590 H   0  0  0  0  0  0  0  0  0  0  0  0
    0.4310   -5.3160    0.6360 H   0  0  0  0  0  0  0  0  0  0  0  0
   -2.8950   -1.0220    1.4490 N   0  0  0  0  0  0  0  0  0  0  0  0
   -2.1260   -1.7730    0.5380 C   0  0  0  0  0  0  0  0  0  0  0  0
   -2.1340   -3.0430    0.6420 O   0  0  0  0  0  0  0  0  0  0  0  0
   -1.2980   -1.2080   -0.5470 C   0  0  0  0  0  0  0  0  0  0  0  0
    0.1770   -1.1870   -0.1710 C   0  0  2  0  0  0  0  0  0  0  0  0
    0.6620   -2.5260    0.1020 N   0  0  0  0  0  0  0  0  0  0  0  0
    0.3840   -0.3540    1.0350 C   0  0  0  0  0  0  0  0  0  0  0  0
    0.9070   -0.8470    2.0890 O   0  0  0  0  0  0  0  0  0  0  0  0
   -2.6550   -1.0030    2.4530 H   0  0  0  0  0  0  0  0  0  0  0  0
   -3.7100   -0.4830    1.1140 H   0  0  0  0  0  0  0  0  0  0  0  0
   -1.4210   -1.7300   -1.5050 H   0  0  0  0  0  0  0  0  0  0  0  0
   -1.5970   -0.1370   -0.6740 H   0  0  0  0  0  0  0  0  0  0  0  0
    0.7200   -0.8100   -1.0510 H   0  0  0  0  0  0  0  0  0  0  0  0
    0.2780   -3.0710    0.9120 H   0  0  0  0  0  0  0  0  0  0  0  0
    2.5410    2.3610    1.6520 C   0  0  0  0  0  0  0  0  0  0  0  0
    1.2170    2.9460    2.0530 C   0  0  0  0  0  0  0  0  0  0  0  0
    0.7170    3.9770    1.0710 C   0  0  0  0  0  0  0  0  0  0  0  0
    0.2310    1.8270    2.2870 C   0  0  2  0  0  0  0  0  0  0  0  0
    0.0270    1.0180    1.1070 N   0  0  0  0  0  0  0  0  0  0  0  0
   -1.0350    2.3920    2.8050 C   0  0  0  0  0  0  0  0  0  0  0  0
   -2.1200    2.1560    2.2360 O   0  0  0  0  0  0  0  0  0  0  0  0
   -0.9970    3.1900    3.9350 O   0  0  0  0  0  0  0  0  0  0  0  0
    2.6750    2.2810    0.5730 H   0  0  0  0  0  0  0  0  0  0  0  0
    3.3730    2.9220    2.1580 H   0  0  0  0  0  0  0  0  0  0  0  0
    2.6020    1.3240    2.0750 H   0  0  0  0  0  0  0  0  0  0  0  0
    1.3540    3.4610    3.0240 H   0  0  0  0  0  0  0  0  0  0  0  0
    0.8270    3.6060    0.0380 H   0  0  0  0  0  0  0  0  0  0  0  0
    1.3870    4.8750    1.1980 H   0  0  0  0  0  0  0  0  0  0  0  0
   -0.3000    4.2780    1.3190 H   0  0  0  0  0  0  0  0  0  0  0  0
    0.6860    1.2070    3.1110 H   0  0  0  0  0  0  0  0  0  0  0  0
   -0.4040    1.4650    0.2720 H   0  0  0  0  0  0  0  0  0  0  0  0
  1  7  1  0  0  0  0
  1  2  1  0  0  0  0
  2  9  1  1  0  0  0
  2  3  1  0  0  0  0
  3 10  1  0  0  0  0
  4  2  1  0  0  0  0
  4 17  1  0  0  0  0
  5  4  2  0  0  0  0
  6  1  1  0  0  0  0
  8  1  1  0  0  0  0
 11  3  1  0  0  0  0
 12 20  1  0  0  0  0
 13 14  2  0  0  0  0
 13 12  1  0  0  0  0
 15 16  1  0  0  0  0
 15 13  1  0  0  0  0
 16 24  1  6  0  0  0
 16 17  1  0  0  0  0
 16 18  1  0  0  0  0
 17 25  1  0  0  0  0
 18 30  1  0  0  0  0
 18 19  2  0  0  0  0
 21 12  1  0  0  0  0
 22 15  1  0  0  0  0
 23 15  1  0  0  0  0
 26 27  1  0  0  0  0
 26 36  1  0  0  0  0
 26 35  1  0  0  0  0
 27 29  1  0  0  0  0
 27 37  1  0  0  0  0
 28 39  1  0  0  0  0
 28 40  1  0  0  0  0
 28 27  1  0  0  0  0
 29 31  1  0  0  0  0
 29 41  1  1  0  0  0
 30 29  1  0  0  0  0
 31 33  1  0  0  0  0
 32 31  2  0  0  0  0
 34 26  1  0  0  0  0
 38 28  1  0  0  0  0
 42 30  1  0  0  0  0
M  END
$$$$
