APC.pdb
 OpenBabel07022418023D

 37 37  0  0  1  0  0  0  0  0999 V2000
   -1.0980   -3.6350    2.7870 C   0  0  0  0  0  0  0  0  0  0  0  0
    0.2250   -3.8430    2.0610 C   0  0  2  0  0  0  0  0  0  0  0  0
    1.2080   -4.2000    3.0750 N   0  0  0  0  0  0  0  0  0  0  0  0
    0.6700   -2.6140    1.3870 C   0  0  0  0  0  0  0  0  0  0  0  0
    1.7040   -2.0350    1.8160 O   0  0  0  0  0  0  0  0  0  0  0  0
   -1.4040   -2.5890    2.6600 H   0  0  0  0  0  0  0  0  0  0  0  0
   -0.9640   -3.7720    3.8970 H   0  0  0  0  0  0  0  0  0  0  0  0
   -1.8440   -4.3490    2.4380 H   0  0  0  0  0  0  0  0  0  0  0  0
    0.1210   -4.7070    1.4020 H   0  0  0  0  0  0  0  0  0  0  0  0
    1.9780   -4.7070    2.5470 H   0  0  0  0  0  0  0  0  0  0  0  0
    0.7980   -4.8750    3.7540 H   0  0  0  0  0  0  0  0  0  0  0  0
   -0.0200   -2.0460    0.2630 N   0  0  0  0  0  0  0  0  0  0  0  0
   -1.1870   -2.6130   -0.3240 C   0  0  0  0  0  0  0  0  0  0  0  0
   -1.8550   -1.4440   -0.9940 C   0  0  0  0  0  0  0  0  0  0  0  0
   -0.6360   -0.6450   -1.4950 C   0  0  0  0  0  0  0  0  0  0  0  0
    0.3570   -0.8580   -0.4200 C   0  0  1  0  0  0  0  0  0  0  0  0
    0.4680    0.2890    0.5170 C   0  0  0  0  0  0  0  0  0  0  0  0
    0.1860    0.0860    1.7190 O   0  0  0  0  0  0  0  0  0  0  0  0
   -0.8280   -3.3180   -1.1250 H   0  0  0  0  0  0  0  0  0  0  0  0
   -1.8600   -3.1370    0.3840 H   0  0  0  0  0  0  0  0  0  0  0  0
   -2.4240   -0.8530   -0.2770 H   0  0  0  0  0  0  0  0  0  0  0  0
   -2.5110   -1.7260   -1.8310 H   0  0  0  0  0  0  0  0  0  0  0  0
   -0.3560   -1.1100   -2.4650 H   0  0  0  0  0  0  0  0  0  0  0  0
   -0.9580    0.3880   -1.6470 H   0  0  0  0  0  0  0  0  0  0  0  0
    1.3630   -1.0570   -0.8810 H   0  0  0  0  0  0  0  0  0  0  0  0
    0.8710    1.5800    0.1260 N   0  0  0  0  0  0  0  0  0  0  0  0
    0.9610    2.6670    1.0970 C   0  0  1  0  0  0  0  0  0  0  0  0
    2.3890    3.2030    1.1610 C   0  0  0  0  0  0  0  0  0  0  0  0
    2.9170    3.8350   -0.4480 S   0  0  0  0  0  0  0  0  0  0  0  0
    0.0500    3.7670    0.6920 C   0  0  0  0  0  0  0  0  0  0  0  0
   -0.0640    4.8130    1.3500 O   0  0  0  0  0  0  0  0  0  0  0  0
   -0.7190    3.6380   -0.4730 O   0  0  0  0  0  0  0  0  0  0  0  0
    1.1020    1.7240   -0.8800 H   0  0  0  0  0  0  0  0  0  0  0  0
    0.6790    2.3320    2.1090 H   0  0  0  0  0  0  0  0  0  0  0  0
    2.4450    4.0120    1.9110 H   0  0  0  0  0  0  0  0  0  0  0  0
    3.0650    2.4000    1.5160 H   0  0  0  0  0  0  0  0  0  0  0  0
    4.1900    3.3410   -0.7660 H   0  0  0  0  0  0  0  0  0  0  0  0
  1  7  1  0  0  0  0
  2  9  1  6  0  0  0
  2  1  1  0  0  0  0
  2  3  1  0  0  0  0
  3 11  1  0  0  0  0
  4  5  2  0  0  0  0
  4  2  1  0  0  0  0
  6  1  1  0  0  0  0
  8  1  1  0  0  0  0
 10  3  1  0  0  0  0
 12  4  1  0  0  0  0
 13 12  1  0  0  0  0
 13 20  1  0  0  0  0
 14 13  1  0  0  0  0
 14 21  1  0  0  0  0
 15 14  1  0  0  0  0
 15 16  1  0  0  0  0
 16 25  1  6  0  0  0
 16 12  1  0  0  0  0
 16 17  1  0  0  0  0
 17 18  2  0  0  0  0
 19 13  1  0  0  0  0
 22 14  1  0  0  0  0
 23 15  1  0  0  0  0
 24 15  1  0  0  0  0
 26 17  1  0  0  0  0
 26 27  1  0  0  0  0
 27 28  1  0  0  0  0
 27 34  1  1  0  0  0
 28 36  1  0  0  0  0
 28 35  1  0  0  0  0
 29 28  1  0  0  0  0
 30 27  1  0  0  0  0
 30 31  1  0  0  0  0
 32 30  2  0  0  0  0
 33 26  1  0  0  0  0
 37 29  1  0  0  0  0
M  END
$$$$
