APD.pdb
 OpenBabel07022418023D

 39 39  0  0  1  0  0  0  0  0999 V2000
    2.6710   -4.1210    1.4920 C   0  0  0  0  0  0  0  0  0  0  0  0
    1.4660   -3.1960    1.5960 C   0  0  2  0  0  0  0  0  0  0  0  0
    0.2730   -3.9480    1.4180 N   0  0  0  0  0  0  0  0  0  0  0  0
    1.6320   -2.0170    0.7260 C   0  0  0  0  0  0  0  0  0  0  0  0
    2.7570   -1.4020    0.8310 O   0  0  0  0  0  0  0  0  0  0  0  0
    3.5020   -3.7250    2.1050 H   0  0  0  0  0  0  0  0  0  0  0  0
    2.3790   -5.1370    1.8030 H   0  0  0  0  0  0  0  0  0  0  0  0
    2.9830   -4.1980    0.4170 H   0  0  0  0  0  0  0  0  0  0  0  0
    1.4820   -2.8070    2.6500 H   0  0  0  0  0  0  0  0  0  0  0  0
    0.4290   -4.8690    0.9360 H   0  0  0  0  0  0  0  0  0  0  0  0
   -0.2500   -4.1330    2.3040 H   0  0  0  0  0  0  0  0  0  0  0  0
    0.6670   -1.5370   -0.1850 N   0  0  0  0  0  0  0  0  0  0  0  0
   -0.6330   -2.1050   -0.3830 C   0  0  0  0  0  0  0  0  0  0  0  0
   -1.3770   -1.0570   -1.1630 C   0  0  0  0  0  0  0  0  0  0  0  0
   -0.2970   -0.5450   -2.0940 C   0  0  0  0  0  0  0  0  0  0  0  0
    0.8490   -0.4100   -1.0760 C   0  0  1  0  0  0  0  0  0  0  0  0
    0.6940    0.9020   -0.4440 C   0  0  0  0  0  0  0  0  0  0  0  0
    0.8190    1.9270   -1.1870 O   0  0  0  0  0  0  0  0  0  0  0  0
   -1.1620   -2.3670    0.5640 H   0  0  0  0  0  0  0  0  0  0  0  0
   -0.5020   -3.0080   -1.0310 H   0  0  0  0  0  0  0  0  0  0  0  0
   -1.6370   -0.2580   -0.4160 H   0  0  0  0  0  0  0  0  0  0  0  0
   -2.2530   -1.4410   -1.7070 H   0  0  0  0  0  0  0  0  0  0  0  0
   -0.1020   -1.3140   -2.8450 H   0  0  0  0  0  0  0  0  0  0  0  0
   -0.6050    0.4440   -2.4940 H   0  0  0  0  0  0  0  0  0  0  0  0
    1.8110   -0.5660   -1.5970 H   0  0  0  0  0  0  0  0  0  0  0  0
    0.4200    1.1550    0.9160 N   0  0  0  0  0  0  0  0  0  0  0  0
    0.2730    2.4680    1.5170 C   0  0  1  0  0  0  0  0  0  0  0  0
   -1.1140    2.5150    2.1300 C   0  0  0  0  0  0  0  0  0  0  0  0
   -2.1590    2.3170    1.1140 C   0  0  0  0  0  0  0  0  0  0  0  0
   -2.1850    3.0560    0.0970 O   0  0  0  0  0  0  0  0  0  0  0  0
    1.2740    2.7090    2.5820 C   0  0  0  0  0  0  0  0  0  0  0  0
    1.2610    3.8170    3.1690 O   0  0  0  0  0  0  0  0  0  0  0  0
   -3.1320    1.3220    1.2460 O   0  0  0  0  0  0  0  0  0  0  0  0
    2.2370    1.7930    2.9870 O   0  0  0  0  0  0  0  0  0  0  0  0
    0.3170    0.3070    1.5310 H   0  0  0  0  0  0  0  0  0  0  0  0
    0.3750    3.2850    0.7970 H   0  0  0  0  0  0  0  0  0  0  0  0
   -1.2600    3.4870    2.6860 H   0  0  0  0  0  0  0  0  0  0  0  0
   -1.2360    1.7290    2.9020 H   0  0  0  0  0  0  0  0  0  0  0  0
   -3.5840    0.9800    0.4100 H   0  0  0  0  0  0  0  0  0  0  0  0
  1  2  1  0  0  0  0
  1  7  1  0  0  0  0
  1  6  1  0  0  0  0
  2  9  1  1  0  0  0
  3  2  1  0  0  0  0
  3 11  1  0  0  0  0
  4  5  2  0  0  0  0
  4  2  1  0  0  0  0
  8  1  1  0  0  0  0
 10  3  1  0  0  0  0
 12  4  1  0  0  0  0
 13 12  1  0  0  0  0
 13 19  1  0  0  0  0
 14 21  1  0  0  0  0
 14 13  1  0  0  0  0
 15 14  1  0  0  0  0
 15 16  1  0  0  0  0
 16 25  1  6  0  0  0
 16 17  1  0  0  0  0
 16 12  1  0  0  0  0
 17 26  1  0  0  0  0
 18 17  2  0  0  0  0
 20 13  1  0  0  0  0
 22 14  1  0  0  0  0
 23 15  1  0  0  0  0
 24 15  1  0  0  0  0
 26 27  1  0  0  0  0
 26 35  1  0  0  0  0
 27 36  1  6  0  0  0
 27 28  1  0  0  0  0
 27 31  1  0  0  0  0
 28 37  1  0  0  0  0
 28 38  1  0  0  0  0
 29 33  1  0  0  0  0
 29 28  1  0  0  0  0
 30 29  2  0  0  0  0
 31 34  2  0  0  0  0
 31 32  1  0  0  0  0
 39 33  1  0  0  0  0
M  END
$$$$
