APE.pdb
 OpenBabel07022418023D

 42 42  0  0  1  0  0  0  0  0999 V2000
    3.3870   -2.9970   -1.1990 C   0  0  0  0  0  0  0  0  0  0  0  0
    2.3850   -2.5260   -0.1660 C   0  0  2  0  0  0  0  0  0  0  0  0
    1.7280   -3.6400    0.4210 N   0  0  0  0  0  0  0  0  0  0  0  0
    1.5090   -1.4960   -0.7350 C   0  0  0  0  0  0  0  0  0  0  0  0
    2.1160   -0.5000   -1.2640 O   0  0  0  0  0  0  0  0  0  0  0  0
    3.1150   -2.5710   -2.1640 H   0  0  0  0  0  0  0  0  0  0  0  0
    4.4300   -2.7340   -0.9260 H   0  0  0  0  0  0  0  0  0  0  0  0
    3.3780   -4.1060   -1.3130 H   0  0  0  0  0  0  0  0  0  0  0  0
    2.9850   -2.0280    0.6510 H   0  0  0  0  0  0  0  0  0  0  0  0
    1.7890   -4.5290   -0.0770 H   0  0  0  0  0  0  0  0  0  0  0  0
    1.7240   -3.6860    1.4450 H   0  0  0  0  0  0  0  0  0  0  0  0
    0.0980   -1.5320   -0.7360 N   0  0  0  0  0  0  0  0  0  0  0  0
   -0.7030   -2.5900   -0.1740 C   0  0  0  0  0  0  0  0  0  0  0  0
   -2.1170   -2.0730   -0.1790 C   0  0  0  0  0  0  0  0  0  0  0  0
   -2.1420   -1.1890   -1.3900 C   0  0  0  0  0  0  0  0  0  0  0  0
   -0.7770   -0.5270   -1.3010 C   0  0  1  0  0  0  0  0  0  0  0  0
   -0.8340    0.6840   -0.4400 C   0  0  0  0  0  0  0  0  0  0  0  0
   -1.5370    1.6590   -0.8090 O   0  0  0  0  0  0  0  0  0  0  0  0
   -0.4470   -2.8100    0.8810 H   0  0  0  0  0  0  0  0  0  0  0  0
   -0.6200   -3.5060   -0.7850 H   0  0  0  0  0  0  0  0  0  0  0  0
   -2.2860   -1.4160    0.7110 H   0  0  0  0  0  0  0  0  0  0  0  0
   -2.8540   -2.8960   -0.2260 H   0  0  0  0  0  0  0  0  0  0  0  0
   -2.1970   -1.8200   -2.3010 H   0  0  0  0  0  0  0  0  0  0  0  0
   -2.9660   -0.4670   -1.4090 H   0  0  0  0  0  0  0  0  0  0  0  0
   -0.4710   -0.2950   -2.3430 H   0  0  0  0  0  0  0  0  0  0  0  0
   -0.1060    0.7290    0.7720 N   0  0  0  0  0  0  0  0  0  0  0  0
   -0.1300    1.8790    1.6360 C   0  0  1  0  0  0  0  0  0  0  0  0
   -0.8540    1.6320    2.9160 C   0  0  0  0  0  0  0  0  0  0  0  0
   -0.3870    0.5340    3.7810 C   0  0  0  0  0  0  0  0  0  0  0  0
    0.9700    0.5660    4.3080 C   0  0  0  0  0  0  0  0  0  0  0  0
    1.3190   -0.4570    5.0070 O   0  0  0  0  0  0  0  0  0  0  0  0
    1.1270    2.6260    1.7220 C   0  0  0  0  0  0  0  0  0  0  0  0
    2.1490    2.1920    1.1640 O   0  0  0  0  0  0  0  0  0  0  0  0
    1.9280    1.5250    4.1700 O   0  0  0  0  0  0  0  0  0  0  0  0
    1.1880    3.8140    2.4150 O   0  0  0  0  0  0  0  0  0  0  0  0
    0.4670   -0.1330    1.0210 H   0  0  0  0  0  0  0  0  0  0  0  0
   -0.8290    2.6140    1.0780 H   0  0  0  0  0  0  0  0  0  0  0  0
   -0.9070    2.5790    3.4980 H   0  0  0  0  0  0  0  0  0  0  0  0
   -1.9390    1.4140    2.6760 H   0  0  0  0  0  0  0  0  0  0  0  0
   -0.6180   -0.4780    3.3450 H   0  0  0  0  0  0  0  0  0  0  0  0
   -1.0650    0.5500    4.7010 H   0  0  0  0  0  0  0  0  0  0  0  0
    2.8930    1.3090    3.9470 H   0  0  0  0  0  0  0  0  0  0  0  0
  1  7  1  0  0  0  0
  1  2  1  0  0  0  0
  2  3  1  0  0  0  0
  2  9  1  1  0  0  0
  3 11  1  0  0  0  0
  4  2  1  0  0  0  0
  5  4  2  0  0  0  0
  6  1  1  0  0  0  0
  8  1  1  0  0  0  0
 10  3  1  0  0  0  0
 12  4  1  0  0  0  0
 12 13  1  0  0  0  0
 13 19  1  0  0  0  0
 14 13  1  0  0  0  0
 14 21  1  0  0  0  0
 15 16  1  0  0  0  0
 15 14  1  0  0  0  0
 16 25  1  6  0  0  0
 16 12  1  0  0  0  0
 16 17  1  0  0  0  0
 17 26  1  0  0  0  0
 18 17  2  0  0  0  0
 20 13  1  0  0  0  0
 22 14  1  0  0  0  0
 23 15  1  0  0  0  0
 24 15  1  0  0  0  0
 26 36  1  0  0  0  0
 26 27  1  0  0  0  0
 27 37  1  6  0  0  0
 27 32  1  0  0  0  0
 27 28  1  0  0  0  0
 28 38  1  0  0  0  0
 28 29  1  0  0  0  0
 29 30  1  0  0  0  0
 29 41  1  0  0  0  0
 30 31  2  0  0  0  0
 32 35  1  0  0  0  0
 33 32  2  0  0  0  0
 34 30  1  0  0  0  0
 39 28  1  0  0  0  0
 40 29  1  0  0  0  0
 42 34  1  0  0  0  0
M  END
$$$$
