APF.pdb
 OpenBabel07022418023D

 46 47  0  0  1  0  0  0  0  0999 V2000
   -0.3960   -3.0820   -0.0220 C   0  0  0  0  0  0  0  0  0  0  0  0
    0.9620   -3.4120    0.4960 C   0  0  2  0  0  0  0  0  0  0  0  0
    0.8310   -4.3390    1.6060 N   0  0  0  0  0  0  0  0  0  0  0  0
    1.7640   -2.2210    0.8760 C   0  0  0  0  0  0  0  0  0  0  0  0
    2.1470   -2.1740    2.0960 O   0  0  0  0  0  0  0  0  0  0  0  0
   -1.1410   -3.7270    0.5000 H   0  0  0  0  0  0  0  0  0  0  0  0
   -0.7170   -2.0440    0.2000 H   0  0  0  0  0  0  0  0  0  0  0  0
   -0.4730   -3.3570   -1.0870 H   0  0  0  0  0  0  0  0  0  0  0  0
    1.5180   -3.9630   -0.2910 H   0  0  0  0  0  0  0  0  0  0  0  0
    0.6800   -5.2800    1.2230 H   0  0  0  0  0  0  0  0  0  0  0  0
    1.6690   -4.2820    2.2520 H   0  0  0  0  0  0  0  0  0  0  0  0
    2.1120   -1.1790   -0.0120 N   0  0  0  0  0  0  0  0  0  0  0  0
    1.7530   -1.1100   -1.4020 C   0  0  0  0  0  0  0  0  0  0  0  0
    2.0920    0.2610   -1.8800 C   0  0  0  0  0  0  0  0  0  0  0  0
    3.2640    0.6450   -0.9690 C   0  0  0  0  0  0  0  0  0  0  0  0
    2.8910   -0.0170    0.3380 C   0  0  1  0  0  0  0  0  0  0  0  0
    2.1630    0.9020    1.2400 C   0  0  0  0  0  0  0  0  0  0  0  0
    2.7580    1.9420    1.6320 O   0  0  0  0  0  0  0  0  0  0  0  0
    0.6850   -1.3360   -1.6010 H   0  0  0  0  0  0  0  0  0  0  0  0
    2.4240   -1.8180   -1.9350 H   0  0  0  0  0  0  0  0  0  0  0  0
    2.3610    0.3250   -2.9410 H   0  0  0  0  0  0  0  0  0  0  0  0
    1.2960    1.0140   -1.6600 H   0  0  0  0  0  0  0  0  0  0  0  0
    3.4060    1.7200   -0.9010 H   0  0  0  0  0  0  0  0  0  0  0  0
    4.1660    0.1870   -1.4220 H   0  0  0  0  0  0  0  0  0  0  0  0
    3.8250   -0.3620    0.8240 H   0  0  0  0  0  0  0  0  0  0  0  0
    0.8500    0.6590    1.6700 N   0  0  0  0  0  0  0  0  0  0  0  0
    0.1260    1.5430    2.5500 C   0  0  1  0  0  0  0  0  0  0  0  0
   -1.0520    2.1630    1.8390 C   0  0  0  0  0  0  0  0  0  0  0  0
   -2.0250    1.2030    1.3380 C   0  0  0  0  0  0  0  0  0  0  0  0
   -2.0010    0.6230    0.0970 C   0  0  0  0  0  0  0  0  0  0  0  0
   -2.9600   -0.2770   -0.3040 C   0  0  0  0  0  0  0  0  0  0  0  0
   -4.0090   -0.6500    0.5300 C   0  0  0  0  0  0  0  0  0  0  0  0
   -4.0390   -0.0720    1.7760 C   0  0  0  0  0  0  0  0  0  0  0  0
   -3.0780    0.8280    2.1740 C   0  0  0  0  0  0  0  0  0  0  0  0
   -0.2600    0.9150    3.8170 C   0  0  0  0  0  0  0  0  0  0  0  0
   -0.8960    1.5730    4.6760 O   0  0  0  0  0  0  0  0  0  0  0  0
    0.0500   -0.4020    4.1200 O   0  0  0  0  0  0  0  0  0  0  0  0
    0.3770   -0.2260    1.3200 H   0  0  0  0  0  0  0  0  0  0  0  0
    0.8230    2.4000    2.7840 H   0  0  0  0  0  0  0  0  0  0  0  0
   -0.6320    2.8320    1.0550 H   0  0  0  0  0  0  0  0  0  0  0  0
   -1.5540    2.8330    2.5680 H   0  0  0  0  0  0  0  0  0  0  0  0
   -1.2130    0.8850   -0.5690 H   0  0  0  0  0  0  0  0  0  0  0  0
   -2.9370   -0.7330   -1.2880 H   0  0  0  0  0  0  0  0  0  0  0  0
   -4.7550   -1.3560    0.2080 H   0  0  0  0  0  0  0  0  0  0  0  0
   -4.8540   -0.3560    2.4360 H   0  0  0  0  0  0  0  0  0  0  0  0
   -3.1800    1.2380    3.1820 H   0  0  0  0  0  0  0  0  0  0  0  0
  1  7  1  0  0  0  0
  1  2  1  0  0  0  0
  1  6  1  0  0  0  0
  2  9  1  6  0  0  0
  2  4  1  0  0  0  0
  2  3  1  0  0  0  0
  3 11  1  0  0  0  0
  4  5  2  0  0  0  0
  8  1  1  0  0  0  0
 10  3  1  0  0  0  0
 12 16  1  0  0  0  0
 12  4  1  0  0  0  0
 13 12  1  0  0  0  0
 14 22  1  0  0  0  0
 14 13  1  0  0  0  0
 14 15  1  0  0  0  0
 15 23  1  0  0  0  0
 15 16  1  0  0  0  0
 16 25  1  1  0  0  0
 16 17  1  0  0  0  0
 17 18  2  0  0  0  0
 17 26  1  0  0  0  0
 19 13  1  0  0  0  0
 20 13  1  0  0  0  0
 21 14  1  0  0  0  0
 24 15  1  0  0  0  0
 26 27  1  0  0  0  0
 27 39  1  1  0  0  0
 27 35  1  0  0  0  0
 28 27  1  0  0  0  0
 28 41  1  0  0  0  0
 29 28  1  0  0  0  0
 29 34  1  0  0  0  0
 30 29  2  0  0  0  0
 31 30  1  0  0  0  0
 31 32  2  0  0  0  0
 32 33  1  0  0  0  0
 33 34  2  0  0  0  0
 33 45  1  0  0  0  0
 34 46  1  0  0  0  0
 35 37  2  0  0  0  0
 35 36  1  0  0  0  0
 38 26  1  0  0  0  0
 40 28  1  0  0  0  0
 42 30  1  0  0  0  0
 43 31  1  0  0  0  0
 44 32  1  0  0  0  0
M  END
$$$$
