APG.pdb
 OpenBabel07022418023D

 33 33  0  0  1  0  0  0  0  0999 V2000
   -0.4290   -3.2930    2.8490 C   0  0  0  0  0  0  0  0  0  0  0  0
    0.6440   -2.2610    3.0470 C   0  0  2  0  0  0  0  0  0  0  0  0
    0.6230   -1.7870    4.4220 N   0  0  0  0  0  0  0  0  0  0  0  0
    0.5130   -1.1070    2.0960 C   0  0  0  0  0  0  0  0  0  0  0  0
    0.2740    0.0170    2.5850 O   0  0  0  0  0  0  0  0  0  0  0  0
   -1.0960   -3.0660    1.9900 H   0  0  0  0  0  0  0  0  0  0  0  0
   -1.1180   -3.2350    3.7420 H   0  0  0  0  0  0  0  0  0  0  0  0
    0.0420   -4.2880    2.7980 H   0  0  0  0  0  0  0  0  0  0  0  0
    1.6220   -2.7360    2.8730 H   0  0  0  0  0  0  0  0  0  0  0  0
    1.0980   -0.8570    4.5210 H   0  0  0  0  0  0  0  0  0  0  0  0
   -0.3730   -1.6420    4.7510 H   0  0  0  0  0  0  0  0  0  0  0  0
    0.6500   -1.2600    0.7110 N   0  0  0  0  0  0  0  0  0  0  0  0
    0.9550   -2.5870    0.0560 C   0  0  0  0  0  0  0  0  0  0  0  0
   -0.1010   -2.5990   -1.0290 C   0  0  0  0  0  0  0  0  0  0  0  0
   -0.5940   -1.1480   -1.1620 C   0  0  0  0  0  0  0  0  0  0  0  0
    0.5720   -0.4360   -0.4430 C   0  0  1  0  0  0  0  0  0  0  0  0
    0.3880    0.9810   -0.3490 C   0  0  0  0  0  0  0  0  0  0  0  0
    0.3320    1.6000    0.7280 O   0  0  0  0  0  0  0  0  0  0  0  0
    0.9110   -3.3970    0.7650 H   0  0  0  0  0  0  0  0  0  0  0  0
    1.9670   -2.4060   -0.3890 H   0  0  0  0  0  0  0  0  0  0  0  0
   -0.9690   -3.2370   -0.7680 H   0  0  0  0  0  0  0  0  0  0  0  0
    0.2970   -2.9520   -1.9940 H   0  0  0  0  0  0  0  0  0  0  0  0
   -1.4990   -0.9770   -0.5440 H   0  0  0  0  0  0  0  0  0  0  0  0
   -0.6810   -0.8350   -2.2010 H   0  0  0  0  0  0  0  0  0  0  0  0
    1.4660   -0.7000   -1.1200 H   0  0  0  0  0  0  0  0  0  0  0  0
    0.2580    1.7550   -1.5580 N   0  0  0  0  0  0  0  0  0  0  0  0
    0.0740    3.1690   -1.4470 C   0  0  0  0  0  0  0  0  0  0  0  0
   -1.1720    3.4820   -0.6790 C   0  0  0  0  0  0  0  0  0  0  0  0
   -1.4950    4.6680   -0.4820 O   0  0  0  0  0  0  0  0  0  0  0  0
   -2.0000    2.4920   -0.1670 O   0  0  0  0  0  0  0  0  0  0  0  0
    0.3000    1.2710   -2.4600 H   0  0  0  0  0  0  0  0  0  0  0  0
   -0.0480    3.5900   -2.4750 H   0  0  0  0  0  0  0  0  0  0  0  0
    0.9700    3.6180   -0.9770 H   0  0  0  0  0  0  0  0  0  0  0  0
  1  2  1  0  0  0  0
  1  7  1  0  0  0  0
  2  9  1  6  0  0  0
  2  3  1  0  0  0  0
  3 10  1  0  0  0  0
  3 11  1  0  0  0  0
  4  5  2  0  0  0  0
  4  2  1  0  0  0  0
  6  1  1  0  0  0  0
  8  1  1  0  0  0  0
 12  4  1  0  0  0  0
 13 12  1  0  0  0  0
 13 19  1  0  0  0  0
 14 21  1  0  0  0  0
 14 13  1  0  0  0  0
 15 14  1  0  0  0  0
 15 23  1  0  0  0  0
 15 16  1  0  0  0  0
 16 25  1  6  0  0  0
 16 17  1  0  0  0  0
 16 12  1  0  0  0  0
 17 18  2  0  0  0  0
 20 13  1  0  0  0  0
 22 14  1  0  0  0  0
 24 15  1  0  0  0  0
 26 27  1  0  0  0  0
 26 17  1  0  0  0  0
 27 33  1  0  0  0  0
 27 28  1  0  0  0  0
 28 29  2  0  0  0  0
 28 30  1  0  0  0  0
 31 26  1  0  0  0  0
 32 27  1  0  0  0  0
M  END
$$$$
