API.pdb
 OpenBabel07022418023D

 45 45  0  0  1  0  0  0  0  0999 V2000
    0.6380   -5.6420    2.2630 C   0  0  0  0  0  0  0  0  0  0  0  0
   -0.5600   -4.7360    2.0210 C   0  0  2  0  0  0  0  0  0  0  0  0
   -1.5010   -5.4490    1.2190 N   0  0  0  0  0  0  0  0  0  0  0  0
   -0.1730   -3.4120    1.5430 C   0  0  0  0  0  0  0  0  0  0  0  0
    0.6300   -2.7500    2.2370 O   0  0  0  0  0  0  0  0  0  0  0  0
    0.3900   -6.4150    3.0440 H   0  0  0  0  0  0  0  0  0  0  0  0
    0.8620   -6.2340    1.3420 H   0  0  0  0  0  0  0  0  0  0  0  0
    1.5120   -5.0950    2.6490 H   0  0  0  0  0  0  0  0  0  0  0  0
   -1.0300   -4.6140    3.0420 H   0  0  0  0  0  0  0  0  0  0  0  0
   -2.2470   -5.9170    1.8100 H   0  0  0  0  0  0  0  0  0  0  0  0
   -1.0270   -6.2490    0.7290 H   0  0  0  0  0  0  0  0  0  0  0  0
   -0.6470   -2.8020    0.3250 N   0  0  0  0  0  0  0  0  0  0  0  0
   -1.5460   -3.4980   -0.5540 C   0  0  0  0  0  0  0  0  0  0  0  0
   -1.6980   -2.6120   -1.7670 C   0  0  0  0  0  0  0  0  0  0  0  0
   -1.3630   -1.2320   -1.2580 C   0  0  0  0  0  0  0  0  0  0  0  0
   -0.3440   -1.5270   -0.1950 C   0  0  1  0  0  0  0  0  0  0  0  0
   -0.3050   -0.4230    0.8100 C   0  0  0  0  0  0  0  0  0  0  0  0
   -0.6140   -0.5290    2.0150 O   0  0  0  0  0  0  0  0  0  0  0  0
   -1.0010   -4.4450   -0.8510 H   0  0  0  0  0  0  0  0  0  0  0  0
   -2.5180   -3.7380   -0.0850 H   0  0  0  0  0  0  0  0  0  0  0  0
   -0.9830   -2.9280   -2.5510 H   0  0  0  0  0  0  0  0  0  0  0  0
   -2.7350   -2.6710   -2.1580 H   0  0  0  0  0  0  0  0  0  0  0  0
   -2.2830   -0.7780   -0.7970 H   0  0  0  0  0  0  0  0  0  0  0  0
   -0.9610   -0.5780   -2.0620 H   0  0  0  0  0  0  0  0  0  0  0  0
    0.6430   -1.6060   -0.7220 H   0  0  0  0  0  0  0  0  0  0  0  0
    3.2970    3.9780    2.2890 C   0  0  0  0  0  0  0  0  0  0  0  0
    1.7890    3.7230    2.1820 C   0  0  0  0  0  0  0  0  0  0  0  0
    1.5980    2.5460    1.2870 C   0  0  2  0  0  0  0  0  0  0  0  0
    2.1670    2.8160   -0.0870 C   0  0  0  0  0  0  0  0  0  0  0  0
    0.1960    2.0050    1.2480 C   0  0  2  0  0  0  0  0  0  0  0  0
    0.1210    0.8460    0.3390 N   0  0  0  0  0  0  0  0  0  0  0  0
   -0.7170    3.0260    0.7380 C   0  0  0  0  0  0  0  0  0  0  0  0
   -0.8620    4.1170    1.3400 O   0  0  0  0  0  0  0  0  0  0  0  0
   -1.4640    2.8530   -0.4220 O   0  0  0  0  0  0  0  0  0  0  0  0
    3.5750    4.2870    3.3160 H   0  0  0  0  0  0  0  0  0  0  0  0
    3.8310    3.0270    2.0960 H   0  0  0  0  0  0  0  0  0  0  0  0
    3.6220    4.7030    1.5170 H   0  0  0  0  0  0  0  0  0  0  0  0
    1.3300    4.6620    1.8060 H   0  0  0  0  0  0  0  0  0  0  0  0
    1.3600    3.5060    3.1660 H   0  0  0  0  0  0  0  0  0  0  0  0
    2.2260    1.7090    1.7130 H   0  0  0  0  0  0  0  0  0  0  0  0
    3.2260    3.1260    0.0570 H   0  0  0  0  0  0  0  0  0  0  0  0
    2.1970    1.9060   -0.7110 H   0  0  0  0  0  0  0  0  0  0  0  0
    1.6690    3.6770   -0.5820 H   0  0  0  0  0  0  0  0  0  0  0  0
   -0.1190    1.7130    2.2650 H   0  0  0  0  0  0  0  0  0  0  0  0
    0.3860    0.9700   -0.6600 H   0  0  0  0  0  0  0  0  0  0  0  0
  1  8  1  0  0  0  0
  1  6  1  0  0  0  0
  2  1  1  0  0  0  0
  2  9  1  1  0  0  0
  3 10  1  0  0  0  0
  3  2  1  0  0  0  0
  4  2  1  0  0  0  0
  4  5  2  0  0  0  0
  7  1  1  0  0  0  0
 11  3  1  0  0  0  0
 12  4  1  0  0  0  0
 13 20  1  0  0  0  0
 13 12  1  0  0  0  0
 14 15  1  0  0  0  0
 14 13  1  0  0  0  0
 15 23  1  0  0  0  0
 15 16  1  0  0  0  0
 16 25  1  6  0  0  0
 16 12  1  0  0  0  0
 16 17  1  0  0  0  0
 17 18  2  0  0  0  0
 19 13  1  0  0  0  0
 21 14  1  0  0  0  0
 22 14  1  0  0  0  0
 24 15  1  0  0  0  0
 26 35  1  0  0  0  0
 27 26  1  0  0  0  0
 27 39  1  0  0  0  0
 28 40  1  1  0  0  0
 28 27  1  0  0  0  0
 29 41  1  0  0  0  0
 29 28  1  0  0  0  0
 30 28  1  0  0  0  0
 30 44  1  1  0  0  0
 31 17  1  0  0  0  0
 31 30  1  0  0  0  0
 32 30  1  0  0  0  0
 32 33  1  0  0  0  0
 34 32  2  0  0  0  0
 36 26  1  0  0  0  0
 37 26  1  0  0  0  0
 38 27  1  0  0  0  0
 42 29  1  0  0  0  0
 43 29  1  0  0  0  0
 45 31  1  0  0  0  0
M  END
$$$$
