APN.pdb
 OpenBabel07022418023D

 40 40  0  0  1  0  0  0  0  0999 V2000
   -1.2220   -4.7050   -0.0190 C   0  0  0  0  0  0  0  0  0  0  0  0
   -1.1910   -3.2540    0.3950 C   0  0  2  0  0  0  0  0  0  0  0  0
   -2.0070   -2.5130   -0.5190 N   0  0  0  0  0  0  0  0  0  0  0  0
    0.1990   -2.7310    0.4560 C   0  0  0  0  0  0  0  0  0  0  0  0
    0.9820   -3.3330    1.2410 O   0  0  0  0  0  0  0  0  0  0  0  0
   -2.0600   -5.1810    0.5380 H   0  0  0  0  0  0  0  0  0  0  0  0
   -1.4680   -4.7730   -1.0990 H   0  0  0  0  0  0  0  0  0  0  0  0
   -0.2990   -5.2460    0.2330 H   0  0  0  0  0  0  0  0  0  0  0  0
   -1.5840   -3.1750    1.4450 H   0  0  0  0  0  0  0  0  0  0  0  0
   -2.8460   -2.0820   -0.0730 H   0  0  0  0  0  0  0  0  0  0  0  0
   -2.2390   -3.0390   -1.3900 H   0  0  0  0  0  0  0  0  0  0  0  0
    0.6410   -1.6140   -0.3190 N   0  0  0  0  0  0  0  0  0  0  0  0
   -0.1630   -0.8610   -1.2370 C   0  0  0  0  0  0  0  0  0  0  0  0
    0.7500    0.2300   -1.7430 C   0  0  0  0  0  0  0  0  0  0  0  0
    2.1120   -0.4020   -1.6110 C   0  0  0  0  0  0  0  0  0  0  0  0
    1.9970   -1.0890   -0.2710 C   0  0  1  0  0  0  0  0  0  0  0  0
    2.1070   -0.1460    0.8720 C   0  0  0  0  0  0  0  0  0  0  0  0
    3.1530    0.4810    1.1350 O   0  0  0  0  0  0  0  0  0  0  0  0
   -1.0310   -0.3570   -0.7690 H   0  0  0  0  0  0  0  0  0  0  0  0
   -0.5390   -1.4760   -2.0890 H   0  0  0  0  0  0  0  0  0  0  0  0
    0.5180    0.5210   -2.7880 H   0  0  0  0  0  0  0  0  0  0  0  0
    0.7050    1.0850   -1.0460 H   0  0  0  0  0  0  0  0  0  0  0  0
    2.2120   -1.1940   -2.3760 H   0  0  0  0  0  0  0  0  0  0  0  0
    2.9340    0.3380   -1.6460 H   0  0  0  0  0  0  0  0  0  0  0  0
    2.7280   -1.9260   -0.1760 H   0  0  0  0  0  0  0  0  0  0  0  0
    0.8160    4.2120    1.9480 N   0  0  0  0  0  0  0  0  0  0  0  0
    0.0710    2.9900    1.8190 C   0  0  0  0  0  0  0  0  0  0  0  0
   -0.4830    2.8230    0.7000 O   0  0  0  0  0  0  0  0  0  0  0  0
   -0.0220    2.0140    2.9350 C   0  0  0  0  0  0  0  0  0  0  0  0
    0.9780    0.9470    2.8450 C   0  0  2  0  0  0  0  0  0  0  0  0
    1.0140    0.0940    1.7360 N   0  0  0  0  0  0  0  0  0  0  0  0
    0.9120    0.1270    4.0840 C   0  0  0  0  0  0  0  0  0  0  0  0
    0.8700    0.6950    5.1880 O   0  0  0  0  0  0  0  0  0  0  0  0
    0.8970   -1.2520    4.0250 O   0  0  0  0  0  0  0  0  0  0  0  0
    1.5550    4.3450    1.1940 H   0  0  0  0  0  0  0  0  0  0  0  0
    0.6540    4.8990    2.7020 H   0  0  0  0  0  0  0  0  0  0  0  0
    0.2170    2.6100    3.8700 H   0  0  0  0  0  0  0  0  0  0  0  0
   -1.0670    1.6840    3.1120 H   0  0  0  0  0  0  0  0  0  0  0  0
    1.9980    1.4420    2.9100 H   0  0  0  0  0  0  0  0  0  0  0  0
    0.1150   -0.4360    1.5200 H   0  0  0  0  0  0  0  0  0  0  0  0
  1  8  1  0  0  0  0
  1  2  1  0  0  0  0
  1  6  1  0  0  0  0
  2  4  1  0  0  0  0
  2  9  1  1  0  0  0
  3 10  1  0  0  0  0
  3  2  1  0  0  0  0
  4  5  2  0  0  0  0
  7  1  1  0  0  0  0
 11  3  1  0  0  0  0
 12 16  1  0  0  0  0
 12  4  1  0  0  0  0
 13 19  1  0  0  0  0
 13 12  1  0  0  0  0
 14 15  1  0  0  0  0
 14 13  1  0  0  0  0
 14 22  1  0  0  0  0
 15 16  1  0  0  0  0
 16 25  1  1  0  0  0
 16 17  1  0  0  0  0
 17 18  2  0  0  0  0
 17 31  1  0  0  0  0
 20 13  1  0  0  0  0
 21 14  1  0  0  0  0
 23 15  1  0  0  0  0
 24 15  1  0  0  0  0
 26 36  1  0  0  0  0
 27 26  1  0  0  0  0
 27 29  1  0  0  0  0
 28 27  2  0  0  0  0
 29 38  1  0  0  0  0
 29 37  1  0  0  0  0
 30 39  1  1  0  0  0
 30 29  1  0  0  0  0
 30 32  1  0  0  0  0
 31 30  1  0  0  0  0
 32 33  1  0  0  0  0
 34 32  2  0  0  0  0
 35 26  1  0  0  0  0
 40 31  1  0  0  0  0
M  END
$$$$
