APQ.pdb
 OpenBabel07022418023D

 43 43  0  0  1  0  0  0  0  0999 V2000
    4.0030   -1.1850   -1.4650 C   0  0  0  0  0  0  0  0  0  0  0  0
    2.9090   -1.2250   -0.4050 C   0  0  2  0  0  0  0  0  0  0  0  0
    2.6830   -2.5790    0.0210 N   0  0  0  0  0  0  0  0  0  0  0  0
    1.7010   -0.5160   -0.8550 C   0  0  0  0  0  0  0  0  0  0  0  0
    1.8320    0.6630   -1.2580 O   0  0  0  0  0  0  0  0  0  0  0  0
    3.8090   -0.3040   -2.1150 H   0  0  0  0  0  0  0  0  0  0  0  0
    5.0050   -1.0330   -1.0300 H   0  0  0  0  0  0  0  0  0  0  0  0
    4.0360   -2.1270   -2.0480 H   0  0  0  0  0  0  0  0  0  0  0  0
    3.3340   -0.6790    0.4710 H   0  0  0  0  0  0  0  0  0  0  0  0
    3.3450   -3.2150   -0.4700 H   0  0  0  0  0  0  0  0  0  0  0  0
    2.7950   -2.6950    1.0660 H   0  0  0  0  0  0  0  0  0  0  0  0
    0.3800   -1.0890   -0.8610 N   0  0  0  0  0  0  0  0  0  0  0  0
    0.1140   -2.4380   -0.4160 C   0  0  0  0  0  0  0  0  0  0  0  0
   -1.3360   -2.6880   -0.6440 C   0  0  0  0  0  0  0  0  0  0  0  0
   -1.7970   -1.5660   -1.5150 C   0  0  0  0  0  0  0  0  0  0  0  0
   -0.8410   -0.4520   -1.3020 C   0  0  1  0  0  0  0  0  0  0  0  0
   -1.2710    0.5850   -0.3630 C   0  0  0  0  0  0  0  0  0  0  0  0
   -2.3130    1.2630   -0.5590 O   0  0  0  0  0  0  0  0  0  0  0  0
    0.4070   -2.6420    0.6210 H   0  0  0  0  0  0  0  0  0  0  0  0
    0.6690   -3.1000   -1.1340 H   0  0  0  0  0  0  0  0  0  0  0  0
   -1.9360   -2.6640    0.2950 H   0  0  0  0  0  0  0  0  0  0  0  0
   -1.5330   -3.6710   -1.1400 H   0  0  0  0  0  0  0  0  0  0  0  0
   -1.7160   -1.8870   -2.6000 H   0  0  0  0  0  0  0  0  0  0  0  0
   -2.8570   -1.2800   -1.3240 H   0  0  0  0  0  0  0  0  0  0  0  0
   -0.6340    0.0370   -2.3190 H   0  0  0  0  0  0  0  0  0  0  0  0
    0.7120   -1.5560    3.9010 N   0  0  0  0  0  0  0  0  0  0  0  0
   -0.3710   -0.8060    3.3920 C   0  0  0  0  0  0  0  0  0  0  0  0
   -1.0650   -1.3190    2.4820 O   0  0  0  0  0  0  0  0  0  0  0  0
   -0.7150    0.5220    3.8770 C   0  0  0  0  0  0  0  0  0  0  0  0
   -1.4890    1.4100    2.9980 C   0  0  0  0  0  0  0  0  0  0  0  0
   -0.8980    1.8830    1.7300 C   0  0  2  0  0  0  0  0  0  0  0  0
   -0.5270    0.8720    0.8040 N   0  0  0  0  0  0  0  0  0  0  0  0
    0.1390    2.9220    1.9100 C   0  0  0  0  0  0  0  0  0  0  0  0
   -0.0650    3.8620    2.6930 O   0  0  0  0  0  0  0  0  0  0  0  0
    1.3160    2.8400    1.2140 O   0  0  0  0  0  0  0  0  0  0  0  0
    1.6790   -1.1820    3.9390 H   0  0  0  0  0  0  0  0  0  0  0  0
    0.5380   -2.5170    4.2530 H   0  0  0  0  0  0  0  0  0  0  0  0
    0.1870    1.0640    4.2470 H   0  0  0  0  0  0  0  0  0  0  0  0
   -1.3280    0.3830    4.8220 H   0  0  0  0  0  0  0  0  0  0  0  0
   -1.7890    2.3160    3.6030 H   0  0  0  0  0  0  0  0  0  0  0  0
   -2.4470    0.8790    2.7320 H   0  0  0  0  0  0  0  0  0  0  0  0
   -1.7570    2.4460    1.2110 H   0  0  0  0  0  0  0  0  0  0  0  0
    0.3680    0.3420    1.0260 H   0  0  0  0  0  0  0  0  0  0  0  0
  1  7  1  0  0  0  0
  1  2  1  0  0  0  0
  2  3  1  0  0  0  0
  2  9  1  1  0  0  0
  3 11  1  0  0  0  0
  4  2  1  0  0  0  0
  5  4  2  0  0  0  0
  6  1  1  0  0  0  0
  8  1  1  0  0  0  0
 10  3  1  0  0  0  0
 12  4  1  0  0  0  0
 12 13  1  0  0  0  0
 13 19  1  0  0  0  0
 14 13  1  0  0  0  0
 14 21  1  0  0  0  0
 15 24  1  0  0  0  0
 15 16  1  0  0  0  0
 15 14  1  0  0  0  0
 16 25  1  6  0  0  0
 16 12  1  0  0  0  0
 16 17  1  0  0  0  0
 17 32  1  0  0  0  0
 18 17  2  0  0  0  0
 20 13  1  0  0  0  0
 22 14  1  0  0  0  0
 23 15  1  0  0  0  0
 26 36  1  0  0  0  0
 26 37  1  0  0  0  0
 27 29  1  0  0  0  0
 27 26  1  0  0  0  0
 28 27  2  0  0  0  0
 29 38  1  0  0  0  0
 29 39  1  0  0  0  0
 30 40  1  0  0  0  0
 30 29  1  0  0  0  0
 31 42  1  6  0  0  0
 31 33  1  0  0  0  0
 31 30  1  0  0  0  0
 32 43  1  0  0  0  0
 32 31  1  0  0  0  0
 33 34  1  0  0  0  0
 35 33  2  0  0  0  0
 41 30  1  0  0  0  0
M  END
$$$$
