APV.pdb
 OpenBabel07022418023D

 42 42  0  0  1  0  0  0  0  0999 V2000
   -1.7490   -4.9210    1.0110 C   0  0  0  0  0  0  0  0  0  0  0  0
   -0.7200   -4.5750   -0.0530 C   0  0  2  0  0  0  0  0  0  0  0  0
    0.2800   -5.6450   -0.1360 N   0  0  0  0  0  0  0  0  0  0  0  0
   -0.0220   -3.2870    0.2490 C   0  0  0  0  0  0  0  0  0  0  0  0
    1.1900   -3.3500    0.5400 O   0  0  0  0  0  0  0  0  0  0  0  0
   -1.9110   -4.1180    1.7430 H   0  0  0  0  0  0  0  0  0  0  0  0
   -1.3710   -5.8180    1.5840 H   0  0  0  0  0  0  0  0  0  0  0  0
   -2.7050   -5.2430    0.5630 H   0  0  0  0  0  0  0  0  0  0  0  0
   -1.2300   -4.5500   -1.0320 H   0  0  0  0  0  0  0  0  0  0  0  0
    0.6790   -5.6240   -1.0990 H   0  0  0  0  0  0  0  0  0  0  0  0
    0.9990   -5.4540    0.5810 H   0  0  0  0  0  0  0  0  0  0  0  0
   -0.7320   -2.0830    0.1970 N   0  0  0  0  0  0  0  0  0  0  0  0
   -2.1880   -2.0120   -0.1810 C   0  0  0  0  0  0  0  0  0  0  0  0
   -2.7420   -0.9950    0.7760 C   0  0  0  0  0  0  0  0  0  0  0  0
   -1.5240   -0.3450    1.4530 C   0  0  0  0  0  0  0  0  0  0  0  0
   -0.4440   -0.7260    0.4390 C   0  0  1  0  0  0  0  0  0  0  0  0
    0.8870   -0.3510    0.8500 C   0  0  0  0  0  0  0  0  0  0  0  0
    1.9190   -1.0520    0.9480 O   0  0  0  0  0  0  0  0  0  0  0  0
   -2.1970   -1.6230   -1.2440 H   0  0  0  0  0  0  0  0  0  0  0  0
   -2.6520   -2.9820   -0.1920 H   0  0  0  0  0  0  0  0  0  0  0  0
   -3.4080   -1.4590    1.5250 H   0  0  0  0  0  0  0  0  0  0  0  0
   -3.3160   -0.2480    0.1760 H   0  0  0  0  0  0  0  0  0  0  0  0
   -1.3330   -0.8120    2.4130 H   0  0  0  0  0  0  0  0  0  0  0  0
   -1.7120    0.7340    1.4490 H   0  0  0  0  0  0  0  0  0  0  0  0
   -0.7670   -0.1530   -0.5050 H   0  0  0  0  0  0  0  0  0  0  0  0
    3.1070    2.2570   -0.6530 C   0  0  0  0  0  0  0  0  0  0  0  0
    2.9470    2.6300    0.8040 C   0  0  0  0  0  0  0  0  0  0  0  0
    2.0960    3.8750    0.8980 C   0  0  0  0  0  0  0  0  0  0  0  0
    2.4210    1.5110    1.6460 C   0  0  2  0  0  0  0  0  0  0  0  0
    1.1230    1.0450    1.2210 N   0  0  0  0  0  0  0  0  0  0  0  0
    2.4250    1.9170    3.0770 C   0  0  0  0  0  0  0  0  0  0  0  0
    3.4880    2.3510    3.5690 O   0  0  0  0  0  0  0  0  0  0  0  0
    1.3120    1.8410    3.9020 O   0  0  0  0  0  0  0  0  0  0  0  0
    2.2500    1.6200   -0.9940 H   0  0  0  0  0  0  0  0  0  0  0  0
    3.0210    3.2220   -1.2330 H   0  0  0  0  0  0  0  0  0  0  0  0
    4.0860    1.8220   -0.8950 H   0  0  0  0  0  0  0  0  0  0  0  0
    3.9610    2.9200    1.1700 H   0  0  0  0  0  0  0  0  0  0  0  0
    1.1500    3.8160    0.3530 H   0  0  0  0  0  0  0  0  0  0  0  0
    2.6860    4.7050    0.4310 H   0  0  0  0  0  0  0  0  0  0  0  0
    1.9860    4.1910    1.9660 H   0  0  0  0  0  0  0  0  0  0  0  0
    3.1240    0.6610    1.5780 H   0  0  0  0  0  0  0  0  0  0  0  0
    0.3100    1.6860    1.1620 H   0  0  0  0  0  0  0  0  0  0  0  0
  1  7  1  0  0  0  0
  1  6  1  0  0  0  0
  2  9  1  6  0  0  0
  2  4  1  0  0  0  0
  2  1  1  0  0  0  0
  3  2  1  0  0  0  0
  3 11  1  0  0  0  0
  4  5  2  0  0  0  0
  8  1  1  0  0  0  0
 10  3  1  0  0  0  0
 12  4  1  0  0  0  0
 12 16  1  0  0  0  0
 13 12  1  0  0  0  0
 13 14  1  0  0  0  0
 14 15  1  0  0  0  0
 14 21  1  0  0  0  0
 15 23  1  0  0  0  0
 16 25  1  6  0  0  0
 16 17  1  0  0  0  0
 16 15  1  0  0  0  0
 17 18  2  0  0  0  0
 17 30  1  0  0  0  0
 19 13  1  0  0  0  0
 20 13  1  0  0  0  0
 22 14  1  0  0  0  0
 24 15  1  0  0  0  0
 26 27  1  0  0  0  0
 27 28  1  0  0  0  0
 27 37  1  0  0  0  0
 27 29  1  0  0  0  0
 28 40  1  0  0  0  0
 29 41  1  6  0  0  0
 29 31  1  0  0  0  0
 30 29  1  0  0  0  0
 31 32  2  0  0  0  0
 31 33  1  0  0  0  0
 34 26  1  0  0  0  0
 35 26  1  0  0  0  0
 36 26  1  0  0  0  0
 38 28  1  0  0  0  0
 39 28  1  0  0  0  0
 42 30  1  0  0  0  0
M  END
$$$$
