APW.pdb
 OpenBabel07022418023D

 50 52  0  0  1  0  0  0  0  0999 V2000
   -0.1100   -3.3650    2.4490 C   0  0  0  0  0  0  0  0  0  0  0  0
    0.5290   -3.2930    1.0750 C   0  0  2  0  0  0  0  0  0  0  0  0
    0.3690   -4.6190    0.4620 N   0  0  0  0  0  0  0  0  0  0  0  0
    1.9910   -3.0250    1.1610 C   0  0  0  0  0  0  0  0  0  0  0  0
    2.8430   -3.8940    0.7880 O   0  0  0  0  0  0  0  0  0  0  0  0
    0.6300   -3.3120    3.2720 H   0  0  0  0  0  0  0  0  0  0  0  0
   -0.8470   -2.5630    2.5920 H   0  0  0  0  0  0  0  0  0  0  0  0
   -0.6340   -4.3450    2.6070 H   0  0  0  0  0  0  0  0  0  0  0  0
    0.0410   -2.5230    0.4430 H   0  0  0  0  0  0  0  0  0  0  0  0
   -0.5550   -4.6520    0.0020 H   0  0  0  0  0  0  0  0  0  0  0  0
    0.4030   -5.3190    1.2360 H   0  0  0  0  0  0  0  0  0  0  0  0
    2.4860   -1.7930    1.6610 N   0  0  0  0  0  0  0  0  0  0  0  0
    3.9070   -1.4360    1.7890 C   0  0  0  0  0  0  0  0  0  0  0  0
    3.8640   -0.7710    3.1720 C   0  0  0  0  0  0  0  0  0  0  0  0
    2.6990    0.1760    2.9750 C   0  0  0  0  0  0  0  0  0  0  0  0
    1.7470   -0.6410    2.1410 C   0  0  1  0  0  0  0  0  0  0  0  0
    1.2620    0.1030    0.9520 C   0  0  0  0  0  0  0  0  0  0  0  0
    1.4960   -0.2880   -0.2200 O   0  0  0  0  0  0  0  0  0  0  0  0
    4.1840   -0.6360    1.0690 H   0  0  0  0  0  0  0  0  0  0  0  0
    4.5550   -2.3090    1.7660 H   0  0  0  0  0  0  0  0  0  0  0  0
    3.6130   -1.5830    3.8830 H   0  0  0  0  0  0  0  0  0  0  0  0
    4.7990   -0.2510    3.4070 H   0  0  0  0  0  0  0  0  0  0  0  0
    2.3010    0.4040    3.9810 H   0  0  0  0  0  0  0  0  0  0  0  0
    3.0720    1.0710    2.4430 H   0  0  0  0  0  0  0  0  0  0  0  0
    0.9460   -0.9930    2.7880 H   0  0  0  0  0  0  0  0  0  0  0  0
    0.5000    1.3080    1.0680 N   0  0  0  0  0  0  0  0  0  0  0  0
    0.0240    2.0410   -0.0720 C   0  0  1  0  0  0  0  0  0  0  0  0
   -1.4770    2.1920    0.0610 C   0  0  0  0  0  0  0  0  0  0  0  0
   -2.1610    0.8930    0.1120 C   0  0  0  0  0  0  0  0  0  0  0  0
   -2.6900    0.2710    1.2230 C   0  0  0  0  0  0  0  0  0  0  0  0
   -3.2370   -0.9040    0.8770 N   0  0  0  0  0  0  0  0  0  0  0  0
   -3.0710   -1.0550   -0.4520 C   0  0  0  0  0  0  0  0  0  0  0  0
   -3.4700   -2.1050   -1.2520 C   0  0  0  0  0  0  0  0  0  0  0  0
   -3.1760   -2.0130   -2.5930 C   0  0  0  0  0  0  0  0  0  0  0  0
   -2.5130   -0.9190   -3.1040 C   0  0  0  0  0  0  0  0  0  0  0  0
   -2.1220    0.1170   -2.2990 C   0  0  0  0  0  0  0  0  0  0  0  0
   -2.4000    0.0580   -0.9520 C   0  0  0  0  0  0  0  0  0  0  0  0
    0.5770    3.4190   -0.1280 C   0  0  0  0  0  0  0  0  0  0  0  0
    1.3620    3.7750    0.7830 O   0  0  0  0  0  0  0  0  0  0  0  0
    0.2780    4.3300   -1.1230 O   0  0  0  0  0  0  0  0  0  0  0  0
    0.2860    1.6630    2.0240 H   0  0  0  0  0  0  0  0  0  0  0  0
    0.2930    1.5660   -1.0360 H   0  0  0  0  0  0  0  0  0  0  0  0
   -1.6660    2.7520    1.0060 H   0  0  0  0  0  0  0  0  0  0  0  0
   -1.8560    2.8270   -0.7670 H   0  0  0  0  0  0  0  0  0  0  0  0
   -2.6630    0.6760    2.2240 H   0  0  0  0  0  0  0  0  0  0  0  0
   -3.7010   -1.5640    1.5340 H   0  0  0  0  0  0  0  0  0  0  0  0
   -3.9950   -2.9710   -0.8490 H   0  0  0  0  0  0  0  0  0  0  0  0
   -3.4950   -2.8520   -3.2300 H   0  0  0  0  0  0  0  0  0  0  0  0
   -2.2850   -0.8560   -4.1650 H   0  0  0  0  0  0  0  0  0  0  0  0
   -1.5970    0.9990   -2.6590 H   0  0  0  0  0  0  0  0  0  0  0  0
  1  7  1  0  0  0  0
  1  8  1  0  0  0  0
  1  6  1  0  0  0  0
  2  9  1  6  0  0  0
  2  4  1  0  0  0  0
  2  1  1  0  0  0  0
  3  2  1  0  0  0  0
  3 11  1  0  0  0  0
  4 12  1  0  0  0  0
  5  4  2  0  0  0  0
 10  3  1  0  0  0  0
 12 13  1  0  0  0  0
 12 16  1  0  0  0  0
 13 14  1  0  0  0  0
 14 22  1  0  0  0  0
 14 21  1  0  0  0  0
 15 14  1  0  0  0  0
 15 23  1  0  0  0  0
 16 25  1  1  0  0  0
 16 15  1  0  0  0  0
 17 26  1  0  0  0  0
 17 16  1  0  0  0  0
 18 17  2  0  0  0  0
 19 13  1  0  0  0  0
 20 13  1  0  0  0  0
 24 15  1  0  0  0  0
 26 41  1  0  0  0  0
 27 42  1  6  0  0  0
 27 28  1  0  0  0  0
 27 26  1  0  0  0  0
 28 29  1  0  0  0  0
 28 43  1  0  0  0  0
 29 30  2  0  0  0  0
 30 45  1  0  0  0  0
 31 30  1  0  0  0  0
 31 46  1  0  0  0  0
 32 31  1  0  0  0  0
 33 47  1  0  0  0  0
 33 32  2  0  0  0  0
 34 33  1  0  0  0  0
 35 34  2  0  0  0  0
 35 36  1  0  0  0  0
 36 37  2  0  0  0  0
 37 32  1  0  0  0  0
 37 29  1  0  0  0  0
 38 27  1  0  0  0  0
 38 39  1  0  0  0  0
 40 38  2  0  0  0  0
 44 28  1  0  0  0  0
 48 34  1  0  0  0  0
 49 35  1  0  0  0  0
 50 36  1  0  0  0  0
M  END
$$$$
