APY.pdb
 OpenBabel07022418023D

 47 48  0  0  1  0  0  0  0  0999 V2000
    2.5620   -4.2800    0.9630 C   0  0  0  0  0  0  0  0  0  0  0  0
    1.3080   -4.0090    0.1800 C   0  0  2  0  0  0  0  0  0  0  0  0
    0.9710   -5.1720   -0.6160 N   0  0  0  0  0  0  0  0  0  0  0  0
    1.4020   -2.8340   -0.7040 C   0  0  0  0  0  0  0  0  0  0  0  0
    1.2500   -3.0260   -1.9560 O   0  0  0  0  0  0  0  0  0  0  0  0
    2.8520   -5.3450    0.7800 H   0  0  0  0  0  0  0  0  0  0  0  0
    3.4380   -3.6910    0.6270 H   0  0  0  0  0  0  0  0  0  0  0  0
    2.4070   -4.2330    2.0690 H   0  0  0  0  0  0  0  0  0  0  0  0
    0.5020   -3.8160    0.9500 H   0  0  0  0  0  0  0  0  0  0  0  0
    1.7570   -5.8610   -0.6630 H   0  0  0  0  0  0  0  0  0  0  0  0
    0.0820   -5.5700   -0.2890 H   0  0  0  0  0  0  0  0  0  0  0  0
    1.6510   -1.5320   -0.2000 N   0  0  0  0  0  0  0  0  0  0  0  0
    1.7560   -0.3540   -1.0370 C   0  0  0  0  0  0  0  0  0  0  0  0
    2.1390    0.7830   -0.1460 C   0  0  0  0  0  0  0  0  0  0  0  0
    2.6920    0.0960    1.0780 C   0  0  0  0  0  0  0  0  0  0  0  0
    1.8330   -1.1490    1.1580 C   0  0  1  0  0  0  0  0  0  0  0  0
    0.5180   -0.8720    1.8220 C   0  0  0  0  0  0  0  0  0  0  0  0
    0.4650   -0.5080    3.0180 O   0  0  0  0  0  0  0  0  0  0  0  0
    2.4710   -0.4760   -1.8660 H   0  0  0  0  0  0  0  0  0  0  0  0
    0.7470   -0.1330   -1.4550 H   0  0  0  0  0  0  0  0  0  0  0  0
    2.8750    1.4740   -0.6080 H   0  0  0  0  0  0  0  0  0  0  0  0
    1.2380    1.3430    0.1900 H   0  0  0  0  0  0  0  0  0  0  0  0
    3.7390   -0.2820    0.8820 H   0  0  0  0  0  0  0  0  0  0  0  0
    2.6190    0.7090    1.9760 H   0  0  0  0  0  0  0  0  0  0  0  0
    2.4090   -1.8670    1.7770 H   0  0  0  0  0  0  0  0  0  0  0  0
   -0.6020    5.4070    0.4840 O   0  0  0  0  0  0  0  0  0  0  0  0
   -1.1700    4.1490    0.6510 C   0  0  0  0  0  0  0  0  0  0  0  0
   -1.9100    3.8020    1.7650 C   0  0  0  0  0  0  0  0  0  0  0  0
   -2.4720    2.5520    1.9260 C   0  0  0  0  0  0  0  0  0  0  0  0
   -2.3140    1.6000    0.9780 C   0  0  0  0  0  0  0  0  0  0  0  0
   -2.8920    0.2130    1.0680 C   0  0  0  0  0  0  0  0  0  0  0  0
   -2.0010   -0.7540    1.7300 C   0  0  2  0  0  0  0  0  0  0  0  0
   -0.7320   -0.9960    1.1700 N   0  0  0  0  0  0  0  0  0  0  0  0
   -2.7140   -2.0550    1.8460 C   0  0  0  0  0  0  0  0  0  0  0  0
   -3.8730   -2.0820    2.3240 O   0  0  0  0  0  0  0  0  0  0  0  0
   -1.5800    1.9100   -0.1500 C   0  0  0  0  0  0  0  0  0  0  0  0
   -1.0210    3.1620   -0.3050 C   0  0  0  0  0  0  0  0  0  0  0  0
   -2.1380   -3.2380    1.4430 O   0  0  0  0  0  0  0  0  0  0  0  0
   -0.2320    5.9320    1.2780 H   0  0  0  0  0  0  0  0  0  0  0  0
   -2.0330    4.5840    2.5320 H   0  0  0  0  0  0  0  0  0  0  0  0
   -3.0520    2.2980    2.8110 H   0  0  0  0  0  0  0  0  0  0  0  0
   -3.3150   -0.1190    0.1010 H   0  0  0  0  0  0  0  0  0  0  0  0
   -3.7880    0.3600    1.7350 H   0  0  0  0  0  0  0  0  0  0  0  0
   -1.8530   -0.4180    2.7990 H   0  0  0  0  0  0  0  0  0  0  0  0
   -0.6970   -1.3050    0.1560 H   0  0  0  0  0  0  0  0  0  0  0  0
   -1.4450    1.1430   -0.9280 H   0  0  0  0  0  0  0  0  0  0  0  0
   -0.4450    3.3920   -1.1990 H   0  0  0  0  0  0  0  0  0  0  0  0
  1  8  1  0  0  0  0
  2  9  1  1  0  0  0
  2  1  1  0  0  0  0
  3 11  1  0  0  0  0
  3  2  1  0  0  0  0
  4 12  1  0  0  0  0
  4  2  1  0  0  0  0
  5  4  2  0  0  0  0
  6  1  1  0  0  0  0
  7  1  1  0  0  0  0
 10  3  1  0  0  0  0
 12 16  1  0  0  0  0
 13 12  1  0  0  0  0
 13 14  1  0  0  0  0
 14 22  1  0  0  0  0
 14 15  1  0  0  0  0
 15 16  1  0  0  0  0
 15 24  1  0  0  0  0
 16 25  1  1  0  0  0
 16 17  1  0  0  0  0
 17 18  2  0  0  0  0
 19 13  1  0  0  0  0
 20 13  1  0  0  0  0
 21 14  1  0  0  0  0
 23 15  1  0  0  0  0
 26 27  1  0  0  0  0
 26 39  1  0  0  0  0
 27 28  1  0  0  0  0
 28 29  2  0  0  0  0
 28 40  1  0  0  0  0
 29 41  1  0  0  0  0
 30 31  1  0  0  0  0
 30 29  1  0  0  0  0
 31 32  1  0  0  0  0
 31 43  1  0  0  0  0
 32 34  1  0  0  0  0
 32 44  1  1  0  0  0
 33 32  1  0  0  0  0
 33 17  1  0  0  0  0
 34 35  1  0  0  0  0
 36 30  2  0  0  0  0
 37 36  1  0  0  0  0
 37 27  2  0  0  0  0
 38 34  2  0  0  0  0
 42 31  1  0  0  0  0
 45 33  1  0  0  0  0
 46 36  1  0  0  0  0
 47 37  1  0  0  0  0
M  END
$$$$
