AQA.pdb
 OpenBabel07022418003D

 39 38  0  0  1  0  0  0  0  0999 V2000
   -2.1450   -1.5870    3.1550 C   0  0  0  0  0  0  0  0  0  0  0  0
   -1.0520   -0.9050    3.9450 C   0  0  2  0  0  0  0  0  0  0  0  0
   -1.6370   -0.2650    5.0890 N   0  0  0  0  0  0  0  0  0  0  0  0
   -0.2740    0.0490    3.1520 C   0  0  0  0  0  0  0  0  0  0  0  0
   -0.1990    1.2360    3.5170 O   0  0  0  0  0  0  0  0  0  0  0  0
   -3.0040   -0.8830    3.1090 H   0  0  0  0  0  0  0  0  0  0  0  0
   -2.4490   -2.4820    3.7470 H   0  0  0  0  0  0  0  0  0  0  0  0
   -1.8130   -1.9450    2.1790 H   0  0  0  0  0  0  0  0  0  0  0  0
   -0.3390   -1.6810    4.3380 H   0  0  0  0  0  0  0  0  0  0  0  0
   -1.6490    0.7630    4.9000 H   0  0  0  0  0  0  0  0  0  0  0  0
   -1.1250   -0.4800    5.9700 H   0  0  0  0  0  0  0  0  0  0  0  0
    4.6350   -2.6540   -0.1030 N   0  0  0  0  0  0  0  0  0  0  0  0
    4.2640   -1.4070    0.4410 C   0  0  0  0  0  0  0  0  0  0  0  0
    5.1510   -0.6280    0.8430 O   0  0  0  0  0  0  0  0  0  0  0  0
    2.8550   -1.0220    0.5370 C   0  0  0  0  0  0  0  0  0  0  0  0
    2.6600    0.3500    1.1470 C   0  0  0  0  0  0  0  0  0  0  0  0
    1.1770    0.6270    1.1870 C   0  0  2  0  0  0  0  0  0  0  0  0
    0.4230   -0.3020    1.9540 N   0  0  0  0  0  0  0  0  0  0  0  0
    0.6560    0.8380   -0.1870 C   0  0  0  0  0  0  0  0  0  0  0  0
    1.2690    1.6470   -0.9280 O   0  0  0  0  0  0  0  0  0  0  0  0
    4.5850   -2.7850   -1.1350 H   0  0  0  0  0  0  0  0  0  0  0  0
    4.9600   -3.4640    0.4670 H   0  0  0  0  0  0  0  0  0  0  0  0
    2.2490   -1.7710    1.1250 H   0  0  0  0  0  0  0  0  0  0  0  0
    2.3710   -1.0210   -0.4750 H   0  0  0  0  0  0  0  0  0  0  0  0
    3.1430    0.4500    2.1270 H   0  0  0  0  0  0  0  0  0  0  0  0
    3.1730    1.0630    0.4680 H   0  0  0  0  0  0  0  0  0  0  0  0
    1.0830    1.6290    1.7030 H   0  0  0  0  0  0  0  0  0  0  0  0
    0.3500   -1.2990    1.6580 H   0  0  0  0  0  0  0  0  0  0  0  0
   -0.9360   -0.9360   -2.8060 C   0  0  0  0  0  0  0  0  0  0  0  0
   -1.0000    0.3810   -2.0340 C   0  0  2  0  0  0  0  0  0  0  0  0
   -0.4910    0.1740   -0.6920 N   0  0  0  0  0  0  0  0  0  0  0  0
   -2.4170    0.7980   -2.0010 C   0  0  0  0  0  0  0  0  0  0  0  0
   -2.9790    0.9170   -0.8840 O   0  0  0  0  0  0  0  0  0  0  0  0
   -3.1590    1.0640   -3.1250 O   0  0  0  0  0  0  0  0  0  0  0  0
    0.1080   -1.0360   -3.2090 H   0  0  0  0  0  0  0  0  0  0  0  0
   -1.6920   -1.0080   -3.5860 H   0  0  0  0  0  0  0  0  0  0  0  0
   -1.0390   -1.7550   -2.0540 H   0  0  0  0  0  0  0  0  0  0  0  0
   -0.3920    1.1070   -2.6000 H   0  0  0  0  0  0  0  0  0  0  0  0
   -0.9750   -0.4890   -0.0490 H   0  0  0  0  0  0  0  0  0  0  0  0
  1  7  1  0  0  0  0
  1  2  1  0  0  0  0
  2  9  1  1  0  0  0
  2  3  1  0  0  0  0
  3 11  1  0  0  0  0
  4  5  2  0  0  0  0
  4  2  1  0  0  0  0
  6  1  1  0  0  0  0
  8  1  1  0  0  0  0
 10  3  1  0  0  0  0
 12 13  1  0  0  0  0
 12 22  1  0  0  0  0
 13 15  1  0  0  0  0
 13 14  2  0  0  0  0
 15 23  1  0  0  0  0
 15 16  1  0  0  0  0
 16 17  1  0  0  0  0
 16 25  1  0  0  0  0
 17 27  1  1  0  0  0
 17 18  1  0  0  0  0
 18  4  1  0  0  0  0
 19 17  1  0  0  0  0
 20 19  2  0  0  0  0
 21 12  1  0  0  0  0
 24 15  1  0  0  0  0
 26 16  1  0  0  0  0
 28 18  1  0  0  0  0
 29 37  1  0  0  0  0
 29 30  1  0  0  0  0
 30 38  1  6  0  0  0
 30 32  1  0  0  0  0
 30 31  1  0  0  0  0
 31 19  1  0  0  0  0
 31 39  1  0  0  0  0
 32 33  1  0  0  0  0
 34 32  2  0  0  0  0
 35 29  1  0  0  0  0
 36 29  1  0  0  0  0
M  END
$$$$
