AQC.pdb
 OpenBabel07022418003D

 40 39  0  0  1  0  0  0  0  0999 V2000
    2.7130   -3.7550    2.9960 C   0  0  0  0  0  0  0  0  0  0  0  0
    1.5090   -2.8370    2.9890 C   0  0  2  0  0  0  0  0  0  0  0  0
    0.5730   -3.3440    2.0140 N   0  0  0  0  0  0  0  0  0  0  0  0
    1.9060   -1.4510    2.5740 C   0  0  0  0  0  0  0  0  0  0  0  0
    2.7260   -0.7760    3.2640 O   0  0  0  0  0  0  0  0  0  0  0  0
    2.3590   -4.7340    3.3870 H   0  0  0  0  0  0  0  0  0  0  0  0
    3.0470   -3.8740    1.9510 H   0  0  0  0  0  0  0  0  0  0  0  0
    3.4940   -3.3400    3.6600 H   0  0  0  0  0  0  0  0  0  0  0  0
    1.0330   -2.8420    3.9900 H   0  0  0  0  0  0  0  0  0  0  0  0
   -0.4080   -3.3780    2.3650 H   0  0  0  0  0  0  0  0  0  0  0  0
    0.9030   -4.2070    1.5720 H   0  0  0  0  0  0  0  0  0  0  0  0
    1.3770   -0.9460   -3.8440 N   0  0  0  0  0  0  0  0  0  0  0  0
    2.0990   -0.3590   -2.7710 C   0  0  0  0  0  0  0  0  0  0  0  0
    3.2590    0.0570   -3.0170 O   0  0  0  0  0  0  0  0  0  0  0  0
    1.4560   -0.2680   -1.4380 C   0  0  0  0  0  0  0  0  0  0  0  0
    2.3700    0.3830   -0.4220 C   0  0  0  0  0  0  0  0  0  0  0  0
    1.7130    0.4750    0.9380 C   0  0  2  0  0  0  0  0  0  0  0  0
    1.3840   -0.8490    1.4060 N   0  0  0  0  0  0  0  0  0  0  0  0
    0.4960    1.3470    0.8860 C   0  0  0  0  0  0  0  0  0  0  0  0
    0.5650    2.5430    0.5050 O   0  0  0  0  0  0  0  0  0  0  0  0
    1.8440   -1.6250   -4.4840 H   0  0  0  0  0  0  0  0  0  0  0  0
    0.3670   -0.7100   -4.0110 H   0  0  0  0  0  0  0  0  0  0  0  0
    0.5340    0.3640   -1.5020 H   0  0  0  0  0  0  0  0  0  0  0  0
    1.1460   -1.2740   -1.1520 H   0  0  0  0  0  0  0  0  0  0  0  0
    3.3280   -0.1690   -0.3560 H   0  0  0  0  0  0  0  0  0  0  0  0
    2.6250    1.4100   -0.7540 H   0  0  0  0  0  0  0  0  0  0  0  0
    2.4400    0.9760    1.6210 H   0  0  0  0  0  0  0  0  0  0  0  0
    0.7130   -1.3970    0.8380 H   0  0  0  0  0  0  0  0  0  0  0  0
   -0.7730    0.8540    1.2660 N   0  0  0  0  0  0  0  0  0  0  0  0
   -1.9890    1.6360    1.2420 C   0  0  1  0  0  0  0  0  0  0  0  0
   -2.9940    0.9000    0.3670 C   0  0  0  0  0  0  0  0  0  0  0  0
   -3.2650   -0.7300    1.1240 S   0  0  0  0  0  0  0  0  0  0  0  0
   -2.5500    1.6460    2.6150 C   0  0  0  0  0  0  0  0  0  0  0  0
   -1.9700    1.0430    3.5320 O   0  0  0  0  0  0  0  0  0  0  0  0
   -3.7260    2.3150    2.9380 O   0  0  0  0  0  0  0  0  0  0  0  0
   -0.8390   -0.1300    1.5810 H   0  0  0  0  0  0  0  0  0  0  0  0
   -1.8240    2.6700    0.8930 H   0  0  0  0  0  0  0  0  0  0  0  0
   -2.6340    0.8100   -0.6750 H   0  0  0  0  0  0  0  0  0  0  0  0
   -3.9380    1.4580    0.4360 H   0  0  0  0  0  0  0  0  0  0  0  0
   -3.6710   -1.6680    0.1550 H   0  0  0  0  0  0  0  0  0  0  0  0
  1  6  1  0  0  0  0
  1  8  1  0  0  0  0
  2  1  1  0  0  0  0
  2  9  1  1  0  0  0
  3 10  1  0  0  0  0
  3  2  1  0  0  0  0
  4  2  1  0  0  0  0
  4  5  2  0  0  0  0
  7  1  1  0  0  0  0
 11  3  1  0  0  0  0
 12 13  1  0  0  0  0
 13 15  1  0  0  0  0
 14 13  2  0  0  0  0
 15 24  1  0  0  0  0
 15 16  1  0  0  0  0
 16 25  1  0  0  0  0
 16 17  1  0  0  0  0
 17 18  1  0  0  0  0
 17 27  1  1  0  0  0
 18  4  1  0  0  0  0
 19 17  1  0  0  0  0
 19 29  1  0  0  0  0
 20 19  2  0  0  0  0
 21 12  1  0  0  0  0
 22 12  1  0  0  0  0
 23 15  1  0  0  0  0
 26 16  1  0  0  0  0
 28 18  1  0  0  0  0
 29 36  1  0  0  0  0
 30 37  1  6  0  0  0
 30 29  1  0  0  0  0
 30 33  1  0  0  0  0
 31 39  1  0  0  0  0
 31 32  1  0  0  0  0
 31 30  1  0  0  0  0
 33 35  2  0  0  0  0
 33 34  1  0  0  0  0
 38 31  1  0  0  0  0
 40 32  1  0  0  0  0
M  END
$$$$
