AQG.pdb
 OpenBabel07022418003D

 36 35  0  0  1  0  0  0  0  0999 V2000
   -1.4680   -0.6270    3.9480 C   0  0  0  0  0  0  0  0  0  0  0  0
   -2.2620    0.2600    2.9790 C   0  0  2  0  0  0  0  0  0  0  0  0
   -3.6450   -0.1110    3.0150 N   0  0  0  0  0  0  0  0  0  0  0  0
   -1.6640    0.0280    1.6350 C   0  0  0  0  0  0  0  0  0  0  0  0
   -2.3930   -0.4430    0.7240 O   0  0  0  0  0  0  0  0  0  0  0  0
   -0.9820   -1.4630    3.4020 H   0  0  0  0  0  0  0  0  0  0  0  0
   -0.6970   -0.0190    4.4330 H   0  0  0  0  0  0  0  0  0  0  0  0
   -2.1920   -1.0770    4.6580 H   0  0  0  0  0  0  0  0  0  0  0  0
   -2.1780    1.3190    3.2930 H   0  0  0  0  0  0  0  0  0  0  0  0
   -3.8360   -0.8950    2.3430 H   0  0  0  0  0  0  0  0  0  0  0  0
   -3.8610   -0.4220    3.9900 H   0  0  0  0  0  0  0  0  0  0  0  0
    0.8410    0.3670   -4.3090 N   0  0  0  0  0  0  0  0  0  0  0  0
    0.4240    0.6860   -2.9980 C   0  0  0  0  0  0  0  0  0  0  0  0
   -0.7880    0.5290   -2.7300 O   0  0  0  0  0  0  0  0  0  0  0  0
    1.3630    1.1870   -1.9740 C   0  0  0  0  0  0  0  0  0  0  0  0
    0.7670    1.3330   -0.6050 C   0  0  0  0  0  0  0  0  0  0  0  0
    0.2550    0.0670   -0.0220 C   0  0  2  0  0  0  0  0  0  0  0  0
   -0.3160    0.3080    1.3260 N   0  0  0  0  0  0  0  0  0  0  0  0
    1.3180   -0.9620    0.1490 C   0  0  0  0  0  0  0  0  0  0  0  0
    1.9820   -1.4200   -0.8000 O   0  0  0  0  0  0  0  0  0  0  0  0
    1.5520    0.9590   -4.7710 H   0  0  0  0  0  0  0  0  0  0  0  0
    0.4530   -0.4450   -4.8170 H   0  0  0  0  0  0  0  0  0  0  0  0
    1.7780    2.1940   -2.3220 H   0  0  0  0  0  0  0  0  0  0  0  0
    2.2630    0.5310   -1.9490 H   0  0  0  0  0  0  0  0  0  0  0  0
    1.5380    1.7360    0.0860 H   0  0  0  0  0  0  0  0  0  0  0  0
   -0.0550    2.0930   -0.5890 H   0  0  0  0  0  0  0  0  0  0  0  0
   -0.5540   -0.3360   -0.6360 H   0  0  0  0  0  0  0  0  0  0  0  0
    0.2840    0.6970    2.0810 H   0  0  0  0  0  0  0  0  0  0  0  0
    1.6380   -1.4880    1.4430 N   0  0  0  0  0  0  0  0  0  0  0  0
    2.6660   -2.4830    1.6040 C   0  0  0  0  0  0  0  0  0  0  0  0
    2.3790   -3.7200    0.8440 C   0  0  0  0  0  0  0  0  0  0  0  0
    1.3240   -3.7790    0.1700 O   0  0  0  0  0  0  0  0  0  0  0  0
    3.2320   -4.8080    0.8520 O   0  0  0  0  0  0  0  0  0  0  0  0
    1.1230   -1.1510    2.2800 H   0  0  0  0  0  0  0  0  0  0  0  0
    2.7810   -2.7660    2.6610 H   0  0  0  0  0  0  0  0  0  0  0  0
    3.6450   -2.0830    1.2660 H   0  0  0  0  0  0  0  0  0  0  0  0
  1  7  1  0  0  0  0
  1  8  1  0  0  0  0
  2  3  1  0  0  0  0
  2  9  1  1  0  0  0
  2  1  1  0  0  0  0
  3 11  1  0  0  0  0
  4  2  1  0  0  0  0
  5  4  2  0  0  0  0
  6  1  1  0  0  0  0
 10  3  1  0  0  0  0
 12 13  1  0  0  0  0
 13 14  2  0  0  0  0
 13 15  1  0  0  0  0
 15 24  1  0  0  0  0
 15 16  1  0  0  0  0
 16 26  1  0  0  0  0
 16 17  1  0  0  0  0
 16 25  1  0  0  0  0
 17 27  1  6  0  0  0
 17 19  1  0  0  0  0
 17 18  1  0  0  0  0
 18  4  1  0  0  0  0
 18 28  1  0  0  0  0
 19 29  1  0  0  0  0
 20 19  2  0  0  0  0
 21 12  1  0  0  0  0
 22 12  1  0  0  0  0
 23 15  1  0  0  0  0
 29 30  1  0  0  0  0
 29 34  1  0  0  0  0
 30 35  1  0  0  0  0
 31 33  1  0  0  0  0
 31 30  1  0  0  0  0
 32 31  2  0  0  0  0
 36 30  1  0  0  0  0
M  END
$$$$
