AQH.pdb
 OpenBabel07022418003D

 46 46  0  0  1  0  0  0  0  0999 V2000
    4.4800   -3.5920    1.5550 C   0  0  0  0  0  0  0  0  0  0  0  0
    2.9610   -3.4670    1.7310 C   0  0  2  0  0  0  0  0  0  0  0  0
    2.3750   -3.9010    0.4980 N   0  0  0  0  0  0  0  0  0  0  0  0
    2.6700   -2.0170    2.0020 C   0  0  0  0  0  0  0  0  0  0  0  0
    3.0880   -1.4720    3.0520 O   0  0  0  0  0  0  0  0  0  0  0  0
    4.6820   -3.2320    0.5070 H   0  0  0  0  0  0  0  0  0  0  0  0
    5.0270   -2.9370    2.2310 H   0  0  0  0  0  0  0  0  0  0  0  0
    4.7300   -4.6580    1.6130 H   0  0  0  0  0  0  0  0  0  0  0  0
    2.6960   -4.1070    2.5730 H   0  0  0  0  0  0  0  0  0  0  0  0
    2.9020   -3.6780   -0.3510 H   0  0  0  0  0  0  0  0  0  0  0  0
    1.3510   -3.7550    0.4420 H   0  0  0  0  0  0  0  0  0  0  0  0
    3.0100    4.6190   -0.5030 N   0  0  0  0  0  0  0  0  0  0  0  0
    3.0270    3.2020   -0.5080 C   0  0  0  0  0  0  0  0  0  0  0  0
    3.6540    2.5120   -1.3430 O   0  0  0  0  0  0  0  0  0  0  0  0
    2.2450    2.4910    0.5560 C   0  0  0  0  0  0  0  0  0  0  0  0
    2.3950    1.0150    0.3920 C   0  0  0  0  0  0  0  0  0  0  0  0
    1.6660    0.1790    1.4000 C   0  0  2  0  0  0  0  0  0  0  0  0
    1.9270   -1.2330    1.0930 N   0  0  0  0  0  0  0  0  0  0  0  0
    0.2220    0.4180    1.4740 C   0  0  0  0  0  0  0  0  0  0  0  0
   -0.2420    1.5360    1.7400 O   0  0  0  0  0  0  0  0  0  0  0  0
    2.7970    5.1090   -1.3880 H   0  0  0  0  0  0  0  0  0  0  0  0
    3.2160    5.0890    0.4060 H   0  0  0  0  0  0  0  0  0  0  0  0
    1.1890    2.8550    0.5270 H   0  0  0  0  0  0  0  0  0  0  0  0
    2.6570    2.8650    1.5160 H   0  0  0  0  0  0  0  0  0  0  0  0
    2.0240    0.7240   -0.6150 H   0  0  0  0  0  0  0  0  0  0  0  0
    3.4800    0.7860    0.5030 H   0  0  0  0  0  0  0  0  0  0  0  0
    2.1140    0.4290    2.3970 H   0  0  0  0  0  0  0  0  0  0  0  0
    1.5450   -1.5940    0.2060 H   0  0  0  0  0  0  0  0  0  0  0  0
   -0.6650   -0.6430    1.2380 N   0  0  0  0  0  0  0  0  0  0  0  0
   -2.0930   -0.4380    1.3020 C   0  0  1  0  0  0  0  0  0  0  0  0
   -2.6930   -0.6980   -0.0580 C   0  0  0  0  0  0  0  0  0  0  0  0
   -4.1420   -0.5250   -0.1350 C   0  0  0  0  0  0  0  0  0  0  0  0
   -5.1110   -1.4690    0.0730 C   0  0  0  0  0  0  0  0  0  0  0  0
   -6.2910   -0.8590   -0.1100 N   0  0  0  0  0  0  0  0  0  0  0  0
   -6.0700    0.4300   -0.4240 C   0  0  0  0  0  0  0  0  0  0  0  0
   -4.7480    0.6360   -0.4400 N   0  0  0  0  0  0  0  0  0  0  0  0
   -2.7380   -1.1960    2.3720 C   0  0  0  0  0  0  0  0  0  0  0  0
   -3.9730   -1.0950    2.5420 O   0  0  0  0  0  0  0  0  0  0  0  0
   -2.0300   -2.0290    3.2150 O   0  0  0  0  0  0  0  0  0  0  0  0
   -0.3310   -1.6270    1.0070 H   0  0  0  0  0  0  0  0  0  0  0  0
   -2.2640    0.6350    1.5230 H   0  0  0  0  0  0  0  0  0  0  0  0
   -2.4440   -1.7530   -0.3470 H   0  0  0  0  0  0  0  0  0  0  0  0
   -2.2100   -0.0570   -0.8230 H   0  0  0  0  0  0  0  0  0  0  0  0
   -5.0010   -2.5240    0.3380 H   0  0  0  0  0  0  0  0  0  0  0  0
   -7.2330   -1.3450   -0.0160 H   0  0  0  0  0  0  0  0  0  0  0  0
   -6.8300    1.1780   -0.6310 H   0  0  0  0  0  0  0  0  0  0  0  0
  1  8  1  0  0  0  0
  1  2  1  0  0  0  0
  1  7  1  0  0  0  0
  2  4  1  0  0  0  0
  2  9  1  1  0  0  0
  3  2  1  0  0  0  0
  4  5  2  0  0  0  0
  6  1  1  0  0  0  0
 10  3  1  0  0  0  0
 11  3  1  0  0  0  0
 12 22  1  0  0  0  0
 13 12  1  0  0  0  0
 13 15  1  0  0  0  0
 14 13  2  0  0  0  0
 15 24  1  0  0  0  0
 16 26  1  0  0  0  0
 16 15  1  0  0  0  0
 16 17  1  0  0  0  0
 17 19  1  0  0  0  0
 17 27  1  1  0  0  0
 18 17  1  0  0  0  0
 18  4  1  0  0  0  0
 19 20  2  0  0  0  0
 21 12  1  0  0  0  0
 23 15  1  0  0  0  0
 25 16  1  0  0  0  0
 28 18  1  0  0  0  0
 29 30  1  0  0  0  0
 29 19  1  0  0  0  0
 30 41  1  1  0  0  0
 30 37  1  0  0  0  0
 31 30  1  0  0  0  0
 32 31  1  0  0  0  0
 32 33  2  0  0  0  0
 33 44  1  0  0  0  0
 34 45  1  0  0  0  0
 34 33  1  0  0  0  0
 35 34  1  0  0  0  0
 36 35  2  0  0  0  0
 36 32  1  0  0  0  0
 37 38  2  0  0  0  0
 37 39  1  0  0  0  0
 40 29  1  0  0  0  0
 42 31  1  0  0  0  0
 43 31  1  0  0  0  0
 46 35  1  0  0  0  0
M  END
$$$$
