AQI.pdb
 OpenBabel07022418003D

 48 47  0  0  1  0  0  0  0  0999 V2000
    2.0420   -2.2550    3.0920 C   0  0  0  0  0  0  0  0  0  0  0  0
    3.1640   -2.1130    2.0750 C   0  0  2  0  0  0  0  0  0  0  0  0
    4.3940   -1.9270    2.8090 N   0  0  0  0  0  0  0  0  0  0  0  0
    2.9430   -0.9490    1.1850 C   0  0  0  0  0  0  0  0  0  0  0  0
    3.8250   -0.0250    1.2110 O   0  0  0  0  0  0  0  0  0  0  0  0
    2.0620   -3.3230    3.4200 H   0  0  0  0  0  0  0  0  0  0  0  0
    2.2290   -1.6430    3.9950 H   0  0  0  0  0  0  0  0  0  0  0  0
    1.0820   -1.9840    2.6250 H   0  0  0  0  0  0  0  0  0  0  0  0
    3.2540   -3.0570    1.4670 H   0  0  0  0  0  0  0  0  0  0  0  0
    4.9940   -2.7700    2.7610 H   0  0  0  0  0  0  0  0  0  0  0  0
    4.2230   -1.5920    3.7800 H   0  0  0  0  0  0  0  0  0  0  0  0
    0.2920   -3.2170   -3.2150 N   0  0  0  0  0  0  0  0  0  0  0  0
    1.1770   -2.3250   -2.5460 C   0  0  0  0  0  0  0  0  0  0  0  0
    2.0130   -2.8850   -1.8010 O   0  0  0  0  0  0  0  0  0  0  0  0
    1.0520   -0.8990   -2.7690 C   0  0  0  0  0  0  0  0  0  0  0  0
    1.7670    0.0590   -1.9470 C   0  0  0  0  0  0  0  0  0  0  0  0
    1.5670    0.2170   -0.5060 C   0  0  2  0  0  0  0  0  0  0  0  0
    1.8000   -0.8860    0.3540 N   0  0  0  0  0  0  0  0  0  0  0  0
    0.2870    0.9480   -0.1520 C   0  0  0  0  0  0  0  0  0  0  0  0
   -0.0660    1.9560   -0.8230 O   0  0  0  0  0  0  0  0  0  0  0  0
    0.3670   -3.4580   -4.2170 H   0  0  0  0  0  0  0  0  0  0  0  0
   -0.4870   -3.6680   -2.6830 H   0  0  0  0  0  0  0  0  0  0  0  0
    1.3770   -0.7250   -3.8480 H   0  0  0  0  0  0  0  0  0  0  0  0
   -0.0490   -0.6150   -2.8560 H   0  0  0  0  0  0  0  0  0  0  0  0
    1.5990    1.0840   -2.4030 H   0  0  0  0  0  0  0  0  0  0  0  0
    2.8820   -0.0770   -2.1180 H   0  0  0  0  0  0  0  0  0  0  0  0
    2.3570    0.9900   -0.1960 H   0  0  0  0  0  0  0  0  0  0  0  0
    1.1170   -1.6650    0.3950 H   0  0  0  0  0  0  0  0  0  0  0  0
   -2.9940   -0.8690    3.2890 C   0  0  0  0  0  0  0  0  0  0  0  0
   -3.0950   -0.9420    1.7820 C   0  0  0  0  0  0  0  0  0  0  0  0
   -2.9860    0.3570    1.0950 C   0  0  2  0  0  0  0  0  0  0  0  0
   -3.1050    0.1150   -0.4010 C   0  0  0  0  0  0  0  0  0  0  0  0
   -1.7570    1.1640    1.3210 C   0  0  2  0  0  0  0  0  0  0  0  0
   -0.5340    0.5200    0.9310 N   0  0  0  0  0  0  0  0  0  0  0  0
   -1.6800    1.8130    2.6440 C   0  0  0  0  0  0  0  0  0  0  0  0
   -0.6130    1.7530    3.2920 O   0  0  0  0  0  0  0  0  0  0  0  0
   -2.7200    2.4990    3.2360 O   0  0  0  0  0  0  0  0  0  0  0  0
   -1.8990   -0.7950    3.5250 H   0  0  0  0  0  0  0  0  0  0  0  0
   -3.3310   -1.8120    3.7690 H   0  0  0  0  0  0  0  0  0  0  0  0
   -3.5830   -0.0630    3.7210 H   0  0  0  0  0  0  0  0  0  0  0  0
   -4.1160   -1.3370    1.5650 H   0  0  0  0  0  0  0  0  0  0  0  0
   -2.4050   -1.6970    1.3570 H   0  0  0  0  0  0  0  0  0  0  0  0
   -3.8590    0.9860    1.3720 H   0  0  0  0  0  0  0  0  0  0  0  0
   -3.4460    1.0250   -0.9350 H   0  0  0  0  0  0  0  0  0  0  0  0
   -2.1240   -0.1550   -0.8480 H   0  0  0  0  0  0  0  0  0  0  0  0
   -3.7900   -0.7400   -0.6140 H   0  0  0  0  0  0  0  0  0  0  0  0
   -1.8830    2.0330    0.5980 H   0  0  0  0  0  0  0  0  0  0  0  0
   -0.1880   -0.3210    1.4490 H   0  0  0  0  0  0  0  0  0  0  0  0
  1  6  1  0  0  0  0
  1  7  1  0  0  0  0
  2  9  1  6  0  0  0
  2  3  1  0  0  0  0
  2  1  1  0  0  0  0
  3 11  1  0  0  0  0
  4  5  2  0  0  0  0
  4  2  1  0  0  0  0
  8  1  1  0  0  0  0
 10  3  1  0  0  0  0
 12 22  1  0  0  0  0
 12 13  1  0  0  0  0
 13 14  2  0  0  0  0
 15 13  1  0  0  0  0
 15 16  1  0  0  0  0
 16 17  1  0  0  0  0
 17 27  1  1  0  0  0
 17 19  1  0  0  0  0
 17 18  1  0  0  0  0
 18 28  1  0  0  0  0
 18  4  1  0  0  0  0
 19 34  1  0  0  0  0
 20 19  2  0  0  0  0
 21 12  1  0  0  0  0
 23 15  1  0  0  0  0
 24 15  1  0  0  0  0
 25 16  1  0  0  0  0
 26 16  1  0  0  0  0
 29 38  1  0  0  0  0
 29 40  1  0  0  0  0
 29 39  1  0  0  0  0
 30 29  1  0  0  0  0
 31 33  1  0  0  0  0
 31 43  1  1  0  0  0
 31 30  1  0  0  0  0
 32 31  1  0  0  0  0
 33 47  1  6  0  0  0
 33 35  1  0  0  0  0
 34 33  1  0  0  0  0
 34 48  1  0  0  0  0
 35 37  2  0  0  0  0
 35 36  1  0  0  0  0
 41 30  1  0  0  0  0
 42 30  1  0  0  0  0
 44 32  1  0  0  0  0
 45 32  1  0  0  0  0
 46 32  1  0  0  0  0
M  END
$$$$
