AQM.pdb
 OpenBabel07022418003D

 46 45  0  0  1  0  0  0  0  0999 V2000
    2.5220   -4.4220    1.5860 C   0  0  0  0  0  0  0  0  0  0  0  0
    1.8270   -3.2110    2.2140 C   0  0  2  0  0  0  0  0  0  0  0  0
    0.4140   -3.5110    2.2440 N   0  0  0  0  0  0  0  0  0  0  0  0
    2.0330   -2.0370    1.3410 C   0  0  0  0  0  0  0  0  0  0  0  0
    3.2020   -1.6060    1.1870 O   0  0  0  0  0  0  0  0  0  0  0  0
    3.1130   -4.9690    2.3560 H   0  0  0  0  0  0  0  0  0  0  0  0
    1.7990   -5.0550    1.0650 H   0  0  0  0  0  0  0  0  0  0  0  0
    3.2560   -4.0480    0.8500 H   0  0  0  0  0  0  0  0  0  0  0  0
    2.2520   -3.0610    3.2290 H   0  0  0  0  0  0  0  0  0  0  0  0
    0.0250   -3.6300    3.1930 H   0  0  0  0  0  0  0  0  0  0  0  0
    0.1390   -4.2570    1.5720 H   0  0  0  0  0  0  0  0  0  0  0  0
   -1.4960   -3.1780   -2.4180 N   0  0  0  0  0  0  0  0  0  0  0  0
   -0.2620   -2.6200   -1.9120 C   0  0  0  0  0  0  0  0  0  0  0  0
    0.4100   -3.3950   -1.2110 O   0  0  0  0  0  0  0  0  0  0  0  0
    0.0270   -1.2460   -2.2890 C   0  0  0  0  0  0  0  0  0  0  0  0
    1.1220   -0.5360   -1.6240 C   0  0  0  0  0  0  0  0  0  0  0  0
    1.0620   -0.2730   -0.1660 C   0  0  2  0  0  0  0  0  0  0  0  0
    0.9610   -1.4130    0.6960 N   0  0  0  0  0  0  0  0  0  0  0  0
    0.1040    0.7980    0.1940 C   0  0  0  0  0  0  0  0  0  0  0  0
    0.0190    1.8320   -0.5300 O   0  0  0  0  0  0  0  0  0  0  0  0
   -2.3670   -3.2260   -1.8670 H   0  0  0  0  0  0  0  0  0  0  0  0
   -1.5250   -3.5570   -3.3940 H   0  0  0  0  0  0  0  0  0  0  0  0
   -0.9100   -0.6020   -2.3110 H   0  0  0  0  0  0  0  0  0  0  0  0
    0.2980   -1.2780   -3.3920 H   0  0  0  0  0  0  0  0  0  0  0  0
    1.1970    0.4780   -2.1240 H   0  0  0  0  0  0  0  0  0  0  0  0
    2.0850   -1.0230   -1.8810 H   0  0  0  0  0  0  0  0  0  0  0  0
    2.0970    0.1560    0.0790 H   0  0  0  0  0  0  0  0  0  0  0  0
   -0.0180   -1.8040    0.8700 H   0  0  0  0  0  0  0  0  0  0  0  0
    1.4730    1.3310    3.1820 C   0  0  0  0  0  0  0  0  0  0  0  0
    1.3240    2.8770    2.2740 S   0  0  0  0  0  0  0  0  0  0  0  0
   -0.2490    3.6540    2.3710 C   0  0  0  0  0  0  0  0  0  0  0  0
   -1.3380    3.0960    1.5780 C   0  0  0  0  0  0  0  0  0  0  0  0
   -1.6790    1.6660    1.7410 C   0  0  2  0  0  0  0  0  0  0  0  0
   -0.7250    0.6800    1.3430 N   0  0  0  0  0  0  0  0  0  0  0  0
   -3.0600    1.3380    1.2860 C   0  0  0  0  0  0  0  0  0  0  0  0
   -3.2610    0.2720    0.6230 O   0  0  0  0  0  0  0  0  0  0  0  0
   -4.1490    2.1360    1.5460 O   0  0  0  0  0  0  0  0  0  0  0  0
    0.5600    1.0470    3.7410 H   0  0  0  0  0  0  0  0  0  0  0  0
    2.2860    1.4440    3.9760 H   0  0  0  0  0  0  0  0  0  0  0  0
    1.7970    0.5400    2.5090 H   0  0  0  0  0  0  0  0  0  0  0  0
   -0.6070    3.7410    3.4550 H   0  0  0  0  0  0  0  0  0  0  0  0
   -0.1120    4.7610    2.0900 H   0  0  0  0  0  0  0  0  0  0  0  0
   -2.2910    3.6570    1.9030 H   0  0  0  0  0  0  0  0  0  0  0  0
   -1.2880    3.3920    0.4800 H   0  0  0  0  0  0  0  0  0  0  0  0
   -1.7530    1.5650    2.9060 H   0  0  0  0  0  0  0  0  0  0  0  0
   -0.6330   -0.2040    1.9450 H   0  0  0  0  0  0  0  0  0  0  0  0
  1  2  1  0  0  0  0
  1  6  1  0  0  0  0
  2  3  1  0  0  0  0
  2  9  1  1  0  0  0
  3 10  1  0  0  0  0
  4  2  1  0  0  0  0
  5  4  2  0  0  0  0
  7  1  1  0  0  0  0
  8  1  1  0  0  0  0
 11  3  1  0  0  0  0
 12 13  1  0  0  0  0
 12 21  1  0  0  0  0
 13 14  2  0  0  0  0
 15 13  1  0  0  0  0
 15 16  1  0  0  0  0
 16 17  1  0  0  0  0
 17 27  1  1  0  0  0
 17 19  1  0  0  0  0
 17 18  1  0  0  0  0
 18 28  1  0  0  0  0
 18  4  1  0  0  0  0
 19 34  1  0  0  0  0
 20 19  2  0  0  0  0
 22 12  1  0  0  0  0
 23 15  1  0  0  0  0
 24 15  1  0  0  0  0
 25 16  1  0  0  0  0
 26 16  1  0  0  0  0
 29 38  1  0  0  0  0
 29 39  1  0  0  0  0
 30 31  1  0  0  0  0
 30 29  1  0  0  0  0
 31 41  1  0  0  0  0
 32 33  1  0  0  0  0
 32 43  1  0  0  0  0
 32 31  1  0  0  0  0
 33 45  1  1  0  0  0
 34 33  1  0  0  0  0
 34 46  1  0  0  0  0
 35 37  1  0  0  0  0
 35 33  1  0  0  0  0
 36 35  2  0  0  0  0
 40 29  1  0  0  0  0
 42 31  1  0  0  0  0
 44 32  1  0  0  0  0
M  END
$$$$
