AQP.pdb
 OpenBabel07022418003D

 43 43  0  0  1  0  0  0  0  0999 V2000
    2.2480   -1.5390    4.8520 C   0  0  0  0  0  0  0  0  0  0  0  0
    1.2860   -0.6110    4.1650 C   0  0  2  0  0  0  0  0  0  0  0  0
   -0.0370   -1.1580    4.2090 N   0  0  0  0  0  0  0  0  0  0  0  0
    1.7250   -0.3180    2.7700 C   0  0  0  0  0  0  0  0  0  0  0  0
    2.8880    0.1700    2.6440 O   0  0  0  0  0  0  0  0  0  0  0  0
    2.4150   -1.2740    5.9240 H   0  0  0  0  0  0  0  0  0  0  0  0
    3.2520   -1.3900    4.3620 H   0  0  0  0  0  0  0  0  0  0  0  0
    1.9610   -2.5940    4.7860 H   0  0  0  0  0  0  0  0  0  0  0  0
    1.2530    0.3720    4.7040 H   0  0  0  0  0  0  0  0  0  0  0  0
   -0.6520   -0.7180    4.9070 H   0  0  0  0  0  0  0  0  0  0  0  0
   -0.0710   -2.1990    4.2080 H   0  0  0  0  0  0  0  0  0  0  0  0
    3.3470   -3.3520   -3.1930 N   0  0  0  0  0  0  0  0  0  0  0  0
    2.7940   -3.0060   -1.9520 C   0  0  0  0  0  0  0  0  0  0  0  0
    2.6660   -3.8820   -1.0700 O   0  0  0  0  0  0  0  0  0  0  0  0
    2.3410   -1.6020   -1.6340 C   0  0  0  0  0  0  0  0  0  0  0  0
    1.8190   -1.6020   -0.2600 C   0  0  0  0  0  0  0  0  0  0  0  0
    1.3340   -0.2800    0.3140 C   0  0  2  0  0  0  0  0  0  0  0  0
    0.8810   -0.5740    1.6530 N   0  0  0  0  0  0  0  0  0  0  0  0
    0.4780    0.5050   -0.5360 C   0  0  0  0  0  0  0  0  0  0  0  0
    0.9780    0.7240   -1.7350 O   0  0  0  0  0  0  0  0  0  0  0  0
    2.8550   -3.9150   -3.9200 H   0  0  0  0  0  0  0  0  0  0  0  0
    4.3180   -3.0380   -3.4330 H   0  0  0  0  0  0  0  0  0  0  0  0
    3.2380   -0.9710   -1.7950 H   0  0  0  0  0  0  0  0  0  0  0  0
    1.6010   -1.2790   -2.4030 H   0  0  0  0  0  0  0  0  0  0  0  0
    2.6480   -1.9830    0.4090 H   0  0  0  0  0  0  0  0  0  0  0  0
    0.9940   -2.3200   -0.1070 H   0  0  0  0  0  0  0  0  0  0  0  0
    2.3070    0.2990    0.4490 H   0  0  0  0  0  0  0  0  0  0  0  0
   -0.0620   -0.9790    1.8680 H   0  0  0  0  0  0  0  0  0  0  0  0
   -0.7790    1.0970   -0.4010 N   0  0  0  0  0  0  0  0  0  0  0  0
   -1.4930    1.7710   -1.5680 C   0  0  0  0  0  0  0  0  0  0  0  0
   -2.7620    0.9590   -1.5340 C   0  0  0  0  0  0  0  0  0  0  0  0
   -2.8940    0.4730   -0.0680 C   0  0  0  0  0  0  0  0  0  0  0  0
   -1.8020    1.3470    0.5330 C   0  0  1  0  0  0  0  0  0  0  0  0
   -1.6820    1.4400    1.9270 C   0  0  0  0  0  0  0  0  0  0  0  0
   -0.6930    1.7430    2.5960 O   0  0  0  0  0  0  0  0  0  0  0  0
   -2.8480    1.1490    2.6800 O   0  0  0  0  0  0  0  0  0  0  0  0
   -1.6350    2.7940   -1.2350 H   0  0  0  0  0  0  0  0  0  0  0  0
   -0.9080    1.7110   -2.4550 H   0  0  0  0  0  0  0  0  0  0  0  0
   -3.6030    1.6580   -1.7230 H   0  0  0  0  0  0  0  0  0  0  0  0
   -2.7430    0.1030   -2.2230 H   0  0  0  0  0  0  0  0  0  0  0  0
   -2.6230   -0.5940   -0.0790 H   0  0  0  0  0  0  0  0  0  0  0  0
   -3.8890    0.7020    0.3090 H   0  0  0  0  0  0  0  0  0  0  0  0
   -2.2260    2.4220    0.2450 H   0  0  0  0  0  0  0  0  0  0  0  0
  1  6  1  0  0  0  0
  2  3  1  0  0  0  0
  2  9  1  1  0  0  0
  2  1  1  0  0  0  0
  3 10  1  0  0  0  0
  4  2  1  0  0  0  0
  5  4  2  0  0  0  0
  7  1  1  0  0  0  0
  8  1  1  0  0  0  0
 11  3  1  0  0  0  0
 12 13  1  0  0  0  0
 13 15  1  0  0  0  0
 13 14  2  0  0  0  0
 15 16  1  0  0  0  0
 16 26  1  0  0  0  0
 16 17  1  0  0  0  0
 16 25  1  0  0  0  0
 17 27  1  1  0  0  0
 17 18  1  0  0  0  0
 18 28  1  0  0  0  0
 18  4  1  0  0  0  0
 19 29  1  0  0  0  0
 19 17  1  0  0  0  0
 20 19  2  0  0  0  0
 21 12  1  0  0  0  0
 22 12  1  0  0  0  0
 23 15  1  0  0  0  0
 24 15  1  0  0  0  0
 29 33  1  0  0  0  0
 30 31  1  0  0  0  0
 30 37  1  0  0  0  0
 30 29  1  0  0  0  0
 31 32  1  0  0  0  0
 32 42  1  0  0  0  0
 32 33  1  0  0  0  0
 33 43  1  6  0  0  0
 33 34  1  0  0  0  0
 34 35  2  0  0  0  0
 34 36  1  0  0  0  0
 38 30  1  0  0  0  0
 39 31  1  0  0  0  0
 40 31  1  0  0  0  0
 41 32  1  0  0  0  0
M  END
$$$$
