AQQ.pdb
 OpenBabel07022418003D

 46 45  0  0  1  0  0  0  0  0999 V2000
    1.8790   -4.2670   -2.0430 C   0  0  0  0  0  0  0  0  0  0  0  0
    2.8230   -3.0760   -2.0830 C   0  0  2  0  0  0  0  0  0  0  0  0
    4.1580   -3.5940   -1.8740 N   0  0  0  0  0  0  0  0  0  0  0  0
    2.5150   -2.1020   -1.0120 C   0  0  0  0  0  0  0  0  0  0  0  0
    3.3850   -1.8750   -0.1350 O   0  0  0  0  0  0  0  0  0  0  0  0
    1.7810   -4.6360   -1.0180 H   0  0  0  0  0  0  0  0  0  0  0  0
    0.8850   -4.0310   -2.4480 H   0  0  0  0  0  0  0  0  0  0  0  0
    2.3530   -5.0610   -2.6500 H   0  0  0  0  0  0  0  0  0  0  0  0
    2.7440   -2.5310   -3.0450 H   0  0  0  0  0  0  0  0  0  0  0  0
    4.8090   -2.9140   -1.4530 H   0  0  0  0  0  0  0  0  0  0  0  0
    4.1650   -4.4500   -1.2780 H   0  0  0  0  0  0  0  0  0  0  0  0
   -0.5740    1.2980   -3.5510 N   0  0  0  0  0  0  0  0  0  0  0  0
    0.4740    1.0570   -2.5900 C   0  0  0  0  0  0  0  0  0  0  0  0
    1.4790    0.4280   -3.0140 O   0  0  0  0  0  0  0  0  0  0  0  0
    0.3200    1.5420   -1.2250 C   0  0  0  0  0  0  0  0  0  0  0  0
    1.1840    0.9590   -0.1850 C   0  0  0  0  0  0  0  0  0  0  0  0
    1.0470   -0.4820    0.1340 C   0  0  2  0  0  0  0  0  0  0  0  0
    1.2700   -1.4110   -0.9350 N   0  0  0  0  0  0  0  0  0  0  0  0
   -0.2060   -0.8200    0.8470 C   0  0  0  0  0  0  0  0  0  0  0  0
   -0.8560   -1.8110    0.4400 O   0  0  0  0  0  0  0  0  0  0  0  0
   -1.5610    1.1860   -3.2480 H   0  0  0  0  0  0  0  0  0  0  0  0
   -0.3720    1.5770   -4.5180 H   0  0  0  0  0  0  0  0  0  0  0  0
   -0.7520    1.4410   -0.9410 H   0  0  0  0  0  0  0  0  0  0  0  0
    0.5210    2.6580   -1.2290 H   0  0  0  0  0  0  0  0  0  0  0  0
    2.2540    1.1120   -0.5150 H   0  0  0  0  0  0  0  0  0  0  0  0
    1.1360    1.5060    0.7870 H   0  0  0  0  0  0  0  0  0  0  0  0
    1.8760   -0.6800    0.9020 H   0  0  0  0  0  0  0  0  0  0  0  0
    0.5470   -1.6290   -1.6640 H   0  0  0  0  0  0  0  0  0  0  0  0
   -0.8820    2.0750    6.3370 N   0  0  0  0  0  0  0  0  0  0  0  0
   -1.6020    1.3540    5.3470 C   0  0  0  0  0  0  0  0  0  0  0  0
   -2.5670    2.0010    4.8750 O   0  0  0  0  0  0  0  0  0  0  0  0
   -1.1300    0.0310    5.0450 C   0  0  0  0  0  0  0  0  0  0  0  0
   -1.8000   -0.8260    4.0590 C   0  0  0  0  0  0  0  0  0  0  0  0
   -1.9320   -0.4060    2.6670 C   0  0  2  0  0  0  0  0  0  0  0  0
   -0.7300   -0.1250    1.9420 N   0  0  0  0  0  0  0  0  0  0  0  0
   -3.0330    0.5590    2.4380 C   0  0  0  0  0  0  0  0  0  0  0  0
   -2.7880    1.5580    1.7100 O   0  0  0  0  0  0  0  0  0  0  0  0
   -4.2960    0.3940    2.9880 O   0  0  0  0  0  0  0  0  0  0  0  0
   -1.2660    2.1460    7.2830 H   0  0  0  0  0  0  0  0  0  0  0  0
    0.0090    2.5120    6.0880 H   0  0  0  0  0  0  0  0  0  0  0  0
   -1.0210   -0.5040    6.0430 H   0  0  0  0  0  0  0  0  0  0  0  0
   -0.0350    0.1330    4.7520 H   0  0  0  0  0  0  0  0  0  0  0  0
   -2.8660   -0.9670    4.4410 H   0  0  0  0  0  0  0  0  0  0  0  0
   -1.4320   -1.8980    4.0840 H   0  0  0  0  0  0  0  0  0  0  0  0
   -2.3330   -1.3340    2.1150 H   0  0  0  0  0  0  0  0  0  0  0  0
   -0.1760    0.7030    2.2720 H   0  0  0  0  0  0  0  0  0  0  0  0
  1  6  1  0  0  0  0
  2  9  1  6  0  0  0
  2  1  1  0  0  0  0
  2  3  1  0  0  0  0
  2  4  1  0  0  0  0
  3 10  1  0  0  0  0
  3 11  1  0  0  0  0
  4 18  1  0  0  0  0
  4  5  2  0  0  0  0
  7  1  1  0  0  0  0
  8  1  1  0  0  0  0
 12 21  1  0  0  0  0
 12 13  1  0  0  0  0
 13 15  1  0  0  0  0
 14 13  2  0  0  0  0
 15 23  1  0  0  0  0
 15 16  1  0  0  0  0
 16 17  1  0  0  0  0
 16 26  1  0  0  0  0
 17 19  1  0  0  0  0
 17 27  1  1  0  0  0
 18 17  1  0  0  0  0
 19 35  1  0  0  0  0
 20 19  2  0  0  0  0
 22 12  1  0  0  0  0
 24 15  1  0  0  0  0
 25 16  1  0  0  0  0
 28 18  1  0  0  0  0
 29 39  1  0  0  0  0
 30 29  1  0  0  0  0
 31 30  2  0  0  0  0
 32 30  1  0  0  0  0
 32 41  1  0  0  0  0
 33 44  1  0  0  0  0
 33 43  1  0  0  0  0
 33 32  1  0  0  0  0
 34 45  1  6  0  0  0
 34 33  1  0  0  0  0
 35 46  1  0  0  0  0
 35 34  1  0  0  0  0
 36 34  1  0  0  0  0
 36 38  1  0  0  0  0
 37 36  2  0  0  0  0
 40 29  1  0  0  0  0
 42 32  1  0  0  0  0
M  END
$$$$
