AQR.pdb
 OpenBabel07022418003D

 52 51  0  0  1  0  0  0  0  0999 V2000
    4.4610   -3.7960    3.4390 C   0  0  0  0  0  0  0  0  0  0  0  0
    3.0720   -3.4520    3.0310 C   0  0  2  0  0  0  0  0  0  0  0  0
    2.6190   -4.3100    1.9560 N   0  0  0  0  0  0  0  0  0  0  0  0
    2.8580   -2.0430    2.7060 C   0  0  0  0  0  0  0  0  0  0  0  0
    3.1480   -1.0790    3.4530 O   0  0  0  0  0  0  0  0  0  0  0  0
    4.9520   -4.4010    2.6230 H   0  0  0  0  0  0  0  0  0  0  0  0
    5.0390   -2.8800    3.6780 H   0  0  0  0  0  0  0  0  0  0  0  0
    4.4210   -4.4800    4.3090 H   0  0  0  0  0  0  0  0  0  0  0  0
    2.3870   -3.6760    3.9010 H   0  0  0  0  0  0  0  0  0  0  0  0
    3.1110   -4.1360    1.0560 H   0  0  0  0  0  0  0  0  0  0  0  0
    1.5840   -4.2930    1.8240 H   0  0  0  0  0  0  0  0  0  0  0  0
    3.5320    2.9320   -2.5190 N   0  0  0  0  0  0  0  0  0  0  0  0
    3.5180    1.6710   -1.8630 C   0  0  0  0  0  0  0  0  0  0  0  0
    4.2580    0.7710   -2.3350 O   0  0  0  0  0  0  0  0  0  0  0  0
    2.6440    1.4390   -0.6500 C   0  0  0  0  0  0  0  0  0  0  0  0
    2.8280    0.0350   -0.1580 C   0  0  0  0  0  0  0  0  0  0  0  0
    2.0310   -0.3330    1.0500 C   0  0  2  0  0  0  0  0  0  0  0  0
    2.2790   -1.7130    1.4540 N   0  0  0  0  0  0  0  0  0  0  0  0
    0.5550   -0.1570    0.8770 C   0  0  0  0  0  0  0  0  0  0  0  0
    0.0330    0.9430    0.5630 O   0  0  0  0  0  0  0  0  0  0  0  0
    3.6970    3.0550   -3.5340 H   0  0  0  0  0  0  0  0  0  0  0  0
    3.3680    3.7860   -1.9510 H   0  0  0  0  0  0  0  0  0  0  0  0
    1.6040    1.7080   -0.9130 H   0  0  0  0  0  0  0  0  0  0  0  0
    2.9830    2.2010    0.0960 H   0  0  0  0  0  0  0  0  0  0  0  0
    2.6250   -0.6380   -1.0270 H   0  0  0  0  0  0  0  0  0  0  0  0
    3.9180   -0.0890    0.0350 H   0  0  0  0  0  0  0  0  0  0  0  0
    2.3660    0.2990    1.8950 H   0  0  0  0  0  0  0  0  0  0  0  0
    2.0010   -2.4450    0.7570 H   0  0  0  0  0  0  0  0  0  0  0  0
   -5.3610    2.7910    0.1620 N   0  0  0  0  0  0  0  0  0  0  0  0
   -4.9590    1.7380   -0.6940 C   0  0  0  0  0  0  0  0  0  0  0  0
   -5.0390    1.8330   -1.9720 N   0  0  0  0  0  0  0  0  0  0  0  0
   -4.4390    0.5030   -0.1630 N   0  0  0  0  0  0  0  0  0  0  0  0
   -4.4000   -0.6840   -0.9500 C   0  0  0  0  0  0  0  0  0  0  0  0
   -3.7620   -1.9000   -0.4460 C   0  0  0  0  0  0  0  0  0  0  0  0
   -2.3230   -1.9660   -0.1630 C   0  0  0  0  0  0  0  0  0  0  0  0
   -1.8180   -1.0780    0.8930 C   0  0  2  0  0  0  0  0  0  0  0  0
   -0.3510   -1.2340    1.0600 N   0  0  0  0  0  0  0  0  0  0  0  0
   -2.4230   -1.3840    2.2010 C   0  0  0  0  0  0  0  0  0  0  0  0
   -3.6430   -1.4210    2.4770 O   0  0  0  0  0  0  0  0  0  0  0  0
   -1.5440   -1.6680    3.2710 O   0  0  0  0  0  0  0  0  0  0  0  0
   -5.1200    3.7970   -0.0530 H   0  0  0  0  0  0  0  0  0  0  0  0
   -5.9090    2.6420    1.0420 H   0  0  0  0  0  0  0  0  0  0  0  0
   -5.4150    2.7220   -2.3680 H   0  0  0  0  0  0  0  0  0  0  0  0
   -4.1340    0.5510    0.8140 H   0  0  0  0  0  0  0  0  0  0  0  0
   -4.1020   -0.4460   -2.0230 H   0  0  0  0  0  0  0  0  0  0  0  0
   -5.5090   -0.9480   -1.1070 H   0  0  0  0  0  0  0  0  0  0  0  0
   -3.9460   -2.7100   -1.2540 H   0  0  0  0  0  0  0  0  0  0  0  0
   -4.3520   -2.2690    0.4520 H   0  0  0  0  0  0  0  0  0  0  0  0
   -2.0530   -3.0300    0.1020 H   0  0  0  0  0  0  0  0  0  0  0  0
   -1.7880   -1.7690   -1.1390 H   0  0  0  0  0  0  0  0  0  0  0  0
   -2.0240   -0.0230    0.6450 H   0  0  0  0  0  0  0  0  0  0  0  0
    0.0380   -2.1600    1.3210 H   0  0  0  0  0  0  0  0  0  0  0  0
  1  7  1  0  0  0  0
  1  8  1  0  0  0  0
  2  1  1  0  0  0  0
  2  9  1  1  0  0  0
  3  2  1  0  0  0  0
  4  2  1  0  0  0  0
  4  5  2  0  0  0  0
  6  1  1  0  0  0  0
 10  3  1  0  0  0  0
 11  3  1  0  0  0  0
 12 22  1  0  0  0  0
 12 13  1  0  0  0  0
 13 15  1  0  0  0  0
 14 13  2  0  0  0  0
 15 16  1  0  0  0  0
 15 24  1  0  0  0  0
 16 26  1  0  0  0  0
 16 17  1  0  0  0  0
 17 18  1  0  0  0  0
 17 27  1  1  0  0  0
 18  4  1  0  0  0  0
 19 17  1  0  0  0  0
 19 37  1  0  0  0  0
 20 19  2  0  0  0  0
 21 12  1  0  0  0  0
 23 15  1  0  0  0  0
 25 16  1  0  0  0  0
 28 18  1  0  0  0  0
 29 42  1  0  0  0  0
 30 32  1  0  0  0  0
 30 29  1  0  0  0  0
 31 30  2  0  0  0  0
 32 44  1  0  0  0  0
 33 34  1  0  0  0  0
 33 32  1  0  0  0  0
 34 35  1  0  0  0  0
 34 48  1  0  0  0  0
 35 49  1  0  0  0  0
 35 36  1  0  0  0  0
 36 51  1  6  0  0  0
 36 37  1  0  0  0  0
 36 38  1  0  0  0  0
 37 52  1  0  0  0  0
 38 39  2  0  0  0  0
 38 40  1  0  0  0  0
 41 29  1  0  0  0  0
 43 31  1  0  0  0  0
 45 33  1  0  0  0  0
 46 33  1  0  0  0  0
 47 34  1  0  0  0  0
 50 35  1  0  0  0  0
M  END
$$$$
