ARK.pdb
 OpenBabel07022417593D

 56 55  0  0  1  0  0  0  0  0999 V2000
    0.0800    3.3680    2.0510 C   0  0  0  0  0  0  0  0  0  0  0  0
   -0.6460    2.0850    2.3680 C   0  0  2  0  0  0  0  0  0  0  0  0
   -0.7790    2.0000    3.8170 N   0  0  0  0  0  0  0  0  0  0  0  0
    0.1670    0.8900    1.9380 C   0  0  0  0  0  0  0  0  0  0  0  0
    0.6020    0.1200    2.8210 O   0  0  0  0  0  0  0  0  0  0  0  0
    1.1610    3.1420    1.8970 H   0  0  0  0  0  0  0  0  0  0  0  0
   -0.3620    3.8630    1.1560 H   0  0  0  0  0  0  0  0  0  0  0  0
    0.0000    4.0280    2.9420 H   0  0  0  0  0  0  0  0  0  0  0  0
   -1.6460    2.0660    1.9060 H   0  0  0  0  0  0  0  0  0  0  0  0
   -0.1720    1.2420    4.2130 H   0  0  0  0  0  0  0  0  0  0  0  0
   -1.7640    1.8720    4.1340 H   0  0  0  0  0  0  0  0  0  0  0  0
    5.6610   -3.2900   -0.0400 N   0  0  0  0  0  0  0  0  0  0  0  0
    5.5030   -2.3350    1.0130 C   0  0  0  0  0  0  0  0  0  0  0  0
    6.3120   -1.3470    1.1660 N   0  0  0  0  0  0  0  0  0  0  0  0
    4.3980   -2.4940    1.9270 N   0  0  0  0  0  0  0  0  0  0  0  0
    3.8370   -1.3590    2.6280 C   0  0  0  0  0  0  0  0  0  0  0  0
    3.1340   -0.4160    1.6420 C   0  0  0  0  0  0  0  0  0  0  0  0
    2.0600   -1.2050    0.9930 C   0  0  0  0  0  0  0  0  0  0  0  0
    1.1980   -0.4280    0.0110 C   0  0  2  0  0  0  0  0  0  0  0  0
    0.4350    0.6360    0.5770 N   0  0  0  0  0  0  0  0  0  0  0  0
    0.4710   -1.3830   -0.8240 C   0  0  0  0  0  0  0  0  0  0  0  0
    1.1080   -2.3740   -1.2600 O   0  0  0  0  0  0  0  0  0  0  0  0
    5.6910   -4.3080    0.0990 H   0  0  0  0  0  0  0  0  0  0  0  0
    5.7510   -2.9330   -1.0170 H   0  0  0  0  0  0  0  0  0  0  0  0
    6.1540   -0.6830    1.9420 H   0  0  0  0  0  0  0  0  0  0  0  0
    4.0400   -3.4870    2.0330 H   0  0  0  0  0  0  0  0  0  0  0  0
    4.6000   -0.8710    3.2290 H   0  0  0  0  0  0  0  0  0  0  0  0
    3.0550   -1.7860    3.3200 H   0  0  0  0  0  0  0  0  0  0  0  0
    2.9480    0.5720    2.0080 H   0  0  0  0  0  0  0  0  0  0  0  0
    3.9650   -0.2610    0.8440 H   0  0  0  0  0  0  0  0  0  0  0  0
    2.5660   -1.9900    0.3510 H   0  0  0  0  0  0  0  0  0  0  0  0
    1.4210   -1.7740    1.6750 H   0  0  0  0  0  0  0  0  0  0  0  0
    2.0190    0.0940   -0.6030 H   0  0  0  0  0  0  0  0  0  0  0  0
    0.0050    1.3390   -0.0950 H   0  0  0  0  0  0  0  0  0  0  0  0
   -0.9160   -1.2290   -1.1590 N   0  0  0  0  0  0  0  0  0  0  0  0
   -1.5460   -2.2200   -1.9760 C   0  0  1  0  0  0  0  0  0  0  0  0
   -2.7060   -2.9250   -1.4080 C   0  0  0  0  0  0  0  0  0  0  0  0
   -3.9370   -2.2400   -1.0390 C   0  0  0  0  0  0  0  0  0  0  0  0
   -3.9420   -1.1420   -0.0480 C   0  0  0  0  0  0  0  0  0  0  0  0
   -5.4060   -0.6610    0.1920 C   0  0  0  0  0  0  0  0  0  0  0  0
   -5.9070   -0.2080   -1.1060 N   0  0  0  0  0  0  0  0  0  0  0  0
   -1.8280   -1.6740   -3.3480 C   0  0  0  0  0  0  0  0  0  0  0  0
   -1.5370   -0.4720   -3.5860 O   0  0  0  0  0  0  0  0  0  0  0  0
   -2.3900   -2.4110   -4.3690 O   0  0  0  0  0  0  0  0  0  0  0  0
   -1.3430   -0.3680   -0.7650 H   0  0  0  0  0  0  0  0  0  0  0  0
   -0.7670   -3.0180   -2.1870 H   0  0  0  0  0  0  0  0  0  0  0  0
   -2.9850   -3.7300   -2.1670 H   0  0  0  0  0  0  0  0  0  0  0  0
   -2.3400   -3.4940   -0.5020 H   0  0  0  0  0  0  0  0  0  0  0  0
   -4.5520   -1.8830   -1.9170 H   0  0  0  0  0  0  0  0  0  0  0  0
   -4.6320   -3.0460   -0.6030 H   0  0  0  0  0  0  0  0  0  0  0  0
   -3.4950   -1.3490    0.9300 H   0  0  0  0  0  0  0  0  0  0  0  0
   -3.4960   -0.1900   -0.4790 H   0  0  0  0  0  0  0  0  0  0  0  0
   -6.0040   -1.5070    0.5200 H   0  0  0  0  0  0  0  0  0  0  0  0
   -5.3820    0.1730    0.8930 H   0  0  0  0  0  0  0  0  0  0  0  0
   -6.5850    0.5940   -0.9790 H   0  0  0  0  0  0  0  0  0  0  0  0
   -5.1300    0.1220   -1.7350 H   0  0  0  0  0  0  0  0  0  0  0  0
  1  2  1  0  0  0  0
  1  8  1  0  0  0  0
  2  9  1  6  0  0  0
  2  3  1  0  0  0  0
  3 11  1  0  0  0  0
  3 10  1  0  0  0  0
  4  2  1  0  0  0  0
  4  5  2  0  0  0  0
  6  1  1  0  0  0  0
  7  1  1  0  0  0  0
 12 23  1  0  0  0  0
 12 13  1  0  0  0  0
 13 14  2  0  0  0  0
 13 15  1  0  0  0  0
 14 25  1  0  0  0  0
 15 26  1  0  0  0  0
 15 16  1  0  0  0  0
 16 27  1  0  0  0  0
 16 28  1  0  0  0  0
 17 29  1  0  0  0  0
 17 16  1  0  0  0  0
 18 17  1  0  0  0  0
 18 32  1  0  0  0  0
 19 33  1  6  0  0  0
 19 20  1  0  0  0  0
 19 18  1  0  0  0  0
 20  4  1  0  0  0  0
 21 19  1  0  0  0  0
 22 21  2  0  0  0  0
 24 12  1  0  0  0  0
 30 17  1  0  0  0  0
 31 18  1  0  0  0  0
 34 20  1  0  0  0  0
 35 21  1  0  0  0  0
 35 45  1  0  0  0  0
 36 46  1  6  0  0  0
 36 37  1  0  0  0  0
 36 35  1  0  0  0  0
 37 38  1  0  0  0  0
 37 48  1  0  0  0  0
 38 50  1  0  0  0  0
 38 39  1  0  0  0  0
 39 40  1  0  0  0  0
 39 51  1  0  0  0  0
 40 53  1  0  0  0  0
 40 54  1  0  0  0  0
 41 55  1  0  0  0  0
 41 40  1  0  0  0  0
 42 36  1  0  0  0  0
 43 42  1  0  0  0  0
 44 42  2  0  0  0  0
 47 37  1  0  0  0  0
 49 38  1  0  0  0  0
 52 39  1  0  0  0  0
 56 41  1  0  0  0  0
M  END
$$$$
