ARL.pdb
 OpenBabel07022417593D

 54 53  0  0  1  0  0  0  0  0999 V2000
    2.2040   -3.2940    4.7810 C   0  0  0  0  0  0  0  0  0  0  0  0
    0.8870   -2.7090    4.2830 C   0  0  2  0  0  0  0  0  0  0  0  0
    0.2730   -3.6730    3.4000 N   0  0  0  0  0  0  0  0  0  0  0  0
    1.2480   -1.5100    3.4580 C   0  0  0  0  0  0  0  0  0  0  0  0
    1.8280   -0.5220    4.0350 O   0  0  0  0  0  0  0  0  0  0  0  0
    2.5060   -4.1530    4.1460 H   0  0  0  0  0  0  0  0  0  0  0  0
    3.0360   -2.5450    4.6960 H   0  0  0  0  0  0  0  0  0  0  0  0
    2.1520   -3.5540    5.8630 H   0  0  0  0  0  0  0  0  0  0  0  0
    0.2330   -2.4240    5.1330 H   0  0  0  0  0  0  0  0  0  0  0  0
   -0.7210   -3.4830    3.1880 H   0  0  0  0  0  0  0  0  0  0  0  0
    0.4490   -4.6570    3.7040 H   0  0  0  0  0  0  0  0  0  0  0  0
    3.4120    3.3880   -3.5500 N   0  0  0  0  0  0  0  0  0  0  0  0
    3.0160    2.4590   -2.5510 C   0  0  0  0  0  0  0  0  0  0  0  0
    2.9690    2.8510   -1.3410 N   0  0  0  0  0  0  0  0  0  0  0  0
    2.6700    1.1180   -2.8480 N   0  0  0  0  0  0  0  0  0  0  0  0
    2.0640    0.3070   -1.8230 C   0  0  0  0  0  0  0  0  0  0  0  0
    2.9530   -0.0440   -0.7020 C   0  0  0  0  0  0  0  0  0  0  0  0
    2.3180   -0.8370    0.3510 C   0  0  0  0  0  0  0  0  0  0  0  0
    1.3020   -0.3150    1.2800 C   0  0  2  0  0  0  0  0  0  0  0  0
    0.9410   -1.5110    2.0980 N   0  0  0  0  0  0  0  0  0  0  0  0
    0.1270    0.3870    0.8550 C   0  0  0  0  0  0  0  0  0  0  0  0
    0.1540    1.5710    0.4530 O   0  0  0  0  0  0  0  0  0  0  0  0
    4.4180    3.5590   -3.6970 H   0  0  0  0  0  0  0  0  0  0  0  0
    2.6870    3.8700   -4.1050 H   0  0  0  0  0  0  0  0  0  0  0  0
    3.2080    3.8200   -1.0630 H   0  0  0  0  0  0  0  0  0  0  0  0
    2.8610    0.7530   -3.7960 H   0  0  0  0  0  0  0  0  0  0  0  0
    1.0760    0.6090   -1.5360 H   0  0  0  0  0  0  0  0  0  0  0  0
    1.8630   -0.7190   -2.3420 H   0  0  0  0  0  0  0  0  0  0  0  0
    3.4370    0.8430   -0.2100 H   0  0  0  0  0  0  0  0  0  0  0  0
    3.8070   -0.6700   -1.1160 H   0  0  0  0  0  0  0  0  0  0  0  0
    1.9270   -1.7880   -0.1840 H   0  0  0  0  0  0  0  0  0  0  0  0
    3.1300   -1.3370    1.0070 H   0  0  0  0  0  0  0  0  0  0  0  0
    1.8360    0.3600    2.0440 H   0  0  0  0  0  0  0  0  0  0  0  0
    0.4740   -2.2930    1.6080 H   0  0  0  0  0  0  0  0  0  0  0  0
   -4.2990   -2.0230    0.4650 C   0  0  0  0  0  0  0  0  0  0  0  0
   -3.2630   -1.7080   -0.5560 C   0  0  0  0  0  0  0  0  0  0  0  0
   -3.7680   -2.2450   -1.9050 C   0  0  0  0  0  0  0  0  0  0  0  0
   -2.9150   -0.2810   -0.7440 C   0  0  0  0  0  0  0  0  0  0  0  0
   -2.3670    0.4400    0.4450 C   0  0  2  0  0  0  0  0  0  0  0  0
   -1.1600   -0.2360    0.8670 N   0  0  0  0  0  0  0  0  0  0  0  0
   -3.2820    0.5480    1.5940 C   0  0  0  0  0  0  0  0  0  0  0  0
   -2.9360    0.0840    2.7070 O   0  0  0  0  0  0  0  0  0  0  0  0
   -4.5390    1.1490    1.5310 O   0  0  0  0  0  0  0  0  0  0  0  0
   -5.1300   -1.3110    0.5410 H   0  0  0  0  0  0  0  0  0  0  0  0
   -4.7890   -3.0030    0.1810 H   0  0  0  0  0  0  0  0  0  0  0  0
   -3.8610   -2.1610    1.4920 H   0  0  0  0  0  0  0  0  0  0  0  0
   -2.3660   -2.3450   -0.3300 H   0  0  0  0  0  0  0  0  0  0  0  0
   -4.8110   -1.8390   -1.9900 H   0  0  0  0  0  0  0  0  0  0  0  0
   -3.7840   -3.3390   -1.8880 H   0  0  0  0  0  0  0  0  0  0  0  0
   -3.1300   -1.8890   -2.7350 H   0  0  0  0  0  0  0  0  0  0  0  0
   -3.8070    0.2260   -1.1830 H   0  0  0  0  0  0  0  0  0  0  0  0
   -2.1060   -0.2220   -1.5330 H   0  0  0  0  0  0  0  0  0  0  0  0
   -2.1190    1.4860    0.1100 H   0  0  0  0  0  0  0  0  0  0  0  0
   -1.2040   -1.2210    1.1980 H   0  0  0  0  0  0  0  0  0  0  0  0
  1  8  1  0  0  0  0
  2  1  1  0  0  0  0
  2  9  1  1  0  0  0
  3 11  1  0  0  0  0
  3  2  1  0  0  0  0
  4  5  2  0  0  0  0
  4  2  1  0  0  0  0
  6  1  1  0  0  0  0
  7  1  1  0  0  0  0
 10  3  1  0  0  0  0
 12 13  1  0  0  0  0
 13 14  2  0  0  0  0
 14 25  1  0  0  0  0
 15 13  1  0  0  0  0
 15 16  1  0  0  0  0
 16 27  1  0  0  0  0
 16 17  1  0  0  0  0
 17 29  1  0  0  0  0
 17 18  1  0  0  0  0
 18 32  1  0  0  0  0
 18 19  1  0  0  0  0
 19 33  1  1  0  0  0
 19 20  1  0  0  0  0
 20  4  1  0  0  0  0
 21 40  1  0  0  0  0
 21 19  1  0  0  0  0
 22 21  2  0  0  0  0
 23 12  1  0  0  0  0
 24 12  1  0  0  0  0
 26 15  1  0  0  0  0
 28 16  1  0  0  0  0
 30 17  1  0  0  0  0
 31 18  1  0  0  0  0
 34 20  1  0  0  0  0
 35 44  1  0  0  0  0
 35 46  1  0  0  0  0
 36 47  1  0  0  0  0
 36 35  1  0  0  0  0
 37 49  1  0  0  0  0
 37 36  1  0  0  0  0
 38 36  1  0  0  0  0
 38 39  1  0  0  0  0
 39 53  1  6  0  0  0
 39 40  1  0  0  0  0
 39 41  1  0  0  0  0
 40 54  1  0  0  0  0
 41 42  1  0  0  0  0
 43 41  2  0  0  0  0
 45 35  1  0  0  0  0
 48 37  1  0  0  0  0
 50 37  1  0  0  0  0
 51 38  1  0  0  0  0
 52 38  1  0  0  0  0
M  END
$$$$
