ARP.pdb
 OpenBabel07022417593D

 49 49  0  0  1  0  0  0  0  0999 V2000
   -0.3250   -4.3690    2.2500 C   0  0  0  0  0  0  0  0  0  0  0  0
    0.6250   -3.5570    3.0790 C   0  0  2  0  0  0  0  0  0  0  0  0
    0.5150   -3.9020    4.4990 N   0  0  0  0  0  0  0  0  0  0  0  0
    0.4640   -2.1000    2.9580 C   0  0  0  0  0  0  0  0  0  0  0  0
    0.2560   -1.3980    3.9710 O   0  0  0  0  0  0  0  0  0  0  0  0
   -0.1680   -5.4450    2.4750 H   0  0  0  0  0  0  0  0  0  0  0  0
   -1.3580   -4.1040    2.5730 H   0  0  0  0  0  0  0  0  0  0  0  0
   -0.2270   -4.1480    1.1680 H   0  0  0  0  0  0  0  0  0  0  0  0
    1.6770   -3.8090    2.7650 H   0  0  0  0  0  0  0  0  0  0  0  0
   -0.0460   -4.7910    4.5990 H   0  0  0  0  0  0  0  0  0  0  0  0
    0.0310   -3.1410    5.0380 H   0  0  0  0  0  0  0  0  0  0  0  0
    2.7940    1.4140   -2.7680 N   0  0  0  0  0  0  0  0  0  0  0  0
    2.9840    2.3350   -1.7050 C   0  0  0  0  0  0  0  0  0  0  0  0
    2.5870    3.5610   -1.7670 N   0  0  0  0  0  0  0  0  0  0  0  0
    3.6450    1.9090   -0.4960 N   0  0  0  0  0  0  0  0  0  0  0  0
    3.2390    2.5170    0.7560 C   0  0  0  0  0  0  0  0  0  0  0  0
    1.8030    2.0680    1.1040 C   0  0  0  0  0  0  0  0  0  0  0  0
    1.7420    0.5910    1.2430 C   0  0  0  0  0  0  0  0  0  0  0  0
    0.3860    0.0280    1.6220 C   0  0  2  0  0  0  0  0  0  0  0  0
    0.5350   -1.4020    1.6980 N   0  0  0  0  0  0  0  0  0  0  0  0
   -0.7380    0.5570    0.8840 C   0  0  0  0  0  0  0  0  0  0  0  0
   -0.8520    1.8280    0.8460 O   0  0  0  0  0  0  0  0  0  0  0  0
    2.3520    1.7320   -3.6520 H   0  0  0  0  0  0  0  0  0  0  0  0
    3.0820    0.4210   -2.6980 H   0  0  0  0  0  0  0  0  0  0  0  0
    2.1070    3.9510   -2.5900 H   0  0  0  0  0  0  0  0  0  0  0  0
    4.3980    1.1750   -0.5640 H   0  0  0  0  0  0  0  0  0  0  0  0
    3.2280    3.6160    0.6410 H   0  0  0  0  0  0  0  0  0  0  0  0
    3.9420    2.2750    1.5600 H   0  0  0  0  0  0  0  0  0  0  0  0
    1.2330    2.3580    0.1760 H   0  0  0  0  0  0  0  0  0  0  0  0
    1.4540    2.5750    2.0100 H   0  0  0  0  0  0  0  0  0  0  0  0
    2.0510    0.1520    0.2510 H   0  0  0  0  0  0  0  0  0  0  0  0
    2.5250    0.2610    1.9510 H   0  0  0  0  0  0  0  0  0  0  0  0
    0.2470    0.3990    2.7010 H   0  0  0  0  0  0  0  0  0  0  0  0
    0.7130   -1.9770    0.8630 H   0  0  0  0  0  0  0  0  0  0  0  0
   -1.6970   -0.2120    0.2170 N   0  0  0  0  0  0  0  0  0  0  0  0
   -2.8040    0.4510   -0.5390 C   0  0  0  0  0  0  0  0  0  0  0  0
   -3.9770   -0.3990   -0.1850 C   0  0  0  0  0  0  0  0  0  0  0  0
   -3.4110   -1.7760   -0.0390 C   0  0  0  0  0  0  0  0  0  0  0  0
   -1.9270   -1.6180    0.0550 C   0  0  1  0  0  0  0  0  0  0  0  0
   -1.3220   -2.1740   -1.1560 C   0  0  0  0  0  0  0  0  0  0  0  0
   -0.6860   -1.4350   -1.9330 O   0  0  0  0  0  0  0  0  0  0  0  0
   -1.4530   -3.5130   -1.4400 O   0  0  0  0  0  0  0  0  0  0  0  0
   -2.9100    1.5050   -0.2460 H   0  0  0  0  0  0  0  0  0  0  0  0
   -2.5810    0.2950   -1.6140 H   0  0  0  0  0  0  0  0  0  0  0  0
   -4.8000   -0.3320   -0.9460 H   0  0  0  0  0  0  0  0  0  0  0  0
   -4.3890   -0.1200    0.8320 H   0  0  0  0  0  0  0  0  0  0  0  0
   -3.8310   -2.2970    0.8570 H   0  0  0  0  0  0  0  0  0  0  0  0
   -3.6870   -2.3880   -0.9580 H   0  0  0  0  0  0  0  0  0  0  0  0
   -1.6120   -2.1990    0.9590 H   0  0  0  0  0  0  0  0  0  0  0  0
  1  6  1  0  0  0  0
  1  7  1  0  0  0  0
  1  2  1  0  0  0  0
  2  9  1  6  0  0  0
  2  3  1  0  0  0  0
  3 10  1  0  0  0  0
  3 11  1  0  0  0  0
  4  2  1  0  0  0  0
  4  5  2  0  0  0  0
  8  1  1  0  0  0  0
 12 24  1  0  0  0  0
 12 13  1  0  0  0  0
 13 15  1  0  0  0  0
 14 13  2  0  0  0  0
 15 16  1  0  0  0  0
 16 17  1  0  0  0  0
 16 28  1  0  0  0  0
 17 18  1  0  0  0  0
 17 30  1  0  0  0  0
 18 19  1  0  0  0  0
 18 32  1  0  0  0  0
 19 20  1  0  0  0  0
 19 33  1  1  0  0  0
 20  4  1  0  0  0  0
 21 19  1  0  0  0  0
 22 21  2  0  0  0  0
 23 12  1  0  0  0  0
 25 14  1  0  0  0  0
 26 15  1  0  0  0  0
 27 16  1  0  0  0  0
 29 17  1  0  0  0  0
 31 18  1  0  0  0  0
 34 20  1  0  0  0  0
 35 21  1  0  0  0  0
 36 43  1  0  0  0  0
 36 37  1  0  0  0  0
 36 35  1  0  0  0  0
 37 38  1  0  0  0  0
 37 46  1  0  0  0  0
 38 39  1  0  0  0  0
 38 47  1  0  0  0  0
 39 35  1  0  0  0  0
 39 49  1  1  0  0  0
 40 39  1  0  0  0  0
 41 40  2  0  0  0  0
 42 40  1  0  0  0  0
 44 36  1  0  0  0  0
 45 37  1  0  0  0  0
 48 38  1  0  0  0  0
M  END
$$$$
