ARY.pdb
 OpenBabel07022417593D

 56 56  0  0  1  0  0  0  0  0999 V2000
   -2.4870    1.9840    4.8770 C   0  0  0  0  0  0  0  0  0  0  0  0
   -2.4250    0.9250    3.8010 C   0  0  2  0  0  0  0  0  0  0  0  0
   -1.3860   -0.0290    4.0760 N   0  0  0  0  0  0  0  0  0  0  0  0
   -2.2970    1.5350    2.4490 C   0  0  0  0  0  0  0  0  0  0  0  0
   -3.1510    2.3950    2.0750 O   0  0  0  0  0  0  0  0  0  0  0  0
   -3.5710    2.2610    4.9920 H   0  0  0  0  0  0  0  0  0  0  0  0
   -2.0690    1.5670    5.8060 H   0  0  0  0  0  0  0  0  0  0  0  0
   -1.8980    2.8670    4.5200 H   0  0  0  0  0  0  0  0  0  0  0  0
   -3.3920    0.3440    3.8220 H   0  0  0  0  0  0  0  0  0  0  0  0
   -1.4610   -0.8010    3.3830 H   0  0  0  0  0  0  0  0  0  0  0  0
   -0.4260    0.3360    4.0440 H   0  0  0  0  0  0  0  0  0  0  0  0
    4.4500   -2.0570   -0.9530 N   0  0  0  0  0  0  0  0  0  0  0  0
    3.4320   -1.1710   -1.3100 C   0  0  0  0  0  0  0  0  0  0  0  0
    2.7790   -1.3550   -2.4300 N   0  0  0  0  0  0  0  0  0  0  0  0
    3.0340   -0.0490   -0.5350 N   0  0  0  0  0  0  0  0  0  0  0  0
    1.7100    0.5350   -0.7300 C   0  0  0  0  0  0  0  0  0  0  0  0
    1.5130    1.7340    0.1760 C   0  0  0  0  0  0  0  0  0  0  0  0
    0.2030    2.4010    0.0420 C   0  0  0  0  0  0  0  0  0  0  0  0
   -1.0330    1.6620    0.3260 C   0  0  2  0  0  0  0  0  0  0  0  0
   -1.2200    1.1260    1.6270 N   0  0  0  0  0  0  0  0  0  0  0  0
   -1.3120    0.6370   -0.7470 C   0  0  0  0  0  0  0  0  0  0  0  0
   -1.1180    0.8900   -1.9580 O   0  0  0  0  0  0  0  0  0  0  0  0
    4.9010   -1.9920   -0.0240 H   0  0  0  0  0  0  0  0  0  0  0  0
    4.7670   -2.7900   -1.6100 H   0  0  0  0  0  0  0  0  0  0  0  0
    2.9850   -2.1400   -3.0740 H   0  0  0  0  0  0  0  0  0  0  0  0
    3.7150    0.3280    0.1620 H   0  0  0  0  0  0  0  0  0  0  0  0
    0.9730   -0.2580   -0.5600 H   0  0  0  0  0  0  0  0  0  0  0  0
    1.6610    0.8170   -1.8010 H   0  0  0  0  0  0  0  0  0  0  0  0
    2.2860    2.4850   -0.1720 H   0  0  0  0  0  0  0  0  0  0  0  0
    1.8150    1.5110    1.2220 H   0  0  0  0  0  0  0  0  0  0  0  0
    0.1610    2.7970   -1.0200 H   0  0  0  0  0  0  0  0  0  0  0  0
    0.2690    3.3610    0.6400 H   0  0  0  0  0  0  0  0  0  0  0  0
   -1.8830    2.4090    0.1660 H   0  0  0  0  0  0  0  0  0  0  0  0
   -0.5690    0.4160    2.0160 H   0  0  0  0  0  0  0  0  0  0  0  0
    3.3650   -4.3100    0.9570 O   0  0  0  0  0  0  0  0  0  0  0  0
    2.1190   -3.9890    0.4130 C   0  0  0  0  0  0  0  0  0  0  0  0
    1.8290   -4.1280   -0.9260 C   0  0  0  0  0  0  0  0  0  0  0  0
    0.5930   -3.8060   -1.4370 C   0  0  0  0  0  0  0  0  0  0  0  0
   -0.4180   -3.3270   -0.6310 C   0  0  0  0  0  0  0  0  0  0  0  0
   -1.7430   -2.9690   -1.0480 C   0  0  0  0  0  0  0  0  0  0  0  0
   -2.0650   -1.5970   -1.4740 C   0  0  2  0  0  0  0  0  0  0  0  0
   -1.8100   -0.6490   -0.4090 N   0  0  0  0  0  0  0  0  0  0  0  0
   -3.5480   -1.5000   -1.7410 C   0  0  0  0  0  0  0  0  0  0  0  0
   -4.2710   -0.7260   -1.1050 O   0  0  0  0  0  0  0  0  0  0  0  0
   -0.1110   -3.1900    0.7310 C   0  0  0  0  0  0  0  0  0  0  0  0
    1.1160   -3.5120    1.2270 C   0  0  0  0  0  0  0  0  0  0  0  0
   -4.0650   -2.3070   -2.7240 O   0  0  0  0  0  0  0  0  0  0  0  0
    3.7430   -5.2620    0.8540 H   0  0  0  0  0  0  0  0  0  0  0  0
    2.6220   -4.5070   -1.5740 H   0  0  0  0  0  0  0  0  0  0  0  0
    0.3750   -3.9150   -2.4700 H   0  0  0  0  0  0  0  0  0  0  0  0
   -2.0350   -3.6590   -1.8980 H   0  0  0  0  0  0  0  0  0  0  0  0
   -2.4670   -3.2720   -0.2330 H   0  0  0  0  0  0  0  0  0  0  0  0
   -1.6160   -1.2120   -2.3910 H   0  0  0  0  0  0  0  0  0  0  0  0
   -1.9800   -0.8790    0.6020 H   0  0  0  0  0  0  0  0  0  0  0  0
   -0.8480   -2.8190    1.4420 H   0  0  0  0  0  0  0  0  0  0  0  0
    1.3520   -3.4050    2.2780 H   0  0  0  0  0  0  0  0  0  0  0  0
  1  6  1  0  0  0  0
  1  7  1  0  0  0  0
  2  9  1  1  0  0  0
  2  3  1  0  0  0  0
  2  1  1  0  0  0  0
  4  2  1  0  0  0  0
  5  4  2  0  0  0  0
  8  1  1  0  0  0  0
 10  3  1  0  0  0  0
 11  3  1  0  0  0  0
 12 23  1  0  0  0  0
 13 12  1  0  0  0  0
 13 15  1  0  0  0  0
 14 13  2  0  0  0  0
 15 26  1  0  0  0  0
 16 27  1  0  0  0  0
 16 15  1  0  0  0  0
 16 17  1  0  0  0  0
 17 30  1  0  0  0  0
 18 17  1  0  0  0  0
 18 19  1  0  0  0  0
 18 32  1  0  0  0  0
 19 33  1  6  0  0  0
 19 20  1  0  0  0  0
 20 34  1  0  0  0  0
 20  4  1  0  0  0  0
 21 42  1  0  0  0  0
 21 19  1  0  0  0  0
 22 21  2  0  0  0  0
 24 12  1  0  0  0  0
 25 14  1  0  0  0  0
 28 16  1  0  0  0  0
 29 17  1  0  0  0  0
 31 18  1  0  0  0  0
 36 35  1  0  0  0  0
 36 46  1  0  0  0  0
 37 36  2  0  0  0  0
 38 37  1  0  0  0  0
 38 39  2  0  0  0  0
 39 45  1  0  0  0  0
 40 39  1  0  0  0  0
 40 52  1  0  0  0  0
 41 53  1  6  0  0  0
 41 40  1  0  0  0  0
 41 42  1  0  0  0  0
 42 54  1  0  0  0  0
 43 41  1  0  0  0  0
 43 44  1  0  0  0  0
 45 46  2  0  0  0  0
 45 55  1  0  0  0  0
 46 56  1  0  0  0  0
 47 43  2  0  0  0  0
 48 35  1  0  0  0  0
 49 37  1  0  0  0  0
 50 38  1  0  0  0  0
 51 40  1  0  0  0  0
M  END
$$$$
