ASE.pdb
 OpenBabel07022418023D

 39 38  0  0  1  0  0  0  0  0999 V2000
   -1.2770   -4.9410    1.2080 C   0  0  0  0  0  0  0  0  0  0  0  0
   -1.4470   -3.4440    1.3910 C   0  0  2  0  0  0  0  0  0  0  0  0
   -2.2170   -2.9780    0.2660 N   0  0  0  0  0  0  0  0  0  0  0  0
   -0.1220   -2.7980    1.4830 C   0  0  0  0  0  0  0  0  0  0  0  0
    0.6150   -3.0560    2.4630 O   0  0  0  0  0  0  0  0  0  0  0  0
   -2.1150   -5.4540    1.6880 H   0  0  0  0  0  0  0  0  0  0  0  0
   -1.1900   -5.2180    0.1320 H   0  0  0  0  0  0  0  0  0  0  0  0
   -0.3390   -5.2270    1.7340 H   0  0  0  0  0  0  0  0  0  0  0  0
   -2.0530   -3.3000    2.3100 H   0  0  0  0  0  0  0  0  0  0  0  0
   -3.2540   -3.0630    0.4860 H   0  0  0  0  0  0  0  0  0  0  0  0
   -2.0290   -3.5820   -0.5540 H   0  0  0  0  0  0  0  0  0  0  0  0
    2.8760   -3.2090   -0.0910 O   0  0  0  0  0  0  0  0  0  0  0  0
    2.6690   -1.8370   -0.3600 C   0  0  0  0  0  0  0  0  0  0  0  0
    1.6510   -1.2540    0.6070 C   0  0  2  0  0  0  0  0  0  0  0  0
    0.3770   -1.8850    0.5150 N   0  0  0  0  0  0  0  0  0  0  0  0
    1.6260    0.2170    0.3810 C   0  0  0  0  0  0  0  0  0  0  0  0
    2.7120    0.8850    0.5430 O   0  0  0  0  0  0  0  0  0  0  0  0
    3.3620   -3.3040    0.7780 H   0  0  0  0  0  0  0  0  0  0  0  0
    3.6450   -1.3500   -0.1690 H   0  0  0  0  0  0  0  0  0  0  0  0
    2.4180   -1.6720   -1.4180 H   0  0  0  0  0  0  0  0  0  0  0  0
    2.0710   -1.5270    1.6220 H   0  0  0  0  0  0  0  0  0  0  0  0
   -0.2380   -1.6840   -0.3000 H   0  0  0  0  0  0  0  0  0  0  0  0
    0.4740    0.9460   -0.0060 N   0  0  0  0  0  0  0  0  0  0  0  0
    0.4070    2.3620   -0.2400 C   0  0  1  0  0  0  0  0  0  0  0  0
    0.1940    3.1720    0.9790 C   0  0  0  0  0  0  0  0  0  0  0  0
   -1.0420    2.9420    1.7580 C   0  0  0  0  0  0  0  0  0  0  0  0
   -1.2700    1.6100    2.2980 C   0  0  0  0  0  0  0  0  0  0  0  0
   -2.1670    0.8760    1.7730 O   0  0  0  0  0  0  0  0  0  0  0  0
    1.5920    2.8910   -0.9770 C   0  0  0  0  0  0  0  0  0  0  0  0
    1.7290    4.1740   -1.0760 O   0  0  0  0  0  0  0  0  0  0  0  0
   -0.5840    1.0410    3.3610 O   0  0  0  0  0  0  0  0  0  0  0  0
    2.5700    2.1650   -1.5750 O   0  0  0  0  0  0  0  0  0  0  0  0
   -0.3900    0.3240   -0.1350 H   0  0  0  0  0  0  0  0  0  0  0  0
   -0.4390    2.5600   -1.0120 H   0  0  0  0  0  0  0  0  0  0  0  0
    1.0900    2.9870    1.6420 H   0  0  0  0  0  0  0  0  0  0  0  0
    0.2200    4.2770    0.7310 H   0  0  0  0  0  0  0  0  0  0  0  0
   -1.0170    3.6530    2.6380 H   0  0  0  0  0  0  0  0  0  0  0  0
   -1.9370    3.3220    1.1770 H   0  0  0  0  0  0  0  0  0  0  0  0
   -0.4750    0.0140    3.3410 H   0  0  0  0  0  0  0  0  0  0  0  0
  1  2  1  0  0  0  0
  1  6  1  0  0  0  0
  1  8  1  0  0  0  0
  2  4  1  0  0  0  0
  2  9  1  1  0  0  0
  3 10  1  0  0  0  0
  3  2  1  0  0  0  0
  4  5  2  0  0  0  0
  7  1  1  0  0  0  0
 11  3  1  0  0  0  0
 12 18  1  0  0  0  0
 13 19  1  0  0  0  0
 13 12  1  0  0  0  0
 13 14  1  0  0  0  0
 14 21  1  1  0  0  0
 15 14  1  0  0  0  0
 15  4  1  0  0  0  0
 16 17  2  0  0  0  0
 16 14  1  0  0  0  0
 20 13  1  0  0  0  0
 22 15  1  0  0  0  0
 23 16  1  0  0  0  0
 24 34  1  6  0  0  0
 24 23  1  0  0  0  0
 24 25  1  0  0  0  0
 25 35  1  0  0  0  0
 25 26  1  0  0  0  0
 26 27  1  0  0  0  0
 26 37  1  0  0  0  0
 27 31  1  0  0  0  0
 28 27  2  0  0  0  0
 29 24  1  0  0  0  0
 30 29  1  0  0  0  0
 32 29  2  0  0  0  0
 33 23  1  0  0  0  0
 36 25  1  0  0  0  0
 38 26  1  0  0  0  0
 39 31  1  0  0  0  0
M  END
$$$$
