ASF.pdb
 OpenBabel07022418023D

 43 43  0  0  1  0  0  0  0  0999 V2000
    1.1390   -4.8550   -0.2740 C   0  0  0  0  0  0  0  0  0  0  0  0
    2.3260   -4.1590   -0.9400 C   0  0  2  0  0  0  0  0  0  0  0  0
    3.5200   -4.7480   -0.4150 N   0  0  0  0  0  0  0  0  0  0  0  0
    2.2860   -2.6860   -0.6340 C   0  0  0  0  0  0  0  0  0  0  0  0
    3.2110   -2.1170    0.0030 O   0  0  0  0  0  0  0  0  0  0  0  0
    1.4200   -5.8850   -0.0140 H   0  0  0  0  0  0  0  0  0  0  0  0
    0.8740   -4.3180    0.6620 H   0  0  0  0  0  0  0  0  0  0  0  0
    0.2640   -4.8860   -0.9550 H   0  0  0  0  0  0  0  0  0  0  0  0
    2.2160   -4.3360   -2.0290 H   0  0  0  0  0  0  0  0  0  0  0  0
    3.4460   -5.7560   -0.2180 H   0  0  0  0  0  0  0  0  0  0  0  0
    3.8930   -4.1770    0.3550 H   0  0  0  0  0  0  0  0  0  0  0  0
    0.0920   -0.3540   -2.9920 O   0  0  0  0  0  0  0  0  0  0  0  0
    1.1310    0.1890   -2.2020 C   0  0  0  0  0  0  0  0  0  0  0  0
    1.0350   -0.4980   -0.8330 C   0  0  2  0  0  0  0  0  0  0  0  0
    1.2040   -1.8940   -1.0520 N   0  0  0  0  0  0  0  0  0  0  0  0
   -0.1650   -0.0990   -0.1330 C   0  0  0  0  0  0  0  0  0  0  0  0
   -1.0140   -0.9210    0.2630 O   0  0  0  0  0  0  0  0  0  0  0  0
   -0.7270   -0.4730   -2.4260 H   0  0  0  0  0  0  0  0  0  0  0  0
    2.0730   -0.1170   -2.7110 H   0  0  0  0  0  0  0  0  0  0  0  0
    1.0280    1.2660   -2.0610 H   0  0  0  0  0  0  0  0  0  0  0  0
    1.9380   -0.1440   -0.2570 H   0  0  0  0  0  0  0  0  0  0  0  0
    0.4340   -2.3850   -1.5860 H   0  0  0  0  0  0  0  0  0  0  0  0
   -0.4070    1.2700    0.1240 N   0  0  0  0  0  0  0  0  0  0  0  0
   -1.5730    1.7580    0.8140 C   0  0  1  0  0  0  0  0  0  0  0  0
   -1.2630    2.4810    2.0930 C   0  0  0  0  0  0  0  0  0  0  0  0
   -0.5530    1.6220    3.0720 C   0  0  0  0  0  0  0  0  0  0  0  0
    0.8210    1.5690    3.0850 C   0  0  0  0  0  0  0  0  0  0  0  0
    1.4880    0.7690    3.9950 C   0  0  0  0  0  0  0  0  0  0  0  0
    0.7590    0.0220    4.8930 C   0  0  0  0  0  0  0  0  0  0  0  0
   -0.6170    0.0800    4.8750 C   0  0  0  0  0  0  0  0  0  0  0  0
   -1.2650    0.8810    3.9620 C   0  0  0  0  0  0  0  0  0  0  0  0
   -2.4120    2.6370   -0.0280 C   0  0  0  0  0  0  0  0  0  0  0  0
   -3.4540    3.1100    0.4970 O   0  0  0  0  0  0  0  0  0  0  0  0
   -2.1350    2.9700   -1.3310 O   0  0  0  0  0  0  0  0  0  0  0  0
    0.2750    2.0290   -0.1850 H   0  0  0  0  0  0  0  0  0  0  0  0
   -2.1900    0.8720    1.0750 H   0  0  0  0  0  0  0  0  0  0  0  0
   -0.7360    3.4450    1.9260 H   0  0  0  0  0  0  0  0  0  0  0  0
   -2.2370    2.7490    2.5530 H   0  0  0  0  0  0  0  0  0  0  0  0
    1.4320    2.1510    2.3830 H   0  0  0  0  0  0  0  0  0  0  0  0
    2.5730    0.7010    4.0360 H   0  0  0  0  0  0  0  0  0  0  0  0
    1.2680   -0.6190    5.6240 H   0  0  0  0  0  0  0  0  0  0  0  0
   -1.1820   -0.5210    5.5980 H   0  0  0  0  0  0  0  0  0  0  0  0
   -2.3500    0.8690    4.0160 H   0  0  0  0  0  0  0  0  0  0  0  0
  1  6  1  0  0  0  0
  1  7  1  0  0  0  0
  2  9  1  6  0  0  0
  2  4  1  0  0  0  0
  2  3  1  0  0  0  0
  2  1  1  0  0  0  0
  3 10  1  0  0  0  0
  3 11  1  0  0  0  0
  4  5  2  0  0  0  0
  8  1  1  0  0  0  0
 12 18  1  0  0  0  0
 12 13  1  0  0  0  0
 13 20  1  0  0  0  0
 13 14  1  0  0  0  0
 14 21  1  1  0  0  0
 14 16  1  0  0  0  0
 15 14  1  0  0  0  0
 15  4  1  0  0  0  0
 16 23  1  0  0  0  0
 16 17  2  0  0  0  0
 19 13  1  0  0  0  0
 22 15  1  0  0  0  0
 23 24  1  0  0  0  0
 24 36  1  1  0  0  0
 24 25  1  0  0  0  0
 25 38  1  0  0  0  0
 25 26  1  0  0  0  0
 26 27  2  0  0  0  0
 26 31  1  0  0  0  0
 27 28  1  0  0  0  0
 28 40  1  0  0  0  0
 28 29  2  0  0  0  0
 29 41  1  0  0  0  0
 30 29  1  0  0  0  0
 30 42  1  0  0  0  0
 31 43  1  0  0  0  0
 31 30  2  0  0  0  0
 32 33  1  0  0  0  0
 32 24  1  0  0  0  0
 34 32  2  0  0  0  0
 35 23  1  0  0  0  0
 37 25  1  0  0  0  0
 39 27  1  0  0  0  0
M  END
$$$$
