ASH.pdb
 OpenBabel07022418023D

 40 40  0  0  1  0  0  0  0  0999 V2000
    0.9630   -4.7410   -3.6690 C   0  0  0  0  0  0  0  0  0  0  0  0
    1.6160   -4.0410   -2.4790 C   0  0  2  0  0  0  0  0  0  0  0  0
    1.5040   -4.9400   -1.3580 N   0  0  0  0  0  0  0  0  0  0  0  0
    0.8770   -2.7800   -2.2050 C   0  0  0  0  0  0  0  0  0  0  0  0
    0.8400   -1.8570   -3.0430 O   0  0  0  0  0  0  0  0  0  0  0  0
    1.1640   -4.1150   -4.5540 H   0  0  0  0  0  0  0  0  0  0  0  0
    1.3160   -5.7790   -3.7650 H   0  0  0  0  0  0  0  0  0  0  0  0
   -0.1270   -4.7500   -3.4580 H   0  0  0  0  0  0  0  0  0  0  0  0
    2.6640   -3.8870   -2.7360 H   0  0  0  0  0  0  0  0  0  0  0  0
    1.9500   -4.6010   -0.4960 H   0  0  0  0  0  0  0  0  0  0  0  0
    0.5290   -5.2410   -1.2490 H   0  0  0  0  0  0  0  0  0  0  0  0
   -2.2040   -2.4460    0.5710 O   0  0  0  0  0  0  0  0  0  0  0  0
   -2.0320   -1.5990   -0.5060 C   0  0  0  0  0  0  0  0  0  0  0  0
   -0.5440   -1.3290   -0.7150 C   0  0  2  0  0  0  0  0  0  0  0  0
    0.1720   -2.5570   -0.9750 N   0  0  0  0  0  0  0  0  0  0  0  0
    0.0050   -0.7300    0.5490 C   0  0  0  0  0  0  0  0  0  0  0  0
    0.9330   -1.3070    1.1740 O   0  0  0  0  0  0  0  0  0  0  0  0
   -1.3220   -2.6530    0.9780 H   0  0  0  0  0  0  0  0  0  0  0  0
   -2.4920   -1.9440   -1.4330 H   0  0  0  0  0  0  0  0  0  0  0  0
   -2.4810   -0.6210   -0.2400 H   0  0  0  0  0  0  0  0  0  0  0  0
   -0.4670   -0.6300   -1.5660 H   0  0  0  0  0  0  0  0  0  0  0  0
    0.2110   -3.3370   -0.2820 H   0  0  0  0  0  0  0  0  0  0  0  0
   -0.4870    0.4800    1.0750 N   0  0  0  0  0  0  0  0  0  0  0  0
    0.1140    0.9920    2.3210 C   0  0  1  0  0  0  0  0  0  0  0  0
    0.5680    2.4020    2.1350 C   0  0  0  0  0  0  0  0  0  0  0  0
    1.2140    2.8980    3.3650 C   0  0  0  0  0  0  0  0  0  0  0  0
    1.7370    4.1900    3.5460 C   0  0  0  0  0  0  0  0  0  0  0  0
    2.2450    4.2870    4.7820 N   0  0  0  0  0  0  0  0  0  0  0  0
    2.0630    3.1110    5.3880 C   0  0  0  0  0  0  0  0  0  0  0  0
    1.4480    2.2900    4.5350 N   0  0  0  0  0  0  0  0  0  0  0  0
   -1.0280    0.9960    3.2900 C   0  0  0  0  0  0  0  0  0  0  0  0
   -2.1620    0.6080    2.8390 O   0  0  0  0  0  0  0  0  0  0  0  0
   -0.9380    1.3800    4.6000 O   0  0  0  0  0  0  0  0  0  0  0  0
   -1.2380    1.0270    0.6450 H   0  0  0  0  0  0  0  0  0  0  0  0
    0.9080    0.3230    2.6900 H   0  0  0  0  0  0  0  0  0  0  0  0
   -0.3240    3.0320    1.9000 H   0  0  0  0  0  0  0  0  0  0  0  0
    1.3270    2.5050    1.3170 H   0  0  0  0  0  0  0  0  0  0  0  0
    1.7160    4.9590    2.7850 H   0  0  0  0  0  0  0  0  0  0  0  0
    2.7080    5.1420    5.2080 H   0  0  0  0  0  0  0  0  0  0  0  0
    2.3590    2.8690    6.3830 H   0  0  0  0  0  0  0  0  0  0  0  0
  1  8  1  0  0  0  0
  1  2  1  0  0  0  0
  2  9  1  6  0  0  0
  2  4  1  0  0  0  0
  2  3  1  0  0  0  0
  3 11  1  0  0  0  0
  3 10  1  0  0  0  0
  4 15  1  0  0  0  0
  5  4  2  0  0  0  0
  6  1  1  0  0  0  0
  7  1  1  0  0  0  0
 12 18  1  0  0  0  0
 13 20  1  0  0  0  0
 13 12  1  0  0  0  0
 14 21  1  6  0  0  0
 14 13  1  0  0  0  0
 14 16  1  0  0  0  0
 15 14  1  0  0  0  0
 15 22  1  0  0  0  0
 16 23  1  0  0  0  0
 16 17  2  0  0  0  0
 19 13  1  0  0  0  0
 23 24  1  0  0  0  0
 24 35  1  1  0  0  0
 24 31  1  0  0  0  0
 25 24  1  0  0  0  0
 25 26  1  0  0  0  0
 26 27  2  0  0  0  0
 26 30  1  0  0  0  0
 27 28  1  0  0  0  0
 28 39  1  0  0  0  0
 28 29  1  0  0  0  0
 29 40  1  0  0  0  0
 30 29  2  0  0  0  0
 31 33  1  0  0  0  0
 32 31  2  0  0  0  0
 34 23  1  0  0  0  0
 36 25  1  0  0  0  0
 37 25  1  0  0  0  0
 38 27  1  0  0  0  0
M  END
$$$$
