ASI.pdb
 OpenBabel07022418023D

 42 41  0  0  1  0  0  0  0  0999 V2000
   -2.9240   -2.5200    0.8990 C   0  0  0  0  0  0  0  0  0  0  0  0
   -2.9650   -2.3930    2.4070 C   0  0  2  0  0  0  0  0  0  0  0  0
   -4.3280   -2.2730    2.8100 N   0  0  0  0  0  0  0  0  0  0  0  0
   -2.1130   -1.2790    2.8990 C   0  0  0  0  0  0  0  0  0  0  0  0
   -2.6000   -0.3480    3.5990 O   0  0  0  0  0  0  0  0  0  0  0  0
   -1.9650   -2.1780    0.4690 H   0  0  0  0  0  0  0  0  0  0  0  0
   -3.7670   -1.9200    0.4530 H   0  0  0  0  0  0  0  0  0  0  0  0
   -3.0510   -3.5900    0.5910 H   0  0  0  0  0  0  0  0  0  0  0  0
   -2.5620   -3.3360    2.8370 H   0  0  0  0  0  0  0  0  0  0  0  0
   -4.8580   -1.5180    2.3580 H   0  0  0  0  0  0  0  0  0  0  0  0
   -4.8110   -3.1730    2.5860 H   0  0  0  0  0  0  0  0  0  0  0  0
    0.8030   -1.2780    5.0920 O   0  0  0  0  0  0  0  0  0  0  0  0
    1.2610   -0.6910    3.9390 C   0  0  0  0  0  0  0  0  0  0  0  0
    0.1600   -0.1870    3.0350 C   0  0  2  0  0  0  0  0  0  0  0  0
   -0.7290   -1.2200    2.6020 N   0  0  0  0  0  0  0  0  0  0  0  0
    0.7920    0.5540    1.9300 C   0  0  0  0  0  0  0  0  0  0  0  0
    1.5880    1.4800    2.2280 O   0  0  0  0  0  0  0  0  0  0  0  0
    0.6050   -0.6220    5.7780 H   0  0  0  0  0  0  0  0  0  0  0  0
    1.9440   -1.3930    3.3900 H   0  0  0  0  0  0  0  0  0  0  0  0
    1.8870    0.1830    4.2170 H   0  0  0  0  0  0  0  0  0  0  0  0
   -0.4260    0.5500    3.6370 H   0  0  0  0  0  0  0  0  0  0  0  0
   -0.3550   -2.0210    2.0110 H   0  0  0  0  0  0  0  0  0  0  0  0
    4.0210   -1.4620   -1.0000 C   0  0  0  0  0  0  0  0  0  0  0  0
    3.0670   -0.5150   -0.3210 C   0  0  0  0  0  0  0  0  0  0  0  0
    2.0480    0.0590   -1.2970 C   0  0  2  0  0  0  0  0  0  0  0  0
    2.7740    0.8110   -2.3840 C   0  0  0  0  0  0  0  0  0  0  0  0
    1.1970    1.0370   -0.5050 C   0  0  2  0  0  0  0  0  0  0  0  0
    0.5660    0.2970    0.5560 N   0  0  0  0  0  0  0  0  0  0  0  0
    0.1880    1.6820   -1.3690 C   0  0  0  0  0  0  0  0  0  0  0  0
   -1.0320    1.5310   -1.1090 O   0  0  0  0  0  0  0  0  0  0  0  0
    0.5480    2.4520   -2.4620 O   0  0  0  0  0  0  0  0  0  0  0  0
    5.0550   -1.0410   -1.0610 H   0  0  0  0  0  0  0  0  0  0  0  0
    3.6970   -1.7750   -2.0010 H   0  0  0  0  0  0  0  0  0  0  0  0
    4.1110   -2.3800   -0.3520 H   0  0  0  0  0  0  0  0  0  0  0  0
    3.6780    0.3220    0.1010 H   0  0  0  0  0  0  0  0  0  0  0  0
    2.5300   -0.9930    0.5110 H   0  0  0  0  0  0  0  0  0  0  0  0
    1.4170   -0.7540   -1.6660 H   0  0  0  0  0  0  0  0  0  0  0  0
    2.8960    1.8610   -2.0670 H   0  0  0  0  0  0  0  0  0  0  0  0
    3.7490    0.3150   -2.5940 H   0  0  0  0  0  0  0  0  0  0  0  0
    2.1840    0.8220   -3.3370 H   0  0  0  0  0  0  0  0  0  0  0  0
    1.8550    1.8010   -0.0240 H   0  0  0  0  0  0  0  0  0  0  0  0
   -0.0900   -0.4660    0.2820 H   0  0  0  0  0  0  0  0  0  0  0  0
  1  2  1  0  0  0  0
  2  3  1  0  0  0  0
  2  9  1  1  0  0  0
  2  4  1  0  0  0  0
  4  5  2  0  0  0  0
  6  1  1  0  0  0  0
  7  1  1  0  0  0  0
  8  1  1  0  0  0  0
 10  3  1  0  0  0  0
 11  3  1  0  0  0  0
 12 18  1  0  0  0  0
 13 20  1  0  0  0  0
 13 12  1  0  0  0  0
 14 21  1  1  0  0  0
 14 13  1  0  0  0  0
 15  4  1  0  0  0  0
 15 14  1  0  0  0  0
 16 17  2  0  0  0  0
 16 14  1  0  0  0  0
 19 13  1  0  0  0  0
 22 15  1  0  0  0  0
 23 34  1  0  0  0  0
 23 24  1  0  0  0  0
 24 35  1  0  0  0  0
 24 36  1  0  0  0  0
 25 37  1  6  0  0  0
 25 27  1  0  0  0  0
 25 24  1  0  0  0  0
 26 38  1  0  0  0  0
 26 25  1  0  0  0  0
 27 41  1  1  0  0  0
 27 28  1  0  0  0  0
 28 16  1  0  0  0  0
 29 30  1  0  0  0  0
 29 27  1  0  0  0  0
 31 29  2  0  0  0  0
 32 23  1  0  0  0  0
 33 23  1  0  0  0  0
 39 26  1  0  0  0  0
 40 26  1  0  0  0  0
 42 28  1  0  0  0  0
M  END
$$$$
