ASL.pdb
 OpenBabel07022418023D

 42 41  0  0  1  0  0  0  0  0999 V2000
   -2.2150   -3.6520    0.3200 C   0  0  0  0  0  0  0  0  0  0  0  0
   -1.4200   -4.5580    1.2000 C   0  0  2  0  0  0  0  0  0  0  0  0
   -2.3000   -5.2730    2.0900 N   0  0  0  0  0  0  0  0  0  0  0  0
   -0.3500   -3.8230    1.9620 C   0  0  0  0  0  0  0  0  0  0  0  0
   -0.3760   -3.9330    3.2130 O   0  0  0  0  0  0  0  0  0  0  0  0
   -2.4370   -4.1870   -0.6400 H   0  0  0  0  0  0  0  0  0  0  0  0
   -3.1710   -3.4160    0.8100 H   0  0  0  0  0  0  0  0  0  0  0  0
   -1.6740   -2.6900    0.1100 H   0  0  0  0  0  0  0  0  0  0  0  0
   -0.8820   -5.3020    0.5550 H   0  0  0  0  0  0  0  0  0  0  0  0
   -2.3070   -6.2910    1.9600 H   0  0  0  0  0  0  0  0  0  0  0  0
   -2.1250   -5.0210    3.0990 H   0  0  0  0  0  0  0  0  0  0  0  0
    3.9680   -2.2810    2.4970 O   0  0  0  0  0  0  0  0  0  0  0  0
    2.9940   -2.9290    1.7550 C   0  0  0  0  0  0  0  0  0  0  0  0
    1.6330   -2.3660    2.0800 C   0  0  2  0  0  0  0  0  0  0  0  0
    0.6330   -3.0490    1.3020 N   0  0  0  0  0  0  0  0  0  0  0  0
    1.5770   -0.8950    1.9040 C   0  0  0  0  0  0  0  0  0  0  0  0
    2.3990   -0.1770    2.5300 O   0  0  0  0  0  0  0  0  0  0  0  0
    4.6420   -1.9320    1.8620 H   0  0  0  0  0  0  0  0  0  0  0  0
    2.9910   -3.9950    2.0930 H   0  0  0  0  0  0  0  0  0  0  0  0
    3.2180   -2.9370    0.6780 H   0  0  0  0  0  0  0  0  0  0  0  0
    1.4460   -2.5810    3.1480 H   0  0  0  0  0  0  0  0  0  0  0  0
    0.6530   -2.9590    0.2720 H   0  0  0  0  0  0  0  0  0  0  0  0
   -0.2780    3.8870   -0.8110 C   0  0  0  0  0  0  0  0  0  0  0  0
    0.8600    2.9680   -0.9810 C   0  0  0  0  0  0  0  0  0  0  0  0
    2.1080    3.7190   -0.4990 C   0  0  0  0  0  0  0  0  0  0  0  0
    0.8030    1.5930   -0.4960 C   0  0  0  0  0  0  0  0  0  0  0  0
    0.6320    1.2500    0.9230 C   0  0  2  0  0  0  0  0  0  0  0  0
    0.6420   -0.2450    1.0630 N   0  0  0  0  0  0  0  0  0  0  0  0
   -0.6710    1.6460    1.4770 C   0  0  0  0  0  0  0  0  0  0  0  0
   -1.5470    0.7440    1.7580 O   0  0  0  0  0  0  0  0  0  0  0  0
   -1.0860    2.9410    1.7530 O   0  0  0  0  0  0  0  0  0  0  0  0
   -1.2850    3.4550   -0.8330 H   0  0  0  0  0  0  0  0  0  0  0  0
   -0.2670    4.5740   -1.7380 H   0  0  0  0  0  0  0  0  0  0  0  0
   -0.1270    4.6540    0.0030 H   0  0  0  0  0  0  0  0  0  0  0  0
    1.0530    2.8900   -2.1100 H   0  0  0  0  0  0  0  0  0  0  0  0
    2.9790    3.2390   -0.9900 H   0  0  0  0  0  0  0  0  0  0  0  0
    2.2360    3.6290    0.5810 H   0  0  0  0  0  0  0  0  0  0  0  0
    1.9750    4.7710   -0.7820 H   0  0  0  0  0  0  0  0  0  0  0  0
   -0.0030    1.0650   -1.1060 H   0  0  0  0  0  0  0  0  0  0  0  0
    1.7480    1.0780   -0.8960 H   0  0  0  0  0  0  0  0  0  0  0  0
    1.4160    1.6810    1.5420 H   0  0  0  0  0  0  0  0  0  0  0  0
   -0.0380   -0.8340    0.5450 H   0  0  0  0  0  0  0  0  0  0  0  0
  1  7  1  0  0  0  0
  1  2  1  0  0  0  0
  2  9  1  6  0  0  0
  2  4  1  0  0  0  0
  2  3  1  0  0  0  0
  3 11  1  0  0  0  0
  4  5  2  0  0  0  0
  6  1  1  0  0  0  0
  8  1  1  0  0  0  0
 10  3  1  0  0  0  0
 13 14  1  0  0  0  0
 13 19  1  0  0  0  0
 13 12  1  0  0  0  0
 14 21  1  1  0  0  0
 15  4  1  0  0  0  0
 15 14  1  0  0  0  0
 16 14  1  0  0  0  0
 16 17  2  0  0  0  0
 18 12  1  0  0  0  0
 20 13  1  0  0  0  0
 22 15  1  0  0  0  0
 23 34  1  0  0  0  0
 24 23  1  0  0  0  0
 24 25  1  0  0  0  0
 24 26  1  0  0  0  0
 25 37  1  0  0  0  0
 26 27  1  0  0  0  0
 27 28  1  0  0  0  0
 27 29  1  0  0  0  0
 27 41  1  1  0  0  0
 28 16  1  0  0  0  0
 29 31  2  0  0  0  0
 29 30  1  0  0  0  0
 32 23  1  0  0  0  0
 33 23  1  0  0  0  0
 35 24  1  0  0  0  0
 36 25  1  0  0  0  0
 38 25  1  0  0  0  0
 39 26  1  0  0  0  0
 40 26  1  0  0  0  0
 42 28  1  0  0  0  0
M  END
$$$$
