ASQ.pdb
 OpenBabel07022418023D

 40 39  0  0  1  0  0  0  0  0999 V2000
   -1.1240   -5.4620    0.3380 C   0  0  0  0  0  0  0  0  0  0  0  0
   -1.1840   -4.0780    0.9820 C   0  0  2  0  0  0  0  0  0  0  0  0
   -2.0230   -3.2170    0.1810 N   0  0  0  0  0  0  0  0  0  0  0  0
    0.2080   -3.5490    1.0790 C   0  0  0  0  0  0  0  0  0  0  0  0
    1.0420   -4.1950    1.7440 O   0  0  0  0  0  0  0  0  0  0  0  0
   -1.9710   -6.0530    0.7600 H   0  0  0  0  0  0  0  0  0  0  0  0
   -0.1800   -5.9350    0.6730 H   0  0  0  0  0  0  0  0  0  0  0  0
   -1.2050   -5.3890   -0.7650 H   0  0  0  0  0  0  0  0  0  0  0  0
   -1.5870   -4.1820    2.0110 H   0  0  0  0  0  0  0  0  0  0  0  0
   -2.9260   -3.0180    0.6740 H   0  0  0  0  0  0  0  0  0  0  0  0
   -2.2660   -3.6910   -0.7060 H   0  0  0  0  0  0  0  0  0  0  0  0
    3.7950   -1.2680   -0.9180 O   0  0  0  0  0  0  0  0  0  0  0  0
    2.5090   -1.7980   -0.8690 C   0  0  0  0  0  0  0  0  0  0  0  0
    1.9290   -1.7990    0.5100 C   0  0  2  0  0  0  0  0  0  0  0  0
    0.6130   -2.3600    0.4560 N   0  0  0  0  0  0  0  0  0  0  0  0
    1.9770   -0.4770    1.1690 C   0  0  0  0  0  0  0  0  0  0  0  0
    3.0830    0.1130    1.2730 O   0  0  0  0  0  0  0  0  0  0  0  0
    4.2320   -1.5280   -0.0540 H   0  0  0  0  0  0  0  0  0  0  0  0
    1.8330   -1.3330   -1.6190 H   0  0  0  0  0  0  0  0  0  0  0  0
    2.6080   -2.8690   -1.1830 H   0  0  0  0  0  0  0  0  0  0  0  0
    2.5650   -2.4840    1.1370 H   0  0  0  0  0  0  0  0  0  0  0  0
   -0.1110   -1.8260   -0.1030 H   0  0  0  0  0  0  0  0  0  0  0  0
   -0.5280    4.0600   -1.7110 N   0  0  0  0  0  0  0  0  0  0  0  0
   -0.6200    3.6700   -0.3560 C   0  0  0  0  0  0  0  0  0  0  0  0
   -1.5300    4.1870    0.3450 O   0  0  0  0  0  0  0  0  0  0  0  0
    0.3240    2.6820    0.2270 C   0  0  0  0  0  0  0  0  0  0  0  0
   -0.0400    2.4780    1.7020 C   0  0  0  0  0  0  0  0  0  0  0  0
    0.8950    1.4780    2.3450 C   0  0  2  0  0  0  0  0  0  0  0  0
    0.8420    0.1900    1.7040 N   0  0  0  0  0  0  0  0  0  0  0  0
    0.4240    1.2920    3.7470 C   0  0  0  0  0  0  0  0  0  0  0  0
    0.0650    0.1740    4.1990 O   0  0  0  0  0  0  0  0  0  0  0  0
    0.3550    2.3650    4.6470 O   0  0  0  0  0  0  0  0  0  0  0  0
   -1.3090    4.4580   -2.2610 H   0  0  0  0  0  0  0  0  0  0  0  0
    0.3860    3.9510   -2.2300 H   0  0  0  0  0  0  0  0  0  0  0  0
    0.3520    1.7320   -0.3130 H   0  0  0  0  0  0  0  0  0  0  0  0
    1.3370    3.1340    0.1580 H   0  0  0  0  0  0  0  0  0  0  0  0
    0.0400    3.4610    2.2090 H   0  0  0  0  0  0  0  0  0  0  0  0
   -1.1040    2.1740    1.7640 H   0  0  0  0  0  0  0  0  0  0  0  0
    1.8900    1.9130    2.3910 H   0  0  0  0  0  0  0  0  0  0  0  0
   -0.0720   -0.3060    1.6130 H   0  0  0  0  0  0  0  0  0  0  0  0
  1  7  1  0  0  0  0
  1  6  1  0  0  0  0
  1  2  1  0  0  0  0
  2  4  1  0  0  0  0
  2  9  1  1  0  0  0
  3 10  1  0  0  0  0
  3  2  1  0  0  0  0
  4  5  2  0  0  0  0
  8  1  1  0  0  0  0
 11  3  1  0  0  0  0
 12 13  1  0  0  0  0
 12 18  1  0  0  0  0
 13 14  1  0  0  0  0
 14 21  1  1  0  0  0
 14 16  1  0  0  0  0
 15 14  1  0  0  0  0
 15  4  1  0  0  0  0
 16 17  2  0  0  0  0
 16 29  1  0  0  0  0
 19 13  1  0  0  0  0
 20 13  1  0  0  0  0
 22 15  1  0  0  0  0
 23 24  1  0  0  0  0
 24 26  1  0  0  0  0
 24 25  2  0  0  0  0
 26 27  1  0  0  0  0
 27 38  1  0  0  0  0
 27 37  1  0  0  0  0
 27 28  1  0  0  0  0
 28 39  1  6  0  0  0
 28 30  1  0  0  0  0
 29 28  1  0  0  0  0
 30 31  2  0  0  0  0
 30 32  1  0  0  0  0
 33 23  1  0  0  0  0
 34 23  1  0  0  0  0
 35 26  1  0  0  0  0
 36 26  1  0  0  0  0
 40 29  1  0  0  0  0
M  END
$$$$
