ASS.pdb
 OpenBabel07022418023D

 34 33  0  0  1  0  0  0  0  0999 V2000
   -2.2500   -1.8060    2.0380 C   0  0  0  0  0  0  0  0  0  0  0  0
   -1.1710   -2.8090    2.3040 C   0  0  2  0  0  0  0  0  0  0  0  0
   -1.2730   -3.2690    3.6750 N   0  0  0  0  0  0  0  0  0  0  0  0
    0.1860   -2.3230    2.0440 C   0  0  0  0  0  0  0  0  0  0  0  0
    1.0590   -2.3440    2.9400 O   0  0  0  0  0  0  0  0  0  0  0  0
   -2.0730   -1.1730    1.1520 H   0  0  0  0  0  0  0  0  0  0  0  0
   -3.2180   -2.3430    1.8300 H   0  0  0  0  0  0  0  0  0  0  0  0
   -2.4200   -1.1420    2.8980 H   0  0  0  0  0  0  0  0  0  0  0  0
   -1.3710   -3.7060    1.6530 H   0  0  0  0  0  0  0  0  0  0  0  0
   -1.0520   -4.2880    3.7190 H   0  0  0  0  0  0  0  0  0  0  0  0
   -0.5770   -2.7670    4.2830 H   0  0  0  0  0  0  0  0  0  0  0  0
    1.7120   -2.2130   -1.7730 O   0  0  0  0  0  0  0  0  0  0  0  0
    2.4710   -2.2190   -0.6050 C   0  0  0  0  0  0  0  0  0  0  0  0
    1.8700   -1.3250    0.4580 C   0  0  2  0  0  0  0  0  0  0  0  0
    0.5430   -1.8130    0.7540 N   0  0  0  0  0  0  0  0  0  0  0  0
    1.7950    0.0840    0.0140 C   0  0  0  0  0  0  0  0  0  0  0  0
    2.8100    0.7540   -0.3160 O   0  0  0  0  0  0  0  0  0  0  0  0
    0.8530   -2.6990   -1.5980 H   0  0  0  0  0  0  0  0  0  0  0  0
    3.4950   -1.8820   -0.8630 H   0  0  0  0  0  0  0  0  0  0  0  0
    2.5290   -3.2650   -0.2520 H   0  0  0  0  0  0  0  0  0  0  0  0
    2.5370   -1.4310    1.3570 H   0  0  0  0  0  0  0  0  0  0  0  0
   -0.1660   -1.7870   -0.0100 H   0  0  0  0  0  0  0  0  0  0  0  0
   -0.5930    3.5300   -2.1180 O   0  0  0  0  0  0  0  0  0  0  0  0
   -0.4470    2.1970   -1.7390 C   0  0  0  0  0  0  0  0  0  0  0  0
    0.3560    2.0930   -0.4670 C   0  0  2  0  0  0  0  0  0  0  0  0
    0.5260    0.7160   -0.0440 N   0  0  0  0  0  0  0  0  0  0  0  0
   -0.1770    2.9320    0.6160 C   0  0  0  0  0  0  0  0  0  0  0  0
   -0.3870    4.1430    0.4310 O   0  0  0  0  0  0  0  0  0  0  0  0
   -0.4460    2.3750    1.8430 O   0  0  0  0  0  0  0  0  0  0  0  0
    0.3110    3.9310   -2.0780 H   0  0  0  0  0  0  0  0  0  0  0  0
   -0.0060    1.6660   -2.5790 H   0  0  0  0  0  0  0  0  0  0  0  0
   -1.4580    1.8140   -1.5210 H   0  0  0  0  0  0  0  0  0  0  0  0
    1.3760    2.4800   -0.7070 H   0  0  0  0  0  0  0  0  0  0  0  0
   -0.3560    0.2190    0.2180 H   0  0  0  0  0  0  0  0  0  0  0  0
  1  2  1  0  0  0  0
  1  8  1  0  0  0  0
  2  9  1  6  0  0  0
  2  3  1  0  0  0  0
  3 10  1  0  0  0  0
  3 11  1  0  0  0  0
  4  2  1  0  0  0  0
  4  5  2  0  0  0  0
  6  1  1  0  0  0  0
  7  1  1  0  0  0  0
 12 18  1  0  0  0  0
 12 13  1  0  0  0  0
 13 20  1  0  0  0  0
 13 14  1  0  0  0  0
 14 15  1  0  0  0  0
 14 21  1  1  0  0  0
 15  4  1  0  0  0  0
 16 14  1  0  0  0  0
 17 16  2  0  0  0  0
 19 13  1  0  0  0  0
 22 15  1  0  0  0  0
 23 30  1  0  0  0  0
 23 24  1  0  0  0  0
 24 32  1  0  0  0  0
 24 25  1  0  0  0  0
 25 33  1  6  0  0  0
 25 26  1  0  0  0  0
 25 27  1  0  0  0  0
 26 16  1  0  0  0  0
 26 34  1  0  0  0  0
 27 29  1  0  0  0  0
 28 27  2  0  0  0  0
 31 24  1  0  0  0  0
M  END
$$$$
