AST.pdb
 OpenBabel07022418023D

 37 36  0  0  1  0  0  0  0  0999 V2000
   -1.4720   -2.9540    3.9040 C   0  0  0  0  0  0  0  0  0  0  0  0
   -0.1130   -3.5850    3.6400 C   0  0  2  0  0  0  0  0  0  0  0  0
    0.6330   -3.7750    4.8680 N   0  0  0  0  0  0  0  0  0  0  0  0
    0.6980   -2.7640    2.7100 C   0  0  0  0  0  0  0  0  0  0  0  0
    1.8280   -2.3570    3.0400 O   0  0  0  0  0  0  0  0  0  0  0  0
   -2.2450   -3.3440    3.2110 H   0  0  0  0  0  0  0  0  0  0  0  0
   -1.4380   -1.8580    3.7520 H   0  0  0  0  0  0  0  0  0  0  0  0
   -1.8150   -3.1540    4.9380 H   0  0  0  0  0  0  0  0  0  0  0  0
   -0.2430   -4.6100    3.1940 H   0  0  0  0  0  0  0  0  0  0  0  0
    1.3620   -4.4980    4.6960 H   0  0  0  0  0  0  0  0  0  0  0  0
   -0.0100   -4.0120    5.6380 H   0  0  0  0  0  0  0  0  0  0  0  0
    0.1070   -2.7790   -1.3290 O   0  0  0  0  0  0  0  0  0  0  0  0
    1.3010   -2.4340   -0.6990 C   0  0  0  0  0  0  0  0  0  0  0  0
    1.0260   -1.6190    0.5420 C   0  0  2  0  0  0  0  0  0  0  0  0
    0.2220   -2.4170    1.4280 N   0  0  0  0  0  0  0  0  0  0  0  0
    0.2660   -0.3760    0.2230 C   0  0  0  0  0  0  0  0  0  0  0  0
   -0.8800   -0.1620    0.7030 O   0  0  0  0  0  0  0  0  0  0  0  0
   -0.0750   -3.7560   -1.2860 H   0  0  0  0  0  0  0  0  0  0  0  0
    1.9670   -1.9130   -1.4060 H   0  0  0  0  0  0  0  0  0  0  0  0
    1.7740   -3.3790   -0.3630 H   0  0  0  0  0  0  0  0  0  0  0  0
    1.9950   -1.3350    0.9690 H   0  0  0  0  0  0  0  0  0  0  0  0
   -0.7100   -2.7370    1.1200 H   0  0  0  0  0  0  0  0  0  0  0  0
   -0.0320    4.2930   -0.6920 C   0  0  0  0  0  0  0  0  0  0  0  0
    0.7720    3.0710   -0.3810 C   0  0  1  0  0  0  0  0  0  0  0  0
    0.8410    2.9430    1.0040 O   0  0  0  0  0  0  0  0  0  0  0  0
    0.0680    1.8480   -0.9610 C   0  0  2  0  0  0  0  0  0  0  0  0
    0.7880    0.6330   -0.6370 N   0  0  0  0  0  0  0  0  0  0  0  0
   -0.1930    1.9960   -2.3910 C   0  0  0  0  0  0  0  0  0  0  0  0
   -0.8110    3.0090   -2.8040 O   0  0  0  0  0  0  0  0  0  0  0  0
    0.2180    1.0540   -3.3190 O   0  0  0  0  0  0  0  0  0  0  0  0
   -1.1080    4.0860   -0.6170 H   0  0  0  0  0  0  0  0  0  0  0  0
    0.2520    4.7550   -1.6690 H   0  0  0  0  0  0  0  0  0  0  0  0
    0.1870    5.0900    0.0740 H   0  0  0  0  0  0  0  0  0  0  0  0
    1.8120    3.1370   -0.7620 H   0  0  0  0  0  0  0  0  0  0  0  0
   -0.0550    2.8890    1.4180 H   0  0  0  0  0  0  0  0  0  0  0  0
   -0.9080    1.7840   -0.4100 H   0  0  0  0  0  0  0  0  0  0  0  0
    1.7220    0.4960   -1.0500 H   0  0  0  0  0  0  0  0  0  0  0  0
  1  8  1  0  0  0  0
  2  9  1  6  0  0  0
  2  1  1  0  0  0  0
  2  3  1  0  0  0  0
  3 11  1  0  0  0  0
  4  5  2  0  0  0  0
  4  2  1  0  0  0  0
  6  1  1  0  0  0  0
  7  1  1  0  0  0  0
 10  3  1  0  0  0  0
 12 18  1  0  0  0  0
 12 13  1  0  0  0  0
 13 20  1  0  0  0  0
 13 14  1  0  0  0  0
 14 21  1  1  0  0  0
 14 15  1  0  0  0  0
 15  4  1  0  0  0  0
 16 14  1  0  0  0  0
 16 17  2  0  0  0  0
 19 13  1  0  0  0  0
 22 15  1  0  0  0  0
 23 31  1  0  0  0  0
 23 24  1  0  0  0  0
 23 33  1  0  0  0  0
 24 34  1  6  0  0  0
 24 25  1  0  0  0  0
 25 35  1  0  0  0  0
 26 27  1  0  0  0  0
 26 36  1  1  0  0  0
 26 24  1  0  0  0  0
 27 16  1  0  0  0  0
 28 26  1  0  0  0  0
 29 28  1  0  0  0  0
 30 28  2  0  0  0  0
 32 23  1  0  0  0  0
 37 27  1  0  0  0  0
M  END
$$$$
