ASY.pdb
 OpenBabel07022418023D

 44 44  0  0  1  0  0  0  0  0999 V2000
    4.8130   -1.8520   -0.1150 C   0  0  0  0  0  0  0  0  0  0  0  0
    3.4960   -1.1510   -0.0080 C   0  0  2  0  0  0  0  0  0  0  0  0
    3.1790   -0.9640    1.3950 N   0  0  0  0  0  0  0  0  0  0  0  0
    2.4010   -1.8290   -0.7340 C   0  0  0  0  0  0  0  0  0  0  0  0
    2.4530   -2.1010   -1.9590 O   0  0  0  0  0  0  0  0  0  0  0  0
    4.9690   -2.6020    0.6880 H   0  0  0  0  0  0  0  0  0  0  0  0
    4.9080   -2.4070   -1.0860 H   0  0  0  0  0  0  0  0  0  0  0  0
    5.6590   -1.1170   -0.0060 H   0  0  0  0  0  0  0  0  0  0  0  0
    3.5560   -0.1080   -0.4380 H   0  0  0  0  0  0  0  0  0  0  0  0
    3.5850   -0.0940    1.7950 H   0  0  0  0  0  0  0  0  0  0  0  0
    3.4910   -1.8110    1.9460 H   0  0  0  0  0  0  0  0  0  0  0  0
   -1.2810   -4.7280   -0.7150 O   0  0  0  0  0  0  0  0  0  0  0  0
   -0.1520   -4.2280   -0.0290 C   0  0  0  0  0  0  0  0  0  0  0  0
    0.0990   -2.8500   -0.5950 C   0  0  2  0  0  0  0  0  0  0  0  0
    1.2300   -2.1870    0.0010 N   0  0  0  0  0  0  0  0  0  0  0  0
   -1.1220   -2.0310   -0.5890 C   0  0  0  0  0  0  0  0  0  0  0  0
   -2.1640   -2.5300   -1.0860 O   0  0  0  0  0  0  0  0  0  0  0  0
   -1.1570   -4.6850   -1.6850 H   0  0  0  0  0  0  0  0  0  0  0  0
   -0.3320   -4.2340    1.0490 H   0  0  0  0  0  0  0  0  0  0  0  0
    0.6810   -4.9170   -0.2930 H   0  0  0  0  0  0  0  0  0  0  0  0
    0.3610   -3.0030   -1.6840 H   0  0  0  0  0  0  0  0  0  0  0  0
    1.1870   -1.9610    1.0190 H   0  0  0  0  0  0  0  0  0  0  0  0
    1.2220    3.2140    4.2720 O   0  0  0  0  0  0  0  0  0  0  0  0
    0.2340    2.5530    3.5580 C   0  0  0  0  0  0  0  0  0  0  0  0
    0.1830    1.1680    3.5570 C   0  0  0  0  0  0  0  0  0  0  0  0
   -0.7830    0.4830    2.8590 C   0  0  0  0  0  0  0  0  0  0  0  0
   -1.7410    1.1650    2.1310 C   0  0  0  0  0  0  0  0  0  0  0  0
   -2.7760    0.4340    1.3850 C   0  0  0  0  0  0  0  0  0  0  0  0
   -2.3490    0.1040   -0.0350 C   0  0  2  0  0  0  0  0  0  0  0  0
   -1.1630   -0.7160   -0.0510 N   0  0  0  0  0  0  0  0  0  0  0  0
   -2.1940    1.3390   -0.8280 C   0  0  0  0  0  0  0  0  0  0  0  0
   -3.1680    2.1310   -0.8970 O   0  0  0  0  0  0  0  0  0  0  0  0
   -1.6910    2.5390    2.1320 C   0  0  0  0  0  0  0  0  0  0  0  0
   -0.7150    3.2240    2.8370 C   0  0  0  0  0  0  0  0  0  0  0  0
   -1.0380    1.6930   -1.5090 O   0  0  0  0  0  0  0  0  0  0  0  0
    1.1830    3.3230    5.2600 H   0  0  0  0  0  0  0  0  0  0  0  0
    0.9150    0.6250    4.1150 H   0  0  0  0  0  0  0  0  0  0  0  0
   -0.8090   -0.6030    2.8700 H   0  0  0  0  0  0  0  0  0  0  0  0
   -2.9980   -0.4920    1.9560 H   0  0  0  0  0  0  0  0  0  0  0  0
   -3.7300    1.0000    1.3490 H   0  0  0  0  0  0  0  0  0  0  0  0
   -3.1670   -0.4820   -0.4990 H   0  0  0  0  0  0  0  0  0  0  0  0
   -0.2530   -0.3590    0.3490 H   0  0  0  0  0  0  0  0  0  0  0  0
   -2.4350    3.0780    1.5670 H   0  0  0  0  0  0  0  0  0  0  0  0
   -0.7360    4.2940    2.7920 H   0  0  0  0  0  0  0  0  0  0  0  0
  1  2  1  0  0  0  0
  1  8  1  0  0  0  0
  1  6  1  0  0  0  0
  2  9  1  6  0  0  0
  2  3  1  0  0  0  0
  3 10  1  0  0  0  0
  3 11  1  0  0  0  0
  4  2  1  0  0  0  0
  4 15  1  0  0  0  0
  5  4  2  0  0  0  0
  7  1  1  0  0  0  0
 12 13  1  0  0  0  0
 13 19  1  0  0  0  0
 14 21  1  6  0  0  0
 14 16  1  0  0  0  0
 14 13  1  0  0  0  0
 14 15  1  0  0  0  0
 15 22  1  0  0  0  0
 16 30  1  0  0  0  0
 17 16  2  0  0  0  0
 18 12  1  0  0  0  0
 20 13  1  0  0  0  0
 23 36  1  0  0  0  0
 24 23  1  0  0  0  0
 25 24  1  0  0  0  0
 25 37  1  0  0  0  0
 26 38  1  0  0  0  0
 26 25  2  0  0  0  0
 27 33  2  0  0  0  0
 27 26  1  0  0  0  0
 28 39  1  0  0  0  0
 28 27  1  0  0  0  0
 29 41  1  6  0  0  0
 29 28  1  0  0  0  0
 30 29  1  0  0  0  0
 30 42  1  0  0  0  0
 31 29  1  0  0  0  0
 32 31  1  0  0  0  0
 33 34  1  0  0  0  0
 34 24  2  0  0  0  0
 35 31  2  0  0  0  0
 40 28  1  0  0  0  0
 43 33  1  0  0  0  0
 44 34  1  0  0  0  0
M  END
$$$$
