ATF.pdb
 OpenBabel07022418023D

 46 46  0  0  1  0  0  0  0  0999 V2000
   -0.2990   -3.2750    0.9000 C   0  0  0  0  0  0  0  0  0  0  0  0
    1.0320   -3.5090    0.2690 C   0  0  2  0  0  0  0  0  0  0  0  0
    1.6510   -4.6760    0.8280 N   0  0  0  0  0  0  0  0  0  0  0  0
    1.9180   -2.3190    0.3150 C   0  0  0  0  0  0  0  0  0  0  0  0
    3.0620   -2.4730    0.8210 O   0  0  0  0  0  0  0  0  0  0  0  0
   -0.6290   -4.2180    1.3840 H   0  0  0  0  0  0  0  0  0  0  0  0
   -0.2880   -2.5010    1.6930 H   0  0  0  0  0  0  0  0  0  0  0  0
   -1.0700   -3.0440    0.1160 H   0  0  0  0  0  0  0  0  0  0  0  0
    0.8630   -3.7250   -0.8250 H   0  0  0  0  0  0  0  0  0  0  0  0
    0.9260   -5.3340    1.2430 H   0  0  0  0  0  0  0  0  0  0  0  0
    2.1710   -5.2420    0.1130 H   0  0  0  0  0  0  0  0  0  0  0  0
    3.5200   -0.5900   -2.1630 C   0  0  0  0  0  0  0  0  0  0  0  0
    2.7600    0.5590   -1.4970 C   0  0  1  0  0  0  0  0  0  0  0  0
    1.7800    0.9160   -2.3640 O   0  0  0  0  0  0  0  0  0  0  0  0
    2.3700    0.1190   -0.1450 C   0  0  2  0  0  0  0  0  0  0  0  0
    1.5100   -1.0520   -0.1850 N   0  0  0  0  0  0  0  0  0  0  0  0
    1.8000    1.0720    0.7770 C   0  0  0  0  0  0  0  0  0  0  0  0
    2.4000    2.1660    0.9570 O   0  0  0  0  0  0  0  0  0  0  0  0
    3.6340   -0.3000   -3.2370 H   0  0  0  0  0  0  0  0  0  0  0  0
    4.5220   -0.7280   -1.7240 H   0  0  0  0  0  0  0  0  0  0  0  0
    2.9050   -1.5130   -2.1650 H   0  0  0  0  0  0  0  0  0  0  0  0
    3.4910    1.3950   -1.4520 H   0  0  0  0  0  0  0  0  0  0  0  0
    1.9720    1.7110   -2.9200 H   0  0  0  0  0  0  0  0  0  0  0  0
    3.3210   -0.2640    0.3430 H   0  0  0  0  0  0  0  0  0  0  0  0
    0.5460   -1.0240   -0.5840 H   0  0  0  0  0  0  0  0  0  0  0  0
    0.6140    0.8320    1.4750 N   0  0  0  0  0  0  0  0  0  0  0  0
   -0.0110    1.7390    2.4090 C   0  0  1  0  0  0  0  0  0  0  0  0
   -1.3480    2.1710    1.8800 C   0  0  0  0  0  0  0  0  0  0  0  0
   -2.2890    1.0720    1.6590 C   0  0  0  0  0  0  0  0  0  0  0  0
   -2.4090    0.3690    0.4790 C   0  0  0  0  0  0  0  0  0  0  0  0
   -3.3080   -0.6650    0.3010 C   0  0  0  0  0  0  0  0  0  0  0  0
   -4.1270   -1.0170    1.3490 C   0  0  0  0  0  0  0  0  0  0  0  0
   -4.0330   -0.3300    2.5570 C   0  0  0  0  0  0  0  0  0  0  0  0
   -3.1220    0.6980    2.6930 C   0  0  0  0  0  0  0  0  0  0  0  0
   -0.0870    1.1750    3.7740 C   0  0  0  0  0  0  0  0  0  0  0  0
    0.3550    0.0330    4.0490 O   0  0  0  0  0  0  0  0  0  0  0  0
   -0.6580    1.9090    4.8030 O   0  0  0  0  0  0  0  0  0  0  0  0
    0.1570   -0.0700    1.2980 H   0  0  0  0  0  0  0  0  0  0  0  0
    0.6300    2.6480    2.4590 H   0  0  0  0  0  0  0  0  0  0  0  0
   -1.7930    2.8780    2.6100 H   0  0  0  0  0  0  0  0  0  0  0  0
   -1.1650    2.7690    0.9560 H   0  0  0  0  0  0  0  0  0  0  0  0
   -1.7760    0.6280   -0.3580 H   0  0  0  0  0  0  0  0  0  0  0  0
   -3.3420   -1.1710   -0.6600 H   0  0  0  0  0  0  0  0  0  0  0  0
   -4.8230   -1.8280    1.1910 H   0  0  0  0  0  0  0  0  0  0  0  0
   -4.6790   -0.6170    3.3620 H   0  0  0  0  0  0  0  0  0  0  0  0
   -3.0970    1.2000    3.6670 H   0  0  0  0  0  0  0  0  0  0  0  0
  1  6  1  0  0  0  0
  1  7  1  0  0  0  0
  2  9  1  6  0  0  0
  2  4  1  0  0  0  0
  2  3  1  0  0  0  0
  2  1  1  0  0  0  0
  3 10  1  0  0  0  0
  4  5  2  0  0  0  0
  8  1  1  0  0  0  0
 11  3  1  0  0  0  0
 12 20  1  0  0  0  0
 12 13  1  0  0  0  0
 13 22  1  1  0  0  0
 13 15  1  0  0  0  0
 14 13  1  0  0  0  0
 15 24  1  1  0  0  0
 15 17  1  0  0  0  0
 16 15  1  0  0  0  0
 16  4  1  0  0  0  0
 17 18  2  0  0  0  0
 17 26  1  0  0  0  0
 19 12  1  0  0  0  0
 21 12  1  0  0  0  0
 23 14  1  0  0  0  0
 25 16  1  0  0  0  0
 26 27  1  0  0  0  0
 27 39  1  1  0  0  0
 27 35  1  0  0  0  0
 28 27  1  0  0  0  0
 28 40  1  0  0  0  0
 29 28  1  0  0  0  0
 29 34  1  0  0  0  0
 30 29  2  0  0  0  0
 31 30  1  0  0  0  0
 31 32  2  0  0  0  0
 32 33  1  0  0  0  0
 33 34  2  0  0  0  0
 33 45  1  0  0  0  0
 34 46  1  0  0  0  0
 35 36  2  0  0  0  0
 35 37  1  0  0  0  0
 38 26  1  0  0  0  0
 41 28  1  0  0  0  0
 42 30  1  0  0  0  0
 43 31  1  0  0  0  0
 44 32  1  0  0  0  0
M  END
$$$$
