ATI.pdb
 OpenBabel07022418023D

 45 44  0  0  1  0  0  0  0  0999 V2000
   -1.4960   -4.7980    0.8100 C   0  0  0  0  0  0  0  0  0  0  0  0
   -0.6070   -4.7980   -0.4390 C   0  0  2  0  0  0  0  0  0  0  0  0
    0.2990   -5.9130   -0.4030 N   0  0  0  0  0  0  0  0  0  0  0  0
    0.1300   -3.4920   -0.4360 C   0  0  0  0  0  0  0  0  0  0  0  0
    1.3640   -3.5130   -0.4040 O   0  0  0  0  0  0  0  0  0  0  0  0
   -2.2590   -5.6150    0.7340 H   0  0  0  0  0  0  0  0  0  0  0  0
   -1.9700   -3.8060    0.9070 H   0  0  0  0  0  0  0  0  0  0  0  0
   -0.9100   -4.9950    1.7150 H   0  0  0  0  0  0  0  0  0  0  0  0
   -1.2400   -4.9110   -1.3420 H   0  0  0  0  0  0  0  0  0  0  0  0
   -0.2760   -6.7530   -0.0920 H   0  0  0  0  0  0  0  0  0  0  0  0
    0.5890   -6.1420   -1.3810 H   0  0  0  0  0  0  0  0  0  0  0  0
    0.2290   -0.7150   -2.9520 C   0  0  0  0  0  0  0  0  0  0  0  0
   -0.2640   -0.1090   -1.6500 C   0  0  1  0  0  0  0  0  0  0  0  0
   -1.6350    0.1480   -1.6960 O   0  0  0  0  0  0  0  0  0  0  0  0
    0.1000   -0.9720   -0.4660 C   0  0  2  0  0  0  0  0  0  0  0  0
   -0.5450   -2.2470   -0.4680 N   0  0  0  0  0  0  0  0  0  0  0  0
   -0.3440   -0.2350    0.7560 C   0  0  0  0  0  0  0  0  0  0  0  0
   -1.1500   -0.7280    1.5890 O   0  0  0  0  0  0  0  0  0  0  0  0
    0.4810    0.0650   -3.7010 H   0  0  0  0  0  0  0  0  0  0  0  0
    1.1370   -1.3230   -2.8100 H   0  0  0  0  0  0  0  0  0  0  0  0
   -0.5960   -1.3170   -3.4340 H   0  0  0  0  0  0  0  0  0  0  0  0
    0.2320    0.8790   -1.5530 H   0  0  0  0  0  0  0  0  0  0  0  0
   -1.7590    0.9350   -2.2650 H   0  0  0  0  0  0  0  0  0  0  0  0
    1.2060   -1.0490   -0.4380 H   0  0  0  0  0  0  0  0  0  0  0  0
   -1.5880   -2.2830   -0.4940 H   0  0  0  0  0  0  0  0  0  0  0  0
    2.9300    1.6450    1.8170 C   0  0  0  0  0  0  0  0  0  0  0  0
    2.1270    2.4260    2.8030 C   0  0  0  0  0  0  0  0  0  0  0  0
    0.8280    1.8410    3.2150 C   0  0  2  0  0  0  0  0  0  0  0  0
    1.0910    0.4720    3.8350 C   0  0  0  0  0  0  0  0  0  0  0  0
   -0.2720    1.8230    2.2060 C   0  0  2  0  0  0  0  0  0  0  0  0
    0.1120    1.0770    1.0660 N   0  0  0  0  0  0  0  0  0  0  0  0
   -0.8750    3.1290    1.9490 C   0  0  0  0  0  0  0  0  0  0  0  0
   -1.0730    3.6280    0.8110 O   0  0  0  0  0  0  0  0  0  0  0  0
   -1.2810    3.9270    3.0110 O   0  0  0  0  0  0  0  0  0  0  0  0
    3.0170    2.1120    0.8130 H   0  0  0  0  0  0  0  0  0  0  0  0
    3.9730    1.4800    2.2350 H   0  0  0  0  0  0  0  0  0  0  0  0
    2.5530    0.6100    1.6490 H   0  0  0  0  0  0  0  0  0  0  0  0
    2.0330    3.5140    2.5000 H   0  0  0  0  0  0  0  0  0  0  0  0
    2.7450    2.5060    3.7480 H   0  0  0  0  0  0  0  0  0  0  0  0
    0.5040    2.4610    4.1290 H   0  0  0  0  0  0  0  0  0  0  0  0
    0.1530    0.1120    4.3370 H   0  0  0  0  0  0  0  0  0  0  0  0
    1.4360   -0.2660    3.1130 H   0  0  0  0  0  0  0  0  0  0  0  0
    1.8560    0.6130    4.6050 H   0  0  0  0  0  0  0  0  0  0  0  0
   -1.0930    1.2000    2.6960 H   0  0  0  0  0  0  0  0  0  0  0  0
    0.7730    1.5210    0.3880 H   0  0  0  0  0  0  0  0  0  0  0  0
  1  7  1  0  0  0  0
  1  8  1  0  0  0  0
  2  9  1  6  0  0  0
  2  4  1  0  0  0  0
  2  3  1  0  0  0  0
  2  1  1  0  0  0  0
  3 10  1  0  0  0  0
  4  5  2  0  0  0  0
  6  1  1  0  0  0  0
 11  3  1  0  0  0  0
 12 20  1  0  0  0  0
 12 13  1  0  0  0  0
 13 22  1  1  0  0  0
 13 15  1  0  0  0  0
 14 13  1  0  0  0  0
 15 24  1  1  0  0  0
 15 17  1  0  0  0  0
 16 15  1  0  0  0  0
 16  4  1  0  0  0  0
 17 31  1  0  0  0  0
 17 18  2  0  0  0  0
 19 12  1  0  0  0  0
 21 12  1  0  0  0  0
 23 14  1  0  0  0  0
 25 16  1  0  0  0  0
 26 36  1  0  0  0  0
 26 27  1  0  0  0  0
 27 28  1  0  0  0  0
 27 39  1  0  0  0  0
 28 29  1  0  0  0  0
 28 40  1  1  0  0  0
 29 41  1  0  0  0  0
 29 43  1  0  0  0  0
 30 44  1  1  0  0  0
 30 28  1  0  0  0  0
 31 30  1  0  0  0  0
 32 30  1  0  0  0  0
 32 34  1  0  0  0  0
 33 32  2  0  0  0  0
 35 26  1  0  0  0  0
 37 26  1  0  0  0  0
 38 27  1  0  0  0  0
 42 29  1  0  0  0  0
 45 31  1  0  0  0  0
M  END
$$$$
