ATP.pdb
 OpenBabel07022418023D

 40 40  0  0  1  0  0  0  0  0999 V2000
   -1.0550   -4.5580    0.2950 C   0  0  0  0  0  0  0  0  0  0  0  0
   -0.9720   -3.2150    0.9630 C   0  0  2  0  0  0  0  0  0  0  0  0
   -1.9760   -2.3630    0.3740 N   0  0  0  0  0  0  0  0  0  0  0  0
    0.3460   -2.5830    0.8580 C   0  0  0  0  0  0  0  0  0  0  0  0
    1.3910   -3.1390    1.3050 O   0  0  0  0  0  0  0  0  0  0  0  0
   -0.1050   -5.1410    0.4380 H   0  0  0  0  0  0  0  0  0  0  0  0
   -1.8400   -5.1430    0.8220 H   0  0  0  0  0  0  0  0  0  0  0  0
   -1.3390   -4.5000   -0.7690 H   0  0  0  0  0  0  0  0  0  0  0  0
   -1.2050   -3.3530    2.0370 H   0  0  0  0  0  0  0  0  0  0  0  0
   -2.8330   -2.9060    0.1280 H   0  0  0  0  0  0  0  0  0  0  0  0
   -2.1890   -1.5160    0.9450 H   0  0  0  0  0  0  0  0  0  0  0  0
    2.4380   -1.8160   -2.0050 C   0  0  0  0  0  0  0  0  0  0  0  0
    2.2650   -0.4770   -1.3070 C   0  0  1  0  0  0  0  0  0  0  0  0
    1.3910    0.3420   -1.9910 O   0  0  0  0  0  0  0  0  0  0  0  0
    1.8390   -0.6890    0.1470 C   0  0  2  0  0  0  0  0  0  0  0  0
    0.5540   -1.2910    0.2430 N   0  0  0  0  0  0  0  0  0  0  0  0
    1.9940    0.5600    0.8940 C   0  0  0  0  0  0  0  0  0  0  0  0
    3.1680    1.1120    0.7820 O   0  0  0  0  0  0  0  0  0  0  0  0
    1.4630   -2.2030   -2.3720 H   0  0  0  0  0  0  0  0  0  0  0  0
    3.1310   -1.7490   -2.8590 H   0  0  0  0  0  0  0  0  0  0  0  0
    2.9150   -2.5120   -1.2680 H   0  0  0  0  0  0  0  0  0  0  0  0
    3.2620    0.0120   -1.3030 H   0  0  0  0  0  0  0  0  0  0  0  0
    1.4100    0.0830   -2.9460 H   0  0  0  0  0  0  0  0  0  0  0  0
    2.6490   -1.3990    0.5390 H   0  0  0  0  0  0  0  0  0  0  0  0
   -0.3120   -0.8580   -0.1350 H   0  0  0  0  0  0  0  0  0  0  0  0
    1.0860    1.2290    1.6920 N   0  0  0  0  0  0  0  0  0  0  0  0
    1.3760    2.5040    2.4090 C   0  0  0  0  0  0  0  0  0  0  0  0
    0.7340    2.2190    3.7400 C   0  0  0  0  0  0  0  0  0  0  0  0
   -0.5240    1.5070    3.4040 C   0  0  0  0  0  0  0  0  0  0  0  0
   -0.2720    0.9080    2.0300 C   0  0  1  0  0  0  0  0  0  0  0  0
   -1.2370    1.5270    1.0690 C   0  0  0  0  0  0  0  0  0  0  0  0
   -0.8670    2.2350    0.0970 O   0  0  0  0  0  0  0  0  0  0  0  0
   -2.6020    1.3350    1.2230 O   0  0  0  0  0  0  0  0  0  0  0  0
    0.8910    3.3430    1.8770 H   0  0  0  0  0  0  0  0  0  0  0  0
    2.4470    2.6360    2.5560 H   0  0  0  0  0  0  0  0  0  0  0  0
    1.4160    1.5760    4.3340 H   0  0  0  0  0  0  0  0  0  0  0  0
    0.5850    3.1950    4.2460 H   0  0  0  0  0  0  0  0  0  0  0  0
   -1.4020    2.1870    3.3840 H   0  0  0  0  0  0  0  0  0  0  0  0
   -0.7340    0.7170    4.1480 H   0  0  0  0  0  0  0  0  0  0  0  0
   -0.4950   -0.1650    2.1080 H   0  0  0  0  0  0  0  0  0  0  0  0
  1  6  1  0  0  0  0
  1  7  1  0  0  0  0
  1  2  1  0  0  0  0
  2  9  1  1  0  0  0
  3 11  1  0  0  0  0
  3  2  1  0  0  0  0
  4  2  1  0  0  0  0
  4  5  2  0  0  0  0
  8  1  1  0  0  0  0
 10  3  1  0  0  0  0
 12 13  1  0  0  0  0
 12 21  1  0  0  0  0
 13 22  1  1  0  0  0
 13 15  1  0  0  0  0
 14 13  1  0  0  0  0
 15 16  1  0  0  0  0
 15 24  1  1  0  0  0
 15 17  1  0  0  0  0
 16  4  1  0  0  0  0
 17 26  1  0  0  0  0
 18 17  2  0  0  0  0
 19 12  1  0  0  0  0
 20 12  1  0  0  0  0
 23 14  1  0  0  0  0
 25 16  1  0  0  0  0
 26 30  1  0  0  0  0
 26 27  1  0  0  0  0
 27 35  1  0  0  0  0
 27 28  1  0  0  0  0
 28 37  1  0  0  0  0
 28 36  1  0  0  0  0
 29 28  1  0  0  0  0
 29 39  1  0  0  0  0
 30 40  1  1  0  0  0
 30 29  1  0  0  0  0
 31 33  1  0  0  0  0
 31 30  1  0  0  0  0
 32 31  2  0  0  0  0
 34 27  1  0  0  0  0
 38 29  1  0  0  0  0
M  END
$$$$
