ATT.pdb
 OpenBabel07022418023D

 40 39  0  0  1  0  0  0  0  0999 V2000
   -3.0740   -1.4030    0.2140 C   0  0  0  0  0  0  0  0  0  0  0  0
   -2.3530   -2.5940   -0.3120 C   0  0  2  0  0  0  0  0  0  0  0  0
   -3.0760   -3.7890    0.0800 N   0  0  0  0  0  0  0  0  0  0  0  0
   -0.9480   -2.6930    0.1470 C   0  0  0  0  0  0  0  0  0  0  0  0
   -0.5610   -3.7110    0.7730 O   0  0  0  0  0  0  0  0  0  0  0  0
   -2.7640   -1.0890    1.2250 H   0  0  0  0  0  0  0  0  0  0  0  0
   -4.1560   -1.6590    0.2810 H   0  0  0  0  0  0  0  0  0  0  0  0
   -3.0250   -0.5510   -0.5180 H   0  0  0  0  0  0  0  0  0  0  0  0
   -2.4130   -2.5560   -1.4320 H   0  0  0  0  0  0  0  0  0  0  0  0
   -3.0690   -3.8640    1.1160 H   0  0  0  0  0  0  0  0  0  0  0  0
   -2.6980   -4.6440   -0.3870 H   0  0  0  0  0  0  0  0  0  0  0  0
    3.7590   -1.8900   -0.0890 C   0  0  0  0  0  0  0  0  0  0  0  0
    2.3870   -1.6920   -0.7430 C   0  0  1  0  0  0  0  0  0  0  0  0
    2.2470   -2.7470   -1.6470 O   0  0  0  0  0  0  0  0  0  0  0  0
    1.3710   -1.7480    0.3460 C   0  0  2  0  0  0  0  0  0  0  0  0
    0.0170   -1.6870   -0.0800 N   0  0  0  0  0  0  0  0  0  0  0  0
    1.6210   -0.6090    1.2740 C   0  0  0  0  0  0  0  0  0  0  0  0
    2.7440   -0.4120    1.8110 O   0  0  0  0  0  0  0  0  0  0  0  0
    4.4050   -2.5560   -0.6980 H   0  0  0  0  0  0  0  0  0  0  0  0
    4.3070   -0.9280   -0.0040 H   0  0  0  0  0  0  0  0  0  0  0  0
    3.6490   -2.3730    0.9110 H   0  0  0  0  0  0  0  0  0  0  0  0
    2.4400   -0.7120   -1.2480 H   0  0  0  0  0  0  0  0  0  0  0  0
    3.1250   -2.8440   -2.0960 H   0  0  0  0  0  0  0  0  0  0  0  0
    1.5170   -2.7280    0.8830 H   0  0  0  0  0  0  0  0  0  0  0  0
   -0.3030   -0.8360   -0.6020 H   0  0  0  0  0  0  0  0  0  0  0  0
    1.6280    2.8740    0.6870 C   0  0  0  0  0  0  0  0  0  0  0  0
    0.6480    2.7680    1.8370 C   0  0  1  0  0  0  0  0  0  0  0  0
   -0.6530    2.9220    1.3660 O   0  0  0  0  0  0  0  0  0  0  0  0
    0.8450    1.4250    2.5070 C   0  0  2  0  0  0  0  0  0  0  0  0
    0.5920    0.3290    1.6100 N   0  0  0  0  0  0  0  0  0  0  0  0
    0.0090    1.2660    3.7060 C   0  0  0  0  0  0  0  0  0  0  0  0
    0.0540    2.0990    4.6330 O   0  0  0  0  0  0  0  0  0  0  0  0
   -0.8350    0.1870    3.8110 O   0  0  0  0  0  0  0  0  0  0  0  0
    1.1380    2.5250   -0.2460 H   0  0  0  0  0  0  0  0  0  0  0  0
    2.0110    3.9160    0.5970 H   0  0  0  0  0  0  0  0  0  0  0  0
    2.5110    2.2230    0.8480 H   0  0  0  0  0  0  0  0  0  0  0  0
    0.8200    3.5730    2.5730 H   0  0  0  0  0  0  0  0  0  0  0  0
   -0.6890    3.6220    0.6720 H   0  0  0  0  0  0  0  0  0  0  0  0
    1.9130    1.4200    2.8750 H   0  0  0  0  0  0  0  0  0  0  0  0
   -0.3530    0.2160    1.1970 H   0  0  0  0  0  0  0  0  0  0  0  0
  1  7  1  0  0  0  0
  1  6  1  0  0  0  0
  2  9  1  6  0  0  0
  2  3  1  0  0  0  0
  2  4  1  0  0  0  0
  2  1  1  0  0  0  0
  3 10  1  0  0  0  0
  4  5  2  0  0  0  0
  8  1  1  0  0  0  0
 11  3  1  0  0  0  0
 12 20  1  0  0  0  0
 12 21  1  0  0  0  0
 13 22  1  6  0  0  0
 13 12  1  0  0  0  0
 13 15  1  0  0  0  0
 14 13  1  0  0  0  0
 15 24  1  1  0  0  0
 15 17  1  0  0  0  0
 16  4  1  0  0  0  0
 16 15  1  0  0  0  0
 17 30  1  0  0  0  0
 17 18  2  0  0  0  0
 19 12  1  0  0  0  0
 23 14  1  0  0  0  0
 25 16  1  0  0  0  0
 26 36  1  0  0  0  0
 26 27  1  0  0  0  0
 27 29  1  0  0  0  0
 27 37  1  1  0  0  0
 28 27  1  0  0  0  0
 29 39  1  1  0  0  0
 29 31  1  0  0  0  0
 30 29  1  0  0  0  0
 31 33  2  0  0  0  0
 31 32  1  0  0  0  0
 34 26  1  0  0  0  0
 35 26  1  0  0  0  0
 38 28  1  0  0  0  0
 40 30  1  0  0  0  0
M  END
$$$$
