ATW.pdb
 OpenBabel07022418023D

 50 51  0  0  1  0  0  0  0  0999 V2000
    2.4320   -4.0940    2.1570 C   0  0  0  0  0  0  0  0  0  0  0  0
    3.8800   -3.6090    2.0420 C   0  0  2  0  0  0  0  0  0  0  0  0
    4.6280   -4.0360    3.2060 N   0  0  0  0  0  0  0  0  0  0  0  0
    3.8080   -2.1270    1.9570 C   0  0  0  0  0  0  0  0  0  0  0  0
    4.3680   -1.4180    2.8400 O   0  0  0  0  0  0  0  0  0  0  0  0
    1.8650   -3.4080    2.8220 H   0  0  0  0  0  0  0  0  0  0  0  0
    1.9230   -4.0930    1.1730 H   0  0  0  0  0  0  0  0  0  0  0  0
    2.4100   -5.1040    2.6130 H   0  0  0  0  0  0  0  0  0  0  0  0
    4.3090   -4.0830    1.1580 H   0  0  0  0  0  0  0  0  0  0  0  0
    4.2210   -4.9620    3.5100 H   0  0  0  0  0  0  0  0  0  0  0  0
    5.6350   -4.2220    3.0010 H   0  0  0  0  0  0  0  0  0  0  0  0
    3.0300   -0.1170   -1.7090 C   0  0  0  0  0  0  0  0  0  0  0  0
    3.6480    0.5100   -0.4840 C   0  0  1  0  0  0  0  0  0  0  0  0
    3.5010    1.9060   -0.5000 O   0  0  0  0  0  0  0  0  0  0  0  0
    3.0300   -0.0180    0.7850 C   0  0  2  0  0  0  0  0  0  0  0  0
    3.1260   -1.4540    0.9090 N   0  0  0  0  0  0  0  0  0  0  0  0
    1.5930    0.4120    0.9030 C   0  0  0  0  0  0  0  0  0  0  0  0
    1.2650    1.6220    0.8270 O   0  0  0  0  0  0  0  0  0  0  0  0
    3.7940   -0.6830   -2.2580 H   0  0  0  0  0  0  0  0  0  0  0  0
    2.6010    0.7090   -2.3240 H   0  0  0  0  0  0  0  0  0  0  0  0
    2.2480   -0.8290   -1.3990 H   0  0  0  0  0  0  0  0  0  0  0  0
    4.7250    0.3030   -0.4670 H   0  0  0  0  0  0  0  0  0  0  0  0
    4.1910    2.3060    0.1170 H   0  0  0  0  0  0  0  0  0  0  0  0
    3.5640    0.4830    1.6270 H   0  0  0  0  0  0  0  0  0  0  0  0
    2.6650   -2.0380    0.1820 H   0  0  0  0  0  0  0  0  0  0  0  0
    0.5520   -0.5270    1.1040 N   0  0  0  0  0  0  0  0  0  0  0  0
   -0.8480   -0.1660    1.2250 C   0  0  1  0  0  0  0  0  0  0  0  0
   -1.5620   -0.7970    0.0620 C   0  0  0  0  0  0  0  0  0  0  0  0
   -2.9970   -0.5360    0.0230 C   0  0  0  0  0  0  0  0  0  0  0  0
   -4.0090   -1.3930    0.3570 C   0  0  0  0  0  0  0  0  0  0  0  0
   -5.2130   -0.8110    0.2000 N   0  0  0  0  0  0  0  0  0  0  0  0
   -4.9680    0.4490   -0.2450 C   0  0  0  0  0  0  0  0  0  0  0  0
   -5.8800    1.4420   -0.5550 C   0  0  0  0  0  0  0  0  0  0  0  0
   -5.4180    2.6690   -0.9970 C   0  0  0  0  0  0  0  0  0  0  0  0
   -4.0570    2.8880   -1.1230 C   0  0  0  0  0  0  0  0  0  0  0  0
   -3.1800    1.8700   -0.8030 C   0  0  0  0  0  0  0  0  0  0  0  0
   -3.6070    0.6380   -0.3610 C   0  0  0  0  0  0  0  0  0  0  0  0
   -1.3470   -0.5840    2.5330 C   0  0  0  0  0  0  0  0  0  0  0  0
   -0.6070   -1.1680    3.3760 O   0  0  0  0  0  0  0  0  0  0  0  0
   -2.6630   -0.3610    2.9180 O   0  0  0  0  0  0  0  0  0  0  0  0
    0.8100   -1.5550    1.1700 H   0  0  0  0  0  0  0  0  0  0  0  0
   -0.8910    0.9490    1.1280 H   0  0  0  0  0  0  0  0  0  0  0  0
   -1.3070   -1.8820    0.0780 H   0  0  0  0  0  0  0  0  0  0  0  0
   -1.0860   -0.3940   -0.8660 H   0  0  0  0  0  0  0  0  0  0  0  0
   -3.8510   -2.4050    0.7010 H   0  0  0  0  0  0  0  0  0  0  0  0
   -6.1520   -1.2450    0.3850 H   0  0  0  0  0  0  0  0  0  0  0  0
   -6.9440    1.3040   -0.4680 H   0  0  0  0  0  0  0  0  0  0  0  0
   -6.1320    3.4210   -1.2310 H   0  0  0  0  0  0  0  0  0  0  0  0
   -3.7050    3.8410   -1.4660 H   0  0  0  0  0  0  0  0  0  0  0  0
   -2.1250    2.0420   -0.9010 H   0  0  0  0  0  0  0  0  0  0  0  0
  1  8  1  0  0  0  0
  1  6  1  0  0  0  0
  2  9  1  6  0  0  0
  2  1  1  0  0  0  0
  2  3  1  0  0  0  0
  3 10  1  0  0  0  0
  4  2  1  0  0  0  0
  4  5  2  0  0  0  0
  7  1  1  0  0  0  0
 11  3  1  0  0  0  0
 12 21  1  0  0  0  0
 12 13  1  0  0  0  0
 13 22  1  1  0  0  0
 13 15  1  0  0  0  0
 14 13  1  0  0  0  0
 14 23  1  0  0  0  0
 15 17  1  0  0  0  0
 15 16  1  0  0  0  0
 15 24  1  1  0  0  0
 16  4  1  0  0  0  0
 17 26  1  0  0  0  0
 18 17  2  0  0  0  0
 19 12  1  0  0  0  0
 20 12  1  0  0  0  0
 25 16  1  0  0  0  0
 26 41  1  0  0  0  0
 26 27  1  0  0  0  0
 27 42  1  6  0  0  0
 27 38  1  0  0  0  0
 28 43  1  0  0  0  0
 28 27  1  0  0  0  0
 29 28  1  0  0  0  0
 29 30  2  0  0  0  0
 30 45  1  0  0  0  0
 31 30  1  0  0  0  0
 31 46  1  0  0  0  0
 32 31  1  0  0  0  0
 33 47  1  0  0  0  0
 33 32  2  0  0  0  0
 34 33  1  0  0  0  0
 35 34  2  0  0  0  0
 35 36  1  0  0  0  0
 36 37  2  0  0  0  0
 37 32  1  0  0  0  0
 37 29  1  0  0  0  0
 38 40  2  0  0  0  0
 38 39  1  0  0  0  0
 44 28  1  0  0  0  0
 48 34  1  0  0  0  0
 49 35  1  0  0  0  0
 50 36  1  0  0  0  0
M  END
$$$$
