AVA.pdb
 OpenBabel07022418033D

 38 37  0  0  1  0  0  0  0  0999 V2000
    1.1000   -3.1660    2.4800 C   0  0  0  0  0  0  0  0  0  0  0  0
    0.6600   -3.6850    1.1290 C   0  0  2  0  0  0  0  0  0  0  0  0
    1.4710   -4.7910    0.7000 N   0  0  0  0  0  0  0  0  0  0  0  0
    0.6300   -2.5770    0.1680 C   0  0  0  0  0  0  0  0  0  0  0  0
    1.2370   -2.5570   -0.9320 O   0  0  0  0  0  0  0  0  0  0  0  0
    1.8450   -2.3410    2.2900 H   0  0  0  0  0  0  0  0  0  0  0  0
    0.2350   -2.7080    3.0010 H   0  0  0  0  0  0  0  0  0  0  0  0
    1.6310   -3.9230    3.0730 H   0  0  0  0  0  0  0  0  0  0  0  0
   -0.3910   -4.0460    1.2510 H   0  0  0  0  0  0  0  0  0  0  0  0
    1.1570   -5.6340    1.2430 H   0  0  0  0  0  0  0  0  0  0  0  0
    2.4690   -4.6270    1.0040 H   0  0  0  0  0  0  0  0  0  0  0  0
   -1.9240   -1.5490   -1.6330 C   0  0  0  0  0  0  0  0  0  0  0  0
   -1.6380   -0.2410   -0.9250 C   0  0  0  0  0  0  0  0  0  0  0  0
   -1.8530    0.8700   -1.9180 C   0  0  0  0  0  0  0  0  0  0  0  0
   -0.2110   -0.3000   -0.4210 C   0  0  2  0  0  0  0  0  0  0  0  0
   -0.1380   -1.4280    0.4830 N   0  0  0  0  0  0  0  0  0  0  0  0
    0.2130    0.9610    0.2130 C   0  0  0  0  0  0  0  0  0  0  0  0
    0.1930    2.0110   -0.4760 O   0  0  0  0  0  0  0  0  0  0  0  0
   -2.1640   -2.3720   -0.9470 H   0  0  0  0  0  0  0  0  0  0  0  0
   -2.8090   -1.4510   -2.3180 H   0  0  0  0  0  0  0  0  0  0  0  0
   -1.0740   -1.8860   -2.2630 H   0  0  0  0  0  0  0  0  0  0  0  0
   -2.3560   -0.1480   -0.1040 H   0  0  0  0  0  0  0  0  0  0  0  0
   -1.9270    1.8700   -1.4510 H   0  0  0  0  0  0  0  0  0  0  0  0
   -2.8640    0.6850   -2.3760 H   0  0  0  0  0  0  0  0  0  0  0  0
   -1.0810    0.8870   -2.6950 H   0  0  0  0  0  0  0  0  0  0  0  0
    0.4130   -0.5480   -1.3030 H   0  0  0  0  0  0  0  0  0  0  0  0
   -0.6850   -1.3490    1.3840 H   0  0  0  0  0  0  0  0  0  0  0  0
    0.1950    2.6850    3.3180 C   0  0  0  0  0  0  0  0  0  0  0  0
    1.0460    2.2820    2.1360 C   0  0  2  0  0  0  0  0  0  0  0  0
    0.6390    1.0290    1.5550 N   0  0  0  0  0  0  0  0  0  0  0  0
    2.4880    2.2110    2.4980 C   0  0  0  0  0  0  0  0  0  0  0  0
    3.0570    3.2110    3.0280 O   0  0  0  0  0  0  0  0  0  0  0  0
    3.2700    1.0870    2.2850 O   0  0  0  0  0  0  0  0  0  0  0  0
    0.8450    3.1910    4.0730 H   0  0  0  0  0  0  0  0  0  0  0  0
   -0.3560    1.8500    3.7670 H   0  0  0  0  0  0  0  0  0  0  0  0
   -0.5630    3.4570    3.0260 H   0  0  0  0  0  0  0  0  0  0  0  0
    0.9560    3.0800    1.3730 H   0  0  0  0  0  0  0  0  0  0  0  0
    0.6510    0.1320    2.1270 H   0  0  0  0  0  0  0  0  0  0  0  0
  1  7  1  0  0  0  0
  1  8  1  0  0  0  0
  2  9  1  1  0  0  0
  2  1  1  0  0  0  0
  3 11  1  0  0  0  0
  3  2  1  0  0  0  0
  3 10  1  0  0  0  0
  4 16  1  0  0  0  0
  4  2  1  0  0  0  0
  5  4  2  0  0  0  0
  6  1  1  0  0  0  0
 12 19  1  0  0  0  0
 12 13  1  0  0  0  0
 13 15  1  0  0  0  0
 13 22  1  0  0  0  0
 14 23  1  0  0  0  0
 14 13  1  0  0  0  0
 15 26  1  6  0  0  0
 15 17  1  0  0  0  0
 15 16  1  0  0  0  0
 16 27  1  0  0  0  0
 17 30  1  0  0  0  0
 18 17  2  0  0  0  0
 20 12  1  0  0  0  0
 21 12  1  0  0  0  0
 24 14  1  0  0  0  0
 25 14  1  0  0  0  0
 28 35  1  0  0  0  0
 28 34  1  0  0  0  0
 29 37  1  6  0  0  0
 29 31  1  0  0  0  0
 29 28  1  0  0  0  0
 30 38  1  0  0  0  0
 30 29  1  0  0  0  0
 31 32  1  0  0  0  0
 33 31  2  0  0  0  0
 36 28  1  0  0  0  0
M  END
$$$$
