AVD.pdb
 OpenBabel07022418033D

 41 40  0  0  1  0  0  0  0  0999 V2000
    1.8950   -5.1990    0.4470 C   0  0  0  0  0  0  0  0  0  0  0  0
    1.7570   -3.9110    1.2090 C   0  0  2  0  0  0  0  0  0  0  0  0
    0.4450   -3.8220    1.8400 N   0  0  0  0  0  0  0  0  0  0  0  0
    1.9880   -2.7180    0.3410 C   0  0  0  0  0  0  0  0  0  0  0  0
    3.0380   -2.5400   -0.3020 O   0  0  0  0  0  0  0  0  0  0  0  0
    1.0630   -5.8750    0.7640 H   0  0  0  0  0  0  0  0  0  0  0  0
    1.7880   -5.0850   -0.6500 H   0  0  0  0  0  0  0  0  0  0  0  0
    2.8310   -5.7220    0.7290 H   0  0  0  0  0  0  0  0  0  0  0  0
    2.5430   -3.8760    1.9940 H   0  0  0  0  0  0  0  0  0  0  0  0
    0.3600   -3.0010    2.4510 H   0  0  0  0  0  0  0  0  0  0  0  0
   -0.3230   -3.9170    1.1440 H   0  0  0  0  0  0  0  0  0  0  0  0
   -1.2870   -0.7450   -1.3450 C   0  0  0  0  0  0  0  0  0  0  0  0
    0.1700   -0.6310   -1.7300 C   0  0  0  0  0  0  0  0  0  0  0  0
    0.3960    0.4360   -2.7800 C   0  0  0  0  0  0  0  0  0  0  0  0
    1.1120   -0.5320   -0.5820 C   0  0  2  0  0  0  0  0  0  0  0  0
    0.9760   -1.7240    0.2300 N   0  0  0  0  0  0  0  0  0  0  0  0
    0.9830    0.7040    0.2130 C   0  0  0  0  0  0  0  0  0  0  0  0
    1.0760    1.8180   -0.3670 O   0  0  0  0  0  0  0  0  0  0  0  0
   -1.4800   -1.1050   -0.3410 H   0  0  0  0  0  0  0  0  0  0  0  0
   -1.7750    0.2510   -1.4710 H   0  0  0  0  0  0  0  0  0  0  0  0
   -1.8260   -1.4540   -2.0400 H   0  0  0  0  0  0  0  0  0  0  0  0
    0.4050   -1.6090   -2.2480 H   0  0  0  0  0  0  0  0  0  0  0  0
    0.1900    0.0740   -3.8180 H   0  0  0  0  0  0  0  0  0  0  0  0
   -0.3610    1.2360   -2.5920 H   0  0  0  0  0  0  0  0  0  0  0  0
    1.4230    0.7860   -2.7640 H   0  0  0  0  0  0  0  0  0  0  0  0
    2.1380   -0.5650   -0.9980 H   0  0  0  0  0  0  0  0  0  0  0  0
    0.0740   -1.8350    0.7520 H   0  0  0  0  0  0  0  0  0  0  0  0
    0.7560    0.7230    1.6050 N   0  0  0  0  0  0  0  0  0  0  0  0
    0.6230    1.9180    2.4140 C   0  0  1  0  0  0  0  0  0  0  0  0
   -0.7530    1.9110    3.0520 C   0  0  0  0  0  0  0  0  0  0  0  0
   -1.8620    1.9060    2.1000 C   0  0  0  0  0  0  0  0  0  0  0  0
   -1.9420    2.7970    1.2260 O   0  0  0  0  0  0  0  0  0  0  0  0
    1.5980    1.9720    3.5080 C   0  0  0  0  0  0  0  0  0  0  0  0
    2.4000    1.0220    3.6700 O   0  0  0  0  0  0  0  0  0  0  0  0
   -2.8390    0.9260    2.1400 O   0  0  0  0  0  0  0  0  0  0  0  0
    1.6750    3.0400    4.3840 O   0  0  0  0  0  0  0  0  0  0  0  0
    0.6790   -0.1920    2.0900 H   0  0  0  0  0  0  0  0  0  0  0  0
    0.7320    2.8090    1.7660 H   0  0  0  0  0  0  0  0  0  0  0  0
   -0.8490    1.0300    3.7160 H   0  0  0  0  0  0  0  0  0  0  0  0
   -0.7960    2.8040    3.7110 H   0  0  0  0  0  0  0  0  0  0  0  0
   -3.5910    0.9740    1.4880 H   0  0  0  0  0  0  0  0  0  0  0  0
  1  8  1  0  0  0  0
  1  6  1  0  0  0  0
  1  2  1  0  0  0  0
  2  3  1  0  0  0  0
  2  9  1  1  0  0  0
  3 10  1  0  0  0  0
  4  2  1  0  0  0  0
  5  4  2  0  0  0  0
  7  1  1  0  0  0  0
 11  3  1  0  0  0  0
 12 19  1  0  0  0  0
 13 12  1  0  0  0  0
 13 15  1  0  0  0  0
 14 25  1  0  0  0  0
 14 24  1  0  0  0  0
 14 13  1  0  0  0  0
 15 26  1  6  0  0  0
 15 17  1  0  0  0  0
 15 16  1  0  0  0  0
 16  4  1  0  0  0  0
 16 27  1  0  0  0  0
 17 28  1  0  0  0  0
 18 17  2  0  0  0  0
 20 12  1  0  0  0  0
 21 12  1  0  0  0  0
 22 13  1  0  0  0  0
 23 14  1  0  0  0  0
 28 37  1  0  0  0  0
 28 29  1  0  0  0  0
 29 38  1  6  0  0  0
 29 30  1  0  0  0  0
 29 33  1  0  0  0  0
 30 40  1  0  0  0  0
 30 39  1  0  0  0  0
 31 35  1  0  0  0  0
 31 30  1  0  0  0  0
 32 31  2  0  0  0  0
 33 34  2  0  0  0  0
 33 36  1  0  0  0  0
 41 35  1  0  0  0  0
M  END
$$$$
