AVE.pdb
 OpenBabel07022418033D

 44 43  0  0  1  0  0  0  0  0999 V2000
    0.7410   -5.8180    1.1310 C   0  0  0  0  0  0  0  0  0  0  0  0
    0.0880   -4.8040    2.0240 C   0  0  2  0  0  0  0  0  0  0  0  0
   -1.2860   -5.2060    2.2320 N   0  0  0  0  0  0  0  0  0  0  0  0
    0.0790   -3.4400    1.4100 C   0  0  0  0  0  0  0  0  0  0  0  0
   -1.0090   -2.8930    1.1830 O   0  0  0  0  0  0  0  0  0  0  0  0
    0.7880   -5.3710    0.0960 H   0  0  0  0  0  0  0  0  0  0  0  0
    1.8010   -6.0040    1.4070 H   0  0  0  0  0  0  0  0  0  0  0  0
    0.1400   -6.7240    1.0730 H   0  0  0  0  0  0  0  0  0  0  0  0
    0.5670   -4.7710    3.0410 H   0  0  0  0  0  0  0  0  0  0  0  0
   -1.8320   -4.8840    1.4040 H   0  0  0  0  0  0  0  0  0  0  0  0
   -1.3910   -6.2540    2.2630 H   0  0  0  0  0  0  0  0  0  0  0  0
   -0.1770   -1.9920   -1.4790 C   0  0  0  0  0  0  0  0  0  0  0  0
    1.1240   -1.4620   -0.9640 C   0  0  0  0  0  0  0  0  0  0  0  0
    1.4890   -0.1860   -1.6560 C   0  0  0  0  0  0  0  0  0  0  0  0
    1.3280   -1.4260    0.4920 C   0  0  2  0  0  0  0  0  0  0  0  0
    1.2770   -2.7650    1.0870 N   0  0  0  0  0  0  0  0  0  0  0  0
    0.5470   -0.4700    1.2930 C   0  0  0  0  0  0  0  0  0  0  0  0
   -0.1020   -0.8620    2.3410 O   0  0  0  0  0  0  0  0  0  0  0  0
   -1.0710   -1.4760   -1.1450 H   0  0  0  0  0  0  0  0  0  0  0  0
   -0.1910   -3.0980   -1.4100 H   0  0  0  0  0  0  0  0  0  0  0  0
   -0.1530   -1.8140   -2.6000 H   0  0  0  0  0  0  0  0  0  0  0  0
    1.9070   -2.2180   -1.3460 H   0  0  0  0  0  0  0  0  0  0  0  0
    1.8280   -0.4520   -2.7270 H   0  0  0  0  0  0  0  0  0  0  0  0
    0.5800    0.4150   -1.8450 H   0  0  0  0  0  0  0  0  0  0  0  0
    2.3530    0.3420   -1.2550 H   0  0  0  0  0  0  0  0  0  0  0  0
    2.4040   -1.1040    0.6560 H   0  0  0  0  0  0  0  0  0  0  0  0
    2.1640   -3.3150    1.3110 H   0  0  0  0  0  0  0  0  0  0  0  0
    0.4090    0.9170    1.0480 N   0  0  0  0  0  0  0  0  0  0  0  0
   -0.4070    1.7880    1.9150 C   0  0  1  0  0  0  0  0  0  0  0  0
    0.3670    2.8340    2.6080 C   0  0  0  0  0  0  0  0  0  0  0  0
    1.1180    3.8150    1.7970 C   0  0  0  0  0  0  0  0  0  0  0  0
    0.3160    4.6460    0.8790 C   0  0  0  0  0  0  0  0  0  0  0  0
    0.0570    4.3750   -0.3180 O   0  0  0  0  0  0  0  0  0  0  0  0
   -1.5630    2.3450    1.2120 C   0  0  0  0  0  0  0  0  0  0  0  0
   -2.3520    3.1480    1.7610 O   0  0  0  0  0  0  0  0  0  0  0  0
   -0.2030    5.8390    1.3780 O   0  0  0  0  0  0  0  0  0  0  0  0
   -1.8760    2.0220   -0.1230 O   0  0  0  0  0  0  0  0  0  0  0  0
    0.9110    1.3360    0.2340 H   0  0  0  0  0  0  0  0  0  0  0  0
   -0.8470    1.1270    2.7300 H   0  0  0  0  0  0  0  0  0  0  0  0
   -0.3680    3.4160    3.2440 H   0  0  0  0  0  0  0  0  0  0  0  0
    1.0170    2.3370    3.3810 H   0  0  0  0  0  0  0  0  0  0  0  0
    1.6640    4.4860    2.5290 H   0  0  0  0  0  0  0  0  0  0  0  0
    1.9380    3.3770    1.1910 H   0  0  0  0  0  0  0  0  0  0  0  0
   -0.5920    6.5460    0.7830 H   0  0  0  0  0  0  0  0  0  0  0  0
  1  7  1  0  0  0  0
  1  2  1  0  0  0  0
  2  3  1  0  0  0  0
  2  9  1  1  0  0  0
  3 11  1  0  0  0  0
  4  2  1  0  0  0  0
  5  4  2  0  0  0  0
  6  1  1  0  0  0  0
  8  1  1  0  0  0  0
 10  3  1  0  0  0  0
 12 20  1  0  0  0  0
 12 19  1  0  0  0  0
 12 13  1  0  0  0  0
 13 15  1  0  0  0  0
 14 25  1  0  0  0  0
 14 13  1  0  0  0  0
 15 26  1  1  0  0  0
 15 16  1  0  0  0  0
 15 17  1  0  0  0  0
 16 27  1  0  0  0  0
 16  4  1  0  0  0  0
 17 18  2  0  0  0  0
 21 12  1  0  0  0  0
 22 13  1  0  0  0  0
 23 14  1  0  0  0  0
 24 14  1  0  0  0  0
 28 17  1  0  0  0  0
 28 29  1  0  0  0  0
 29 30  1  0  0  0  0
 29 39  1  1  0  0  0
 30 40  1  0  0  0  0
 30 41  1  0  0  0  0
 31 42  1  0  0  0  0
 31 30  1  0  0  0  0
 32 36  1  0  0  0  0
 32 31  1  0  0  0  0
 33 32  2  0  0  0  0
 34 35  1  0  0  0  0
 34 29  1  0  0  0  0
 37 34  2  0  0  0  0
 38 28  1  0  0  0  0
 43 31  1  0  0  0  0
 44 36  1  0  0  0  0
M  END
$$$$
