AVF.pdb
 OpenBabel07022418033D

 48 48  0  0  1  0  0  0  0  0999 V2000
    0.3940   -4.2940   -2.5420 C   0  0  0  0  0  0  0  0  0  0  0  0
    1.4810   -3.7030   -1.6960 C   0  0  2  0  0  0  0  0  0  0  0  0
    2.6740   -4.4940   -1.7290 N   0  0  0  0  0  0  0  0  0  0  0  0
    1.0330   -3.5660   -0.2590 C   0  0  0  0  0  0  0  0  0  0  0  0
    1.7490   -4.1360    0.5770 O   0  0  0  0  0  0  0  0  0  0  0  0
    0.0690   -5.2420   -2.0740 H   0  0  0  0  0  0  0  0  0  0  0  0
   -0.4460   -3.5760   -2.6520 H   0  0  0  0  0  0  0  0  0  0  0  0
    0.8200   -4.5470   -3.5220 H   0  0  0  0  0  0  0  0  0  0  0  0
    1.7120   -2.6630   -2.0200 H   0  0  0  0  0  0  0  0  0  0  0  0
    3.2310   -4.4010   -0.8430 H   0  0  0  0  0  0  0  0  0  0  0  0
    2.4180   -5.4720   -1.9550 H   0  0  0  0  0  0  0  0  0  0  0  0
   -0.2830   -4.8790    2.2000 C   0  0  0  0  0  0  0  0  0  0  0  0
   -0.0710   -3.4030    2.4490 C   0  0  0  0  0  0  0  0  0  0  0  0
   -0.6910   -3.0930    3.7980 C   0  0  0  0  0  0  0  0  0  0  0  0
   -0.7080   -2.6130    1.3410 C   0  0  2  0  0  0  0  0  0  0  0  0
   -0.1300   -2.8270    0.0570 N   0  0  0  0  0  0  0  0  0  0  0  0
   -0.9080   -1.1990    1.5960 C   0  0  0  0  0  0  0  0  0  0  0  0
   -1.4200   -0.7580    2.6730 O   0  0  0  0  0  0  0  0  0  0  0  0
   -1.1600   -5.2410    2.8400 H   0  0  0  0  0  0  0  0  0  0  0  0
    0.5710   -5.5190    2.4840 H   0  0  0  0  0  0  0  0  0  0  0  0
   -0.6130   -5.1210    1.1730 H   0  0  0  0  0  0  0  0  0  0  0  0
    0.9970   -3.1990    2.5260 H   0  0  0  0  0  0  0  0  0  0  0  0
   -0.3470   -2.1480    4.2280 H   0  0  0  0  0  0  0  0  0  0  0  0
   -0.3470   -3.9070    4.4880 H   0  0  0  0  0  0  0  0  0  0  0  0
   -1.8050   -3.1950    3.7700 H   0  0  0  0  0  0  0  0  0  0  0  0
   -1.7630   -3.1360    1.2170 H   0  0  0  0  0  0  0  0  0  0  0  0
   -0.5960   -2.3990   -0.8170 H   0  0  0  0  0  0  0  0  0  0  0  0
   -0.5330   -0.2270    0.6360 N   0  0  0  0  0  0  0  0  0  0  0  0
   -0.7020    1.2110    0.8200 C   0  0  1  0  0  0  0  0  0  0  0  0
    0.5960    1.9270    0.8880 C   0  0  0  0  0  0  0  0  0  0  0  0
    0.4200    3.3780    1.0710 C   0  0  0  0  0  0  0  0  0  0  0  0
    0.3780    4.2390   -0.0040 C   0  0  0  0  0  0  0  0  0  0  0  0
    0.2090    5.6060    0.1300 C   0  0  0  0  0  0  0  0  0  0  0  0
    0.0750    6.1510    1.3900 C   0  0  0  0  0  0  0  0  0  0  0  0
    0.1130    5.3120    2.4980 C   0  0  0  0  0  0  0  0  0  0  0  0
    0.2820    3.9570    2.3370 C   0  0  0  0  0  0  0  0  0  0  0  0
   -1.6140    1.7030   -0.2020 C   0  0  0  0  0  0  0  0  0  0  0  0
   -1.9720    2.8980   -0.2430 O   0  0  0  0  0  0  0  0  0  0  0  0
   -2.1170    0.8540   -1.1650 O   0  0  0  0  0  0  0  0  0  0  0  0
   -0.1060   -0.5120   -0.2680 H   0  0  0  0  0  0  0  0  0  0  0  0
   -1.1720    1.3140    1.8450 H   0  0  0  0  0  0  0  0  0  0  0  0
    1.1920    1.5670    1.7690 H   0  0  0  0  0  0  0  0  0  0  0  0
    1.1730    1.7440   -0.0630 H   0  0  0  0  0  0  0  0  0  0  0  0
    0.4850    3.8230   -0.9960 H   0  0  0  0  0  0  0  0  0  0  0  0
    0.1760    6.2780   -0.7100 H   0  0  0  0  0  0  0  0  0  0  0  0
   -0.0600    7.2080    1.5740 H   0  0  0  0  0  0  0  0  0  0  0  0
    0.0140    5.6770    3.5040 H   0  0  0  0  0  0  0  0  0  0  0  0
    0.3100    3.3070    3.2050 H   0  0  0  0  0  0  0  0  0  0  0  0
  1  6  1  0  0  0  0
  1  2  1  0  0  0  0
  2  9  1  6  0  0  0
  2  4  1  0  0  0  0
  3  2  1  0  0  0  0
  3 10  1  0  0  0  0
  4 16  1  0  0  0  0
  4  5  2  0  0  0  0
  7  1  1  0  0  0  0
  8  1  1  0  0  0  0
 11  3  1  0  0  0  0
 12 13  1  0  0  0  0
 12 20  1  0  0  0  0
 12 19  1  0  0  0  0
 13 22  1  0  0  0  0
 13 14  1  0  0  0  0
 14 23  1  0  0  0  0
 14 24  1  0  0  0  0
 15 26  1  6  0  0  0
 15 17  1  0  0  0  0
 15 13  1  0  0  0  0
 16 15  1  0  0  0  0
 17 18  2  0  0  0  0
 21 12  1  0  0  0  0
 25 14  1  0  0  0  0
 27 16  1  0  0  0  0
 28 29  1  0  0  0  0
 28 17  1  0  0  0  0
 29 30  1  0  0  0  0
 29 41  1  1  0  0  0
 30 31  1  0  0  0  0
 30 42  1  0  0  0  0
 31 36  1  0  0  0  0
 32 33  1  0  0  0  0
 32 31  2  0  0  0  0
 33 34  2  0  0  0  0
 34 46  1  0  0  0  0
 34 35  1  0  0  0  0
 35 47  1  0  0  0  0
 36 35  2  0  0  0  0
 36 48  1  0  0  0  0
 37 29  1  0  0  0  0
 38 37  1  0  0  0  0
 39 37  2  0  0  0  0
 40 28  1  0  0  0  0
 43 30  1  0  0  0  0
 44 32  1  0  0  0  0
 45 33  1  0  0  0  0
M  END
$$$$
