AVG.pdb
 OpenBabel07022418033D

 35 34  0  0  1  0  0  0  0  0999 V2000
   -2.2320   -3.6340    2.2910 C   0  0  0  0  0  0  0  0  0  0  0  0
   -2.3130   -2.2930    1.6170 C   0  0  2  0  0  0  0  0  0  0  0  0
   -2.8720   -2.3730    0.3070 N   0  0  0  0  0  0  0  0  0  0  0  0
   -1.0020   -1.6030    1.6560 C   0  0  0  0  0  0  0  0  0  0  0  0
   -0.4250   -1.4800    2.7600 O   0  0  0  0  0  0  0  0  0  0  0  0
   -1.2920   -3.6410    2.9040 H   0  0  0  0  0  0  0  0  0  0  0  0
   -3.0640   -3.7800    3.0160 H   0  0  0  0  0  0  0  0  0  0  0  0
   -2.2190   -4.4460    1.5190 H   0  0  0  0  0  0  0  0  0  0  0  0
   -3.0080   -1.6610    2.2440 H   0  0  0  0  0  0  0  0  0  0  0  0
   -3.9180   -2.2970    0.3770 H   0  0  0  0  0  0  0  0  0  0  0  0
   -2.7100   -3.3590   -0.0570 H   0  0  0  0  0  0  0  0  0  0  0  0
    1.6210   -1.1980   -1.7020 C   0  0  0  0  0  0  0  0  0  0  0  0
    1.9800   -1.1100   -0.2480 C   0  0  0  0  0  0  0  0  0  0  0  0
    2.3810   -2.4250    0.3570 C   0  0  0  0  0  0  0  0  0  0  0  0
    0.9320   -0.3970    0.5780 C   0  0  2  0  0  0  0  0  0  0  0  0
   -0.3550   -1.0700    0.5130 N   0  0  0  0  0  0  0  0  0  0  0  0
    0.7690    1.0150    0.1440 C   0  0  0  0  0  0  0  0  0  0  0  0
   -0.3670    1.4370   -0.2020 O   0  0  0  0  0  0  0  0  0  0  0  0
    1.8650   -2.2070   -2.1110 H   0  0  0  0  0  0  0  0  0  0  0  0
    0.5590   -0.9200   -1.8610 H   0  0  0  0  0  0  0  0  0  0  0  0
    2.2070   -0.4810   -2.3390 H   0  0  0  0  0  0  0  0  0  0  0  0
    2.8960   -0.4510   -0.1920 H   0  0  0  0  0  0  0  0  0  0  0  0
    2.1140   -3.2750   -0.3170 H   0  0  0  0  0  0  0  0  0  0  0  0
    1.9260   -2.5810    1.3700 H   0  0  0  0  0  0  0  0  0  0  0  0
    3.4830   -2.5130    0.5170 H   0  0  0  0  0  0  0  0  0  0  0  0
    1.3230   -0.3610    1.6160 H   0  0  0  0  0  0  0  0  0  0  0  0
   -0.8440   -1.1780   -0.4020 H   0  0  0  0  0  0  0  0  0  0  0  0
    1.8510    1.9310    0.1000 N   0  0  0  0  0  0  0  0  0  0  0  0
    1.6160    3.2950   -0.3340 C   0  0  0  0  0  0  0  0  0  0  0  0
    0.6340    3.9450    0.5610 C   0  0  0  0  0  0  0  0  0  0  0  0
    0.3140    5.1320    0.3290 O   0  0  0  0  0  0  0  0  0  0  0  0
    0.0560    3.3010    1.6370 O   0  0  0  0  0  0  0  0  0  0  0  0
    2.7870    1.5710    0.3890 H   0  0  0  0  0  0  0  0  0  0  0  0
    1.2850    3.3320   -1.3950 H   0  0  0  0  0  0  0  0  0  0  0  0
    2.5790    3.8680   -0.2790 H   0  0  0  0  0  0  0  0  0  0  0  0
  1  6  1  0  0  0  0
  1  7  1  0  0  0  0
  2  4  1  0  0  0  0
  2  9  1  1  0  0  0
  2  1  1  0  0  0  0
  3 10  1  0  0  0  0
  3  2  1  0  0  0  0
  4  5  2  0  0  0  0
  8  1  1  0  0  0  0
 11  3  1  0  0  0  0
 12 13  1  0  0  0  0
 13 22  1  0  0  0  0
 13 14  1  0  0  0  0
 13 15  1  0  0  0  0
 14 25  1  0  0  0  0
 14 24  1  0  0  0  0
 15 26  1  1  0  0  0
 16 15  1  0  0  0  0
 16  4  1  0  0  0  0
 17 15  1  0  0  0  0
 18 17  2  0  0  0  0
 19 12  1  0  0  0  0
 20 12  1  0  0  0  0
 21 12  1  0  0  0  0
 23 14  1  0  0  0  0
 27 16  1  0  0  0  0
 28 17  1  0  0  0  0
 28 33  1  0  0  0  0
 29 35  1  0  0  0  0
 29 28  1  0  0  0  0
 29 30  1  0  0  0  0
 30 32  1  0  0  0  0
 31 30  2  0  0  0  0
 34 29  1  0  0  0  0
M  END
$$$$
