AVL.pdb
 OpenBabel07022418033D

 47 46  0  0  1  0  0  0  0  0999 V2000
    1.1150   -5.5280    1.5400 C   0  0  0  0  0  0  0  0  0  0  0  0
    0.2390   -4.3020    1.6890 C   0  0  2  0  0  0  0  0  0  0  0  0
   -1.0770   -4.4730    1.1890 N   0  0  0  0  0  0  0  0  0  0  0  0
    0.9540   -3.1280    1.1430 C   0  0  0  0  0  0  0  0  0  0  0  0
    2.1340   -2.9380    1.5640 O   0  0  0  0  0  0  0  0  0  0  0  0
    0.6960   -6.3120    2.2120 H   0  0  0  0  0  0  0  0  0  0  0  0
    1.2330   -5.8610    0.5090 H   0  0  0  0  0  0  0  0  0  0  0  0
    2.1020   -5.2520    2.0120 H   0  0  0  0  0  0  0  0  0  0  0  0
    0.1560   -4.1210    2.8010 H   0  0  0  0  0  0  0  0  0  0  0  0
   -1.8160   -3.9680    1.6960 H   0  0  0  0  0  0  0  0  0  0  0  0
   -1.1810   -4.5220    0.1770 H   0  0  0  0  0  0  0  0  0  0  0  0
    2.2150    0.0210   -2.1400 C   0  0  0  0  0  0  0  0  0  0  0  0
    1.4080   -1.2040   -1.7660 C   0  0  0  0  0  0  0  0  0  0  0  0
    0.1380   -1.1820   -2.5720 C   0  0  0  0  0  0  0  0  0  0  0  0
    1.1360   -1.1320   -0.2780 C   0  0  2  0  0  0  0  0  0  0  0  0
    0.3740   -2.2440    0.1980 N   0  0  0  0  0  0  0  0  0  0  0  0
    0.3850    0.1050    0.0420 C   0  0  0  0  0  0  0  0  0  0  0  0
    0.8670    1.2120   -0.2840 O   0  0  0  0  0  0  0  0  0  0  0  0
    2.8550    0.3840   -1.3360 H   0  0  0  0  0  0  0  0  0  0  0  0
    2.8820   -0.2070   -3.0130 H   0  0  0  0  0  0  0  0  0  0  0  0
    1.5670    0.8580   -2.4860 H   0  0  0  0  0  0  0  0  0  0  0  0
    2.0370   -2.0840   -1.9800 H   0  0  0  0  0  0  0  0  0  0  0  0
    0.3280   -1.7510   -3.5050 H   0  0  0  0  0  0  0  0  0  0  0  0
   -0.7100   -1.6500   -2.0370 H   0  0  0  0  0  0  0  0  0  0  0  0
   -0.1640   -0.1400   -2.8550 H   0  0  0  0  0  0  0  0  0  0  0  0
    2.1310   -1.1460    0.2080 H   0  0  0  0  0  0  0  0  0  0  0  0
   -0.6050   -2.4660   -0.1020 H   0  0  0  0  0  0  0  0  0  0  0  0
   -1.0650    1.9850    3.9940 C   0  0  0  0  0  0  0  0  0  0  0  0
   -0.1610    2.3950    2.8140 C   0  0  0  0  0  0  0  0  0  0  0  0
    1.0460    1.5660    2.9120 C   0  0  0  0  0  0  0  0  0  0  0  0
   -0.9140    2.4930    1.5530 C   0  0  0  0  0  0  0  0  0  0  0  0
   -1.6120    1.2850    1.0380 C   0  0  2  0  0  0  0  0  0  0  0  0
   -0.8650    0.1420    0.7050 N   0  0  0  0  0  0  0  0  0  0  0  0
   -2.4510    1.6630   -0.1190 C   0  0  0  0  0  0  0  0  0  0  0  0
   -2.4450    1.0170   -1.1960 O   0  0  0  0  0  0  0  0  0  0  0  0
   -3.2860    2.7760   -0.0270 O   0  0  0  0  0  0  0  0  0  0  0  0
   -0.5130    2.0830    4.9350 H   0  0  0  0  0  0  0  0  0  0  0  0
   -2.0030    2.5560    3.9470 H   0  0  0  0  0  0  0  0  0  0  0  0
   -1.2700    0.8920    3.8250 H   0  0  0  0  0  0  0  0  0  0  0  0
    0.1160    3.4600    3.0940 H   0  0  0  0  0  0  0  0  0  0  0  0
    1.5810    1.7100    3.9050 H   0  0  0  0  0  0  0  0  0  0  0  0
    0.9090    0.4830    2.8400 H   0  0  0  0  0  0  0  0  0  0  0  0
    1.8280    1.8470    2.1750 H   0  0  0  0  0  0  0  0  0  0  0  0
   -1.7400    3.2500    1.7490 H   0  0  0  0  0  0  0  0  0  0  0  0
   -0.3450    2.9730    0.7220 H   0  0  0  0  0  0  0  0  0  0  0  0
   -2.3720    1.0040    1.8520 H   0  0  0  0  0  0  0  0  0  0  0  0
   -1.2550   -0.8110    0.9640 H   0  0  0  0  0  0  0  0  0  0  0  0
  1  2  1  0  0  0  0
  1  8  1  0  0  0  0
  1  6  1  0  0  0  0
  2  9  1  1  0  0  0
  3  2  1  0  0  0  0
  3 10  1  0  0  0  0
  4  5  2  0  0  0  0
  4  2  1  0  0  0  0
  7  1  1  0  0  0  0
 11  3  1  0  0  0  0
 12 13  1  0  0  0  0
 12 19  1  0  0  0  0
 13 15  1  0  0  0  0
 14 24  1  0  0  0  0
 14 13  1  0  0  0  0
 15 17  1  0  0  0  0
 15 16  1  0  0  0  0
 15 26  1  1  0  0  0
 16  4  1  0  0  0  0
 17 33  1  0  0  0  0
 18 17  2  0  0  0  0
 20 12  1  0  0  0  0
 21 12  1  0  0  0  0
 22 13  1  0  0  0  0
 23 14  1  0  0  0  0
 25 14  1  0  0  0  0
 27 16  1  0  0  0  0
 28 37  1  0  0  0  0
 29 30  1  0  0  0  0
 29 40  1  0  0  0  0
 29 28  1  0  0  0  0
 30 41  1  0  0  0  0
 31 44  1  0  0  0  0
 31 29  1  0  0  0  0
 32 31  1  0  0  0  0
 32 46  1  1  0  0  0
 33 47  1  0  0  0  0
 33 32  1  0  0  0  0
 34 36  1  0  0  0  0
 34 32  1  0  0  0  0
 35 34  2  0  0  0  0
 38 28  1  0  0  0  0
 39 28  1  0  0  0  0
 42 30  1  0  0  0  0
 43 30  1  0  0  0  0
 45 31  1  0  0  0  0
M  END
$$$$
