AVM.pdb
 OpenBabel07022418033D

 45 44  0  0  1  0  0  0  0  0999 V2000
    1.1600   -5.2930    1.5520 C   0  0  0  0  0  0  0  0  0  0  0  0
    0.6450   -3.9400    1.9540 C   0  0  2  0  0  0  0  0  0  0  0  0
   -0.7750   -3.9150    1.7990 N   0  0  0  0  0  0  0  0  0  0  0  0
    1.3170   -2.8910    1.1510 C   0  0  0  0  0  0  0  0  0  0  0  0
    2.5670   -2.7620    1.1630 O   0  0  0  0  0  0  0  0  0  0  0  0
    0.4000   -6.0380    1.8660 H   0  0  0  0  0  0  0  0  0  0  0  0
    1.1980   -5.3040    0.4290 H   0  0  0  0  0  0  0  0  0  0  0  0
    2.1580   -5.5050    1.9880 H   0  0  0  0  0  0  0  0  0  0  0  0
    0.9480   -3.7760    3.0090 H   0  0  0  0  0  0  0  0  0  0  0  0
   -1.1910   -4.8240    2.0880 H   0  0  0  0  0  0  0  0  0  0  0  0
   -1.2330   -3.0860    2.2350 H   0  0  0  0  0  0  0  0  0  0  0  0
   -0.7610   -1.4340   -2.1170 C   0  0  0  0  0  0  0  0  0  0  0  0
    0.7340   -1.3190   -1.8840 C   0  0  0  0  0  0  0  0  0  0  0  0
    1.4150   -0.4660   -2.8970 C   0  0  0  0  0  0  0  0  0  0  0  0
    1.0530   -0.9740   -0.4560 C   0  0  2  0  0  0  0  0  0  0  0  0
    0.5180   -2.0320    0.3660 N   0  0  0  0  0  0  0  0  0  0  0  0
    0.5460    0.3610   -0.0570 C   0  0  0  0  0  0  0  0  0  0  0  0
    0.9230    1.3820   -0.6730 O   0  0  0  0  0  0  0  0  0  0  0  0
   -1.3150   -0.9160   -1.3050 H   0  0  0  0  0  0  0  0  0  0  0  0
   -1.0580   -1.0160   -3.1070 H   0  0  0  0  0  0  0  0  0  0  0  0
   -1.1160   -2.4840   -2.1150 H   0  0  0  0  0  0  0  0  0  0  0  0
    1.1320   -2.3670   -2.0330 H   0  0  0  0  0  0  0  0  0  0  0  0
    1.1520   -0.9030   -3.9040 H   0  0  0  0  0  0  0  0  0  0  0  0
    1.1990    0.5990   -2.8510 H   0  0  0  0  0  0  0  0  0  0  0  0
    2.5210   -0.6490   -2.7940 H   0  0  0  0  0  0  0  0  0  0  0  0
    2.1560   -0.9890   -0.3450 H   0  0  0  0  0  0  0  0  0  0  0  0
   -0.5140   -2.1630    0.3760 H   0  0  0  0  0  0  0  0  0  0  0  0
    0.7270    1.3090    4.3470 C   0  0  0  0  0  0  0  0  0  0  0  0
    1.1970    2.9130    3.7140 S   0  0  0  0  0  0  0  0  0  0  0  0
    1.2620    3.0420    1.9180 C   0  0  0  0  0  0  0  0  0  0  0  0
   -0.0590    3.0290    1.2220 C   0  0  0  0  0  0  0  0  0  0  0  0
   -0.8570    1.8050    1.4310 C   0  0  2  0  0  0  0  0  0  0  0  0
   -0.3620    0.5620    1.0040 N   0  0  0  0  0  0  0  0  0  0  0  0
   -2.2650    1.9680    0.9930 C   0  0  0  0  0  0  0  0  0  0  0  0
   -2.8910    1.0940    0.3340 O   0  0  0  0  0  0  0  0  0  0  0  0
   -2.9940    3.1340    1.2970 O   0  0  0  0  0  0  0  0  0  0  0  0
    1.3890    1.0110    5.2320 H   0  0  0  0  0  0  0  0  0  0  0  0
    0.7710    0.4840    3.6080 H   0  0  0  0  0  0  0  0  0  0  0  0
   -0.2870    1.3090    4.7890 H   0  0  0  0  0  0  0  0  0  0  0  0
    1.8050    4.0220    1.7200 H   0  0  0  0  0  0  0  0  0  0  0  0
    1.9330    2.2220    1.5550 H   0  0  0  0  0  0  0  0  0  0  0  0
   -0.0020    3.3740    0.1680 H   0  0  0  0  0  0  0  0  0  0  0  0
   -0.6560    3.8630    1.7120 H   0  0  0  0  0  0  0  0  0  0  0  0
   -0.9020    1.7370    2.5810 H   0  0  0  0  0  0  0  0  0  0  0  0
   -0.7070   -0.3040    1.5280 H   0  0  0  0  0  0  0  0  0  0  0  0
  1  6  1  0  0  0  0
  1  2  1  0  0  0  0
  1  8  1  0  0  0  0
  2  9  1  1  0  0  0
  3  2  1  0  0  0  0
  3 10  1  0  0  0  0
  3 11  1  0  0  0  0
  4  5  2  0  0  0  0
  4  2  1  0  0  0  0
  7  1  1  0  0  0  0
 12 21  1  0  0  0  0
 12 13  1  0  0  0  0
 12 19  1  0  0  0  0
 13 15  1  0  0  0  0
 14 24  1  0  0  0  0
 14 25  1  0  0  0  0
 14 13  1  0  0  0  0
 15 26  1  1  0  0  0
 15 17  1  0  0  0  0
 15 16  1  0  0  0  0
 16 27  1  0  0  0  0
 16  4  1  0  0  0  0
 17 33  1  0  0  0  0
 18 17  2  0  0  0  0
 20 12  1  0  0  0  0
 22 13  1  0  0  0  0
 23 14  1  0  0  0  0
 28 39  1  0  0  0  0
 28 37  1  0  0  0  0
 29 28  1  0  0  0  0
 30 29  1  0  0  0  0
 31 32  1  0  0  0  0
 31 43  1  0  0  0  0
 31 30  1  0  0  0  0
 32 44  1  1  0  0  0
 33 32  1  0  0  0  0
 33 45  1  0  0  0  0
 34 36  1  0  0  0  0
 34 32  1  0  0  0  0
 35 34  2  0  0  0  0
 38 28  1  0  0  0  0
 40 30  1  0  0  0  0
 41 30  1  0  0  0  0
 42 31  1  0  0  0  0
M  END
$$$$
