AVQ.pdb
 OpenBabel07022418033D

 45 44  0  0  1  0  0  0  0  0999 V2000
   -1.4300   -3.5330    2.1290 C   0  0  0  0  0  0  0  0  0  0  0  0
   -0.7390   -4.3670    1.0750 C   0  0  2  0  0  0  0  0  0  0  0  0
   -0.3490   -5.6090    1.6890 N   0  0  0  0  0  0  0  0  0  0  0  0
    0.3710   -3.6540    0.4380 C   0  0  0  0  0  0  0  0  0  0  0  0
    1.5200   -4.1790    0.4860 O   0  0  0  0  0  0  0  0  0  0  0  0
   -2.3490   -4.0260    2.4660 H   0  0  0  0  0  0  0  0  0  0  0  0
   -0.7350   -3.4730    3.0000 H   0  0  0  0  0  0  0  0  0  0  0  0
   -1.6040   -2.5040    1.7610 H   0  0  0  0  0  0  0  0  0  0  0  0
   -1.5040   -4.5990    0.3040 H   0  0  0  0  0  0  0  0  0  0  0  0
    0.6570   -5.7810    1.7260 H   0  0  0  0  0  0  0  0  0  0  0  0
   -0.8750   -5.8380    2.5430 H   0  0  0  0  0  0  0  0  0  0  0  0
   -0.4210   -0.8750   -2.5400 C   0  0  0  0  0  0  0  0  0  0  0  0
    0.8870   -1.5940   -2.3140 C   0  0  0  0  0  0  0  0  0  0  0  0
    1.9540   -0.8940   -3.1030 C   0  0  0  0  0  0  0  0  0  0  0  0
    1.2140   -1.6930   -0.8420 C   0  0  2  0  0  0  0  0  0  0  0  0
    0.1470   -2.4270   -0.2020 N   0  0  0  0  0  0  0  0  0  0  0  0
    1.4090   -0.3540   -0.2290 C   0  0  0  0  0  0  0  0  0  0  0  0
    2.2740    0.4570   -0.6170 O   0  0  0  0  0  0  0  0  0  0  0  0
   -0.4970   -0.0470   -1.8090 H   0  0  0  0  0  0  0  0  0  0  0  0
   -1.2920   -1.5600   -2.5020 H   0  0  0  0  0  0  0  0  0  0  0  0
   -0.4160   -0.4100   -3.5470 H   0  0  0  0  0  0  0  0  0  0  0  0
    0.7740   -2.6160   -2.7230 H   0  0  0  0  0  0  0  0  0  0  0  0
    2.1270   -1.3740   -4.1020 H   0  0  0  0  0  0  0  0  0  0  0  0
    1.6660    0.1660   -3.3460 H   0  0  0  0  0  0  0  0  0  0  0  0
    2.9300   -0.8750   -2.5920 H   0  0  0  0  0  0  0  0  0  0  0  0
    2.1550   -2.2660   -0.7240 H   0  0  0  0  0  0  0  0  0  0  0  0
   -0.8030   -2.0100   -0.2330 H   0  0  0  0  0  0  0  0  0  0  0  0
   -0.2010    4.4440    4.2830 N   0  0  0  0  0  0  0  0  0  0  0  0
   -0.6640    3.4310    3.4100 C   0  0  0  0  0  0  0  0  0  0  0  0
   -1.2650    2.4100    3.8750 O   0  0  0  0  0  0  0  0  0  0  0  0
   -0.4980    3.4810    1.9380 C   0  0  0  0  0  0  0  0  0  0  0  0
   -0.4920    2.1650    1.2470 C   0  0  0  0  0  0  0  0  0  0  0  0
    0.6800    1.3290    1.5300 C   0  0  2  0  0  0  0  0  0  0  0  0
    0.5790    0.0300    0.8460 N   0  0  0  0  0  0  0  0  0  0  0  0
    1.1770    1.1220    2.8600 C   0  0  0  0  0  0  0  0  0  0  0  0
    1.6060    1.9780    3.6820 O   0  0  0  0  0  0  0  0  0  0  0  0
    1.2080   -0.2070    3.3600 O   0  0  0  0  0  0  0  0  0  0  0  0
   -0.1740    4.2480    5.3030 H   0  0  0  0  0  0  0  0  0  0  0  0
    0.1060    5.3690    3.9170 H   0  0  0  0  0  0  0  0  0  0  0  0
   -1.3590    4.1340    1.5850 H   0  0  0  0  0  0  0  0  0  0  0  0
    0.3990    4.1010    1.6600 H   0  0  0  0  0  0  0  0  0  0  0  0
   -0.4940    2.3980    0.1460 H   0  0  0  0  0  0  0  0  0  0  0  0
   -1.4250    1.5990    1.5120 H   0  0  0  0  0  0  0  0  0  0  0  0
    1.5490    1.8270    0.9500 H   0  0  0  0  0  0  0  0  0  0  0  0
   -0.1660   -0.5990    1.2220 H   0  0  0  0  0  0  0  0  0  0  0  0
  1  6  1  0  0  0  0
  1  7  1  0  0  0  0
  2  9  1  6  0  0  0
  2  3  1  0  0  0  0
  2  1  1  0  0  0  0
  3 10  1  0  0  0  0
  3 11  1  0  0  0  0
  4  5  2  0  0  0  0
  4  2  1  0  0  0  0
  8  1  1  0  0  0  0
 12 20  1  0  0  0  0
 12 13  1  0  0  0  0
 12 19  1  0  0  0  0
 13 15  1  0  0  0  0
 14 25  1  0  0  0  0
 14 13  1  0  0  0  0
 15 26  1  1  0  0  0
 15 17  1  0  0  0  0
 15 16  1  0  0  0  0
 16  4  1  0  0  0  0
 17 34  1  0  0  0  0
 18 17  2  0  0  0  0
 21 12  1  0  0  0  0
 22 13  1  0  0  0  0
 23 14  1  0  0  0  0
 24 14  1  0  0  0  0
 27 16  1  0  0  0  0
 28 38  1  0  0  0  0
 29 30  2  0  0  0  0
 29 28  1  0  0  0  0
 31 29  1  0  0  0  0
 32 43  1  0  0  0  0
 32 33  1  0  0  0  0
 32 31  1  0  0  0  0
 33 44  1  6  0  0  0
 33 35  1  0  0  0  0
 34 45  1  0  0  0  0
 34 33  1  0  0  0  0
 35 37  2  0  0  0  0
 35 36  1  0  0  0  0
 39 28  1  0  0  0  0
 40 31  1  0  0  0  0
 41 31  1  0  0  0  0
 42 32  1  0  0  0  0
M  END
$$$$
