AVT.pdb
 OpenBabel07022418033D

 42 41  0  0  1  0  0  0  0  0999 V2000
    1.2240   -4.8380    2.4650 C   0  0  0  0  0  0  0  0  0  0  0  0
    1.7180   -3.5120    1.9510 C   0  0  2  0  0  0  0  0  0  0  0  0
    1.7420   -2.5410    3.0160 N   0  0  0  0  0  0  0  0  0  0  0  0
    0.7520   -3.0390    0.9040 C   0  0  0  0  0  0  0  0  0  0  0  0
    0.5900   -3.7710   -0.1300 O   0  0  0  0  0  0  0  0  0  0  0  0
    0.1250   -4.7920    2.5360 H   0  0  0  0  0  0  0  0  0  0  0  0
    1.6220   -5.0340    3.4760 H   0  0  0  0  0  0  0  0  0  0  0  0
    1.4960   -5.6440    1.7460 H   0  0  0  0  0  0  0  0  0  0  0  0
    2.7360   -3.5670    1.5310 H   0  0  0  0  0  0  0  0  0  0  0  0
    2.1560   -2.9490    3.8970 H   0  0  0  0  0  0  0  0  0  0  0  0
    2.3780   -1.7260    2.7880 H   0  0  0  0  0  0  0  0  0  0  0  0
   -2.6030   -2.7640    1.1190 C   0  0  0  0  0  0  0  0  0  0  0  0
   -2.2530   -1.3750    0.6330 C   0  0  0  0  0  0  0  0  0  0  0  0
   -2.3610   -0.4430    1.8090 C   0  0  0  0  0  0  0  0  0  0  0  0
   -0.8710   -1.4000    0.0350 C   0  0  2  0  0  0  0  0  0  0  0  0
    0.0480   -1.8220    1.0620 N   0  0  0  0  0  0  0  0  0  0  0  0
   -0.4470   -0.1060   -0.5070 C   0  0  0  0  0  0  0  0  0  0  0  0
   -1.0780    0.4960   -1.4230 O   0  0  0  0  0  0  0  0  0  0  0  0
   -2.0780   -3.4880    0.4750 H   0  0  0  0  0  0  0  0  0  0  0  0
   -2.2440   -2.9350    2.1750 H   0  0  0  0  0  0  0  0  0  0  0  0
   -3.7020   -2.9570    1.0490 H   0  0  0  0  0  0  0  0  0  0  0  0
   -3.0000   -1.0560   -0.1230 H   0  0  0  0  0  0  0  0  0  0  0  0
   -3.3810   -0.5940    2.2430 H   0  0  0  0  0  0  0  0  0  0  0  0
   -1.6440   -0.7070    2.6000 H   0  0  0  0  0  0  0  0  0  0  0  0
   -2.3190    0.6280    1.5160 H   0  0  0  0  0  0  0  0  0  0  0  0
   -0.9010   -2.1460   -0.7980 H   0  0  0  0  0  0  0  0  0  0  0  0
    0.1960   -1.2500    1.9040 H   0  0  0  0  0  0  0  0  0  0  0  0
    1.7830    4.1370   -0.0830 C   0  0  0  0  0  0  0  0  0  0  0  0
    1.3800    2.8370    0.5750 C   0  0  1  0  0  0  0  0  0  0  0  0
    0.2130    3.1080    1.2830 O   0  0  0  0  0  0  0  0  0  0  0  0
    1.1820    1.8150   -0.5080 C   0  0  2  0  0  0  0  0  0  0  0  0
    0.7200    0.5440   -0.0120 N   0  0  0  0  0  0  0  0  0  0  0  0
    2.5070    1.6080   -1.1400 C   0  0  0  0  0  0  0  0  0  0  0  0
    2.9940    0.4500   -1.1390 O   0  0  0  0  0  0  0  0  0  0  0  0
    3.2290    2.6350   -1.7300 O   0  0  0  0  0  0  0  0  0  0  0  0
    2.8990    4.2330   -0.0730 H   0  0  0  0  0  0  0  0  0  0  0  0
    1.3220    5.0120    0.4280 H   0  0  0  0  0  0  0  0  0  0  0  0
    1.4900    4.0810   -1.1490 H   0  0  0  0  0  0  0  0  0  0  0  0
    2.1910    2.4570    1.2390 H   0  0  0  0  0  0  0  0  0  0  0  0
    0.4630    3.4040    2.2100 H   0  0  0  0  0  0  0  0  0  0  0  0
    0.5030    2.2090   -1.3200 H   0  0  0  0  0  0  0  0  0  0  0  0
    1.2480    0.0560    0.7440 H   0  0  0  0  0  0  0  0  0  0  0  0
  1  6  1  0  0  0  0
  1  7  1  0  0  0  0
  2  9  1  6  0  0  0
  2  1  1  0  0  0  0
  2  3  1  0  0  0  0
  3 10  1  0  0  0  0
  4 16  1  0  0  0  0
  4  2  1  0  0  0  0
  5  4  2  0  0  0  0
  8  1  1  0  0  0  0
 11  3  1  0  0  0  0
 12 20  1  0  0  0  0
 13 12  1  0  0  0  0
 13 14  1  0  0  0  0
 14 23  1  0  0  0  0
 14 24  1  0  0  0  0
 15 26  1  6  0  0  0
 15 13  1  0  0  0  0
 15 16  1  0  0  0  0
 16 27  1  0  0  0  0
 17 32  1  0  0  0  0
 17 15  1  0  0  0  0
 18 17  2  0  0  0  0
 19 12  1  0  0  0  0
 21 12  1  0  0  0  0
 22 13  1  0  0  0  0
 25 14  1  0  0  0  0
 28 36  1  0  0  0  0
 28 37  1  0  0  0  0
 28 29  1  0  0  0  0
 29 39  1  1  0  0  0
 29 30  1  0  0  0  0
 30 40  1  0  0  0  0
 31 41  1  6  0  0  0
 31 32  1  0  0  0  0
 31 29  1  0  0  0  0
 32 42  1  0  0  0  0
 33 34  1  0  0  0  0
 33 31  1  0  0  0  0
 35 33  2  0  0  0  0
 38 28  1  0  0  0  0
M  END
$$$$
