AVV.pdb
 OpenBabel07022418033D

 44 43  0  0  1  0  0  0  0  0999 V2000
    1.8630   -5.2610    0.3110 C   0  0  0  0  0  0  0  0  0  0  0  0
    0.8120   -4.1880    0.5220 C   0  0  2  0  0  0  0  0  0  0  0  0
    0.4190   -3.7030   -0.7650 N   0  0  0  0  0  0  0  0  0  0  0  0
    1.3600   -3.0870    1.3670 C   0  0  0  0  0  0  0  0  0  0  0  0
    1.7670   -3.3120    2.5510 O   0  0  0  0  0  0  0  0  0  0  0  0
    2.6290   -5.2650    1.1150 H   0  0  0  0  0  0  0  0  0  0  0  0
    1.3440   -6.2330    0.2250 H   0  0  0  0  0  0  0  0  0  0  0  0
    2.3620   -5.1060   -0.6860 H   0  0  0  0  0  0  0  0  0  0  0  0
   -0.0670   -4.6690    1.0280 H   0  0  0  0  0  0  0  0  0  0  0  0
   -0.4120   -3.0790   -0.7490 H   0  0  0  0  0  0  0  0  0  0  0  0
    0.4480   -4.3850   -1.5260 H   0  0  0  0  0  0  0  0  0  0  0  0
    2.8190    0.4370   -0.5220 C   0  0  0  0  0  0  0  0  0  0  0  0
    3.1260   -0.0590    0.8560 C   0  0  0  0  0  0  0  0  0  0  0  0
    3.7050    1.0890    1.6440 C   0  0  0  0  0  0  0  0  0  0  0  0
    1.9220   -0.6700    1.5410 C   0  0  2  0  0  0  0  0  0  0  0  0
    1.4140   -1.7830    0.8080 N   0  0  0  0  0  0  0  0  0  0  0  0
    0.8590    0.3480    1.7690 C   0  0  0  0  0  0  0  0  0  0  0  0
    1.1220    1.4020    2.4000 O   0  0  0  0  0  0  0  0  0  0  0  0
    3.6280    1.1770   -0.7910 H   0  0  0  0  0  0  0  0  0  0  0  0
    2.8870   -0.3500   -1.3000 H   0  0  0  0  0  0  0  0  0  0  0  0
    1.8720    1.0110   -0.5810 H   0  0  0  0  0  0  0  0  0  0  0  0
    3.9090   -0.8270    0.7750 H   0  0  0  0  0  0  0  0  0  0  0  0
    4.7490    1.2490    1.2460 H   0  0  0  0  0  0  0  0  0  0  0  0
    3.8390    0.8420    2.7160 H   0  0  0  0  0  0  0  0  0  0  0  0
    3.1740    2.0310    1.4710 H   0  0  0  0  0  0  0  0  0  0  0  0
    2.2350   -1.0190    2.5470 H   0  0  0  0  0  0  0  0  0  0  0  0
    1.0690   -1.6410   -0.1690 H   0  0  0  0  0  0  0  0  0  0  0  0
   -2.6200    0.7050   -0.5730 C   0  0  0  0  0  0  0  0  0  0  0  0
   -1.9830    1.7920    0.2580 C   0  0  0  0  0  0  0  0  0  0  0  0
   -3.0510    2.8180    0.5600 C   0  0  0  0  0  0  0  0  0  0  0  0
   -1.4500    1.1810    1.5380 C   0  0  2  0  0  0  0  0  0  0  0  0
   -0.4650    0.1720    1.2920 N   0  0  0  0  0  0  0  0  0  0  0  0
   -2.5640    0.6990    2.3870 C   0  0  0  0  0  0  0  0  0  0  0  0
   -2.5470   -0.4840    2.7850 O   0  0  0  0  0  0  0  0  0  0  0  0
   -3.6140    1.5090    2.7480 O   0  0  0  0  0  0  0  0  0  0  0  0
   -3.7170    0.8420   -0.6550 H   0  0  0  0  0  0  0  0  0  0  0  0
   -2.1730    0.7850   -1.5980 H   0  0  0  0  0  0  0  0  0  0  0  0
   -2.4690   -0.3070   -0.1470 H   0  0  0  0  0  0  0  0  0  0  0  0
   -1.1550    2.3030   -0.2760 H   0  0  0  0  0  0  0  0  0  0  0  0
   -3.0760    3.5480   -0.2870 H   0  0  0  0  0  0  0  0  0  0  0  0
   -2.8550    3.3430    1.5230 H   0  0  0  0  0  0  0  0  0  0  0  0
   -4.0600    2.3590    0.6230 H   0  0  0  0  0  0  0  0  0  0  0  0
   -0.9710    2.0020    2.1100 H   0  0  0  0  0  0  0  0  0  0  0  0
   -0.6890   -0.7250    0.7550 H   0  0  0  0  0  0  0  0  0  0  0  0
  1  2  1  0  0  0  0
  1  6  1  0  0  0  0
  2  9  1  1  0  0  0
  2  4  1  0  0  0  0
  3 10  1  0  0  0  0
  3  2  1  0  0  0  0
  4  5  2  0  0  0  0
  7  1  1  0  0  0  0
  8  1  1  0  0  0  0
 11  3  1  0  0  0  0
 12 13  1  0  0  0  0
 13 15  1  0  0  0  0
 13 14  1  0  0  0  0
 14 24  1  0  0  0  0
 15 17  1  0  0  0  0
 15 26  1  1  0  0  0
 16  4  1  0  0  0  0
 16 15  1  0  0  0  0
 17 18  2  0  0  0  0
 19 12  1  0  0  0  0
 20 12  1  0  0  0  0
 21 12  1  0  0  0  0
 22 13  1  0  0  0  0
 23 14  1  0  0  0  0
 25 14  1  0  0  0  0
 27 16  1  0  0  0  0
 28 38  1  0  0  0  0
 28 29  1  0  0  0  0
 29 30  1  0  0  0  0
 29 31  1  0  0  0  0
 30 42  1  0  0  0  0
 30 41  1  0  0  0  0
 31 43  1  1  0  0  0
 31 33  1  0  0  0  0
 32 31  1  0  0  0  0
 32 17  1  0  0  0  0
 33 35  2  0  0  0  0
 33 34  1  0  0  0  0
 36 28  1  0  0  0  0
 37 28  1  0  0  0  0
 39 29  1  0  0  0  0
 40 30  1  0  0  0  0
 44 32  1  0  0  0  0
M  END
$$$$
