AWD.pdb
 OpenBabel07022418023D

 49 50  0  0  1  0  0  0  0  0999 V2000
    0.5100    0.1550    5.6660 C   0  0  0  0  0  0  0  0  0  0  0  0
    0.9330   -0.9220    4.6910 C   0  0  2  0  0  0  0  0  0  0  0  0
    2.2490   -0.5450    4.1840 N   0  0  0  0  0  0  0  0  0  0  0  0
   -0.0710   -0.9690    3.6040 C   0  0  0  0  0  0  0  0  0  0  0  0
   -1.2520   -1.2590    3.9350 O   0  0  0  0  0  0  0  0  0  0  0  0
    1.1880    1.0120    5.6400 H   0  0  0  0  0  0  0  0  0  0  0  0
    0.5090   -0.2210    6.7120 H   0  0  0  0  0  0  0  0  0  0  0  0
   -0.5440    0.4800    5.4580 H   0  0  0  0  0  0  0  0  0  0  0  0
    1.0150   -1.9070    5.2120 H   0  0  0  0  0  0  0  0  0  0  0  0
    2.1310    0.4030    3.7600 H   0  0  0  0  0  0  0  0  0  0  0  0
    2.5450   -1.1920    3.4210 H   0  0  0  0  0  0  0  0  0  0  0  0
    0.2130   -0.7120    2.2380 N   0  0  0  0  0  0  0  0  0  0  0  0
   -0.8240   -0.7790    1.2390 C   0  0  1  0  0  0  0  0  0  0  0  0
   -1.1660    0.5370    0.6240 C   0  0  0  0  0  0  0  0  0  0  0  0
   -0.0560    1.2260   -0.0600 C   0  0  0  0  0  0  0  0  0  0  0  0
    0.1720    1.2230   -1.4230 C   0  0  0  0  0  0  0  0  0  0  0  0
    1.2740    1.9340   -1.6820 N   0  0  0  0  0  0  0  0  0  0  0  0
    1.7830    2.4100   -0.5300 C   0  0  0  0  0  0  0  0  0  0  0  0
    2.9000    3.1990   -0.2820 C   0  0  0  0  0  0  0  0  0  0  0  0
    3.2030    3.5620    1.0170 C   0  0  0  0  0  0  0  0  0  0  0  0
    2.3760    3.1250    2.0400 C   0  0  0  0  0  0  0  0  0  0  0  0
    1.2740    2.3450    1.7910 C   0  0  0  0  0  0  0  0  0  0  0  0
    0.9670    1.9790    0.4930 C   0  0  0  0  0  0  0  0  0  0  0  0
   -0.5310   -1.8310    0.2200 C   0  0  0  0  0  0  0  0  0  0  0  0
    0.5380   -2.5090    0.2640 O   0  0  0  0  0  0  0  0  0  0  0  0
    1.2030   -0.4870    2.0140 H   0  0  0  0  0  0  0  0  0  0  0  0
   -1.7830   -1.1160    1.7510 H   0  0  0  0  0  0  0  0  0  0  0  0
   -1.5500    1.2580    1.3950 H   0  0  0  0  0  0  0  0  0  0  0  0
   -2.0280    0.4490   -0.0990 H   0  0  0  0  0  0  0  0  0  0  0  0
   -0.4290    0.7330   -2.1710 H   0  0  0  0  0  0  0  0  0  0  0  0
    1.7110    2.1200   -2.6230 H   0  0  0  0  0  0  0  0  0  0  0  0
    3.5300    3.5260   -1.1110 H   0  0  0  0  0  0  0  0  0  0  0  0
    4.0800    4.1790    1.1960 H   0  0  0  0  0  0  0  0  0  0  0  0
    2.6290    3.4200    3.0590 H   0  0  0  0  0  0  0  0  0  0  0  0
    0.6450    2.0160    2.5850 H   0  0  0  0  0  0  0  0  0  0  0  0
   -1.4170   -2.1320   -0.8430 N   0  0  0  0  0  0  0  0  0  0  0  0
   -1.1380   -3.1670   -1.8500 C   0  0  1  0  0  0  0  0  0  0  0  0
   -2.1000   -4.2930   -1.5180 C   0  0  0  0  0  0  0  0  0  0  0  0
   -2.0150   -5.4670   -2.3620 C   0  0  0  0  0  0  0  0  0  0  0  0
   -2.9100   -6.3780   -2.2710 O   0  0  0  0  0  0  0  0  0  0  0  0
   -1.3150   -2.6410   -3.2020 C   0  0  0  0  0  0  0  0  0  0  0  0
   -1.0970   -3.3310   -4.2140 O   0  0  0  0  0  0  0  0  0  0  0  0
   -1.0280   -5.7120   -3.2890 O   0  0  0  0  0  0  0  0  0  0  0  0
   -1.7390   -1.3350   -3.3940 O   0  0  0  0  0  0  0  0  0  0  0  0
   -2.3010   -1.5880   -0.9010 H   0  0  0  0  0  0  0  0  0  0  0  0
   -0.1330   -3.5540   -1.6310 H   0  0  0  0  0  0  0  0  0  0  0  0
   -1.9680   -4.6060   -0.4390 H   0  0  0  0  0  0  0  0  0  0  0  0
   -3.1280   -3.8250   -1.5100 H   0  0  0  0  0  0  0  0  0  0  0  0
   -0.7550   -6.6900   -3.4530 H   0  0  0  0  0  0  0  0  0  0  0  0
  1  7  1  0  0  0  0
  2  9  1  1  0  0  0
  2  1  1  0  0  0  0
  3  2  1  0  0  0  0
  4  5  2  0  0  0  0
  4  2  1  0  0  0  0
  6  1  1  0  0  0  0
  8  1  1  0  0  0  0
 10  3  1  0  0  0  0
 11  3  1  0  0  0  0
 12  4  1  0  0  0  0
 13 27  1  1  0  0  0
 13 12  1  0  0  0  0
 14 13  1  0  0  0  0
 14 28  1  0  0  0  0
 15 23  1  0  0  0  0
 15 14  1  0  0  0  0
 16 15  2  0  0  0  0
 17 16  1  0  0  0  0
 17 18  1  0  0  0  0
 18 19  2  0  0  0  0
 18 23  1  0  0  0  0
 19 20  1  0  0  0  0
 20 33  1  0  0  0  0
 20 21  2  0  0  0  0
 21 34  1  0  0  0  0
 22 21  1  0  0  0  0
 22 35  1  0  0  0  0
 23 22  2  0  0  0  0
 24 25  2  0  0  0  0
 24 13  1  0  0  0  0
 26 12  1  0  0  0  0
 29 14  1  0  0  0  0
 30 16  1  0  0  0  0
 31 17  1  0  0  0  0
 32 19  1  0  0  0  0
 36 24  1  0  0  0  0
 37 46  1  1  0  0  0
 37 38  1  0  0  0  0
 37 36  1  0  0  0  0
 38 48  1  0  0  0  0
 38 47  1  0  0  0  0
 39 40  2  0  0  0  0
 39 38  1  0  0  0  0
 41 37  1  0  0  0  0
 42 41  2  0  0  0  0
 43 39  1  0  0  0  0
 44 41  1  0  0  0  0
 45 36  1  0  0  0  0
 49 43  1  0  0  0  0
M  END
$$$$
