AWF.pdb
 OpenBabel07022418033D

 56 58  0  0  1  0  0  0  0  0999 V2000
    1.0200   -3.6730    2.6420 C   0  0  0  0  0  0  0  0  0  0  0  0
    2.0450   -2.6050    3.0400 C   0  0  2  0  0  0  0  0  0  0  0  0
    2.2520   -2.7080    4.4570 N   0  0  0  0  0  0  0  0  0  0  0  0
    1.4530   -1.2980    2.6510 C   0  0  0  0  0  0  0  0  0  0  0  0
    1.2100   -0.4690    3.5640 O   0  0  0  0  0  0  0  0  0  0  0  0
    1.3940   -4.6880    2.8790 H   0  0  0  0  0  0  0  0  0  0  0  0
    0.0870   -3.4180    3.2110 H   0  0  0  0  0  0  0  0  0  0  0  0
    0.7700   -3.5530    1.5700 H   0  0  0  0  0  0  0  0  0  0  0  0
    2.9920   -2.7940    2.4650 H   0  0  0  0  0  0  0  0  0  0  0  0
    2.0720   -3.6980    4.7380 H   0  0  0  0  0  0  0  0  0  0  0  0
    3.2170   -2.3880    4.6730 H   0  0  0  0  0  0  0  0  0  0  0  0
    1.1620   -0.9730    1.2990 N   0  0  0  0  0  0  0  0  0  0  0  0
    0.5850    0.2970    0.9030 C   0  0  1  0  0  0  0  0  0  0  0  0
    1.5560    1.0610   -0.0070 C   0  0  0  0  0  0  0  0  0  0  0  0
    0.9330    2.3510   -0.3890 C   0  0  0  0  0  0  0  0  0  0  0  0
    0.3510    2.7080   -1.5970 C   0  0  0  0  0  0  0  0  0  0  0  0
   -0.0870    3.9660   -1.5150 N   0  0  0  0  0  0  0  0  0  0  0  0
    0.1670    4.4910   -0.3080 C   0  0  0  0  0  0  0  0  0  0  0  0
   -0.0470    5.6960    0.3210 C   0  0  0  0  0  0  0  0  0  0  0  0
    0.3380    5.9570    1.6150 C   0  0  0  0  0  0  0  0  0  0  0  0
    0.9720    4.9630    2.3260 C   0  0  0  0  0  0  0  0  0  0  0  0
    1.1950    3.7420    1.7050 C   0  0  0  0  0  0  0  0  0  0  0  0
    0.8100    3.4810    0.4100 C   0  0  0  0  0  0  0  0  0  0  0  0
   -0.6660    0.0340    0.1610 C   0  0  0  0  0  0  0  0  0  0  0  0
   -1.3610    0.9810   -0.2890 O   0  0  0  0  0  0  0  0  0  0  0  0
    1.3850   -1.7010    0.5870 H   0  0  0  0  0  0  0  0  0  0  0  0
    0.4090    0.9590    1.7740 H   0  0  0  0  0  0  0  0  0  0  0  0
    2.5180    1.1940    0.5390 H   0  0  0  0  0  0  0  0  0  0  0  0
    1.7730    0.4820   -0.9180 H   0  0  0  0  0  0  0  0  0  0  0  0
    0.2980    2.0070   -2.4390 H   0  0  0  0  0  0  0  0  0  0  0  0
   -0.5660    4.4820   -2.2880 H   0  0  0  0  0  0  0  0  0  0  0  0
   -0.5420    6.4840   -0.2230 H   0  0  0  0  0  0  0  0  0  0  0  0
    0.1550    6.9260    2.0920 H   0  0  0  0  0  0  0  0  0  0  0  0
    1.2920    5.1200    3.3440 H   0  0  0  0  0  0  0  0  0  0  0  0
    1.6970    2.9290    2.2390 H   0  0  0  0  0  0  0  0  0  0  0  0
   -1.1630   -1.2740   -0.0940 N   0  0  0  0  0  0  0  0  0  0  0  0
   -2.3570   -1.5820   -0.8010 C   0  0  1  0  0  0  0  0  0  0  0  0
   -2.1750   -2.3690   -2.0550 C   0  0  0  0  0  0  0  0  0  0  0  0
   -1.5480   -3.6740   -1.8780 C   0  0  0  0  0  0  0  0  0  0  0  0
   -2.2600   -4.8210   -1.6390 C   0  0  0  0  0  0  0  0  0  0  0  0
   -1.6300   -6.0360   -1.4770 C   0  0  0  0  0  0  0  0  0  0  0  0
   -0.2400   -6.1220   -1.5540 C   0  0  0  0  0  0  0  0  0  0  0  0
    0.4790   -4.9690   -1.7940 C   0  0  0  0  0  0  0  0  0  0  0  0
   -0.1730   -3.7640   -1.9530 C   0  0  0  0  0  0  0  0  0  0  0  0
   -3.3560   -2.2160    0.0930 C   0  0  0  0  0  0  0  0  0  0  0  0
   -3.0670   -2.4060    1.2990 O   0  0  0  0  0  0  0  0  0  0  0  0
   -4.6070   -2.6110   -0.3490 O   0  0  0  0  0  0  0  0  0  0  0  0
   -0.5960   -2.0690    0.2740 H   0  0  0  0  0  0  0  0  0  0  0  0
   -2.8150   -0.5950   -1.1090 H   0  0  0  0  0  0  0  0  0  0  0  0
   -3.2080   -2.5540   -2.4640 H   0  0  0  0  0  0  0  0  0  0  0  0
   -1.6830   -1.7340   -2.8380 H   0  0  0  0  0  0  0  0  0  0  0  0
   -3.3440   -4.7150   -1.5850 H   0  0  0  0  0  0  0  0  0  0  0  0
   -2.2150   -6.9260   -1.2890 H   0  0  0  0  0  0  0  0  0  0  0  0
    0.2500   -7.0820   -1.4250 H   0  0  0  0  0  0  0  0  0  0  0  0
    1.5630   -5.0320   -1.8550 H   0  0  0  0  0  0  0  0  0  0  0  0
    0.4550   -2.8970   -2.1390 H   0  0  0  0  0  0  0  0  0  0  0  0
  1  6  1  0  0  0  0
  1  2  1  0  0  0  0
  1  7  1  0  0  0  0
  2  9  1  6  0  0  0
  2  3  1  0  0  0  0
  3 11  1  0  0  0  0
  3 10  1  0  0  0  0
  4  2  1  0  0  0  0
  4  5  2  0  0  0  0
  8  1  1  0  0  0  0
 12  4  1  0  0  0  0
 13 12  1  0  0  0  0
 13 27  1  1  0  0  0
 14 28  1  0  0  0  0
 14 13  1  0  0  0  0
 15 14  1  0  0  0  0
 15 23  1  0  0  0  0
 16 17  1  0  0  0  0
 16 15  2  0  0  0  0
 17 18  1  0  0  0  0
 18 19  2  0  0  0  0
 18 23  1  0  0  0  0
 19 20  1  0  0  0  0
 20 33  1  0  0  0  0
 20 21  2  0  0  0  0
 21 34  1  0  0  0  0
 22 35  1  0  0  0  0
 22 21  1  0  0  0  0
 23 22  2  0  0  0  0
 24 13  1  0  0  0  0
 25 24  2  0  0  0  0
 26 12  1  0  0  0  0
 29 14  1  0  0  0  0
 30 16  1  0  0  0  0
 31 17  1  0  0  0  0
 32 19  1  0  0  0  0
 36 24  1  0  0  0  0
 36 48  1  0  0  0  0
 37 49  1  6  0  0  0
 37 36  1  0  0  0  0
 37 45  1  0  0  0  0
 38 39  1  0  0  0  0
 38 37  1  0  0  0  0
 39 40  1  0  0  0  0
 40 52  1  0  0  0  0
 40 41  2  0  0  0  0
 41 53  1  0  0  0  0
 42 41  1  0  0  0  0
 42 54  1  0  0  0  0
 43 42  2  0  0  0  0
 44 39  2  0  0  0  0
 44 43  1  0  0  0  0
 45 46  1  0  0  0  0
 47 45  2  0  0  0  0
 50 38  1  0  0  0  0
 51 38  1  0  0  0  0
 55 43  1  0  0  0  0
 56 44  1  0  0  0  0
M  END
$$$$
