AWG.pdb
 OpenBabel07022418023D

 43 44  0  0  1  0  0  0  0  0999 V2000
    0.1410   -3.3560    3.0640 C   0  0  0  0  0  0  0  0  0  0  0  0
   -0.7980   -2.2280    3.4540 C   0  0  2  0  0  0  0  0  0  0  0  0
   -1.7940   -2.7950    4.3220 N   0  0  0  0  0  0  0  0  0  0  0  0
   -1.4090   -1.6750    2.2040 C   0  0  0  0  0  0  0  0  0  0  0  0
   -2.6570   -1.7350    1.9940 O   0  0  0  0  0  0  0  0  0  0  0  0
    0.6780   -3.7040    3.9590 H   0  0  0  0  0  0  0  0  0  0  0  0
   -0.4970   -4.1920    2.7100 H   0  0  0  0  0  0  0  0  0  0  0  0
    0.8130   -3.0290    2.2610 H   0  0  0  0  0  0  0  0  0  0  0  0
   -0.2850   -1.4020    3.9650 H   0  0  0  0  0  0  0  0  0  0  0  0
   -1.9220   -2.2840    5.2190 H   0  0  0  0  0  0  0  0  0  0  0  0
   -1.7590   -3.8170    4.4180 H   0  0  0  0  0  0  0  0  0  0  0  0
   -0.6340   -1.0550    1.1910 N   0  0  0  0  0  0  0  0  0  0  0  0
   -1.1920   -0.5130   -0.0220 C   0  0  1  0  0  0  0  0  0  0  0  0
   -1.1420    0.9830   -0.1300 C   0  0  0  0  0  0  0  0  0  0  0  0
    0.1660    1.6120   -0.0860 C   0  0  0  0  0  0  0  0  0  0  0  0
    0.8960    2.0440   -1.1640 C   0  0  0  0  0  0  0  0  0  0  0  0
    2.0530    2.5450   -0.7050 N   0  0  0  0  0  0  0  0  0  0  0  0
    2.0840    2.4480    0.6320 C   0  0  0  0  0  0  0  0  0  0  0  0
    3.0210    2.8100    1.5940 C   0  0  0  0  0  0  0  0  0  0  0  0
    2.7880    2.5960    2.9320 C   0  0  0  0  0  0  0  0  0  0  0  0
    1.6160    2.0150    3.3520 C   0  0  0  0  0  0  0  0  0  0  0  0
    0.7010    1.6610    2.4070 C   0  0  0  0  0  0  0  0  0  0  0  0
    0.9170    1.8690    1.0340 C   0  0  0  0  0  0  0  0  0  0  0  0
   -0.7240   -1.2170   -1.2290 C   0  0  0  0  0  0  0  0  0  0  0  0
   -1.1250   -0.8670   -2.3690 O   0  0  0  0  0  0  0  0  0  0  0  0
    0.4110   -1.0230    1.3960 H   0  0  0  0  0  0  0  0  0  0  0  0
   -2.3040   -0.7410    0.0390 H   0  0  0  0  0  0  0  0  0  0  0  0
   -1.6670    1.3390   -1.0520 H   0  0  0  0  0  0  0  0  0  0  0  0
   -1.8150    1.3600    0.7010 H   0  0  0  0  0  0  0  0  0  0  0  0
    0.6260    2.0080   -2.2340 H   0  0  0  0  0  0  0  0  0  0  0  0
    2.8360    2.9580   -1.2780 H   0  0  0  0  0  0  0  0  0  0  0  0
    3.9290    3.2620    1.2440 H   0  0  0  0  0  0  0  0  0  0  0  0
    3.5090    2.8740    3.6990 H   0  0  0  0  0  0  0  0  0  0  0  0
    1.4410    1.8500    4.4120 H   0  0  0  0  0  0  0  0  0  0  0  0
   -0.2310    1.2080    2.7200 H   0  0  0  0  0  0  0  0  0  0  0  0
    0.1970   -2.3210   -1.2110 N   0  0  0  0  0  0  0  0  0  0  0  0
    0.6270   -2.9790   -2.4170 C   0  0  0  0  0  0  0  0  0  0  0  0
    1.3150   -2.0520   -3.3470 C   0  0  0  0  0  0  0  0  0  0  0  0
    1.7360   -2.5170   -4.4370 O   0  0  0  0  0  0  0  0  0  0  0  0
    1.5300   -0.7140   -3.1100 O   0  0  0  0  0  0  0  0  0  0  0  0
    0.5420   -2.6270   -0.2760 H   0  0  0  0  0  0  0  0  0  0  0  0
   -0.2440   -3.4000   -2.9910 H   0  0  0  0  0  0  0  0  0  0  0  0
    1.3270   -3.7890   -2.1320 H   0  0  0  0  0  0  0  0  0  0  0  0
  1  2  1  0  0  0  0
  1  6  1  0  0  0  0
  2  9  1  1  0  0  0
  2  3  1  0  0  0  0
  3 11  1  0  0  0  0
  3 10  1  0  0  0  0
  4  2  1  0  0  0  0
  5  4  2  0  0  0  0
  7  1  1  0  0  0  0
  8  1  1  0  0  0  0
 12 26  1  0  0  0  0
 12  4  1  0  0  0  0
 13 27  1  1  0  0  0
 13 12  1  0  0  0  0
 14 15  1  0  0  0  0
 14 13  1  0  0  0  0
 14 29  1  0  0  0  0
 15 23  1  0  0  0  0
 16 17  1  0  0  0  0
 16 15  2  0  0  0  0
 17 18  1  0  0  0  0
 18 23  2  0  0  0  0
 18 19  1  0  0  0  0
 19 20  2  0  0  0  0
 20 21  1  0  0  0  0
 20 33  1  0  0  0  0
 21 34  1  0  0  0  0
 22 35  1  0  0  0  0
 22 21  2  0  0  0  0
 23 22  1  0  0  0  0
 24 36  1  0  0  0  0
 24 13  1  0  0  0  0
 25 24  2  0  0  0  0
 28 14  1  0  0  0  0
 30 16  1  0  0  0  0
 31 17  1  0  0  0  0
 32 19  1  0  0  0  0
 36 41  1  0  0  0  0
 37 43  1  0  0  0  0
 37 36  1  0  0  0  0
 38 40  1  0  0  0  0
 38 37  1  0  0  0  0
 39 38  2  0  0  0  0
 42 37  1  0  0  0  0
M  END
$$$$
