AWI.pdb
 OpenBabel07022418033D

 55 56  0  0  1  0  0  0  0  0999 V2000
   -1.3210    2.2560    1.0130 C   0  0  0  0  0  0  0  0  0  0  0  0
   -1.8270    0.9340    0.5620 C   0  0  2  0  0  0  0  0  0  0  0  0
   -3.0400    0.5840    1.2850 N   0  0  0  0  0  0  0  0  0  0  0  0
   -0.8120   -0.1290    0.6770 C   0  0  0  0  0  0  0  0  0  0  0  0
   -1.0500   -1.1900    1.3150 O   0  0  0  0  0  0  0  0  0  0  0  0
   -0.3190    2.4440    0.5940 H   0  0  0  0  0  0  0  0  0  0  0  0
   -1.3040    2.3010    2.1350 H   0  0  0  0  0  0  0  0  0  0  0  0
   -2.0310    3.0360    0.6330 H   0  0  0  0  0  0  0  0  0  0  0  0
   -2.1430    1.0220   -0.5060 H   0  0  0  0  0  0  0  0  0  0  0  0
   -2.8580   -0.0820    2.0680 H   0  0  0  0  0  0  0  0  0  0  0  0
   -3.4420    1.4710    1.6470 H   0  0  0  0  0  0  0  0  0  0  0  0
    0.4700    0.0250    0.0610 N   0  0  0  0  0  0  0  0  0  0  0  0
    1.4560   -0.9810    0.1320 C   0  0  1  0  0  0  0  0  0  0  0  0
    2.2680   -1.1190    1.3590 C   0  0  0  0  0  0  0  0  0  0  0  0
    3.0440    0.1030    1.6260 C   0  0  0  0  0  0  0  0  0  0  0  0
    4.3720    0.2990    1.2660 C   0  0  0  0  0  0  0  0  0  0  0  0
    4.7660    1.5270    1.6290 N   0  0  0  0  0  0  0  0  0  0  0  0
    3.7260    2.1290    2.2150 C   0  0  0  0  0  0  0  0  0  0  0  0
    3.6500    3.3990    2.7600 C   0  0  0  0  0  0  0  0  0  0  0  0
    2.4830    3.8430    3.3360 C   0  0  0  0  0  0  0  0  0  0  0  0
    1.4200    2.9820    3.3430 C   0  0  0  0  0  0  0  0  0  0  0  0
    1.4640    1.7120    2.8080 C   0  0  0  0  0  0  0  0  0  0  0  0
    2.6350    1.2590    2.2260 C   0  0  0  0  0  0  0  0  0  0  0  0
    0.9910   -2.2850   -0.4510 C   0  0  0  0  0  0  0  0  0  0  0  0
    1.6750   -3.3340   -0.3230 O   0  0  0  0  0  0  0  0  0  0  0  0
    0.5990    0.9550   -0.4430 H   0  0  0  0  0  0  0  0  0  0  0  0
    2.2290   -0.6640   -0.6900 H   0  0  0  0  0  0  0  0  0  0  0  0
    2.9000   -2.0350    1.3740 H   0  0  0  0  0  0  0  0  0  0  0  0
    1.5430   -1.2910    2.2120 H   0  0  0  0  0  0  0  0  0  0  0  0
    4.9630   -0.4570    0.7680 H   0  0  0  0  0  0  0  0  0  0  0  0
    5.7010    1.9320    1.4830 H   0  0  0  0  0  0  0  0  0  0  0  0
    4.5190    4.0630    2.7380 H   0  0  0  0  0  0  0  0  0  0  0  0
    2.4560    4.8490    3.7560 H   0  0  0  0  0  0  0  0  0  0  0  0
    0.4990    3.3450    3.8030 H   0  0  0  0  0  0  0  0  0  0  0  0
    0.6170    1.0430    2.8310 H   0  0  0  0  0  0  0  0  0  0  0  0
   -4.3990   -3.1740   -0.7650 C   0  0  0  0  0  0  0  0  0  0  0  0
   -3.0430   -2.8020   -1.3540 C   0  0  0  0  0  0  0  0  0  0  0  0
   -2.0430   -3.9190   -1.1000 C   0  0  2  0  0  0  0  0  0  0  0  0
   -1.8540   -4.1780    0.3580 C   0  0  0  0  0  0  0  0  0  0  0  0
   -0.7140   -3.6100   -1.7410 C   0  0  2  0  0  0  0  0  0  0  0  0
   -0.2210   -2.3690   -1.1610 N   0  0  0  0  0  0  0  0  0  0  0  0
   -0.9440   -3.4830   -3.1930 C   0  0  0  0  0  0  0  0  0  0  0  0
   -0.7110   -2.3960   -3.7560 O   0  0  0  0  0  0  0  0  0  0  0  0
   -1.4120   -4.5450   -3.9300 O   0  0  0  0  0  0  0  0  0  0  0  0
   -4.7880   -4.0760   -1.2700 H   0  0  0  0  0  0  0  0  0  0  0  0
   -4.3930   -3.2230    0.3270 H   0  0  0  0  0  0  0  0  0  0  0  0
   -5.0890   -2.3430   -1.0470 H   0  0  0  0  0  0  0  0  0  0  0  0
   -3.1800   -2.6040   -2.4170 H   0  0  0  0  0  0  0  0  0  0  0  0
   -2.7550   -1.8650   -0.8530 H   0  0  0  0  0  0  0  0  0  0  0  0
   -2.5020   -4.8180   -1.6080 H   0  0  0  0  0  0  0  0  0  0  0  0
   -2.4860   -3.5140    0.9870 H   0  0  0  0  0  0  0  0  0  0  0  0
   -0.7830   -4.0940    0.6170 H   0  0  0  0  0  0  0  0  0  0  0  0
   -2.1930   -5.2160    0.5800 H   0  0  0  0  0  0  0  0  0  0  0  0
    0.0200   -4.4250   -1.5090 H   0  0  0  0  0  0  0  0  0  0  0  0
   -0.8180   -1.5260   -1.3200 H   0  0  0  0  0  0  0  0  0  0  0  0
  1  7  1  0  0  0  0
  2  9  1  6  0  0  0
  2  4  1  0  0  0  0
  2  1  1  0  0  0  0
  2  3  1  0  0  0  0
  3 11  1  0  0  0  0
  3 10  1  0  0  0  0
  4  5  2  0  0  0  0
  6  1  1  0  0  0  0
  8  1  1  0  0  0  0
 12 13  1  0  0  0  0
 12  4  1  0  0  0  0
 13 27  1  6  0  0  0
 13 14  1  0  0  0  0
 14 28  1  0  0  0  0
 14 15  1  0  0  0  0
 14 29  1  0  0  0  0
 15 23  1  0  0  0  0
 16 15  2  0  0  0  0
 16 17  1  0  0  0  0
 17 18  1  0  0  0  0
 18 23  2  0  0  0  0
 18 19  1  0  0  0  0
 19 20  2  0  0  0  0
 20 21  1  0  0  0  0
 20 33  1  0  0  0  0
 21 34  1  0  0  0  0
 22 35  1  0  0  0  0
 22 21  2  0  0  0  0
 23 22  1  0  0  0  0
 24 25  2  0  0  0  0
 24 13  1  0  0  0  0
 26 12  1  0  0  0  0
 30 16  1  0  0  0  0
 31 17  1  0  0  0  0
 32 19  1  0  0  0  0
 36 46  1  0  0  0  0
 37 38  1  0  0  0  0
 37 49  1  0  0  0  0
 37 36  1  0  0  0  0
 38 50  1  6  0  0  0
 38 39  1  0  0  0  0
 39 53  1  0  0  0  0
 39 52  1  0  0  0  0
 39 51  1  0  0  0  0
 40 54  1  1  0  0  0
 40 41  1  0  0  0  0
 40 38  1  0  0  0  0
 41 24  1  0  0  0  0
 42 40  1  0  0  0  0
 43 42  1  0  0  0  0
 44 42  2  0  0  0  0
 45 36  1  0  0  0  0
 47 36  1  0  0  0  0
 48 37  1  0  0  0  0
 55 41  1  0  0  0  0
M  END
$$$$
