AWL.pdb
 OpenBabel07022418033D

 55 56  0  0  1  0  0  0  0  0999 V2000
    1.1950   -1.2820    4.8350 C   0  0  0  0  0  0  0  0  0  0  0  0
    0.5680    0.0790    4.6850 C   0  0  2  0  0  0  0  0  0  0  0  0
   -0.3100    0.2990    5.8110 N   0  0  0  0  0  0  0  0  0  0  0  0
   -0.2650    0.1030    3.4470 C   0  0  0  0  0  0  0  0  0  0  0  0
   -1.5170    0.3170    3.4770 O   0  0  0  0  0  0  0  0  0  0  0  0
    1.2590   -1.6170    5.8810 H   0  0  0  0  0  0  0  0  0  0  0  0
    2.2390   -1.2640    4.4500 H   0  0  0  0  0  0  0  0  0  0  0  0
    0.6670   -2.0540    4.2440 H   0  0  0  0  0  0  0  0  0  0  0  0
    1.3820    0.8330    4.6350 H   0  0  0  0  0  0  0  0  0  0  0  0
   -1.3010    0.2350    5.5260 H   0  0  0  0  0  0  0  0  0  0  0  0
   -0.0530    1.1320    6.3500 H   0  0  0  0  0  0  0  0  0  0  0  0
    0.3000   -0.1140    2.1490 N   0  0  0  0  0  0  0  0  0  0  0  0
   -0.4740   -0.0960    0.9330 C   0  0  1  0  0  0  0  0  0  0  0  0
   -0.1240    1.0840    0.0770 C   0  0  0  0  0  0  0  0  0  0  0  0
    1.2790    1.1750   -0.3420 C   0  0  0  0  0  0  0  0  0  0  0  0
    1.8390    0.7560   -1.5430 C   0  0  0  0  0  0  0  0  0  0  0  0
    3.1700    0.9880   -1.5410 N   0  0  0  0  0  0  0  0  0  0  0  0
    3.5010    1.5470   -0.3750 C   0  0  0  0  0  0  0  0  0  0  0  0
    4.6970    1.9820    0.1280 C   0  0  0  0  0  0  0  0  0  0  0  0
    4.8220    2.5600    1.3920 C   0  0  0  0  0  0  0  0  0  0  0  0
    3.6690    2.6840    2.1410 C   0  0  0  0  0  0  0  0  0  0  0  0
    2.4560    2.2510    1.6510 C   0  0  0  0  0  0  0  0  0  0  0  0
    2.3600    1.6780    0.3880 C   0  0  0  0  0  0  0  0  0  0  0  0
   -0.3740   -1.3930    0.2520 C   0  0  0  0  0  0  0  0  0  0  0  0
    0.3590   -2.2880    0.7290 O   0  0  0  0  0  0  0  0  0  0  0  0
    1.3380   -0.3060    2.1190 H   0  0  0  0  0  0  0  0  0  0  0  0
   -1.5580    0.0010    1.2800 H   0  0  0  0  0  0  0  0  0  0  0  0
   -0.7440    1.1570   -0.8380 H   0  0  0  0  0  0  0  0  0  0  0  0
   -0.4160    1.9950    0.6800 H   0  0  0  0  0  0  0  0  0  0  0  0
    1.3440    0.3090   -2.3850 H   0  0  0  0  0  0  0  0  0  0  0  0
    3.8510    0.7790   -2.3020 H   0  0  0  0  0  0  0  0  0  0  0  0
    5.5900    1.8750   -0.4770 H   0  0  0  0  0  0  0  0  0  0  0  0
    5.7930    2.8860    1.7390 H   0  0  0  0  0  0  0  0  0  0  0  0
    3.7080    3.1250    3.1280 H   0  0  0  0  0  0  0  0  0  0  0  0
    1.5420    2.3590    2.2550 H   0  0  0  0  0  0  0  0  0  0  0  0
   -4.7180   -4.1860   -1.8540 C   0  0  0  0  0  0  0  0  0  0  0  0
   -3.6060   -3.1350   -2.0320 C   0  0  0  0  0  0  0  0  0  0  0  0
   -4.0770   -1.8790   -1.4060 C   0  0  0  0  0  0  0  0  0  0  0  0
   -2.3180   -3.6760   -1.5960 C   0  0  0  0  0  0  0  0  0  0  0  0
   -1.0960   -2.8320   -1.6840 C   0  0  2  0  0  0  0  0  0  0  0  0
   -1.1110   -1.6150   -0.9370 N   0  0  0  0  0  0  0  0  0  0  0  0
   -0.6520   -2.6450   -3.0890 C   0  0  0  0  0  0  0  0  0  0  0  0
   -0.3400   -1.5140   -3.5350 O   0  0  0  0  0  0  0  0  0  0  0  0
   -0.5690   -3.7240   -3.9530 O   0  0  0  0  0  0  0  0  0  0  0  0
   -4.4320   -5.1300   -2.3530 H   0  0  0  0  0  0  0  0  0  0  0  0
   -4.9350   -4.3250   -0.7750 H   0  0  0  0  0  0  0  0  0  0  0  0
   -5.6220   -3.7530   -2.3280 H   0  0  0  0  0  0  0  0  0  0  0  0
   -3.5850   -2.9620   -3.1500 H   0  0  0  0  0  0  0  0  0  0  0  0
   -3.7030   -1.7230   -0.3500 H   0  0  0  0  0  0  0  0  0  0  0  0
   -3.9410   -0.9760   -2.0400 H   0  0  0  0  0  0  0  0  0  0  0  0
   -5.1860   -1.9410   -1.2780 H   0  0  0  0  0  0  0  0  0  0  0  0
   -2.0940   -4.6240   -2.1450 H   0  0  0  0  0  0  0  0  0  0  0  0
   -2.4290   -4.0190   -0.5230 H   0  0  0  0  0  0  0  0  0  0  0  0
   -0.2800   -3.4610   -1.1990 H   0  0  0  0  0  0  0  0  0  0  0  0
   -1.6930   -0.8220   -1.2720 H   0  0  0  0  0  0  0  0  0  0  0  0
  1  6  1  0  0  0  0
  2  9  1  6  0  0  0
  2  1  1  0  0  0  0
  2  3  1  0  0  0  0
  3 11  1  0  0  0  0
  4  5  2  0  0  0  0
  4  2  1  0  0  0  0
  7  1  1  0  0  0  0
  8  1  1  0  0  0  0
 10  3  1  0  0  0  0
 12  4  1  0  0  0  0
 13 27  1  1  0  0  0
 13 12  1  0  0  0  0
 14 29  1  0  0  0  0
 14 13  1  0  0  0  0
 15 14  1  0  0  0  0
 15 23  1  0  0  0  0
 16 17  1  0  0  0  0
 16 15  2  0  0  0  0
 17 18  1  0  0  0  0
 18 19  2  0  0  0  0
 18 23  1  0  0  0  0
 19 20  1  0  0  0  0
 20 33  1  0  0  0  0
 20 21  2  0  0  0  0
 21 34  1  0  0  0  0
 22 21  1  0  0  0  0
 22 35  1  0  0  0  0
 23 22  2  0  0  0  0
 24 25  2  0  0  0  0
 24 13  1  0  0  0  0
 26 12  1  0  0  0  0
 28 14  1  0  0  0  0
 30 16  1  0  0  0  0
 31 17  1  0  0  0  0
 32 19  1  0  0  0  0
 36 46  1  0  0  0  0
 37 36  1  0  0  0  0
 37 39  1  0  0  0  0
 37 38  1  0  0  0  0
 38 51  1  0  0  0  0
 38 49  1  0  0  0  0
 39 53  1  0  0  0  0
 40 39  1  0  0  0  0
 40 54  1  1  0  0  0
 40 41  1  0  0  0  0
 41 24  1  0  0  0  0
 42 40  1  0  0  0  0
 43 42  1  0  0  0  0
 44 42  2  0  0  0  0
 45 36  1  0  0  0  0
 47 36  1  0  0  0  0
 48 37  1  0  0  0  0
 50 38  1  0  0  0  0
 52 39  1  0  0  0  0
 55 41  1  0  0  0  0
M  END
$$$$
