AWN.pdb
 OpenBabel07022418023D

 50 51  0  0  1  0  0  0  0  0999 V2000
   -0.3950   -0.3060    5.2010 C   0  0  0  0  0  0  0  0  0  0  0  0
    0.1460    0.8220    4.3250 C   0  0  2  0  0  0  0  0  0  0  0  0
   -0.5480    2.0330    4.7080 N   0  0  0  0  0  0  0  0  0  0  0  0
   -0.0850    0.5290    2.8870 C   0  0  0  0  0  0  0  0  0  0  0  0
   -0.8020    1.3140    2.2150 O   0  0  0  0  0  0  0  0  0  0  0  0
    0.1430   -0.3770    6.1480 H   0  0  0  0  0  0  0  0  0  0  0  0
   -0.4160   -1.2660    4.6340 H   0  0  0  0  0  0  0  0  0  0  0  0
   -1.4560   -0.0610    5.4160 H   0  0  0  0  0  0  0  0  0  0  0  0
    1.2390    0.9590    4.5400 H   0  0  0  0  0  0  0  0  0  0  0  0
   -1.2320    2.3220    3.9730 H   0  0  0  0  0  0  0  0  0  0  0  0
   -1.0920    1.9040    5.5890 H   0  0  0  0  0  0  0  0  0  0  0  0
    0.4590   -0.5890    2.2270 N   0  0  0  0  0  0  0  0  0  0  0  0
    0.2560   -0.9030    0.8400 C   0  0  1  0  0  0  0  0  0  0  0  0
    1.5260   -1.0110    0.0470 C   0  0  0  0  0  0  0  0  0  0  0  0
    2.3050    0.2520    0.0660 C   0  0  0  0  0  0  0  0  0  0  0  0
    3.4440    0.5500    0.7690 C   0  0  0  0  0  0  0  0  0  0  0  0
    3.8060    1.8110    0.4820 N   0  0  0  0  0  0  0  0  0  0  0  0
    2.9280    2.3510   -0.3980 C   0  0  0  0  0  0  0  0  0  0  0  0
    2.8600    3.6140   -1.0000 C   0  0  0  0  0  0  0  0  0  0  0  0
    1.8350    3.8970   -1.8740 C   0  0  0  0  0  0  0  0  0  0  0  0
    0.8900    2.9290   -2.1410 C   0  0  0  0  0  0  0  0  0  0  0  0
    0.9610    1.6900   -1.5470 C   0  0  0  0  0  0  0  0  0  0  0  0
    1.9870    1.3810   -0.6610 C   0  0  0  0  0  0  0  0  0  0  0  0
   -0.4680   -2.2050    0.7120 C   0  0  0  0  0  0  0  0  0  0  0  0
   -0.7940   -2.8190    1.7680 O   0  0  0  0  0  0  0  0  0  0  0  0
    1.0510   -1.2380    2.7850 H   0  0  0  0  0  0  0  0  0  0  0  0
   -0.3880   -0.1610    0.3210 H   0  0  0  0  0  0  0  0  0  0  0  0
    1.2380   -1.2160   -1.0050 H   0  0  0  0  0  0  0  0  0  0  0  0
    2.1590   -1.8060    0.4930 H   0  0  0  0  0  0  0  0  0  0  0  0
    3.9470   -0.1550    1.4460 H   0  0  0  0  0  0  0  0  0  0  0  0
    4.6480    2.3030    0.8820 H   0  0  0  0  0  0  0  0  0  0  0  0
    3.6220    4.3420   -0.7620 H   0  0  0  0  0  0  0  0  0  0  0  0
    1.7610    4.8830   -2.3600 H   0  0  0  0  0  0  0  0  0  0  0  0
    0.0870    3.1750   -2.8350 H   0  0  0  0  0  0  0  0  0  0  0  0
    0.2290    0.9070   -1.7380 H   0  0  0  0  0  0  0  0  0  0  0  0
   -3.4920   -2.1830    0.3040 N   0  0  0  0  0  0  0  0  0  0  0  0
   -3.7150   -2.9500   -0.8530 C   0  0  0  0  0  0  0  0  0  0  0  0
   -4.8170   -2.7820   -1.4410 O   0  0  0  0  0  0  0  0  0  0  0  0
   -2.7700   -3.9320   -1.4340 C   0  0  0  0  0  0  0  0  0  0  0  0
   -1.5030   -4.0340   -0.6120 C   0  0  2  0  0  0  0  0  0  0  0  0
   -0.8000   -2.7730   -0.5260 N   0  0  0  0  0  0  0  0  0  0  0  0
   -0.6240   -5.0690   -1.2290 C   0  0  0  0  0  0  0  0  0  0  0  0
    0.5320   -4.7540   -1.5780 O   0  0  0  0  0  0  0  0  0  0  0  0
   -1.0570   -6.3620   -1.4230 O   0  0  0  0  0  0  0  0  0  0  0  0
   -3.6070   -2.5270    1.2840 H   0  0  0  0  0  0  0  0  0  0  0  0
   -3.1840   -1.1790    0.1780 H   0  0  0  0  0  0  0  0  0  0  0  0
   -2.5650   -3.7610   -2.5000 H   0  0  0  0  0  0  0  0  0  0  0  0
   -3.2960   -4.9220   -1.3800 H   0  0  0  0  0  0  0  0  0  0  0  0
   -1.7550   -4.3430    0.4320 H   0  0  0  0  0  0  0  0  0  0  0  0
   -0.5320   -2.2700   -1.4180 H   0  0  0  0  0  0  0  0  0  0  0  0
  1  8  1  0  0  0  0
  1  6  1  0  0  0  0
  2  9  1  1  0  0  0
  2  3  1  0  0  0  0
  2  1  1  0  0  0  0
  3 11  1  0  0  0  0
  4  2  1  0  0  0  0
  5  4  2  0  0  0  0
  7  1  1  0  0  0  0
 10  3  1  0  0  0  0
 12 26  1  0  0  0  0
 12  4  1  0  0  0  0
 13 27  1  6  0  0  0
 13 12  1  0  0  0  0
 14 15  1  0  0  0  0
 14 29  1  0  0  0  0
 14 13  1  0  0  0  0
 15 16  2  0  0  0  0
 16 30  1  0  0  0  0
 17 16  1  0  0  0  0
 17 31  1  0  0  0  0
 18 17  1  0  0  0  0
 19 32  1  0  0  0  0
 19 18  2  0  0  0  0
 20 19  1  0  0  0  0
 21 20  2  0  0  0  0
 21 22  1  0  0  0  0
 22 23  2  0  0  0  0
 23 18  1  0  0  0  0
 23 15  1  0  0  0  0
 24 13  1  0  0  0  0
 24 25  2  0  0  0  0
 28 14  1  0  0  0  0
 33 20  1  0  0  0  0
 34 21  1  0  0  0  0
 35 22  1  0  0  0  0
 36 45  1  0  0  0  0
 37 36  1  0  0  0  0
 38 37  2  0  0  0  0
 39 48  1  0  0  0  0
 39 37  1  0  0  0  0
 39 40  1  0  0  0  0
 40 41  1  0  0  0  0
 40 49  1  1  0  0  0
 41 24  1  0  0  0  0
 42 40  1  0  0  0  0
 43 42  2  0  0  0  0
 44 42  1  0  0  0  0
 46 36  1  0  0  0  0
 47 39  1  0  0  0  0
 50 41  1  0  0  0  0
M  END
$$$$
