AWR.pdb
 OpenBabel07022418023D

 59 60  0  0  1  0  0  0  0  0999 V2000
   -2.9840    0.5630    4.3630 C   0  0  0  0  0  0  0  0  0  0  0  0
   -2.7390   -0.2040    3.0990 C   0  0  2  0  0  0  0  0  0  0  0  0
   -2.2360   -1.5550    3.3720 N   0  0  0  0  0  0  0  0  0  0  0  0
   -1.7760    0.5200    2.2090 C   0  0  0  0  0  0  0  0  0  0  0  0
   -2.0200    1.6990    1.8530 O   0  0  0  0  0  0  0  0  0  0  0  0
   -2.7020   -0.0920    5.2250 H   0  0  0  0  0  0  0  0  0  0  0  0
   -2.4400    1.5330    4.3880 H   0  0  0  0  0  0  0  0  0  0  0  0
   -4.0660    0.8140    4.5040 H   0  0  0  0  0  0  0  0  0  0  0  0
   -3.7140   -0.3370    2.5870 H   0  0  0  0  0  0  0  0  0  0  0  0
   -2.1220   -2.0180    2.4420 H   0  0  0  0  0  0  0  0  0  0  0  0
   -3.0020   -2.0620    3.8710 H   0  0  0  0  0  0  0  0  0  0  0  0
   -0.5750   -0.0780    1.7400 N   0  0  0  0  0  0  0  0  0  0  0  0
    0.3730    0.5810    0.8880 C   0  0  1  0  0  0  0  0  0  0  0  0
    1.7150    0.7670    1.5170 C   0  0  0  0  0  0  0  0  0  0  0  0
    2.6620    1.4480    0.6080 C   0  0  0  0  0  0  0  0  0  0  0  0
    3.7110    0.9120   -0.1150 C   0  0  0  0  0  0  0  0  0  0  0  0
    4.3370    1.8970   -0.8300 N   0  0  0  0  0  0  0  0  0  0  0  0
    3.7140    3.0520   -0.5830 C   0  0  0  0  0  0  0  0  0  0  0  0
    3.9370    4.3260   -1.0380 C   0  0  0  0  0  0  0  0  0  0  0  0
    3.1420    5.3970   -0.6360 C   0  0  0  0  0  0  0  0  0  0  0  0
    2.1080    5.1630    0.2430 C   0  0  0  0  0  0  0  0  0  0  0  0
    1.8900    3.8700    0.6980 C   0  0  0  0  0  0  0  0  0  0  0  0
    2.6810    2.7960    0.2990 C   0  0  0  0  0  0  0  0  0  0  0  0
    0.5020   -0.0450   -0.4360 C   0  0  0  0  0  0  0  0  0  0  0  0
    1.2880    0.4000   -1.3090 O   0  0  0  0  0  0  0  0  0  0  0  0
   -0.3640   -1.0670    2.0340 H   0  0  0  0  0  0  0  0  0  0  0  0
   -0.0500    1.6140    0.7060 H   0  0  0  0  0  0  0  0  0  0  0  0
    1.6190    1.3330    2.4760 H   0  0  0  0  0  0  0  0  0  0  0  0
    2.1520   -0.2260    1.8260 H   0  0  0  0  0  0  0  0  0  0  0  0
    3.9910   -0.1290   -0.1130 H   0  0  0  0  0  0  0  0  0  0  0  0
    5.1640    1.6880   -1.4460 H   0  0  0  0  0  0  0  0  0  0  0  0
    4.7440    4.5300   -1.7270 H   0  0  0  0  0  0  0  0  0  0  0  0
    3.3050    6.4070   -0.9850 H   0  0  0  0  0  0  0  0  0  0  0  0
    1.4680    5.9670    0.5800 H   0  0  0  0  0  0  0  0  0  0  0  0
    1.0940    3.6670    1.3790 H   0  0  0  0  0  0  0  0  0  0  0  0
   -3.0820   -5.8490    1.8030 N   0  0  0  0  0  0  0  0  0  0  0  0
   -1.7900   -5.6940    1.2140 C   0  0  0  0  0  0  0  0  0  0  0  0
   -0.8090   -5.2200    1.8970 N   0  0  0  0  0  0  0  0  0  0  0  0
   -1.6260   -6.0770   -0.1450 N   0  0  0  0  0  0  0  0  0  0  0  0
   -0.5530   -5.4470   -0.9070 C   0  0  0  0  0  0  0  0  0  0  0  0
   -0.8930   -3.9710   -1.1050 C   0  0  0  0  0  0  0  0  0  0  0  0
    0.1900   -3.2830   -1.8920 C   0  0  0  0  0  0  0  0  0  0  0  0
   -0.1490   -1.8240   -2.0960 C   0  0  2  0  0  0  0  0  0  0  0  0
   -0.2680   -1.2020   -0.8030 N   0  0  0  0  0  0  0  0  0  0  0  0
   -1.4810   -1.8200   -2.7980 C   0  0  0  0  0  0  0  0  0  0  0  0
   -2.4810   -1.3160   -2.2250 O   0  0  0  0  0  0  0  0  0  0  0  0
   -1.6180   -2.3560   -4.0500 O   0  0  0  0  0  0  0  0  0  0  0  0
   -3.7430   -5.0380    1.8540 H   0  0  0  0  0  0  0  0  0  0  0  0
   -3.4010   -6.7510    2.1900 H   0  0  0  0  0  0  0  0  0  0  0  0
   -0.9380   -4.9420    2.8900 H   0  0  0  0  0  0  0  0  0  0  0  0
   -2.2400   -6.7830   -0.6040 H   0  0  0  0  0  0  0  0  0  0  0  0
   -0.4820   -5.9350   -1.8910 H   0  0  0  0  0  0  0  0  0  0  0  0
    0.3910   -5.5910   -0.3590 H   0  0  0  0  0  0  0  0  0  0  0  0
   -1.8330   -3.9450   -1.7130 H   0  0  0  0  0  0  0  0  0  0  0  0
   -1.0390   -3.5510   -0.1100 H   0  0  0  0  0  0  0  0  0  0  0  0
    0.4490   -3.7970   -2.8170 H   0  0  0  0  0  0  0  0  0  0  0  0
    1.1160   -3.3330   -1.2460 H   0  0  0  0  0  0  0  0  0  0  0  0
    0.5860   -1.3100   -2.7410 H   0  0  0  0  0  0  0  0  0  0  0  0
   -0.9110   -1.5430   -0.0590 H   0  0  0  0  0  0  0  0  0  0  0  0
  1  7  1  0  0  0  0
  1  8  1  0  0  0  0
  1  6  1  0  0  0  0
  2  9  1  6  0  0  0
  2  3  1  0  0  0  0
  2  1  1  0  0  0  0
  3 11  1  0  0  0  0
  4  2  1  0  0  0  0
  5  4  2  0  0  0  0
 10  3  1  0  0  0  0
 12 26  1  0  0  0  0
 12  4  1  0  0  0  0
 13 27  1  6  0  0  0
 13 14  1  0  0  0  0
 13 12  1  0  0  0  0
 14 29  1  0  0  0  0
 14 28  1  0  0  0  0
 15 14  1  0  0  0  0
 16 30  1  0  0  0  0
 16 15  2  0  0  0  0
 17 18  1  0  0  0  0
 17 16  1  0  0  0  0
 18 23  1  0  0  0  0
 19 20  1  0  0  0  0
 19 18  2  0  0  0  0
 20 21  2  0  0  0  0
 21 34  1  0  0  0  0
 21 22  1  0  0  0  0
 22 35  1  0  0  0  0
 23 15  1  0  0  0  0
 23 22  2  0  0  0  0
 24 13  1  0  0  0  0
 25 24  2  0  0  0  0
 31 17  1  0  0  0  0
 32 19  1  0  0  0  0
 33 20  1  0  0  0  0
 36 48  1  0  0  0  0
 36 49  1  0  0  0  0
 37 36  1  0  0  0  0
 37 38  2  0  0  0  0
 38 50  1  0  0  0  0
 39 37  1  0  0  0  0
 40 53  1  0  0  0  0
 40 39  1  0  0  0  0
 41 40  1  0  0  0  0
 41 55  1  0  0  0  0
 42 57  1  0  0  0  0
 42 41  1  0  0  0  0
 43 58  1  6  0  0  0
 43 42  1  0  0  0  0
 43 44  1  0  0  0  0
 44 24  1  0  0  0  0
 44 59  1  0  0  0  0
 45 46  1  0  0  0  0
 45 43  1  0  0  0  0
 47 45  2  0  0  0  0
 51 39  1  0  0  0  0
 52 40  1  0  0  0  0
 54 41  1  0  0  0  0
 56 42  1  0  0  0  0
M  END
$$$$
