AWS.pdb
 OpenBabel07022418033D

 47 48  0  0  1  0  0  0  0  0999 V2000
   -2.5780   -3.8640    2.3500 C   0  0  0  0  0  0  0  0  0  0  0  0
   -1.1030   -4.1870    2.3600 C   0  0  2  0  0  0  0  0  0  0  0  0
   -0.7280   -4.7450    3.6450 N   0  0  0  0  0  0  0  0  0  0  0  0
   -0.2750   -2.9920    2.0880 C   0  0  0  0  0  0  0  0  0  0  0  0
    0.6050   -2.5570    2.8740 O   0  0  0  0  0  0  0  0  0  0  0  0
   -2.8990   -3.6710    3.4020 H   0  0  0  0  0  0  0  0  0  0  0  0
   -3.1630   -4.7100    1.9330 H   0  0  0  0  0  0  0  0  0  0  0  0
   -2.7560   -2.9630    1.7300 H   0  0  0  0  0  0  0  0  0  0  0  0
   -0.9540   -4.9920    1.5850 H   0  0  0  0  0  0  0  0  0  0  0  0
    0.0040   -5.4860    3.5490 H   0  0  0  0  0  0  0  0  0  0  0  0
   -0.3740   -4.0130    4.3040 H   0  0  0  0  0  0  0  0  0  0  0  0
   -0.4610   -2.2690    0.8720 N   0  0  0  0  0  0  0  0  0  0  0  0
    0.3140   -1.1080    0.5610 C   0  0  1  0  0  0  0  0  0  0  0  0
    1.1960   -1.2990   -0.6560 C   0  0  0  0  0  0  0  0  0  0  0  0
    1.9860   -0.0740   -0.9530 C   0  0  0  0  0  0  0  0  0  0  0  0
    1.7630    0.8640   -1.9530 C   0  0  0  0  0  0  0  0  0  0  0  0
    2.7000    1.8280   -1.8900 N   0  0  0  0  0  0  0  0  0  0  0  0
    3.5510    1.5630   -0.8720 C   0  0  0  0  0  0  0  0  0  0  0  0
    4.6690    2.2170   -0.3800 C   0  0  0  0  0  0  0  0  0  0  0  0
    5.3070    1.6440    0.6980 C   0  0  0  0  0  0  0  0  0  0  0  0
    4.8970    0.4840    1.2940 C   0  0  0  0  0  0  0  0  0  0  0  0
    3.7840   -0.1580    0.7960 C   0  0  0  0  0  0  0  0  0  0  0  0
    3.1100    0.3840   -0.2890 C   0  0  0  0  0  0  0  0  0  0  0  0
   -0.5090    0.1240    0.4540 C   0  0  0  0  0  0  0  0  0  0  0  0
    0.0350    1.2260    0.1860 O   0  0  0  0  0  0  0  0  0  0  0  0
   -1.2000   -2.6130    0.1860 H   0  0  0  0  0  0  0  0  0  0  0  0
    1.0160   -0.9300    1.4140 H   0  0  0  0  0  0  0  0  0  0  0  0
    1.9310   -2.1090   -0.4650 H   0  0  0  0  0  0  0  0  0  0  0  0
    0.6470   -1.5730   -1.5620 H   0  0  0  0  0  0  0  0  0  0  0  0
    0.9450    0.8080   -2.6690 H   0  0  0  0  0  0  0  0  0  0  0  0
    2.8120    2.6710   -2.4960 H   0  0  0  0  0  0  0  0  0  0  0  0
    4.9800    3.1320   -0.8620 H   0  0  0  0  0  0  0  0  0  0  0  0
    6.1820    2.1460    1.0910 H   0  0  0  0  0  0  0  0  0  0  0  0
    5.3940    0.0300    2.1400 H   0  0  0  0  0  0  0  0  0  0  0  0
    3.4040   -1.0780    1.2170 H   0  0  0  0  0  0  0  0  0  0  0  0
   -4.4810    0.1360   -0.4860 O   0  0  0  0  0  0  0  0  0  0  0  0
   -3.6020    1.2050   -0.6760 C   0  0  0  0  0  0  0  0  0  0  0  0
   -2.6590    1.3630    0.5250 C   0  0  2  0  0  0  0  0  0  0  0  0
   -1.9240    0.1380    0.6430 N   0  0  0  0  0  0  0  0  0  0  0  0
   -3.4280    1.6870    1.7500 C   0  0  0  0  0  0  0  0  0  0  0  0
   -4.1360    2.7220    1.8450 O   0  0  0  0  0  0  0  0  0  0  0  0
   -3.4120    0.8560    2.8800 O   0  0  0  0  0  0  0  0  0  0  0  0
   -4.2170   -0.6590   -1.0380 H   0  0  0  0  0  0  0  0  0  0  0  0
   -3.0020    0.9760   -1.5790 H   0  0  0  0  0  0  0  0  0  0  0  0
   -4.1380    2.1550   -0.8850 H   0  0  0  0  0  0  0  0  0  0  0  0
   -2.0270    2.2330    0.2910 H   0  0  0  0  0  0  0  0  0  0  0  0
   -2.4230   -0.7510    0.8670 H   0  0  0  0  0  0  0  0  0  0  0  0
  1  2  1  0  0  0  0
  1  6  1  0  0  0  0
  2  9  1  6  0  0  0
  2  3  1  0  0  0  0
  3 11  1  0  0  0  0
  4  2  1  0  0  0  0
  4  5  2  0  0  0  0
  7  1  1  0  0  0  0
  8  1  1  0  0  0  0
 10  3  1  0  0  0  0
 12  4  1  0  0  0  0
 13 12  1  0  0  0  0
 13 27  1  1  0  0  0
 14 28  1  0  0  0  0
 14 13  1  0  0  0  0
 15 14  1  0  0  0  0
 15 23  1  0  0  0  0
 16 17  1  0  0  0  0
 16 15  2  0  0  0  0
 17 18  1  0  0  0  0
 18 19  2  0  0  0  0
 18 23  1  0  0  0  0
 19 20  1  0  0  0  0
 20 33  1  0  0  0  0
 20 21  2  0  0  0  0
 21 34  1  0  0  0  0
 22 35  1  0  0  0  0
 22 21  1  0  0  0  0
 23 22  2  0  0  0  0
 24 13  1  0  0  0  0
 24 39  1  0  0  0  0
 25 24  2  0  0  0  0
 26 12  1  0  0  0  0
 29 14  1  0  0  0  0
 30 16  1  0  0  0  0
 31 17  1  0  0  0  0
 32 19  1  0  0  0  0
 37 36  1  0  0  0  0
 37 38  1  0  0  0  0
 38 46  1  6  0  0  0
 38 39  1  0  0  0  0
 38 40  1  0  0  0  0
 39 47  1  0  0  0  0
 40 41  2  0  0  0  0
 40 42  1  0  0  0  0
 43 36  1  0  0  0  0
 44 37  1  0  0  0  0
 45 37  1  0  0  0  0
M  END
$$$$
