AWV.pdb
 OpenBabel07022418033D

 52 53  0  0  1  0  0  0  0  0999 V2000
    2.4350   -3.3220    4.4990 C   0  0  0  0  0  0  0  0  0  0  0  0
    1.3810   -3.4850    3.4170 C   0  0  2  0  0  0  0  0  0  0  0  0
    2.0260   -4.0720    2.2570 N   0  0  0  0  0  0  0  0  0  0  0  0
    0.8120   -2.1830    3.0120 C   0  0  0  0  0  0  0  0  0  0  0  0
    0.2000   -1.5130    3.8710 O   0  0  0  0  0  0  0  0  0  0  0  0
    2.2390   -2.3990    5.0810 H   0  0  0  0  0  0  0  0  0  0  0  0
    2.3730   -4.1850    5.1700 H   0  0  0  0  0  0  0  0  0  0  0  0
    3.4430   -3.3460    4.0370 H   0  0  0  0  0  0  0  0  0  0  0  0
    0.5990   -4.1860    3.7840 H   0  0  0  0  0  0  0  0  0  0  0  0
    1.7060   -5.0570    2.0940 H   0  0  0  0  0  0  0  0  0  0  0  0
    3.0700   -4.0030    2.2970 H   0  0  0  0  0  0  0  0  0  0  0  0
    0.9340   -1.6650    1.6850 N   0  0  0  0  0  0  0  0  0  0  0  0
    0.3670   -0.3860    1.3080 C   0  0  1  0  0  0  0  0  0  0  0  0
    1.4660    0.5910    0.9480 C   0  0  0  0  0  0  0  0  0  0  0  0
    0.9350    1.8950    0.5620 C   0  0  0  0  0  0  0  0  0  0  0  0
    0.8250    2.4150   -0.7060 C   0  0  0  0  0  0  0  0  0  0  0  0
    0.2860    3.6460   -0.6500 N   0  0  0  0  0  0  0  0  0  0  0  0
    0.0410    3.9420    0.6470 C   0  0  0  0  0  0  0  0  0  0  0  0
   -0.4970    5.0550    1.2620 C   0  0  0  0  0  0  0  0  0  0  0  0
   -0.6550    5.1370    2.6170 C   0  0  0  0  0  0  0  0  0  0  0  0
   -0.2590    4.0580    3.4040 C   0  0  0  0  0  0  0  0  0  0  0  0
    0.2740    2.9560    2.7890 C   0  0  0  0  0  0  0  0  0  0  0  0
    0.4440    2.8490    1.4210 C   0  0  0  0  0  0  0  0  0  0  0  0
   -0.6460   -0.5080    0.2500 C   0  0  0  0  0  0  0  0  0  0  0  0
   -1.2460    0.5020   -0.1820 O   0  0  0  0  0  0  0  0  0  0  0  0
    1.4610   -2.2790    1.0160 H   0  0  0  0  0  0  0  0  0  0  0  0
   -0.1270    0.0250    2.2120 H   0  0  0  0  0  0  0  0  0  0  0  0
    2.1020    0.2220    0.1200 H   0  0  0  0  0  0  0  0  0  0  0  0
    2.1400    0.6350    1.8440 H   0  0  0  0  0  0  0  0  0  0  0  0
    1.1100    1.9550   -1.6620 H   0  0  0  0  0  0  0  0  0  0  0  0
    0.0760    4.2960   -1.4380 H   0  0  0  0  0  0  0  0  0  0  0  0
   -0.7990    5.8840    0.6400 H   0  0  0  0  0  0  0  0  0  0  0  0
   -1.0730    6.0050    3.0850 H   0  0  0  0  0  0  0  0  0  0  0  0
   -0.3970    4.1560    4.4580 H   0  0  0  0  0  0  0  0  0  0  0  0
    0.5780    2.1200    3.4230 H   0  0  0  0  0  0  0  0  0  0  0  0
   -0.3560   -3.6010   -2.4240 C   0  0  0  0  0  0  0  0  0  0  0  0
   -1.1840   -2.3630   -2.6090 C   0  0  0  0  0  0  0  0  0  0  0  0
   -2.1410   -2.6110   -3.7500 C   0  0  0  0  0  0  0  0  0  0  0  0
   -1.9470   -1.9910   -1.3460 C   0  0  2  0  0  0  0  0  0  0  0  0
   -0.9790   -1.7630   -0.3170 N   0  0  0  0  0  0  0  0  0  0  0  0
   -2.9740   -2.9670   -1.0020 C   0  0  0  0  0  0  0  0  0  0  0  0
   -3.0010   -3.5560    0.1050 O   0  0  0  0  0  0  0  0  0  0  0  0
   -3.9690   -3.2750   -1.9140 O   0  0  0  0  0  0  0  0  0  0  0  0
   -0.1250   -4.1140   -3.3590 H   0  0  0  0  0  0  0  0  0  0  0  0
   -0.7760   -4.2840   -1.6450 H   0  0  0  0  0  0  0  0  0  0  0  0
    0.6350   -3.2690   -1.9950 H   0  0  0  0  0  0  0  0  0  0  0  0
   -0.5070   -1.5300   -2.8860 H   0  0  0  0  0  0  0  0  0  0  0  0
   -3.0570   -1.9940   -3.6410 H   0  0  0  0  0  0  0  0  0  0  0  0
   -2.3620   -3.7040   -3.7830 H   0  0  0  0  0  0  0  0  0  0  0  0
   -1.6420   -2.2760   -4.6860 H   0  0  0  0  0  0  0  0  0  0  0  0
   -2.4110   -0.9900   -1.5910 H   0  0  0  0  0  0  0  0  0  0  0  0
   -0.4700   -2.6160    0.0480 H   0  0  0  0  0  0  0  0  0  0  0  0
  1  6  1  0  0  0  0
  1  7  1  0  0  0  0
  2  9  1  1  0  0  0
  2  1  1  0  0  0  0
  3 11  1  0  0  0  0
  3  2  1  0  0  0  0
  4  2  1  0  0  0  0
  4  5  2  0  0  0  0
  8  1  1  0  0  0  0
 10  3  1  0  0  0  0
 12  4  1  0  0  0  0
 13 12  1  0  0  0  0
 13 27  1  1  0  0  0
 14 13  1  0  0  0  0
 14 29  1  0  0  0  0
 15 14  1  0  0  0  0
 15 23  1  0  0  0  0
 16 17  1  0  0  0  0
 16 15  2  0  0  0  0
 17 18  1  0  0  0  0
 18 19  2  0  0  0  0
 18 23  1  0  0  0  0
 19 20  1  0  0  0  0
 20 33  1  0  0  0  0
 20 21  2  0  0  0  0
 21 34  1  0  0  0  0
 22 21  1  0  0  0  0
 22 35  1  0  0  0  0
 23 22  2  0  0  0  0
 24 13  1  0  0  0  0
 25 24  2  0  0  0  0
 26 12  1  0  0  0  0
 28 14  1  0  0  0  0
 30 16  1  0  0  0  0
 31 17  1  0  0  0  0
 32 19  1  0  0  0  0
 36 46  1  0  0  0  0
 36 45  1  0  0  0  0
 37 36  1  0  0  0  0
 37 39  1  0  0  0  0
 38 48  1  0  0  0  0
 38 37  1  0  0  0  0
 39 51  1  6  0  0  0
 39 41  1  0  0  0  0
 39 40  1  0  0  0  0
 40 52  1  0  0  0  0
 40 24  1  0  0  0  0
 41 42  1  0  0  0  0
 43 41  2  0  0  0  0
 44 36  1  0  0  0  0
 47 37  1  0  0  0  0
 49 38  1  0  0  0  0
 50 38  1  0  0  0  0
M  END
$$$$
