AWW.pdb
 OpenBabel07022418033D

 60 63  0  0  1  0  0  0  0  0999 V2000
    4.5660   -1.6890    0.1270 C   0  0  0  0  0  0  0  0  0  0  0  0
    4.1320   -1.1190    1.4700 C   0  0  2  0  0  0  0  0  0  0  0  0
    4.6950   -2.0340    2.4690 N   0  0  0  0  0  0  0  0  0  0  0  0
    2.6480   -1.1810    1.5980 C   0  0  0  0  0  0  0  0  0  0  0  0
    2.0840   -1.9450    2.4110 O   0  0  0  0  0  0  0  0  0  0  0  0
    5.6150   -2.0490    0.2650 H   0  0  0  0  0  0  0  0  0  0  0  0
    4.5800   -0.9580   -0.6830 H   0  0  0  0  0  0  0  0  0  0  0  0
    3.9670   -2.6070   -0.1090 H   0  0  0  0  0  0  0  0  0  0  0  0
    4.5430   -0.0990    1.5430 H   0  0  0  0  0  0  0  0  0  0  0  0
    5.5580   -2.5070    2.0940 H   0  0  0  0  0  0  0  0  0  0  0  0
    3.9910   -2.7960    2.5910 H   0  0  0  0  0  0  0  0  0  0  0  0
    1.7850   -0.3770    0.8070 N   0  0  0  0  0  0  0  0  0  0  0  0
    0.3530   -0.4000    0.8920 C   0  0  1  0  0  0  0  0  0  0  0  0
   -0.2880    0.8560    1.3210 C   0  0  0  0  0  0  0  0  0  0  0  0
   -0.0760    2.0420    0.4960 C   0  0  0  0  0  0  0  0  0  0  0  0
    0.4110    2.1770   -0.7740 C   0  0  0  0  0  0  0  0  0  0  0  0
    0.4040    3.4890   -1.0960 N   0  0  0  0  0  0  0  0  0  0  0  0
   -0.0770    4.2020   -0.0610 C   0  0  0  0  0  0  0  0  0  0  0  0
   -0.2720    5.5620    0.0840 C   0  0  0  0  0  0  0  0  0  0  0  0
   -0.7860    6.0770    1.2570 C   0  0  0  0  0  0  0  0  0  0  0  0
   -1.0860    5.1700    2.2520 C   0  0  0  0  0  0  0  0  0  0  0  0
   -0.9010    3.8200    2.1300 C   0  0  0  0  0  0  0  0  0  0  0  0
   -0.3870    3.3210    0.9540 C   0  0  0  0  0  0  0  0  0  0  0  0
   -0.2550   -1.0020   -0.3240 C   0  0  0  0  0  0  0  0  0  0  0  0
    0.4910   -1.3960   -1.2460 O   0  0  0  0  0  0  0  0  0  0  0  0
    2.2170    0.2750    0.1220 H   0  0  0  0  0  0  0  0  0  0  0  0
    0.1170   -1.1630    1.7000 H   0  0  0  0  0  0  0  0  0  0  0  0
   -0.0620    1.0120    2.3970 H   0  0  0  0  0  0  0  0  0  0  0  0
   -1.4050    0.6660    1.3100 H   0  0  0  0  0  0  0  0  0  0  0  0
    0.7360    1.3550   -1.3930 H   0  0  0  0  0  0  0  0  0  0  0  0
    0.7310    3.8460   -2.0190 H   0  0  0  0  0  0  0  0  0  0  0  0
   -0.0260    6.2450   -0.7150 H   0  0  0  0  0  0  0  0  0  0  0  0
   -0.9510    7.1440    1.4020 H   0  0  0  0  0  0  0  0  0  0  0  0
   -1.4950    5.5430    3.1970 H   0  0  0  0  0  0  0  0  0  0  0  0
   -1.1360    3.1050    2.9100 H   0  0  0  0  0  0  0  0  0  0  0  0
   -1.6520   -1.1510   -0.4880 N   0  0  0  0  0  0  0  0  0  0  0  0
   -2.1510   -1.7400   -1.6860 C   0  0  1  0  0  0  0  0  0  0  0  0
   -2.8910   -3.0430   -1.5050 C   0  0  0  0  0  0  0  0  0  0  0  0
   -2.0670   -4.1220   -0.9050 C   0  0  0  0  0  0  0  0  0  0  0  0
   -1.4630   -5.1660   -1.6250 C   0  0  0  0  0  0  0  0  0  0  0  0
   -0.7910   -5.9370   -0.7650 N   0  0  0  0  0  0  0  0  0  0  0  0
   -0.9160   -5.4620    0.4820 C   0  0  0  0  0  0  0  0  0  0  0  0
   -0.4110   -5.9120    1.7040 C   0  0  0  0  0  0  0  0  0  0  0  0
   -0.7000   -5.2250    2.8720 C   0  0  0  0  0  0  0  0  0  0  0  0
   -1.4900   -4.1020    2.7970 C   0  0  0  0  0  0  0  0  0  0  0  0
   -1.9810   -3.6740    1.5650 C   0  0  0  0  0  0  0  0  0  0  0  0
   -1.7050   -4.3400    0.4000 C   0  0  0  0  0  0  0  0  0  0  0  0
   -3.0810   -0.7870   -2.3390 C   0  0  0  0  0  0  0  0  0  0  0  0
   -3.6720   -1.0360   -3.4190 O   0  0  0  0  0  0  0  0  0  0  0  0
   -3.3540    0.4660   -1.7750 O   0  0  0  0  0  0  0  0  0  0  0  0
   -2.3400   -0.8300    0.2550 H   0  0  0  0  0  0  0  0  0  0  0  0
   -1.3290   -1.9570   -2.4230 H   0  0  0  0  0  0  0  0  0  0  0  0
   -3.8140   -2.8550   -0.9100 H   0  0  0  0  0  0  0  0  0  0  0  0
   -3.2080   -3.3770   -2.5090 H   0  0  0  0  0  0  0  0  0  0  0  0
   -1.5350   -5.3180   -2.7080 H   0  0  0  0  0  0  0  0  0  0  0  0
   -0.2240   -6.8070   -0.9720 H   0  0  0  0  0  0  0  0  0  0  0  0
    0.2110   -6.7900    1.7990 H   0  0  0  0  0  0  0  0  0  0  0  0
   -0.2990   -5.5870    3.8200 H   0  0  0  0  0  0  0  0  0  0  0  0
   -1.7040   -3.5790    3.7190 H   0  0  0  0  0  0  0  0  0  0  0  0
   -2.5970   -2.8040    1.5360 H   0  0  0  0  0  0  0  0  0  0  0  0
  1  6  1  0  0  0  0
  1  2  1  0  0  0  0
  2  9  1  1  0  0  0
  2  4  1  0  0  0  0
  2  3  1  0  0  0  0
  3 11  1  0  0  0  0
  4  5  2  0  0  0  0
  7  1  1  0  0  0  0
  8  1  1  0  0  0  0
 10  3  1  0  0  0  0
 12 13  1  0  0  0  0
 12  4  1  0  0  0  0
 13 14  1  0  0  0  0
 13 27  1  1  0  0  0
 14 28  1  0  0  0  0
 15 23  1  0  0  0  0
 15 14  1  0  0  0  0
 16 15  2  0  0  0  0
 17 16  1  0  0  0  0
 17 18  1  0  0  0  0
 18 19  2  0  0  0  0
 18 23  1  0  0  0  0
 19 20  1  0  0  0  0
 20 33  1  0  0  0  0
 20 21  2  0  0  0  0
 21 34  1  0  0  0  0
 22 21  1  0  0  0  0
 22 35  1  0  0  0  0
 23 22  2  0  0  0  0
 24 13  1  0  0  0  0
 25 24  2  0  0  0  0
 26 12  1  0  0  0  0
 29 14  1  0  0  0  0
 30 16  1  0  0  0  0
 31 17  1  0  0  0  0
 32 19  1  0  0  0  0
 36 24  1  0  0  0  0
 36 51  1  0  0  0  0
 37 52  1  6  0  0  0
 37 38  1  0  0  0  0
 37 36  1  0  0  0  0
 38 53  1  0  0  0  0
 38 39  1  0  0  0  0
 39 47  1  0  0  0  0
 40 39  2  0  0  0  0
 40 41  1  0  0  0  0
 41 42  1  0  0  0  0
 42 43  1  0  0  0  0
 43 57  1  0  0  0  0
 43 44  2  0  0  0  0
 44 58  1  0  0  0  0
 45 44  1  0  0  0  0
 45 59  1  0  0  0  0
 46 45  2  0  0  0  0
 47 42  2  0  0  0  0
 47 46  1  0  0  0  0
 48 50  1  0  0  0  0
 48 37  1  0  0  0  0
 49 48  2  0  0  0  0
 54 38  1  0  0  0  0
 55 40  1  0  0  0  0
 56 41  1  0  0  0  0
 60 46  1  0  0  0  0
M  END
$$$$
