AWY.pdb
 OpenBabel07022418033D

 57 59  0  0  1  0  0  0  0  0999 V2000
    1.5110   -3.2300    5.6720 C   0  0  0  0  0  0  0  0  0  0  0  0
    0.9420   -3.4490    4.2880 C   0  0  2  0  0  0  0  0  0  0  0  0
    2.0300   -3.8520    3.4220 N   0  0  0  0  0  0  0  0  0  0  0  0
    0.3460   -2.1640    3.8370 C   0  0  0  0  0  0  0  0  0  0  0  0
   -0.5930   -1.6000    4.4480 O   0  0  0  0  0  0  0  0  0  0  0  0
    2.3780   -3.8660    5.8860 H   0  0  0  0  0  0  0  0  0  0  0  0
    1.7780   -2.1630    5.8550 H   0  0  0  0  0  0  0  0  0  0  0  0
    0.6940   -3.4480    6.4160 H   0  0  0  0  0  0  0  0  0  0  0  0
    0.1670   -4.2430    4.3740 H   0  0  0  0  0  0  0  0  0  0  0  0
    2.3710   -4.7770    3.7550 H   0  0  0  0  0  0  0  0  0  0  0  0
    2.8220   -3.1690    3.5660 H   0  0  0  0  0  0  0  0  0  0  0  0
    0.8550   -1.5590    2.6800 N   0  0  0  0  0  0  0  0  0  0  0  0
    0.3380   -0.3070    2.1660 C   0  0  1  0  0  0  0  0  0  0  0  0
    1.4550    0.7100    2.0850 C   0  0  0  0  0  0  0  0  0  0  0  0
    0.9450    2.0060    1.5600 C   0  0  0  0  0  0  0  0  0  0  0  0
    1.0790    2.5600    0.3190 C   0  0  0  0  0  0  0  0  0  0  0  0
    0.4530    3.7500    0.2910 N   0  0  0  0  0  0  0  0  0  0  0  0
   -0.0940    3.9860    1.5060 C   0  0  0  0  0  0  0  0  0  0  0  0
   -0.8380    5.0450    2.0230 C   0  0  0  0  0  0  0  0  0  0  0  0
   -1.2630    4.9930    3.3320 C   0  0  0  0  0  0  0  0  0  0  0  0
   -0.9870    3.9340    4.1690 C   0  0  0  0  0  0  0  0  0  0  0  0
   -0.2440    2.8900    3.6330 C   0  0  0  0  0  0  0  0  0  0  0  0
    0.2040    2.9080    2.3090 C   0  0  0  0  0  0  0  0  0  0  0  0
   -0.2080   -0.4820    0.7810 C   0  0  0  0  0  0  0  0  0  0  0  0
   -0.7240    0.4840    0.1640 O   0  0  0  0  0  0  0  0  0  0  0  0
    1.6470   -1.9860    2.1190 H   0  0  0  0  0  0  0  0  0  0  0  0
   -0.4490    0.0320    2.8650 H   0  0  0  0  0  0  0  0  0  0  0  0
    2.2320    0.3050    1.3980 H   0  0  0  0  0  0  0  0  0  0  0  0
    1.8630    0.8460    3.1100 H   0  0  0  0  0  0  0  0  0  0  0  0
    1.6060    2.0950   -0.4880 H   0  0  0  0  0  0  0  0  0  0  0  0
    0.3850    4.4040   -0.5240 H   0  0  0  0  0  0  0  0  0  0  0  0
   -1.0510    5.8700    1.3650 H   0  0  0  0  0  0  0  0  0  0  0  0
   -1.8390    5.8080    3.7400 H   0  0  0  0  0  0  0  0  0  0  0  0
   -1.3070    3.8710    5.1970 H   0  0  0  0  0  0  0  0  0  0  0  0
    0.0210    2.0180    4.2110 H   0  0  0  0  0  0  0  0  0  0  0  0
   -1.7630   -2.8930   -7.4780 O   0  0  0  0  0  0  0  0  0  0  0  0
   -1.2420   -2.7330   -6.1930 C   0  0  0  0  0  0  0  0  0  0  0  0
   -1.0650   -3.8250   -5.3650 C   0  0  0  0  0  0  0  0  0  0  0  0
   -0.5500   -3.6540   -4.0990 C   0  0  0  0  0  0  0  0  0  0  0  0
   -0.1850   -2.4150   -3.5860 C   0  0  0  0  0  0  0  0  0  0  0  0
    0.3630   -2.2360   -2.2270 C   0  0  0  0  0  0  0  0  0  0  0  0
   -0.7050   -1.9060   -1.2490 C   0  0  2  0  0  0  0  0  0  0  0  0
   -0.1730   -1.7300    0.1010 N   0  0  0  0  0  0  0  0  0  0  0  0
   -1.7770   -2.9040   -1.1790 C   0  0  0  0  0  0  0  0  0  0  0  0
   -2.0260   -3.4780   -0.0930 O   0  0  0  0  0  0  0  0  0  0  0  0
   -0.3750   -1.3240   -4.4460 C   0  0  0  0  0  0  0  0  0  0  0  0
   -0.8900   -1.4990   -5.7130 C   0  0  0  0  0  0  0  0  0  0  0  0
   -2.5190   -3.2200   -2.2940 O   0  0  0  0  0  0  0  0  0  0  0  0
   -2.6630   -2.5080   -7.7510 H   0  0  0  0  0  0  0  0  0  0  0  0
   -1.3420   -4.8030   -5.7380 H   0  0  0  0  0  0  0  0  0  0  0  0
   -0.4010   -4.5150   -3.4340 H   0  0  0  0  0  0  0  0  0  0  0  0
    1.0810   -1.3830   -2.2880 H   0  0  0  0  0  0  0  0  0  0  0  0
    0.9600   -3.1170   -1.9120 H   0  0  0  0  0  0  0  0  0  0  0  0
   -1.1730   -0.9520   -1.6070 H   0  0  0  0  0  0  0  0  0  0  0  0
    0.2530   -2.5380    0.6020 H   0  0  0  0  0  0  0  0  0  0  0  0
   -0.1040   -0.3560   -4.0820 H   0  0  0  0  0  0  0  0  0  0  0  0
   -1.0310   -0.6440   -6.3680 H   0  0  0  0  0  0  0  0  0  0  0  0
  1  7  1  0  0  0  0
  1  6  1  0  0  0  0
  1  8  1  0  0  0  0
  2  9  1  1  0  0  0
  2  1  1  0  0  0  0
  3 11  1  0  0  0  0
  3 10  1  0  0  0  0
  3  2  1  0  0  0  0
  4  2  1  0  0  0  0
  4  5  2  0  0  0  0
 12  4  1  0  0  0  0
 13 12  1  0  0  0  0
 13 27  1  1  0  0  0
 14 13  1  0  0  0  0
 14 29  1  0  0  0  0
 15 14  1  0  0  0  0
 15 23  1  0  0  0  0
 16 15  2  0  0  0  0
 17 16  1  0  0  0  0
 17 18  1  0  0  0  0
 18 19  2  0  0  0  0
 18 23  1  0  0  0  0
 19 20  1  0  0  0  0
 20 33  1  0  0  0  0
 20 21  2  0  0  0  0
 21 34  1  0  0  0  0
 22 21  1  0  0  0  0
 22 35  1  0  0  0  0
 23 22  2  0  0  0  0
 24 13  1  0  0  0  0
 25 24  2  0  0  0  0
 26 12  1  0  0  0  0
 28 14  1  0  0  0  0
 30 16  1  0  0  0  0
 31 17  1  0  0  0  0
 32 19  1  0  0  0  0
 36 37  1  0  0  0  0
 37 47  2  0  0  0  0
 37 38  1  0  0  0  0
 38 39  2  0  0  0  0
 39 40  1  0  0  0  0
 39 51  1  0  0  0  0
 40 41  1  0  0  0  0
 41 53  1  0  0  0  0
 41 42  1  0  0  0  0
 42 54  1  6  0  0  0
 42 44  1  0  0  0  0
 42 43  1  0  0  0  0
 43 55  1  0  0  0  0
 43 24  1  0  0  0  0
 44 45  1  0  0  0  0
 46 56  1  0  0  0  0
 46 40  2  0  0  0  0
 47 46  1  0  0  0  0
 48 44  2  0  0  0  0
 49 36  1  0  0  0  0
 50 38  1  0  0  0  0
 52 41  1  0  0  0  0
 57 47  1  0  0  0  0
M  END
$$$$
