AYA.pdb
 OpenBabel07022418033D

 43 43  0  0  1  0  0  0  0  0999 V2000
    3.5110   -4.5290    0.4150 C   0  0  0  0  0  0  0  0  0  0  0  0
    3.6000   -3.7470    1.7100 C   0  0  2  0  0  0  0  0  0  0  0  0
    3.4730   -4.7000    2.7970 N   0  0  0  0  0  0  0  0  0  0  0  0
    2.4800   -2.7760    1.8360 C   0  0  0  0  0  0  0  0  0  0  0  0
    1.6170   -2.8640    2.7770 O   0  0  0  0  0  0  0  0  0  0  0  0
    4.1480   -5.4250    0.5110 H   0  0  0  0  0  0  0  0  0  0  0  0
    2.4520   -4.8740    0.3210 H   0  0  0  0  0  0  0  0  0  0  0  0
    3.8110   -3.8930   -0.4560 H   0  0  0  0  0  0  0  0  0  0  0  0
    4.5880   -3.2390    1.7370 H   0  0  0  0  0  0  0  0  0  0  0  0
    4.1510   -4.5310    3.5680 H   0  0  0  0  0  0  0  0  0  0  0  0
    2.4830   -4.7400    3.1320 H   0  0  0  0  0  0  0  0  0  0  0  0
   -2.1060    4.7300    2.2360 O   0  0  0  0  0  0  0  0  0  0  0  0
   -1.1780    3.7170    2.0420 C   0  0  0  0  0  0  0  0  0  0  0  0
   -0.5930    3.5420    0.8050 C   0  0  0  0  0  0  0  0  0  0  0  0
    0.3320    2.5340    0.6110 C   0  0  0  0  0  0  0  0  0  0  0  0
    0.7220    1.6620    1.6040 C   0  0  0  0  0  0  0  0  0  0  0  0
    1.7030    0.5850    1.4110 C   0  0  0  0  0  0  0  0  0  0  0  0
    1.1510   -0.7460    1.1000 C   0  0  2  0  0  0  0  0  0  0  0  0
    2.2890   -1.7000    0.9390 N   0  0  0  0  0  0  0  0  0  0  0  0
    0.2900   -0.9370   -0.0410 C   0  0  0  0  0  0  0  0  0  0  0  0
    0.6930   -1.7100   -0.9880 O   0  0  0  0  0  0  0  0  0  0  0  0
    0.1210    1.8480    2.8560 C   0  0  0  0  0  0  0  0  0  0  0  0
   -0.8010    2.8540    3.0500 C   0  0  0  0  0  0  0  0  0  0  0  0
   -2.8000    4.6450    2.9930 H   0  0  0  0  0  0  0  0  0  0  0  0
   -0.8660    4.2080   -0.0230 H   0  0  0  0  0  0  0  0  0  0  0  0
    0.8030    2.3830   -0.3610 H   0  0  0  0  0  0  0  0  0  0  0  0
    2.5430    0.8990    0.7440 H   0  0  0  0  0  0  0  0  0  0  0  0
    2.2220    0.4850    2.4170 H   0  0  0  0  0  0  0  0  0  0  0  0
    0.5630   -1.0740    2.0130 H   0  0  0  0  0  0  0  0  0  0  0  0
    2.9440   -1.5550    0.1450 H   0  0  0  0  0  0  0  0  0  0  0  0
    0.4110    1.1690    3.6710 H   0  0  0  0  0  0  0  0  0  0  0  0
   -1.2680    3.0010    4.0230 H   0  0  0  0  0  0  0  0  0  0  0  0
   -3.0540   -1.3770   -1.1260 C   0  0  0  0  0  0  0  0  0  0  0  0
   -1.7660   -0.6520   -1.4590 C   0  0  2  0  0  0  0  0  0  0  0  0
   -0.9990   -0.3620   -0.2590 N   0  0  0  0  0  0  0  0  0  0  0  0
   -2.0930    0.5990   -2.1480 C   0  0  0  0  0  0  0  0  0  0  0  0
   -1.7250    1.6920   -1.6780 O   0  0  0  0  0  0  0  0  0  0  0  0
   -2.8150    0.5870   -3.3300 O   0  0  0  0  0  0  0  0  0  0  0  0
   -3.1430   -1.5820   -0.0260 H   0  0  0  0  0  0  0  0  0  0  0  0
   -3.9300   -0.7670   -1.3980 H   0  0  0  0  0  0  0  0  0  0  0  0
   -3.1530   -2.3440   -1.6490 H   0  0  0  0  0  0  0  0  0  0  0  0
   -1.2160   -1.3080   -2.1540 H   0  0  0  0  0  0  0  0  0  0  0  0
   -1.3470    0.2580    0.4930 H   0  0  0  0  0  0  0  0  0  0  0  0
  1  6  1  0  0  0  0
  1  2  1  0  0  0  0
  2  9  1  1  0  0  0
  2  4  1  0  0  0  0
  2  3  1  0  0  0  0
  3 11  1  0  0  0  0
  3 10  1  0  0  0  0
  4  5  2  0  0  0  0
  7  1  1  0  0  0  0
  8  1  1  0  0  0  0
 12 24  1  0  0  0  0
 13 12  1  0  0  0  0
 13 23  1  0  0  0  0
 14 13  2  0  0  0  0
 15 14  1  0  0  0  0
 15 16  2  0  0  0  0
 16 22  1  0  0  0  0
 17 16  1  0  0  0  0
 17 28  1  0  0  0  0
 18 17  1  0  0  0  0
 18 29  1  1  0  0  0
 19 18  1  0  0  0  0
 19  4  1  0  0  0  0
 20 18  1  0  0  0  0
 21 20  2  0  0  0  0
 22 23  2  0  0  0  0
 22 31  1  0  0  0  0
 23 32  1  0  0  0  0
 25 14  1  0  0  0  0
 26 15  1  0  0  0  0
 27 17  1  0  0  0  0
 30 19  1  0  0  0  0
 33 39  1  0  0  0  0
 34 42  1  6  0  0  0
 34 33  1  0  0  0  0
 34 35  1  0  0  0  0
 35 20  1  0  0  0  0
 35 43  1  0  0  0  0
 36 37  1  0  0  0  0
 36 34  1  0  0  0  0
 38 36  2  0  0  0  0
 40 33  1  0  0  0  0
 41 33  1  0  0  0  0
M  END
$$$$
