AYD.pdb
 OpenBabel07022418033D

 46 46  0  0  1  0  0  0  0  0999 V2000
    2.4890   -0.3900    4.6070 C   0  0  0  0  0  0  0  0  0  0  0  0
    1.0480   -0.8320    4.4720 C   0  0  2  0  0  0  0  0  0  0  0  0
    1.0190   -2.2480    4.7590 N   0  0  0  0  0  0  0  0  0  0  0  0
    0.5680   -0.6520    3.0590 C   0  0  0  0  0  0  0  0  0  0  0  0
    0.2670   -1.6570    2.3940 O   0  0  0  0  0  0  0  0  0  0  0  0
    3.0640   -0.8410    3.7660 H   0  0  0  0  0  0  0  0  0  0  0  0
    2.6140    0.6940    4.6980 H   0  0  0  0  0  0  0  0  0  0  0  0
    2.8790   -0.9020    5.5290 H   0  0  0  0  0  0  0  0  0  0  0  0
    0.4130   -0.3000    5.1950 H   0  0  0  0  0  0  0  0  0  0  0  0
    0.0660   -2.5610    5.0710 H   0  0  0  0  0  0  0  0  0  0  0  0
    1.4360   -2.8360    4.0320 H   0  0  0  0  0  0  0  0  0  0  0  0
    4.7780   -3.0970   -0.5200 O   0  0  0  0  0  0  0  0  0  0  0  0
    3.8690   -2.0430   -0.3510 C   0  0  0  0  0  0  0  0  0  0  0  0
    4.0640   -1.0680    0.6050 C   0  0  0  0  0  0  0  0  0  0  0  0
    3.1670   -0.0350    0.7650 C   0  0  0  0  0  0  0  0  0  0  0  0
    2.0270    0.0810   -0.0180 C   0  0  0  0  0  0  0  0  0  0  0  0
    1.0780    1.2090    0.1770 C   0  0  0  0  0  0  0  0  0  0  0  0
    0.0030    0.9380    1.1610 C   0  0  2  0  0  0  0  0  0  0  0  0
    0.4560    0.6340    2.4800 N   0  0  0  0  0  0  0  0  0  0  0  0
   -1.1580    0.1640    0.6690 C   0  0  0  0  0  0  0  0  0  0  0  0
   -1.7390   -0.6250    1.4360 O   0  0  0  0  0  0  0  0  0  0  0  0
    1.8380   -0.8970   -0.9720 C   0  0  0  0  0  0  0  0  0  0  0  0
    2.7380   -1.9310   -1.1310 C   0  0  0  0  0  0  0  0  0  0  0  0
    4.8960   -3.7250    0.2900 H   0  0  0  0  0  0  0  0  0  0  0  0
    4.9400   -1.1290    1.2310 H   0  0  0  0  0  0  0  0  0  0  0  0
    3.3150    0.7450    1.5230 H   0  0  0  0  0  0  0  0  0  0  0  0
    1.7180    2.0890    0.4760 H   0  0  0  0  0  0  0  0  0  0  0  0
    0.6750    1.5050   -0.8100 H   0  0  0  0  0  0  0  0  0  0  0  0
   -0.5080    1.9870    1.2950 H   0  0  0  0  0  0  0  0  0  0  0  0
    0.7600    1.4140    3.1540 H   0  0  0  0  0  0  0  0  0  0  0  0
    0.9430   -0.8120   -1.5940 H   0  0  0  0  0  0  0  0  0  0  0  0
    2.5690   -2.6920   -1.8890 H   0  0  0  0  0  0  0  0  0  0  0  0
   -1.6690    0.2610   -0.6530 N   0  0  0  0  0  0  0  0  0  0  0  0
   -2.8210   -0.5430   -1.0410 C   0  0  1  0  0  0  0  0  0  0  0  0
   -4.0110    0.3550   -1.3570 C   0  0  0  0  0  0  0  0  0  0  0  0
   -4.4070    1.1780   -0.1910 C   0  0  0  0  0  0  0  0  0  0  0  0
   -3.8050    2.2360    0.1300 O   0  0  0  0  0  0  0  0  0  0  0  0
   -2.5540   -1.3610   -2.2140 C   0  0  0  0  0  0  0  0  0  0  0  0
   -1.4490   -1.3460   -2.8020 O   0  0  0  0  0  0  0  0  0  0  0  0
   -5.4930    0.7520    0.5770 O   0  0  0  0  0  0  0  0  0  0  0  0
   -3.5440   -2.1920   -2.7130 O   0  0  0  0  0  0  0  0  0  0  0  0
   -1.1930    0.9090   -1.2930 H   0  0  0  0  0  0  0  0  0  0  0  0
   -3.1530   -1.1930   -0.2090 H   0  0  0  0  0  0  0  0  0  0  0  0
   -4.8790   -0.2540   -1.6700 H   0  0  0  0  0  0  0  0  0  0  0  0
   -3.7710    1.0230   -2.2080 H   0  0  0  0  0  0  0  0  0  0  0  0
   -5.5580    0.9840    1.5730 H   0  0  0  0  0  0  0  0  0  0  0  0
  1  7  1  0  0  0  0
  1  8  1  0  0  0  0
  2  1  1  0  0  0  0
  2  3  1  0  0  0  0
  2  9  1  1  0  0  0
  3 10  1  0  0  0  0
  4  2  1  0  0  0  0
  5  4  2  0  0  0  0
  6  1  1  0  0  0  0
 11  3  1  0  0  0  0
 12 13  1  0  0  0  0
 12 24  1  0  0  0  0
 13 14  1  0  0  0  0
 14 15  2  0  0  0  0
 14 25  1  0  0  0  0
 15 26  1  0  0  0  0
 16 17  1  0  0  0  0
 16 15  1  0  0  0  0
 17 27  1  0  0  0  0
 17 18  1  0  0  0  0
 18 29  1  1  0  0  0
 18 19  1  0  0  0  0
 19  4  1  0  0  0  0
 19 30  1  0  0  0  0
 20 18  1  0  0  0  0
 20 21  2  0  0  0  0
 22 16  2  0  0  0  0
 23 22  1  0  0  0  0
 23 13  2  0  0  0  0
 28 17  1  0  0  0  0
 31 22  1  0  0  0  0
 32 23  1  0  0  0  0
 33 20  1  0  0  0  0
 34 33  1  0  0  0  0
 34 43  1  1  0  0  0
 35 34  1  0  0  0  0
 35 36  1  0  0  0  0
 36 37  2  0  0  0  0
 36 40  1  0  0  0  0
 38 34  1  0  0  0  0
 39 38  2  0  0  0  0
 40 46  1  0  0  0  0
 41 38  1  0  0  0  0
 42 33  1  0  0  0  0
 44 35  1  0  0  0  0
 45 35  1  0  0  0  0
M  END
$$$$
