AYG.pdb
 OpenBabel07022418033D

 40 40  0  0  1  0  0  0  0  0999 V2000
   -0.6380   -2.6580   -3.8000 C   0  0  0  0  0  0  0  0  0  0  0  0
    0.0440   -3.4830   -2.7590 C   0  0  2  0  0  0  0  0  0  0  0  0
   -0.5150   -4.8200   -2.7920 N   0  0  0  0  0  0  0  0  0  0  0  0
   -0.0330   -2.8920   -1.3970 C   0  0  0  0  0  0  0  0  0  0  0  0
   -0.5540   -3.5970   -0.4690 O   0  0  0  0  0  0  0  0  0  0  0  0
   -1.7260   -2.7640   -3.7970 H   0  0  0  0  0  0  0  0  0  0  0  0
   -0.2120   -2.9220   -4.8020 H   0  0  0  0  0  0  0  0  0  0  0  0
   -0.3840   -1.5780   -3.6330 H   0  0  0  0  0  0  0  0  0  0  0  0
    1.1280   -3.5970   -3.0150 H   0  0  0  0  0  0  0  0  0  0  0  0
   -0.4570   -5.2930   -1.8580 H   0  0  0  0  0  0  0  0  0  0  0  0
   -1.4550   -4.8580   -3.2190 H   0  0  0  0  0  0  0  0  0  0  0  0
    2.6320    1.4400    5.7470 O   0  0  0  0  0  0  0  0  0  0  0  0
    2.4030    0.9090    4.4840 C   0  0  0  0  0  0  0  0  0  0  0  0
    2.3140   -0.4690    4.3530 C   0  0  0  0  0  0  0  0  0  0  0  0
    2.0890   -1.0560    3.1310 C   0  0  0  0  0  0  0  0  0  0  0  0
    1.9540   -0.2060    2.0370 C   0  0  0  0  0  0  0  0  0  0  0  0
    1.7380   -0.7700    0.7200 C   0  0  0  0  0  0  0  0  0  0  0  0
    0.3300   -1.0700    0.3110 C   0  0  2  0  0  0  0  0  0  0  0  0
    0.4280   -1.6170   -1.0640 N   0  0  0  0  0  0  0  0  0  0  0  0
   -0.4970    0.1570    0.2740 C   0  0  0  0  0  0  0  0  0  0  0  0
   -0.8610    0.6330   -0.8590 O   0  0  0  0  0  0  0  0  0  0  0  0
    2.0430    1.1850    2.1690 C   0  0  0  0  0  0  0  0  0  0  0  0
    2.2700    1.7530    3.4010 C   0  0  0  0  0  0  0  0  0  0  0  0
    3.1540    0.9050    6.4310 H   0  0  0  0  0  0  0  0  0  0  0  0
    2.4180   -1.1360    5.2010 H   0  0  0  0  0  0  0  0  0  0  0  0
    2.0110   -2.1230    2.9710 H   0  0  0  0  0  0  0  0  0  0  0  0
    2.4180   -1.6400    0.5970 H   0  0  0  0  0  0  0  0  0  0  0  0
    2.1290   -0.0310   -0.0430 H   0  0  0  0  0  0  0  0  0  0  0  0
   -0.1470   -1.8600    0.9030 H   0  0  0  0  0  0  0  0  0  0  0  0
    0.8570   -1.0190   -1.7990 H   0  0  0  0  0  0  0  0  0  0  0  0
    1.9380    1.8440    1.3150 H   0  0  0  0  0  0  0  0  0  0  0  0
    2.3440    2.8200    3.5380 H   0  0  0  0  0  0  0  0  0  0  0  0
   -0.9490    0.8880    1.3890 N   0  0  0  0  0  0  0  0  0  0  0  0
   -1.7620    2.0990    1.2570 C   0  0  0  0  0  0  0  0  0  0  0  0
   -2.0470    2.5920    2.6260 C   0  0  0  0  0  0  0  0  0  0  0  0
   -2.7360    3.6330    2.7870 O   0  0  0  0  0  0  0  0  0  0  0  0
   -1.5900    1.9640    3.7740 O   0  0  0  0  0  0  0  0  0  0  0  0
   -0.6980    0.5340    2.3310 H   0  0  0  0  0  0  0  0  0  0  0  0
   -1.2070    2.9050    0.7320 H   0  0  0  0  0  0  0  0  0  0  0  0
   -2.6840    1.9030    0.6750 H   0  0  0  0  0  0  0  0  0  0  0  0
  1  6  1  0  0  0  0
  1  8  1  0  0  0  0
  1  2  1  0  0  0  0
  2  9  1  6  0  0  0
  2  4  1  0  0  0  0
  3  2  1  0  0  0  0
  3 10  1  0  0  0  0
  4 19  1  0  0  0  0
  4  5  2  0  0  0  0
  7  1  1  0  0  0  0
 11  3  1  0  0  0  0
 12 24  1  0  0  0  0
 13 12  1  0  0  0  0
 14 13  1  0  0  0  0
 14 25  1  0  0  0  0
 15 14  2  0  0  0  0
 16 22  2  0  0  0  0
 16 15  1  0  0  0  0
 17 16  1  0  0  0  0
 18 17  1  0  0  0  0
 18 29  1  1  0  0  0
 19 18  1  0  0  0  0
 20 18  1  0  0  0  0
 20 33  1  0  0  0  0
 21 20  2  0  0  0  0
 22 23  1  0  0  0  0
 23 32  1  0  0  0  0
 23 13  2  0  0  0  0
 26 15  1  0  0  0  0
 27 17  1  0  0  0  0
 28 17  1  0  0  0  0
 30 19  1  0  0  0  0
 31 22  1  0  0  0  0
 33 38  1  0  0  0  0
 34 33  1  0  0  0  0
 34 35  1  0  0  0  0
 35 36  2  0  0  0  0
 35 37  1  0  0  0  0
 39 34  1  0  0  0  0
 40 34  1  0  0  0  0
M  END
$$$$
