AYH.pdb
 OpenBabel07022418033D

 50 51  0  0  1  0  0  0  0  0999 V2000
   -0.4280   -1.6620    4.0540 C   0  0  0  0  0  0  0  0  0  0  0  0
    0.2370   -0.3530    4.4960 C   0  0  2  0  0  0  0  0  0  0  0  0
   -0.3580   -0.0070    5.7680 N   0  0  0  0  0  0  0  0  0  0  0  0
   -0.1250    0.6630    3.4860 C   0  0  0  0  0  0  0  0  0  0  0  0
   -0.8670    1.6290    3.8810 O   0  0  0  0  0  0  0  0  0  0  0  0
   -0.5800   -2.3130    4.9540 H   0  0  0  0  0  0  0  0  0  0  0  0
    0.1340   -2.1560    3.2550 H   0  0  0  0  0  0  0  0  0  0  0  0
   -1.4420   -1.3720    3.7000 H   0  0  0  0  0  0  0  0  0  0  0  0
    1.3320   -0.4870    4.5980 H   0  0  0  0  0  0  0  0  0  0  0  0
    0.2520    0.7180    6.2500 H   0  0  0  0  0  0  0  0  0  0  0  0
   -1.2570    0.4980    5.5700 H   0  0  0  0  0  0  0  0  0  0  0  0
    4.8070   -0.4920   -2.5350 O   0  0  0  0  0  0  0  0  0  0  0  0
    3.9040    0.2060   -1.7290 C   0  0  0  0  0  0  0  0  0  0  0  0
    4.0910    0.3600   -0.3720 C   0  0  0  0  0  0  0  0  0  0  0  0
    3.1990    1.0490    0.4220 C   0  0  0  0  0  0  0  0  0  0  0  0
    2.0680    1.6170   -0.1270 C   0  0  0  0  0  0  0  0  0  0  0  0
    1.0680    2.3650    0.6120 C   0  0  0  0  0  0  0  0  0  0  0  0
   -0.0600    1.5930    1.2040 C   0  0  2  0  0  0  0  0  0  0  0  0
    0.3130    0.5950    2.1370 N   0  0  0  0  0  0  0  0  0  0  0  0
   -0.9480    1.0550    0.1240 C   0  0  0  0  0  0  0  0  0  0  0  0
   -1.4060    1.7880   -0.7890 O   0  0  0  0  0  0  0  0  0  0  0  0
    1.8840    1.4600   -1.4870 C   0  0  0  0  0  0  0  0  0  0  0  0
    2.7840    0.7670   -2.2770 C   0  0  0  0  0  0  0  0  0  0  0  0
    5.8010   -0.3940   -2.3850 H   0  0  0  0  0  0  0  0  0  0  0  0
    4.9680   -0.0770    0.0680 H   0  0  0  0  0  0  0  0  0  0  0  0
    3.3530    1.1650    1.4810 H   0  0  0  0  0  0  0  0  0  0  0  0
    0.6360    3.1510   -0.0490 H   0  0  0  0  0  0  0  0  0  0  0  0
    1.5960    2.9360    1.4230 H   0  0  0  0  0  0  0  0  0  0  0  0
   -0.7020    2.3400    1.7440 H   0  0  0  0  0  0  0  0  0  0  0  0
    0.9110   -0.1980    1.8500 H   0  0  0  0  0  0  0  0  0  0  0  0
    1.0300    1.8710   -2.0120 H   0  0  0  0  0  0  0  0  0  0  0  0
    2.6050    0.6650   -3.3390 H   0  0  0  0  0  0  0  0  0  0  0  0
   -1.3140   -0.3190    0.0840 N   0  0  0  0  0  0  0  0  0  0  0  0
   -2.1660   -0.8020   -0.9640 C   0  0  1  0  0  0  0  0  0  0  0  0
   -1.5440   -1.9160   -1.7740 C   0  0  0  0  0  0  0  0  0  0  0  0
   -1.2030   -3.0980   -0.9790 C   0  0  0  0  0  0  0  0  0  0  0  0
   -1.9960   -4.2130   -0.7020 C   0  0  0  0  0  0  0  0  0  0  0  0
   -1.3030   -5.0640    0.0590 N   0  0  0  0  0  0  0  0  0  0  0  0
   -0.0920   -4.5020    0.2630 C   0  0  0  0  0  0  0  0  0  0  0  0
   -0.0200   -3.3250   -0.3540 N   0  0  0  0  0  0  0  0  0  0  0  0
   -3.4210   -1.3040   -0.3320 C   0  0  0  0  0  0  0  0  0  0  0  0
   -3.6180   -1.2740    0.9130 O   0  0  0  0  0  0  0  0  0  0  0  0
   -4.4020   -1.8240   -1.1530 O   0  0  0  0  0  0  0  0  0  0  0  0
   -0.9740   -0.9780    0.8040 H   0  0  0  0  0  0  0  0  0  0  0  0
   -2.4710   -0.0180   -1.6780 H   0  0  0  0  0  0  0  0  0  0  0  0
   -0.6800   -1.5210   -2.3490 H   0  0  0  0  0  0  0  0  0  0  0  0
   -2.3040   -2.2160   -2.5330 H   0  0  0  0  0  0  0  0  0  0  0  0
   -3.0180   -4.3380   -1.0660 H   0  0  0  0  0  0  0  0  0  0  0  0
   -1.6300   -5.9820    0.4260 H   0  0  0  0  0  0  0  0  0  0  0  0
    0.6880   -4.9680    0.8490 H   0  0  0  0  0  0  0  0  0  0  0  0
  1  2  1  0  0  0  0
  1  6  1  0  0  0  0
  2  9  1  1  0  0  0
  2  3  1  0  0  0  0
  3 10  1  0  0  0  0
  4  5  2  0  0  0  0
  4  2  1  0  0  0  0
  7  1  1  0  0  0  0
  8  1  1  0  0  0  0
 11  3  1  0  0  0  0
 12 24  1  0  0  0  0
 12 13  1  0  0  0  0
 13 14  1  0  0  0  0
 14 25  1  0  0  0  0
 14 15  2  0  0  0  0
 15 26  1  0  0  0  0
 16 15  1  0  0  0  0
 16 17  1  0  0  0  0
 17 18  1  0  0  0  0
 17 28  1  0  0  0  0
 18 29  1  1  0  0  0
 18 19  1  0  0  0  0
 19  4  1  0  0  0  0
 20 18  1  0  0  0  0
 21 20  2  0  0  0  0
 22 16  2  0  0  0  0
 23 13  2  0  0  0  0
 23 22  1  0  0  0  0
 27 17  1  0  0  0  0
 30 19  1  0  0  0  0
 31 22  1  0  0  0  0
 32 23  1  0  0  0  0
 33 20  1  0  0  0  0
 33 44  1  0  0  0  0
 34 45  1  6  0  0  0
 34 41  1  0  0  0  0
 34 33  1  0  0  0  0
 35 36  1  0  0  0  0
 35 34  1  0  0  0  0
 36 37  2  0  0  0  0
 36 40  1  0  0  0  0
 37 38  1  0  0  0  0
 38 39  1  0  0  0  0
 38 49  1  0  0  0  0
 39 50  1  0  0  0  0
 40 39  2  0  0  0  0
 41 42  1  0  0  0  0
 43 41  2  0  0  0  0
 46 35  1  0  0  0  0
 47 35  1  0  0  0  0
 48 37  1  0  0  0  0
M  END
$$$$
