AYI.pdb
 OpenBabel07022418033D

 52 52  0  0  1  0  0  0  0  0999 V2000
    1.1940    0.8150    4.8720 C   0  0  0  0  0  0  0  0  0  0  0  0
    0.2470   -0.1580    4.2050 C   0  0  2  0  0  0  0  0  0  0  0  0
    0.5460   -1.4890    4.6880 N   0  0  0  0  0  0  0  0  0  0  0  0
    0.4100   -0.1640    2.7300 C   0  0  0  0  0  0  0  0  0  0  0  0
    0.7480   -1.2020    2.1500 O   0  0  0  0  0  0  0  0  0  0  0  0
    1.0730    1.8460    4.5300 H   0  0  0  0  0  0  0  0  0  0  0  0
    2.2270    0.4210    4.6920 H   0  0  0  0  0  0  0  0  0  0  0  0
    1.0230    0.7290    5.9670 H   0  0  0  0  0  0  0  0  0  0  0  0
   -0.7920    0.0820    4.5120 H   0  0  0  0  0  0  0  0  0  0  0  0
    1.2560   -1.9390    4.0760 H   0  0  0  0  0  0  0  0  0  0  0  0
    0.7640   -1.5220    5.6950 H   0  0  0  0  0  0  0  0  0  0  0  0
    5.4960   -2.6850    1.3430 O   0  0  0  0  0  0  0  0  0  0  0  0
    4.5590   -1.7110    1.0080 C   0  0  0  0  0  0  0  0  0  0  0  0
    4.3630   -0.5700    1.7570 C   0  0  0  0  0  0  0  0  0  0  0  0
    3.4420    0.4010    1.4390 C   0  0  0  0  0  0  0  0  0  0  0  0
    2.6580    0.2520    0.3150 C   0  0  0  0  0  0  0  0  0  0  0  0
    1.6670    1.3010   -0.0240 C   0  0  0  0  0  0  0  0  0  0  0  0
    0.3060    1.1040    0.5300 C   0  0  2  0  0  0  0  0  0  0  0  0
    0.1800    1.0280    1.9440 N   0  0  0  0  0  0  0  0  0  0  0  0
   -0.5390    0.1370   -0.2370 C   0  0  0  0  0  0  0  0  0  0  0  0
   -0.3150    0.0630   -1.4600 O   0  0  0  0  0  0  0  0  0  0  0  0
    2.8240   -0.8700   -0.4550 C   0  0  0  0  0  0  0  0  0  0  0  0
    3.7510   -1.8210   -0.1130 C   0  0  0  0  0  0  0  0  0  0  0  0
    5.9520   -2.5760    2.2420 H   0  0  0  0  0  0  0  0  0  0  0  0
    4.9820   -0.4550    2.6430 H   0  0  0  0  0  0  0  0  0  0  0  0
    3.3240    1.2990    2.0760 H   0  0  0  0  0  0  0  0  0  0  0  0
    2.1220    2.2760    0.2400 H   0  0  0  0  0  0  0  0  0  0  0  0
    1.6180    1.3240   -1.1530 H   0  0  0  0  0  0  0  0  0  0  0  0
   -0.2420    2.0970    0.2660 H   0  0  0  0  0  0  0  0  0  0  0  0
   -0.0990    1.8570    2.5560 H   0  0  0  0  0  0  0  0  0  0  0  0
    2.2090   -1.0090   -1.3570 H   0  0  0  0  0  0  0  0  0  0  0  0
    3.8980   -2.7150   -0.7080 H   0  0  0  0  0  0  0  0  0  0  0  0
   -4.1010   -2.0270   -3.1970 C   0  0  0  0  0  0  0  0  0  0  0  0
   -4.5050   -1.7570   -1.7690 C   0  0  0  0  0  0  0  0  0  0  0  0
   -3.5270   -0.9780   -0.9690 C   0  0  2  0  0  0  0  0  0  0  0  0
   -3.2730    0.3720   -1.6290 C   0  0  0  0  0  0  0  0  0  0  0  0
   -2.3660   -1.6270   -0.3750 C   0  0  2  0  0  0  0  0  0  0  0  0
   -1.5380   -0.6570    0.3570 N   0  0  0  0  0  0  0  0  0  0  0  0
   -1.5210   -2.5360   -1.1110 C   0  0  0  0  0  0  0  0  0  0  0  0
   -0.2690   -2.4190   -1.0300 O   0  0  0  0  0  0  0  0  0  0  0  0
   -1.9110   -3.5770   -1.9360 O   0  0  0  0  0  0  0  0  0  0  0  0
   -4.1520   -3.1150   -3.3830 H   0  0  0  0  0  0  0  0  0  0  0  0
   -3.0850   -1.6810   -3.4580 H   0  0  0  0  0  0  0  0  0  0  0  0
   -4.8230   -1.5230   -3.8830 H   0  0  0  0  0  0  0  0  0  0  0  0
   -5.4960   -1.2270   -1.8340 H   0  0  0  0  0  0  0  0  0  0  0  0
   -4.8100   -2.7190   -1.2520 H   0  0  0  0  0  0  0  0  0  0  0  0
   -4.1690   -0.6200   -0.0600 H   0  0  0  0  0  0  0  0  0  0  0  0
   -4.3020    0.7930   -1.8340 H   0  0  0  0  0  0  0  0  0  0  0  0
   -2.7980    0.2890   -2.6090 H   0  0  0  0  0  0  0  0  0  0  0  0
   -2.8080    1.0830   -0.9310 H   0  0  0  0  0  0  0  0  0  0  0  0
   -2.7450   -2.2970    0.4930 H   0  0  0  0  0  0  0  0  0  0  0  0
   -1.6830   -0.4970    1.4010 H   0  0  0  0  0  0  0  0  0  0  0  0
  1  8  1  0  0  0  0
  2  9  1  1  0  0  0
  2  3  1  0  0  0  0
  2  1  1  0  0  0  0
  3 11  1  0  0  0  0
  4  2  1  0  0  0  0
  5  4  2  0  0  0  0
  6  1  1  0  0  0  0
  7  1  1  0  0  0  0
 10  3  1  0  0  0  0
 12 24  1  0  0  0  0
 13 12  1  0  0  0  0
 13 14  1  0  0  0  0
 14 25  1  0  0  0  0
 15 14  2  0  0  0  0
 15 26  1  0  0  0  0
 16 15  1  0  0  0  0
 17 27  1  0  0  0  0
 17 16  1  0  0  0  0
 17 18  1  0  0  0  0
 18 29  1  6  0  0  0
 18 19  1  0  0  0  0
 19 30  1  0  0  0  0
 19  4  1  0  0  0  0
 20 38  1  0  0  0  0
 20 18  1  0  0  0  0
 21 20  2  0  0  0  0
 22 23  1  0  0  0  0
 22 16  2  0  0  0  0
 23 13  2  0  0  0  0
 28 17  1  0  0  0  0
 31 22  1  0  0  0  0
 32 23  1  0  0  0  0
 33 34  1  0  0  0  0
 34 46  1  0  0  0  0
 34 35  1  0  0  0  0
 35 37  1  0  0  0  0
 35 47  1  1  0  0  0
 36 35  1  0  0  0  0
 36 50  1  0  0  0  0
 37 38  1  0  0  0  0
 37 51  1  1  0  0  0
 38 52  1  0  0  0  0
 39 40  1  0  0  0  0
 39 37  1  0  0  0  0
 41 39  2  0  0  0  0
 42 33  1  0  0  0  0
 43 33  1  0  0  0  0
 44 33  1  0  0  0  0
 45 34  1  0  0  0  0
 48 36  1  0  0  0  0
 49 36  1  0  0  0  0
M  END
$$$$
