AYN.pdb
 OpenBabel07022418033D

 47 47  0  0  1  0  0  0  0  0999 V2000
    0.6760   -2.8440    5.0300 C   0  0  0  0  0  0  0  0  0  0  0  0
   -0.1190   -2.6860    3.7700 C   0  0  2  0  0  0  0  0  0  0  0  0
    0.4440   -3.3590    2.6350 N   0  0  0  0  0  0  0  0  0  0  0  0
   -0.2890   -1.2170    3.5160 C   0  0  0  0  0  0  0  0  0  0  0  0
   -0.7670   -0.4830    4.4000 O   0  0  0  0  0  0  0  0  0  0  0  0
    0.9200   -3.9170    5.2230 H   0  0  0  0  0  0  0  0  0  0  0  0
    1.5710   -2.1940    5.0630 H   0  0  0  0  0  0  0  0  0  0  0  0
   -0.0020   -2.5470    5.8760 H   0  0  0  0  0  0  0  0  0  0  0  0
   -1.1210   -3.1620    3.9630 H   0  0  0  0  0  0  0  0  0  0  0  0
   -0.1970   -3.1960    1.8270 H   0  0  0  0  0  0  0  0  0  0  0  0
    0.4100   -4.3810    2.8280 H   0  0  0  0  0  0  0  0  0  0  0  0
    4.4260   -0.3690   -2.5830 O   0  0  0  0  0  0  0  0  0  0  0  0
    3.6200    0.1140   -1.5620 C   0  0  0  0  0  0  0  0  0  0  0  0
    2.6760    1.1000   -1.7570 C   0  0  0  0  0  0  0  0  0  0  0  0
    1.8960    1.5510   -0.7130 C   0  0  0  0  0  0  0  0  0  0  0  0
    2.0110    1.0500    0.5770 C   0  0  0  0  0  0  0  0  0  0  0  0
    1.2030    1.5130    1.7010 C   0  0  0  0  0  0  0  0  0  0  0  0
   -0.0580    0.7870    1.9790 C   0  0  2  0  0  0  0  0  0  0  0  0
    0.0790   -0.6140    2.2860 N   0  0  0  0  0  0  0  0  0  0  0  0
   -1.0410    1.0200    0.8900 C   0  0  0  0  0  0  0  0  0  0  0  0
   -1.2540    2.1350    0.4000 O   0  0  0  0  0  0  0  0  0  0  0  0
    2.9640    0.0580    0.7650 C   0  0  0  0  0  0  0  0  0  0  0  0
    3.7310   -0.3800   -0.2810 C   0  0  0  0  0  0  0  0  0  0  0  0
    4.1020   -0.3730   -3.5530 H   0  0  0  0  0  0  0  0  0  0  0  0
    2.5770    1.4990   -2.7570 H   0  0  0  0  0  0  0  0  0  0  0  0
    1.1580    2.3310   -0.8930 H   0  0  0  0  0  0  0  0  0  0  0  0
    1.8470    1.6340    2.6060 H   0  0  0  0  0  0  0  0  0  0  0  0
    0.9060    2.5780    1.4540 H   0  0  0  0  0  0  0  0  0  0  0  0
   -0.5090    1.3280    2.8870 H   0  0  0  0  0  0  0  0  0  0  0  0
    0.4770   -1.2440    1.5580 H   0  0  0  0  0  0  0  0  0  0  0  0
    3.0590   -0.3400    1.7770 H   0  0  0  0  0  0  0  0  0  0  0  0
    4.4720   -1.1630   -0.0960 H   0  0  0  0  0  0  0  0  0  0  0  0
   -0.2270   -0.4760   -2.1860 N   0  0  0  0  0  0  0  0  0  0  0  0
   -1.3870   -1.2460   -2.3570 C   0  0  0  0  0  0  0  0  0  0  0  0
   -1.3310   -2.1550   -3.2510 O   0  0  0  0  0  0  0  0  0  0  0  0
   -2.6490   -1.1320   -1.6350 C   0  0  0  0  0  0  0  0  0  0  0  0
   -2.7570   -0.0360   -0.6470 C   0  0  2  0  0  0  0  0  0  0  0  0
   -1.7680   -0.1200    0.4060 N   0  0  0  0  0  0  0  0  0  0  0  0
   -4.1420   -0.1440   -0.0310 C   0  0  0  0  0  0  0  0  0  0  0  0
   -5.1650   -0.0960   -0.7530 O   0  0  0  0  0  0  0  0  0  0  0  0
   -4.3000   -0.2980    1.3300 O   0  0  0  0  0  0  0  0  0  0  0  0
   -0.1430    0.4650   -2.6030 H   0  0  0  0  0  0  0  0  0  0  0  0
    0.5630   -0.8520   -1.6330 H   0  0  0  0  0  0  0  0  0  0  0  0
   -3.4760   -1.0530   -2.3730 H   0  0  0  0  0  0  0  0  0  0  0  0
   -2.8450   -2.0930   -1.0880 H   0  0  0  0  0  0  0  0  0  0  0  0
   -2.7430    0.9510   -1.1460 H   0  0  0  0  0  0  0  0  0  0  0  0
   -1.5860   -1.0540    0.8200 H   0  0  0  0  0  0  0  0  0  0  0  0
  1  7  1  0  0  0  0
  1  6  1  0  0  0  0
  1  8  1  0  0  0  0
  2  9  1  1  0  0  0
  2  1  1  0  0  0  0
  3 11  1  0  0  0  0
  3  2  1  0  0  0  0
  4  2  1  0  0  0  0
  4  5  2  0  0  0  0
 10  3  1  0  0  0  0
 12 13  1  0  0  0  0
 13 23  1  0  0  0  0
 14 13  2  0  0  0  0
 14 15  1  0  0  0  0
 15 16  2  0  0  0  0
 16 22  1  0  0  0  0
 16 17  1  0  0  0  0
 17 18  1  0  0  0  0
 17 27  1  0  0  0  0
 18 19  1  0  0  0  0
 18 29  1  1  0  0  0
 19  4  1  0  0  0  0
 20 18  1  0  0  0  0
 21 20  2  0  0  0  0
 22 31  1  0  0  0  0
 23 32  1  0  0  0  0
 23 22  2  0  0  0  0
 24 12  1  0  0  0  0
 25 14  1  0  0  0  0
 26 15  1  0  0  0  0
 28 17  1  0  0  0  0
 30 19  1  0  0  0  0
 33 43  1  0  0  0  0
 34 33  1  0  0  0  0
 34 36  1  0  0  0  0
 35 34  2  0  0  0  0
 36 45  1  0  0  0  0
 36 37  1  0  0  0  0
 37 46  1  6  0  0  0
 37 39  1  0  0  0  0
 37 38  1  0  0  0  0
 38 47  1  0  0  0  0
 38 20  1  0  0  0  0
 39 41  1  0  0  0  0
 40 39  2  0  0  0  0
 42 33  1  0  0  0  0
 44 36  1  0  0  0  0
M  END
$$$$
