AYP.pdb
 OpenBabel07022418033D

 47 48  0  0  1  0  0  0  0  0999 V2000
    0.5300   -3.5080    2.3370 C   0  0  0  0  0  0  0  0  0  0  0  0
    1.1800   -2.1860    2.7020 C   0  0  2  0  0  0  0  0  0  0  0  0
    0.8420   -1.7770    4.0340 N   0  0  0  0  0  0  0  0  0  0  0  0
    0.8100   -1.1340    1.7400 C   0  0  0  0  0  0  0  0  0  0  0  0
    0.9800   -1.2610    0.4940 O   0  0  0  0  0  0  0  0  0  0  0  0
   -0.4590   -3.5830    2.8250 H   0  0  0  0  0  0  0  0  0  0  0  0
    0.4950   -3.6640    1.2600 H   0  0  0  0  0  0  0  0  0  0  0  0
    1.1490   -4.3290    2.7820 H   0  0  0  0  0  0  0  0  0  0  0  0
    2.2930   -2.3880    2.6800 H   0  0  0  0  0  0  0  0  0  0  0  0
   -0.1630   -1.5980    4.1730 H   0  0  0  0  0  0  0  0  0  0  0  0
    1.3820   -0.9490    4.3290 H   0  0  0  0  0  0  0  0  0  0  0  0
    5.3000   -0.2710   -1.8020 O   0  0  0  0  0  0  0  0  0  0  0  0
    4.2170    0.3090   -1.1510 C   0  0  0  0  0  0  0  0  0  0  0  0
    3.0950    0.7640   -1.8100 C   0  0  0  0  0  0  0  0  0  0  0  0
    2.0250    1.3390   -1.1550 C   0  0  0  0  0  0  0  0  0  0  0  0
    2.0590    1.4730    0.2090 C   0  0  0  0  0  0  0  0  0  0  0  0
    0.9700    2.0880    0.9560 C   0  0  0  0  0  0  0  0  0  0  0  0
   -0.1480    1.1630    1.3820 C   0  0  2  0  0  0  0  0  0  0  0  0
    0.2360    0.0870    2.2150 N   0  0  0  0  0  0  0  0  0  0  0  0
   -1.1790    0.9560    0.3590 C   0  0  0  0  0  0  0  0  0  0  0  0
   -1.2340    1.9530   -0.4820 O   0  0  0  0  0  0  0  0  0  0  0  0
    3.1550    1.0340    0.8980 C   0  0  0  0  0  0  0  0  0  0  0  0
    4.2080    0.4660    0.2300 C   0  0  0  0  0  0  0  0  0  0  0  0
    5.2440   -0.3390   -2.8100 H   0  0  0  0  0  0  0  0  0  0  0  0
    3.1060    0.6380   -2.8980 H   0  0  0  0  0  0  0  0  0  0  0  0
    1.1760    1.6720   -1.7560 H   0  0  0  0  0  0  0  0  0  0  0  0
    1.3130    2.6320    1.8670 H   0  0  0  0  0  0  0  0  0  0  0  0
    0.5300    2.9010    0.3070 H   0  0  0  0  0  0  0  0  0  0  0  0
   -0.7370    1.8680    2.1140 H   0  0  0  0  0  0  0  0  0  0  0  0
    0.1100    0.1510    3.2490 H   0  0  0  0  0  0  0  0  0  0  0  0
    3.2060    1.1290    1.9730 H   0  0  0  0  0  0  0  0  0  0  0  0
    5.0950    0.1070    0.7560 H   0  0  0  0  0  0  0  0  0  0  0  0
   -2.0780   -0.0620    0.1230 N   0  0  0  0  0  0  0  0  0  0  0  0
   -3.0000   -0.1010   -0.9980 C   0  0  0  0  0  0  0  0  0  0  0  0
   -4.2940   -0.4580   -0.3000 C   0  0  0  0  0  0  0  0  0  0  0  0
   -3.9030   -1.1980    0.9510 C   0  0  0  0  0  0  0  0  0  0  0  0
   -2.3620   -1.2350    0.8790 C   0  0  1  0  0  0  0  0  0  0  0  0
   -2.0170   -2.5110    0.2190 C   0  0  0  0  0  0  0  0  0  0  0  0
   -1.4520   -2.5060   -0.8960 O   0  0  0  0  0  0  0  0  0  0  0  0
   -2.2930   -3.7490    0.7810 O   0  0  0  0  0  0  0  0  0  0  0  0
   -2.7460   -0.8520   -1.7660 H   0  0  0  0  0  0  0  0  0  0  0  0
   -3.0910    0.9130   -1.4660 H   0  0  0  0  0  0  0  0  0  0  0  0
   -4.8130    0.4990   -0.0350 H   0  0  0  0  0  0  0  0  0  0  0  0
   -4.9660   -1.0470   -0.9500 H   0  0  0  0  0  0  0  0  0  0  0  0
   -4.1870   -0.6410    1.8690 H   0  0  0  0  0  0  0  0  0  0  0  0
   -4.2860   -2.2240    0.9430 H   0  0  0  0  0  0  0  0  0  0  0  0
   -1.9660   -1.1900    1.9260 H   0  0  0  0  0  0  0  0  0  0  0  0
  1  2  1  0  0  0  0
  1  8  1  0  0  0  0
  1  6  1  0  0  0  0
  2  9  1  6  0  0  0
  2  3  1  0  0  0  0
  3 10  1  0  0  0  0
  3 11  1  0  0  0  0
  4 19  1  0  0  0  0
  4  2  1  0  0  0  0
  5  4  2  0  0  0  0
  7  1  1  0  0  0  0
 12 13  1  0  0  0  0
 13 23  1  0  0  0  0
 14 15  1  0  0  0  0
 14 13  2  0  0  0  0
 15 16  2  0  0  0  0
 16 22  1  0  0  0  0
 16 17  1  0  0  0  0
 17 18  1  0  0  0  0
 17 27  1  0  0  0  0
 18 29  1  1  0  0  0
 18 19  1  0  0  0  0
 19 30  1  0  0  0  0
 20 18  1  0  0  0  0
 21 20  2  0  0  0  0
 22 31  1  0  0  0  0
 23 32  1  0  0  0  0
 23 22  2  0  0  0  0
 24 12  1  0  0  0  0
 25 14  1  0  0  0  0
 26 15  1  0  0  0  0
 28 17  1  0  0  0  0
 33 20  1  0  0  0  0
 33 37  1  0  0  0  0
 34 35  1  0  0  0  0
 34 33  1  0  0  0  0
 35 43  1  0  0  0  0
 35 36  1  0  0  0  0
 36 45  1  0  0  0  0
 37 36  1  0  0  0  0
 37 47  1  1  0  0  0
 38 40  1  0  0  0  0
 38 37  1  0  0  0  0
 39 38  2  0  0  0  0
 41 34  1  0  0  0  0
 42 34  1  0  0  0  0
 44 35  1  0  0  0  0
 46 36  1  0  0  0  0
M  END
$$$$
