AYQ.pdb
 OpenBabel07022418033D

 50 50  0  0  1  0  0  0  0  0999 V2000
   -0.6260    3.4090    2.4960 C   0  0  0  0  0  0  0  0  0  0  0  0
   -0.1270    3.7010    1.0960 C   0  0  2  0  0  0  0  0  0  0  0  0
   -0.8910    4.7480    0.4760 N   0  0  0  0  0  0  0  0  0  0  0  0
   -0.2150    2.4700    0.2770 C   0  0  0  0  0  0  0  0  0  0  0  0
   -0.9120    2.5250   -0.7860 O   0  0  0  0  0  0  0  0  0  0  0  0
    0.2360    3.2750    3.1840 H   0  0  0  0  0  0  0  0  0  0  0  0
   -1.2080    4.2900    2.8590 H   0  0  0  0  0  0  0  0  0  0  0  0
   -1.2370    2.4940    2.4560 H   0  0  0  0  0  0  0  0  0  0  0  0
    0.9400    4.0300    1.1310 H   0  0  0  0  0  0  0  0  0  0  0  0
   -1.2830    4.4790   -0.4540 H   0  0  0  0  0  0  0  0  0  0  0  0
   -1.6750    5.0580    1.0720 H   0  0  0  0  0  0  0  0  0  0  0  0
    5.9060   -0.8940    2.9560 O   0  0  0  0  0  0  0  0  0  0  0  0
    4.8650   -0.7470    2.0340 C   0  0  0  0  0  0  0  0  0  0  0  0
    4.5880    0.4950    1.5140 C   0  0  0  0  0  0  0  0  0  0  0  0
    3.5440    0.6360    0.5910 C   0  0  0  0  0  0  0  0  0  0  0  0
    2.7920   -0.4490    0.1960 C   0  0  0  0  0  0  0  0  0  0  0  0
    1.7140   -0.2590   -0.7680 C   0  0  0  0  0  0  0  0  0  0  0  0
    0.3730    0.0620   -0.1310 C   0  0  2  0  0  0  0  0  0  0  0  0
    0.4500    1.2730    0.6590 N   0  0  0  0  0  0  0  0  0  0  0  0
   -0.2070   -1.0680    0.6190 C   0  0  0  0  0  0  0  0  0  0  0  0
   -0.5020   -0.9010    1.8200 O   0  0  0  0  0  0  0  0  0  0  0  0
    3.0640   -1.6900    0.7120 C   0  0  0  0  0  0  0  0  0  0  0  0
    4.1060   -1.8270    1.6330 C   0  0  0  0  0  0  0  0  0  0  0  0
    5.7900   -0.6400    3.9370 H   0  0  0  0  0  0  0  0  0  0  0  0
    5.1870    1.3360    1.8340 H   0  0  0  0  0  0  0  0  0  0  0  0
    3.3870    1.6440    0.2270 H   0  0  0  0  0  0  0  0  0  0  0  0
    1.9170    0.5680   -1.4860 H   0  0  0  0  0  0  0  0  0  0  0  0
    1.5580   -1.1860   -1.3620 H   0  0  0  0  0  0  0  0  0  0  0  0
   -0.2830    0.3160   -1.0220 H   0  0  0  0  0  0  0  0  0  0  0  0
    1.0020    1.2910    1.5360 H   0  0  0  0  0  0  0  0  0  0  0  0
    2.5250   -2.5880    0.4560 H   0  0  0  0  0  0  0  0  0  0  0  0
    4.3240   -2.8060    2.0410 H   0  0  0  0  0  0  0  0  0  0  0  0
   -5.6280   -1.9250   -0.4420 N   0  0  0  0  0  0  0  0  0  0  0  0
   -4.5760   -2.9000   -0.4490 C   0  0  0  0  0  0  0  0  0  0  0  0
   -4.7890   -4.0080   -0.9960 O   0  0  0  0  0  0  0  0  0  0  0  0
   -3.2890   -2.5690    0.1830 C   0  0  0  0  0  0  0  0  0  0  0  0
   -2.3740   -3.7490    0.0380 C   0  0  0  0  0  0  0  0  0  0  0  0
   -1.0020   -3.4580    0.6850 C   0  0  2  0  0  0  0  0  0  0  0  0
   -0.4330   -2.3100    0.0100 N   0  0  0  0  0  0  0  0  0  0  0  0
   -0.1800   -4.6420    0.3840 C   0  0  0  0  0  0  0  0  0  0  0  0
    0.8110   -4.5340   -0.3690 O   0  0  0  0  0  0  0  0  0  0  0  0
   -0.5090   -5.8710    0.9390 O   0  0  0  0  0  0  0  0  0  0  0  0
   -6.2310   -1.7910    0.4090 H   0  0  0  0  0  0  0  0  0  0  0  0
   -5.8230   -1.3290   -1.2720 H   0  0  0  0  0  0  0  0  0  0  0  0
   -3.4980   -2.3200    1.2480 H   0  0  0  0  0  0  0  0  0  0  0  0
   -2.8300   -1.7150   -0.3540 H   0  0  0  0  0  0  0  0  0  0  0  0
   -2.8510   -4.6140    0.5420 H   0  0  0  0  0  0  0  0  0  0  0  0
   -2.2610   -3.9890   -1.0190 H   0  0  0  0  0  0  0  0  0  0  0  0
   -1.1400   -3.2630    1.7650 H   0  0  0  0  0  0  0  0  0  0  0  0
   -0.1790   -2.4380   -1.0050 H   0  0  0  0  0  0  0  0  0  0  0  0
  1  7  1  0  0  0  0
  1  6  1  0  0  0  0
  2  9  1  1  0  0  0
  2  1  1  0  0  0  0
  3 11  1  0  0  0  0
  3  2  1  0  0  0  0
  4 19  1  0  0  0  0
  4  2  1  0  0  0  0
  5  4  2  0  0  0  0
  8  1  1  0  0  0  0
 10  3  1  0  0  0  0
 12 24  1  0  0  0  0
 13 12  1  0  0  0  0
 14 25  1  0  0  0  0
 14 13  2  0  0  0  0
 15 14  1  0  0  0  0
 16 15  2  0  0  0  0
 16 22  1  0  0  0  0
 17 18  1  0  0  0  0
 17 16  1  0  0  0  0
 18 29  1  6  0  0  0
 18 20  1  0  0  0  0
 18 19  1  0  0  0  0
 19 30  1  0  0  0  0
 20 21  2  0  0  0  0
 22 23  2  0  0  0  0
 23 13  1  0  0  0  0
 23 32  1  0  0  0  0
 26 15  1  0  0  0  0
 27 17  1  0  0  0  0
 28 17  1  0  0  0  0
 31 22  1  0  0  0  0
 33 43  1  0  0  0  0
 34 33  1  0  0  0  0
 34 36  1  0  0  0  0
 35 34  2  0  0  0  0
 36 45  1  0  0  0  0
 37 36  1  0  0  0  0
 37 47  1  0  0  0  0
 37 38  1  0  0  0  0
 38 49  1  1  0  0  0
 39 20  1  0  0  0  0
 39 38  1  0  0  0  0
 40 38  1  0  0  0  0
 40 42  1  0  0  0  0
 41 40  2  0  0  0  0
 44 33  1  0  0  0  0
 46 36  1  0  0  0  0
 48 37  1  0  0  0  0
 50 39  1  0  0  0  0
M  END
$$$$
