AYT.pdb
 OpenBabel07022418033D

 47 47  0  0  1  0  0  0  0  0999 V2000
    2.5230   -0.9950    5.3530 C   0  0  0  0  0  0  0  0  0  0  0  0
    1.3050   -1.4100    4.5450 C   0  0  2  0  0  0  0  0  0  0  0  0
    1.6790   -2.5900    3.7880 N   0  0  0  0  0  0  0  0  0  0  0  0
    0.9080   -0.3460    3.5850 C   0  0  0  0  0  0  0  0  0  0  0  0
    0.5320    0.7980    3.9670 O   0  0  0  0  0  0  0  0  0  0  0  0
    2.6000   -1.6360    6.2550 H   0  0  0  0  0  0  0  0  0  0  0  0
    3.4120   -1.1380    4.7270 H   0  0  0  0  0  0  0  0  0  0  0  0
    2.4310    0.0480    5.7320 H   0  0  0  0  0  0  0  0  0  0  0  0
    0.4910   -1.6130    5.2530 H   0  0  0  0  0  0  0  0  0  0  0  0
    1.3550   -3.4720    4.2090 H   0  0  0  0  0  0  0  0  0  0  0  0
    2.7020   -2.5820    3.5560 H   0  0  0  0  0  0  0  0  0  0  0  0
    0.5150    4.3450   -3.9080 O   0  0  0  0  0  0  0  0  0  0  0  0
    0.8120    3.4960   -2.8530 C   0  0  0  0  0  0  0  0  0  0  0  0
    1.2310    3.9550   -1.6220 C   0  0  0  0  0  0  0  0  0  0  0  0
    1.5220    3.0950   -0.5840 C   0  0  0  0  0  0  0  0  0  0  0  0
    1.4030    1.7310   -0.7420 C   0  0  0  0  0  0  0  0  0  0  0  0
    1.7020    0.7330    0.3040 C   0  0  0  0  0  0  0  0  0  0  0  0
    0.5620    0.4170    1.2000 C   0  0  2  0  0  0  0  0  0  0  0  0
    0.9330   -0.5670    2.1910 N   0  0  0  0  0  0  0  0  0  0  0  0
   -0.6120   -0.1140    0.4750 C   0  0  0  0  0  0  0  0  0  0  0  0
   -1.1710    0.5520   -0.4300 O   0  0  0  0  0  0  0  0  0  0  0  0
    0.9850    1.2730   -1.9710 C   0  0  0  0  0  0  0  0  0  0  0  0
    0.6880    2.1390   -3.0300 C   0  0  0  0  0  0  0  0  0  0  0  0
    0.8740    4.2010   -4.8490 H   0  0  0  0  0  0  0  0  0  0  0  0
    1.3230    5.0240   -1.5000 H   0  0  0  0  0  0  0  0  0  0  0  0
    1.8500    3.4670    0.3810 H   0  0  0  0  0  0  0  0  0  0  0  0
    2.5250    1.1940    0.9180 H   0  0  0  0  0  0  0  0  0  0  0  0
    2.0820   -0.1830   -0.2200 H   0  0  0  0  0  0  0  0  0  0  0  0
    0.2540    1.3790    1.7000 H   0  0  0  0  0  0  0  0  0  0  0  0
    1.2380   -1.5020    1.8440 H   0  0  0  0  0  0  0  0  0  0  0  0
    0.8570    0.2170   -2.2220 H   0  0  0  0  0  0  0  0  0  0  0  0
    0.3610    1.7630   -3.9890 H   0  0  0  0  0  0  0  0  0  0  0  0
   -1.4760   -4.2630    0.1290 C   0  0  0  0  0  0  0  0  0  0  0  0
   -1.9720   -3.1490   -0.7710 C   0  0  1  0  0  0  0  0  0  0  0  0
   -3.1070   -3.6040   -1.4370 O   0  0  0  0  0  0  0  0  0  0  0  0
   -2.3140   -1.9140    0.0510 C   0  0  2  0  0  0  0  0  0  0  0  0
   -1.1770   -1.4070    0.7570 N   0  0  0  0  0  0  0  0  0  0  0  0
   -3.4760   -2.1670    0.9220 C   0  0  0  0  0  0  0  0  0  0  0  0
   -3.4130   -1.9410    2.1470 O   0  0  0  0  0  0  0  0  0  0  0  0
   -4.6410   -2.6580    0.3740 O   0  0  0  0  0  0  0  0  0  0  0  0
   -1.3050   -3.9370    1.1660 H   0  0  0  0  0  0  0  0  0  0  0  0
   -2.2030   -5.1150    0.1780 H   0  0  0  0  0  0  0  0  0  0  0  0
   -0.5510   -4.7070   -0.3330 H   0  0  0  0  0  0  0  0  0  0  0  0
   -1.2280   -2.9030   -1.5560 H   0  0  0  0  0  0  0  0  0  0  0  0
   -3.5220   -2.8580   -1.9220 H   0  0  0  0  0  0  0  0  0  0  0  0
   -2.6310   -1.1400   -0.7040 H   0  0  0  0  0  0  0  0  0  0  0  0
   -0.7340   -1.9920    1.5090 H   0  0  0  0  0  0  0  0  0  0  0  0
  1  8  1  0  0  0  0
  1  6  1  0  0  0  0
  2  9  1  1  0  0  0
  2  1  1  0  0  0  0
  3 10  1  0  0  0  0
  3  2  1  0  0  0  0
  4  5  2  0  0  0  0
  4  2  1  0  0  0  0
  7  1  1  0  0  0  0
 11  3  1  0  0  0  0
 12 13  1  0  0  0  0
 13 14  1  0  0  0  0
 14 25  1  0  0  0  0
 14 15  2  0  0  0  0
 15 26  1  0  0  0  0
 16 15  1  0  0  0  0
 16 17  1  0  0  0  0
 17 27  1  0  0  0  0
 17 18  1  0  0  0  0
 18 29  1  1  0  0  0
 18 19  1  0  0  0  0
 19  4  1  0  0  0  0
 20 37  1  0  0  0  0
 20 18  1  0  0  0  0
 21 20  2  0  0  0  0
 22 16  2  0  0  0  0
 23 13  2  0  0  0  0
 23 22  1  0  0  0  0
 24 12  1  0  0  0  0
 28 17  1  0  0  0  0
 30 19  1  0  0  0  0
 31 22  1  0  0  0  0
 32 23  1  0  0  0  0
 33 42  1  0  0  0  0
 33 41  1  0  0  0  0
 34 44  1  6  0  0  0
 34 36  1  0  0  0  0
 34 33  1  0  0  0  0
 35 34  1  0  0  0  0
 36 46  1  6  0  0  0
 36 37  1  0  0  0  0
 36 38  1  0  0  0  0
 37 47  1  0  0  0  0
 38 39  1  0  0  0  0
 40 38  2  0  0  0  0
 43 33  1  0  0  0  0
 45 35  1  0  0  0  0
M  END
$$$$
