AYV.pdb
 OpenBabel07022418033D

 49 49  0  0  1  0  0  0  0  0999 V2000
   -1.1270   -1.5730    3.6100 C   0  0  0  0  0  0  0  0  0  0  0  0
   -0.7100   -0.2580    4.2360 C   0  0  2  0  0  0  0  0  0  0  0  0
   -1.6970    0.2610    5.1160 N   0  0  0  0  0  0  0  0  0  0  0  0
   -0.3280    0.7320    3.2090 C   0  0  0  0  0  0  0  0  0  0  0  0
   -0.7970    1.8960    3.3030 O   0  0  0  0  0  0  0  0  0  0  0  0
   -2.1110   -1.5010    3.1040 H   0  0  0  0  0  0  0  0  0  0  0  0
   -0.3680   -1.9620    2.9160 H   0  0  0  0  0  0  0  0  0  0  0  0
   -1.2380   -2.3200    4.4190 H   0  0  0  0  0  0  0  0  0  0  0  0
    0.2020   -0.4600    4.8640 H   0  0  0  0  0  0  0  0  0  0  0  0
   -2.3570   -0.4410    5.5000 H   0  0  0  0  0  0  0  0  0  0  0  0
   -2.1200    1.1670    4.8700 H   0  0  0  0  0  0  0  0  0  0  0  0
    4.6330   -3.3300   -1.0070 O   0  0  0  0  0  0  0  0  0  0  0  0
    4.0790   -2.1630   -0.5250 C   0  0  0  0  0  0  0  0  0  0  0  0
    3.5790   -1.2410   -1.4310 C   0  0  0  0  0  0  0  0  0  0  0  0
    3.0210   -0.0710   -0.9810 C   0  0  0  0  0  0  0  0  0  0  0  0
    2.9480    0.2060    0.3570 C   0  0  0  0  0  0  0  0  0  0  0  0
    2.3480    1.4870    0.8500 C   0  0  0  0  0  0  0  0  0  0  0  0
    0.8990    1.4320    1.1180 C   0  0  2  0  0  0  0  0  0  0  0  0
    0.5270    0.4530    2.1270 N   0  0  0  0  0  0  0  0  0  0  0  0
    0.0590    1.1480   -0.0970 C   0  0  0  0  0  0  0  0  0  0  0  0
    0.2230    1.8100   -1.1560 O   0  0  0  0  0  0  0  0  0  0  0  0
    3.4400   -0.7020    1.2620 C   0  0  0  0  0  0  0  0  0  0  0  0
    4.0010   -1.8740    0.8190 C   0  0  0  0  0  0  0  0  0  0  0  0
    5.4780   -3.3420   -1.5500 H   0  0  0  0  0  0  0  0  0  0  0  0
    3.6280   -1.4380   -2.5150 H   0  0  0  0  0  0  0  0  0  0  0  0
    2.6200    0.6700   -1.7060 H   0  0  0  0  0  0  0  0  0  0  0  0
    2.6370    2.3210    0.1560 H   0  0  0  0  0  0  0  0  0  0  0  0
    2.8750    1.7180    1.7960 H   0  0  0  0  0  0  0  0  0  0  0  0
    0.5690    2.4550    1.4510 H   0  0  0  0  0  0  0  0  0  0  0  0
    0.9190   -0.5120    2.0390 H   0  0  0  0  0  0  0  0  0  0  0  0
    3.3940   -0.5040    2.3440 H   0  0  0  0  0  0  0  0  0  0  0  0
    4.3990   -2.6180    1.5310 H   0  0  0  0  0  0  0  0  0  0  0  0
   -0.6800   -2.3720   -1.7260 C   0  0  0  0  0  0  0  0  0  0  0  0
   -1.9460   -1.5840   -1.5330 C   0  0  0  0  0  0  0  0  0  0  0  0
   -2.8360   -2.2470   -0.5080 C   0  0  0  0  0  0  0  0  0  0  0  0
   -1.7470   -0.1270   -1.2900 C   0  0  2  0  0  0  0  0  0  0  0  0
   -0.9380    0.1470   -0.1130 N   0  0  0  0  0  0  0  0  0  0  0  0
   -3.0940    0.5430   -1.1350 C   0  0  0  0  0  0  0  0  0  0  0  0
   -3.3110    1.1840   -0.1170 O   0  0  0  0  0  0  0  0  0  0  0  0
   -4.0020    0.4010   -2.1360 O   0  0  0  0  0  0  0  0  0  0  0  0
   -0.7450   -3.1270   -2.5460 H   0  0  0  0  0  0  0  0  0  0  0  0
    0.1900   -1.7250   -1.9550 H   0  0  0  0  0  0  0  0  0  0  0  0
   -0.4090   -2.9610   -0.8040 H   0  0  0  0  0  0  0  0  0  0  0  0
   -2.5070   -1.6650   -2.5150 H   0  0  0  0  0  0  0  0  0  0  0  0
   -3.2700   -3.1590   -0.9940 H   0  0  0  0  0  0  0  0  0  0  0  0
   -2.3240   -2.5830    0.3940 H   0  0  0  0  0  0  0  0  0  0  0  0
   -3.7280   -1.5920   -0.3050 H   0  0  0  0  0  0  0  0  0  0  0  0
   -1.3420    0.3430   -2.2000 H   0  0  0  0  0  0  0  0  0  0  0  0
   -1.0930   -0.4020    0.7520 H   0  0  0  0  0  0  0  0  0  0  0  0
  1  2  1  0  0  0  0
  1  8  1  0  0  0  0
  2  9  1  1  0  0  0
  2  3  1  0  0  0  0
  3 10  1  0  0  0  0
  4  5  2  0  0  0  0
  4  2  1  0  0  0  0
  6  1  1  0  0  0  0
  7  1  1  0  0  0  0
 11  3  1  0  0  0  0
 12 13  1  0  0  0  0
 13 23  1  0  0  0  0
 14 15  1  0  0  0  0
 14 13  2  0  0  0  0
 15 16  2  0  0  0  0
 16 17  1  0  0  0  0
 16 22  1  0  0  0  0
 17 18  1  0  0  0  0
 17 28  1  0  0  0  0
 18 29  1  1  0  0  0
 18 19  1  0  0  0  0
 19  4  1  0  0  0  0
 20 18  1  0  0  0  0
 21 20  2  0  0  0  0
 22 31  1  0  0  0  0
 23 22  2  0  0  0  0
 23 32  1  0  0  0  0
 24 12  1  0  0  0  0
 25 14  1  0  0  0  0
 26 15  1  0  0  0  0
 27 17  1  0  0  0  0
 30 19  1  0  0  0  0
 33 34  1  0  0  0  0
 33 43  1  0  0  0  0
 34 36  1  0  0  0  0
 34 35  1  0  0  0  0
 35 47  1  0  0  0  0
 35 46  1  0  0  0  0
 36 48  1  6  0  0  0
 36 38  1  0  0  0  0
 36 37  1  0  0  0  0
 37 20  1  0  0  0  0
 37 49  1  0  0  0  0
 38 39  1  0  0  0  0
 40 38  2  0  0  0  0
 41 33  1  0  0  0  0
 42 33  1  0  0  0  0
 44 34  1  0  0  0  0
 45 35  1  0  0  0  0
M  END
$$$$
