AYW.pdb
 OpenBabel07022418033D

 57 59  0  0  1  0  0  0  0  0999 V2000
   -0.0510   -0.5800    4.3110 C   0  0  0  0  0  0  0  0  0  0  0  0
    1.1690    0.2960    4.2200 C   0  0  2  0  0  0  0  0  0  0  0  0
    1.1820    1.3200    5.2340 N   0  0  0  0  0  0  0  0  0  0  0  0
    1.3580    0.8580    2.8590 C   0  0  0  0  0  0  0  0  0  0  0  0
    1.5140    2.0830    2.6770 O   0  0  0  0  0  0  0  0  0  0  0  0
    0.1140   -1.5540    3.7880 H   0  0  0  0  0  0  0  0  0  0  0  0
   -0.2100   -0.8410    5.3790 H   0  0  0  0  0  0  0  0  0  0  0  0
   -0.9740   -0.0880    3.9600 H   0  0  0  0  0  0  0  0  0  0  0  0
    2.0530   -0.3690    4.4440 H   0  0  0  0  0  0  0  0  0  0  0  0
    2.1310    1.4520    5.6740 H   0  0  0  0  0  0  0  0  0  0  0  0
    0.5480    1.0350    6.0340 H   0  0  0  0  0  0  0  0  0  0  0  0
    7.0660    1.6460    3.1430 O   0  0  0  0  0  0  0  0  0  0  0  0
    6.0180    1.1850    2.3510 C   0  0  0  0  0  0  0  0  0  0  0  0
    5.6220    1.8940    1.2340 C   0  0  0  0  0  0  0  0  0  0  0  0
    4.5970    1.4840    0.4230 C   0  0  0  0  0  0  0  0  0  0  0  0
    3.9130    0.3250    0.7000 C   0  0  0  0  0  0  0  0  0  0  0  0
    2.7840   -0.1330   -0.1880 C   0  0  0  0  0  0  0  0  0  0  0  0
    1.5420    0.4750    0.3590 C   0  0  2  0  0  0  0  0  0  0  0  0
    1.3650    0.0110    1.7210 N   0  0  0  0  0  0  0  0  0  0  0  0
    0.3130    0.1280   -0.3790 C   0  0  0  0  0  0  0  0  0  0  0  0
    0.2620    0.4470   -1.5970 O   0  0  0  0  0  0  0  0  0  0  0  0
    4.2950   -0.3970    1.8110 C   0  0  0  0  0  0  0  0  0  0  0  0
    5.3300    0.0220    2.6270 C   0  0  0  0  0  0  0  0  0  0  0  0
    7.7200    1.0410    3.6090 H   0  0  0  0  0  0  0  0  0  0  0  0
    6.1460    2.8170    0.9910 H   0  0  0  0  0  0  0  0  0  0  0  0
    4.2770    2.0400   -0.4640 H   0  0  0  0  0  0  0  0  0  0  0  0
    2.9470    0.2520   -1.2310 H   0  0  0  0  0  0  0  0  0  0  0  0
    2.8140   -1.2260   -0.1640 H   0  0  0  0  0  0  0  0  0  0  0  0
    1.6740    1.5780    0.3840 H   0  0  0  0  0  0  0  0  0  0  0  0
    1.2350   -1.0090    1.8810 H   0  0  0  0  0  0  0  0  0  0  0  0
    3.7770   -1.3190    2.0610 H   0  0  0  0  0  0  0  0  0  0  0  0
    5.6300   -0.5580    3.5100 H   0  0  0  0  0  0  0  0  0  0  0  0
   -0.8040   -0.5310    0.1790 N   0  0  0  0  0  0  0  0  0  0  0  0
   -2.0060   -0.8650   -0.5570 C   0  0  1  0  0  0  0  0  0  0  0  0
   -2.2840   -2.3500   -0.5190 C   0  0  0  0  0  0  0  0  0  0  0  0
   -3.4850   -2.7320   -1.2470 C   0  0  0  0  0  0  0  0  0  0  0  0
   -4.6980   -3.0660   -0.6950 C   0  0  0  0  0  0  0  0  0  0  0  0
   -5.5800   -3.3640   -1.6920 N   0  0  0  0  0  0  0  0  0  0  0  0
   -4.9230   -3.2190   -2.8750 C   0  0  0  0  0  0  0  0  0  0  0  0
   -5.3100   -3.3820   -4.1760 C   0  0  0  0  0  0  0  0  0  0  0  0
   -4.4740   -3.1800   -5.2530 C   0  0  0  0  0  0  0  0  0  0  0  0
   -3.1860   -2.7920   -4.9890 C   0  0  0  0  0  0  0  0  0  0  0  0
   -2.7640   -2.6180   -3.6910 C   0  0  0  0  0  0  0  0  0  0  0  0
   -3.6280   -2.8290   -2.6110 C   0  0  0  0  0  0  0  0  0  0  0  0
   -3.1750   -0.0990    0.0040 C   0  0  0  0  0  0  0  0  0  0  0  0
   -4.3110   -0.2760   -0.5210 O   0  0  0  0  0  0  0  0  0  0  0  0
   -3.0260    0.7750    1.0640 O   0  0  0  0  0  0  0  0  0  0  0  0
   -0.7300   -0.7840    1.1950 H   0  0  0  0  0  0  0  0  0  0  0  0
   -1.8790   -0.5220   -1.6100 H   0  0  0  0  0  0  0  0  0  0  0  0
   -1.3480   -2.8380   -0.9210 H   0  0  0  0  0  0  0  0  0  0  0  0
   -2.3040   -2.6410    0.5590 H   0  0  0  0  0  0  0  0  0  0  0  0
   -4.9820   -3.1070    0.3510 H   0  0  0  0  0  0  0  0  0  0  0  0
   -6.5740   -3.6490   -1.5530 H   0  0  0  0  0  0  0  0  0  0  0  0
   -6.3430   -3.6910   -4.3550 H   0  0  0  0  0  0  0  0  0  0  0  0
   -4.8340   -3.3230   -6.2710 H   0  0  0  0  0  0  0  0  0  0  0  0
   -2.4860   -2.6190   -5.8130 H   0  0  0  0  0  0  0  0  0  0  0  0
   -1.7280   -2.3080   -3.4880 H   0  0  0  0  0  0  0  0  0  0  0  0
  1  7  1  0  0  0  0
  2  1  1  0  0  0  0
  2  9  1  1  0  0  0
  2  3  1  0  0  0  0
  3 10  1  0  0  0  0
  3 11  1  0  0  0  0
  4  2  1  0  0  0  0
  5  4  2  0  0  0  0
  6  1  1  0  0  0  0
  8  1  1  0  0  0  0
 12 24  1  0  0  0  0
 13 23  1  0  0  0  0
 13 12  1  0  0  0  0
 14 13  2  0  0  0  0
 15 16  2  0  0  0  0
 15 14  1  0  0  0  0
 16 22  1  0  0  0  0
 17 28  1  0  0  0  0
 17 18  1  0  0  0  0
 17 16  1  0  0  0  0
 18 29  1  1  0  0  0
 18 19  1  0  0  0  0
 19 30  1  0  0  0  0
 19  4  1  0  0  0  0
 20 33  1  0  0  0  0
 20 18  1  0  0  0  0
 21 20  2  0  0  0  0
 22 31  1  0  0  0  0
 22 23  2  0  0  0  0
 23 32  1  0  0  0  0
 25 14  1  0  0  0  0
 26 15  1  0  0  0  0
 27 17  1  0  0  0  0
 33 48  1  0  0  0  0
 34 49  1  6  0  0  0
 34 35  1  0  0  0  0
 34 45  1  0  0  0  0
 34 33  1  0  0  0  0
 35 51  1  0  0  0  0
 36 37  2  0  0  0  0
 36 35  1  0  0  0  0
 37 52  1  0  0  0  0
 38 53  1  0  0  0  0
 38 37  1  0  0  0  0
 39 44  1  0  0  0  0
 39 38  1  0  0  0  0
 40 39  2  0  0  0  0
 41 42  2  0  0  0  0
 41 40  1  0  0  0  0
 42 43  1  0  0  0  0
 43 57  1  0  0  0  0
 43 44  2  0  0  0  0
 44 36  1  0  0  0  0
 45 47  1  0  0  0  0
 46 45  2  0  0  0  0
 50 35  1  0  0  0  0
 54 40  1  0  0  0  0
 55 41  1  0  0  0  0
 56 42  1  0  0  0  0
M  END
$$$$
