AYY.pdb
 OpenBabel07022418033D

 54 55  0  0  1  0  0  0  0  0999 V2000
    3.7770   -2.0570   -0.7520 C   0  0  0  0  0  0  0  0  0  0  0  0
    3.7830   -1.2050    0.5070 C   0  0  2  0  0  0  0  0  0  0  0  0
    3.6460   -2.1040    1.6390 N   0  0  0  0  0  0  0  0  0  0  0  0
    2.6520   -0.2590    0.5010 C   0  0  0  0  0  0  0  0  0  0  0  0
    2.5780    0.6010   -0.3840 O   0  0  0  0  0  0  0  0  0  0  0  0
    4.2130   -3.0420   -0.5050 H   0  0  0  0  0  0  0  0  0  0  0  0
    4.3950   -1.5180   -1.5060 H   0  0  0  0  0  0  0  0  0  0  0  0
    2.7330   -2.1360   -1.1180 H   0  0  0  0  0  0  0  0  0  0  0  0
    4.7110   -0.6160    0.5530 H   0  0  0  0  0  0  0  0  0  0  0  0
    2.8150   -2.7230    1.4320 H   0  0  0  0  0  0  0  0  0  0  0  0
    4.5170   -2.6770    1.6860 H   0  0  0  0  0  0  0  0  0  0  0  0
    4.1990    3.9890    5.4770 O   0  0  0  0  0  0  0  0  0  0  0  0
    3.3750    3.5130    4.4590 C   0  0  0  0  0  0  0  0  0  0  0  0
    3.8800    3.1070    3.2440 C   0  0  0  0  0  0  0  0  0  0  0  0
    3.0930    2.6310    2.2170 C   0  0  0  0  0  0  0  0  0  0  0  0
    1.7360    2.5340    2.3540 C   0  0  0  0  0  0  0  0  0  0  0  0
    0.7780    2.0290    1.3460 C   0  0  0  0  0  0  0  0  0  0  0  0
    0.5160    0.5490    1.6020 C   0  0  2  0  0  0  0  0  0  0  0  0
    1.6380   -0.3050    1.4890 N   0  0  0  0  0  0  0  0  0  0  0  0
   -0.7430    0.0610    1.0340 C   0  0  0  0  0  0  0  0  0  0  0  0
   -1.8050    0.7670    1.0890 O   0  0  0  0  0  0  0  0  0  0  0  0
    1.2120    2.9450    3.5880 C   0  0  0  0  0  0  0  0  0  0  0  0
    2.0080    3.4170    4.6020 C   0  0  0  0  0  0  0  0  0  0  0  0
    3.8510    4.5540    6.2400 H   0  0  0  0  0  0  0  0  0  0  0  0
    4.9740    3.1870    3.1380 H   0  0  0  0  0  0  0  0  0  0  0  0
    3.5790    2.3520    1.3080 H   0  0  0  0  0  0  0  0  0  0  0  0
   -0.1860    2.5470    1.5170 H   0  0  0  0  0  0  0  0  0  0  0  0
    1.0750    2.2420    0.3150 H   0  0  0  0  0  0  0  0  0  0  0  0
    0.3340    0.5980    2.7480 H   0  0  0  0  0  0  0  0  0  0  0  0
    1.7660   -1.0830    2.2040 H   0  0  0  0  0  0  0  0  0  0  0  0
    0.1240    2.8780    3.7250 H   0  0  0  0  0  0  0  0  0  0  0  0
    1.5800    3.7330    5.5580 H   0  0  0  0  0  0  0  0  0  0  0  0
   -7.0000   -3.8140   -3.7540 O   0  0  0  0  0  0  0  0  0  0  0  0
   -5.7820   -3.3960   -3.2200 C   0  0  0  0  0  0  0  0  0  0  0  0
   -5.4920   -2.0530   -3.1240 C   0  0  0  0  0  0  0  0  0  0  0  0
   -4.3030   -1.5910   -2.6050 C   0  0  0  0  0  0  0  0  0  0  0  0
   -3.3260   -2.4810   -2.1460 C   0  0  0  0  0  0  0  0  0  0  0  0
   -2.0350   -2.0040   -1.6140 C   0  0  0  0  0  0  0  0  0  0  0  0
   -2.1590   -1.6680   -0.1700 C   0  0  2  0  0  0  0  0  0  0  0  0
   -0.9010   -1.1940    0.3910 N   0  0  0  0  0  0  0  0  0  0  0  0
   -2.6290   -2.8380    0.5910 C   0  0  0  0  0  0  0  0  0  0  0  0
   -3.6940   -3.4470    0.4270 O   0  0  0  0  0  0  0  0  0  0  0  0
   -3.6310   -3.8210   -2.2490 C   0  0  0  0  0  0  0  0  0  0  0  0
   -4.8320   -4.2900   -2.7740 C   0  0  0  0  0  0  0  0  0  0  0  0
   -1.7840   -3.3210    1.6140 O   0  0  0  0  0  0  0  0  0  0  0  0
   -7.1490   -4.7380   -4.1360 H   0  0  0  0  0  0  0  0  0  0  0  0
   -6.2520   -1.3660   -3.4810 H   0  0  0  0  0  0  0  0  0  0  0  0
   -4.0810   -0.5520   -2.5320 H   0  0  0  0  0  0  0  0  0  0  0  0
   -1.6030   -1.1860   -2.2280 H   0  0  0  0  0  0  0  0  0  0  0  0
   -1.3180   -2.8640   -1.7760 H   0  0  0  0  0  0  0  0  0  0  0  0
   -2.9440   -0.8720    0.0010 H   0  0  0  0  0  0  0  0  0  0  0  0
   -0.0600   -1.7990    0.3260 H   0  0  0  0  0  0  0  0  0  0  0  0
   -2.8930   -4.5670   -1.9100 H   0  0  0  0  0  0  0  0  0  0  0  0
   -5.0500   -5.3500   -2.8450 H   0  0  0  0  0  0  0  0  0  0  0  0
  1  6  1  0  0  0  0
  1  2  1  0  0  0  0
  2  9  1  1  0  0  0
  2  3  1  0  0  0  0
  3 11  1  0  0  0  0
  4  2  1  0  0  0  0
  4 19  1  0  0  0  0
  5  4  2  0  0  0  0
  7  1  1  0  0  0  0
  8  1  1  0  0  0  0
 10  3  1  0  0  0  0
 12 24  1  0  0  0  0
 13 23  1  0  0  0  0
 13 12  1  0  0  0  0
 14 13  2  0  0  0  0
 15 16  2  0  0  0  0
 15 14  1  0  0  0  0
 16 22  1  0  0  0  0
 17 27  1  0  0  0  0
 17 18  1  0  0  0  0
 17 16  1  0  0  0  0
 18 29  1  1  0  0  0
 19 18  1  0  0  0  0
 19 30  1  0  0  0  0
 20 21  2  0  0  0  0
 20 18  1  0  0  0  0
 22 31  1  0  0  0  0
 22 23  2  0  0  0  0
 23 32  1  0  0  0  0
 25 14  1  0  0  0  0
 26 15  1  0  0  0  0
 28 17  1  0  0  0  0
 33 34  1  0  0  0  0
 34 35  2  0  0  0  0
 34 44  1  0  0  0  0
 35 36  1  0  0  0  0
 36 48  1  0  0  0  0
 36 37  2  0  0  0  0
 37 38  1  0  0  0  0
 38 39  1  0  0  0  0
 39 51  1  1  0  0  0
 39 40  1  0  0  0  0
 39 41  1  0  0  0  0
 40 20  1  0  0  0  0
 41 45  1  0  0  0  0
 42 41  2  0  0  0  0
 43 37  1  0  0  0  0
 43 53  1  0  0  0  0
 44 43  2  0  0  0  0
 46 33  1  0  0  0  0
 47 35  1  0  0  0  0
 49 38  1  0  0  0  0
 50 38  1  0  0  0  0
 52 40  1  0  0  0  0
 54 44  1  0  0  0  0
M  END
$$$$
