CAF.pdb
 OpenBabel07022418263D

 43 43  0  0  1  0  0  0  0  0999 V2000
    3.0920   -3.0870    0.3180 N   0  0  0  0  0  0  0  0  0  0  0  0
    2.7650   -3.0960   -1.0870 C   0  0  1  0  0  0  0  0  0  0  0  0
    2.7230   -4.5210   -1.5970 C   0  0  0  0  0  0  0  0  0  0  0  0
    4.3970   -5.2130   -1.3090 S   0  0  0  0  0  0  0  0  0  0  0  0
    1.5170   -2.3540   -1.3690 C   0  0  0  0  0  0  0  0  0  0  0  0
    1.1440   -2.3040   -2.5740 O   0  0  0  0  0  0  0  0  0  0  0  0
    4.0900   -3.3130    0.4810 H   0  0  0  0  0  0  0  0  0  0  0  0
    2.4390   -3.6600    0.8650 H   0  0  0  0  0  0  0  0  0  0  0  0
    3.5840   -2.5850   -1.6380 H   0  0  0  0  0  0  0  0  0  0  0  0
    2.0040   -5.1510   -1.0690 H   0  0  0  0  0  0  0  0  0  0  0  0
    2.5650   -4.5690   -2.6870 H   0  0  0  0  0  0  0  0  0  0  0  0
    4.3200   -6.3220   -0.4430 H   0  0  0  0  0  0  0  0  0  0  0  0
   -1.6220   -1.7010   -0.0400 C   0  0  0  0  0  0  0  0  0  0  0  0
   -0.4540   -1.0220   -0.7700 C   0  0  2  0  0  0  0  0  0  0  0  0
    0.7370   -1.7110   -0.3760 N   0  0  0  0  0  0  0  0  0  0  0  0
   -0.4770    0.3970   -0.3340 C   0  0  0  0  0  0  0  0  0  0  0  0
   -1.4990    1.0600   -0.6460 O   0  0  0  0  0  0  0  0  0  0  0  0
   -1.8000   -1.1730    0.9190 H   0  0  0  0  0  0  0  0  0  0  0  0
   -2.5220   -1.7190   -0.6860 H   0  0  0  0  0  0  0  0  0  0  0  0
   -1.3380   -2.7410    0.2170 H   0  0  0  0  0  0  0  0  0  0  0  0
   -0.5770   -1.1120   -1.8650 H   0  0  0  0  0  0  0  0  0  0  0  0
    1.0740   -1.7710    0.6210 H   0  0  0  0  0  0  0  0  0  0  0  0
    0.5470    1.0280    0.3890 N   0  0  0  0  0  0  0  0  0  0  0  0
    0.3840    2.4290    0.7480 C   0  0  1  0  0  0  0  0  0  0  0  0
    0.3330    2.5330    2.2690 C   0  0  0  0  0  0  0  0  0  0  0  0
   -0.7930    1.7580    2.8070 C   0  0  0  0  0  0  0  0  0  0  0  0
   -0.6970    0.4320    3.1720 C   0  0  0  0  0  0  0  0  0  0  0  0
   -1.7690   -0.2780    3.6750 C   0  0  0  0  0  0  0  0  0  0  0  0
   -2.9960    0.3200    3.8360 C   0  0  0  0  0  0  0  0  0  0  0  0
   -3.1040    1.6490    3.4740 C   0  0  0  0  0  0  0  0  0  0  0  0
   -2.0350    2.3630    2.9690 C   0  0  0  0  0  0  0  0  0  0  0  0
    1.4650    3.2690    0.2070 C   0  0  0  0  0  0  0  0  0  0  0  0
    1.4750    4.5040    0.4260 O   0  0  0  0  0  0  0  0  0  0  0  0
    2.5000    2.7460   -0.5520 O   0  0  0  0  0  0  0  0  0  0  0  0
    1.3970    0.4850    0.6520 H   0  0  0  0  0  0  0  0  0  0  0  0
   -0.5850    2.8240    0.3880 H   0  0  0  0  0  0  0  0  0  0  0  0
    1.2880    2.1310    2.7080 H   0  0  0  0  0  0  0  0  0  0  0  0
    0.2910    3.6060    2.5250 H   0  0  0  0  0  0  0  0  0  0  0  0
    0.2740   -0.0340    3.0420 H   0  0  0  0  0  0  0  0  0  0  0  0
   -1.6670   -1.3330    3.9580 H   0  0  0  0  0  0  0  0  0  0  0  0
   -3.8420   -0.2250    4.2290 H   0  0  0  0  0  0  0  0  0  0  0  0
   -4.0810    2.1080    3.6060 H   0  0  0  0  0  0  0  0  0  0  0  0
   -2.1360    3.4100    2.6880 H   0  0  0  0  0  0  0  0  0  0  0  0
  1  7  1  0  0  0  0
  1  8  1  0  0  0  0
  2  9  1  6  0  0  0
  2  1  1  0  0  0  0
  3  4  1  0  0  0  0
  3  2  1  0  0  0  0
  3 10  1  0  0  0  0
  4 12  1  0  0  0  0
  5  2  1  0  0  0  0
  5 15  1  0  0  0  0
  6  5  2  0  0  0  0
 11  3  1  0  0  0  0
 13 20  1  0  0  0  0
 13 18  1  0  0  0  0
 14 21  1  6  0  0  0
 14 15  1  0  0  0  0
 14 16  1  0  0  0  0
 14 13  1  0  0  0  0
 15 22  1  0  0  0  0
 16 23  1  0  0  0  0
 17 16  2  0  0  0  0
 19 13  1  0  0  0  0
 23 35  1  0  0  0  0
 23 24  1  0  0  0  0
 24 36  1  6  0  0  0
 24 25  1  0  0  0  0
 25 38  1  0  0  0  0
 25 37  1  0  0  0  0
 25 26  1  0  0  0  0
 26 31  2  0  0  0  0
 26 27  1  0  0  0  0
 27 28  2  0  0  0  0
 28 29  1  0  0  0  0
 28 40  1  0  0  0  0
 29 41  1  0  0  0  0
 30 42  1  0  0  0  0
 30 29  2  0  0  0  0
 31 30  1  0  0  0  0
 32 33  1  0  0  0  0
 32 24  1  0  0  0  0
 34 32  2  0  0  0  0
 39 27  1  0  0  0  0
 43 31  1  0  0  0  0
M  END
$$$$
