CAG.pdb
 OpenBabel07022418253D

 30 29  0  0  1  0  0  0  0  0999 V2000
    0.8800    0.3700    3.2610 N   0  0  0  0  0  0  0  0  0  0  0  0
    0.8490   -1.0390    3.2230 C   0  0  1  0  0  0  0  0  0  0  0  0
    0.2790   -1.5540    4.5460 C   0  0  0  0  0  0  0  0  0  0  0  0
   -1.3840   -0.9580    4.8500 S   0  0  0  0  0  0  0  0  0  0  0  0
    0.1640   -1.6320    2.0770 C   0  0  0  0  0  0  0  0  0  0  0  0
    0.1120   -2.8910    2.0020 O   0  0  0  0  0  0  0  0  0  0  0  0
    0.0610    0.8780    2.9380 H   0  0  0  0  0  0  0  0  0  0  0  0
    1.7850    0.8310    3.2030 H   0  0  0  0  0  0  0  0  0  0  0  0
    1.9130   -1.4200    3.2100 H   0  0  0  0  0  0  0  0  0  0  0  0
    0.3000   -2.6760    4.5590 H   0  0  0  0  0  0  0  0  0  0  0  0
    0.9320   -1.2390    5.3860 H   0  0  0  0  0  0  0  0  0  0  0  0
   -2.2840   -1.4300    3.8800 H   0  0  0  0  0  0  0  0  0  0  0  0
   -2.5860   -1.1520   -0.1330 C   0  0  0  0  0  0  0  0  0  0  0  0
   -1.1210   -1.4890   -0.0860 C   0  0  2  0  0  0  0  0  0  0  0  0
   -0.4440   -0.8950    1.0470 N   0  0  0  0  0  0  0  0  0  0  0  0
   -0.4550   -1.1580   -1.3690 C   0  0  0  0  0  0  0  0  0  0  0  0
   -0.9470   -1.6140   -2.4160 O   0  0  0  0  0  0  0  0  0  0  0  0
   -2.7710   -0.0510   -0.0680 H   0  0  0  0  0  0  0  0  0  0  0  0
   -3.1070   -1.7280    0.6330 H   0  0  0  0  0  0  0  0  0  0  0  0
   -2.9610   -1.4750   -1.1340 H   0  0  0  0  0  0  0  0  0  0  0  0
   -1.0510   -2.5980    0.0430 H   0  0  0  0  0  0  0  0  0  0  0  0
   -0.4100    0.1430    1.0940 H   0  0  0  0  0  0  0  0  0  0  0  0
    0.7100   -0.3500   -1.4510 N   0  0  0  0  0  0  0  0  0  0  0  0
    1.3110   -0.0630   -2.7190 C   0  0  0  0  0  0  0  0  0  0  0  0
    2.4970    0.7890   -2.5280 C   0  0  0  0  0  0  0  0  0  0  0  0
    3.2140    1.1890   -3.4960 O   0  0  0  0  0  0  0  0  0  0  0  0
    2.8750    1.1890   -1.2570 O   0  0  0  0  0  0  0  0  0  0  0  0
    1.1210    0.0310   -0.5820 H   0  0  0  0  0  0  0  0  0  0  0  0
    0.6010    0.4650   -3.3950 H   0  0  0  0  0  0  0  0  0  0  0  0
    1.5940   -1.0090   -3.2250 H   0  0  0  0  0  0  0  0  0  0  0  0
  2  9  1  6  0  0  0
  2  1  1  0  0  0  0
  2  3  1  0  0  0  0
  3 10  1  0  0  0  0
  3  4  1  0  0  0  0
  3 11  1  0  0  0  0
  5  2  1  0  0  0  0
  6  5  2  0  0  0  0
  7  1  1  0  0  0  0
  8  1  1  0  0  0  0
 12  4  1  0  0  0  0
 13 14  1  0  0  0  0
 13 18  1  0  0  0  0
 13 19  1  0  0  0  0
 14 21  1  1  0  0  0
 14 15  1  0  0  0  0
 15 22  1  0  0  0  0
 15  5  1  0  0  0  0
 16 14  1  0  0  0  0
 17 16  2  0  0  0  0
 20 13  1  0  0  0  0
 23 16  1  0  0  0  0
 23 28  1  0  0  0  0
 24 25  1  0  0  0  0
 24 23  1  0  0  0  0
 25 27  1  0  0  0  0
 26 25  2  0  0  0  0
 29 24  1  0  0  0  0
 30 24  1  0  0  0  0
M  END
$$$$
