CAL.pdb
 OpenBabel07022418263D

 42 41  0  0  1  0  0  0  0  0999 V2000
   -0.7740   -2.3150    5.0200 N   0  0  0  0  0  0  0  0  0  0  0  0
   -1.0040   -2.7160    3.6190 C   0  0  1  0  0  0  0  0  0  0  0  0
   -2.1970   -1.9510    3.1650 C   0  0  0  0  0  0  0  0  0  0  0  0
   -2.7140   -2.2570    1.4810 S   0  0  0  0  0  0  0  0  0  0  0  0
    0.2420   -2.4630    2.9000 C   0  0  0  0  0  0  0  0  0  0  0  0
    1.2820   -2.0210    3.5010 O   0  0  0  0  0  0  0  0  0  0  0  0
   -1.7160   -2.4080    5.4960 H   0  0  0  0  0  0  0  0  0  0  0  0
   -0.5870   -1.2720    5.0020 H   0  0  0  0  0  0  0  0  0  0  0  0
   -1.2400   -3.8150    3.6950 H   0  0  0  0  0  0  0  0  0  0  0  0
   -2.0400   -0.8760    3.3920 H   0  0  0  0  0  0  0  0  0  0  0  0
   -3.0480   -2.2610    3.8370 H   0  0  0  0  0  0  0  0  0  0  0  0
   -3.2950   -1.1170    0.9210 H   0  0  0  0  0  0  0  0  0  0  0  0
    2.2700   -3.6450    0.2160 C   0  0  0  0  0  0  0  0  0  0  0  0
    1.6890   -2.4150    0.8400 C   0  0  2  0  0  0  0  0  0  0  0  0
    0.4420   -2.6720    1.4970 N   0  0  0  0  0  0  0  0  0  0  0  0
    1.6190   -1.2760   -0.1370 C   0  0  0  0  0  0  0  0  0  0  0  0
    2.6200   -0.9290   -0.8030 O   0  0  0  0  0  0  0  0  0  0  0  0
    2.8680   -3.4130   -0.6850 H   0  0  0  0  0  0  0  0  0  0  0  0
    2.9760   -4.1420    0.9290 H   0  0  0  0  0  0  0  0  0  0  0  0
    1.4820   -4.4190    0.0130 H   0  0  0  0  0  0  0  0  0  0  0  0
    2.4230   -2.0700    1.6250 H   0  0  0  0  0  0  0  0  0  0  0  0
   -0.3490   -3.0230    0.9350 H   0  0  0  0  0  0  0  0  0  0  0  0
    0.2560    3.0290    0.5550 C   0  0  0  0  0  0  0  0  0  0  0  0
    1.5040    2.2960    0.0980 C   0  0  0  0  0  0  0  0  0  0  0  0
    2.0200    1.5120    1.2420 C   0  0  0  0  0  0  0  0  0  0  0  0
    1.3290    1.6110   -1.2020 C   0  0  0  0  0  0  0  0  0  0  0  0
    0.2330    0.5560   -1.2340 C   0  0  2  0  0  0  0  0  0  0  0  0
    0.4210   -0.5340   -0.3560 N   0  0  0  0  0  0  0  0  0  0  0  0
   -0.1600    0.2520   -2.5970 C   0  0  0  0  0  0  0  0  0  0  0  0
   -0.3240   -0.9260   -2.9730 O   0  0  0  0  0  0  0  0  0  0  0  0
   -0.3620    1.2630   -3.5090 O   0  0  0  0  0  0  0  0  0  0  0  0
    0.5900    3.8110    1.2700 H   0  0  0  0  0  0  0  0  0  0  0  0
   -0.2660    3.5360   -0.2670 H   0  0  0  0  0  0  0  0  0  0  0  0
   -0.4120    2.3530    1.1490 H   0  0  0  0  0  0  0  0  0  0  0  0
    2.2580    3.1250   -0.0860 H   0  0  0  0  0  0  0  0  0  0  0  0
    2.9720    1.0350    1.0050 H   0  0  0  0  0  0  0  0  0  0  0  0
    1.2690    0.8510    1.7280 H   0  0  0  0  0  0  0  0  0  0  0  0
    2.2500    2.2730    2.0580 H   0  0  0  0  0  0  0  0  0  0  0  0
    1.0700    2.3940   -1.9690 H   0  0  0  0  0  0  0  0  0  0  0  0
    2.2980    1.2100   -1.5440 H   0  0  0  0  0  0  0  0  0  0  0  0
   -0.6470    1.1480   -0.7700 H   0  0  0  0  0  0  0  0  0  0  0  0
   -0.4140   -0.8640    0.2190 H   0  0  0  0  0  0  0  0  0  0  0  0
  1  7  1  0  0  0  0
  2  9  1  6  0  0  0
  2  1  1  0  0  0  0
  3 10  1  0  0  0  0
  3  2  1  0  0  0  0
  3 11  1  0  0  0  0
  4  3  1  0  0  0  0
  5  6  2  0  0  0  0
  5  2  1  0  0  0  0
  8  1  1  0  0  0  0
 12  4  1  0  0  0  0
 13 14  1  0  0  0  0
 13 19  1  0  0  0  0
 14 15  1  0  0  0  0
 14 21  1  1  0  0  0
 15  5  1  0  0  0  0
 16 14  1  0  0  0  0
 17 16  2  0  0  0  0
 18 13  1  0  0  0  0
 20 13  1  0  0  0  0
 22 15  1  0  0  0  0
 23 34  1  0  0  0  0
 23 32  1  0  0  0  0
 24 23  1  0  0  0  0
 24 25  1  0  0  0  0
 25 37  1  0  0  0  0
 25 38  1  0  0  0  0
 26 24  1  0  0  0  0
 27 26  1  0  0  0  0
 27 41  1  1  0  0  0
 27 28  1  0  0  0  0
 28 16  1  0  0  0  0
 28 42  1  0  0  0  0
 29 27  1  0  0  0  0
 30 29  1  0  0  0  0
 31 29  2  0  0  0  0
 33 23  1  0  0  0  0
 35 24  1  0  0  0  0
 36 25  1  0  0  0  0
 39 26  1  0  0  0  0
 40 26  1  0  0  0  0
M  END
$$$$
