CAM.pdb
 OpenBabel07022418263D

 40 39  0  0  1  0  0  0  0  0999 V2000
   -2.9150   -4.1580    2.4580 N   0  0  0  0  0  0  0  0  0  0  0  0
   -1.4920   -4.2550    2.5860 C   0  0  1  0  0  0  0  0  0  0  0  0
   -1.0810   -5.6490    2.1430 C   0  0  0  0  0  0  0  0  0  0  0  0
   -1.5330   -5.9920    0.4430 S   0  0  0  0  0  0  0  0  0  0  0  0
   -0.8300   -3.2420    1.6920 C   0  0  0  0  0  0  0  0  0  0  0  0
   -1.5160   -2.4710    0.9750 O   0  0  0  0  0  0  0  0  0  0  0  0
   -3.2440   -3.7990    1.5500 H   0  0  0  0  0  0  0  0  0  0  0  0
   -3.4020   -3.7670    3.2880 H   0  0  0  0  0  0  0  0  0  0  0  0
   -1.1620   -4.0860    3.6110 H   0  0  0  0  0  0  0  0  0  0  0  0
    0.0090   -5.8310    2.3020 H   0  0  0  0  0  0  0  0  0  0  0  0
   -1.6610   -6.3540    2.7970 H   0  0  0  0  0  0  0  0  0  0  0  0
   -0.4370   -6.0320   -0.4320 H   0  0  0  0  0  0  0  0  0  0  0  0
    0.7840   -2.3510   -0.7040 C   0  0  0  0  0  0  0  0  0  0  0  0
    1.1470   -2.1240    0.7430 C   0  0  2  0  0  0  0  0  0  0  0  0
    0.5740   -3.1110    1.6170 N   0  0  0  0  0  0  0  0  0  0  0  0
    0.7190   -0.7870    1.2140 C   0  0  0  0  0  0  0  0  0  0  0  0
   -0.0140   -0.7020    2.2240 O   0  0  0  0  0  0  0  0  0  0  0  0
    1.5470   -1.8000   -1.3070 H   0  0  0  0  0  0  0  0  0  0  0  0
    0.9040   -3.4090   -0.9230 H   0  0  0  0  0  0  0  0  0  0  0  0
   -0.1980   -1.9200   -0.9860 H   0  0  0  0  0  0  0  0  0  0  0  0
    2.2770   -2.1510    0.7840 H   0  0  0  0  0  0  0  0  0  0  0  0
    1.2150   -3.7080    2.1750 H   0  0  0  0  0  0  0  0  0  0  0  0
    1.6030    5.4090   -0.7240 C   0  0  0  0  0  0  0  0  0  0  0  0
    2.1260    3.7320   -1.0390 S   0  0  0  0  0  0  0  0  0  0  0  0
    2.7720    2.8780    0.3810 C   0  0  0  0  0  0  0  0  0  0  0  0
    1.8070    2.5890    1.4770 C   0  0  0  0  0  0  0  0  0  0  0  0
    0.6450    1.7290    1.0810 C   0  0  2  0  0  0  0  0  0  0  0  0
    1.0810    0.4380    0.5970 N   0  0  0  0  0  0  0  0  0  0  0  0
   -0.2620    2.3510    0.0900 C   0  0  0  0  0  0  0  0  0  0  0  0
   -0.7820    3.4730    0.2950 O   0  0  0  0  0  0  0  0  0  0  0  0
   -0.5710    1.7200   -1.1040 O   0  0  0  0  0  0  0  0  0  0  0  0
    1.7780    5.7730    0.2930 H   0  0  0  0  0  0  0  0  0  0  0  0
    0.5170    5.5670   -0.9340 H   0  0  0  0  0  0  0  0  0  0  0  0
    2.1250    6.1100   -1.4290 H   0  0  0  0  0  0  0  0  0  0  0  0
    3.5690    3.5400    0.8350 H   0  0  0  0  0  0  0  0  0  0  0  0
    3.2990    1.9550    0.0730 H   0  0  0  0  0  0  0  0  0  0  0  0
    2.3810    1.9820    2.2390 H   0  0  0  0  0  0  0  0  0  0  0  0
    1.5010    3.4990    2.0300 H   0  0  0  0  0  0  0  0  0  0  0  0
    0.0120    1.6130    2.0120 H   0  0  0  0  0  0  0  0  0  0  0  0
    1.6890    0.3860   -0.2440 H   0  0  0  0  0  0  0  0  0  0  0  0
  1  2  1  0  0  0  0
  1  8  1  0  0  0  0
  2  9  1  1  0  0  0
  3 10  1  0  0  0  0
  3  2  1  0  0  0  0
  3 11  1  0  0  0  0
  4  3  1  0  0  0  0
  5  2  1  0  0  0  0
  6  5  2  0  0  0  0
  7  1  1  0  0  0  0
 12  4  1  0  0  0  0
 13 14  1  0  0  0  0
 14 21  1  1  0  0  0
 14 16  1  0  0  0  0
 14 15  1  0  0  0  0
 15  5  1  0  0  0  0
 15 22  1  0  0  0  0
 16 17  2  0  0  0  0
 18 13  1  0  0  0  0
 19 13  1  0  0  0  0
 20 13  1  0  0  0  0
 23 32  1  0  0  0  0
 24 23  1  0  0  0  0
 24 25  1  0  0  0  0
 25 35  1  0  0  0  0
 25 26  1  0  0  0  0
 26 38  1  0  0  0  0
 26 37  1  0  0  0  0
 27 26  1  0  0  0  0
 27 39  1  1  0  0  0
 28 27  1  0  0  0  0
 28 16  1  0  0  0  0
 29 30  1  0  0  0  0
 29 27  1  0  0  0  0
 31 29  2  0  0  0  0
 33 23  1  0  0  0  0
 34 23  1  0  0  0  0
 36 25  1  0  0  0  0
 40 28  1  0  0  0  0
M  END
$$$$
