CAQ.pdb
 OpenBabel07022418263D

 40 39  0  0  1  0  0  0  0  0999 V2000
   -1.6530   -4.6650    1.6820 N   0  0  0  0  0  0  0  0  0  0  0  0
   -0.9640   -3.7900    0.7190 C   0  0  1  0  0  0  0  0  0  0  0  0
   -1.9470   -2.7520    0.3170 C   0  0  0  0  0  0  0  0  0  0  0  0
   -1.3380   -1.5640   -0.8900 S   0  0  0  0  0  0  0  0  0  0  0  0
    0.2690   -3.2990    1.3420 C   0  0  0  0  0  0  0  0  0  0  0  0
    0.5480   -3.6910    2.5170 O   0  0  0  0  0  0  0  0  0  0  0  0
   -1.6970   -4.2000    2.6000 H   0  0  0  0  0  0  0  0  0  0  0  0
   -1.1550   -5.5830    1.7490 H   0  0  0  0  0  0  0  0  0  0  0  0
   -0.6810   -4.3720   -0.1880 H   0  0  0  0  0  0  0  0  0  0  0  0
   -2.3320   -2.2130    1.2090 H   0  0  0  0  0  0  0  0  0  0  0  0
   -2.8140   -3.2710   -0.1440 H   0  0  0  0  0  0  0  0  0  0  0  0
   -1.2420   -2.1990   -2.1290 H   0  0  0  0  0  0  0  0  0  0  0  0
    3.6430   -2.4220    0.7200 C   0  0  0  0  0  0  0  0  0  0  0  0
    2.3930   -2.0150    1.4850 C   0  0  2  0  0  0  0  0  0  0  0  0
    1.2080   -2.4110    0.7610 N   0  0  0  0  0  0  0  0  0  0  0  0
    2.3880   -0.5650    1.7830 C   0  0  0  0  0  0  0  0  0  0  0  0
    3.3460   -0.0210    2.3970 O   0  0  0  0  0  0  0  0  0  0  0  0
    4.4580   -1.7500    0.9920 H   0  0  0  0  0  0  0  0  0  0  0  0
    3.3750   -2.3490   -0.3660 H   0  0  0  0  0  0  0  0  0  0  0  0
    3.8480   -3.4790    1.0060 H   0  0  0  0  0  0  0  0  0  0  0  0
    2.4230   -2.5400    2.4830 H   0  0  0  0  0  0  0  0  0  0  0  0
    1.0330   -2.0530   -0.1920 H   0  0  0  0  0  0  0  0  0  0  0  0
   -2.1290    2.0770   -1.3150 N   0  0  0  0  0  0  0  0  0  0  0  0
   -1.1140    2.4390   -0.3370 C   0  0  0  0  0  0  0  0  0  0  0  0
   -1.5810    2.8670    0.7340 O   0  0  0  0  0  0  0  0  0  0  0  0
    0.3060    2.2880   -0.6590 C   0  0  0  0  0  0  0  0  0  0  0  0
    1.2820    2.5340    0.4430 C   0  0  0  0  0  0  0  0  0  0  0  0
    1.2170    1.6870    1.6370 C   0  0  2  0  0  0  0  0  0  0  0  0
    1.3380    0.2720    1.4080 N   0  0  0  0  0  0  0  0  0  0  0  0
    0.1960    1.9810    2.6260 C   0  0  0  0  0  0  0  0  0  0  0  0
   -0.5780    1.0890    3.0600 O   0  0  0  0  0  0  0  0  0  0  0  0
   -0.0030    3.2680    3.1740 O   0  0  0  0  0  0  0  0  0  0  0  0
   -2.2080    2.7030   -2.1300 H   0  0  0  0  0  0  0  0  0  0  0  0
   -2.6860    1.2310   -1.1220 H   0  0  0  0  0  0  0  0  0  0  0  0
    0.5820    2.9600   -1.5440 H   0  0  0  0  0  0  0  0  0  0  0  0
    0.4040    1.2470   -1.0810 H   0  0  0  0  0  0  0  0  0  0  0  0
    2.3270    2.6680    0.0550 H   0  0  0  0  0  0  0  0  0  0  0  0
    1.0460    3.5980    0.7870 H   0  0  0  0  0  0  0  0  0  0  0  0
    2.2150    1.9080    2.2030 H   0  0  0  0  0  0  0  0  0  0  0  0
    0.5350   -0.1600    0.9010 H   0  0  0  0  0  0  0  0  0  0  0  0
  1  8  1  0  0  0  0
  1  7  1  0  0  0  0
  2  9  1  6  0  0  0
  2  5  1  0  0  0  0
  2  1  1  0  0  0  0
  3  2  1  0  0  0  0
  3 10  1  0  0  0  0
  4  3  1  0  0  0  0
  5  6  2  0  0  0  0
 11  3  1  0  0  0  0
 12  4  1  0  0  0  0
 13 18  1  0  0  0  0
 13 20  1  0  0  0  0
 13 14  1  0  0  0  0
 14 16  1  0  0  0  0
 14 21  1  1  0  0  0
 15  5  1  0  0  0  0
 15 14  1  0  0  0  0
 16 17  2  0  0  0  0
 19 13  1  0  0  0  0
 22 15  1  0  0  0  0
 23 34  1  0  0  0  0
 23 24  1  0  0  0  0
 24 25  2  0  0  0  0
 26 24  1  0  0  0  0
 26 27  1  0  0  0  0
 27 38  1  0  0  0  0
 27 28  1  0  0  0  0
 28 39  1  1  0  0  0
 28 30  1  0  0  0  0
 29 28  1  0  0  0  0
 29 16  1  0  0  0  0
 30 31  2  0  0  0  0
 30 32  1  0  0  0  0
 33 23  1  0  0  0  0
 35 26  1  0  0  0  0
 36 26  1  0  0  0  0
 37 27  1  0  0  0  0
 40 29  1  0  0  0  0
M  END
$$$$
