CAS.pdb
 OpenBabel07022418263D

 34 33  0  0  1  0  0  0  0  0999 V2000
   -0.5120   -1.7950    3.0580 N   0  0  0  0  0  0  0  0  0  0  0  0
    0.9140   -1.9590    2.9930 C   0  0  1  0  0  0  0  0  0  0  0  0
    1.2680   -3.3810    3.4480 C   0  0  0  0  0  0  0  0  0  0  0  0
    3.0640   -3.5610    3.3560 S   0  0  0  0  0  0  0  0  0  0  0  0
    1.4490   -1.7660    1.6250 C   0  0  0  0  0  0  0  0  0  0  0  0
    2.6780   -1.8800    1.4250 O   0  0  0  0  0  0  0  0  0  0  0  0
   -1.0290   -2.5210    2.5030 H   0  0  0  0  0  0  0  0  0  0  0  0
   -0.7970   -1.9510    4.0510 H   0  0  0  0  0  0  0  0  0  0  0  0
    1.3670   -1.2130    3.6780 H   0  0  0  0  0  0  0  0  0  0  0  0
    0.9290   -3.5460    4.4750 H   0  0  0  0  0  0  0  0  0  0  0  0
    0.7840   -4.0700    2.7070 H   0  0  0  0  0  0  0  0  0  0  0  0
    3.4330   -4.4170    2.3230 H   0  0  0  0  0  0  0  0  0  0  0  0
    0.2560   -2.3220   -1.6050 C   0  0  0  0  0  0  0  0  0  0  0  0
    0.9930   -1.2500   -0.7970 C   0  0  2  0  0  0  0  0  0  0  0  0
    0.5760   -1.4600    0.5810 N   0  0  0  0  0  0  0  0  0  0  0  0
    0.4950    0.0570   -1.3160 C   0  0  0  0  0  0  0  0  0  0  0  0
    0.7630    0.4050   -2.4950 O   0  0  0  0  0  0  0  0  0  0  0  0
    0.2610   -3.2820   -1.0480 H   0  0  0  0  0  0  0  0  0  0  0  0
    0.6630   -2.3890   -2.6130 H   0  0  0  0  0  0  0  0  0  0  0  0
   -0.8060   -1.9860   -1.6330 H   0  0  0  0  0  0  0  0  0  0  0  0
    2.0900   -1.3610   -0.9170 H   0  0  0  0  0  0  0  0  0  0  0  0
   -0.4440   -1.3710    0.7760 H   0  0  0  0  0  0  0  0  0  0  0  0
   -2.7580    1.9020    0.2820 O   0  0  0  0  0  0  0  0  0  0  0  0
   -2.2990    2.1310   -1.0020 C   0  0  0  0  0  0  0  0  0  0  0  0
   -0.7700    2.2290   -1.0410 C   0  0  2  0  0  0  0  0  0  0  0  0
   -0.2800    0.9560   -0.5480 N   0  0  0  0  0  0  0  0  0  0  0  0
   -0.3920    3.3550   -0.1840 C   0  0  0  0  0  0  0  0  0  0  0  0
   -0.7660    4.5080   -0.5210 O   0  0  0  0  0  0  0  0  0  0  0  0
    0.3540    3.2450    0.9800 O   0  0  0  0  0  0  0  0  0  0  0  0
   -2.1790    2.3900    0.9050 H   0  0  0  0  0  0  0  0  0  0  0  0
   -2.6530    1.2800   -1.6440 H   0  0  0  0  0  0  0  0  0  0  0  0
   -2.7470    3.0440   -1.4370 H   0  0  0  0  0  0  0  0  0  0  0  0
   -0.4750    2.4250   -2.0770 H   0  0  0  0  0  0  0  0  0  0  0  0
   -0.5150    0.6900    0.4320 H   0  0  0  0  0  0  0  0  0  0  0  0
  1  8  1  0  0  0  0
  2  1  1  0  0  0  0
  2  3  1  0  0  0  0
  2  9  1  1  0  0  0
  3 10  1  0  0  0  0
  4  3  1  0  0  0  0
  5  2  1  0  0  0  0
  6  5  2  0  0  0  0
  7  1  1  0  0  0  0
 11  3  1  0  0  0  0
 12  4  1  0  0  0  0
 13 18  1  0  0  0  0
 13 14  1  0  0  0  0
 14 21  1  6  0  0  0
 14 15  1  0  0  0  0
 15 22  1  0  0  0  0
 15  5  1  0  0  0  0
 16 14  1  0  0  0  0
 16 26  1  0  0  0  0
 17 16  2  0  0  0  0
 19 13  1  0  0  0  0
 20 13  1  0  0  0  0
 23 30  1  0  0  0  0
 24 23  1  0  0  0  0
 25 33  1  6  0  0  0
 25 24  1  0  0  0  0
 25 26  1  0  0  0  0
 25 27  1  0  0  0  0
 26 34  1  0  0  0  0
 27 29  1  0  0  0  0
 28 27  2  0  0  0  0
 31 24  1  0  0  0  0
 32 24  1  0  0  0  0
M  END
$$$$
