CAV.pdb
 OpenBabel07022418263D

 39 38  0  0  1  0  0  0  0  0999 V2000
    1.2110   -2.3730    5.6120 N   0  0  0  0  0  0  0  0  0  0  0  0
    0.6590   -2.8180    4.3470 C   0  0  1  0  0  0  0  0  0  0  0  0
   -0.8690   -2.6620    4.3600 C   0  0  0  0  0  0  0  0  0  0  0  0
   -1.2610   -0.9240    4.6180 S   0  0  0  0  0  0  0  0  0  0  0  0
    1.2130   -1.9790    3.2670 C   0  0  0  0  0  0  0  0  0  0  0  0
    2.0200   -1.0590    3.5190 O   0  0  0  0  0  0  0  0  0  0  0  0
    2.0730   -2.8810    5.8840 H   0  0  0  0  0  0  0  0  0  0  0  0
    0.4890   -2.4830    6.3640 H   0  0  0  0  0  0  0  0  0  0  0  0
    0.9200   -3.8970    4.2170 H   0  0  0  0  0  0  0  0  0  0  0  0
   -1.3310   -3.3330    5.0930 H   0  0  0  0  0  0  0  0  0  0  0  0
   -1.2590   -2.9460    3.3610 H   0  0  0  0  0  0  0  0  0  0  0  0
   -2.4830   -0.5590    4.0410 H   0  0  0  0  0  0  0  0  0  0  0  0
    2.0860   -2.3150   -0.1040 C   0  0  0  0  0  0  0  0  0  0  0  0
    1.3640   -1.3960    0.8420 C   0  0  2  0  0  0  0  0  0  0  0  0
    0.8390   -2.2010    1.9240 N   0  0  0  0  0  0  0  0  0  0  0  0
    0.2270   -0.7410    0.1370 C   0  0  0  0  0  0  0  0  0  0  0  0
   -0.9770   -0.9170    0.4970 O   0  0  0  0  0  0  0  0  0  0  0  0
    2.2750   -3.3020    0.3650 H   0  0  0  0  0  0  0  0  0  0  0  0
    3.0420   -1.8850   -0.4690 H   0  0  0  0  0  0  0  0  0  0  0  0
    1.4210   -2.5120   -0.9770 H   0  0  0  0  0  0  0  0  0  0  0  0
    2.0720   -0.6200    1.2490 H   0  0  0  0  0  0  0  0  0  0  0  0
    0.1680   -2.9590    1.6830 H   0  0  0  0  0  0  0  0  0  0  0  0
    0.7570    2.8130   -2.1260 C   0  0  0  0  0  0  0  0  0  0  0  0
   -0.5520    2.2790   -1.5590 C   0  0  0  0  0  0  0  0  0  0  0  0
   -0.7170    2.7290   -0.1390 C   0  0  0  0  0  0  0  0  0  0  0  0
   -0.6220    0.7680   -1.6850 C   0  0  2  0  0  0  0  0  0  0  0  0
    0.4510    0.1170   -0.9780 N   0  0  0  0  0  0  0  0  0  0  0  0
   -0.7310    0.3370   -3.0910 C   0  0  0  0  0  0  0  0  0  0  0  0
   -1.6200    0.8190   -3.8380 O   0  0  0  0  0  0  0  0  0  0  0  0
    0.1160   -0.6050   -3.6790 O   0  0  0  0  0  0  0  0  0  0  0  0
    1.1240    2.1810   -2.9480 H   0  0  0  0  0  0  0  0  0  0  0  0
    1.5410    2.8280   -1.3160 H   0  0  0  0  0  0  0  0  0  0  0  0
    0.6610    3.8560   -2.4630 H   0  0  0  0  0  0  0  0  0  0  0  0
   -1.3570    2.7580   -2.1530 H   0  0  0  0  0  0  0  0  0  0  0  0
   -0.6520    1.8360    0.5170 H   0  0  0  0  0  0  0  0  0  0  0  0
    0.0170    3.5090    0.1340 H   0  0  0  0  0  0  0  0  0  0  0  0
   -1.7230    3.1740    0.0520 H   0  0  0  0  0  0  0  0  0  0  0  0
   -1.5720    0.4630   -1.1840 H   0  0  0  0  0  0  0  0  0  0  0  0
    1.4680    0.2510   -1.2630 H   0  0  0  0  0  0  0  0  0  0  0  0
  1  7  1  0  0  0  0
  1  8  1  0  0  0  0
  2  9  1  6  0  0  0
  2  3  1  0  0  0  0
  2  1  1  0  0  0  0
  3  4  1  0  0  0  0
  3 10  1  0  0  0  0
  5  6  2  0  0  0  0
  5  2  1  0  0  0  0
 11  3  1  0  0  0  0
 12  4  1  0  0  0  0
 13 18  1  0  0  0  0
 13 14  1  0  0  0  0
 14 21  1  1  0  0  0
 14 15  1  0  0  0  0
 15  5  1  0  0  0  0
 16 17  2  0  0  0  0
 16 14  1  0  0  0  0
 19 13  1  0  0  0  0
 20 13  1  0  0  0  0
 22 15  1  0  0  0  0
 23 24  1  0  0  0  0
 23 32  1  0  0  0  0
 24 25  1  0  0  0  0
 25 37  1  0  0  0  0
 25 36  1  0  0  0  0
 25 35  1  0  0  0  0
 26 24  1  0  0  0  0
 26 38  1  1  0  0  0
 26 27  1  0  0  0  0
 27 16  1  0  0  0  0
 28 26  1  0  0  0  0
 29 28  2  0  0  0  0
 30 28  1  0  0  0  0
 31 23  1  0  0  0  0
 33 23  1  0  0  0  0
 34 24  1  0  0  0  0
 39 27  1  0  0  0  0
M  END
$$$$
