CCD.pdb
 OpenBabel07022418273D

 37 36  0  0  1  0  0  0  0  0999 V2000
    2.9880   -2.8340    3.4960 N   0  0  0  0  0  0  0  0  0  0  0  0
    1.9190   -2.8490    2.5050 C   0  0  1  0  0  0  0  0  0  0  0  0
    0.6320   -2.8510    3.2460 C   0  0  0  0  0  0  0  0  0  0  0  0
   -0.8470   -2.8870    2.2440 S   0  0  0  0  0  0  0  0  0  0  0  0
    2.1310   -1.7510    1.5620 C   0  0  0  0  0  0  0  0  0  0  0  0
    3.1600   -1.0150    1.7560 O   0  0  0  0  0  0  0  0  0  0  0  0
    3.9140   -2.6130    3.0860 H   0  0  0  0  0  0  0  0  0  0  0  0
    2.7370   -2.2300    4.3010 H   0  0  0  0  0  0  0  0  0  0  0  0
    1.9770   -3.8050    1.9190 H   0  0  0  0  0  0  0  0  0  0  0  0
    0.6370   -2.0280    3.9900 H   0  0  0  0  0  0  0  0  0  0  0  0
    0.6290   -3.7900    3.8720 H   0  0  0  0  0  0  0  0  0  0  0  0
   -0.7260   -3.8460    1.2470 H   0  0  0  0  0  0  0  0  0  0  0  0
    1.3260   -1.4150    0.4590 N   0  0  0  0  0  0  0  0  0  0  0  0
    1.6910   -0.3010   -0.3750 C   0  0  1  0  0  0  0  0  0  0  0  0
    1.9810   -0.7400   -1.8000 C   0  0  0  0  0  0  0  0  0  0  0  0
    3.3580   -1.9210   -1.7210 S   0  0  0  0  0  0  0  0  0  0  0  0
    0.6680    0.7490   -0.3160 C   0  0  0  0  0  0  0  0  0  0  0  0
    0.8730    1.7960   -1.0250 O   0  0  0  0  0  0  0  0  0  0  0  0
    0.4720   -2.0050    0.2800 H   0  0  0  0  0  0  0  0  0  0  0  0
    2.6350    0.1340    0.0070 H   0  0  0  0  0  0  0  0  0  0  0  0
    1.1180   -1.2050   -2.2810 H   0  0  0  0  0  0  0  0  0  0  0  0
    2.3160    0.1470   -2.3510 H   0  0  0  0  0  0  0  0  0  0  0  0
    3.1360   -2.9950   -2.6060 H   0  0  0  0  0  0  0  0  0  0  0  0
   -0.5100    0.6710    0.4670 N   0  0  0  0  0  0  0  0  0  0  0  0
   -1.5140    1.6920    0.5300 C   0  0  1  0  0  0  0  0  0  0  0  0
   -2.8780    1.2650    0.1240 C   0  0  0  0  0  0  0  0  0  0  0  0
   -2.9660    0.7690   -1.2630 C   0  0  0  0  0  0  0  0  0  0  0  0
   -4.0530    0.3780   -1.7420 O   0  0  0  0  0  0  0  0  0  0  0  0
   -1.5180    2.3680    1.8580 C   0  0  0  0  0  0  0  0  0  0  0  0
   -0.7090    2.0230    2.7490 O   0  0  0  0  0  0  0  0  0  0  0  0
   -1.8370    0.7330   -2.0540 O   0  0  0  0  0  0  0  0  0  0  0  0
   -2.4170    3.3770    2.1020 O   0  0  0  0  0  0  0  0  0  0  0  0
   -0.6480   -0.1900    1.0340 H   0  0  0  0  0  0  0  0  0  0  0  0
   -1.1870    2.4980   -0.1920 H   0  0  0  0  0  0  0  0  0  0  0  0
   -3.5280    2.1880    0.1640 H   0  0  0  0  0  0  0  0  0  0  0  0
   -3.3460    0.5200    0.7760 H   0  0  0  0  0  0  0  0  0  0  0  0
   -1.7840    0.1570   -2.8830 H   0  0  0  0  0  0  0  0  0  0  0  0
  1  8  1  0  0  0  0
  2  9  1  6  0  0  0
  2  3  1  0  0  0  0
  2  1  1  0  0  0  0
  3 11  1  0  0  0  0
  3 10  1  0  0  0  0
  4  3  1  0  0  0  0
  5  6  2  0  0  0  0
  5  2  1  0  0  0  0
  7  1  1  0  0  0  0
 12  4  1  0  0  0  0
 13  5  1  0  0  0  0
 14 17  1  0  0  0  0
 14 20  1  1  0  0  0
 14 13  1  0  0  0  0
 15 16  1  0  0  0  0
 15 14  1  0  0  0  0
 17 24  1  0  0  0  0
 18 17  2  0  0  0  0
 19 13  1  0  0  0  0
 21 15  1  0  0  0  0
 22 15  1  0  0  0  0
 23 16  1  0  0  0  0
 24 25  1  0  0  0  0
 24 33  1  0  0  0  0
 25 34  1  6  0  0  0
 25 29  1  0  0  0  0
 26 35  1  0  0  0  0
 26 25  1  0  0  0  0
 26 36  1  0  0  0  0
 27 26  1  0  0  0  0
 28 27  2  0  0  0  0
 29 32  2  0  0  0  0
 29 30  1  0  0  0  0
 31 27  1  0  0  0  0
 37 31  1  0  0  0  0
M  END
$$$$
