CCI.pdb
 OpenBabel07022418273D

 43 42  0  0  1  0  0  0  0  0999 V2000
    1.2280   -5.5220    2.8620 N   0  0  0  0  0  0  0  0  0  0  0  0
    0.4290   -4.9930    1.7500 C   0  0  1  0  0  0  0  0  0  0  0  0
   -0.9880   -4.9530    2.2840 C   0  0  0  0  0  0  0  0  0  0  0  0
   -2.1960   -4.3410    1.1170 S   0  0  0  0  0  0  0  0  0  0  0  0
    0.9720   -3.6840    1.3880 C   0  0  0  0  0  0  0  0  0  0  0  0
    1.9430   -3.2090    2.0610 O   0  0  0  0  0  0  0  0  0  0  0  0
    0.8700   -5.0250    3.7190 H   0  0  0  0  0  0  0  0  0  0  0  0
    2.2130   -5.1640    2.7370 H   0  0  0  0  0  0  0  0  0  0  0  0
    0.5220   -5.7520    0.9350 H   0  0  0  0  0  0  0  0  0  0  0  0
   -0.9690   -4.4100    3.2360 H   0  0  0  0  0  0  0  0  0  0  0  0
   -1.2550   -6.0100    2.5300 H   0  0  0  0  0  0  0  0  0  0  0  0
   -2.0930   -4.9140   -0.1460 H   0  0  0  0  0  0  0  0  0  0  0  0
    0.4730   -2.8940    0.3060 N   0  0  0  0  0  0  0  0  0  0  0  0
    1.0820   -1.6320    0.0460 C   0  0  1  0  0  0  0  0  0  0  0  0
    1.5140   -1.4560   -1.3870 C   0  0  0  0  0  0  0  0  0  0  0  0
    2.7110   -2.6720   -1.9300 S   0  0  0  0  0  0  0  0  0  0  0  0
    0.0520   -0.5680    0.3070 C   0  0  0  0  0  0  0  0  0  0  0  0
   -1.1240   -0.8640    0.6890 O   0  0  0  0  0  0  0  0  0  0  0  0
   -0.3180   -3.3030   -0.2320 H   0  0  0  0  0  0  0  0  0  0  0  0
    1.9010   -1.4320    0.7590 H   0  0  0  0  0  0  0  0  0  0  0  0
    1.9570   -0.4280   -1.4620 H   0  0  0  0  0  0  0  0  0  0  0  0
    0.6420   -1.4590   -2.0670 H   0  0  0  0  0  0  0  0  0  0  0  0
    2.4840   -2.9540   -3.2910 H   0  0  0  0  0  0  0  0  0  0  0  0
    1.1440    4.4190    0.1250 C   0  0  0  0  0  0  0  0  0  0  0  0
    1.1530    3.4360    1.2520 C   0  0  0  0  0  0  0  0  0  0  0  0
   -0.1620    2.7520    1.5050 C   0  0  2  0  0  0  0  0  0  0  0  0
    0.0920    1.8110    2.6990 C   0  0  0  0  0  0  0  0  0  0  0  0
   -0.6010    1.8480    0.3780 C   0  0  2  0  0  0  0  0  0  0  0  0
    0.3660    0.8090    0.1350 N   0  0  0  0  0  0  0  0  0  0  0  0
   -0.9500    2.5510   -0.8680 C   0  0  0  0  0  0  0  0  0  0  0  0
   -0.3840    2.1820   -1.9490 O   0  0  0  0  0  0  0  0  0  0  0  0
   -1.8450    3.5850   -0.9720 O   0  0  0  0  0  0  0  0  0  0  0  0
    1.4090    3.9000   -0.8190 H   0  0  0  0  0  0  0  0  0  0  0  0
    0.2200    5.0180    0.0770 H   0  0  0  0  0  0  0  0  0  0  0  0
    1.9750    5.1740    0.2730 H   0  0  0  0  0  0  0  0  0  0  0  0
    1.9070    2.6310    1.1020 H   0  0  0  0  0  0  0  0  0  0  0  0
    1.4140    3.9990    2.1860 H   0  0  0  0  0  0  0  0  0  0  0  0
   -0.9480    3.4360    1.8370 H   0  0  0  0  0  0  0  0  0  0  0  0
   -0.8460    1.5110    3.1710 H   0  0  0  0  0  0  0  0  0  0  0  0
    0.8180    2.2810    3.4010 H   0  0  0  0  0  0  0  0  0  0  0  0
    0.6050    0.9220    2.2610 H   0  0  0  0  0  0  0  0  0  0  0  0
   -1.5610    1.3390    0.7040 H   0  0  0  0  0  0  0  0  0  0  0  0
    1.3480    1.0370   -0.1820 H   0  0  0  0  0  0  0  0  0  0  0  0
  1  7  1  0  0  0  0
  2  9  1  6  0  0  0
  2  3  1  0  0  0  0
  2  1  1  0  0  0  0
  3 11  1  0  0  0  0
  3 10  1  0  0  0  0
  4  3  1  0  0  0  0
  5  2  1  0  0  0  0
  5  6  2  0  0  0  0
  8  1  1  0  0  0  0
 12  4  1  0  0  0  0
 13  5  1  0  0  0  0
 14 13  1  0  0  0  0
 14 17  1  0  0  0  0
 14 20  1  1  0  0  0
 15 14  1  0  0  0  0
 16 15  1  0  0  0  0
 17 18  2  0  0  0  0
 19 13  1  0  0  0  0
 21 15  1  0  0  0  0
 22 15  1  0  0  0  0
 23 16  1  0  0  0  0
 24 35  1  0  0  0  0
 24 25  1  0  0  0  0
 25 26  1  0  0  0  0
 25 37  1  0  0  0  0
 26 38  1  1  0  0  0
 26 27  1  0  0  0  0
 27 39  1  0  0  0  0
 27 40  1  0  0  0  0
 28 42  1  1  0  0  0
 28 26  1  0  0  0  0
 29 17  1  0  0  0  0
 29 28  1  0  0  0  0
 30 28  1  0  0  0  0
 31 30  2  0  0  0  0
 32 30  1  0  0  0  0
 33 24  1  0  0  0  0
 34 24  1  0  0  0  0
 36 25  1  0  0  0  0
 41 27  1  0  0  0  0
 43 29  1  0  0  0  0
M  END
$$$$
