CCP.pdb
 OpenBabel07022418273D

 38 38  0  0  1  0  0  0  0  0999 V2000
    2.7320   -4.4600    2.8090 N   0  0  0  0  0  0  0  0  0  0  0  0
    2.0510   -4.0740    1.5710 C   0  0  1  0  0  0  0  0  0  0  0  0
    0.7580   -4.8760    1.5280 C   0  0  0  0  0  0  0  0  0  0  0  0
   -0.2290   -4.5440    0.0670 S   0  0  0  0  0  0  0  0  0  0  0  0
    1.8060   -2.6310    1.5830 C   0  0  0  0  0  0  0  0  0  0  0  0
    2.1140   -1.9720    2.6260 O   0  0  0  0  0  0  0  0  0  0  0  0
    3.6870   -4.0470    2.8000 H   0  0  0  0  0  0  0  0  0  0  0  0
    2.2230   -4.0210    3.6120 H   0  0  0  0  0  0  0  0  0  0  0  0
    2.7170   -4.3860    0.7450 H   0  0  0  0  0  0  0  0  0  0  0  0
    1.0570   -5.9480    1.5090 H   0  0  0  0  0  0  0  0  0  0  0  0
    0.1880   -4.6650    2.4520 H   0  0  0  0  0  0  0  0  0  0  0  0
    0.1350   -5.4520   -0.9500 H   0  0  0  0  0  0  0  0  0  0  0  0
    1.2490   -1.8840    0.5190 N   0  0  0  0  0  0  0  0  0  0  0  0
    1.0320   -0.4160    0.6150 C   0  0  1  0  0  0  0  0  0  0  0  0
    2.0650    0.1220   -0.4030 C   0  0  0  0  0  0  0  0  0  0  0  0
    1.7160   -0.5580   -2.0530 S   0  0  0  0  0  0  0  0  0  0  0  0
   -0.2810   -0.0200    0.1540 C   0  0  0  0  0  0  0  0  0  0  0  0
   -0.9060   -1.0230   -0.4020 O   0  0  0  0  0  0  0  0  0  0  0  0
    0.9870   -2.3770   -0.3550 H   0  0  0  0  0  0  0  0  0  0  0  0
    1.3770   -0.1480    1.5900 H   0  0  0  0  0  0  0  0  0  0  0  0
    1.9030    1.1940   -0.4780 H   0  0  0  0  0  0  0  0  0  0  0  0
    3.0920   -0.1710   -0.1330 H   0  0  0  0  0  0  0  0  0  0  0  0
    2.0650   -1.9170   -2.0730 H   0  0  0  0  0  0  0  0  0  0  0  0
   -0.9700    1.1910    0.1930 N   0  0  0  0  0  0  0  0  0  0  0  0
   -2.3340    1.2730   -0.4610 C   0  0  0  0  0  0  0  0  0  0  0  0
   -3.1620    2.1010    0.4890 C   0  0  0  0  0  0  0  0  0  0  0  0
   -2.1660    2.5590    1.5290 C   0  0  0  0  0  0  0  0  0  0  0  0
   -0.8830    2.5040    0.6680 C   0  0  1  0  0  0  0  0  0  0  0  0
    0.2300    3.0730    1.3320 C   0  0  0  0  0  0  0  0  0  0  0  0
    1.2240    2.4660    1.7230 O   0  0  0  0  0  0  0  0  0  0  0  0
    0.2520    4.4650    1.5950 O   0  0  0  0  0  0  0  0  0  0  0  0
   -2.1360    1.7580   -1.4210 H   0  0  0  0  0  0  0  0  0  0  0  0
   -2.7790    0.2870   -0.5530 H   0  0  0  0  0  0  0  0  0  0  0  0
   -4.0060    1.5410    0.9250 H   0  0  0  0  0  0  0  0  0  0  0  0
   -3.5080    3.0400   -0.0340 H   0  0  0  0  0  0  0  0  0  0  0  0
   -2.3460    3.5690    1.8980 H   0  0  0  0  0  0  0  0  0  0  0  0
   -2.0060    1.8020    2.3220 H   0  0  0  0  0  0  0  0  0  0  0  0
   -1.1590    3.2030   -0.1950 H   0  0  0  0  0  0  0  0  0  0  0  0
  1  8  1  0  0  0  0
  2  9  1  6  0  0  0
  2  5  1  0  0  0  0
  2  1  1  0  0  0  0
  3  2  1  0  0  0  0
  3 11  1  0  0  0  0
  4  3  1  0  0  0  0
  5  6  2  0  0  0  0
  7  1  1  0  0  0  0
 10  3  1  0  0  0  0
 12  4  1  0  0  0  0
 13 14  1  0  0  0  0
 13  5  1  0  0  0  0
 14 20  1  1  0  0  0
 15 22  1  0  0  0  0
 15 14  1  0  0  0  0
 16 15  1  0  0  0  0
 17 24  1  0  0  0  0
 17 14  1  0  0  0  0
 18 17  2  0  0  0  0
 19 13  1  0  0  0  0
 21 15  1  0  0  0  0
 23 16  1  0  0  0  0
 24 28  1  0  0  0  0
 25 24  1  0  0  0  0
 25 26  1  0  0  0  0
 26 34  1  0  0  0  0
 26 27  1  0  0  0  0
 27 36  1  0  0  0  0
 27 37  1  0  0  0  0
 28 38  1  6  0  0  0
 28 29  1  0  0  0  0
 28 27  1  0  0  0  0
 29 31  2  0  0  0  0
 29 30  1  0  0  0  0
 32 25  1  0  0  0  0
 33 25  1  0  0  0  0
 35 26  1  0  0  0  0
M  END
$$$$
