CCQ.pdb
 OpenBabel07022418273D

 41 40  0  0  1  0  0  0  0  0999 V2000
    2.3630    1.3680   -2.4110 N   0  0  0  0  0  0  0  0  0  0  0  0
    2.6660    0.3210   -1.4720 C   0  0  1  0  0  0  0  0  0  0  0  0
    3.3590    0.9080   -0.2680 C   0  0  0  0  0  0  0  0  0  0  0  0
    4.8830    1.6950   -0.8550 S   0  0  0  0  0  0  0  0  0  0  0  0
    1.4060   -0.4060   -1.0600 C   0  0  0  0  0  0  0  0  0  0  0  0
    1.4850   -1.3460   -0.2470 O   0  0  0  0  0  0  0  0  0  0  0  0
    3.2300    1.5430   -2.9770 H   0  0  0  0  0  0  0  0  0  0  0  0
    2.1910    2.2530   -1.8630 H   0  0  0  0  0  0  0  0  0  0  0  0
    3.3550   -0.4450   -1.8960 H   0  0  0  0  0  0  0  0  0  0  0  0
    3.6330    0.1260    0.4630 H   0  0  0  0  0  0  0  0  0  0  0  0
    2.7330    1.6690    0.2490 H   0  0  0  0  0  0  0  0  0  0  0  0
    5.9300    0.7510   -0.9380 H   0  0  0  0  0  0  0  0  0  0  0  0
    0.1500   -0.0240   -1.5900 N   0  0  0  0  0  0  0  0  0  0  0  0
   -1.0590   -0.6630   -1.2400 C   0  0  1  0  0  0  0  0  0  0  0  0
   -1.3110   -2.0240   -1.7820 C   0  0  0  0  0  0  0  0  0  0  0  0
   -0.1470   -3.2960   -1.3510 S   0  0  0  0  0  0  0  0  0  0  0  0
   -1.4610   -0.5590    0.1900 C   0  0  0  0  0  0  0  0  0  0  0  0
   -2.5170   -1.1500    0.6070 O   0  0  0  0  0  0  0  0  0  0  0  0
    0.1520    0.7980   -2.2950 H   0  0  0  0  0  0  0  0  0  0  0  0
   -1.8850   -0.0220   -1.7560 H   0  0  0  0  0  0  0  0  0  0  0  0
   -2.3240   -2.3580   -1.4410 H   0  0  0  0  0  0  0  0  0  0  0  0
   -1.4090   -2.0260   -2.9090 H   0  0  0  0  0  0  0  0  0  0  0  0
   -0.7970   -4.5450   -1.3620 H   0  0  0  0  0  0  0  0  0  0  0  0
    0.8540   -4.2360    3.4110 N   0  0  0  0  0  0  0  0  0  0  0  0
    0.6880   -2.8500    3.6520 C   0  0  0  0  0  0  0  0  0  0  0  0
    1.3770   -2.3260    4.5590 O   0  0  0  0  0  0  0  0  0  0  0  0
   -0.2500   -1.9820    2.8990 C   0  0  0  0  0  0  0  0  0  0  0  0
   -0.2120   -0.5580    3.3770 C   0  0  0  0  0  0  0  0  0  0  0  0
   -1.1860    0.2550    2.5530 C   0  0  2  0  0  0  0  0  0  0  0  0
   -0.7440    0.1740    1.1620 N   0  0  0  0  0  0  0  0  0  0  0  0
   -1.2790    1.6620    2.9880 C   0  0  0  0  0  0  0  0  0  0  0  0
   -0.9870    2.5640    2.1670 O   0  0  0  0  0  0  0  0  0  0  0  0
   -1.6730    2.0360    4.2580 O   0  0  0  0  0  0  0  0  0  0  0  0
    1.8360   -4.6090    3.4510 H   0  0  0  0  0  0  0  0  0  0  0  0
    0.0760   -4.8950    3.2010 H   0  0  0  0  0  0  0  0  0  0  0  0
   -0.0970   -2.0850    1.8170 H   0  0  0  0  0  0  0  0  0  0  0  0
   -1.3200   -2.3200    3.0650 H   0  0  0  0  0  0  0  0  0  0  0  0
    0.7960   -0.0990    3.2090 H   0  0  0  0  0  0  0  0  0  0  0  0
   -0.4920   -0.4600    4.4400 H   0  0  0  0  0  0  0  0  0  0  0  0
   -2.1780   -0.2430    2.6750 H   0  0  0  0  0  0  0  0  0  0  0  0
    0.1280    0.6830    0.8750 H   0  0  0  0  0  0  0  0  0  0  0  0
  1  8  1  0  0  0  0
  1  2  1  0  0  0  0
  2  9  1  6  0  0  0
  2  5  1  0  0  0  0
  2  3  1  0  0  0  0
  3 11  1  0  0  0  0
  3 10  1  0  0  0  0
  4  3  1  0  0  0  0
  5  6  2  0  0  0  0
  7  1  1  0  0  0  0
 12  4  1  0  0  0  0
 13 14  1  0  0  0  0
 13  5  1  0  0  0  0
 14 20  1  6  0  0  0
 14 17  1  0  0  0  0
 15 21  1  0  0  0  0
 15 16  1  0  0  0  0
 15 14  1  0  0  0  0
 17 18  2  0  0  0  0
 17 30  1  0  0  0  0
 19 13  1  0  0  0  0
 22 15  1  0  0  0  0
 23 16  1  0  0  0  0
 24 34  1  0  0  0  0
 24 25  1  0  0  0  0
 25 26  2  0  0  0  0
 27 37  1  0  0  0  0
 27 28  1  0  0  0  0
 27 25  1  0  0  0  0
 28 39  1  0  0  0  0
 29 40  1  1  0  0  0
 29 31  1  0  0  0  0
 29 28  1  0  0  0  0
 30 29  1  0  0  0  0
 31 33  1  0  0  0  0
 32 31  2  0  0  0  0
 35 24  1  0  0  0  0
 36 27  1  0  0  0  0
 38 28  1  0  0  0  0
 41 30  1  0  0  0  0
M  END
$$$$
