CCS.pdb
 OpenBabel07022418273D

 35 34  0  0  1  0  0  0  0  0999 V2000
    1.6760   -2.5240    4.8410 N   0  0  0  0  0  0  0  0  0  0  0  0
    0.9700   -2.8500    3.6160 C   0  0  1  0  0  0  0  0  0  0  0  0
   -0.4900   -2.9750    3.9680 C   0  0  0  0  0  0  0  0  0  0  0  0
   -1.1430   -1.4330    4.6570 S   0  0  0  0  0  0  0  0  0  0  0  0
    1.2550   -1.8340    2.6150 C   0  0  0  0  0  0  0  0  0  0  0  0
    2.0160   -0.8670    2.8940 O   0  0  0  0  0  0  0  0  0  0  0  0
    1.0760   -2.6090    5.6880 H   0  0  0  0  0  0  0  0  0  0  0  0
    2.0050   -1.5310    4.8040 H   0  0  0  0  0  0  0  0  0  0  0  0
    1.3530   -3.8620    3.3140 H   0  0  0  0  0  0  0  0  0  0  0  0
   -0.5430   -3.7360    4.7990 H   0  0  0  0  0  0  0  0  0  0  0  0
   -1.1200   -3.3420    3.1620 H   0  0  0  0  0  0  0  0  0  0  0  0
   -1.8160   -0.7390    3.6240 H   0  0  0  0  0  0  0  0  0  0  0  0
    0.7340   -1.8270    1.2930 N   0  0  0  0  0  0  0  0  0  0  0  0
    1.0250   -0.8200    0.3240 C   0  0  1  0  0  0  0  0  0  0  0  0
    1.8030   -1.4940   -0.8120 C   0  0  0  0  0  0  0  0  0  0  0  0
    3.3160   -2.1850   -0.0930 S   0  0  0  0  0  0  0  0  0  0  0  0
   -0.1340   -0.1110   -0.1960 C   0  0  0  0  0  0  0  0  0  0  0  0
   -1.2860   -0.3940    0.2030 O   0  0  0  0  0  0  0  0  0  0  0  0
    0.1030   -2.6060    1.0240 H   0  0  0  0  0  0  0  0  0  0  0  0
    1.7180   -0.0610    0.7810 H   0  0  0  0  0  0  0  0  0  0  0  0
    1.1460   -2.3100   -1.2200 H   0  0  0  0  0  0  0  0  0  0  0  0
    2.0830   -0.7530   -1.5790 H   0  0  0  0  0  0  0  0  0  0  0  0
    3.8230   -3.2540   -0.8360 H   0  0  0  0  0  0  0  0  0  0  0  0
   -0.1090    3.6760   -1.9820 O   0  0  0  0  0  0  0  0  0  0  0  0
   -1.2040    3.0570   -1.3450 C   0  0  0  0  0  0  0  0  0  0  0  0
   -1.2180    1.5690   -1.6270 C   0  0  2  0  0  0  0  0  0  0  0  0
   -0.0210    0.9140   -1.1610 N   0  0  0  0  0  0  0  0  0  0  0  0
   -1.2990    1.4090   -3.0960 C   0  0  0  0  0  0  0  0  0  0  0  0
   -2.2580    1.8930   -3.7550 O   0  0  0  0  0  0  0  0  0  0  0  0
   -0.2960    0.7120   -3.7500 O   0  0  0  0  0  0  0  0  0  0  0  0
    0.0470    3.2290   -2.8530 H   0  0  0  0  0  0  0  0  0  0  0  0
   -2.1100    3.4880   -1.8190 H   0  0  0  0  0  0  0  0  0  0  0  0
   -1.2380    3.3000   -0.2770 H   0  0  0  0  0  0  0  0  0  0  0  0
   -2.1370    1.1720   -1.1500 H   0  0  0  0  0  0  0  0  0  0  0  0
    0.8930    1.2240   -1.5560 H   0  0  0  0  0  0  0  0  0  0  0  0
  1  7  1  0  0  0  0
  2  9  1  6  0  0  0
  2  3  1  0  0  0  0
  2  1  1  0  0  0  0
  3  4  1  0  0  0  0
  3 10  1  0  0  0  0
  5  6  2  0  0  0  0
  5  2  1  0  0  0  0
  8  1  1  0  0  0  0
 11  3  1  0  0  0  0
 12  4  1  0  0  0  0
 13  5  1  0  0  0  0
 14 20  1  1  0  0  0
 14 13  1  0  0  0  0
 15 16  1  0  0  0  0
 15 14  1  0  0  0  0
 17 18  2  0  0  0  0
 17 14  1  0  0  0  0
 19 13  1  0  0  0  0
 21 15  1  0  0  0  0
 22 15  1  0  0  0  0
 23 16  1  0  0  0  0
 24 25  1  0  0  0  0
 25 33  1  0  0  0  0
 26 25  1  0  0  0  0
 26 27  1  0  0  0  0
 26 34  1  1  0  0  0
 27 17  1  0  0  0  0
 28 26  1  0  0  0  0
 29 28  2  0  0  0  0
 30 28  1  0  0  0  0
 31 24  1  0  0  0  0
 32 25  1  0  0  0  0
 35 27  1  0  0  0  0
M  END
$$$$
