CCT.pdb
 OpenBabel07022418273D

 38 37  0  0  1  0  0  0  0  0999 V2000
    3.0470   -2.7350    4.7010 N   0  0  0  0  0  0  0  0  0  0  0  0
    1.9990   -3.0830    3.7260 C   0  0  1  0  0  0  0  0  0  0  0  0
    0.7010   -2.9920    4.4950 C   0  0  0  0  0  0  0  0  0  0  0  0
   -0.7520   -3.3770    3.5170 S   0  0  0  0  0  0  0  0  0  0  0  0
    2.1050   -2.1130    2.6230 C   0  0  0  0  0  0  0  0  0  0  0  0
    2.9620   -1.1640    2.6450 O   0  0  0  0  0  0  0  0  0  0  0  0
    2.6570   -2.0880    5.4350 H   0  0  0  0  0  0  0  0  0  0  0  0
    3.8230   -2.2000    4.2420 H   0  0  0  0  0  0  0  0  0  0  0  0
    2.1600   -4.1230    3.4390 H   0  0  0  0  0  0  0  0  0  0  0  0
    0.5480   -1.9980    4.9610 H   0  0  0  0  0  0  0  0  0  0  0  0
    0.7730   -3.7270    5.3230 H   0  0  0  0  0  0  0  0  0  0  0  0
   -1.7900   -2.4230    3.7410 H   0  0  0  0  0  0  0  0  0  0  0  0
    1.2730   -2.1510    1.4540 N   0  0  0  0  0  0  0  0  0  0  0  0
    1.4170   -1.1600    0.3800 C   0  0  1  0  0  0  0  0  0  0  0  0
    1.7750   -1.9730   -0.8660 C   0  0  0  0  0  0  0  0  0  0  0  0
    3.3160   -2.8860   -0.6100 S   0  0  0  0  0  0  0  0  0  0  0  0
    0.1040   -0.4960    0.2200 C   0  0  0  0  0  0  0  0  0  0  0  0
   -0.9070   -0.8050    0.9390 O   0  0  0  0  0  0  0  0  0  0  0  0
    0.5640   -2.9130    1.4000 H   0  0  0  0  0  0  0  0  0  0  0  0
    2.2240   -0.4830    0.6820 H   0  0  0  0  0  0  0  0  0  0  0  0
    0.9120   -2.6850   -1.0070 H   0  0  0  0  0  0  0  0  0  0  0  0
    1.7900   -1.3410   -1.7640 H   0  0  0  0  0  0  0  0  0  0  0  0
    4.1000   -2.7840   -1.7720 H   0  0  0  0  0  0  0  0  0  0  0  0
   -2.4860    3.4330   -0.7620 C   0  0  0  0  0  0  0  0  0  0  0  0
   -1.2080    2.6520   -0.6140 C   0  0  1  0  0  0  0  0  0  0  0  0
   -0.6910    2.7490    0.6810 O   0  0  0  0  0  0  0  0  0  0  0  0
   -1.4330    1.1620   -0.8700 C   0  0  2  0  0  0  0  0  0  0  0  0
   -0.1330    0.5310   -0.7390 N   0  0  0  0  0  0  0  0  0  0  0  0
   -1.9810    0.9820   -2.2420 C   0  0  0  0  0  0  0  0  0  0  0  0
   -1.3090    0.3440   -3.0970 O   0  0  0  0  0  0  0  0  0  0  0  0
   -3.1960    1.4850   -2.6200 O   0  0  0  0  0  0  0  0  0  0  0  0
   -3.3300    2.8390   -0.3400 H   0  0  0  0  0  0  0  0  0  0  0  0
   -2.6210    3.6650   -1.8380 H   0  0  0  0  0  0  0  0  0  0  0  0
   -2.3570    4.4030   -0.2250 H   0  0  0  0  0  0  0  0  0  0  0  0
   -0.4230    2.9940   -1.3180 H   0  0  0  0  0  0  0  0  0  0  0  0
    0.1950    3.1470    0.7240 H   0  0  0  0  0  0  0  0  0  0  0  0
   -2.1500    0.7390   -0.1510 H   0  0  0  0  0  0  0  0  0  0  0  0
    0.6460    0.8340   -1.3590 H   0  0  0  0  0  0  0  0  0  0  0  0
  1  7  1  0  0  0  0
  2  9  1  6  0  0  0
  2  3  1  0  0  0  0
  2  1  1  0  0  0  0
  3 10  1  0  0  0  0
  3 11  1  0  0  0  0
  4 12  1  0  0  0  0
  4  3  1  0  0  0  0
  5  6  2  0  0  0  0
  5  2  1  0  0  0  0
  8  1  1  0  0  0  0
 13  5  1  0  0  0  0
 14 20  1  1  0  0  0
 14 13  1  0  0  0  0
 15 16  1  0  0  0  0
 15 14  1  0  0  0  0
 17 14  1  0  0  0  0
 17 18  2  0  0  0  0
 19 13  1  0  0  0  0
 21 15  1  0  0  0  0
 22 15  1  0  0  0  0
 23 16  1  0  0  0  0
 24 25  1  0  0  0  0
 24 32  1  0  0  0  0
 24 34  1  0  0  0  0
 25 35  1  6  0  0  0
 25 26  1  0  0  0  0
 26 36  1  0  0  0  0
 27 28  1  0  0  0  0
 27 25  1  0  0  0  0
 27 37  1  1  0  0  0
 28 17  1  0  0  0  0
 29 27  1  0  0  0  0
 30 29  2  0  0  0  0
 31 29  1  0  0  0  0
 33 24  1  0  0  0  0
 38 28  1  0  0  0  0
M  END
$$$$
