CDD.pdb
 OpenBabel07022418263D

 39 38  0  0  1  0  0  0  0  0999 V2000
    2.4140   -4.4640    0.2150 N   0  0  0  0  0  0  0  0  0  0  0  0
    1.2090   -3.6930    0.4970 C   0  0  1  0  0  0  0  0  0  0  0  0
    1.1550   -3.4310    2.0040 C   0  0  0  0  0  0  0  0  0  0  0  0
    2.6680   -2.5000    2.4300 S   0  0  0  0  0  0  0  0  0  0  0  0
    1.2620   -2.4350   -0.2520 C   0  0  0  0  0  0  0  0  0  0  0  0
    2.2930   -2.1380   -0.9440 O   0  0  0  0  0  0  0  0  0  0  0  0
    3.1650   -3.8210   -0.1640 H   0  0  0  0  0  0  0  0  0  0  0  0
    2.7730   -4.9320    1.0550 H   0  0  0  0  0  0  0  0  0  0  0  0
    0.3160   -4.3130    0.2300 H   0  0  0  0  0  0  0  0  0  0  0  0
    1.1360   -4.3580    2.5760 H   0  0  0  0  0  0  0  0  0  0  0  0
    0.3020   -2.7680    2.1810 H   0  0  0  0  0  0  0  0  0  0  0  0
    3.7420   -2.9560    1.6310 H   0  0  0  0  0  0  0  0  0  0  0  0
    0.2170   -1.4800   -0.2730 N   0  0  0  0  0  0  0  0  0  0  0  0
    0.3410   -0.2430   -1.0500 C   0  0  1  0  0  0  0  0  0  0  0  0
   -0.6760   -0.2330   -2.1690 C   0  0  0  0  0  0  0  0  0  0  0  0
   -0.5240    0.9900   -2.9640 C   0  0  0  0  0  0  0  0  0  0  0  0
   -1.4540    1.3060   -3.7850 O   0  0  0  0  0  0  0  0  0  0  0  0
    0.2090    0.8870   -0.1120 C   0  0  0  0  0  0  0  0  0  0  0  0
    0.2400    2.1090   -0.4200 O   0  0  0  0  0  0  0  0  0  0  0  0
    0.5420    1.8670   -2.9320 O   0  0  0  0  0  0  0  0  0  0  0  0
   -0.6520   -1.6510    0.2600 H   0  0  0  0  0  0  0  0  0  0  0  0
    1.3380   -0.2340   -1.5290 H   0  0  0  0  0  0  0  0  0  0  0  0
   -0.4620   -1.1400   -2.7870 H   0  0  0  0  0  0  0  0  0  0  0  0
   -1.7050   -0.3800   -1.7810 H   0  0  0  0  0  0  0  0  0  0  0  0
    0.9130    2.3180   -3.7720 H   0  0  0  0  0  0  0  0  0  0  0  0
    0.0280    0.6390    1.2850 N   0  0  0  0  0  0  0  0  0  0  0  0
   -0.1120    1.7300    2.2430 C   0  0  1  0  0  0  0  0  0  0  0  0
   -1.3600    1.5100    3.0440 C   0  0  0  0  0  0  0  0  0  0  0  0
   -2.5760    1.4730    2.2110 C   0  0  0  0  0  0  0  0  0  0  0  0
   -2.4810    1.6230    0.9660 O   0  0  0  0  0  0  0  0  0  0  0  0
    1.0660    1.6720    3.1540 C   0  0  0  0  0  0  0  0  0  0  0  0
    1.2070    2.5080    4.1000 O   0  0  0  0  0  0  0  0  0  0  0  0
   -3.8300    1.2750    2.7780 O   0  0  0  0  0  0  0  0  0  0  0  0
    2.0690    0.7230    3.0370 O   0  0  0  0  0  0  0  0  0  0  0  0
   -0.0040   -0.3340    1.6320 H   0  0  0  0  0  0  0  0  0  0  0  0
   -0.0960    2.7120    1.7470 H   0  0  0  0  0  0  0  0  0  0  0  0
   -1.2950    0.5460    3.5990 H   0  0  0  0  0  0  0  0  0  0  0  0
   -1.4390    2.2970    3.8340 H   0  0  0  0  0  0  0  0  0  0  0  0
   -4.5650    0.8290    2.2190 H   0  0  0  0  0  0  0  0  0  0  0  0
  1  2  1  0  0  0  0
  1  8  1  0  0  0  0
  2  9  1  6  0  0  0
  2  3  1  0  0  0  0
  3 11  1  0  0  0  0
  3  4  1  0  0  0  0
  3 10  1  0  0  0  0
  5  2  1  0  0  0  0
  6  5  2  0  0  0  0
  7  1  1  0  0  0  0
 12  4  1  0  0  0  0
 13  5  1  0  0  0  0
 13 21  1  0  0  0  0
 14 22  1  6  0  0  0
 14 13  1  0  0  0  0
 14 18  1  0  0  0  0
 15 24  1  0  0  0  0
 15 14  1  0  0  0  0
 16 20  1  0  0  0  0
 16 15  1  0  0  0  0
 17 16  2  0  0  0  0
 18 26  1  0  0  0  0
 19 18  2  0  0  0  0
 23 15  1  0  0  0  0
 25 20  1  0  0  0  0
 26 35  1  0  0  0  0
 26 27  1  0  0  0  0
 27 36  1  6  0  0  0
 27 28  1  0  0  0  0
 27 31  1  0  0  0  0
 28 37  1  0  0  0  0
 28 38  1  0  0  0  0
 29 33  1  0  0  0  0
 29 28  1  0  0  0  0
 30 29  2  0  0  0  0
 31 32  1  0  0  0  0
 34 31  2  0  0  0  0
 39 33  1  0  0  0  0
M  END
$$$$
