CDE.pdb
 OpenBabel07022418263D

 42 41  0  0  1  0  0  0  0  0999 V2000
   -2.6370   -2.8870    0.7730 N   0  0  0  0  0  0  0  0  0  0  0  0
   -1.4140   -3.3900    0.2380 C   0  0  1  0  0  0  0  0  0  0  0  0
   -1.5500   -4.3170   -0.9330 C   0  0  0  0  0  0  0  0  0  0  0  0
    0.1690   -4.7880   -1.3840 S   0  0  0  0  0  0  0  0  0  0  0  0
   -0.5890   -2.2190   -0.2420 C   0  0  0  0  0  0  0  0  0  0  0  0
    0.4350   -2.5140   -0.8900 O   0  0  0  0  0  0  0  0  0  0  0  0
   -2.8410   -3.1160    1.7510 H   0  0  0  0  0  0  0  0  0  0  0  0
   -3.4570   -2.9400    0.1300 H   0  0  0  0  0  0  0  0  0  0  0  0
   -0.8070   -3.9350    1.0170 H   0  0  0  0  0  0  0  0  0  0  0  0
   -2.1490   -5.2220   -0.7100 H   0  0  0  0  0  0  0  0  0  0  0  0
   -1.9440   -3.7440   -1.7900 H   0  0  0  0  0  0  0  0  0  0  0  0
    0.2080   -5.7850   -2.3450 H   0  0  0  0  0  0  0  0  0  0  0  0
   -0.9950   -0.9040    0.0520 N   0  0  0  0  0  0  0  0  0  0  0  0
   -0.1880    0.2120   -0.4250 C   0  0  1  0  0  0  0  0  0  0  0  0
   -1.0210    1.2020   -1.1640 C   0  0  0  0  0  0  0  0  0  0  0  0
   -0.2440    2.3310   -1.6950 C   0  0  0  0  0  0  0  0  0  0  0  0
   -0.7950    3.4190   -2.0520 O   0  0  0  0  0  0  0  0  0  0  0  0
    0.5370    0.7790    0.7450 C   0  0  0  0  0  0  0  0  0  0  0  0
    1.2340    1.8460    0.6800 O   0  0  0  0  0  0  0  0  0  0  0  0
    1.1160    2.2530   -1.8280 O   0  0  0  0  0  0  0  0  0  0  0  0
   -1.8660   -0.7660    0.6030 H   0  0  0  0  0  0  0  0  0  0  0  0
    0.6060   -0.1760   -1.0980 H   0  0  0  0  0  0  0  0  0  0  0  0
   -1.5360    0.7270   -2.0470 H   0  0  0  0  0  0  0  0  0  0  0  0
   -1.8460    1.6260   -0.5490 H   0  0  0  0  0  0  0  0  0  0  0  0
    1.6740    2.9530   -2.3050 H   0  0  0  0  0  0  0  0  0  0  0  0
    0.4580    0.1050    1.9920 N   0  0  0  0  0  0  0  0  0  0  0  0
    1.0950    0.4940    3.2020 C   0  0  1  0  0  0  0  0  0  0  0  0
    2.5070    1.0000    3.0960 C   0  0  0  0  0  0  0  0  0  0  0  0
    3.5010    0.0070    2.5850 C   0  0  0  0  0  0  0  0  0  0  0  0
    3.2380   -0.5410    1.2500 C   0  0  0  0  0  0  0  0  0  0  0  0
    2.5920   -1.6130    1.1300 O   0  0  0  0  0  0  0  0  0  0  0  0
    0.2300    1.2680    4.0940 C   0  0  0  0  0  0  0  0  0  0  0  0
   -0.9560    1.5530    3.8100 O   0  0  0  0  0  0  0  0  0  0  0  0
    3.6830    0.0900    0.1130 O   0  0  0  0  0  0  0  0  0  0  0  0
    0.7280    1.7120    5.3090 O   0  0  0  0  0  0  0  0  0  0  0  0
   -0.1400   -0.7770    2.0210 H   0  0  0  0  0  0  0  0  0  0  0  0
    1.2610   -0.5200    3.7540 H   0  0  0  0  0  0  0  0  0  0  0  0
    2.6180    1.9300    2.5000 H   0  0  0  0  0  0  0  0  0  0  0  0
    2.8410    1.2340    4.1590 H   0  0  0  0  0  0  0  0  0  0  0  0
    4.5060    0.5190    2.5970 H   0  0  0  0  0  0  0  0  0  0  0  0
    3.6290   -0.8390    3.3320 H   0  0  0  0  0  0  0  0  0  0  0  0
    3.9250   -0.3960   -0.7420 H   0  0  0  0  0  0  0  0  0  0  0  0
  1  7  1  0  0  0  0
  2  1  1  0  0  0  0
  2  9  1  1  0  0  0
  3 10  1  0  0  0  0
  3  2  1  0  0  0  0
  4  3  1  0  0  0  0
  5 13  1  0  0  0  0
  5  2  1  0  0  0  0
  6  5  2  0  0  0  0
  8  1  1  0  0  0  0
 11  3  1  0  0  0  0
 12  4  1  0  0  0  0
 13 21  1  0  0  0  0
 14 22  1  6  0  0  0
 14 13  1  0  0  0  0
 14 18  1  0  0  0  0
 15 24  1  0  0  0  0
 15 14  1  0  0  0  0
 16 15  1  0  0  0  0
 17 16  2  0  0  0  0
 18 26  1  0  0  0  0
 19 18  2  0  0  0  0
 20 16  1  0  0  0  0
 23 15  1  0  0  0  0
 25 20  1  0  0  0  0
 26 36  1  0  0  0  0
 26 27  1  0  0  0  0
 27 37  1  1  0  0  0
 27 32  1  0  0  0  0
 28 27  1  0  0  0  0
 28 39  1  0  0  0  0
 29 40  1  0  0  0  0
 29 28  1  0  0  0  0
 29 41  1  0  0  0  0
 30 29  1  0  0  0  0
 31 30  2  0  0  0  0
 32 35  1  0  0  0  0
 33 32  2  0  0  0  0
 34 30  1  0  0  0  0
 38 28  1  0  0  0  0
 42 34  1  0  0  0  0
M  END
$$$$
