CDI.pdb
 OpenBabel07022418263D

 45 44  0  0  1  0  0  0  0  0999 V2000
   -0.8250    1.7630    5.1900 N   0  0  0  0  0  0  0  0  0  0  0  0
   -0.2230    0.7520    4.3780 C   0  0  1  0  0  0  0  0  0  0  0  0
   -1.2300   -0.2840    3.9040 C   0  0  0  0  0  0  0  0  0  0  0  0
   -1.9800   -1.0860    5.3720 S   0  0  0  0  0  0  0  0  0  0  0  0
    0.4590    1.3080    3.1820 C   0  0  0  0  0  0  0  0  0  0  0  0
    0.4760    2.5410    2.9550 O   0  0  0  0  0  0  0  0  0  0  0  0
   -0.0430    2.2850    5.6680 H   0  0  0  0  0  0  0  0  0  0  0  0
   -1.3520    1.2880    5.9540 H   0  0  0  0  0  0  0  0  0  0  0  0
    0.5540    0.1740    4.9490 H   0  0  0  0  0  0  0  0  0  0  0  0
   -2.0070    0.1410    3.2580 H   0  0  0  0  0  0  0  0  0  0  0  0
   -0.7310   -1.0980    3.3480 H   0  0  0  0  0  0  0  0  0  0  0  0
   -3.1590   -1.7590    5.0030 H   0  0  0  0  0  0  0  0  0  0  0  0
    1.1000    0.4540    2.2790 N   0  0  0  0  0  0  0  0  0  0  0  0
    1.7970    0.8960    1.0770 C   0  0  1  0  0  0  0  0  0  0  0  0
    3.2470    0.5780    1.1110 C   0  0  0  0  0  0  0  0  0  0  0  0
    3.9060    1.0460   -0.1240 C   0  0  0  0  0  0  0  0  0  0  0  0
    4.0200    0.3190   -1.1370 O   0  0  0  0  0  0  0  0  0  0  0  0
    1.0660    0.4090   -0.1120 C   0  0  0  0  0  0  0  0  0  0  0  0
    1.4570    0.6830   -1.2740 O   0  0  0  0  0  0  0  0  0  0  0  0
    4.4410    2.3350   -0.2290 O   0  0  0  0  0  0  0  0  0  0  0  0
    1.0820   -0.5780    2.4740 H   0  0  0  0  0  0  0  0  0  0  0  0
    1.6870    2.0200    1.0770 H   0  0  0  0  0  0  0  0  0  0  0  0
    3.7250    1.1270    1.9510 H   0  0  0  0  0  0  0  0  0  0  0  0
    3.4360   -0.4970    1.3120 H   0  0  0  0  0  0  0  0  0  0  0  0
    4.6700    2.7110   -1.1300 H   0  0  0  0  0  0  0  0  0  0  0  0
    1.1170   -2.7160   -2.3410 C   0  0  0  0  0  0  0  0  0  0  0  0
    0.4700   -3.0100   -1.0020 C   0  0  0  0  0  0  0  0  0  0  0  0
   -0.9300   -2.4230   -0.9450 C   0  0  2  0  0  0  0  0  0  0  0  0
   -1.8130   -3.0010   -2.0250 C   0  0  0  0  0  0  0  0  0  0  0  0
   -0.8780   -0.9010   -1.0490 C   0  0  2  0  0  0  0  0  0  0  0  0
   -0.1010   -0.3820    0.0520 N   0  0  0  0  0  0  0  0  0  0  0  0
   -2.2850   -0.4300   -0.9680 C   0  0  0  0  0  0  0  0  0  0  0  0
   -3.1610   -0.7410   -1.8060 O   0  0  0  0  0  0  0  0  0  0  0  0
   -2.6420    0.3890    0.0820 O   0  0  0  0  0  0  0  0  0  0  0  0
    1.8560   -1.9060   -2.1790 H   0  0  0  0  0  0  0  0  0  0  0  0
    0.3490   -2.3450   -3.0490 H   0  0  0  0  0  0  0  0  0  0  0  0
    1.6800   -3.5860   -2.7110 H   0  0  0  0  0  0  0  0  0  0  0  0
    1.1070   -2.6550   -0.1920 H   0  0  0  0  0  0  0  0  0  0  0  0
    0.4220   -4.1150   -0.9170 H   0  0  0  0  0  0  0  0  0  0  0  0
   -1.3590   -2.7380    0.0280 H   0  0  0  0  0  0  0  0  0  0  0  0
   -1.8190   -2.3140   -2.9000 H   0  0  0  0  0  0  0  0  0  0  0  0
   -1.4600   -3.9910   -2.3740 H   0  0  0  0  0  0  0  0  0  0  0  0
   -2.8650   -3.1140   -1.6850 H   0  0  0  0  0  0  0  0  0  0  0  0
   -0.4000   -0.5760   -1.9810 H   0  0  0  0  0  0  0  0  0  0  0  0
   -0.3920   -0.5870    1.0280 H   0  0  0  0  0  0  0  0  0  0  0  0
  1  7  1  0  0  0  0
  1  8  1  0  0  0  0
  2  9  1  1  0  0  0
  2  1  1  0  0  0  0
  3  2  1  0  0  0  0
  3  4  1  0  0  0  0
  5  2  1  0  0  0  0
  6  5  2  0  0  0  0
 10  3  1  0  0  0  0
 11  3  1  0  0  0  0
 12  4  1  0  0  0  0
 13 21  1  0  0  0  0
 13  5  1  0  0  0  0
 14 22  1  6  0  0  0
 14 15  1  0  0  0  0
 14 13  1  0  0  0  0
 15 24  1  0  0  0  0
 15 23  1  0  0  0  0
 16 15  1  0  0  0  0
 17 16  2  0  0  0  0
 18 31  1  0  0  0  0
 18 14  1  0  0  0  0
 19 18  2  0  0  0  0
 20 16  1  0  0  0  0
 25 20  1  0  0  0  0
 26 35  1  0  0  0  0
 26 27  1  0  0  0  0
 27 28  1  0  0  0  0
 27 39  1  0  0  0  0
 27 38  1  0  0  0  0
 28 40  1  1  0  0  0
 29 43  1  0  0  0  0
 29 28  1  0  0  0  0
 30 44  1  6  0  0  0
 30 32  1  0  0  0  0
 30 28  1  0  0  0  0
 30 31  1  0  0  0  0
 31 45  1  0  0  0  0
 32 34  1  0  0  0  0
 33 32  2  0  0  0  0
 36 26  1  0  0  0  0
 37 26  1  0  0  0  0
 41 29  1  0  0  0  0
 42 29  1  0  0  0  0
M  END
$$$$
