CDM.pdb
 OpenBabel07022418263D

 43 42  0  0  1  0  0  0  0  0999 V2000
    3.1650   -4.5560    1.5280 N   0  0  0  0  0  0  0  0  0  0  0  0
    2.0170   -3.7200    1.8210 C   0  0  1  0  0  0  0  0  0  0  0  0
    2.4970   -2.8200    2.9820 C   0  0  0  0  0  0  0  0  0  0  0  0
    3.9360   -1.8640    2.4590 S   0  0  0  0  0  0  0  0  0  0  0  0
    1.7280   -2.7990    0.7000 C   0  0  0  0  0  0  0  0  0  0  0  0
    2.6120   -2.6660   -0.1780 O   0  0  0  0  0  0  0  0  0  0  0  0
    3.5340   -4.3990    0.5620 H   0  0  0  0  0  0  0  0  0  0  0  0
    3.8830   -4.5080    2.2600 H   0  0  0  0  0  0  0  0  0  0  0  0
    1.1580   -4.2900    2.1750 H   0  0  0  0  0  0  0  0  0  0  0  0
    1.6650   -2.1460    3.2180 H   0  0  0  0  0  0  0  0  0  0  0  0
    2.7830   -3.4230    3.8690 H   0  0  0  0  0  0  0  0  0  0  0  0
    3.6230   -1.1740    1.2860 H   0  0  0  0  0  0  0  0  0  0  0  0
    0.5220   -2.0550    0.5400 N   0  0  0  0  0  0  0  0  0  0  0  0
    0.2850   -1.1740   -0.5550 C   0  0  1  0  0  0  0  0  0  0  0  0
   -0.4810   -1.8740   -1.6840 C   0  0  0  0  0  0  0  0  0  0  0  0
   -0.6940   -0.8940   -2.7780 C   0  0  0  0  0  0  0  0  0  0  0  0
   -1.8000   -0.3970   -3.0910 O   0  0  0  0  0  0  0  0  0  0  0  0
   -0.4550    0.0350   -0.2200 C   0  0  0  0  0  0  0  0  0  0  0  0
   -0.7450    0.9060   -1.1220 O   0  0  0  0  0  0  0  0  0  0  0  0
    0.4200   -0.4820   -3.5320 O   0  0  0  0  0  0  0  0  0  0  0  0
   -0.2020   -2.1880    1.2740 H   0  0  0  0  0  0  0  0  0  0  0  0
    1.2540   -0.8890   -1.0790 H   0  0  0  0  0  0  0  0  0  0  0  0
    0.0690   -2.7270   -2.0790 H   0  0  0  0  0  0  0  0  0  0  0  0
   -1.4820   -2.1300   -1.2860 H   0  0  0  0  0  0  0  0  0  0  0  0
    0.3270    0.2040   -4.2760 H   0  0  0  0  0  0  0  0  0  0  0  0
    1.6170    0.8620    2.6740 C   0  0  0  0  0  0  0  0  0  0  0  0
    1.6780    2.3260    1.6600 S   0  0  0  0  0  0  0  0  0  0  0  0
    0.2160    3.2980    1.6970 C   0  0  0  0  0  0  0  0  0  0  0  0
   -1.0040    2.8690    1.0010 C   0  0  0  0  0  0  0  0  0  0  0  0
   -1.6750    1.6020    1.3270 C   0  0  2  0  0  0  0  0  0  0  0  0
   -0.9390    0.3950    1.0950 N   0  0  0  0  0  0  0  0  0  0  0  0
   -3.0320    1.5230    0.6660 C   0  0  0  0  0  0  0  0  0  0  0  0
   -3.8210    2.4790    0.7170 O   0  0  0  0  0  0  0  0  0  0  0  0
   -3.3850    0.3720    0.0060 O   0  0  0  0  0  0  0  0  0  0  0  0
    2.5610    0.7520    3.2960 H   0  0  0  0  0  0  0  0  0  0  0  0
    1.6380   -0.0570    2.0330 H   0  0  0  0  0  0  0  0  0  0  0  0
    0.7340    0.8350    3.3490 H   0  0  0  0  0  0  0  0  0  0  0  0
   -0.0690    3.4730    2.7990 H   0  0  0  0  0  0  0  0  0  0  0  0
    0.4640    4.3490    1.3150 H   0  0  0  0  0  0  0  0  0  0  0  0
   -1.7950    3.7140    1.0570 H   0  0  0  0  0  0  0  0  0  0  0  0
   -0.7380    2.9170   -0.1220 H   0  0  0  0  0  0  0  0  0  0  0  0
   -1.9040    1.6010    2.4520 H   0  0  0  0  0  0  0  0  0  0  0  0
   -0.7270   -0.3150    1.8410 H   0  0  0  0  0  0  0  0  0  0  0  0
  1  2  1  0  0  0  0
  1  8  1  0  0  0  0
  2  9  1  1  0  0  0
  2  3  1  0  0  0  0
  3 10  1  0  0  0  0
  3 11  1  0  0  0  0
  4  3  1  0  0  0  0
  5  2  1  0  0  0  0
  6  5  2  0  0  0  0
  7  1  1  0  0  0  0
 12  4  1  0  0  0  0
 13  5  1  0  0  0  0
 13 21  1  0  0  0  0
 14 22  1  6  0  0  0
 14 18  1  0  0  0  0
 14 13  1  0  0  0  0
 15 24  1  0  0  0  0
 15 14  1  0  0  0  0
 16 15  1  0  0  0  0
 17 16  2  0  0  0  0
 18 31  1  0  0  0  0
 19 18  2  0  0  0  0
 20 16  1  0  0  0  0
 23 15  1  0  0  0  0
 25 20  1  0  0  0  0
 26 35  1  0  0  0  0
 26 37  1  0  0  0  0
 27 28  1  0  0  0  0
 27 26  1  0  0  0  0
 28 38  1  0  0  0  0
 29 40  1  0  0  0  0
 29 30  1  0  0  0  0
 29 28  1  0  0  0  0
 30 42  1  1  0  0  0
 31 30  1  0  0  0  0
 31 43  1  0  0  0  0
 32 33  1  0  0  0  0
 32 30  1  0  0  0  0
 34 32  2  0  0  0  0
 36 26  1  0  0  0  0
 39 28  1  0  0  0  0
 41 29  1  0  0  0  0
M  END
$$$$
