CDN.pdb
 OpenBabel07022418263D

 40 39  0  0  1  0  0  0  0  0999 V2000
   -2.6070   -1.7220    0.4790 N   0  0  0  0  0  0  0  0  0  0  0  0
   -2.2090   -2.7370    1.4390 C   0  0  1  0  0  0  0  0  0  0  0  0
   -2.7560   -4.0960    1.0770 C   0  0  0  0  0  0  0  0  0  0  0  0
   -2.1400   -4.5860   -0.5440 S   0  0  0  0  0  0  0  0  0  0  0  0
   -0.7380   -2.7940    1.5950 C   0  0  0  0  0  0  0  0  0  0  0  0
   -0.2540   -3.6220    2.4120 O   0  0  0  0  0  0  0  0  0  0  0  0
   -2.4930   -0.7620    0.8710 H   0  0  0  0  0  0  0  0  0  0  0  0
   -3.6450   -1.8360    0.3180 H   0  0  0  0  0  0  0  0  0  0  0  0
   -2.6480   -2.4510    2.4160 H   0  0  0  0  0  0  0  0  0  0  0  0
   -2.4390   -4.8030    1.8670 H   0  0  0  0  0  0  0  0  0  0  0  0
   -3.8660   -4.0350    1.0700 H   0  0  0  0  0  0  0  0  0  0  0  0
   -3.1210   -4.2390   -1.5180 H   0  0  0  0  0  0  0  0  0  0  0  0
    0.1910   -1.9810    0.8920 N   0  0  0  0  0  0  0  0  0  0  0  0
    1.6230   -2.0880    1.0930 C   0  0  1  0  0  0  0  0  0  0  0  0
    2.2700   -2.4790   -0.2320 C   0  0  0  0  0  0  0  0  0  0  0  0
    1.9910   -1.4520   -1.2740 C   0  0  0  0  0  0  0  0  0  0  0  0
    0.8860   -1.4260   -1.8520 O   0  0  0  0  0  0  0  0  0  0  0  0
    2.2440   -0.7960    1.4790 C   0  0  0  0  0  0  0  0  0  0  0  0
    3.4500   -0.7300    1.7030 O   0  0  0  0  0  0  0  0  0  0  0  0
    2.9430   -0.5100   -1.6260 O   0  0  0  0  0  0  0  0  0  0  0  0
   -0.1910   -1.2920    0.2150 H   0  0  0  0  0  0  0  0  0  0  0  0
    1.7960   -2.8720    1.8580 H   0  0  0  0  0  0  0  0  0  0  0  0
    1.8750   -3.4510   -0.5820 H   0  0  0  0  0  0  0  0  0  0  0  0
    3.3650   -2.6060   -0.1210 H   0  0  0  0  0  0  0  0  0  0  0  0
    2.9440    0.0050   -2.4950 H   0  0  0  0  0  0  0  0  0  0  0  0
    0.3920    3.7890   -0.8000 N   0  0  0  0  0  0  0  0  0  0  0  0
    0.5420    2.8810    0.2740 C   0  0  0  0  0  0  0  0  0  0  0  0
   -0.4960    2.3080    0.7040 O   0  0  0  0  0  0  0  0  0  0  0  0
    1.8990    2.6540    0.8330 C   0  0  0  0  0  0  0  0  0  0  0  0
    1.9180    1.6610    1.9540 C   0  0  2  0  0  0  0  0  0  0  0  0
    1.4440    0.3550    1.5890 N   0  0  0  0  0  0  0  0  0  0  0  0
    1.2170    2.1320    3.1570 C   0  0  0  0  0  0  0  0  0  0  0  0
    1.5020    3.2500    3.6350 O   0  0  0  0  0  0  0  0  0  0  0  0
    0.2450    1.3760    3.7870 O   0  0  0  0  0  0  0  0  0  0  0  0
    0.0770    4.7600   -0.6380 H   0  0  0  0  0  0  0  0  0  0  0  0
    0.6050    3.4640   -1.7590 H   0  0  0  0  0  0  0  0  0  0  0  0
    2.6540    2.3950    0.0940 H   0  0  0  0  0  0  0  0  0  0  0  0
    2.2090    3.6420    1.2750 H   0  0  0  0  0  0  0  0  0  0  0  0
    2.9960    1.5310    2.2210 H   0  0  0  0  0  0  0  0  0  0  0  0
    0.4230    0.2650    1.3910 H   0  0  0  0  0  0  0  0  0  0  0  0
  1  7  1  0  0  0  0
  1  2  1  0  0  0  0
  2  5  1  0  0  0  0
  2  9  1  1  0  0  0
  3  2  1  0  0  0  0
  3 10  1  0  0  0  0
  4  3  1  0  0  0  0
  5  6  2  0  0  0  0
  8  1  1  0  0  0  0
 11  3  1  0  0  0  0
 12  4  1  0  0  0  0
 13 14  1  0  0  0  0
 13  5  1  0  0  0  0
 14 18  1  0  0  0  0
 14 22  1  1  0  0  0
 15 24  1  0  0  0  0
 15 14  1  0  0  0  0
 16 15  1  0  0  0  0
 17 16  2  0  0  0  0
 18 31  1  0  0  0  0
 18 19  2  0  0  0  0
 20 16  1  0  0  0  0
 21 13  1  0  0  0  0
 23 15  1  0  0  0  0
 25 20  1  0  0  0  0
 26 35  1  0  0  0  0
 26 27  1  0  0  0  0
 27 28  2  0  0  0  0
 27 29  1  0  0  0  0
 29 38  1  0  0  0  0
 29 30  1  0  0  0  0
 30 39  1  1  0  0  0
 30 32  1  0  0  0  0
 31 30  1  0  0  0  0
 32 33  2  0  0  0  0
 32 34  1  0  0  0  0
 36 26  1  0  0  0  0
 37 29  1  0  0  0  0
 40 31  1  0  0  0  0
M  END
$$$$
