CDQ.pdb
 OpenBabel07022418263D

 43 42  0  0  1  0  0  0  0  0999 V2000
   -2.2200   -3.8320    1.5460 N   0  0  0  0  0  0  0  0  0  0  0  0
   -1.8180   -3.4050    0.2240 C   0  0  1  0  0  0  0  0  0  0  0  0
   -2.9640   -3.5910   -0.7320 C   0  0  0  0  0  0  0  0  0  0  0  0
   -3.4340   -5.3610   -0.7780 S   0  0  0  0  0  0  0  0  0  0  0  0
   -1.3300   -1.9930    0.2580 C   0  0  0  0  0  0  0  0  0  0  0  0
   -1.3370   -1.4250    1.3720 O   0  0  0  0  0  0  0  0  0  0  0  0
   -1.4230   -3.8550    2.2230 H   0  0  0  0  0  0  0  0  0  0  0  0
   -2.9030   -3.1180    1.9040 H   0  0  0  0  0  0  0  0  0  0  0  0
   -1.0020   -4.0970   -0.1030 H   0  0  0  0  0  0  0  0  0  0  0  0
   -3.8900   -3.0600   -0.3580 H   0  0  0  0  0  0  0  0  0  0  0  0
   -2.7810   -3.2110   -1.7430 H   0  0  0  0  0  0  0  0  0  0  0  0
   -2.7400   -5.9250   -1.8650 H   0  0  0  0  0  0  0  0  0  0  0  0
   -0.8840   -1.3190   -0.8790 N   0  0  0  0  0  0  0  0  0  0  0  0
   -0.3890    0.0910   -0.9180 C   0  0  1  0  0  0  0  0  0  0  0  0
   -1.4590    0.9480   -0.2790 C   0  0  0  0  0  0  0  0  0  0  0  0
   -1.2330    2.3950   -0.2550 C   0  0  0  0  0  0  0  0  0  0  0  0
   -0.3320    3.0320   -0.8370 O   0  0  0  0  0  0  0  0  0  0  0  0
    0.9120    0.1290   -0.2140 C   0  0  0  0  0  0  0  0  0  0  0  0
    1.0880   -0.8560    0.5990 O   0  0  0  0  0  0  0  0  0  0  0  0
   -2.1020    3.2320    0.4980 O   0  0  0  0  0  0  0  0  0  0  0  0
   -0.9080   -1.8810   -1.7840 H   0  0  0  0  0  0  0  0  0  0  0  0
   -0.3670    0.3780   -1.9750 H   0  0  0  0  0  0  0  0  0  0  0  0
   -2.4400    0.8070   -0.8360 H   0  0  0  0  0  0  0  0  0  0  0  0
   -1.6580    0.6580    0.7950 H   0  0  0  0  0  0  0  0  0  0  0  0
   -1.7570    4.1420    0.8430 H   0  0  0  0  0  0  0  0  0  0  0  0
    1.4390    0.3980    5.1120 N   0  0  0  0  0  0  0  0  0  0  0  0
    2.2630    0.0940    4.0010 C   0  0  0  0  0  0  0  0  0  0  0  0
    3.0470   -0.8730    4.0660 O   0  0  0  0  0  0  0  0  0  0  0  0
    2.2060    0.9080    2.7660 C   0  0  0  0  0  0  0  0  0  0  0  0
    3.1630    0.3330    1.7640 C   0  0  0  0  0  0  0  0  0  0  0  0
    3.1870    1.0570    0.4380 C   0  0  2  0  0  0  0  0  0  0  0  0
    1.9470    1.0400   -0.3000 N   0  0  0  0  0  0  0  0  0  0  0  0
    4.3900    0.7690   -0.3350 C   0  0  0  0  0  0  0  0  0  0  0  0
    5.4980    0.7670    0.2570 O   0  0  0  0  0  0  0  0  0  0  0  0
    4.4000    0.4920   -1.6920 O   0  0  0  0  0  0  0  0  0  0  0  0
    0.4490    0.0300    5.2010 H   0  0  0  0  0  0  0  0  0  0  0  0
    1.7410    0.9970    5.9110 H   0  0  0  0  0  0  0  0  0  0  0  0
    1.1690    0.9740    2.4090 H   0  0  0  0  0  0  0  0  0  0  0  0
    2.4830    1.9840    3.0030 H   0  0  0  0  0  0  0  0  0  0  0  0
    4.2160    0.4870    2.1730 H   0  0  0  0  0  0  0  0  0  0  0  0
    3.0470   -0.7420    1.7230 H   0  0  0  0  0  0  0  0  0  0  0  0
    3.2890    2.1540    0.8070 H   0  0  0  0  0  0  0  0  0  0  0  0
    1.8210    1.8110   -1.0390 H   0  0  0  0  0  0  0  0  0  0  0  0
  1  8  1  0  0  0  0
  1  7  1  0  0  0  0
  2  9  1  6  0  0  0
  2  5  1  0  0  0  0
  2  1  1  0  0  0  0
  3 10  1  0  0  0  0
  3  2  1  0  0  0  0
  4  3  1  0  0  0  0
  5  6  2  0  0  0  0
 11  3  1  0  0  0  0
 12  4  1  0  0  0  0
 13  5  1  0  0  0  0
 14 22  1  6  0  0  0
 14 13  1  0  0  0  0
 14 15  1  0  0  0  0
 14 18  1  0  0  0  0
 15 16  1  0  0  0  0
 15 24  1  0  0  0  0
 16 20  1  0  0  0  0
 17 16  2  0  0  0  0
 18 19  2  0  0  0  0
 20 25  1  0  0  0  0
 21 13  1  0  0  0  0
 23 15  1  0  0  0  0
 26 36  1  0  0  0  0
 26 37  1  0  0  0  0
 27 28  2  0  0  0  0
 27 26  1  0  0  0  0
 29 39  1  0  0  0  0
 29 27  1  0  0  0  0
 30 40  1  0  0  0  0
 30 29  1  0  0  0  0
 31 42  1  1  0  0  0
 31 30  1  0  0  0  0
 32 18  1  0  0  0  0
 32 31  1  0  0  0  0
 33 34  1  0  0  0  0
 33 31  1  0  0  0  0
 35 33  2  0  0  0  0
 38 29  1  0  0  0  0
 41 30  1  0  0  0  0
 43 32  1  0  0  0  0
M  END
$$$$
