CDT.pdb
 OpenBabel07022418263D

 40 39  0  0  1  0  0  0  0  0999 V2000
   -1.2000   -2.8360   -1.0820 N   0  0  0  0  0  0  0  0  0  0  0  0
   -0.4010   -3.7110   -0.2770 C   0  0  1  0  0  0  0  0  0  0  0  0
    0.1140   -4.9190   -1.0080 C   0  0  0  0  0  0  0  0  0  0  0  0
    1.1490   -4.5180   -2.4110 S   0  0  0  0  0  0  0  0  0  0  0  0
    0.6990   -2.9300    0.3340 C   0  0  0  0  0  0  0  0  0  0  0  0
    1.5380   -3.5040    1.0820 O   0  0  0  0  0  0  0  0  0  0  0  0
   -1.5870   -2.1030   -0.4340 H   0  0  0  0  0  0  0  0  0  0  0  0
   -0.5660   -2.4030   -1.8080 H   0  0  0  0  0  0  0  0  0  0  0  0
   -1.0770   -4.1020    0.5330 H   0  0  0  0  0  0  0  0  0  0  0  0
   -0.7820   -5.4830   -1.3790 H   0  0  0  0  0  0  0  0  0  0  0  0
    0.5970   -5.5820   -0.2620 H   0  0  0  0  0  0  0  0  0  0  0  0
    2.3120   -5.2830   -2.5000 H   0  0  0  0  0  0  0  0  0  0  0  0
    0.8360   -1.5540    0.1030 N   0  0  0  0  0  0  0  0  0  0  0  0
    1.9300   -0.8260    0.7210 C   0  0  1  0  0  0  0  0  0  0  0  0
    2.7430   -0.2390   -0.3820 C   0  0  0  0  0  0  0  0  0  0  0  0
    3.9200    0.5260    0.0000 C   0  0  0  0  0  0  0  0  0  0  0  0
    4.3270    0.6860    1.1720 O   0  0  0  0  0  0  0  0  0  0  0  0
    1.3570    0.1850    1.6600 C   0  0  0  0  0  0  0  0  0  0  0  0
    2.0580    0.9360    2.3300 O   0  0  0  0  0  0  0  0  0  0  0  0
    4.6900    1.1500   -0.9890 O   0  0  0  0  0  0  0  0  0  0  0  0
    0.1830   -1.0320   -0.4960 H   0  0  0  0  0  0  0  0  0  0  0  0
    2.5230   -1.5420    1.3140 H   0  0  0  0  0  0  0  0  0  0  0  0
    2.0530    0.3150   -1.0640 H   0  0  0  0  0  0  0  0  0  0  0  0
    3.0920   -1.1140   -1.0080 H   0  0  0  0  0  0  0  0  0  0  0  0
    5.5340    1.6550   -0.7750 H   0  0  0  0  0  0  0  0  0  0  0  0
   -1.1050    3.2270    1.1990 C   0  0  0  0  0  0  0  0  0  0  0  0
   -1.6810    2.1810    2.1060 C   0  0  1  0  0  0  0  0  0  0  0  0
   -2.7690    1.5100    1.5080 O   0  0  0  0  0  0  0  0  0  0  0  0
   -0.6860    1.2500    2.6830 C   0  0  2  0  0  0  0  0  0  0  0  0
   -0.0520    0.3330    1.8290 N   0  0  0  0  0  0  0  0  0  0  0  0
   -1.3680    0.4960    3.7960 C   0  0  0  0  0  0  0  0  0  0  0  0
   -1.3120   -0.7390    3.8420 O   0  0  0  0  0  0  0  0  0  0  0  0
   -2.0670    1.2210    4.7800 O   0  0  0  0  0  0  0  0  0  0  0  0
   -1.3270    2.9020    0.1410 H   0  0  0  0  0  0  0  0  0  0  0  0
   -1.5940    4.2190    1.2930 H   0  0  0  0  0  0  0  0  0  0  0  0
   -0.0270    3.3950    1.3530 H   0  0  0  0  0  0  0  0  0  0  0  0
   -2.1460    2.7200    2.9620 H   0  0  0  0  0  0  0  0  0  0  0  0
   -3.5820    2.0430    1.5370 H   0  0  0  0  0  0  0  0  0  0  0  0
    0.0870    1.8590    3.1970 H   0  0  0  0  0  0  0  0  0  0  0  0
   -0.6530   -0.3070    1.2580 H   0  0  0  0  0  0  0  0  0  0  0  0
  1  7  1  0  0  0  0
  1  2  1  0  0  0  0
  2  5  1  0  0  0  0
  2  9  1  1  0  0  0
  3  2  1  0  0  0  0
  3 11  1  0  0  0  0
  4  3  1  0  0  0  0
  5  6  2  0  0  0  0
  8  1  1  0  0  0  0
 10  3  1  0  0  0  0
 12  4  1  0  0  0  0
 13  5  1  0  0  0  0
 13 14  1  0  0  0  0
 14 22  1  1  0  0  0
 14 18  1  0  0  0  0
 15 16  1  0  0  0  0
 15 14  1  0  0  0  0
 16 17  2  0  0  0  0
 18 30  1  0  0  0  0
 18 19  2  0  0  0  0
 20 25  1  0  0  0  0
 20 16  1  0  0  0  0
 21 13  1  0  0  0  0
 23 15  1  0  0  0  0
 24 15  1  0  0  0  0
 26 35  1  0  0  0  0
 26 36  1  0  0  0  0
 26 27  1  0  0  0  0
 27 29  1  0  0  0  0
 27 37  1  1  0  0  0
 28 38  1  0  0  0  0
 28 27  1  0  0  0  0
 29 39  1  1  0  0  0
 29 31  1  0  0  0  0
 30 29  1  0  0  0  0
 31 32  2  0  0  0  0
 31 33  1  0  0  0  0
 34 26  1  0  0  0  0
 40 30  1  0  0  0  0
M  END
$$$$
