CDW.pdb
 OpenBabel07022418263D

 50 51  0  0  1  0  0  0  0  0999 V2000
    5.3150   -1.3320    0.3030 N   0  0  0  0  0  0  0  0  0  0  0  0
    4.2400   -0.4010    0.0250 C   0  0  1  0  0  0  0  0  0  0  0  0
    3.2160   -0.9550   -0.9300 C   0  0  0  0  0  0  0  0  0  0  0  0
    3.9570   -1.3810   -2.5300 S   0  0  0  0  0  0  0  0  0  0  0  0
    3.6410    0.1510    1.2550 C   0  0  0  0  0  0  0  0  0  0  0  0
    4.1520   -0.1670    2.3550 O   0  0  0  0  0  0  0  0  0  0  0  0
    5.1980   -2.2530   -0.1580 H   0  0  0  0  0  0  0  0  0  0  0  0
    5.5280   -1.3960    1.3160 H   0  0  0  0  0  0  0  0  0  0  0  0
    4.7350    0.4520   -0.5310 H   0  0  0  0  0  0  0  0  0  0  0  0
    2.7880   -1.8710   -0.4630 H   0  0  0  0  0  0  0  0  0  0  0  0
    2.3910   -0.2600   -1.1320 H   0  0  0  0  0  0  0  0  0  0  0  0
    3.7750   -0.3630   -3.4890 H   0  0  0  0  0  0  0  0  0  0  0  0
    2.5400    1.0030    1.2250 N   0  0  0  0  0  0  0  0  0  0  0  0
    1.8990    1.5880    2.3880 C   0  0  1  0  0  0  0  0  0  0  0  0
    1.8370    3.0820    2.1680 C   0  0  0  0  0  0  0  0  0  0  0  0
    3.1980    3.6570    2.0070 C   0  0  0  0  0  0  0  0  0  0  0  0
    3.3740    4.8940    1.8030 O   0  0  0  0  0  0  0  0  0  0  0  0
    0.5330    0.9960    2.4620 C   0  0  0  0  0  0  0  0  0  0  0  0
   -0.2420    1.3700    3.3710 O   0  0  0  0  0  0  0  0  0  0  0  0
    4.3620    2.9010    2.0670 O   0  0  0  0  0  0  0  0  0  0  0  0
    2.1370    1.2460    0.2960 H   0  0  0  0  0  0  0  0  0  0  0  0
    2.4710    1.3500    3.3180 H   0  0  0  0  0  0  0  0  0  0  0  0
    1.2930    3.2790    1.2130 H   0  0  0  0  0  0  0  0  0  0  0  0
    1.3710    3.5770    3.0280 H   0  0  0  0  0  0  0  0  0  0  0  0
    5.2080    3.1500    1.5760 H   0  0  0  0  0  0  0  0  0  0  0  0
    0.0910    0.0290    1.5420 N   0  0  0  0  0  0  0  0  0  0  0  0
   -1.2440   -0.5780    1.5840 C   0  0  1  0  0  0  0  0  0  0  0  0
   -1.9740   -0.3720    0.3140 C   0  0  0  0  0  0  0  0  0  0  0  0
   -3.3110   -0.9390    0.1790 C   0  0  0  0  0  0  0  0  0  0  0  0
   -4.5410   -0.3360    0.4610 C   0  0  0  0  0  0  0  0  0  0  0  0
   -5.5190   -1.2250    0.2320 N   0  0  0  0  0  0  0  0  0  0  0  0
   -4.9950   -2.3970   -0.1930 C   0  0  0  0  0  0  0  0  0  0  0  0
   -5.5580   -3.6030   -0.5730 C   0  0  0  0  0  0  0  0  0  0  0  0
   -4.8030   -4.6740   -0.9980 C   0  0  0  0  0  0  0  0  0  0  0  0
   -3.4390   -4.4940   -1.0310 C   0  0  0  0  0  0  0  0  0  0  0  0
   -2.8810   -3.3020   -0.6550 C   0  0  0  0  0  0  0  0  0  0  0  0
   -3.6240   -2.2180   -0.2260 C   0  0  0  0  0  0  0  0  0  0  0  0
   -1.0800   -1.9770    2.0010 C   0  0  0  0  0  0  0  0  0  0  0  0
   -2.0520   -2.7260    2.2620 O   0  0  0  0  0  0  0  0  0  0  0  0
    0.1840   -2.5680    2.1360 O   0  0  0  0  0  0  0  0  0  0  0  0
    0.7620   -0.2620    0.7920 H   0  0  0  0  0  0  0  0  0  0  0  0
   -1.8020   -0.0810    2.4280 H   0  0  0  0  0  0  0  0  0  0  0  0
   -2.0160    0.7110    0.0100 H   0  0  0  0  0  0  0  0  0  0  0  0
   -1.3630   -0.8300   -0.5310 H   0  0  0  0  0  0  0  0  0  0  0  0
   -4.6480    0.6740    0.8040 H   0  0  0  0  0  0  0  0  0  0  0  0
   -6.5620   -1.1030    0.3420 H   0  0  0  0  0  0  0  0  0  0  0  0
   -6.6470   -3.7030   -0.5310 H   0  0  0  0  0  0  0  0  0  0  0  0
   -5.2820   -5.6010   -1.2860 H   0  0  0  0  0  0  0  0  0  0  0  0
   -2.8480   -5.3560   -1.3730 H   0  0  0  0  0  0  0  0  0  0  0  0
   -1.7930   -3.1730   -0.6870 H   0  0  0  0  0  0  0  0  0  0  0  0
  1  8  1  0  0  0  0
  2  9  1  6  0  0  0
  2  1  1  0  0  0  0
  2  5  1  0  0  0  0
  3 10  1  0  0  0  0
  3  2  1  0  0  0  0
  4  3  1  0  0  0  0
  5  6  2  0  0  0  0
  7  1  1  0  0  0  0
 11  3  1  0  0  0  0
 12  4  1  0  0  0  0
 13  5  1  0  0  0  0
 13 14  1  0  0  0  0
 14 18  1  0  0  0  0
 14 22  1  1  0  0  0
 15 14  1  0  0  0  0
 15 24  1  0  0  0  0
 16 20  1  0  0  0  0
 16 15  1  0  0  0  0
 17 16  2  0  0  0  0
 18 19  2  0  0  0  0
 21 13  1  0  0  0  0
 23 15  1  0  0  0  0
 25 20  1  0  0  0  0
 26 27  1  0  0  0  0
 26 18  1  0  0  0  0
 27 38  1  0  0  0  0
 27 42  1  1  0  0  0
 28 27  1  0  0  0  0
 29 28  1  0  0  0  0
 29 30  2  0  0  0  0
 30 45  1  0  0  0  0
 31 46  1  0  0  0  0
 31 30  1  0  0  0  0
 32 31  1  0  0  0  0
 33 47  1  0  0  0  0
 33 32  2  0  0  0  0
 34 33  1  0  0  0  0
 35 34  2  0  0  0  0
 35 36  1  0  0  0  0
 36 37  2  0  0  0  0
 37 32  1  0  0  0  0
 37 29  1  0  0  0  0
 38 40  2  0  0  0  0
 38 39  1  0  0  0  0
 41 26  1  0  0  0  0
 43 28  1  0  0  0  0
 44 28  1  0  0  0  0
 48 34  1  0  0  0  0
 49 35  1  0  0  0  0
 50 36  1  0  0  0  0
M  END
$$$$
