CDY.pdb
 OpenBabel07022418263D

 47 47  0  0  1  0  0  0  0  0999 V2000
   -0.0890    0.9000    5.1150 N   0  0  0  0  0  0  0  0  0  0  0  0
    0.7080   -0.0690    4.2950 C   0  0  1  0  0  0  0  0  0  0  0  0
   -0.0330   -1.3590    4.3170 C   0  0  0  0  0  0  0  0  0  0  0  0
    0.8460   -2.6220    3.3980 S   0  0  0  0  0  0  0  0  0  0  0  0
    0.9670    0.5320    2.9900 C   0  0  0  0  0  0  0  0  0  0  0  0
    0.4860    1.6830    2.7050 O   0  0  0  0  0  0  0  0  0  0  0  0
    0.0560    0.6060    6.1060 H   0  0  0  0  0  0  0  0  0  0  0  0
   -1.1010    0.7360    4.9040 H   0  0  0  0  0  0  0  0  0  0  0  0
    1.6470   -0.2000    4.8750 H   0  0  0  0  0  0  0  0  0  0  0  0
   -1.0960   -1.2620    4.0040 H   0  0  0  0  0  0  0  0  0  0  0  0
   -0.1000   -1.6690    5.3930 H   0  0  0  0  0  0  0  0  0  0  0  0
    2.1770   -2.6960    3.7810 H   0  0  0  0  0  0  0  0  0  0  0  0
    1.7340   -0.0620    1.9680 N   0  0  0  0  0  0  0  0  0  0  0  0
    1.9750    0.5880    0.6870 C   0  0  1  0  0  0  0  0  0  0  0  0
    3.4220    0.8270    0.4460 C   0  0  0  0  0  0  0  0  0  0  0  0
    3.6290    1.4830   -0.8570 C   0  0  0  0  0  0  0  0  0  0  0  0
    3.9190    0.8640   -1.9330 O   0  0  0  0  0  0  0  0  0  0  0  0
    1.3290   -0.0910   -0.4340 C   0  0  0  0  0  0  0  0  0  0  0  0
    1.4160    0.4120   -1.6050 O   0  0  0  0  0  0  0  0  0  0  0  0
    3.5230    2.8750   -1.0270 O   0  0  0  0  0  0  0  0  0  0  0  0
    2.1750   -0.9950    2.0820 H   0  0  0  0  0  0  0  0  0  0  0  0
    1.4950    1.6100    0.7710 H   0  0  0  0  0  0  0  0  0  0  0  0
    3.9780   -0.1560    0.4000 H   0  0  0  0  0  0  0  0  0  0  0  0
    3.8950    1.4860    1.2090 H   0  0  0  0  0  0  0  0  0  0  0  0
    4.0660    3.3390   -1.7650 H   0  0  0  0  0  0  0  0  0  0  0  0
   -5.4280   -1.0030    1.6790 O   0  0  0  0  0  0  0  0  0  0  0  0
   -4.3890   -1.0420    0.7800 C   0  0  0  0  0  0  0  0  0  0  0  0
   -4.2770   -2.1230   -0.0850 C   0  0  0  0  0  0  0  0  0  0  0  0
   -3.2370   -2.1580   -0.9830 C   0  0  0  0  0  0  0  0  0  0  0  0
   -2.3100   -1.1280   -1.0250 C   0  0  0  0  0  0  0  0  0  0  0  0
   -1.2150   -1.2150   -2.0060 C   0  0  0  0  0  0  0  0  0  0  0  0
   -0.0090   -1.9110   -1.4760 C   0  0  2  0  0  0  0  0  0  0  0  0
    0.5910   -1.2970   -0.3280 N   0  0  0  0  0  0  0  0  0  0  0  0
    0.9820   -2.1270   -2.5520 C   0  0  0  0  0  0  0  0  0  0  0  0
    0.6350   -2.5890   -3.6720 O   0  0  0  0  0  0  0  0  0  0  0  0
   -2.4210   -0.0560   -0.1670 C   0  0  0  0  0  0  0  0  0  0  0  0
   -3.4580   -0.0040    0.7400 C   0  0  0  0  0  0  0  0  0  0  0  0
    2.3220   -1.8390   -2.3850 O   0  0  0  0  0  0  0  0  0  0  0  0
   -5.4490   -0.2830    2.3770 H   0  0  0  0  0  0  0  0  0  0  0  0
   -5.0030   -2.9330   -0.0540 H   0  0  0  0  0  0  0  0  0  0  0  0
   -3.1210   -2.9740   -1.6630 H   0  0  0  0  0  0  0  0  0  0  0  0
   -1.5330   -1.7400   -2.9310 H   0  0  0  0  0  0  0  0  0  0  0  0
   -0.9250   -0.1790   -2.2830 H   0  0  0  0  0  0  0  0  0  0  0  0
   -0.2840   -2.9660   -1.1390 H   0  0  0  0  0  0  0  0  0  0  0  0
    0.5050   -1.7160    0.6390 H   0  0  0  0  0  0  0  0  0  0  0  0
   -1.6940    0.7680   -0.1880 H   0  0  0  0  0  0  0  0  0  0  0  0
   -3.5750    0.8190    1.4260 H   0  0  0  0  0  0  0  0  0  0  0  0
  1  7  1  0  0  0  0
  2  3  1  0  0  0  0
  2  9  1  1  0  0  0
  2  1  1  0  0  0  0
  3 11  1  0  0  0  0
  4 12  1  0  0  0  0
  4  3  1  0  0  0  0
  5  2  1  0  0  0  0
  6  5  2  0  0  0  0
  8  1  1  0  0  0  0
 10  3  1  0  0  0  0
 13 21  1  0  0  0  0
 13  5  1  0  0  0  0
 14 22  1  1  0  0  0
 14 13  1  0  0  0  0
 15 14  1  0  0  0  0
 15 24  1  0  0  0  0
 16 15  1  0  0  0  0
 17 16  2  0  0  0  0
 18 33  1  0  0  0  0
 18 14  1  0  0  0  0
 19 18  2  0  0  0  0
 20 16  1  0  0  0  0
 23 15  1  0  0  0  0
 25 20  1  0  0  0  0
 26 39  1  0  0  0  0
 27 26  1  0  0  0  0
 28 40  1  0  0  0  0
 28 27  2  0  0  0  0
 29 28  1  0  0  0  0
 30 29  2  0  0  0  0
 30 36  1  0  0  0  0
 31 32  1  0  0  0  0
 31 30  1  0  0  0  0
 32 44  1  1  0  0  0
 32 33  1  0  0  0  0
 33 45  1  0  0  0  0
 34 38  1  0  0  0  0
 34 32  1  0  0  0  0
 35 34  2  0  0  0  0
 36 37  2  0  0  0  0
 37 27  1  0  0  0  0
 37 47  1  0  0  0  0
 41 29  1  0  0  0  0
 42 31  1  0  0  0  0
 43 31  1  0  0  0  0
 46 36  1  0  0  0  0
M  END
$$$$
