CEC.pdb
 OpenBabel07022418263D

 40 39  0  0  1  0  0  0  0  0999 V2000
    0.5970   -4.6160   -1.7510 N   0  0  0  0  0  0  0  0  0  0  0  0
   -0.1110   -3.4620   -1.2410 C   0  0  1  0  0  0  0  0  0  0  0  0
   -0.9370   -3.8160   -0.0180 C   0  0  0  0  0  0  0  0  0  0  0  0
    0.1130   -4.4530    1.3170 S   0  0  0  0  0  0  0  0  0  0  0  0
    0.8320   -2.3380   -0.9470 C   0  0  0  0  0  0  0  0  0  0  0  0
    2.0850   -2.4630   -1.0960 O   0  0  0  0  0  0  0  0  0  0  0  0
    0.7570   -4.4390   -2.7700 H   0  0  0  0  0  0  0  0  0  0  0  0
    1.5340   -4.7200   -1.2980 H   0  0  0  0  0  0  0  0  0  0  0  0
   -0.8140   -3.1260   -2.0230 H   0  0  0  0  0  0  0  0  0  0  0  0
   -1.4900   -2.9140    0.2810 H   0  0  0  0  0  0  0  0  0  0  0  0
   -1.6740   -4.5860   -0.3540 H   0  0  0  0  0  0  0  0  0  0  0  0
    1.3810   -4.8610    0.8350 H   0  0  0  0  0  0  0  0  0  0  0  0
    0.3580   -1.0800   -0.4870 N   0  0  0  0  0  0  0  0  0  0  0  0
    1.2950    0.0360   -0.1950 C   0  0  1  0  0  0  0  0  0  0  0  0
    0.9870    1.0580   -1.2230 C   0  0  0  0  0  0  0  0  0  0  0  0
    1.6940    2.3460   -1.2200 C   0  0  0  0  0  0  0  0  0  0  0  0
    1.3840    3.2440   -0.1040 C   0  0  0  0  0  0  0  0  0  0  0  0
    0.3370    3.0740    0.5660 O   0  0  0  0  0  0  0  0  0  0  0  0
    1.1760    0.3840    1.2080 C   0  0  0  0  0  0  0  0  0  0  0  0
    2.0510    1.1310    1.7760 O   0  0  0  0  0  0  0  0  0  0  0  0
    2.2240    4.2940    0.2440 O   0  0  0  0  0  0  0  0  0  0  0  0
   -0.6700   -0.9810   -0.3680 H   0  0  0  0  0  0  0  0  0  0  0  0
    2.3350   -0.4000   -0.3870 H   0  0  0  0  0  0  0  0  0  0  0  0
    1.1010    0.5550   -2.2210 H   0  0  0  0  0  0  0  0  0  0  0  0
   -0.1220    1.2590   -1.1500 H   0  0  0  0  0  0  0  0  0  0  0  0
    1.3570    2.8980   -2.1550 H   0  0  0  0  0  0  0  0  0  0  0  0
    2.7960    2.2270   -1.3700 H   0  0  0  0  0  0  0  0  0  0  0  0
    1.8590    5.0020    0.8740 H   0  0  0  0  0  0  0  0  0  0  0  0
    0.1200   -0.0580    2.0400 N   0  0  0  0  0  0  0  0  0  0  0  0
    0.0310    0.3120    3.4460 C   0  0  1  0  0  0  0  0  0  0  0  0
   -1.2100    1.1230    3.7410 C   0  0  0  0  0  0  0  0  0  0  0  0
   -2.7300    0.2190    3.3490 S   0  0  0  0  0  0  0  0  0  0  0  0
   -0.0080   -0.9070    4.2840 C   0  0  0  0  0  0  0  0  0  0  0  0
    0.0410   -2.0340    3.7330 O   0  0  0  0  0  0  0  0  0  0  0  0
   -0.0970   -0.8680    5.6580 O   0  0  0  0  0  0  0  0  0  0  0  0
   -0.6200   -0.6670    1.6350 H   0  0  0  0  0  0  0  0  0  0  0  0
    0.9020    0.9440    3.7420 H   0  0  0  0  0  0  0  0  0  0  0  0
   -1.2410    1.3810    4.8180 H   0  0  0  0  0  0  0  0  0  0  0  0
   -1.2320    2.0730    3.1670 H   0  0  0  0  0  0  0  0  0  0  0  0
   -2.6610   -0.1760    1.9950 H   0  0  0  0  0  0  0  0  0  0  0  0
  1  8  1  0  0  0  0
  1  2  1  0  0  0  0
  2  9  1  6  0  0  0
  2  5  1  0  0  0  0
  2  3  1  0  0  0  0
  3 10  1  0  0  0  0
  3  4  1  0  0  0  0
  5 13  1  0  0  0  0
  6  5  2  0  0  0  0
  7  1  1  0  0  0  0
 11  3  1  0  0  0  0
 12  4  1  0  0  0  0
 13 22  1  0  0  0  0
 13 14  1  0  0  0  0
 14 23  1  6  0  0  0
 14 19  1  0  0  0  0
 15 16  1  0  0  0  0
 15 25  1  0  0  0  0
 15 14  1  0  0  0  0
 16 17  1  0  0  0  0
 17 21  1  0  0  0  0
 17 18  2  0  0  0  0
 19 20  2  0  0  0  0
 19 29  1  0  0  0  0
 21 28  1  0  0  0  0
 24 15  1  0  0  0  0
 26 16  1  0  0  0  0
 27 16  1  0  0  0  0
 29 30  1  0  0  0  0
 30 31  1  0  0  0  0
 30 37  1  1  0  0  0
 30 33  1  0  0  0  0
 31 38  1  0  0  0  0
 32 31  1  0  0  0  0
 33 35  1  0  0  0  0
 34 33  2  0  0  0  0
 36 29  1  0  0  0  0
 39 31  1  0  0  0  0
 40 32  1  0  0  0  0
M  END
$$$$
