CED.pdb
 OpenBabel07022418263D

 42 41  0  0  1  0  0  0  0  0999 V2000
    2.6170   -3.8260    1.9900 N   0  0  0  0  0  0  0  0  0  0  0  0
    1.7950   -3.1390    1.0160 C   0  0  1  0  0  0  0  0  0  0  0  0
    0.3910   -3.6510    1.1340 C   0  0  0  0  0  0  0  0  0  0  0  0
    0.4050   -5.4380    0.8100 S   0  0  0  0  0  0  0  0  0  0  0  0
    1.9200   -1.6870    1.2180 C   0  0  0  0  0  0  0  0  0  0  0  0
    2.7140   -1.2360    2.0840 O   0  0  0  0  0  0  0  0  0  0  0  0
    2.2530   -4.8110    2.1590 H   0  0  0  0  0  0  0  0  0  0  0  0
    2.6020   -3.3410    2.9160 H   0  0  0  0  0  0  0  0  0  0  0  0
    2.2280   -3.3840    0.0100 H   0  0  0  0  0  0  0  0  0  0  0  0
   -0.0400   -3.4950    2.1430 H   0  0  0  0  0  0  0  0  0  0  0  0
   -0.2970   -3.2060    0.3880 H   0  0  0  0  0  0  0  0  0  0  0  0
    0.6010   -5.5750   -0.5970 H   0  0  0  0  0  0  0  0  0  0  0  0
    1.1770   -0.7290    0.4720 N   0  0  0  0  0  0  0  0  0  0  0  0
    1.3210    0.6980    0.6930 C   0  0  1  0  0  0  0  0  0  0  0  0
    1.6380    1.4580   -0.5440 C   0  0  0  0  0  0  0  0  0  0  0  0
    2.9060    1.0590   -1.2210 C   0  0  0  0  0  0  0  0  0  0  0  0
    4.1270    1.2190   -0.4360 C   0  0  0  0  0  0  0  0  0  0  0  0
    4.1410    1.6580    0.7280 O   0  0  0  0  0  0  0  0  0  0  0  0
    0.0280    1.2290    1.2480 C   0  0  0  0  0  0  0  0  0  0  0  0
   -0.0580    2.4760    1.4810 O   0  0  0  0  0  0  0  0  0  0  0  0
    5.3520    0.8610   -1.0200 O   0  0  0  0  0  0  0  0  0  0  0  0
    0.4980   -1.0870   -0.2620 H   0  0  0  0  0  0  0  0  0  0  0  0
    2.1010    0.9000    1.4630 H   0  0  0  0  0  0  0  0  0  0  0  0
    0.8170    1.3000   -1.2790 H   0  0  0  0  0  0  0  0  0  0  0  0
    1.6440    2.5470   -0.3140 H   0  0  0  0  0  0  0  0  0  0  0  0
    2.9990    1.6440   -2.1780 H   0  0  0  0  0  0  0  0  0  0  0  0
    2.7970   -0.0170   -1.5270 H   0  0  0  0  0  0  0  0  0  0  0  0
    6.1490    0.5820   -0.4460 H   0  0  0  0  0  0  0  0  0  0  0  0
   -1.0650    0.3710    1.5070 N   0  0  0  0  0  0  0  0  0  0  0  0
   -2.3360    0.8110    2.0400 C   0  0  1  0  0  0  0  0  0  0  0  0
   -3.4190    0.2920    1.1200 C   0  0  0  0  0  0  0  0  0  0  0  0
   -3.2280    0.8290   -0.2470 C   0  0  0  0  0  0  0  0  0  0  0  0
   -3.5560    1.9970   -0.5770 O   0  0  0  0  0  0  0  0  0  0  0  0
   -2.4990    0.1320    3.3670 C   0  0  0  0  0  0  0  0  0  0  0  0
   -3.5450    0.3540    4.0220 O   0  0  0  0  0  0  0  0  0  0  0  0
   -2.6680    0.0270   -1.2090 O   0  0  0  0  0  0  0  0  0  0  0  0
   -1.5550   -0.7260    3.9080 O   0  0  0  0  0  0  0  0  0  0  0  0
   -0.9630   -0.6380    1.3080 H   0  0  0  0  0  0  0  0  0  0  0  0
   -2.3770    1.9150    2.1580 H   0  0  0  0  0  0  0  0  0  0  0  0
   -3.3140   -0.8130    1.0980 H   0  0  0  0  0  0  0  0  0  0  0  0
   -4.4350    0.5320    1.5150 H   0  0  0  0  0  0  0  0  0  0  0  0
   -2.4860    0.3700   -2.1590 H   0  0  0  0  0  0  0  0  0  0  0  0
  1  7  1  0  0  0  0
  1  8  1  0  0  0  0
  2  9  1  6  0  0  0
  2  3  1  0  0  0  0
  2  5  1  0  0  0  0
  2  1  1  0  0  0  0
  3 10  1  0  0  0  0
  4  3  1  0  0  0  0
  5  6  2  0  0  0  0
 11  3  1  0  0  0  0
 12  4  1  0  0  0  0
 13 14  1  0  0  0  0
 13  5  1  0  0  0  0
 14 19  1  0  0  0  0
 14 23  1  1  0  0  0
 15 25  1  0  0  0  0
 15 14  1  0  0  0  0
 16 15  1  0  0  0  0
 16 17  1  0  0  0  0
 17 18  2  0  0  0  0
 19 20  2  0  0  0  0
 19 29  1  0  0  0  0
 21 28  1  0  0  0  0
 21 17  1  0  0  0  0
 22 13  1  0  0  0  0
 24 15  1  0  0  0  0
 26 16  1  0  0  0  0
 27 16  1  0  0  0  0
 29 30  1  0  0  0  0
 30 39  1  1  0  0  0
 30 34  1  0  0  0  0
 31 41  1  0  0  0  0
 31 30  1  0  0  0  0
 32 31  1  0  0  0  0
 33 32  2  0  0  0  0
 34 37  2  0  0  0  0
 34 35  1  0  0  0  0
 36 32  1  0  0  0  0
 38 29  1  0  0  0  0
 40 31  1  0  0  0  0
 42 36  1  0  0  0  0
M  END
$$$$
