CEF.pdb
 OpenBabel07022418263D

 49 49  0  0  1  0  0  0  0  0999 V2000
    1.9690   -1.8930    5.0220 N   0  0  0  0  0  0  0  0  0  0  0  0
    2.3380   -1.9990    3.5980 C   0  0  1  0  0  0  0  0  0  0  0  0
    1.7980   -3.2990    3.0790 C   0  0  0  0  0  0  0  0  0  0  0  0
    2.1800   -3.6340    1.3630 S   0  0  0  0  0  0  0  0  0  0  0  0
    1.8390   -0.8160    2.8780 C   0  0  0  0  0  0  0  0  0  0  0  0
    1.1610    0.0870    3.5030 O   0  0  0  0  0  0  0  0  0  0  0  0
    1.1970   -2.5510    5.2220 H   0  0  0  0  0  0  0  0  0  0  0  0
    2.7820   -2.1730    5.6140 H   0  0  0  0  0  0  0  0  0  0  0  0
    3.4430   -2.0360    3.5420 H   0  0  0  0  0  0  0  0  0  0  0  0
    2.2690   -4.1200    3.6800 H   0  0  0  0  0  0  0  0  0  0  0  0
    0.6940   -3.3960    3.2660 H   0  0  0  0  0  0  0  0  0  0  0  0
    1.0300   -3.9880    0.6140 H   0  0  0  0  0  0  0  0  0  0  0  0
    2.0380   -0.5510    1.5170 N   0  0  0  0  0  0  0  0  0  0  0  0
    1.5200    0.6720    0.8700 C   0  0  1  0  0  0  0  0  0  0  0  0
    2.6810    1.5200    0.4740 C   0  0  0  0  0  0  0  0  0  0  0  0
    2.4480    2.7900   -0.2170 C   0  0  0  0  0  0  0  0  0  0  0  0
    1.8810    2.7290   -1.5650 C   0  0  0  0  0  0  0  0  0  0  0  0
    1.1480    3.6500   -2.0320 O   0  0  0  0  0  0  0  0  0  0  0  0
    0.4660    0.4140   -0.1040 C   0  0  0  0  0  0  0  0  0  0  0  0
   -0.2360    1.3510   -0.6100 O   0  0  0  0  0  0  0  0  0  0  0  0
    2.1300    1.6430   -2.4000 O   0  0  0  0  0  0  0  0  0  0  0  0
    2.5610   -1.2050    0.9140 H   0  0  0  0  0  0  0  0  0  0  0  0
    1.0170    1.2700    1.7120 H   0  0  0  0  0  0  0  0  0  0  0  0
    3.3750    0.8950   -0.1550 H   0  0  0  0  0  0  0  0  0  0  0  0
    3.3210    1.7510    1.3880 H   0  0  0  0  0  0  0  0  0  0  0  0
    3.4180    3.3510   -0.2690 H   0  0  0  0  0  0  0  0  0  0  0  0
    1.7570    3.4190    0.4370 H   0  0  0  0  0  0  0  0  0  0  0  0
    1.6760    1.5900   -3.2880 H   0  0  0  0  0  0  0  0  0  0  0  0
    0.1020   -0.8770   -0.5930 N   0  0  0  0  0  0  0  0  0  0  0  0
   -0.9190   -1.1920   -1.5200 C   0  0  1  0  0  0  0  0  0  0  0  0
   -2.2300   -0.4480   -1.3840 C   0  0  0  0  0  0  0  0  0  0  0  0
   -2.9010   -0.6940   -0.0910 C   0  0  0  0  0  0  0  0  0  0  0  0
   -2.8130    0.0240    1.0490 C   0  0  0  0  0  0  0  0  0  0  0  0
   -3.4760   -0.3010    2.2150 C   0  0  0  0  0  0  0  0  0  0  0  0
   -4.2840   -1.4090    2.2680 C   0  0  0  0  0  0  0  0  0  0  0  0
   -4.3940   -2.1590    1.1220 C   0  0  0  0  0  0  0  0  0  0  0  0
   -3.7290   -1.8270   -0.0360 C   0  0  0  0  0  0  0  0  0  0  0  0
   -0.4190   -1.2590   -2.8990 C   0  0  0  0  0  0  0  0  0  0  0  0
   -1.1990   -1.5190   -3.8790 O   0  0  0  0  0  0  0  0  0  0  0  0
    0.9070   -1.0540   -3.2550 O   0  0  0  0  0  0  0  0  0  0  0  0
    0.7040   -1.6510   -0.1810 H   0  0  0  0  0  0  0  0  0  0  0  0
   -1.2630   -2.2780   -1.2740 H   0  0  0  0  0  0  0  0  0  0  0  0
   -2.1650    0.6280   -1.6490 H   0  0  0  0  0  0  0  0  0  0  0  0
   -2.8920   -0.8740   -2.1780 H   0  0  0  0  0  0  0  0  0  0  0  0
   -2.2090    0.9010    1.0800 H   0  0  0  0  0  0  0  0  0  0  0  0
   -3.3860    0.2890    3.1080 H   0  0  0  0  0  0  0  0  0  0  0  0
   -4.8210   -1.6980    3.1600 H   0  0  0  0  0  0  0  0  0  0  0  0
   -5.0340   -3.0370    1.1610 H   0  0  0  0  0  0  0  0  0  0  0  0
   -3.8450   -2.4440   -0.9100 H   0  0  0  0  0  0  0  0  0  0  0  0
  1  7  1  0  0  0  0
  1  8  1  0  0  0  0
  2  9  1  6  0  0  0
  2  1  1  0  0  0  0
  3 11  1  0  0  0  0
  3  2  1  0  0  0  0
  3 10  1  0  0  0  0
  4  3  1  0  0  0  0
  5  6  2  0  0  0  0
  5  2  1  0  0  0  0
 12  4  1  0  0  0  0
 13  5  1  0  0  0  0
 14 13  1  0  0  0  0
 14 23  1  1  0  0  0
 15 14  1  0  0  0  0
 15 25  1  0  0  0  0
 16 27  1  0  0  0  0
 16 15  1  0  0  0  0
 17 16  1  0  0  0  0
 18 17  2  0  0  0  0
 19 14  1  0  0  0  0
 20 19  2  0  0  0  0
 21 17  1  0  0  0  0
 22 13  1  0  0  0  0
 24 15  1  0  0  0  0
 26 16  1  0  0  0  0
 28 21  1  0  0  0  0
 29 41  1  0  0  0  0
 29 19  1  0  0  0  0
 30 31  1  0  0  0  0
 30 42  1  1  0  0  0
 30 29  1  0  0  0  0
 31 32  1  0  0  0  0
 32 37  2  0  0  0  0
 32 33  1  0  0  0  0
 33 45  1  0  0  0  0
 33 34  2  0  0  0  0
 34 35  1  0  0  0  0
 34 46  1  0  0  0  0
 35 47  1  0  0  0  0
 36 48  1  0  0  0  0
 36 35  2  0  0  0  0
 37 36  1  0  0  0  0
 38 30  1  0  0  0  0
 39 38  2  0  0  0  0
 40 38  1  0  0  0  0
 43 31  1  0  0  0  0
 44 31  1  0  0  0  0
 49 37  1  0  0  0  0
M  END
$$$$
