CEH.pdb
 OpenBabel07022418263D

 46 46  0  0  1  0  0  0  0  0999 V2000
    2.3030   -3.6100    1.4040 N   0  0  0  0  0  0  0  0  0  0  0  0
    3.1950   -2.8510    0.5780 C   0  0  1  0  0  0  0  0  0  0  0  0
    2.9040   -3.2450   -0.8670 C   0  0  0  0  0  0  0  0  0  0  0  0
    3.9900   -2.3290   -1.9620 S   0  0  0  0  0  0  0  0  0  0  0  0
    2.9180   -1.3860    0.7330 C   0  0  0  0  0  0  0  0  0  0  0  0
    3.5880   -0.5350    0.0990 O   0  0  0  0  0  0  0  0  0  0  0  0
    2.4070   -3.4710    2.4140 H   0  0  0  0  0  0  0  0  0  0  0  0
    1.3100   -3.5410    1.1110 H   0  0  0  0  0  0  0  0  0  0  0  0
    4.2350   -3.1070    0.8630 H   0  0  0  0  0  0  0  0  0  0  0  0
    2.9630   -4.3330   -0.9830 H   0  0  0  0  0  0  0  0  0  0  0  0
    1.8300   -2.9660   -1.0280 H   0  0  0  0  0  0  0  0  0  0  0  0
    3.4640   -2.3630   -3.2820 H   0  0  0  0  0  0  0  0  0  0  0  0
    1.8810   -1.0050    1.6130 N   0  0  0  0  0  0  0  0  0  0  0  0
    1.4620    0.3130    1.9280 C   0  0  1  0  0  0  0  0  0  0  0  0
    2.4410    1.4300    1.6520 C   0  0  0  0  0  0  0  0  0  0  0  0
    3.7030    1.3590    2.4530 C   0  0  0  0  0  0  0  0  0  0  0  0
    3.4090    1.4430    3.9300 C   0  0  0  0  0  0  0  0  0  0  0  0
    3.0400    2.5320    4.4110 O   0  0  0  0  0  0  0  0  0  0  0  0
    0.0590    0.6400    1.6320 C   0  0  0  0  0  0  0  0  0  0  0  0
   -0.3660    1.7950    1.8910 O   0  0  0  0  0  0  0  0  0  0  0  0
    3.5400    0.3470    4.7520 O   0  0  0  0  0  0  0  0  0  0  0  0
    1.3190   -1.7760    2.1210 H   0  0  0  0  0  0  0  0  0  0  0  0
    1.5130    0.3130    3.1070 H   0  0  0  0  0  0  0  0  0  0  0  0
    1.9160    2.3830    1.9670 H   0  0  0  0  0  0  0  0  0  0  0  0
    2.7050    1.5230    0.5840 H   0  0  0  0  0  0  0  0  0  0  0  0
    4.3790    2.2180    2.1720 H   0  0  0  0  0  0  0  0  0  0  0  0
    4.3200    0.4650    2.3180 H   0  0  0  0  0  0  0  0  0  0  0  0
    3.4820    0.4580    5.7470 H   0  0  0  0  0  0  0  0  0  0  0  0
   -0.8720   -0.2660    1.0660 N   0  0  0  0  0  0  0  0  0  0  0  0
   -2.2670    0.0870    0.7800 C   0  0  1  0  0  0  0  0  0  0  0  0
   -2.6040   -0.1800   -0.6480 C   0  0  0  0  0  0  0  0  0  0  0  0
   -3.9950    0.2400   -0.9370 C   0  0  0  0  0  0  0  0  0  0  0  0
   -4.6320    0.0980   -2.1890 C   0  0  0  0  0  0  0  0  0  0  0  0
   -5.8730    0.5820   -2.0850 N   0  0  0  0  0  0  0  0  0  0  0  0
   -6.0830    1.0300   -0.8410 C   0  0  0  0  0  0  0  0  0  0  0  0
   -4.9410    0.8110   -0.1820 N   0  0  0  0  0  0  0  0  0  0  0  0
   -3.0700   -0.8300    1.6300 C   0  0  0  0  0  0  0  0  0  0  0  0
   -4.3070   -0.7870    1.6530 O   0  0  0  0  0  0  0  0  0  0  0  0
   -2.4510   -1.7700    2.4290 O   0  0  0  0  0  0  0  0  0  0  0  0
   -0.5320   -1.2210    0.8490 H   0  0  0  0  0  0  0  0  0  0  0  0
   -2.5260    1.1080    1.0330 H   0  0  0  0  0  0  0  0  0  0  0  0
   -2.4180   -1.2330   -0.9520 H   0  0  0  0  0  0  0  0  0  0  0  0
   -1.9630    0.4260   -1.3540 H   0  0  0  0  0  0  0  0  0  0  0  0
   -4.1620   -0.3330   -3.0560 H   0  0  0  0  0  0  0  0  0  0  0  0
   -6.6220    0.6350   -2.8240 H   0  0  0  0  0  0  0  0  0  0  0  0
   -6.9710    1.4810   -0.4160 H   0  0  0  0  0  0  0  0  0  0  0  0
  1  7  1  0  0  0  0
  2  5  1  0  0  0  0
  2  9  1  1  0  0  0
  2  1  1  0  0  0  0
  3  2  1  0  0  0  0
  4  3  1  0  0  0  0
  5 13  1  0  0  0  0
  6  5  2  0  0  0  0
  8  1  1  0  0  0  0
 10  3  1  0  0  0  0
 11  3  1  0  0  0  0
 12  4  1  0  0  0  0
 13 14  1  0  0  0  0
 13 22  1  0  0  0  0
 14 23  1  1  0  0  0
 15 14  1  0  0  0  0
 15 24  1  0  0  0  0
 15 16  1  0  0  0  0
 16 17  1  0  0  0  0
 17 18  2  0  0  0  0
 17 21  1  0  0  0  0
 19 20  2  0  0  0  0
 19 14  1  0  0  0  0
 21 28  1  0  0  0  0
 25 15  1  0  0  0  0
 26 16  1  0  0  0  0
 27 16  1  0  0  0  0
 29 19  1  0  0  0  0
 30 41  1  1  0  0  0
 30 29  1  0  0  0  0
 30 37  1  0  0  0  0
 31 30  1  0  0  0  0
 32 31  1  0  0  0  0
 32 36  1  0  0  0  0
 33 34  1  0  0  0  0
 33 32  2  0  0  0  0
 34 35  1  0  0  0  0
 35 46  1  0  0  0  0
 35 36  2  0  0  0  0
 37 38  2  0  0  0  0
 37 39  1  0  0  0  0
 40 29  1  0  0  0  0
 42 31  1  0  0  0  0
 43 31  1  0  0  0  0
 44 33  1  0  0  0  0
 45 34  1  0  0  0  0
M  END
$$$$
