CEL.pdb
 OpenBabel07022418263D

 48 47  0  0  1  0  0  0  0  0999 V2000
    1.2030   -4.5700    0.0700 N   0  0  0  0  0  0  0  0  0  0  0  0
    1.4310   -3.3140    0.7160 C   0  0  1  0  0  0  0  0  0  0  0  0
    2.9050   -3.1860    1.0510 C   0  0  0  0  0  0  0  0  0  0  0  0
    3.8420   -3.2800   -0.5230 S   0  0  0  0  0  0  0  0  0  0  0  0
    1.0630   -2.1570   -0.1820 C   0  0  0  0  0  0  0  0  0  0  0  0
    0.6220   -2.3620   -1.3360 O   0  0  0  0  0  0  0  0  0  0  0  0
    2.0160   -5.2060    0.2410 H   0  0  0  0  0  0  0  0  0  0  0  0
    0.3710   -5.0580    0.5040 H   0  0  0  0  0  0  0  0  0  0  0  0
    0.8670   -3.2090    1.6610 H   0  0  0  0  0  0  0  0  0  0  0  0
    3.2080   -4.0790    1.6290 H   0  0  0  0  0  0  0  0  0  0  0  0
    3.1400   -2.2380    1.5690 H   0  0  0  0  0  0  0  0  0  0  0  0
    3.3210   -4.3840   -1.2590 H   0  0  0  0  0  0  0  0  0  0  0  0
    1.2370   -0.8510    0.3330 N   0  0  0  0  0  0  0  0  0  0  0  0
    0.9710    0.3700   -0.3520 C   0  0  1  0  0  0  0  0  0  0  0  0
    0.9730    0.2830   -1.8630 C   0  0  0  0  0  0  0  0  0  0  0  0
    2.2900   -0.0990   -2.4710 C   0  0  0  0  0  0  0  0  0  0  0  0
    3.3720    0.9010   -2.2310 C   0  0  0  0  0  0  0  0  0  0  0  0
    3.2040    2.0000   -1.6740 O   0  0  0  0  0  0  0  0  0  0  0  0
   -0.1580    1.1620    0.1500 C   0  0  0  0  0  0  0  0  0  0  0  0
   -0.4100    2.2460   -0.4380 O   0  0  0  0  0  0  0  0  0  0  0  0
    4.6800    0.6150   -2.6500 O   0  0  0  0  0  0  0  0  0  0  0  0
    1.6040   -0.7730    1.3330 H   0  0  0  0  0  0  0  0  0  0  0  0
    1.9160    1.0130   -0.1630 H   0  0  0  0  0  0  0  0  0  0  0  0
    0.1380   -0.2950   -2.2790 H   0  0  0  0  0  0  0  0  0  0  0  0
    0.7920    1.3500   -2.2030 H   0  0  0  0  0  0  0  0  0  0  0  0
    2.1880   -0.1190   -3.6030 H   0  0  0  0  0  0  0  0  0  0  0  0
    2.6720   -1.0930   -2.2220 H   0  0  0  0  0  0  0  0  0  0  0  0
    5.4820    1.1200   -2.2700 H   0  0  0  0  0  0  0  0  0  0  0  0
   -3.4160   -0.4840    3.7260 C   0  0  0  0  0  0  0  0  0  0  0  0
   -3.5760   -0.5010    2.2200 C   0  0  0  0  0  0  0  0  0  0  0  0
   -2.8010   -1.6420    1.6670 C   0  0  0  0  0  0  0  0  0  0  0  0
   -3.3550    0.8180    1.5900 C   0  0  0  0  0  0  0  0  0  0  0  0
   -2.0330    1.4630    1.7680 C   0  0  2  0  0  0  0  0  0  0  0  0
   -0.9170    0.6980    1.2570 N   0  0  0  0  0  0  0  0  0  0  0  0
   -1.7720    1.9600    3.1430 C   0  0  0  0  0  0  0  0  0  0  0  0
   -2.6160    2.6460    3.7650 O   0  0  0  0  0  0  0  0  0  0  0  0
   -0.5800    1.6830    3.7930 O   0  0  0  0  0  0  0  0  0  0  0  0
   -4.0080    0.3180    4.1820 H   0  0  0  0  0  0  0  0  0  0  0  0
   -3.7460   -1.4850    4.1360 H   0  0  0  0  0  0  0  0  0  0  0  0
   -2.3530   -0.4020    3.9970 H   0  0  0  0  0  0  0  0  0  0  0  0
   -4.6740   -0.7340    2.0660 H   0  0  0  0  0  0  0  0  0  0  0  0
   -2.0190   -2.0290    2.3530 H   0  0  0  0  0  0  0  0  0  0  0  0
   -3.4890   -2.5000    1.5130 H   0  0  0  0  0  0  0  0  0  0  0  0
   -2.3860   -1.4460    0.6340 H   0  0  0  0  0  0  0  0  0  0  0  0
   -4.1180    1.5240    2.0330 H   0  0  0  0  0  0  0  0  0  0  0  0
   -3.5880    0.7760    0.5160 H   0  0  0  0  0  0  0  0  0  0  0  0
   -2.0710    2.4040    1.1350 H   0  0  0  0  0  0  0  0  0  0  0  0
   -0.6180   -0.2150    1.6720 H   0  0  0  0  0  0  0  0  0  0  0  0
  1  7  1  0  0  0  0
  1  8  1  0  0  0  0
  1  2  1  0  0  0  0
  2  3  1  0  0  0  0
  2  9  1  1  0  0  0
  3 11  1  0  0  0  0
  3 10  1  0  0  0  0
  4  3  1  0  0  0  0
  5 13  1  0  0  0  0
  5  2  1  0  0  0  0
  6  5  2  0  0  0  0
 12  4  1  0  0  0  0
 13 22  1  0  0  0  0
 14 23  1  1  0  0  0
 14 19  1  0  0  0  0
 14 13  1  0  0  0  0
 15 14  1  0  0  0  0
 16 17  1  0  0  0  0
 16 27  1  0  0  0  0
 16 15  1  0  0  0  0
 17 18  2  0  0  0  0
 19 34  1  0  0  0  0
 20 19  2  0  0  0  0
 21 28  1  0  0  0  0
 21 17  1  0  0  0  0
 24 15  1  0  0  0  0
 25 15  1  0  0  0  0
 26 16  1  0  0  0  0
 29 40  1  0  0  0  0
 29 39  1  0  0  0  0
 29 38  1  0  0  0  0
 30 29  1  0  0  0  0
 31 30  1  0  0  0  0
 31 42  1  0  0  0  0
 32 33  1  0  0  0  0
 32 45  1  0  0  0  0
 32 30  1  0  0  0  0
 33 47  1  6  0  0  0
 33 35  1  0  0  0  0
 34 48  1  0  0  0  0
 34 33  1  0  0  0  0
 35 36  2  0  0  0  0
 35 37  1  0  0  0  0
 41 30  1  0  0  0  0
 43 31  1  0  0  0  0
 44 31  1  0  0  0  0
 46 32  1  0  0  0  0
M  END
$$$$
