CEM.pdb
 OpenBabel07022418263D

 46 45  0  0  1  0  0  0  0  0999 V2000
    3.2480   -4.7930   -0.5260 N   0  0  0  0  0  0  0  0  0  0  0  0
    2.4550   -3.7480   -1.1640 C   0  0  1  0  0  0  0  0  0  0  0  0
    1.2740   -4.4620   -1.8050 C   0  0  0  0  0  0  0  0  0  0  0  0
    0.1530   -3.3580   -2.6600 S   0  0  0  0  0  0  0  0  0  0  0  0
    2.0460   -2.7230   -0.1970 C   0  0  0  0  0  0  0  0  0  0  0  0
    2.3450   -2.9120    1.0270 O   0  0  0  0  0  0  0  0  0  0  0  0
    2.6340   -5.5850   -0.2570 H   0  0  0  0  0  0  0  0  0  0  0  0
    3.8640   -4.4330    0.2090 H   0  0  0  0  0  0  0  0  0  0  0  0
    3.0680   -3.3020   -1.9640 H   0  0  0  0  0  0  0  0  0  0  0  0
    1.7090   -5.1790   -2.5320 H   0  0  0  0  0  0  0  0  0  0  0  0
    0.7670   -5.0860   -1.0320 H   0  0  0  0  0  0  0  0  0  0  0  0
   -0.1730   -3.9000   -3.9240 H   0  0  0  0  0  0  0  0  0  0  0  0
    1.3490   -1.5370   -0.4840 N   0  0  0  0  0  0  0  0  0  0  0  0
    0.9720   -0.5570    0.5480 C   0  0  1  0  0  0  0  0  0  0  0  0
    1.5760    0.7570    0.1910 C   0  0  0  0  0  0  0  0  0  0  0  0
    3.0630    0.6720    0.1170 C   0  0  0  0  0  0  0  0  0  0  0  0
    3.7170    0.3010    1.3720 C   0  0  0  0  0  0  0  0  0  0  0  0
    3.0970    0.1280    2.4330 O   0  0  0  0  0  0  0  0  0  0  0  0
   -0.5270   -0.4480    0.4910 C   0  0  0  0  0  0  0  0  0  0  0  0
   -1.1540   -1.1290   -0.3370 O   0  0  0  0  0  0  0  0  0  0  0  0
    5.1100    0.1240    1.4200 O   0  0  0  0  0  0  0  0  0  0  0  0
    1.0870   -1.3360   -1.4710 H   0  0  0  0  0  0  0  0  0  0  0  0
    1.3050   -0.9140    1.5260 H   0  0  0  0  0  0  0  0  0  0  0  0
    1.2150    1.0760   -0.8210 H   0  0  0  0  0  0  0  0  0  0  0  0
    1.3170    1.5270    0.9460 H   0  0  0  0  0  0  0  0  0  0  0  0
    3.4960    1.6730   -0.1810 H   0  0  0  0  0  0  0  0  0  0  0  0
    3.3750   -0.0540   -0.6740 H   0  0  0  0  0  0  0  0  0  0  0  0
    5.4710   -0.4870    2.1420 H   0  0  0  0  0  0  0  0  0  0  0  0
   -2.2430    3.4140    3.4990 C   0  0  0  0  0  0  0  0  0  0  0  0
   -3.2700    2.1940    4.3060 S   0  0  0  0  0  0  0  0  0  0  0  0
   -2.9610    0.5060    3.9000 C   0  0  0  0  0  0  0  0  0  0  0  0
   -3.3020    0.0010    2.5620 C   0  0  0  0  0  0  0  0  0  0  0  0
   -2.6650    0.5660    1.3570 C   0  0  2  0  0  0  0  0  0  0  0  0
   -1.2340    0.4270    1.3750 N   0  0  0  0  0  0  0  0  0  0  0  0
   -3.1650    1.8500    0.8630 C   0  0  0  0  0  0  0  0  0  0  0  0
   -2.3870    2.7380    0.3930 O   0  0  0  0  0  0  0  0  0  0  0  0
   -4.5120    2.1810    0.8740 O   0  0  0  0  0  0  0  0  0  0  0  0
   -2.9020    3.9860    2.7820 H   0  0  0  0  0  0  0  0  0  0  0  0
   -1.8650    4.1950    4.2010 H   0  0  0  0  0  0  0  0  0  0  0  0
   -1.3980    3.0120    2.9210 H   0  0  0  0  0  0  0  0  0  0  0  0
   -3.5460   -0.1370    4.6400 H   0  0  0  0  0  0  0  0  0  0  0  0
   -1.8910    0.2420    4.1970 H   0  0  0  0  0  0  0  0  0  0  0  0
   -4.4310   -0.0610    2.4280 H   0  0  0  0  0  0  0  0  0  0  0  0
   -3.0290   -1.1100    2.5700 H   0  0  0  0  0  0  0  0  0  0  0  0
   -2.9720   -0.1750    0.5030 H   0  0  0  0  0  0  0  0  0  0  0  0
   -0.6090    0.9530    2.0330 H   0  0  0  0  0  0  0  0  0  0  0  0
  1  7  1  0  0  0  0
  1  8  1  0  0  0  0
  2  9  1  6  0  0  0
  2  1  1  0  0  0  0
  2  5  1  0  0  0  0
  3  2  1  0  0  0  0
  3 11  1  0  0  0  0
  4  3  1  0  0  0  0
  5  6  2  0  0  0  0
 10  3  1  0  0  0  0
 12  4  1  0  0  0  0
 13  5  1  0  0  0  0
 13 14  1  0  0  0  0
 14 23  1  1  0  0  0
 15 14  1  0  0  0  0
 15 25  1  0  0  0  0
 16 15  1  0  0  0  0
 16 17  1  0  0  0  0
 17 21  1  0  0  0  0
 17 18  2  0  0  0  0
 19 14  1  0  0  0  0
 19 34  1  0  0  0  0
 20 19  2  0  0  0  0
 21 28  1  0  0  0  0
 22 13  1  0  0  0  0
 24 15  1  0  0  0  0
 26 16  1  0  0  0  0
 27 16  1  0  0  0  0
 29 39  1  0  0  0  0
 29 30  1  0  0  0  0
 31 42  1  0  0  0  0
 31 30  1  0  0  0  0
 31 41  1  0  0  0  0
 32 44  1  0  0  0  0
 32 31  1  0  0  0  0
 33 45  1  6  0  0  0
 33 34  1  0  0  0  0
 33 32  1  0  0  0  0
 34 46  1  0  0  0  0
 35 37  1  0  0  0  0
 35 33  1  0  0  0  0
 36 35  2  0  0  0  0
 38 29  1  0  0  0  0
 40 29  1  0  0  0  0
 43 32  1  0  0  0  0
M  END
$$$$
