CEN.pdb
 OpenBabel07022418263D

 43 42  0  0  1  0  0  0  0  0999 V2000
   -3.2870   -3.2360    2.6680 N   0  0  0  0  0  0  0  0  0  0  0  0
   -1.9760   -2.6630    2.4740 C   0  0  1  0  0  0  0  0  0  0  0  0
   -1.0830   -3.5410    1.6390 C   0  0  0  0  0  0  0  0  0  0  0  0
   -0.8150   -5.1690    2.3730 S   0  0  0  0  0  0  0  0  0  0  0  0
   -2.1090   -1.3690    1.7580 C   0  0  0  0  0  0  0  0  0  0  0  0
   -3.2300   -0.9780    1.3390 O   0  0  0  0  0  0  0  0  0  0  0  0
   -3.6050   -3.1750    3.6580 H   0  0  0  0  0  0  0  0  0  0  0  0
   -3.4570   -4.1280    2.1920 H   0  0  0  0  0  0  0  0  0  0  0  0
   -1.4370   -2.4670    3.4360 H   0  0  0  0  0  0  0  0  0  0  0  0
   -1.4780   -3.5920    0.6030 H   0  0  0  0  0  0  0  0  0  0  0  0
   -0.0840   -3.0330    1.5760 H   0  0  0  0  0  0  0  0  0  0  0  0
    0.5090   -5.6170    2.2760 H   0  0  0  0  0  0  0  0  0  0  0  0
   -0.9910   -0.5280    1.5200 N   0  0  0  0  0  0  0  0  0  0  0  0
   -1.0930    0.7290    0.8290 C   0  0  1  0  0  0  0  0  0  0  0  0
   -0.8010    1.8920    1.7530 C   0  0  0  0  0  0  0  0  0  0  0  0
    0.5740    1.8120    2.3160 C   0  0  0  0  0  0  0  0  0  0  0  0
    0.8140    2.9740    3.2260 C   0  0  0  0  0  0  0  0  0  0  0  0
   -0.1090    3.8140    3.4080 O   0  0  0  0  0  0  0  0  0  0  0  0
   -0.1830    0.8200   -0.3300 C   0  0  0  0  0  0  0  0  0  0  0  0
   -0.1280    1.8890   -1.0200 O   0  0  0  0  0  0  0  0  0  0  0  0
    2.0290    3.1190    3.8560 O   0  0  0  0  0  0  0  0  0  0  0  0
   -0.0640   -0.8530    1.8640 H   0  0  0  0  0  0  0  0  0  0  0  0
   -2.1450    0.8590    0.4120 H   0  0  0  0  0  0  0  0  0  0  0  0
   -0.9010    2.8180    1.1400 H   0  0  0  0  0  0  0  0  0  0  0  0
   -1.5570    1.9930    2.5610 H   0  0  0  0  0  0  0  0  0  0  0  0
    1.3240    1.9420    1.5030 H   0  0  0  0  0  0  0  0  0  0  0  0
    0.7910    0.8480    2.8030 H   0  0  0  0  0  0  0  0  0  0  0  0
    2.1140    3.6660    4.7160 H   0  0  0  0  0  0  0  0  0  0  0  0
    4.8990    0.6600   -0.7560 N   0  0  0  0  0  0  0  0  0  0  0  0
    3.6370    0.0640   -0.5190 C   0  0  0  0  0  0  0  0  0  0  0  0
    3.1470    0.1590    0.6230 O   0  0  0  0  0  0  0  0  0  0  0  0
    2.9250   -0.6400   -1.5720 C   0  0  0  0  0  0  0  0  0  0  0  0
    1.5140   -0.1960   -1.8050 C   0  0  2  0  0  0  0  0  0  0  0  0
    0.6350   -0.3120   -0.6680 N   0  0  0  0  0  0  0  0  0  0  0  0
    0.9720   -1.0550   -2.8900 C   0  0  0  0  0  0  0  0  0  0  0  0
    1.5960   -1.1250   -3.9670 O   0  0  0  0  0  0  0  0  0  0  0  0
   -0.1910   -1.7610   -2.7260 O   0  0  0  0  0  0  0  0  0  0  0  0
    5.0180    1.6560   -1.0510 H   0  0  0  0  0  0  0  0  0  0  0  0
    5.7850    0.1050   -0.6380 H   0  0  0  0  0  0  0  0  0  0  0  0
    3.4340   -0.5460   -2.5810 H   0  0  0  0  0  0  0  0  0  0  0  0
    2.8880   -1.7560   -1.4100 H   0  0  0  0  0  0  0  0  0  0  0  0
    1.4870    0.8650   -2.2080 H   0  0  0  0  0  0  0  0  0  0  0  0
    0.5780   -1.1730   -0.0940 H   0  0  0  0  0  0  0  0  0  0  0  0
  1  7  1  0  0  0  0
  2  1  1  0  0  0  0
  2  9  1  1  0  0  0
  3  4  1  0  0  0  0
  3  2  1  0  0  0  0
  5  2  1  0  0  0  0
  6  5  2  0  0  0  0
  8  1  1  0  0  0  0
 10  3  1  0  0  0  0
 11  3  1  0  0  0  0
 12  4  1  0  0  0  0
 13  5  1  0  0  0  0
 13 22  1  0  0  0  0
 14 23  1  6  0  0  0
 14 13  1  0  0  0  0
 14 15  1  0  0  0  0
 15 16  1  0  0  0  0
 15 25  1  0  0  0  0
 16 27  1  0  0  0  0
 16 17  1  0  0  0  0
 17 18  2  0  0  0  0
 17 21  1  0  0  0  0
 19 14  1  0  0  0  0
 20 19  2  0  0  0  0
 21 28  1  0  0  0  0
 24 15  1  0  0  0  0
 26 16  1  0  0  0  0
 29 39  1  0  0  0  0
 29 30  1  0  0  0  0
 30 31  2  0  0  0  0
 32 41  1  0  0  0  0
 32 30  1  0  0  0  0
 33 42  1  6  0  0  0
 33 32  1  0  0  0  0
 33 34  1  0  0  0  0
 34 19  1  0  0  0  0
 34 43  1  0  0  0  0
 35 37  1  0  0  0  0
 35 33  1  0  0  0  0
 36 35  2  0  0  0  0
 38 29  1  0  0  0  0
 40 32  1  0  0  0  0
M  END
$$$$
