CEQ.pdb
 OpenBabel07022418263D

 46 45  0  0  1  0  0  0  0  0999 V2000
    0.6260   -2.9710    2.8100 N   0  0  0  0  0  0  0  0  0  0  0  0
    1.9280   -2.5060    2.4410 C   0  0  1  0  0  0  0  0  0  0  0  0
    2.4110   -3.3280    1.2470 C   0  0  0  0  0  0  0  0  0  0  0  0
    4.0570   -2.8010    0.7160 S   0  0  0  0  0  0  0  0  0  0  0  0
    1.9620   -1.0510    2.1210 C   0  0  0  0  0  0  0  0  0  0  0  0
    3.0440   -0.5420    1.7890 O   0  0  0  0  0  0  0  0  0  0  0  0
    0.7370   -3.9110    3.2560 H   0  0  0  0  0  0  0  0  0  0  0  0
   -0.0230   -3.1010    2.0100 H   0  0  0  0  0  0  0  0  0  0  0  0
    2.6260   -2.7390    3.2730 H   0  0  0  0  0  0  0  0  0  0  0  0
    1.6700   -3.3120    0.4230 H   0  0  0  0  0  0  0  0  0  0  0  0
    2.4960   -4.3770    1.6090 H   0  0  0  0  0  0  0  0  0  0  0  0
    4.0980   -2.8300   -0.6910 H   0  0  0  0  0  0  0  0  0  0  0  0
    0.8370   -0.2370    2.1790 N   0  0  0  0  0  0  0  0  0  0  0  0
    0.5950    1.1110    1.9580 C   0  0  1  0  0  0  0  0  0  0  0  0
    1.6560    2.1060    1.7000 C   0  0  0  0  0  0  0  0  0  0  0  0
    2.6350    2.3410    2.8060 C   0  0  0  0  0  0  0  0  0  0  0  0
    1.9220    2.8280    4.0270 C   0  0  0  0  0  0  0  0  0  0  0  0
    1.4510    2.0410    4.8860 O   0  0  0  0  0  0  0  0  0  0  0  0
   -0.5710    1.3360    1.0830 C   0  0  0  0  0  0  0  0  0  0  0  0
   -0.9840    2.5210    0.8250 O   0  0  0  0  0  0  0  0  0  0  0  0
    1.7370    4.1890    4.2850 O   0  0  0  0  0  0  0  0  0  0  0  0
   -0.0620   -0.7800    2.4820 H   0  0  0  0  0  0  0  0  0  0  0  0
    0.2250    1.4850    3.0180 H   0  0  0  0  0  0  0  0  0  0  0  0
    1.1020    3.0970    1.6010 H   0  0  0  0  0  0  0  0  0  0  0  0
    2.1410    2.0180    0.7030 H   0  0  0  0  0  0  0  0  0  0  0  0
    3.3150    3.2210    2.5330 H   0  0  0  0  0  0  0  0  0  0  0  0
    3.3010    1.5680    3.1140 H   0  0  0  0  0  0  0  0  0  0  0  0
    1.4180    4.5140    5.1970 H   0  0  0  0  0  0  0  0  0  0  0  0
   -1.2640   -3.3750   -3.5390 N   0  0  0  0  0  0  0  0  0  0  0  0
   -1.6120   -2.0420   -3.1870 C   0  0  0  0  0  0  0  0  0  0  0  0
   -1.7440   -1.2250   -4.1340 O   0  0  0  0  0  0  0  0  0  0  0  0
   -1.8150   -1.6150   -1.7790 C   0  0  0  0  0  0  0  0  0  0  0  0
   -2.1690   -0.1540   -1.7380 C   0  0  0  0  0  0  0  0  0  0  0  0
   -2.3920    0.3640   -0.3460 C   0  0  2  0  0  0  0  0  0  0  0  0
   -1.2540    0.2330    0.5100 N   0  0  0  0  0  0  0  0  0  0  0  0
   -3.5450   -0.3470    0.2310 C   0  0  0  0  0  0  0  0  0  0  0  0
   -4.6410   -0.3600   -0.3610 O   0  0  0  0  0  0  0  0  0  0  0  0
   -3.4160   -1.0020    1.4310 O   0  0  0  0  0  0  0  0  0  0  0  0
   -1.6320   -3.8230   -4.3870 H   0  0  0  0  0  0  0  0  0  0  0  0
   -0.6190   -3.8960   -2.9120 H   0  0  0  0  0  0  0  0  0  0  0  0
   -0.9190   -1.8670   -1.1950 H   0  0  0  0  0  0  0  0  0  0  0  0
   -2.6430   -2.2350   -1.3790 H   0  0  0  0  0  0  0  0  0  0  0  0
   -3.1000   -0.0140   -2.3250 H   0  0  0  0  0  0  0  0  0  0  0  0
   -1.3760    0.4290   -2.2490 H   0  0  0  0  0  0  0  0  0  0  0  0
   -2.5940    1.4690   -0.4430 H   0  0  0  0  0  0  0  0  0  0  0  0
   -0.9100   -0.7210    0.7140 H   0  0  0  0  0  0  0  0  0  0  0  0
  1  7  1  0  0  0  0
  2  1  1  0  0  0  0
  2  9  1  1  0  0  0
  3 11  1  0  0  0  0
  3  2  1  0  0  0  0
  4  3  1  0  0  0  0
  5 13  1  0  0  0  0
  5  2  1  0  0  0  0
  6  5  2  0  0  0  0
  8  1  1  0  0  0  0
 10  3  1  0  0  0  0
 12  4  1  0  0  0  0
 13 22  1  0  0  0  0
 14 13  1  0  0  0  0
 14 23  1  1  0  0  0
 15 14  1  0  0  0  0
 15 16  1  0  0  0  0
 16 27  1  0  0  0  0
 16 17  1  0  0  0  0
 17 21  1  0  0  0  0
 17 18  2  0  0  0  0
 19 14  1  0  0  0  0
 20 19  2  0  0  0  0
 21 28  1  0  0  0  0
 24 15  1  0  0  0  0
 25 15  1  0  0  0  0
 26 16  1  0  0  0  0
 29 30  1  0  0  0  0
 29 40  1  0  0  0  0
 30 32  1  0  0  0  0
 31 30  2  0  0  0  0
 32 33  1  0  0  0  0
 32 42  1  0  0  0  0
 32 41  1  0  0  0  0
 33 34  1  0  0  0  0
 34 45  1  6  0  0  0
 34 36  1  0  0  0  0
 34 35  1  0  0  0  0
 35 46  1  0  0  0  0
 35 19  1  0  0  0  0
 36 38  1  0  0  0  0
 37 36  2  0  0  0  0
 39 29  1  0  0  0  0
 43 33  1  0  0  0  0
 44 33  1  0  0  0  0
M  END
$$$$
