CES.pdb
 OpenBabel07022418263D

 40 39  0  0  1  0  0  0  0  0999 V2000
   -2.1250   -4.2810   -1.1330 N   0  0  0  0  0  0  0  0  0  0  0  0
   -2.0860   -2.9200   -0.6070 C   0  0  1  0  0  0  0  0  0  0  0  0
   -2.4770   -3.0330    0.8560 C   0  0  0  0  0  0  0  0  0  0  0  0
   -1.3350   -4.0910    1.7690 S   0  0  0  0  0  0  0  0  0  0  0  0
   -0.7590   -2.3040   -0.7930 C   0  0  0  0  0  0  0  0  0  0  0  0
    0.1720   -2.9510   -1.3370 O   0  0  0  0  0  0  0  0  0  0  0  0
   -2.2790   -4.2530   -2.1650 H   0  0  0  0  0  0  0  0  0  0  0  0
   -1.2000   -4.7030   -0.8860 H   0  0  0  0  0  0  0  0  0  0  0  0
   -2.8880   -2.3540   -1.1130 H   0  0  0  0  0  0  0  0  0  0  0  0
   -2.6560   -2.0670    1.3260 H   0  0  0  0  0  0  0  0  0  0  0  0
   -3.4680   -3.5740    0.8460 H   0  0  0  0  0  0  0  0  0  0  0  0
    0.0020   -3.8250    1.4950 H   0  0  0  0  0  0  0  0  0  0  0  0
   -0.4860   -0.9810   -0.3720 N   0  0  0  0  0  0  0  0  0  0  0  0
    0.8470   -0.3640   -0.5600 C   0  0  1  0  0  0  0  0  0  0  0  0
    0.6440    0.7190   -1.5530 C   0  0  0  0  0  0  0  0  0  0  0  0
    1.7820    1.5800   -1.9220 C   0  0  0  0  0  0  0  0  0  0  0  0
    2.1890    2.4510   -0.8130 C   0  0  0  0  0  0  0  0  0  0  0  0
    1.3680    2.6540    0.1310 O   0  0  0  0  0  0  0  0  0  0  0  0
    1.4760   -0.0870    0.7080 C   0  0  0  0  0  0  0  0  0  0  0  0
    2.6980    0.2300    0.8370 O   0  0  0  0  0  0  0  0  0  0  0  0
    3.4220    3.0770   -0.7220 O   0  0  0  0  0  0  0  0  0  0  0  0
   -1.2620   -0.4380    0.0820 H   0  0  0  0  0  0  0  0  0  0  0  0
    1.4580   -1.1840   -1.0620 H   0  0  0  0  0  0  0  0  0  0  0  0
   -0.2200    1.3600   -1.1850 H   0  0  0  0  0  0  0  0  0  0  0  0
    0.1760    0.2140   -2.4600 H   0  0  0  0  0  0  0  0  0  0  0  0
    2.6440    1.0240   -2.3650 H   0  0  0  0  0  0  0  0  0  0  0  0
    1.4790    2.2800   -2.7580 H   0  0  0  0  0  0  0  0  0  0  0  0
    3.4440    3.9760   -0.2530 H   0  0  0  0  0  0  0  0  0  0  0  0
    0.8020    2.4590    3.2020 O   0  0  0  0  0  0  0  0  0  0  0  0
    0.6490    1.2780    3.9210 C   0  0  0  0  0  0  0  0  0  0  0  0
    1.2720    0.1020    3.2170 C   0  0  2  0  0  0  0  0  0  0  0  0
    0.7240   -0.1580    1.9310 N   0  0  0  0  0  0  0  0  0  0  0  0
    1.2140   -1.1140    4.0420 C   0  0  0  0  0  0  0  0  0  0  0  0
    0.7310   -2.1660    3.5620 O   0  0  0  0  0  0  0  0  0  0  0  0
    1.6780   -1.1510    5.3490 O   0  0  0  0  0  0  0  0  0  0  0  0
    1.6840    2.8750    3.3230 H   0  0  0  0  0  0  0  0  0  0  0  0
   -0.3930    1.0810    4.1740 H   0  0  0  0  0  0  0  0  0  0  0  0
    1.2050    1.4140    4.8750 H   0  0  0  0  0  0  0  0  0  0  0  0
    2.3590    0.3610    3.0640 H   0  0  0  0  0  0  0  0  0  0  0  0
   -0.2810   -0.4170    1.8580 H   0  0  0  0  0  0  0  0  0  0  0  0
  1  8  1  0  0  0  0
  1  2  1  0  0  0  0
  2  9  1  6  0  0  0
  2  3  1  0  0  0  0
  3 10  1  0  0  0  0
  3  4  1  0  0  0  0
  5  2  1  0  0  0  0
  5 13  1  0  0  0  0
  6  5  2  0  0  0  0
  7  1  1  0  0  0  0
 11  3  1  0  0  0  0
 12  4  1  0  0  0  0
 13 22  1  0  0  0  0
 14 23  1  6  0  0  0
 14 13  1  0  0  0  0
 14 19  1  0  0  0  0
 15 24  1  0  0  0  0
 15 14  1  0  0  0  0
 16 15  1  0  0  0  0
 16 17  1  0  0  0  0
 17 21  1  0  0  0  0
 17 18  2  0  0  0  0
 19 20  2  0  0  0  0
 19 32  1  0  0  0  0
 21 28  1  0  0  0  0
 25 15  1  0  0  0  0
 26 16  1  0  0  0  0
 27 16  1  0  0  0  0
 29 36  1  0  0  0  0
 29 30  1  0  0  0  0
 30 37  1  0  0  0  0
 30 38  1  0  0  0  0
 31 39  1  6  0  0  0
 31 30  1  0  0  0  0
 31 33  1  0  0  0  0
 32 31  1  0  0  0  0
 33 35  1  0  0  0  0
 34 33  2  0  0  0  0
 40 32  1  0  0  0  0
M  END
$$$$
