CET.pdb
 OpenBabel07022418263D

 43 42  0  0  1  0  0  0  0  0999 V2000
    3.0930   -1.3540    4.1520 N   0  0  0  0  0  0  0  0  0  0  0  0
    3.4650   -0.1500    3.4630 C   0  0  1  0  0  0  0  0  0  0  0  0
    4.8960   -0.3310    2.9940 C   0  0  0  0  0  0  0  0  0  0  0  0
    6.0020   -0.6100    4.4140 S   0  0  0  0  0  0  0  0  0  0  0  0
    2.6540    0.1090    2.2520 C   0  0  0  0  0  0  0  0  0  0  0  0
    2.8940    1.1340    1.5810 O   0  0  0  0  0  0  0  0  0  0  0  0
    2.3010   -1.2600    4.7970 H   0  0  0  0  0  0  0  0  0  0  0  0
    3.1060   -2.1960    3.5740 H   0  0  0  0  0  0  0  0  0  0  0  0
    3.3490    0.7330    4.1200 H   0  0  0  0  0  0  0  0  0  0  0  0
    5.2500    0.4960    2.3580 H   0  0  0  0  0  0  0  0  0  0  0  0
    4.9000   -1.2850    2.4040 H   0  0  0  0  0  0  0  0  0  0  0  0
    5.4580   -1.6320    5.2040 H   0  0  0  0  0  0  0  0  0  0  0  0
    1.6180   -0.7120    1.7800 N   0  0  0  0  0  0  0  0  0  0  0  0
    0.8300   -0.4830    0.6240 C   0  0  1  0  0  0  0  0  0  0  0  0
    0.9350   -1.5100   -0.4600 C   0  0  0  0  0  0  0  0  0  0  0  0
    2.3420   -1.6510   -0.9910 C   0  0  0  0  0  0  0  0  0  0  0  0
    2.3630   -2.6590   -2.0400 C   0  0  0  0  0  0  0  0  0  0  0  0
    1.3190   -3.2550   -2.3750 O   0  0  0  0  0  0  0  0  0  0  0  0
   -0.5750   -0.2680    1.0590 C   0  0  0  0  0  0  0  0  0  0  0  0
   -0.9210   -0.3010    2.2750 O   0  0  0  0  0  0  0  0  0  0  0  0
    3.5430   -2.9730   -2.6840 O   0  0  0  0  0  0  0  0  0  0  0  0
    1.4240   -1.5820    2.3600 H   0  0  0  0  0  0  0  0  0  0  0  0
    1.1860    0.4860    0.1640 H   0  0  0  0  0  0  0  0  0  0  0  0
    0.3370   -1.1220   -1.3230 H   0  0  0  0  0  0  0  0  0  0  0  0
    0.4710   -2.4770   -0.2100 H   0  0  0  0  0  0  0  0  0  0  0  0
    2.6050   -0.6310   -1.4020 H   0  0  0  0  0  0  0  0  0  0  0  0
    3.0840   -1.8160   -0.1850 H   0  0  0  0  0  0  0  0  0  0  0  0
    3.5820   -3.5580   -3.5180 H   0  0  0  0  0  0  0  0  0  0  0  0
   -3.2380    1.9610   -1.2540 C   0  0  0  0  0  0  0  0  0  0  0  0
   -3.4040    1.6280    0.2080 C   0  0  1  0  0  0  0  0  0  0  0  0
   -4.7180    1.8760    0.5750 O   0  0  0  0  0  0  0  0  0  0  0  0
   -3.0030    0.2050    0.5180 C   0  0  2  0  0  0  0  0  0  0  0  0
   -1.6270   -0.0080    0.1190 N   0  0  0  0  0  0  0  0  0  0  0  0
   -3.9170   -0.7920   -0.0170 C   0  0  0  0  0  0  0  0  0  0  0  0
   -3.4950   -1.7150   -0.7430 O   0  0  0  0  0  0  0  0  0  0  0  0
   -5.2600   -0.7280    0.2720 O   0  0  0  0  0  0  0  0  0  0  0  0
   -2.1710    2.1870   -1.4600 H   0  0  0  0  0  0  0  0  0  0  0  0
   -3.5280    1.1210   -1.9190 H   0  0  0  0  0  0  0  0  0  0  0  0
   -3.8110    2.8720   -1.5150 H   0  0  0  0  0  0  0  0  0  0  0  0
   -2.7540    2.3150    0.7870 H   0  0  0  0  0  0  0  0  0  0  0  0
   -5.0110    2.6840    0.0810 H   0  0  0  0  0  0  0  0  0  0  0  0
   -3.0170    0.1150    1.6400 H   0  0  0  0  0  0  0  0  0  0  0  0
   -1.3220    0.0160   -0.8890 H   0  0  0  0  0  0  0  0  0  0  0  0
  1  7  1  0  0  0  0
  2  9  1  1  0  0  0
  2  1  1  0  0  0  0
  3  2  1  0  0  0  0
  3  4  1  0  0  0  0
  4 12  1  0  0  0  0
  5  2  1  0  0  0  0
  6  5  2  0  0  0  0
  8  1  1  0  0  0  0
 10  3  1  0  0  0  0
 11  3  1  0  0  0  0
 13  5  1  0  0  0  0
 13 22  1  0  0  0  0
 14 23  1  6  0  0  0
 14 19  1  0  0  0  0
 14 13  1  0  0  0  0
 15 25  1  0  0  0  0
 15 14  1  0  0  0  0
 16 15  1  0  0  0  0
 16 27  1  0  0  0  0
 17 16  1  0  0  0  0
 18 17  2  0  0  0  0
 19 20  2  0  0  0  0
 21 17  1  0  0  0  0
 24 15  1  0  0  0  0
 26 16  1  0  0  0  0
 28 21  1  0  0  0  0
 29 30  1  0  0  0  0
 30 32  1  0  0  0  0
 30 31  1  0  0  0  0
 30 40  1  1  0  0  0
 32 42  1  1  0  0  0
 33 32  1  0  0  0  0
 33 19  1  0  0  0  0
 34 36  1  0  0  0  0
 34 32  1  0  0  0  0
 35 34  2  0  0  0  0
 37 29  1  0  0  0  0
 38 29  1  0  0  0  0
 39 29  1  0  0  0  0
 41 31  1  0  0  0  0
 43 33  1  0  0  0  0
M  END
$$$$
