CEW.pdb
 OpenBabel07022418273D

 53 54  0  0  1  0  0  0  0  0999 V2000
    4.9160   -3.3150    2.9610 N   0  0  0  0  0  0  0  0  0  0  0  0
    4.6250   -1.9720    2.5230 C   0  0  1  0  0  0  0  0  0  0  0  0
    5.0130   -1.7650    1.0950 C   0  0  0  0  0  0  0  0  0  0  0  0
    4.1680   -2.8560   -0.0550 S   0  0  0  0  0  0  0  0  0  0  0  0
    3.2110   -1.5920    2.7870 C   0  0  0  0  0  0  0  0  0  0  0  0
    2.5260   -2.3640    3.4700 O   0  0  0  0  0  0  0  0  0  0  0  0
    4.6450   -4.0320    2.2420 H   0  0  0  0  0  0  0  0  0  0  0  0
    5.9660   -3.3620    3.1220 H   0  0  0  0  0  0  0  0  0  0  0  0
    5.2790   -1.2960    3.1450 H   0  0  0  0  0  0  0  0  0  0  0  0
    6.1280   -1.9150    1.0010 H   0  0  0  0  0  0  0  0  0  0  0  0
    4.8580   -0.7060    0.7900 H   0  0  0  0  0  0  0  0  0  0  0  0
    3.2850   -2.1160   -0.8840 H   0  0  0  0  0  0  0  0  0  0  0  0
    2.6240   -0.4190    2.3030 N   0  0  0  0  0  0  0  0  0  0  0  0
    1.2260   -0.0810    2.5870 C   0  0  1  0  0  0  0  0  0  0  0  0
    1.2460    1.2250    3.2890 C   0  0  0  0  0  0  0  0  0  0  0  0
   -0.1010    1.7800    3.6700 C   0  0  0  0  0  0  0  0  0  0  0  0
    0.0530    3.0820    4.4050 C   0  0  0  0  0  0  0  0  0  0  0  0
   -0.9800    3.6820    4.8020 O   0  0  0  0  0  0  0  0  0  0  0  0
    0.3850   -0.2060    1.4050 C   0  0  0  0  0  0  0  0  0  0  0  0
    0.9840   -0.4200    0.2930 O   0  0  0  0  0  0  0  0  0  0  0  0
    1.3040    3.6190    4.6450 O   0  0  0  0  0  0  0  0  0  0  0  0
    3.1800    0.2340    1.7260 H   0  0  0  0  0  0  0  0  0  0  0  0
    0.8720   -0.8600    3.3140 H   0  0  0  0  0  0  0  0  0  0  0  0
    1.7720    1.0410    4.2750 H   0  0  0  0  0  0  0  0  0  0  0  0
    1.8800    1.9930    2.7990 H   0  0  0  0  0  0  0  0  0  0  0  0
   -0.6510    2.0720    2.7390 H   0  0  0  0  0  0  0  0  0  0  0  0
   -0.7250    1.0840    4.2420 H   0  0  0  0  0  0  0  0  0  0  0  0
    1.4680    4.5110    5.0830 H   0  0  0  0  0  0  0  0  0  0  0  0
   -1.0100   -0.1270    1.3250 N   0  0  0  0  0  0  0  0  0  0  0  0
   -1.7440   -0.2690    0.0710 C   0  0  1  0  0  0  0  0  0  0  0  0
   -2.6370   -1.4960    0.1040 C   0  0  0  0  0  0  0  0  0  0  0  0
   -3.3600   -1.6020   -1.1870 C   0  0  0  0  0  0  0  0  0  0  0  0
   -4.6840   -1.3110   -1.4390 C   0  0  0  0  0  0  0  0  0  0  0  0
   -4.9540   -1.5450   -2.7410 N   0  0  0  0  0  0  0  0  0  0  0  0
   -3.8570   -1.9850   -3.3790 C   0  0  0  0  0  0  0  0  0  0  0  0
   -3.6300   -2.3520   -4.6950 C   0  0  0  0  0  0  0  0  0  0  0  0
   -2.3750   -2.7740   -5.0810 C   0  0  0  0  0  0  0  0  0  0  0  0
   -1.3770   -2.8120   -4.1180 C   0  0  0  0  0  0  0  0  0  0  0  0
   -1.6110   -2.4450   -2.8060 C   0  0  0  0  0  0  0  0  0  0  0  0
   -2.8570   -2.0260   -2.4220 C   0  0  0  0  0  0  0  0  0  0  0  0
   -2.5060    0.9380   -0.2620 C   0  0  0  0  0  0  0  0  0  0  0  0
   -2.4550    1.9260    0.5390 O   0  0  0  0  0  0  0  0  0  0  0  0
   -3.2810    1.0750   -1.3970 O   0  0  0  0  0  0  0  0  0  0  0  0
   -1.5570    0.0240    2.1920 H   0  0  0  0  0  0  0  0  0  0  0  0
   -1.0030   -0.4490   -0.7470 H   0  0  0  0  0  0  0  0  0  0  0  0
   -2.0690   -2.4180    0.2570 H   0  0  0  0  0  0  0  0  0  0  0  0
   -3.4020   -1.4230    0.9090 H   0  0  0  0  0  0  0  0  0  0  0  0
   -5.3810   -0.9500   -0.6840 H   0  0  0  0  0  0  0  0  0  0  0  0
   -5.8760   -1.4070   -3.2000 H   0  0  0  0  0  0  0  0  0  0  0  0
   -4.3960   -2.3290   -5.4590 H   0  0  0  0  0  0  0  0  0  0  0  0
   -2.1630   -3.0720   -6.1220 H   0  0  0  0  0  0  0  0  0  0  0  0
   -0.3770   -3.1380   -4.3820 H   0  0  0  0  0  0  0  0  0  0  0  0
   -0.8400   -2.4700   -2.0400 H   0  0  0  0  0  0  0  0  0  0  0  0
  1  8  1  0  0  0  0
  2  5  1  0  0  0  0
  2  1  1  0  0  0  0
  2  9  1  1  0  0  0
  3  2  1  0  0  0  0
  4  3  1  0  0  0  0
  5  6  2  0  0  0  0
  7  1  1  0  0  0  0
 10  3  1  0  0  0  0
 11  3  1  0  0  0  0
 12  4  1  0  0  0  0
 13 14  1  0  0  0  0
 13  5  1  0  0  0  0
 14 15  1  0  0  0  0
 14 23  1  1  0  0  0
 15 16  1  0  0  0  0
 15 24  1  0  0  0  0
 16 27  1  0  0  0  0
 16 17  1  0  0  0  0
 17 21  1  0  0  0  0
 17 18  2  0  0  0  0
 19 14  1  0  0  0  0
 20 19  2  0  0  0  0
 21 28  1  0  0  0  0
 22 13  1  0  0  0  0
 25 15  1  0  0  0  0
 26 16  1  0  0  0  0
 29 19  1  0  0  0  0
 29 44  1  0  0  0  0
 30 45  1  6  0  0  0
 30 31  1  0  0  0  0
 30 29  1  0  0  0  0
 31 46  1  0  0  0  0
 31 47  1  0  0  0  0
 32 31  1  0  0  0  0
 33 32  2  0  0  0  0
 33 48  1  0  0  0  0
 34 33  1  0  0  0  0
 35 34  1  0  0  0  0
 35 40  1  0  0  0  0
 36 35  2  0  0  0  0
 37 36  1  0  0  0  0
 37 38  2  0  0  0  0
 38 39  1  0  0  0  0
 39 40  2  0  0  0  0
 39 53  1  0  0  0  0
 40 32  1  0  0  0  0
 41 30  1  0  0  0  0
 41 42  1  0  0  0  0
 43 41  2  0  0  0  0
 49 34  1  0  0  0  0
 50 36  1  0  0  0  0
 51 37  1  0  0  0  0
 52 38  1  0  0  0  0
M  END
$$$$
