CFE.pdb
 OpenBabel07022418283D

 49 49  0  0  1  0  0  0  0  0999 V2000
    2.8760   -1.4100    4.1280 N   0  0  0  0  0  0  0  0  0  0  0  0
    1.4850   -1.5720    4.4710 C   0  0  1  0  0  0  0  0  0  0  0  0
    1.0720   -0.6900    5.6380 C   0  0  0  0  0  0  0  0  0  0  0  0
   -0.7010   -1.0190    5.9340 S   0  0  0  0  0  0  0  0  0  0  0  0
    0.5890   -1.3140    3.3200 C   0  0  0  0  0  0  0  0  0  0  0  0
   -0.6500   -1.4260    3.4890 O   0  0  0  0  0  0  0  0  0  0  0  0
    3.0960   -0.4480    3.8060 H   0  0  0  0  0  0  0  0  0  0  0  0
    3.4480   -1.7270    4.9160 H   0  0  0  0  0  0  0  0  0  0  0  0
    1.3610   -2.6250    4.8370 H   0  0  0  0  0  0  0  0  0  0  0  0
    1.1710    0.3940    5.3920 H   0  0  0  0  0  0  0  0  0  0  0  0
    1.6560   -0.9700    6.5440 H   0  0  0  0  0  0  0  0  0  0  0  0
   -1.1530   -0.0190    6.8450 H   0  0  0  0  0  0  0  0  0  0  0  0
    1.0920   -0.9520    2.0650 N   0  0  0  0  0  0  0  0  0  0  0  0
    0.2910   -0.6850    0.9010 C   0  0  1  0  0  0  0  0  0  0  0  0
    0.4830    0.7170    0.3650 C   0  0  0  0  0  0  0  0  0  0  0  0
    0.1120    1.7390    1.3920 C   0  0  0  0  0  0  0  0  0  0  0  0
   -1.1780    2.2170    1.4730 C   0  0  0  0  0  0  0  0  0  0  0  0
   -1.4800    3.1580    2.4290 C   0  0  0  0  0  0  0  0  0  0  0  0
   -0.5620    3.6620    3.3250 C   0  0  0  0  0  0  0  0  0  0  0  0
    0.7200    3.1670    3.2210 C   0  0  0  0  0  0  0  0  0  0  0  0
    1.0430    2.2310    2.2790 C   0  0  0  0  0  0  0  0  0  0  0  0
    0.5860   -1.6560   -0.2020 C   0  0  0  0  0  0  0  0  0  0  0  0
    1.4460   -2.5450   -0.0050 O   0  0  0  0  0  0  0  0  0  0  0  0
    2.1460   -0.8670    1.9660 H   0  0  0  0  0  0  0  0  0  0  0  0
   -0.7840   -0.8050    1.1350 H   0  0  0  0  0  0  0  0  0  0  0  0
   -0.1500    0.8460   -0.5320 H   0  0  0  0  0  0  0  0  0  0  0  0
    1.5200    0.9230    0.0720 H   0  0  0  0  0  0  0  0  0  0  0  0
   -1.9380    1.8390    0.7760 H   0  0  0  0  0  0  0  0  0  0  0  0
   -2.4940    3.5250    2.4840 H   0  0  0  0  0  0  0  0  0  0  0  0
   -0.8400    4.4060    4.0660 H   0  0  0  0  0  0  0  0  0  0  0  0
    1.5030    3.5180    3.8960 H   0  0  0  0  0  0  0  0  0  0  0  0
    2.0740    1.8490    2.2140 H   0  0  0  0  0  0  0  0  0  0  0  0
   -0.0660   -1.6060   -1.4500 N   0  0  0  0  0  0  0  0  0  0  0  0
    0.2420   -2.5530   -2.4850 C   0  0  1  0  0  0  0  0  0  0  0  0
   -0.8770   -3.4690   -2.8250 C   0  0  0  0  0  0  0  0  0  0  0  0
   -2.1380   -2.8640   -3.3060 C   0  0  0  0  0  0  0  0  0  0  0  0
   -2.0270   -2.0700   -4.5480 C   0  0  0  0  0  0  0  0  0  0  0  0
   -1.8260   -0.8430   -4.6090 O   0  0  0  0  0  0  0  0  0  0  0  0
    0.8240   -1.9160   -3.6840 C   0  0  0  0  0  0  0  0  0  0  0  0
    1.0910   -2.6080   -4.6790 O   0  0  0  0  0  0  0  0  0  0  0  0
   -2.1570   -2.7270   -5.7780 O   0  0  0  0  0  0  0  0  0  0  0  0
    1.0690   -0.5670   -3.6920 O   0  0  0  0  0  0  0  0  0  0  0  0
   -0.7740   -0.8830   -1.6280 H   0  0  0  0  0  0  0  0  0  0  0  0
    1.0490   -3.2400   -2.0360 H   0  0  0  0  0  0  0  0  0  0  0  0
   -1.1240   -4.1620   -1.9680 H   0  0  0  0  0  0  0  0  0  0  0  0
   -0.5320   -4.1900   -3.6250 H   0  0  0  0  0  0  0  0  0  0  0  0
   -2.6420   -2.2360   -2.5350 H   0  0  0  0  0  0  0  0  0  0  0  0
   -2.9030   -3.6660   -3.5320 H   0  0  0  0  0  0  0  0  0  0  0  0
   -1.8200   -2.2910   -6.6400 H   0  0  0  0  0  0  0  0  0  0  0  0
  1  2  1  0  0  0  0
  1  8  1  0  0  0  0
  2  9  1  1  0  0  0
  2  3  1  0  0  0  0
  3  4  1  0  0  0  0
  3 11  1  0  0  0  0
  4 12  1  0  0  0  0
  5  6  2  0  0  0  0
  5  2  1  0  0  0  0
  7  1  1  0  0  0  0
 10  3  1  0  0  0  0
 13  5  1  0  0  0  0
 14 25  1  1  0  0  0
 14 13  1  0  0  0  0
 15 14  1  0  0  0  0
 15 16  1  0  0  0  0
 16 17  2  0  0  0  0
 16 21  1  0  0  0  0
 17 18  1  0  0  0  0
 18 29  1  0  0  0  0
 18 19  2  0  0  0  0
 19 30  1  0  0  0  0
 20 19  1  0  0  0  0
 20 31  1  0  0  0  0
 21 20  2  0  0  0  0
 22 23  2  0  0  0  0
 22 14  1  0  0  0  0
 24 13  1  0  0  0  0
 26 15  1  0  0  0  0
 27 15  1  0  0  0  0
 28 17  1  0  0  0  0
 32 21  1  0  0  0  0
 33 22  1  0  0  0  0
 34 44  1  1  0  0  0
 34 33  1  0  0  0  0
 35 34  1  0  0  0  0
 35 45  1  0  0  0  0
 36 35  1  0  0  0  0
 36 47  1  0  0  0  0
 37 36  1  0  0  0  0
 38 37  2  0  0  0  0
 39 34  1  0  0  0  0
 40 39  2  0  0  0  0
 41 37  1  0  0  0  0
 42 39  1  0  0  0  0
 43 33  1  0  0  0  0
 46 35  1  0  0  0  0
 48 36  1  0  0  0  0
 49 41  1  0  0  0  0
M  END
$$$$
