CFF.pdb
 OpenBabel07022418283D

 53 54  0  0  1  0  0  0  0  0999 V2000
    4.1400   -2.0580    4.6540 N   0  0  0  0  0  0  0  0  0  0  0  0
    3.8090   -1.5020    3.3800 C   0  0  1  0  0  0  0  0  0  0  0  0
    4.0400   -2.4790    2.2430 C   0  0  0  0  0  0  0  0  0  0  0  0
    5.7460   -3.0080    2.1290 S   0  0  0  0  0  0  0  0  0  0  0  0
    2.4300   -0.9590    3.3260 C   0  0  0  0  0  0  0  0  0  0  0  0
    1.6420   -0.9970    4.3100 O   0  0  0  0  0  0  0  0  0  0  0  0
    4.7060   -2.9140    4.5320 H   0  0  0  0  0  0  0  0  0  0  0  0
    3.3400   -2.2040    5.2930 H   0  0  0  0  0  0  0  0  0  0  0  0
    4.4980   -0.6410    3.1830 H   0  0  0  0  0  0  0  0  0  0  0  0
    3.7220   -2.0600    1.2720 H   0  0  0  0  0  0  0  0  0  0  0  0
    3.3840   -3.3540    2.4480 H   0  0  0  0  0  0  0  0  0  0  0  0
    5.9210   -4.3750    2.3700 H   0  0  0  0  0  0  0  0  0  0  0  0
    1.9870   -0.3720    2.1080 N   0  0  0  0  0  0  0  0  0  0  0  0
    0.6290    0.1720    2.0270 C   0  0  1  0  0  0  0  0  0  0  0  0
    0.7780    1.6440    1.8300 C   0  0  0  0  0  0  0  0  0  0  0  0
    1.5220    2.0230    0.6130 C   0  0  0  0  0  0  0  0  0  0  0  0
    2.8900    2.1560    0.7240 C   0  0  0  0  0  0  0  0  0  0  0  0
    3.5910    2.5120   -0.4070 C   0  0  0  0  0  0  0  0  0  0  0  0
    2.9470    2.7290   -1.6150 C   0  0  0  0  0  0  0  0  0  0  0  0
    1.5790    2.6000   -1.7410 C   0  0  0  0  0  0  0  0  0  0  0  0
    0.8860    2.2410   -0.5930 C   0  0  0  0  0  0  0  0  0  0  0  0
   -0.1670   -0.5230    0.9970 C   0  0  0  0  0  0  0  0  0  0  0  0
    0.3320   -1.4490    0.2690 O   0  0  0  0  0  0  0  0  0  0  0  0
    2.6120   -0.3240    1.2740 H   0  0  0  0  0  0  0  0  0  0  0  0
    0.1070    0.0270    3.0020 H   0  0  0  0  0  0  0  0  0  0  0  0
    1.2890    2.0570    2.7060 H   0  0  0  0  0  0  0  0  0  0  0  0
   -0.2150    2.1700    1.7770 H   0  0  0  0  0  0  0  0  0  0  0  0
    3.4220    1.9930    1.6550 H   0  0  0  0  0  0  0  0  0  0  0  0
    4.6810    2.6170   -0.3160 H   0  0  0  0  0  0  0  0  0  0  0  0
    3.5330    3.0090   -2.4880 H   0  0  0  0  0  0  0  0  0  0  0  0
    1.0850    2.7710   -2.6880 H   0  0  0  0  0  0  0  0  0  0  0  0
   -0.1880    2.1430   -0.7040 H   0  0  0  0  0  0  0  0  0  0  0  0
   -1.5310   -0.2230    0.7390 N   0  0  0  0  0  0  0  0  0  0  0  0
   -2.3180   -0.9090   -0.2730 C   0  0  1  0  0  0  0  0  0  0  0  0
   -3.3190   -1.8470    0.3860 C   0  0  0  0  0  0  0  0  0  0  0  0
   -4.1310   -2.5540   -0.6280 C   0  0  0  0  0  0  0  0  0  0  0  0
   -5.3400   -1.9840   -0.9970 C   0  0  0  0  0  0  0  0  0  0  0  0
   -6.1060   -2.6320   -1.9400 C   0  0  0  0  0  0  0  0  0  0  0  0
   -5.6670   -3.8270   -2.5010 C   0  0  0  0  0  0  0  0  0  0  0  0
   -4.4650   -4.3970   -2.1370 C   0  0  0  0  0  0  0  0  0  0  0  0
   -3.6910   -3.7590   -1.1950 C   0  0  0  0  0  0  0  0  0  0  0  0
   -2.9090   -0.0010   -1.2510 C   0  0  0  0  0  0  0  0  0  0  0  0
   -3.5750   -0.3730   -2.2460 O   0  0  0  0  0  0  0  0  0  0  0  0
   -2.7760    1.4000   -1.1540 O   0  0  0  0  0  0  0  0  0  0  0  0
   -1.9780    0.5300    1.3120 H   0  0  0  0  0  0  0  0  0  0  0  0
   -1.6040   -1.6060   -0.7850 H   0  0  0  0  0  0  0  0  0  0  0  0
   -2.7650   -2.6260    0.9500 H   0  0  0  0  0  0  0  0  0  0  0  0
   -4.0100   -1.2860    1.0580 H   0  0  0  0  0  0  0  0  0  0  0  0
   -5.6720   -1.0430   -0.5450 H   0  0  0  0  0  0  0  0  0  0  0  0
   -7.0680   -2.1920   -2.2430 H   0  0  0  0  0  0  0  0  0  0  0  0
   -6.3150   -4.3060   -3.2510 H   0  0  0  0  0  0  0  0  0  0  0  0
   -4.1550   -5.3270   -2.5930 H   0  0  0  0  0  0  0  0  0  0  0  0
   -2.7290   -4.1690   -0.8720 H   0  0  0  0  0  0  0  0  0  0  0  0
  1  8  1  0  0  0  0
  2  9  1  6  0  0  0
  2  1  1  0  0  0  0
  3 11  1  0  0  0  0
  3  2  1  0  0  0  0
  4  3  1  0  0  0  0
  4 12  1  0  0  0  0
  5  2  1  0  0  0  0
  5  6  2  0  0  0  0
  7  1  1  0  0  0  0
 10  3  1  0  0  0  0
 13  5  1  0  0  0  0
 14 13  1  0  0  0  0
 14 25  1  1  0  0  0
 15 14  1  0  0  0  0
 15 26  1  0  0  0  0
 16 17  1  0  0  0  0
 16 15  1  0  0  0  0
 17 28  1  0  0  0  0
 18 29  1  0  0  0  0
 18 17  2  0  0  0  0
 19 18  1  0  0  0  0
 20 19  2  0  0  0  0
 20 21  1  0  0  0  0
 21 16  2  0  0  0  0
 22 14  1  0  0  0  0
 23 22  2  0  0  0  0
 24 13  1  0  0  0  0
 27 15  1  0  0  0  0
 30 19  1  0  0  0  0
 31 20  1  0  0  0  0
 32 21  1  0  0  0  0
 33 22  1  0  0  0  0
 33 45  1  0  0  0  0
 34 46  1  6  0  0  0
 34 35  1  0  0  0  0
 34 33  1  0  0  0  0
 35 47  1  0  0  0  0
 35 48  1  0  0  0  0
 36 35  1  0  0  0  0
 37 36  1  0  0  0  0
 37 49  1  0  0  0  0
 38 37  2  0  0  0  0
 39 40  2  0  0  0  0
 39 38  1  0  0  0  0
 40 41  1  0  0  0  0
 41 53  1  0  0  0  0
 41 36  2  0  0  0  0
 42 44  1  0  0  0  0
 42 34  1  0  0  0  0
 43 42  2  0  0  0  0
 50 38  1  0  0  0  0
 51 39  1  0  0  0  0
 52 40  1  0  0  0  0
M  END
$$$$
