CFG.pdb
 OpenBabel07022418283D

 40 40  0  0  1  0  0  0  0  0999 V2000
   -0.3200   -4.5550    0.3720 N   0  0  0  0  0  0  0  0  0  0  0  0
    0.3600   -4.3570    1.6170 C   0  0  1  0  0  0  0  0  0  0  0  0
    1.6170   -5.1890    1.7470 C   0  0  0  0  0  0  0  0  0  0  0  0
    2.7750   -4.7780    0.4410 S   0  0  0  0  0  0  0  0  0  0  0  0
    0.6440   -2.9080    1.7820 C   0  0  0  0  0  0  0  0  0  0  0  0
    1.2470   -2.4620    2.8130 O   0  0  0  0  0  0  0  0  0  0  0  0
    0.2360   -4.2130   -0.4220 H   0  0  0  0  0  0  0  0  0  0  0  0
   -1.2670   -4.1290    0.4490 H   0  0  0  0  0  0  0  0  0  0  0  0
   -0.3590   -4.6230    2.4310 H   0  0  0  0  0  0  0  0  0  0  0  0
    2.0160   -5.0130    2.7690 H   0  0  0  0  0  0  0  0  0  0  0  0
    1.3270   -6.2540    1.6450 H   0  0  0  0  0  0  0  0  0  0  0  0
    2.2540   -3.9420   -0.5390 H   0  0  0  0  0  0  0  0  0  0  0  0
    0.2710   -1.9310    0.8180 N   0  0  0  0  0  0  0  0  0  0  0  0
    0.5610   -0.5140    1.0030 C   0  0  1  0  0  0  0  0  0  0  0  0
    1.4850   -0.1340   -0.1350 C   0  0  0  0  0  0  0  0  0  0  0  0
    1.8960    1.2770   -0.1260 C   0  0  0  0  0  0  0  0  0  0  0  0
    1.1570    2.2200   -0.8140 C   0  0  0  0  0  0  0  0  0  0  0  0
    1.5810    3.5440   -0.7750 C   0  0  0  0  0  0  0  0  0  0  0  0
    2.6930    3.9610   -0.0890 C   0  0  0  0  0  0  0  0  0  0  0  0
    3.4140    3.0020    0.5900 C   0  0  0  0  0  0  0  0  0  0  0  0
    3.0320    1.6810    0.5790 C   0  0  0  0  0  0  0  0  0  0  0  0
   -0.6700    0.3010    0.9990 C   0  0  0  0  0  0  0  0  0  0  0  0
   -0.6880    1.5380    1.1490 O   0  0  0  0  0  0  0  0  0  0  0  0
   -0.2230   -2.2620   -0.0380 H   0  0  0  0  0  0  0  0  0  0  0  0
    1.0940   -0.3370    1.9610 H   0  0  0  0  0  0  0  0  0  0  0  0
    0.9260   -0.3300   -1.0780 H   0  0  0  0  0  0  0  0  0  0  0  0
    2.3860   -0.7800   -0.1580 H   0  0  0  0  0  0  0  0  0  0  0  0
    0.2560    1.9480   -1.3860 H   0  0  0  0  0  0  0  0  0  0  0  0
    1.0140    4.2990   -1.3090 H   0  0  0  0  0  0  0  0  0  0  0  0
    3.0130    5.0020   -0.0670 H   0  0  0  0  0  0  0  0  0  0  0  0
    4.3140    3.2710    1.1580 H   0  0  0  0  0  0  0  0  0  0  0  0
    3.5840    0.9050    1.1070 H   0  0  0  0  0  0  0  0  0  0  0  0
   -1.9230   -0.3480    0.8140 N   0  0  0  0  0  0  0  0  0  0  0  0
   -3.1790    0.3200    0.7900 C   0  0  0  0  0  0  0  0  0  0  0  0
   -3.5110    1.0510    2.0160 C   0  0  0  0  0  0  0  0  0  0  0  0
   -4.6110    1.6610    2.0520 O   0  0  0  0  0  0  0  0  0  0  0  0
   -2.7180    1.1320    3.1510 O   0  0  0  0  0  0  0  0  0  0  0  0
   -1.9110   -1.3820    0.6880 H   0  0  0  0  0  0  0  0  0  0  0  0
   -3.2010    1.0700   -0.0430 H   0  0  0  0  0  0  0  0  0  0  0  0
   -3.9870   -0.3910    0.5730 H   0  0  0  0  0  0  0  0  0  0  0  0
  1  8  1  0  0  0  0
  1  2  1  0  0  0  0
  2  3  1  0  0  0  0
  2  5  1  0  0  0  0
  2  9  1  1  0  0  0
  3 10  1  0  0  0  0
  4  3  1  0  0  0  0
  5  6  2  0  0  0  0
  7  1  1  0  0  0  0
 11  3  1  0  0  0  0
 12  4  1  0  0  0  0
 13 14  1  0  0  0  0
 13  5  1  0  0  0  0
 14 25  1  1  0  0  0
 15 16  1  0  0  0  0
 15 14  1  0  0  0  0
 16 21  1  0  0  0  0
 17 18  1  0  0  0  0
 17 16  2  0  0  0  0
 18 19  2  0  0  0  0
 19 30  1  0  0  0  0
 19 20  1  0  0  0  0
 20 31  1  0  0  0  0
 21 20  2  0  0  0  0
 21 32  1  0  0  0  0
 22 14  1  0  0  0  0
 22 23  2  0  0  0  0
 24 13  1  0  0  0  0
 26 15  1  0  0  0  0
 27 15  1  0  0  0  0
 28 17  1  0  0  0  0
 29 18  1  0  0  0  0
 33 22  1  0  0  0  0
 34 33  1  0  0  0  0
 34 35  1  0  0  0  0
 35 36  2  0  0  0  0
 35 37  1  0  0  0  0
 38 33  1  0  0  0  0
 39 34  1  0  0  0  0
 40 34  1  0  0  0  0
M  END
$$$$
