CFI.pdb
 OpenBabel07022418283D

 52 52  0  0  1  0  0  0  0  0999 V2000
    1.4820   -1.9820    3.7820 N   0  0  0  0  0  0  0  0  0  0  0  0
    0.5970   -0.9440    3.2960 C   0  0  1  0  0  0  0  0  0  0  0  0
    0.9810    0.3530    4.0210 C   0  0  0  0  0  0  0  0  0  0  0  0
    0.7890    0.1520    5.8110 S   0  0  0  0  0  0  0  0  0  0  0  0
    0.7310   -0.7530    1.8290 C   0  0  0  0  0  0  0  0  0  0  0  0
    1.5490   -1.4740    1.2210 O   0  0  0  0  0  0  0  0  0  0  0  0
    1.0050   -2.8610    4.0270 H   0  0  0  0  0  0  0  0  0  0  0  0
    2.0400   -1.6720    4.6180 H   0  0  0  0  0  0  0  0  0  0  0  0
   -0.4510   -1.1910    3.5690 H   0  0  0  0  0  0  0  0  0  0  0  0
    0.3060    1.1800    3.7170 H   0  0  0  0  0  0  0  0  0  0  0  0
    2.0080    0.6460    3.7510 H   0  0  0  0  0  0  0  0  0  0  0  0
    0.7170   -1.2070    6.1230 H   0  0  0  0  0  0  0  0  0  0  0  0
   -0.0410    0.2150    1.1310 N   0  0  0  0  0  0  0  0  0  0  0  0
    0.0340    0.4660   -0.2670 C   0  0  1  0  0  0  0  0  0  0  0  0
    1.4400    0.5130   -0.8460 C   0  0  0  0  0  0  0  0  0  0  0  0
    2.1670    1.6280   -0.1960 C   0  0  0  0  0  0  0  0  0  0  0  0
    1.9930    2.8940   -0.7590 C   0  0  0  0  0  0  0  0  0  0  0  0
    2.6030    4.0330   -0.2930 C   0  0  0  0  0  0  0  0  0  0  0  0
    3.4360    3.9020    0.7980 C   0  0  0  0  0  0  0  0  0  0  0  0
    3.6380    2.6650    1.3890 C   0  0  0  0  0  0  0  0  0  0  0  0
    2.9940    1.5490    0.8730 C   0  0  0  0  0  0  0  0  0  0  0  0
   -0.9210   -0.2800   -1.1050 C   0  0  0  0  0  0  0  0  0  0  0  0
   -0.8940   -0.0930   -2.3440 O   0  0  0  0  0  0  0  0  0  0  0  0
   -0.7100    0.7600    1.7590 H   0  0  0  0  0  0  0  0  0  0  0  0
   -0.2710    1.5780   -0.3770 H   0  0  0  0  0  0  0  0  0  0  0  0
    1.3040    0.7580   -1.9260 H   0  0  0  0  0  0  0  0  0  0  0  0
    1.9650   -0.4420   -0.8200 H   0  0  0  0  0  0  0  0  0  0  0  0
    1.3380    3.0170   -1.6240 H   0  0  0  0  0  0  0  0  0  0  0  0
    2.4420    4.9980   -0.7590 H   0  0  0  0  0  0  0  0  0  0  0  0
    3.9260    4.7960    1.1790 H   0  0  0  0  0  0  0  0  0  0  0  0
    4.2980    2.5830    2.2480 H   0  0  0  0  0  0  0  0  0  0  0  0
    3.1920    0.6230    1.3560 H   0  0  0  0  0  0  0  0  0  0  0  0
   -1.2630   -3.7720    0.8090 C   0  0  0  0  0  0  0  0  0  0  0  0
   -2.3660   -4.1330   -0.1140 C   0  0  0  0  0  0  0  0  0  0  0  0
   -2.4530   -3.3850   -1.3890 C   0  0  2  0  0  0  0  0  0  0  0  0
   -1.1820   -3.5740   -2.1810 C   0  0  0  0  0  0  0  0  0  0  0  0
   -2.8050   -1.9410   -1.3250 C   0  0  2  0  0  0  0  0  0  0  0  0
   -1.8570   -1.1910   -0.5620 N   0  0  0  0  0  0  0  0  0  0  0  0
   -4.1980   -1.6750   -0.9770 C   0  0  0  0  0  0  0  0  0  0  0  0
   -5.1180   -2.2720   -1.5770 O   0  0  0  0  0  0  0  0  0  0  0  0
   -4.5630   -0.7760    0.0050 O   0  0  0  0  0  0  0  0  0  0  0  0
   -1.5800   -3.2840    1.7540 H   0  0  0  0  0  0  0  0  0  0  0  0
   -0.4710   -3.2390    0.2580 H   0  0  0  0  0  0  0  0  0  0  0  0
   -0.7770   -4.7310    1.1650 H   0  0  0  0  0  0  0  0  0  0  0  0
   -2.2360   -5.2190   -0.4010 H   0  0  0  0  0  0  0  0  0  0  0  0
   -3.3630   -4.1540    0.4260 H   0  0  0  0  0  0  0  0  0  0  0  0
   -3.2650   -3.8660   -2.0240 H   0  0  0  0  0  0  0  0  0  0  0  0
   -1.3480   -3.4450   -3.2680 H   0  0  0  0  0  0  0  0  0  0  0  0
   -0.8350   -4.6120   -1.9870 H   0  0  0  0  0  0  0  0  0  0  0  0
   -0.4100   -2.8860   -1.7890 H   0  0  0  0  0  0  0  0  0  0  0  0
   -2.6690   -1.5730   -2.3960 H   0  0  0  0  0  0  0  0  0  0  0  0
   -1.8460   -1.3080    0.4700 H   0  0  0  0  0  0  0  0  0  0  0  0
  1  7  1  0  0  0  0
  1  8  1  0  0  0  0
  2  9  1  1  0  0  0
  2  1  1  0  0  0  0
  2  3  1  0  0  0  0
  3  4  1  0  0  0  0
  4 12  1  0  0  0  0
  5  2  1  0  0  0  0
  6  5  2  0  0  0  0
 10  3  1  0  0  0  0
 11  3  1  0  0  0  0
 13 24  1  0  0  0  0
 13  5  1  0  0  0  0
 14 25  1  6  0  0  0
 14 13  1  0  0  0  0
 15 27  1  0  0  0  0
 15 14  1  0  0  0  0
 15 16  1  0  0  0  0
 16 21  1  0  0  0  0
 17 18  1  0  0  0  0
 17 16  2  0  0  0  0
 18 19  2  0  0  0  0
 19 30  1  0  0  0  0
 19 20  1  0  0  0  0
 20 31  1  0  0  0  0
 21 32  1  0  0  0  0
 21 20  2  0  0  0  0
 22 38  1  0  0  0  0
 22 14  1  0  0  0  0
 23 22  2  0  0  0  0
 26 15  1  0  0  0  0
 28 17  1  0  0  0  0
 29 18  1  0  0  0  0
 33 44  1  0  0  0  0
 33 42  1  0  0  0  0
 34 46  1  0  0  0  0
 34 33  1  0  0  0  0
 35 47  1  6  0  0  0
 35 37  1  0  0  0  0
 35 34  1  0  0  0  0
 36 49  1  0  0  0  0
 36 50  1  0  0  0  0
 36 35  1  0  0  0  0
 37 51  1  6  0  0  0
 37 39  1  0  0  0  0
 37 38  1  0  0  0  0
 38 52  1  0  0  0  0
 39 41  1  0  0  0  0
 40 39  2  0  0  0  0
 43 33  1  0  0  0  0
 45 34  1  0  0  0  0
 48 36  1  0  0  0  0
M  END
$$$$
