CFP.pdb
 OpenBabel07022418283D

 47 48  0  0  1  0  0  0  0  0999 V2000
    2.1330   -5.2920    2.5960 N   0  0  0  0  0  0  0  0  0  0  0  0
    2.5350   -4.3400    1.5480 C   0  0  1  0  0  0  0  0  0  0  0  0
    2.3500   -5.0750    0.2400 C   0  0  0  0  0  0  0  0  0  0  0  0
    2.7880   -4.0960   -1.1940 S   0  0  0  0  0  0  0  0  0  0  0  0
    1.6160   -3.1780    1.6650 C   0  0  0  0  0  0  0  0  0  0  0  0
    0.6700   -3.1650    2.5100 O   0  0  0  0  0  0  0  0  0  0  0  0
    1.6740   -6.1260    2.2240 H   0  0  0  0  0  0  0  0  0  0  0  0
    1.5980   -4.8080    3.3480 H   0  0  0  0  0  0  0  0  0  0  0  0
    3.5780   -4.0550    1.6930 H   0  0  0  0  0  0  0  0  0  0  0  0
    1.3030   -5.4310    0.1910 H   0  0  0  0  0  0  0  0  0  0  0  0
    3.0030   -5.9740    0.2860 H   0  0  0  0  0  0  0  0  0  0  0  0
    4.1800   -4.1060   -1.3680 H   0  0  0  0  0  0  0  0  0  0  0  0
    1.7200   -2.0130    0.8590 N   0  0  0  0  0  0  0  0  0  0  0  0
    0.7850   -0.8750    1.0030 C   0  0  1  0  0  0  0  0  0  0  0  0
    1.6310    0.3340    1.3670 C   0  0  0  0  0  0  0  0  0  0  0  0
    0.9380    1.5970    1.5550 C   0  0  0  0  0  0  0  0  0  0  0  0
    0.4180    2.0300    2.7670 C   0  0  0  0  0  0  0  0  0  0  0  0
   -0.2090    3.2410    2.9360 C   0  0  0  0  0  0  0  0  0  0  0  0
   -0.3500    4.1010    1.8680 C   0  0  0  0  0  0  0  0  0  0  0  0
    0.1570    3.7030    0.6450 C   0  0  0  0  0  0  0  0  0  0  0  0
    0.7840    2.4860    0.4820 C   0  0  0  0  0  0  0  0  0  0  0  0
    0.1350   -0.7540   -0.3190 C   0  0  0  0  0  0  0  0  0  0  0  0
    0.7650   -1.1800   -1.3470 O   0  0  0  0  0  0  0  0  0  0  0  0
    2.4820   -1.9790    0.1560 H   0  0  0  0  0  0  0  0  0  0  0  0
    0.0330   -1.0210    1.7680 H   0  0  0  0  0  0  0  0  0  0  0  0
    2.3770    0.4750    0.5310 H   0  0  0  0  0  0  0  0  0  0  0  0
    2.2370    0.0840    2.2720 H   0  0  0  0  0  0  0  0  0  0  0  0
    0.5310    1.3510    3.5990 H   0  0  0  0  0  0  0  0  0  0  0  0
   -0.6100    3.5540    3.9070 H   0  0  0  0  0  0  0  0  0  0  0  0
   -0.8410    5.0520    1.9970 H   0  0  0  0  0  0  0  0  0  0  0  0
    0.0410    4.3910   -0.1950 H   0  0  0  0  0  0  0  0  0  0  0  0
    1.1830    2.1720   -0.4830 H   0  0  0  0  0  0  0  0  0  0  0  0
   -1.1490   -0.1880   -0.4370 N   0  0  0  0  0  0  0  0  0  0  0  0
   -1.8310    0.0580   -1.6840 C   0  0  0  0  0  0  0  0  0  0  0  0
   -2.4270    1.4310   -1.3840 C   0  0  0  0  0  0  0  0  0  0  0  0
   -2.7350    1.4050    0.0970 C   0  0  0  0  0  0  0  0  0  0  0  0
   -2.0440    0.1670    0.6040 C   0  0  1  0  0  0  0  0  0  0  0  0
   -3.1380   -0.8630    0.7550 C   0  0  0  0  0  0  0  0  0  0  0  0
   -4.0290   -0.6610    1.6120 O   0  0  0  0  0  0  0  0  0  0  0  0
   -3.2030   -2.0140   -0.0030 O   0  0  0  0  0  0  0  0  0  0  0  0
   -2.5970   -0.7210   -1.8190 H   0  0  0  0  0  0  0  0  0  0  0  0
   -1.1320    0.1050   -2.5460 H   0  0  0  0  0  0  0  0  0  0  0  0
   -3.3670    1.5910   -1.9440 H   0  0  0  0  0  0  0  0  0  0  0  0
   -1.7040    2.2150   -1.6140 H   0  0  0  0  0  0  0  0  0  0  0  0
   -2.3080    2.2690    0.6340 H   0  0  0  0  0  0  0  0  0  0  0  0
   -3.8420    1.3590    0.2610 H   0  0  0  0  0  0  0  0  0  0  0  0
   -1.5690    0.3330    1.6000 H   0  0  0  0  0  0  0  0  0  0  0  0
  1  8  1  0  0  0  0
  2  5  1  0  0  0  0
  2  9  1  1  0  0  0
  2  1  1  0  0  0  0
  3 11  1  0  0  0  0
  3  2  1  0  0  0  0
  4  3  1  0  0  0  0
  5  6  2  0  0  0  0
  7  1  1  0  0  0  0
 10  3  1  0  0  0  0
 12  4  1  0  0  0  0
 13 14  1  0  0  0  0
 13  5  1  0  0  0  0
 14 15  1  0  0  0  0
 14 25  1  1  0  0  0
 15 16  1  0  0  0  0
 15 27  1  0  0  0  0
 16 17  1  0  0  0  0
 17 18  2  0  0  0  0
 17 28  1  0  0  0  0
 18 29  1  0  0  0  0
 19 30  1  0  0  0  0
 19 18  1  0  0  0  0
 20 19  2  0  0  0  0
 21 20  1  0  0  0  0
 21 16  2  0  0  0  0
 22 14  1  0  0  0  0
 23 22  2  0  0  0  0
 24 13  1  0  0  0  0
 26 15  1  0  0  0  0
 31 20  1  0  0  0  0
 32 21  1  0  0  0  0
 33 22  1  0  0  0  0
 33 37  1  0  0  0  0
 34 35  1  0  0  0  0
 34 33  1  0  0  0  0
 35 36  1  0  0  0  0
 36 46  1  0  0  0  0
 36 37  1  0  0  0  0
 36 45  1  0  0  0  0
 37 38  1  0  0  0  0
 37 47  1  1  0  0  0
 38 39  1  0  0  0  0
 40 38  2  0  0  0  0
 41 34  1  0  0  0  0
 42 34  1  0  0  0  0
 43 35  1  0  0  0  0
 44 35  1  0  0  0  0
M  END
$$$$
