CFV.pdb
 OpenBabel07022418293D

 49 49  0  0  1  0  0  0  0  0999 V2000
    4.0130   -2.4150    1.4590 N   0  0  0  0  0  0  0  0  0  0  0  0
    3.1610   -1.5330    0.6560 C   0  0  1  0  0  0  0  0  0  0  0  0
    2.8500   -2.3200   -0.6060 C   0  0  0  0  0  0  0  0  0  0  0  0
    4.3510   -2.7430   -1.4820 S   0  0  0  0  0  0  0  0  0  0  0  0
    1.9190   -1.2910    1.4210 C   0  0  0  0  0  0  0  0  0  0  0  0
    1.7510   -1.8270    2.5650 O   0  0  0  0  0  0  0  0  0  0  0  0
    3.4100   -3.1610    1.8950 H   0  0  0  0  0  0  0  0  0  0  0  0
    4.4430   -1.8980    2.2550 H   0  0  0  0  0  0  0  0  0  0  0  0
    3.6990   -0.6270    0.3890 H   0  0  0  0  0  0  0  0  0  0  0  0
    2.3290   -3.2480   -0.2950 H   0  0  0  0  0  0  0  0  0  0  0  0
    2.1520   -1.7590   -1.2690 H   0  0  0  0  0  0  0  0  0  0  0  0
    4.7180   -4.0600   -1.1490 H   0  0  0  0  0  0  0  0  0  0  0  0
    0.8470   -0.4730    0.9660 N   0  0  0  0  0  0  0  0  0  0  0  0
   -0.3350   -0.2980    1.7920 C   0  0  1  0  0  0  0  0  0  0  0  0
   -0.5270    1.1500    2.1920 C   0  0  0  0  0  0  0  0  0  0  0  0
    0.6340    1.6440    2.9600 C   0  0  0  0  0  0  0  0  0  0  0  0
    1.6750    2.2360    2.2480 C   0  0  0  0  0  0  0  0  0  0  0  0
    2.8030    2.7270    2.8630 C   0  0  0  0  0  0  0  0  0  0  0  0
    2.9210    2.6370    4.2320 C   0  0  0  0  0  0  0  0  0  0  0  0
    1.9050    2.0550    4.9640 C   0  0  0  0  0  0  0  0  0  0  0  0
    0.7670    1.5630    4.3180 C   0  0  0  0  0  0  0  0  0  0  0  0
   -1.5410   -0.8060    1.0510 C   0  0  0  0  0  0  0  0  0  0  0  0
   -2.6820   -0.7790    1.5510 O   0  0  0  0  0  0  0  0  0  0  0  0
    0.9190   -0.0040    0.0380 H   0  0  0  0  0  0  0  0  0  0  0  0
   -0.2370   -0.8830    2.7210 H   0  0  0  0  0  0  0  0  0  0  0  0
   -1.4120    1.2050    2.8480 H   0  0  0  0  0  0  0  0  0  0  0  0
   -0.6890    1.8270    1.3490 H   0  0  0  0  0  0  0  0  0  0  0  0
    1.6020    2.3170    1.1650 H   0  0  0  0  0  0  0  0  0  0  0  0
    3.5770    3.1760    2.2740 H   0  0  0  0  0  0  0  0  0  0  0  0
    3.8220    3.0310    4.7230 H   0  0  0  0  0  0  0  0  0  0  0  0
    2.0080    1.9880    6.0370 H   0  0  0  0  0  0  0  0  0  0  0  0
   -0.0300    1.1060    4.8810 H   0  0  0  0  0  0  0  0  0  0  0  0
   -3.1240    0.4320   -1.6390 C   0  0  0  0  0  0  0  0  0  0  0  0
   -2.8060   -0.9380   -2.2260 C   0  0  0  0  0  0  0  0  0  0  0  0
   -4.0700   -1.4540   -2.8650 C   0  0  0  0  0  0  0  0  0  0  0  0
   -2.5180   -1.8390   -1.0180 C   0  0  2  0  0  0  0  0  0  0  0  0
   -1.4050   -1.3350   -0.2560 N   0  0  0  0  0  0  0  0  0  0  0  0
   -2.3150   -3.2530   -1.4270 C   0  0  0  0  0  0  0  0  0  0  0  0
   -3.1790   -3.8660   -2.0970 O   0  0  0  0  0  0  0  0  0  0  0  0
   -1.1590   -3.9520   -1.0810 O   0  0  0  0  0  0  0  0  0  0  0  0
   -3.2750    1.1930   -2.4270 H   0  0  0  0  0  0  0  0  0  0  0  0
   -4.0170    0.3980   -1.0020 H   0  0  0  0  0  0  0  0  0  0  0  0
   -2.2400    0.7770   -1.0390 H   0  0  0  0  0  0  0  0  0  0  0  0
   -1.9580   -0.8670   -2.9120 H   0  0  0  0  0  0  0  0  0  0  0  0
   -4.6310   -2.0440   -2.1140 H   0  0  0  0  0  0  0  0  0  0  0  0
   -4.7360   -0.6070   -3.1330 H   0  0  0  0  0  0  0  0  0  0  0  0
   -3.8600   -2.1050   -3.7410 H   0  0  0  0  0  0  0  0  0  0  0  0
   -3.4560   -1.8020   -0.4270 H   0  0  0  0  0  0  0  0  0  0  0  0
   -0.4470   -1.3520   -0.6690 H   0  0  0  0  0  0  0  0  0  0  0  0
  1  7  1  0  0  0  0
  1  8  1  0  0  0  0
  2  9  1  6  0  0  0
  2  5  1  0  0  0  0
  2  1  1  0  0  0  0
  3 10  1  0  0  0  0
  3  2  1  0  0  0  0
  4 12  1  0  0  0  0
  4  3  1  0  0  0  0
  5  6  2  0  0  0  0
 11  3  1  0  0  0  0
 13  5  1  0  0  0  0
 13 14  1  0  0  0  0
 14 15  1  0  0  0  0
 14 25  1  1  0  0  0
 15 26  1  0  0  0  0
 15 16  1  0  0  0  0
 16 21  1  0  0  0  0
 17 18  1  0  0  0  0
 17 16  2  0  0  0  0
 18 19  2  0  0  0  0
 19 30  1  0  0  0  0
 19 20  1  0  0  0  0
 20 31  1  0  0  0  0
 21 32  1  0  0  0  0
 21 20  2  0  0  0  0
 22 23  2  0  0  0  0
 22 14  1  0  0  0  0
 24 13  1  0  0  0  0
 27 15  1  0  0  0  0
 28 17  1  0  0  0  0
 29 18  1  0  0  0  0
 33 43  1  0  0  0  0
 33 42  1  0  0  0  0
 34 33  1  0  0  0  0
 34 36  1  0  0  0  0
 35 34  1  0  0  0  0
 35 45  1  0  0  0  0
 36 48  1  1  0  0  0
 36 37  1  0  0  0  0
 37 22  1  0  0  0  0
 38 40  1  0  0  0  0
 38 36  1  0  0  0  0
 39 38  2  0  0  0  0
 41 33  1  0  0  0  0
 44 34  1  0  0  0  0
 46 35  1  0  0  0  0
 47 35  1  0  0  0  0
 49 37  1  0  0  0  0
M  END
$$$$
