CGC.pdb
 OpenBabel07022418273D

 31 30  0  0  1  0  0  0  0  0999 V2000
    0.1120   -3.2200    3.3800 N   0  0  0  0  0  0  0  0  0  0  0  0
   -0.4480   -3.2980    2.0470 C   0  0  1  0  0  0  0  0  0  0  0  0
   -1.8210   -2.6910    2.0810 C   0  0  0  0  0  0  0  0  0  0  0  0
   -1.7760   -0.9790    2.6390 S   0  0  0  0  0  0  0  0  0  0  0  0
    0.3800   -2.7240    0.9890 C   0  0  0  0  0  0  0  0  0  0  0  0
   -0.0480   -2.6900   -0.2160 O   0  0  0  0  0  0  0  0  0  0  0  0
    0.1580   -2.1980    3.6210 H   0  0  0  0  0  0  0  0  0  0  0  0
    1.0760   -3.6440    3.3210 H   0  0  0  0  0  0  0  0  0  0  0  0
   -0.5480   -4.4340    1.8850 H   0  0  0  0  0  0  0  0  0  0  0  0
   -2.3300   -2.7970    1.0950 H   0  0  0  0  0  0  0  0  0  0  0  0
   -2.4720   -3.2420    2.8160 H   0  0  0  0  0  0  0  0  0  0  0  0
   -2.8310   -0.6910    3.5130 H   0  0  0  0  0  0  0  0  0  0  0  0
    1.6780   -2.1840    1.1950 N   0  0  0  0  0  0  0  0  0  0  0  0
    2.5410   -1.6290    0.2030 C   0  0  0  0  0  0  0  0  0  0  0  0
    1.9830   -0.4260   -0.4290 C   0  0  0  0  0  0  0  0  0  0  0  0
    2.6360    0.1490   -1.3830 O   0  0  0  0  0  0  0  0  0  0  0  0
    2.0230   -2.2080    2.2060 H   0  0  0  0  0  0  0  0  0  0  0  0
    2.7270   -2.4070   -0.5910 H   0  0  0  0  0  0  0  0  0  0  0  0
    3.5580   -1.3930    0.6590 H   0  0  0  0  0  0  0  0  0  0  0  0
    0.7560    0.1970   -0.0860 N   0  0  0  0  0  0  0  0  0  0  0  0
    0.2780    1.3820   -0.7690 C   0  0  1  0  0  0  0  0  0  0  0  0
   -1.0370    1.1810   -1.4480 C   0  0  0  0  0  0  0  0  0  0  0  0
   -1.4820    2.7600   -2.2490 S   0  0  0  0  0  0  0  0  0  0  0  0
    0.1610    2.5390    0.1580 C   0  0  0  0  0  0  0  0  0  0  0  0
   -0.2370    3.6620   -0.2350 O   0  0  0  0  0  0  0  0  0  0  0  0
    0.4870    2.4310    1.5080 O   0  0  0  0  0  0  0  0  0  0  0  0
    0.2160   -0.2220    0.6920 H   0  0  0  0  0  0  0  0  0  0  0  0
    1.0260    1.6490   -1.5420 H   0  0  0  0  0  0  0  0  0  0  0  0
   -1.8630    0.9610   -0.7350 H   0  0  0  0  0  0  0  0  0  0  0  0
   -0.9720    0.4050   -2.2430 H   0  0  0  0  0  0  0  0  0  0  0  0
   -0.3580    3.3480   -2.8650 H   0  0  0  0  0  0  0  0  0  0  0  0
  1  7  1  0  0  0  0
  2  9  1  6  0  0  0
  2  3  1  0  0  0  0
  2  1  1  0  0  0  0
  3  4  1  0  0  0  0
  3 11  1  0  0  0  0
  4 12  1  0  0  0  0
  5 13  1  0  0  0  0
  5  2  1  0  0  0  0
  6  5  2  0  0  0  0
  8  1  1  0  0  0  0
 10  3  1  0  0  0  0
 13 17  1  0  0  0  0
 14 19  1  0  0  0  0
 14 13  1  0  0  0  0
 15 20  1  0  0  0  0
 15 14  1  0  0  0  0
 16 15  2  0  0  0  0
 18 14  1  0  0  0  0
 20 27  1  0  0  0  0
 21 28  1  6  0  0  0
 21 20  1  0  0  0  0
 21 24  1  0  0  0  0
 22 21  1  0  0  0  0
 22 29  1  0  0  0  0
 23 22  1  0  0  0  0
 24 26  1  0  0  0  0
 25 24  2  0  0  0  0
 30 22  1  0  0  0  0
 31 23  1  0  0  0  0
M  END
$$$$
