CGH.pdb
 OpenBabel07022418273D

 37 37  0  0  1  0  0  0  0  0999 V2000
   -1.5220   -3.5920    2.8100 N   0  0  0  0  0  0  0  0  0  0  0  0
   -0.6410   -4.4960    2.1250 C   0  0  1  0  0  0  0  0  0  0  0  0
   -1.5300   -5.4430    1.3080 C   0  0  0  0  0  0  0  0  0  0  0  0
   -0.5340   -6.6400    0.3910 S   0  0  0  0  0  0  0  0  0  0  0  0
    0.1820   -3.7560    1.1270 C   0  0  0  0  0  0  0  0  0  0  0  0
    1.0230   -4.3370    0.4080 O   0  0  0  0  0  0  0  0  0  0  0  0
   -1.0240   -2.8280    3.3100 H   0  0  0  0  0  0  0  0  0  0  0  0
   -2.1750   -3.1950    2.0700 H   0  0  0  0  0  0  0  0  0  0  0  0
   -0.0140   -5.0970    2.8090 H   0  0  0  0  0  0  0  0  0  0  0  0
   -2.1170   -4.8050    0.5930 H   0  0  0  0  0  0  0  0  0  0  0  0
   -2.2200   -5.9740    1.9860 H   0  0  0  0  0  0  0  0  0  0  0  0
   -1.0610   -6.8790   -0.8970 H   0  0  0  0  0  0  0  0  0  0  0  0
    0.0430   -2.3410    0.9480 N   0  0  0  0  0  0  0  0  0  0  0  0
    0.8480   -1.6740   -0.0150 C   0  0  0  0  0  0  0  0  0  0  0  0
    0.6330   -0.2140   -0.1290 C   0  0  0  0  0  0  0  0  0  0  0  0
    1.3480    0.4200   -0.9920 O   0  0  0  0  0  0  0  0  0  0  0  0
   -0.6460   -1.8530    1.5330 H   0  0  0  0  0  0  0  0  0  0  0  0
    0.8080   -2.1410   -1.0270 H   0  0  0  0  0  0  0  0  0  0  0  0
    1.9230   -1.8030    0.2930 H   0  0  0  0  0  0  0  0  0  0  0  0
   -0.2640    0.5700    0.5970 N   0  0  0  0  0  0  0  0  0  0  0  0
   -0.5180    1.9570    0.5780 C   0  0  1  0  0  0  0  0  0  0  0  0
    0.2990    2.8380   -0.3080 C   0  0  0  0  0  0  0  0  0  0  0  0
    1.7180    2.8240    0.1520 C   0  0  0  0  0  0  0  0  0  0  0  0
    2.7980    3.4600   -0.4090 C   0  0  0  0  0  0  0  0  0  0  0  0
    3.8900    3.1960    0.3030 N   0  0  0  0  0  0  0  0  0  0  0  0
    3.4950    2.3940    1.3130 C   0  0  0  0  0  0  0  0  0  0  0  0
    2.1730    2.1680    1.2200 N   0  0  0  0  0  0  0  0  0  0  0  0
   -1.9390    2.2640    0.5560 C   0  0  0  0  0  0  0  0  0  0  0  0
   -2.7830    1.3250    0.5560 O   0  0  0  0  0  0  0  0  0  0  0  0
   -2.4210    3.5700    0.5340 O   0  0  0  0  0  0  0  0  0  0  0  0
   -0.8820    0.0380    1.3030 H   0  0  0  0  0  0  0  0  0  0  0  0
   -0.1070    2.3030    1.6300 H   0  0  0  0  0  0  0  0  0  0  0  0
    0.1980    2.6240   -1.3810 H   0  0  0  0  0  0  0  0  0  0  0  0
   -0.0640    3.8760   -0.1540 H   0  0  0  0  0  0  0  0  0  0  0  0
    2.7530    4.0710   -1.2850 H   0  0  0  0  0  0  0  0  0  0  0  0
    4.8880    3.5310    0.1410 H   0  0  0  0  0  0  0  0  0  0  0  0
    4.2060    2.0210    2.0610 H   0  0  0  0  0  0  0  0  0  0  0  0
  1  7  1  0  0  0  0
  2  9  1  1  0  0  0
  2  1  1  0  0  0  0
  3 11  1  0  0  0  0
  3  2  1  0  0  0  0
  4  3  1  0  0  0  0
  5  2  1  0  0  0  0
  6  5  2  0  0  0  0
  8  1  1  0  0  0  0
 10  3  1  0  0  0  0
 12  4  1  0  0  0  0
 13  5  1  0  0  0  0
 13 17  1  0  0  0  0
 14 19  1  0  0  0  0
 14 13  1  0  0  0  0
 15 14  1  0  0  0  0
 15 20  1  0  0  0  0
 16 15  2  0  0  0  0
 18 14  1  0  0  0  0
 20 31  1  0  0  0  0
 21 20  1  0  0  0  0
 21 32  1  1  0  0  0
 22 34  1  0  0  0  0
 22 23  1  0  0  0  0
 22 21  1  0  0  0  0
 23 27  1  0  0  0  0
 24 23  2  0  0  0  0
 24 25  1  0  0  0  0
 25 26  1  0  0  0  0
 26 37  1  0  0  0  0
 27 26  2  0  0  0  0
 28 21  1  0  0  0  0
 29 28  1  0  0  0  0
 30 28  2  0  0  0  0
 33 22  1  0  0  0  0
 35 24  1  0  0  0  0
 36 25  1  0  0  0  0
M  END
$$$$
