CGM.pdb
 OpenBabel07022418273D

 37 36  0  0  1  0  0  0  0  0999 V2000
   -1.0780   -2.4860    4.1720 N   0  0  0  0  0  0  0  0  0  0  0  0
   -0.5500   -2.9180    2.8840 C   0  0  1  0  0  0  0  0  0  0  0  0
   -1.6060   -2.9660    1.8350 C   0  0  0  0  0  0  0  0  0  0  0  0
   -2.4010   -1.3650    1.5720 S   0  0  0  0  0  0  0  0  0  0  0  0
    0.6420   -2.1090    2.5550 C   0  0  0  0  0  0  0  0  0  0  0  0
    0.9950   -1.1190    3.2880 O   0  0  0  0  0  0  0  0  0  0  0  0
   -2.1050   -2.5800    4.2230 H   0  0  0  0  0  0  0  0  0  0  0  0
   -0.7540   -1.5190    4.3810 H   0  0  0  0  0  0  0  0  0  0  0  0
   -0.1440   -3.9620    3.0690 H   0  0  0  0  0  0  0  0  0  0  0  0
   -2.3990   -3.6640    2.1930 H   0  0  0  0  0  0  0  0  0  0  0  0
   -1.2010   -3.3560    0.8900 H   0  0  0  0  0  0  0  0  0  0  0  0
   -3.0250   -1.3140    0.3140 H   0  0  0  0  0  0  0  0  0  0  0  0
    1.4720   -2.3760    1.4120 N   0  0  0  0  0  0  0  0  0  0  0  0
    2.6290   -1.6250    1.0700 C   0  0  0  0  0  0  0  0  0  0  0  0
    2.3600   -0.2230    0.7480 C   0  0  0  0  0  0  0  0  0  0  0  0
    3.3290    0.5820    0.4870 O   0  0  0  0  0  0  0  0  0  0  0  0
    1.1530   -3.1980    0.8240 H   0  0  0  0  0  0  0  0  0  0  0  0
    3.1440   -2.1240    0.2110 H   0  0  0  0  0  0  0  0  0  0  0  0
    3.3940   -1.6990    1.9010 H   0  0  0  0  0  0  0  0  0  0  0  0
    0.4740   -1.1530   -2.5820 C   0  0  0  0  0  0  0  0  0  0  0  0
   -0.7170   -0.4460   -1.4350 S   0  0  0  0  0  0  0  0  0  0  0  0
   -0.7550    1.3490   -1.5160 C   0  0  0  0  0  0  0  0  0  0  0  0
    0.4970    2.0060   -1.0530 C   0  0  0  0  0  0  0  0  0  0  0  0
    0.8770    1.7680    0.3760 C   0  0  2  0  0  0  0  0  0  0  0  0
    1.0730    0.3660    0.6890 N   0  0  0  0  0  0  0  0  0  0  0  0
   -0.0140    2.4110    1.3540 C   0  0  0  0  0  0  0  0  0  0  0  0
   -0.4780    1.7180    2.2900 O   0  0  0  0  0  0  0  0  0  0  0  0
   -0.3660    3.7450    1.2900 O   0  0  0  0  0  0  0  0  0  0  0  0
    1.0490   -1.9420   -2.0890 H   0  0  0  0  0  0  0  0  0  0  0  0
    1.2050   -0.3740   -2.9020 H   0  0  0  0  0  0  0  0  0  0  0  0
   -0.0370   -1.5880   -3.4720 H   0  0  0  0  0  0  0  0  0  0  0  0
   -1.5920    1.7540   -0.8860 H   0  0  0  0  0  0  0  0  0  0  0  0
   -0.9550    1.6380   -2.5830 H   0  0  0  0  0  0  0  0  0  0  0  0
    0.4990    3.1060   -1.2570 H   0  0  0  0  0  0  0  0  0  0  0  0
    1.3590    1.6140   -1.6690 H   0  0  0  0  0  0  0  0  0  0  0  0
    1.9030    2.2500    0.4990 H   0  0  0  0  0  0  0  0  0  0  0  0
    0.2540   -0.2250    0.8700 H   0  0  0  0  0  0  0  0  0  0  0  0
  1  7  1  0  0  0  0
  1  8  1  0  0  0  0
  2  9  1  1  0  0  0
  2  1  1  0  0  0  0
  3 10  1  0  0  0  0
  3  2  1  0  0  0  0
  4  3  1  0  0  0  0
  5  2  1  0  0  0  0
  5  6  2  0  0  0  0
 11  3  1  0  0  0  0
 12  4  1  0  0  0  0
 13  5  1  0  0  0  0
 14 13  1  0  0  0  0
 14 19  1  0  0  0  0
 15 14  1  0  0  0  0
 16 15  2  0  0  0  0
 17 13  1  0  0  0  0
 18 14  1  0  0  0  0
 20 29  1  0  0  0  0
 20 21  1  0  0  0  0
 22 21  1  0  0  0  0
 22 23  1  0  0  0  0
 22 32  1  0  0  0  0
 23 24  1  0  0  0  0
 24 36  1  1  0  0  0
 24 25  1  0  0  0  0
 24 26  1  0  0  0  0
 25 15  1  0  0  0  0
 25 37  1  0  0  0  0
 26 27  1  0  0  0  0
 28 26  2  0  0  0  0
 30 20  1  0  0  0  0
 31 20  1  0  0  0  0
 33 22  1  0  0  0  0
 34 23  1  0  0  0  0
 35 23  1  0  0  0  0
M  END
$$$$
