CGQ.pdb
 OpenBabel07022418273D

 37 36  0  0  1  0  0  0  0  0999 V2000
    2.3450   -2.9430    4.4100 N   0  0  0  0  0  0  0  0  0  0  0  0
    2.0250   -3.6190    3.1480 C   0  0  1  0  0  0  0  0  0  0  0  0
    0.7410   -4.4000    3.4600 C   0  0  0  0  0  0  0  0  0  0  0  0
    0.1730   -5.3210    2.0120 S   0  0  0  0  0  0  0  0  0  0  0  0
    1.7440   -2.5660    2.1270 C   0  0  0  0  0  0  0  0  0  0  0  0
    1.7470   -1.3360    2.4640 O   0  0  0  0  0  0  0  0  0  0  0  0
    3.3710   -2.8850    4.5480 H   0  0  0  0  0  0  0  0  0  0  0  0
    1.8640   -2.0260    4.4020 H   0  0  0  0  0  0  0  0  0  0  0  0
    2.8100   -4.3080    2.8220 H   0  0  0  0  0  0  0  0  0  0  0  0
    1.0280   -5.1570    4.2280 H   0  0  0  0  0  0  0  0  0  0  0  0
   -0.0420   -3.7470    3.8430 H   0  0  0  0  0  0  0  0  0  0  0  0
   -0.7020   -4.4950    1.2640 H   0  0  0  0  0  0  0  0  0  0  0  0
    1.4640   -2.8250    0.7680 N   0  0  0  0  0  0  0  0  0  0  0  0
    1.1930   -1.7830   -0.1880 C   0  0  0  0  0  0  0  0  0  0  0  0
   -0.0050   -1.0170    0.2240 C   0  0  0  0  0  0  0  0  0  0  0  0
   -0.5830   -1.3660    1.2780 O   0  0  0  0  0  0  0  0  0  0  0  0
    1.4550   -3.8080    0.4450 H   0  0  0  0  0  0  0  0  0  0  0  0
    1.0590   -2.2030   -1.2060 H   0  0  0  0  0  0  0  0  0  0  0  0
    2.0860   -1.0950   -0.2950 H   0  0  0  0  0  0  0  0  0  0  0  0
    1.5570    3.1280   -1.8360 N   0  0  0  0  0  0  0  0  0  0  0  0
    0.8650    2.6610   -0.6900 C   0  0  0  0  0  0  0  0  0  0  0  0
    1.4690    1.8590    0.0650 O   0  0  0  0  0  0  0  0  0  0  0  0
   -0.4950    3.0800   -0.3650 C   0  0  0  0  0  0  0  0  0  0  0  0
   -1.3130    2.1660    0.4630 C   0  0  0  0  0  0  0  0  0  0  0  0
   -1.6630    0.8410   -0.1610 C   0  0  2  0  0  0  0  0  0  0  0  0
   -0.5230    0.0830   -0.5150 N   0  0  0  0  0  0  0  0  0  0  0  0
   -2.5960    1.1140   -1.2780 C   0  0  0  0  0  0  0  0  0  0  0  0
   -2.4490    0.7380   -2.4460 O   0  0  0  0  0  0  0  0  0  0  0  0
   -3.7330    1.8590   -0.9710 O   0  0  0  0  0  0  0  0  0  0  0  0
    2.2160    2.4890   -2.3240 H   0  0  0  0  0  0  0  0  0  0  0  0
    1.4350    4.0850   -2.2150 H   0  0  0  0  0  0  0  0  0  0  0  0
   -1.0220    3.3160   -1.3390 H   0  0  0  0  0  0  0  0  0  0  0  0
   -0.4170    4.0780    0.1290 H   0  0  0  0  0  0  0  0  0  0  0  0
   -2.2340    2.7080    0.8100 H   0  0  0  0  0  0  0  0  0  0  0  0
   -0.7420    2.0090    1.4300 H   0  0  0  0  0  0  0  0  0  0  0  0
   -2.2810    0.3280    0.6420 H   0  0  0  0  0  0  0  0  0  0  0  0
   -0.0120    0.3030   -1.4000 H   0  0  0  0  0  0  0  0  0  0  0  0
  1  7  1  0  0  0  0
  2  9  1  6  0  0  0
  2  3  1  0  0  0  0
  2  1  1  0  0  0  0
  3 11  1  0  0  0  0
  3 10  1  0  0  0  0
  4  3  1  0  0  0  0
  5  6  2  0  0  0  0
  5  2  1  0  0  0  0
  8  1  1  0  0  0  0
 12  4  1  0  0  0  0
 13  5  1  0  0  0  0
 14 15  1  0  0  0  0
 14 13  1  0  0  0  0
 15 16  2  0  0  0  0
 17 13  1  0  0  0  0
 18 14  1  0  0  0  0
 19 14  1  0  0  0  0
 20 21  1  0  0  0  0
 21 23  1  0  0  0  0
 21 22  2  0  0  0  0
 23 33  1  0  0  0  0
 23 24  1  0  0  0  0
 24 34  1  0  0  0  0
 24 35  1  0  0  0  0
 25 24  1  0  0  0  0
 25 36  1  1  0  0  0
 26 25  1  0  0  0  0
 26 15  1  0  0  0  0
 27 29  1  0  0  0  0
 27 25  1  0  0  0  0
 28 27  2  0  0  0  0
 30 20  1  0  0  0  0
 31 20  1  0  0  0  0
 32 23  1  0  0  0  0
 37 26  1  0  0  0  0
M  END
$$$$
