CGS.pdb
 OpenBabel07022418273D

 31 30  0  0  1  0  0  0  0  0999 V2000
    0.1380   -4.9920    1.8890 N   0  0  0  0  0  0  0  0  0  0  0  0
   -0.9040   -4.0180    1.9920 C   0  0  1  0  0  0  0  0  0  0  0  0
   -0.8490   -3.4340    3.4070 C   0  0  0  0  0  0  0  0  0  0  0  0
   -2.1380   -2.1820    3.6380 S   0  0  0  0  0  0  0  0  0  0  0  0
   -0.7660   -2.9080    1.0140 C   0  0  0  0  0  0  0  0  0  0  0  0
   -1.6340   -2.0150    1.0380 O   0  0  0  0  0  0  0  0  0  0  0  0
    0.2340   -5.4360    0.9690 H   0  0  0  0  0  0  0  0  0  0  0  0
    1.0820   -4.5530    2.1030 H   0  0  0  0  0  0  0  0  0  0  0  0
   -1.8820   -4.5330    1.9170 H   0  0  0  0  0  0  0  0  0  0  0  0
   -1.0170   -4.2220    4.1650 H   0  0  0  0  0  0  0  0  0  0  0  0
    0.1470   -2.9920    3.6140 H   0  0  0  0  0  0  0  0  0  0  0  0
   -1.7570   -0.9340    3.1610 H   0  0  0  0  0  0  0  0  0  0  0  0
    0.2820   -2.8200    0.0800 N   0  0  0  0  0  0  0  0  0  0  0  0
    0.3440   -1.7050   -0.8350 C   0  0  0  0  0  0  0  0  0  0  0  0
    0.4570   -0.4600   -0.0560 C   0  0  0  0  0  0  0  0  0  0  0  0
    0.4890   -0.4990    1.1860 O   0  0  0  0  0  0  0  0  0  0  0  0
    1.0000   -3.5920    0.0840 H   0  0  0  0  0  0  0  0  0  0  0  0
   -0.5510   -1.7330   -1.4860 H   0  0  0  0  0  0  0  0  0  0  0  0
    1.2300   -1.8540   -1.4860 H   0  0  0  0  0  0  0  0  0  0  0  0
    1.9760    3.2240   -1.5860 O   0  0  0  0  0  0  0  0  0  0  0  0
    1.8700    2.8640   -0.2580 C   0  0  0  0  0  0  0  0  0  0  0  0
    0.6450    2.0610    0.0510 C   0  0  2  0  0  0  0  0  0  0  0  0
    0.5350    0.8320   -0.6510 N   0  0  0  0  0  0  0  0  0  0  0  0
   -0.5500    2.9440   -0.1580 C   0  0  0  0  0  0  0  0  0  0  0  0
   -1.5130    2.5740   -0.8890 O   0  0  0  0  0  0  0  0  0  0  0  0
   -0.6460    4.1880    0.4370 O   0  0  0  0  0  0  0  0  0  0  0  0
    2.8930    3.0350   -1.8760 H   0  0  0  0  0  0  0  0  0  0  0  0
    1.8010    3.8040    0.3310 H   0  0  0  0  0  0  0  0  0  0  0  0
    2.7890    2.3480    0.1240 H   0  0  0  0  0  0  0  0  0  0  0  0
    0.6600    1.8410    1.1430 H   0  0  0  0  0  0  0  0  0  0  0  0
    0.5080    0.8630   -1.6950 H   0  0  0  0  0  0  0  0  0  0  0  0
  1  2  1  0  0  0  0
  1  8  1  0  0  0  0
  2  9  1  6  0  0  0
  2  3  1  0  0  0  0
  3 11  1  0  0  0  0
  3  4  1  0  0  0  0
  3 10  1  0  0  0  0
  5  6  2  0  0  0  0
  5  2  1  0  0  0  0
  7  1  1  0  0  0  0
 12  4  1  0  0  0  0
 13 17  1  0  0  0  0
 13  5  1  0  0  0  0
 14 15  1  0  0  0  0
 14 13  1  0  0  0  0
 15 16  2  0  0  0  0
 18 14  1  0  0  0  0
 19 14  1  0  0  0  0
 20 21  1  0  0  0  0
 21 22  1  0  0  0  0
 21 29  1  0  0  0  0
 21 28  1  0  0  0  0
 22 30  1  1  0  0  0
 23 15  1  0  0  0  0
 23 22  1  0  0  0  0
 24 22  1  0  0  0  0
 24 26  1  0  0  0  0
 25 24  2  0  0  0  0
 27 20  1  0  0  0  0
 31 23  1  0  0  0  0
M  END
$$$$
