CGT.pdb
 OpenBabel07022418273D

 34 33  0  0  1  0  0  0  0  0999 V2000
   -1.8530   -3.2660    1.5200 N   0  0  0  0  0  0  0  0  0  0  0  0
   -0.7310   -2.6510    2.1390 C   0  0  1  0  0  0  0  0  0  0  0  0
   -0.0650   -3.6920    3.0390 C   0  0  0  0  0  0  0  0  0  0  0  0
    1.3620   -2.9440    3.8390 S   0  0  0  0  0  0  0  0  0  0  0  0
    0.3130   -2.2210    1.1670 C   0  0  0  0  0  0  0  0  0  0  0  0
    1.3560   -1.6640    1.5920 O   0  0  0  0  0  0  0  0  0  0  0  0
   -2.4080   -2.6810    0.8900 H   0  0  0  0  0  0  0  0  0  0  0  0
   -2.3560   -3.9500    2.0880 H   0  0  0  0  0  0  0  0  0  0  0  0
   -1.0770   -1.7800    2.7240 H   0  0  0  0  0  0  0  0  0  0  0  0
   -0.8250   -4.0510    3.7400 H   0  0  0  0  0  0  0  0  0  0  0  0
    0.2560   -4.5220    2.3510 H   0  0  0  0  0  0  0  0  0  0  0  0
    2.4590   -3.8190    3.7170 H   0  0  0  0  0  0  0  0  0  0  0  0
    0.1810   -2.4150   -0.2300 N   0  0  0  0  0  0  0  0  0  0  0  0
    1.1300   -2.0220   -1.2160 C   0  0  0  0  0  0  0  0  0  0  0  0
    1.3680   -0.5640   -1.3020 C   0  0  0  0  0  0  0  0  0  0  0  0
    2.2260   -0.1290   -2.1230 O   0  0  0  0  0  0  0  0  0  0  0  0
   -0.7200   -2.8990   -0.5250 H   0  0  0  0  0  0  0  0  0  0  0  0
    0.7430   -2.3260   -2.2340 H   0  0  0  0  0  0  0  0  0  0  0  0
    2.1110   -2.5780   -1.1110 H   0  0  0  0  0  0  0  0  0  0  0  0
   -1.3930    2.2880    0.0430 C   0  0  0  0  0  0  0  0  0  0  0  0
   -0.3610    2.5180   -1.0430 C   0  0  1  0  0  0  0  0  0  0  0  0
   -0.1620    3.8890   -1.1300 O   0  0  0  0  0  0  0  0  0  0  0  0
    0.9320    1.8130   -0.6070 C   0  0  2  0  0  0  0  0  0  0  0  0
    0.6940    0.3830   -0.5250 N   0  0  0  0  0  0  0  0  0  0  0  0
    1.2680    2.3590    0.7290 C   0  0  0  0  0  0  0  0  0  0  0  0
    1.5210    3.5670    0.9470 O   0  0  0  0  0  0  0  0  0  0  0  0
    1.3060    1.4830    1.7990 O   0  0  0  0  0  0  0  0  0  0  0  0
   -1.7870    1.2750   -0.0310 H   0  0  0  0  0  0  0  0  0  0  0  0
   -0.8890    2.3570    1.0500 H   0  0  0  0  0  0  0  0  0  0  0  0
   -2.2150    3.0050    0.0100 H   0  0  0  0  0  0  0  0  0  0  0  0
   -0.7560    2.0760   -1.9790 H   0  0  0  0  0  0  0  0  0  0  0  0
   -0.9720    4.3500   -0.8440 H   0  0  0  0  0  0  0  0  0  0  0  0
    1.6990    2.0800   -1.3440 H   0  0  0  0  0  0  0  0  0  0  0  0
   -0.0300    0.0870    0.1470 H   0  0  0  0  0  0  0  0  0  0  0  0
  1  8  1  0  0  0  0
  1  2  1  0  0  0  0
  2  9  1  1  0  0  0
  2  3  1  0  0  0  0
  3 10  1  0  0  0  0
  3  4  1  0  0  0  0
  5  6  2  0  0  0  0
  5  2  1  0  0  0  0
  7  1  1  0  0  0  0
 11  3  1  0  0  0  0
 12  4  1  0  0  0  0
 13  5  1  0  0  0  0
 14 19  1  0  0  0  0
 14 13  1  0  0  0  0
 15 14  1  0  0  0  0
 15 24  1  0  0  0  0
 16 15  2  0  0  0  0
 17 13  1  0  0  0  0
 18 14  1  0  0  0  0
 20 29  1  0  0  0  0
 21 31  1  6  0  0  0
 21 23  1  0  0  0  0
 21 20  1  0  0  0  0
 22 21  1  0  0  0  0
 22 32  1  0  0  0  0
 23 33  1  6  0  0  0
 23 24  1  0  0  0  0
 23 25  1  0  0  0  0
 24 34  1  0  0  0  0
 25 26  2  0  0  0  0
 25 27  1  0  0  0  0
 28 20  1  0  0  0  0
 30 20  1  0  0  0  0
M  END
$$$$
