CGW.pdb
 OpenBabel07022418273D

 44 45  0  0  1  0  0  0  0  0999 V2000
    2.2450   -3.8130    1.9200 N   0  0  0  0  0  0  0  0  0  0  0  0
    2.3990   -3.6030    0.4780 C   0  0  1  0  0  0  0  0  0  0  0  0
    1.3640   -4.4510   -0.2370 C   0  0  0  0  0  0  0  0  0  0  0  0
    1.4660   -4.2720   -2.0300 S   0  0  0  0  0  0  0  0  0  0  0  0
    2.2610   -2.1640    0.2140 C   0  0  0  0  0  0  0  0  0  0  0  0
    1.9400   -1.3660    1.1620 O   0  0  0  0  0  0  0  0  0  0  0  0
    1.3210   -4.2420    2.1550 H   0  0  0  0  0  0  0  0  0  0  0  0
    2.9760   -4.4570    2.2970 H   0  0  0  0  0  0  0  0  0  0  0  0
    3.3980   -3.9820    0.1870 H   0  0  0  0  0  0  0  0  0  0  0  0
    0.3350   -4.2330    0.1370 H   0  0  0  0  0  0  0  0  0  0  0  0
    1.5920   -5.5040    0.0140 H   0  0  0  0  0  0  0  0  0  0  0  0
    0.1820   -4.4160   -2.6010 H   0  0  0  0  0  0  0  0  0  0  0  0
    2.4580   -1.5320   -1.0420 N   0  0  0  0  0  0  0  0  0  0  0  0
    2.2940   -0.0920   -1.2130 C   0  0  0  0  0  0  0  0  0  0  0  0
    0.8860    0.2290   -0.8610 C   0  0  0  0  0  0  0  0  0  0  0  0
    0.0510   -0.6500   -0.4970 O   0  0  0  0  0  0  0  0  0  0  0  0
    2.7260   -2.1040   -1.8470 H   0  0  0  0  0  0  0  0  0  0  0  0
    3.0000    0.3770   -0.4960 H   0  0  0  0  0  0  0  0  0  0  0  0
    2.5310    0.1820   -2.2450 H   0  0  0  0  0  0  0  0  0  0  0  0
    0.3630    1.5620   -0.9070 N   0  0  0  0  0  0  0  0  0  0  0  0
   -0.9980    1.8720   -0.5670 C   0  0  1  0  0  0  0  0  0  0  0  0
   -1.0490    2.6860    0.7250 C   0  0  0  0  0  0  0  0  0  0  0  0
   -0.4190    1.8410    1.7990 C   0  0  0  0  0  0  0  0  0  0  0  0
    0.8490    1.9960    2.3390 C   0  0  0  0  0  0  0  0  0  0  0  0
    1.0490    1.0460    3.2730 N   0  0  0  0  0  0  0  0  0  0  0  0
   -0.0390    0.2600    3.3780 C   0  0  0  0  0  0  0  0  0  0  0  0
   -0.3200   -0.8340    4.1810 C   0  0  0  0  0  0  0  0  0  0  0  0
   -1.5420   -1.4640    4.0780 C   0  0  0  0  0  0  0  0  0  0  0  0
   -2.4470   -0.9650    3.1620 C   0  0  0  0  0  0  0  0  0  0  0  0
   -2.1570    0.1240    2.3680 C   0  0  0  0  0  0  0  0  0  0  0  0
   -0.9490    0.7540    2.4620 C   0  0  0  0  0  0  0  0  0  0  0  0
   -1.7510    2.4810   -1.6640 C   0  0  0  0  0  0  0  0  0  0  0  0
   -1.1840    2.6780   -2.7640 O   0  0  0  0  0  0  0  0  0  0  0  0
   -3.0760    2.8520   -1.5390 O   0  0  0  0  0  0  0  0  0  0  0  0
    1.0260    2.3100   -1.2040 H   0  0  0  0  0  0  0  0  0  0  0  0
   -1.5060    0.9010   -0.2970 H   0  0  0  0  0  0  0  0  0  0  0  0
   -0.4160    3.5650    0.5830 H   0  0  0  0  0  0  0  0  0  0  0  0
   -2.0800    2.9440    0.9640 H   0  0  0  0  0  0  0  0  0  0  0  0
    1.5320    2.7860    2.0150 H   0  0  0  0  0  0  0  0  0  0  0  0
    1.9330    0.9440    3.8340 H   0  0  0  0  0  0  0  0  0  0  0  0
    0.3770   -1.2350    4.9020 H   0  0  0  0  0  0  0  0  0  0  0  0
   -1.7930   -2.3340    4.7010 H   0  0  0  0  0  0  0  0  0  0  0  0
   -3.4070   -1.4710    3.0910 H   0  0  0  0  0  0  0  0  0  0  0  0
   -2.8710    0.5200    1.6420 H   0  0  0  0  0  0  0  0  0  0  0  0
  1  7  1  0  0  0  0
  1  8  1  0  0  0  0
  2  9  1  6  0  0  0
  2  1  1  0  0  0  0
  3 11  1  0  0  0  0
  3 10  1  0  0  0  0
  3  2  1  0  0  0  0
  4  3  1  0  0  0  0
  5  2  1  0  0  0  0
  5  6  2  0  0  0  0
 12  4  1  0  0  0  0
 13  5  1  0  0  0  0
 14 13  1  0  0  0  0
 14 15  1  0  0  0  0
 14 18  1  0  0  0  0
 15 16  2  0  0  0  0
 17 13  1  0  0  0  0
 19 14  1  0  0  0  0
 20 15  1  0  0  0  0
 20 21  1  0  0  0  0
 21 36  1  1  0  0  0
 21 22  1  0  0  0  0
 22 38  1  0  0  0  0
 22 23  1  0  0  0  0
 23 24  2  0  0  0  0
 23 31  1  0  0  0  0
 24 25  1  0  0  0  0
 25 26  1  0  0  0  0
 25 40  1  0  0  0  0
 26 27  1  0  0  0  0
 27 41  1  0  0  0  0
 28 27  2  0  0  0  0
 28 42  1  0  0  0  0
 29 28  1  0  0  0  0
 30 31  1  0  0  0  0
 30 29  2  0  0  0  0
 31 26  2  0  0  0  0
 32 34  1  0  0  0  0
 32 21  1  0  0  0  0
 33 32  2  0  0  0  0
 35 20  1  0  0  0  0
 37 22  1  0  0  0  0
 39 24  1  0  0  0  0
 43 29  1  0  0  0  0
 44 30  1  0  0  0  0
M  END
$$$$
