CHE.pdb
 OpenBabel07022418273D

 46 46  0  0  1  0  0  0  0  0999 V2000
    3.7990   -3.9410    2.4050 N   0  0  0  0  0  0  0  0  0  0  0  0
    3.0960   -3.3960    1.2170 C   0  0  1  0  0  0  0  0  0  0  0  0
    2.1630   -4.4260    0.6920 C   0  0  0  0  0  0  0  0  0  0  0  0
    1.2770   -3.8750   -0.7750 S   0  0  0  0  0  0  0  0  0  0  0  0
    2.5380   -2.1190    1.6270 C   0  0  0  0  0  0  0  0  0  0  0  0
    2.7220   -1.7160    2.8350 O   0  0  0  0  0  0  0  0  0  0  0  0
    4.0170   -3.2010    3.0810 H   0  0  0  0  0  0  0  0  0  0  0  0
    3.2330   -4.6750    2.8690 H   0  0  0  0  0  0  0  0  0  0  0  0
    3.9230   -3.2470    0.4700 H   0  0  0  0  0  0  0  0  0  0  0  0
    2.7890   -5.3150    0.3790 H   0  0  0  0  0  0  0  0  0  0  0  0
    1.4850   -4.8500    1.4630 H   0  0  0  0  0  0  0  0  0  0  0  0
    2.0660   -3.9490   -1.9320 H   0  0  0  0  0  0  0  0  0  0  0  0
    1.7820   -1.2080    0.8390 N   0  0  0  0  0  0  0  0  0  0  0  0
    1.2950    0.0550    1.3950 C   0  0  1  0  0  0  0  0  0  0  0  0
    1.9050    1.2180    0.6590 C   0  0  0  0  0  0  0  0  0  0  0  0
    1.4130    2.4890    1.2250 C   0  0  0  0  0  0  0  0  0  0  0  0
    1.9490    3.2370    2.2660 C   0  0  0  0  0  0  0  0  0  0  0  0
    1.2160    4.3430    2.4940 N   0  0  0  0  0  0  0  0  0  0  0  0
    0.2100    4.3030    1.5980 C   0  0  0  0  0  0  0  0  0  0  0  0
    0.3270    3.2000    0.8430 N   0  0  0  0  0  0  0  0  0  0  0  0
   -0.1690    0.0750    1.3350 C   0  0  0  0  0  0  0  0  0  0  0  0
   -0.8100    1.0520    1.8160 O   0  0  0  0  0  0  0  0  0  0  0  0
    1.5870   -1.4620   -0.1410 H   0  0  0  0  0  0  0  0  0  0  0  0
    1.6070    0.1600    2.4600 H   0  0  0  0  0  0  0  0  0  0  0  0
    3.0210    1.1190    0.7850 H   0  0  0  0  0  0  0  0  0  0  0  0
    1.6760    1.1630   -0.4350 H   0  0  0  0  0  0  0  0  0  0  0  0
    2.8330    2.9460    2.8000 H   0  0  0  0  0  0  0  0  0  0  0  0
    1.3640    5.0910    3.2010 H   0  0  0  0  0  0  0  0  0  0  0  0
   -0.5580    5.0580    1.5230 H   0  0  0  0  0  0  0  0  0  0  0  0
   -0.9280   -0.9510    0.7580 N   0  0  0  0  0  0  0  0  0  0  0  0
   -2.3770   -0.9670    0.6810 C   0  0  1  0  0  0  0  0  0  0  0  0
   -2.8590   -1.0000   -0.7510 C   0  0  0  0  0  0  0  0  0  0  0  0
   -2.4080    0.1860   -1.5620 C   0  0  0  0  0  0  0  0  0  0  0  0
   -2.9010    1.4840   -1.0530 C   0  0  0  0  0  0  0  0  0  0  0  0
   -2.5020    2.5830   -1.5380 O   0  0  0  0  0  0  0  0  0  0  0  0
   -2.8830   -2.1250    1.4530 C   0  0  0  0  0  0  0  0  0  0  0  0
   -2.0670   -2.8870    2.0220 O   0  0  0  0  0  0  0  0  0  0  0  0
   -3.8160    1.5430   -0.0330 O   0  0  0  0  0  0  0  0  0  0  0  0
   -4.2340   -2.4130    1.5800 O   0  0  0  0  0  0  0  0  0  0  0  0
   -0.4380   -1.7700    0.3510 H   0  0  0  0  0  0  0  0  0  0  0  0
   -2.7540   -0.0620    1.1930 H   0  0  0  0  0  0  0  0  0  0  0  0
   -3.9850   -0.9160   -0.6830 H   0  0  0  0  0  0  0  0  0  0  0  0
   -2.6750   -1.9550   -1.2450 H   0  0  0  0  0  0  0  0  0  0  0  0
   -1.3010    0.2730   -1.6010 H   0  0  0  0  0  0  0  0  0  0  0  0
   -2.7120    0.0490   -2.6340 H   0  0  0  0  0  0  0  0  0  0  0  0
   -3.7880    2.2510    0.6940 H   0  0  0  0  0  0  0  0  0  0  0  0
  1  8  1  0  0  0  0
  1  7  1  0  0  0  0
  2  9  1  6  0  0  0
  2  5  1  0  0  0  0
  2  1  1  0  0  0  0
  3  2  1  0  0  0  0
  3 11  1  0  0  0  0
  4  3  1  0  0  0  0
  5  6  2  0  0  0  0
 10  3  1  0  0  0  0
 12  4  1  0  0  0  0
 13 14  1  0  0  0  0
 13  5  1  0  0  0  0
 14 24  1  1  0  0  0
 15 25  1  0  0  0  0
 15 16  1  0  0  0  0
 15 14  1  0  0  0  0
 16 17  2  0  0  0  0
 17 18  1  0  0  0  0
 17 27  1  0  0  0  0
 18 28  1  0  0  0  0
 19 18  1  0  0  0  0
 20 16  1  0  0  0  0
 20 19  2  0  0  0  0
 21 14  1  0  0  0  0
 21 22  2  0  0  0  0
 23 13  1  0  0  0  0
 26 15  1  0  0  0  0
 29 19  1  0  0  0  0
 30 21  1  0  0  0  0
 31 30  1  0  0  0  0
 31 41  1  1  0  0  0
 31 36  1  0  0  0  0
 32 42  1  0  0  0  0
 32 31  1  0  0  0  0
 33 34  1  0  0  0  0
 33 32  1  0  0  0  0
 34 38  1  0  0  0  0
 35 34  2  0  0  0  0
 36 39  2  0  0  0  0
 36 37  1  0  0  0  0
 38 46  1  0  0  0  0
 40 30  1  0  0  0  0
 43 32  1  0  0  0  0
 44 33  1  0  0  0  0
 45 33  1  0  0  0  0
M  END
$$$$
