CHH.pdb
 OpenBabel07022418273D

 47 48  0  0  1  0  0  0  0  0999 V2000
    3.9440   -3.4720   -1.9960 N   0  0  0  0  0  0  0  0  0  0  0  0
    3.2160   -2.2280   -1.6810 C   0  0  1  0  0  0  0  0  0  0  0  0
    2.0560   -2.1610   -2.6070 C   0  0  0  0  0  0  0  0  0  0  0  0
    1.0180   -0.7000   -2.4120 S   0  0  0  0  0  0  0  0  0  0  0  0
    2.9270   -2.2210   -0.2560 C   0  0  0  0  0  0  0  0  0  0  0  0
    3.3050   -3.2040    0.4550 O   0  0  0  0  0  0  0  0  0  0  0  0
    3.4680   -4.2390   -1.4670 H   0  0  0  0  0  0  0  0  0  0  0  0
    4.9100   -3.3090   -1.5860 H   0  0  0  0  0  0  0  0  0  0  0  0
    3.9140   -1.3920   -1.9190 H   0  0  0  0  0  0  0  0  0  0  0  0
    2.4790   -2.1070   -3.6530 H   0  0  0  0  0  0  0  0  0  0  0  0
    1.4540   -3.0920   -2.5990 H   0  0  0  0  0  0  0  0  0  0  0  0
    0.8200   -0.0170   -3.6270 H   0  0  0  0  0  0  0  0  0  0  0  0
    2.2430   -1.2060    0.4770 N   0  0  0  0  0  0  0  0  0  0  0  0
    2.0180   -1.3080    1.9040 C   0  0  1  0  0  0  0  0  0  0  0  0
    2.7780   -0.1930    2.5880 C   0  0  0  0  0  0  0  0  0  0  0  0
    2.3060    1.1460    2.1020 C   0  0  0  0  0  0  0  0  0  0  0  0
    1.2980    1.8790    2.6490 C   0  0  0  0  0  0  0  0  0  0  0  0
    1.1610    3.0140    1.9520 N   0  0  0  0  0  0  0  0  0  0  0  0
    2.0790    2.9930    0.9730 C   0  0  0  0  0  0  0  0  0  0  0  0
    2.7860    1.8480    1.0590 N   0  0  0  0  0  0  0  0  0  0  0  0
    0.5850   -1.2200    2.2660 C   0  0  0  0  0  0  0  0  0  0  0  0
    0.1850   -1.2840    3.4590 O   0  0  0  0  0  0  0  0  0  0  0  0
    1.9110   -0.3800   -0.0640 H   0  0  0  0  0  0  0  0  0  0  0  0
    2.4640   -2.2600    2.2650 H   0  0  0  0  0  0  0  0  0  0  0  0
    3.8540   -0.2380    2.3980 H   0  0  0  0  0  0  0  0  0  0  0  0
    2.6190   -0.1970    3.6840 H   0  0  0  0  0  0  0  0  0  0  0  0
    0.6840    1.6230    3.5050 H   0  0  0  0  0  0  0  0  0  0  0  0
    0.4680    3.7750    2.1360 H   0  0  0  0  0  0  0  0  0  0  0  0
    2.2260    3.7790    0.2280 H   0  0  0  0  0  0  0  0  0  0  0  0
   -0.4170   -1.0600    1.3040 N   0  0  0  0  0  0  0  0  0  0  0  0
   -1.8370   -0.9670    1.5820 C   0  0  1  0  0  0  0  0  0  0  0  0
   -2.4750    0.2410    1.0480 C   0  0  0  0  0  0  0  0  0  0  0  0
   -3.9060    0.3040    1.4130 C   0  0  0  0  0  0  0  0  0  0  0  0
   -4.7980    1.3300    1.0280 C   0  0  0  0  0  0  0  0  0  0  0  0
   -6.0070    1.0580    1.5380 N   0  0  0  0  0  0  0  0  0  0  0  0
   -5.9380   -0.0840    2.2260 C   0  0  0  0  0  0  0  0  0  0  0  0
   -4.6900   -0.5100    2.1380 N   0  0  0  0  0  0  0  0  0  0  0  0
   -2.4360   -2.1780    0.9620 C   0  0  0  0  0  0  0  0  0  0  0  0
   -3.6390   -2.4950    0.9740 O   0  0  0  0  0  0  0  0  0  0  0  0
   -1.5610   -3.0610    0.2910 O   0  0  0  0  0  0  0  0  0  0  0  0
   -0.1540   -1.0010    0.2990 H   0  0  0  0  0  0  0  0  0  0  0  0
   -1.9860   -1.0430    2.6730 H   0  0  0  0  0  0  0  0  0  0  0  0
   -2.4620    0.1970   -0.0820 H   0  0  0  0  0  0  0  0  0  0  0  0
   -2.0280    1.2010    1.3830 H   0  0  0  0  0  0  0  0  0  0  0  0
   -4.5300    2.1830    0.4250 H   0  0  0  0  0  0  0  0  0  0  0  0
   -6.8860    1.6120    1.4420 H   0  0  0  0  0  0  0  0  0  0  0  0
   -6.7230   -0.6110    2.7730 H   0  0  0  0  0  0  0  0  0  0  0  0
  1  2  1  0  0  0  0
  1  8  1  0  0  0  0
  1  7  1  0  0  0  0
  2  9  1  6  0  0  0
  2  5  1  0  0  0  0
  3 11  1  0  0  0  0
  3  4  1  0  0  0  0
  3  2  1  0  0  0  0
  5  6  2  0  0  0  0
  5 13  1  0  0  0  0
 10  3  1  0  0  0  0
 12  4  1  0  0  0  0
 13 14  1  0  0  0  0
 14 24  1  1  0  0  0
 14 21  1  0  0  0  0
 14 15  1  0  0  0  0
 15 26  1  0  0  0  0
 16 15  1  0  0  0  0
 16 17  2  0  0  0  0
 17 27  1  0  0  0  0
 18 28  1  0  0  0  0
 18 17  1  0  0  0  0
 19 20  2  0  0  0  0
 19 18  1  0  0  0  0
 20 16  1  0  0  0  0
 21 22  2  0  0  0  0
 23 13  1  0  0  0  0
 25 15  1  0  0  0  0
 29 19  1  0  0  0  0
 30 31  1  0  0  0  0
 30 21  1  0  0  0  0
 31 42  1  1  0  0  0
 32 44  1  0  0  0  0
 32 33  1  0  0  0  0
 32 31  1  0  0  0  0
 33 37  1  0  0  0  0
 34 33  2  0  0  0  0
 34 35  1  0  0  0  0
 35 36  1  0  0  0  0
 36 47  1  0  0  0  0
 37 36  2  0  0  0  0
 38 39  1  0  0  0  0
 38 31  1  0  0  0  0
 40 38  2  0  0  0  0
 41 30  1  0  0  0  0
 43 32  1  0  0  0  0
 45 34  1  0  0  0  0
 46 35  1  0  0  0  0
M  END
$$$$
