CHM.pdb
 OpenBabel07022418273D

 47 47  0  0  1  0  0  0  0  0999 V2000
    2.6380   -3.8690    3.7090 N   0  0  0  0  0  0  0  0  0  0  0  0
    2.6970   -3.4620    2.2880 C   0  0  1  0  0  0  0  0  0  0  0  0
    2.0110   -4.5400    1.5380 C   0  0  0  0  0  0  0  0  0  0  0  0
    1.9280   -4.3630   -0.2300 S   0  0  0  0  0  0  0  0  0  0  0  0
    2.1560   -2.1130    2.1860 C   0  0  0  0  0  0  0  0  0  0  0  0
    1.8140   -1.5130    3.2410 O   0  0  0  0  0  0  0  0  0  0  0  0
    1.6410   -4.1760    3.8500 H   0  0  0  0  0  0  0  0  0  0  0  0
    2.7790   -3.0440    4.3210 H   0  0  0  0  0  0  0  0  0  0  0  0
    3.7870   -3.3960    2.0760 H   0  0  0  0  0  0  0  0  0  0  0  0
    0.9700   -4.7150    1.9180 H   0  0  0  0  0  0  0  0  0  0  0  0
    2.5500   -5.5000    1.7780 H   0  0  0  0  0  0  0  0  0  0  0  0
    0.6360   -4.5210   -0.7530 H   0  0  0  0  0  0  0  0  0  0  0  0
    1.9900   -1.4240    0.9560 N   0  0  0  0  0  0  0  0  0  0  0  0
    1.4520   -0.0620    0.9360 C   0  0  1  0  0  0  0  0  0  0  0  0
    2.4330    0.9030    0.3640 C   0  0  0  0  0  0  0  0  0  0  0  0
    1.9090    2.2910    0.3350 C   0  0  0  0  0  0  0  0  0  0  0  0
    1.2290    2.9390   -0.6690 C   0  0  0  0  0  0  0  0  0  0  0  0
    0.9490    4.1940   -0.2970 N   0  0  0  0  0  0  0  0  0  0  0  0
    1.4480    4.3460    0.9390 C   0  0  0  0  0  0  0  0  0  0  0  0
    2.0310    3.2060    1.3370 N   0  0  0  0  0  0  0  0  0  0  0  0
    0.1240   -0.0430    0.2930 C   0  0  0  0  0  0  0  0  0  0  0  0
   -0.5050    1.0430    0.2080 O   0  0  0  0  0  0  0  0  0  0  0  0
    2.2460   -1.8620    0.0300 H   0  0  0  0  0  0  0  0  0  0  0  0
    1.3010    0.2290    2.0030 H   0  0  0  0  0  0  0  0  0  0  0  0
    2.7740    0.6440   -0.6580 H   0  0  0  0  0  0  0  0  0  0  0  0
    3.3580    0.9090    0.9890 H   0  0  0  0  0  0  0  0  0  0  0  0
    0.9810    2.4530   -1.6140 H   0  0  0  0  0  0  0  0  0  0  0  0
    0.4340    4.9020   -0.8860 H   0  0  0  0  0  0  0  0  0  0  0  0
    1.3710    5.2700    1.5000 H   0  0  0  0  0  0  0  0  0  0  0  0
   -4.5840    1.1060    3.0500 C   0  0  0  0  0  0  0  0  0  0  0  0
   -4.2450    1.1610    1.2690 S   0  0  0  0  0  0  0  0  0  0  0  0
   -3.0900   -0.1830    0.8710 C   0  0  0  0  0  0  0  0  0  0  0  0
   -2.7500   -0.2120   -0.5960 C   0  0  0  0  0  0  0  0  0  0  0  0
   -1.7540   -1.3210   -0.8580 C   0  0  2  0  0  0  0  0  0  0  0  0
   -0.4890   -1.2010   -0.2400 N   0  0  0  0  0  0  0  0  0  0  0  0
   -1.6560   -1.6640   -2.2710 C   0  0  0  0  0  0  0  0  0  0  0  0
   -2.7060   -1.8100   -2.9780 O   0  0  0  0  0  0  0  0  0  0  0  0
   -0.4540   -1.8530   -2.9410 O   0  0  0  0  0  0  0  0  0  0  0  0
   -5.6250    1.4190    3.2840 H   0  0  0  0  0  0  0  0  0  0  0  0
   -4.4600    0.0930    3.4760 H   0  0  0  0  0  0  0  0  0  0  0  0
   -3.8950    1.7720    3.6160 H   0  0  0  0  0  0  0  0  0  0  0  0
   -3.7000   -1.1270    1.1330 H   0  0  0  0  0  0  0  0  0  0  0  0
   -2.2440   -0.2590    1.5560 H   0  0  0  0  0  0  0  0  0  0  0  0
   -2.4770    0.7560   -1.0040 H   0  0  0  0  0  0  0  0  0  0  0  0
   -3.6990   -0.5180   -1.1230 H   0  0  0  0  0  0  0  0  0  0  0  0
   -2.2490   -2.2460   -0.3420 H   0  0  0  0  0  0  0  0  0  0  0  0
    0.0820   -2.0710   -0.1550 H   0  0  0  0  0  0  0  0  0  0  0  0
  1  7  1  0  0  0  0
  1  8  1  0  0  0  0
  2  9  1  6  0  0  0
  2  1  1  0  0  0  0
  3 11  1  0  0  0  0
  3 10  1  0  0  0  0
  3  2  1  0  0  0  0
  4  3  1  0  0  0  0
  5  2  1  0  0  0  0
  5  6  2  0  0  0  0
 12  4  1  0  0  0  0
 13  5  1  0  0  0  0
 14 13  1  0  0  0  0
 14 24  1  1  0  0  0
 15 14  1  0  0  0  0
 15 26  1  0  0  0  0
 16 15  1  0  0  0  0
 16 20  1  0  0  0  0
 17 18  1  0  0  0  0
 17 16  2  0  0  0  0
 18 19  1  0  0  0  0
 19 20  2  0  0  0  0
 19 29  1  0  0  0  0
 21 14  1  0  0  0  0
 22 21  2  0  0  0  0
 23 13  1  0  0  0  0
 25 15  1  0  0  0  0
 27 17  1  0  0  0  0
 28 18  1  0  0  0  0
 30 39  1  0  0  0  0
 30 40  1  0  0  0  0
 30 41  1  0  0  0  0
 31 30  1  0  0  0  0
 32 42  1  0  0  0  0
 32 31  1  0  0  0  0
 32 43  1  0  0  0  0
 33 32  1  0  0  0  0
 34 33  1  0  0  0  0
 34 46  1  1  0  0  0
 34 35  1  0  0  0  0
 35 47  1  0  0  0  0
 35 21  1  0  0  0  0
 36 34  1  0  0  0  0
 37 36  2  0  0  0  0
 38 36  1  0  0  0  0
 44 33  1  0  0  0  0
 45 33  1  0  0  0  0
M  END
$$$$
