CHN.pdb
 OpenBabel07022418273D

 44 44  0  0  1  0  0  0  0  0999 V2000
    3.2630   -3.9320    4.0270 N   0  0  0  0  0  0  0  0  0  0  0  0
    3.2300   -3.5220    2.6170 C   0  0  1  0  0  0  0  0  0  0  0  0
    2.6910   -4.7000    1.7890 C   0  0  0  0  0  0  0  0  0  0  0  0
    2.6110   -4.3190    0.0470 S   0  0  0  0  0  0  0  0  0  0  0  0
    2.3230   -2.3690    2.4940 C   0  0  0  0  0  0  0  0  0  0  0  0
    1.6280   -2.0230    3.4950 O   0  0  0  0  0  0  0  0  0  0  0  0
    2.4330   -3.5610    4.5160 H   0  0  0  0  0  0  0  0  0  0  0  0
    3.3460   -4.9670    4.1220 H   0  0  0  0  0  0  0  0  0  0  0  0
    4.2370   -3.2590    2.2970 H   0  0  0  0  0  0  0  0  0  0  0  0
    1.6670   -4.9000    2.1590 H   0  0  0  0  0  0  0  0  0  0  0  0
    3.3500   -5.5690    1.9970 H   0  0  0  0  0  0  0  0  0  0  0  0
    1.3460   -4.6050   -0.4990 H   0  0  0  0  0  0  0  0  0  0  0  0
    2.1990   -1.6280    1.3000 N   0  0  0  0  0  0  0  0  0  0  0  0
    1.2600   -0.4790    1.2550 C   0  0  1  0  0  0  0  0  0  0  0  0
    2.1630    0.6950    0.9820 C   0  0  0  0  0  0  0  0  0  0  0  0
    1.5370    1.9990    0.8770 C   0  0  0  0  0  0  0  0  0  0  0  0
    1.1010    2.6110   -0.2730 C   0  0  0  0  0  0  0  0  0  0  0  0
    0.6160    3.8120    0.0680 N   0  0  0  0  0  0  0  0  0  0  0  0
    0.7470    3.9420    1.3950 C   0  0  0  0  0  0  0  0  0  0  0  0
    1.3040    2.8540    1.9090 N   0  0  0  0  0  0  0  0  0  0  0  0
    0.2910   -0.6500    0.1840 C   0  0  0  0  0  0  0  0  0  0  0  0
    0.4640   -1.6110   -0.6430 O   0  0  0  0  0  0  0  0  0  0  0  0
    2.7470   -1.8530    0.4470 H   0  0  0  0  0  0  0  0  0  0  0  0
    0.7660   -0.3640    2.2260 H   0  0  0  0  0  0  0  0  0  0  0  0
    2.7710    0.4830    0.0510 H   0  0  0  0  0  0  0  0  0  0  0  0
    2.9430    0.7140    1.7870 H   0  0  0  0  0  0  0  0  0  0  0  0
    1.1350    2.2080   -1.2950 H   0  0  0  0  0  0  0  0  0  0  0  0
    0.2070    4.5130   -0.6160 H   0  0  0  0  0  0  0  0  0  0  0  0
    0.4250    4.8380    1.9290 H   0  0  0  0  0  0  0  0  0  0  0  0
   -3.7250    0.0550    1.8240 N   0  0  0  0  0  0  0  0  0  0  0  0
   -3.6760    0.2610    0.4300 C   0  0  0  0  0  0  0  0  0  0  0  0
   -4.1990    1.3100   -0.0340 O   0  0  0  0  0  0  0  0  0  0  0  0
   -3.0370   -0.7020   -0.5040 C   0  0  0  0  0  0  0  0  0  0  0  0
   -1.7370   -0.0980   -1.0890 C   0  0  2  0  0  0  0  0  0  0  0  0
   -0.8410    0.1860    0.0090 N   0  0  0  0  0  0  0  0  0  0  0  0
   -2.1320    1.0400   -1.8960 C   0  0  0  0  0  0  0  0  0  0  0  0
   -1.7480    2.2030   -1.6520 O   0  0  0  0  0  0  0  0  0  0  0  0
   -2.9670    0.8810   -2.9900 O   0  0  0  0  0  0  0  0  0  0  0  0
   -4.1540   -0.8160    2.2120 H   0  0  0  0  0  0  0  0  0  0  0  0
   -3.3550    0.7250    2.5360 H   0  0  0  0  0  0  0  0  0  0  0  0
   -2.7850   -1.6540   -0.0280 H   0  0  0  0  0  0  0  0  0  0  0  0
   -3.6880   -0.9010   -1.3700 H   0  0  0  0  0  0  0  0  0  0  0  0
   -1.3250   -0.8970   -1.7470 H   0  0  0  0  0  0  0  0  0  0  0  0
   -1.0510    0.9910    0.6510 H   0  0  0  0  0  0  0  0  0  0  0  0
  1  8  1  0  0  0  0
  1  7  1  0  0  0  0
  2  9  1  6  0  0  0
  2  1  1  0  0  0  0
  3 11  1  0  0  0  0
  3 10  1  0  0  0  0
  3  2  1  0  0  0  0
  4  3  1  0  0  0  0
  5  2  1  0  0  0  0
  5  6  2  0  0  0  0
 12  4  1  0  0  0  0
 13  5  1  0  0  0  0
 14 13  1  0  0  0  0
 14 24  1  1  0  0  0
 15 14  1  0  0  0  0
 15 26  1  0  0  0  0
 16 15  1  0  0  0  0
 16 20  1  0  0  0  0
 17 18  1  0  0  0  0
 17 16  2  0  0  0  0
 18 19  1  0  0  0  0
 19 20  2  0  0  0  0
 19 29  1  0  0  0  0
 21 14  1  0  0  0  0
 22 21  2  0  0  0  0
 23 13  1  0  0  0  0
 25 15  1  0  0  0  0
 27 17  1  0  0  0  0
 28 18  1  0  0  0  0
 30 39  1  0  0  0  0
 30 40  1  0  0  0  0
 31 30  1  0  0  0  0
 32 31  2  0  0  0  0
 33 41  1  0  0  0  0
 33 31  1  0  0  0  0
 34 43  1  6  0  0  0
 34 33  1  0  0  0  0
 34 35  1  0  0  0  0
 35 21  1  0  0  0  0
 35 44  1  0  0  0  0
 36 37  1  0  0  0  0
 36 34  1  0  0  0  0
 38 36  2  0  0  0  0
 42 33  1  0  0  0  0
M  END
$$$$
