CHQ.pdb
 OpenBabel07022418273D

 47 47  0  0  1  0  0  0  0  0999 V2000
    3.2930   -3.6970    4.0840 N   0  0  0  0  0  0  0  0  0  0  0  0
    3.3380   -2.4430    3.3750 C   0  0  1  0  0  0  0  0  0  0  0  0
    4.0710   -2.6740    2.0480 C   0  0  0  0  0  0  0  0  0  0  0  0
    5.7510   -3.2630    2.3200 S   0  0  0  0  0  0  0  0  0  0  0  0
    1.9400   -2.0810    3.0210 C   0  0  0  0  0  0  0  0  0  0  0  0
    0.9450   -2.8000    3.3260 O   0  0  0  0  0  0  0  0  0  0  0  0
    3.9860   -4.3740    3.7200 H   0  0  0  0  0  0  0  0  0  0  0  0
    2.3320   -4.0700    4.1800 H   0  0  0  0  0  0  0  0  0  0  0  0
    3.8570   -1.6510    3.9310 H   0  0  0  0  0  0  0  0  0  0  0  0
    3.4940   -3.4430    1.4610 H   0  0  0  0  0  0  0  0  0  0  0  0
    4.0630   -1.7450    1.4320 H   0  0  0  0  0  0  0  0  0  0  0  0
    5.6810   -4.6530    2.5970 H   0  0  0  0  0  0  0  0  0  0  0  0
    1.6310   -0.8690    2.2980 N   0  0  0  0  0  0  0  0  0  0  0  0
    0.2900   -0.4870    1.9390 C   0  0  1  0  0  0  0  0  0  0  0  0
   -0.2290    0.7500    2.5380 C   0  0  0  0  0  0  0  0  0  0  0  0
    0.4510    2.0050    2.2660 C   0  0  0  0  0  0  0  0  0  0  0  0
    1.5170    2.3570    1.5160 C   0  0  0  0  0  0  0  0  0  0  0  0
    1.6970    3.6770    1.6230 N   0  0  0  0  0  0  0  0  0  0  0  0
    0.7610    4.1520    2.4250 C   0  0  0  0  0  0  0  0  0  0  0  0
   -0.0110    3.1630    2.8320 N   0  0  0  0  0  0  0  0  0  0  0  0
    0.1080   -0.5800    0.4710 C   0  0  0  0  0  0  0  0  0  0  0  0
    1.0820   -0.9550   -0.2220 O   0  0  0  0  0  0  0  0  0  0  0  0
    2.4630   -0.2990    2.0610 H   0  0  0  0  0  0  0  0  0  0  0  0
   -0.3690   -1.3210    2.3420 H   0  0  0  0  0  0  0  0  0  0  0  0
   -0.2720    0.6190    3.6420 H   0  0  0  0  0  0  0  0  0  0  0  0
   -1.3100    0.8380    2.2300 H   0  0  0  0  0  0  0  0  0  0  0  0
    2.1230    1.7210    0.9290 H   0  0  0  0  0  0  0  0  0  0  0  0
    2.4330    4.2830    1.1730 H   0  0  0  0  0  0  0  0  0  0  0  0
    0.5940    5.1950    2.7450 H   0  0  0  0  0  0  0  0  0  0  0  0
   -5.9240   -2.0120   -1.9540 N   0  0  0  0  0  0  0  0  0  0  0  0
   -4.5350   -2.0850   -2.2350 C   0  0  0  0  0  0  0  0  0  0  0  0
   -4.1100   -3.0190   -2.9550 O   0  0  0  0  0  0  0  0  0  0  0  0
   -3.5870   -1.0790   -1.6930 C   0  0  0  0  0  0  0  0  0  0  0  0
   -2.1710   -1.3790   -2.1360 C   0  0  0  0  0  0  0  0  0  0  0  0
   -1.1780   -0.3920   -1.6150 C   0  0  2  0  0  0  0  0  0  0  0  0
   -1.0740   -0.2820   -0.2150 N   0  0  0  0  0  0  0  0  0  0  0  0
   -1.3650    0.9420   -2.2240 C   0  0  0  0  0  0  0  0  0  0  0  0
   -1.4870    1.1450   -3.4570 O   0  0  0  0  0  0  0  0  0  0  0  0
   -1.4090    2.0410   -1.3840 O   0  0  0  0  0  0  0  0  0  0  0  0
   -6.4800   -1.1850   -2.2780 H   0  0  0  0  0  0  0  0  0  0  0  0
   -6.4490   -2.7470   -1.4290 H   0  0  0  0  0  0  0  0  0  0  0  0
   -3.9010   -0.0980   -2.1070 H   0  0  0  0  0  0  0  0  0  0  0  0
   -3.6690   -0.9750   -0.5850 H   0  0  0  0  0  0  0  0  0  0  0  0
   -1.8570   -2.3980   -1.9220 H   0  0  0  0  0  0  0  0  0  0  0  0
   -2.1690   -1.2780   -3.2450 H   0  0  0  0  0  0  0  0  0  0  0  0
   -0.1790   -0.7440   -2.0180 H   0  0  0  0  0  0  0  0  0  0  0  0
   -1.9100    0.0340    0.3260 H   0  0  0  0  0  0  0  0  0  0  0  0
  1  8  1  0  0  0  0
  2  9  1  1  0  0  0
  2  1  1  0  0  0  0
  3  4  1  0  0  0  0
  3  2  1  0  0  0  0
  4 12  1  0  0  0  0
  5  6  2  0  0  0  0
  5  2  1  0  0  0  0
  7  1  1  0  0  0  0
 10  3  1  0  0  0  0
 11  3  1  0  0  0  0
 13  5  1  0  0  0  0
 14 13  1  0  0  0  0
 14 24  1  1  0  0  0
 14 15  1  0  0  0  0
 15 25  1  0  0  0  0
 16 15  1  0  0  0  0
 16 20  1  0  0  0  0
 17 18  1  0  0  0  0
 17 16  2  0  0  0  0
 18 19  1  0  0  0  0
 19 29  1  0  0  0  0
 19 20  2  0  0  0  0
 21 14  1  0  0  0  0
 22 21  2  0  0  0  0
 23 13  1  0  0  0  0
 26 15  1  0  0  0  0
 27 17  1  0  0  0  0
 28 18  1  0  0  0  0
 30 41  1  0  0  0  0
 31 30  1  0  0  0  0
 31 33  1  0  0  0  0
 32 31  2  0  0  0  0
 33 43  1  0  0  0  0
 34 44  1  0  0  0  0
 34 33  1  0  0  0  0
 34 35  1  0  0  0  0
 35 46  1  6  0  0  0
 35 36  1  0  0  0  0
 36 47  1  0  0  0  0
 36 21  1  0  0  0  0
 37 35  1  0  0  0  0
 37 39  1  0  0  0  0
 38 37  2  0  0  0  0
 40 30  1  0  0  0  0
 42 33  1  0  0  0  0
 45 34  1  0  0  0  0
M  END
$$$$
