CHT.pdb
 OpenBabel07022418273D

 44 44  0  0  1  0  0  0  0  0999 V2000
    3.9570   -3.8790    1.1350 N   0  0  0  0  0  0  0  0  0  0  0  0
    3.1440   -3.1870    0.1280 C   0  0  1  0  0  0  0  0  0  0  0  0
    2.3150   -4.2730   -0.5240 C   0  0  0  0  0  0  0  0  0  0  0  0
    1.2190   -3.6880   -1.8110 S   0  0  0  0  0  0  0  0  0  0  0  0
    2.3550   -2.1590    0.8130 C   0  0  0  0  0  0  0  0  0  0  0  0
    2.4360   -2.0570    2.0660 O   0  0  0  0  0  0  0  0  0  0  0  0
    3.5600   -4.7980    1.3960 H   0  0  0  0  0  0  0  0  0  0  0  0
    4.0150   -3.3190    2.0170 H   0  0  0  0  0  0  0  0  0  0  0  0
    3.8100   -2.7550   -0.6480 H   0  0  0  0  0  0  0  0  0  0  0  0
    3.0270   -4.9950   -0.9640 H   0  0  0  0  0  0  0  0  0  0  0  0
    1.7680   -4.8390    0.2730 H   0  0  0  0  0  0  0  0  0  0  0  0
   -0.0270   -4.3610   -1.6570 H   0  0  0  0  0  0  0  0  0  0  0  0
    1.4860   -1.2510    0.1380 N   0  0  0  0  0  0  0  0  0  0  0  0
    0.7030   -0.2300    0.8020 C   0  0  1  0  0  0  0  0  0  0  0  0
    1.0360    1.0980    0.1640 C   0  0  0  0  0  0  0  0  0  0  0  0
    2.4940    1.4030    0.3140 C   0  0  0  0  0  0  0  0  0  0  0  0
    3.1300    2.5480   -0.1610 C   0  0  0  0  0  0  0  0  0  0  0  0
    4.4210    2.4410    0.1730 N   0  0  0  0  0  0  0  0  0  0  0  0
    4.6180    1.2940    0.8270 C   0  0  0  0  0  0  0  0  0  0  0  0
    3.4410    0.6700    0.9080 N   0  0  0  0  0  0  0  0  0  0  0  0
   -0.7500   -0.5580    0.6000 C   0  0  0  0  0  0  0  0  0  0  0  0
   -1.0440   -1.5820   -0.0590 O   0  0  0  0  0  0  0  0  0  0  0  0
    1.4220   -1.3360   -0.8960 H   0  0  0  0  0  0  0  0  0  0  0  0
    0.9270   -0.1820    1.8890 H   0  0  0  0  0  0  0  0  0  0  0  0
    0.8400    1.0360   -0.9310 H   0  0  0  0  0  0  0  0  0  0  0  0
    0.4770    1.9370    0.6030 H   0  0  0  0  0  0  0  0  0  0  0  0
    2.6550    3.3630   -0.6980 H   0  0  0  0  0  0  0  0  0  0  0  0
    5.2010    3.1170   -0.0210 H   0  0  0  0  0  0  0  0  0  0  0  0
    5.5340    0.8880    1.2400 H   0  0  0  0  0  0  0  0  0  0  0  0
   -3.5210    0.8380    3.2690 C   0  0  0  0  0  0  0  0  0  0  0  0
   -3.8050   -0.2860    2.3010 C   0  0  1  0  0  0  0  0  0  0  0  0
   -5.1560   -0.5660    2.2480 O   0  0  0  0  0  0  0  0  0  0  0  0
   -3.2000   -0.0470    0.9460 C   0  0  2  0  0  0  0  0  0  0  0  0
   -1.7890    0.2350    1.1180 N   0  0  0  0  0  0  0  0  0  0  0  0
   -3.8880    1.0450    0.2080 C   0  0  0  0  0  0  0  0  0  0  0  0
   -5.1190    0.9850   -0.0410 O   0  0  0  0  0  0  0  0  0  0  0  0
   -3.2230    2.1800   -0.2430 O   0  0  0  0  0  0  0  0  0  0  0  0
   -2.4340    0.8970    3.4900 H   0  0  0  0  0  0  0  0  0  0  0  0
   -3.9960    0.5310    4.2420 H   0  0  0  0  0  0  0  0  0  0  0  0
   -3.9790    1.7890    2.9940 H   0  0  0  0  0  0  0  0  0  0  0  0
   -3.3040   -1.1930    2.7200 H   0  0  0  0  0  0  0  0  0  0  0  0
   -5.3030   -1.3020    1.6040 H   0  0  0  0  0  0  0  0  0  0  0  0
   -3.3610   -0.9730    0.3500 H   0  0  0  0  0  0  0  0  0  0  0  0
   -1.5400    1.0870    1.6660 H   0  0  0  0  0  0  0  0  0  0  0  0
  1  7  1  0  0  0  0
  1  8  1  0  0  0  0
  2  9  1  6  0  0  0
  2  5  1  0  0  0  0
  2  1  1  0  0  0  0
  3  2  1  0  0  0  0
  3 11  1  0  0  0  0
  4 12  1  0  0  0  0
  4  3  1  0  0  0  0
  5  6  2  0  0  0  0
 10  3  1  0  0  0  0
 13 14  1  0  0  0  0
 13  5  1  0  0  0  0
 14 24  1  1  0  0  0
 15 16  1  0  0  0  0
 15 26  1  0  0  0  0
 15 14  1  0  0  0  0
 16 20  1  0  0  0  0
 17 18  1  0  0  0  0
 17 16  2  0  0  0  0
 18 19  1  0  0  0  0
 19 20  2  0  0  0  0
 19 29  1  0  0  0  0
 21 14  1  0  0  0  0
 21 34  1  0  0  0  0
 22 21  2  0  0  0  0
 23 13  1  0  0  0  0
 25 15  1  0  0  0  0
 27 17  1  0  0  0  0
 28 18  1  0  0  0  0
 30 38  1  0  0  0  0
 30 39  1  0  0  0  0
 31 41  1  1  0  0  0
 31 30  1  0  0  0  0
 32 31  1  0  0  0  0
 33 43  1  6  0  0  0
 33 34  1  0  0  0  0
 33 31  1  0  0  0  0
 34 44  1  0  0  0  0
 35 33  1  0  0  0  0
 36 35  1  0  0  0  0
 37 35  2  0  0  0  0
 40 30  1  0  0  0  0
 42 32  1  0  0  0  0
M  END
$$$$
