CHY.pdb
 OpenBabel07022418273D

 51 52  0  0  1  0  0  0  0  0999 V2000
    0.3040    4.0680    2.8620 N   0  0  0  0  0  0  0  0  0  0  0  0
    1.1650    3.0320    2.3230 C   0  0  1  0  0  0  0  0  0  0  0  0
    1.6160    2.1720    3.4820 C   0  0  0  0  0  0  0  0  0  0  0  0
    0.1970    1.4150    4.3220 S   0  0  0  0  0  0  0  0  0  0  0  0
    0.3730    2.2570    1.3360 C   0  0  0  0  0  0  0  0  0  0  0  0
   -0.8260    2.5440    1.0970 O   0  0  0  0  0  0  0  0  0  0  0  0
   -0.7130    3.8180    2.6990 H   0  0  0  0  0  0  0  0  0  0  0  0
    0.4750    4.9500    2.3460 H   0  0  0  0  0  0  0  0  0  0  0  0
    2.0180    3.4860    1.8050 H   0  0  0  0  0  0  0  0  0  0  0  0
    2.3550    1.4160    3.2000 H   0  0  0  0  0  0  0  0  0  0  0  0
    2.0860    2.8660    4.2220 H   0  0  0  0  0  0  0  0  0  0  0  0
   -0.9450    2.2220    4.2540 H   0  0  0  0  0  0  0  0  0  0  0  0
    0.9400    1.1650    0.6290 N   0  0  0  0  0  0  0  0  0  0  0  0
    0.2430    0.3720   -0.3340 C   0  0  1  0  0  0  0  0  0  0  0  0
    0.9150    0.4670   -1.7020 C   0  0  0  0  0  0  0  0  0  0  0  0
    2.3170   -0.0120   -1.6460 C   0  0  0  0  0  0  0  0  0  0  0  0
    3.4260    0.7620   -1.3750 C   0  0  0  0  0  0  0  0  0  0  0  0
    4.5370   -0.0170   -1.4090 N   0  0  0  0  0  0  0  0  0  0  0  0
    4.1370   -1.2690   -1.6980 C   0  0  0  0  0  0  0  0  0  0  0  0
    2.7880   -1.2540   -1.8400 N   0  0  0  0  0  0  0  0  0  0  0  0
    0.2730   -1.0900    0.0300 C   0  0  0  0  0  0  0  0  0  0  0  0
    0.8620   -1.4860    1.0760 O   0  0  0  0  0  0  0  0  0  0  0  0
    1.9350    0.9270    0.8280 H   0  0  0  0  0  0  0  0  0  0  0  0
   -0.8090    0.6870   -0.4890 H   0  0  0  0  0  0  0  0  0  0  0  0
    0.8500    1.5280   -2.0210 H   0  0  0  0  0  0  0  0  0  0  0  0
    0.2980   -0.1510   -2.3990 H   0  0  0  0  0  0  0  0  0  0  0  0
    3.4170    1.8050   -1.1710 H   0  0  0  0  0  0  0  0  0  0  0  0
    5.5300    0.2670   -1.2470 H   0  0  0  0  0  0  0  0  0  0  0  0
    4.7780   -2.1360   -1.8000 H   0  0  0  0  0  0  0  0  0  0  0  0
   -4.4020   -1.2960    3.8790 O   0  0  0  0  0  0  0  0  0  0  0  0
   -3.7750   -1.9130    2.8060 C   0  0  0  0  0  0  0  0  0  0  0  0
   -3.8270   -1.4220    1.5270 C   0  0  0  0  0  0  0  0  0  0  0  0
   -3.1830   -2.0850    0.5150 C   0  0  0  0  0  0  0  0  0  0  0  0
   -2.4760   -3.2590    0.7920 C   0  0  0  0  0  0  0  0  0  0  0  0
   -1.7850   -3.9710   -0.2890 C   0  0  0  0  0  0  0  0  0  0  0  0
   -0.3450   -3.4810   -0.4600 C   0  0  2  0  0  0  0  0  0  0  0  0
   -0.3520   -2.0650   -0.7770 N   0  0  0  0  0  0  0  0  0  0  0  0
    0.2880   -4.2730   -1.5460 C   0  0  0  0  0  0  0  0  0  0  0  0
    0.4080   -5.5200   -1.4960 O   0  0  0  0  0  0  0  0  0  0  0  0
   -2.4370   -3.7320    2.0780 C   0  0  0  0  0  0  0  0  0  0  0  0
   -3.0710   -3.0860    3.0960 C   0  0  0  0  0  0  0  0  0  0  0  0
    0.7720   -3.6200   -2.6680 O   0  0  0  0  0  0  0  0  0  0  0  0
   -4.5020   -0.2850    3.9520 H   0  0  0  0  0  0  0  0  0  0  0  0
   -4.3660   -0.5280    1.3180 H   0  0  0  0  0  0  0  0  0  0  0  0
   -3.2380   -1.6770   -0.4890 H   0  0  0  0  0  0  0  0  0  0  0  0
   -2.3590   -3.8150   -1.2200 H   0  0  0  0  0  0  0  0  0  0  0  0
   -1.7590   -5.0700   -0.1230 H   0  0  0  0  0  0  0  0  0  0  0  0
    0.2050   -3.6760    0.4810 H   0  0  0  0  0  0  0  0  0  0  0  0
   -0.8400   -1.7390   -1.6420 H   0  0  0  0  0  0  0  0  0  0  0  0
   -1.8900   -4.6550    2.3370 H   0  0  0  0  0  0  0  0  0  0  0  0
   -3.0390   -3.4660    4.1200 H   0  0  0  0  0  0  0  0  0  0  0  0
  2  9  1  6  0  0  0
  2  1  1  0  0  0  0
  2  3  1  0  0  0  0
  3 11  1  0  0  0  0
  3  4  1  0  0  0  0
  5  2  1  0  0  0  0
  6  5  2  0  0  0  0
  7  1  1  0  0  0  0
  8  1  1  0  0  0  0
 10  3  1  0  0  0  0
 12  4  1  0  0  0  0
 13 23  1  0  0  0  0
 13  5  1  0  0  0  0
 14 24  1  6  0  0  0
 14 21  1  0  0  0  0
 14 13  1  0  0  0  0
 15 16  1  0  0  0  0
 15 14  1  0  0  0  0
 16 17  2  0  0  0  0
 17 27  1  0  0  0  0
 18 17  1  0  0  0  0
 18 28  1  0  0  0  0
 19 18  1  0  0  0  0
 20 19  2  0  0  0  0
 20 16  1  0  0  0  0
 21 22  2  0  0  0  0
 25 15  1  0  0  0  0
 26 15  1  0  0  0  0
 29 19  1  0  0  0  0
 30 43  1  0  0  0  0
 31 41  1  0  0  0  0
 31 30  1  0  0  0  0
 32 31  2  0  0  0  0
 33 34  2  0  0  0  0
 33 32  1  0  0  0  0
 34 40  1  0  0  0  0
 35 47  1  0  0  0  0
 35 34  1  0  0  0  0
 36 35  1  0  0  0  0
 36 48  1  1  0  0  0
 37 36  1  0  0  0  0
 37 21  1  0  0  0  0
 38 39  1  0  0  0  0
 38 36  1  0  0  0  0
 40 50  1  0  0  0  0
 40 41  2  0  0  0  0
 41 51  1  0  0  0  0
 42 38  2  0  0  0  0
 44 32  1  0  0  0  0
 45 33  1  0  0  0  0
 46 35  1  0  0  0  0
 49 37  1  0  0  0  0
M  END
$$$$
