CIA.pdb
 OpenBabel07022418273D

 42 41  0  0  1  0  0  0  0  0999 V2000
    3.9290   -3.5820    2.5680 N   0  0  0  0  0  0  0  0  0  0  0  0
    2.6010   -3.3980    1.9730 C   0  0  1  0  0  0  0  0  0  0  0  0
    1.6100   -4.0360    2.9300 C   0  0  0  0  0  0  0  0  0  0  0  0
   -0.0910   -3.9370    2.4030 S   0  0  0  0  0  0  0  0  0  0  0  0
    2.3190   -1.9580    1.7780 C   0  0  0  0  0  0  0  0  0  0  0  0
    3.0830   -1.0550    2.2600 O   0  0  0  0  0  0  0  0  0  0  0  0
    4.0130   -3.0490    3.4460 H   0  0  0  0  0  0  0  0  0  0  0  0
    3.9960   -4.6230    2.7530 H   0  0  0  0  0  0  0  0  0  0  0  0
    2.5690   -3.9710    1.0300 H   0  0  0  0  0  0  0  0  0  0  0  0
    1.7150   -3.5180    3.9090 H   0  0  0  0  0  0  0  0  0  0  0  0
    1.8760   -5.0920    3.1100 H   0  0  0  0  0  0  0  0  0  0  0  0
   -0.8530   -3.0100    3.1340 H   0  0  0  0  0  0  0  0  0  0  0  0
    0.6670   -1.9570   -1.8550 C   0  0  0  0  0  0  0  0  0  0  0  0
    0.3590   -0.5350   -1.5970 C   0  0  0  0  0  0  0  0  0  0  0  0
    1.1680    0.1800   -0.5830 C   0  0  2  0  0  0  0  0  0  0  0  0
    2.6540    0.2060   -0.8730 C   0  0  0  0  0  0  0  0  0  0  0  0
    0.9050   -0.1780    0.8540 C   0  0  2  0  0  0  0  0  0  0  0  0
    1.1730   -1.5800    1.0360 N   0  0  0  0  0  0  0  0  0  0  0  0
   -0.4950    0.1840    1.1710 C   0  0  0  0  0  0  0  0  0  0  0  0
   -1.3630   -0.6440    1.5560 O   0  0  0  0  0  0  0  0  0  0  0  0
    0.7730   -2.1030   -2.9810 H   0  0  0  0  0  0  0  0  0  0  0  0
   -0.1240   -2.6880   -1.5900 H   0  0  0  0  0  0  0  0  0  0  0  0
    1.6200   -2.3410   -1.4480 H   0  0  0  0  0  0  0  0  0  0  0  0
   -0.7180   -0.4730   -1.2460 H   0  0  0  0  0  0  0  0  0  0  0  0
    0.3250    0.0480   -2.5650 H   0  0  0  0  0  0  0  0  0  0  0  0
    0.8740    1.2930   -0.6780 H   0  0  0  0  0  0  0  0  0  0  0  0
    3.1150   -0.7730   -0.7190 H   0  0  0  0  0  0  0  0  0  0  0  0
    3.1040    0.9020   -0.1120 H   0  0  0  0  0  0  0  0  0  0  0  0
    2.8500    0.6630   -1.8500 H   0  0  0  0  0  0  0  0  0  0  0  0
    1.6060    0.4430    1.4930 H   0  0  0  0  0  0  0  0  0  0  0  0
    0.5290   -2.2930    0.6330 H   0  0  0  0  0  0  0  0  0  0  0  0
   -2.2570    2.8960    2.5360 C   0  0  0  0  0  0  0  0  0  0  0  0
   -2.2290    1.9590    1.3240 C   0  0  2  0  0  0  0  0  0  0  0  0
   -0.8950    1.5330    1.0370 N   0  0  0  0  0  0  0  0  0  0  0  0
   -2.9380    2.5650    0.2130 C   0  0  0  0  0  0  0  0  0  0  0  0
   -2.3980    2.6940   -0.9030 O   0  0  0  0  0  0  0  0  0  0  0  0
   -4.2300    3.0130    0.3730 O   0  0  0  0  0  0  0  0  0  0  0  0
   -1.5360    2.6120    3.3010 H   0  0  0  0  0  0  0  0  0  0  0  0
   -3.2900    2.8430    2.9390 H   0  0  0  0  0  0  0  0  0  0  0  0
   -2.1260    3.9340    2.1620 H   0  0  0  0  0  0  0  0  0  0  0  0
   -2.8170    1.0570    1.6470 H   0  0  0  0  0  0  0  0  0  0  0  0
   -0.2240    2.2950    0.7170 H   0  0  0  0  0  0  0  0  0  0  0  0
  1  8  1  0  0  0  0
  1  7  1  0  0  0  0
  2  9  1  6  0  0  0
  2  1  1  0  0  0  0
  2  3  1  0  0  0  0
  3 11  1  0  0  0  0
  3 10  1  0  0  0  0
  4  3  1  0  0  0  0
  4 12  1  0  0  0  0
  5  2  1  0  0  0  0
  5  6  2  0  0  0  0
 13 14  1  0  0  0  0
 13 22  1  0  0  0  0
 13 23  1  0  0  0  0
 14 24  1  0  0  0  0
 14 15  1  0  0  0  0
 15 26  1  6  0  0  0
 15 17  1  0  0  0  0
 16 27  1  0  0  0  0
 16 15  1  0  0  0  0
 16 28  1  0  0  0  0
 17 18  1  0  0  0  0
 17 19  1  0  0  0  0
 17 30  1  1  0  0  0
 18  5  1  0  0  0  0
 19 20  2  0  0  0  0
 21 13  1  0  0  0  0
 25 14  1  0  0  0  0
 29 16  1  0  0  0  0
 31 18  1  0  0  0  0
 32 39  1  0  0  0  0
 32 38  1  0  0  0  0
 33 41  1  1  0  0  0
 33 32  1  0  0  0  0
 34 19  1  0  0  0  0
 34 33  1  0  0  0  0
 35 37  1  0  0  0  0
 35 33  1  0  0  0  0
 36 35  2  0  0  0  0
 40 32  1  0  0  0  0
 42 34  1  0  0  0  0
M  END
$$$$
