CIH.pdb
 OpenBabel07022418273D

 49 49  0  0  1  0  0  0  0  0999 V2000
    2.6390    0.8700    4.8960 N   0  0  0  0  0  0  0  0  0  0  0  0
    2.2810   -0.1300    3.8780 C   0  0  1  0  0  0  0  0  0  0  0  0
    0.8940   -0.6320    4.2650 C   0  0  0  0  0  0  0  0  0  0  0  0
    0.9230   -1.3760    5.9180 S   0  0  0  0  0  0  0  0  0  0  0  0
    2.2190    0.5800    2.5900 C   0  0  0  0  0  0  0  0  0  0  0  0
    2.4460    1.8180    2.4700 O   0  0  0  0  0  0  0  0  0  0  0  0
    1.7600    1.3730    5.1270 H   0  0  0  0  0  0  0  0  0  0  0  0
    2.9530    0.3760    5.7610 H   0  0  0  0  0  0  0  0  0  0  0  0
    3.0100   -0.9350    3.9310 H   0  0  0  0  0  0  0  0  0  0  0  0
    0.1600    0.1960    4.2860 H   0  0  0  0  0  0  0  0  0  0  0  0
    0.5300   -1.3700    3.5190 H   0  0  0  0  0  0  0  0  0  0  0  0
    1.1450   -2.7540    5.7520 H   0  0  0  0  0  0  0  0  0  0  0  0
    3.7990    0.1660   -3.1300 C   0  0  0  0  0  0  0  0  0  0  0  0
    2.6430    0.5380   -2.2140 C   0  0  0  0  0  0  0  0  0  0  0  0
    2.7550   -0.1140   -0.8750 C   0  0  2  0  0  0  0  0  0  0  0  0
    2.7550   -1.6150   -0.9400 C   0  0  0  0  0  0  0  0  0  0  0  0
    1.8090    0.4820    0.1040 C   0  0  2  0  0  0  0  0  0  0  0  0
    1.8950   -0.1250    1.4200 N   0  0  0  0  0  0  0  0  0  0  0  0
    0.4010    0.3680   -0.3490 C   0  0  0  0  0  0  0  0  0  0  0  0
   -0.0460    0.8110   -1.4370 O   0  0  0  0  0  0  0  0  0  0  0  0
    3.8400    0.8700   -3.9860 H   0  0  0  0  0  0  0  0  0  0  0  0
    3.7330   -0.8460   -3.5220 H   0  0  0  0  0  0  0  0  0  0  0  0
    4.7670    0.2550   -2.5870 H   0  0  0  0  0  0  0  0  0  0  0  0
    1.7080    0.2530   -2.7810 H   0  0  0  0  0  0  0  0  0  0  0  0
    2.6210    1.6420   -2.1680 H   0  0  0  0  0  0  0  0  0  0  0  0
    3.8150    0.1350   -0.5340 H   0  0  0  0  0  0  0  0  0  0  0  0
    1.7690   -2.0680   -0.9970 H   0  0  0  0  0  0  0  0  0  0  0  0
    3.2080   -1.9710    0.0310 H   0  0  0  0  0  0  0  0  0  0  0  0
    3.4570   -1.9150   -1.7330 H   0  0  0  0  0  0  0  0  0  0  0  0
    2.0630    1.5640    0.2080 H   0  0  0  0  0  0  0  0  0  0  0  0
    1.7030   -1.1490    1.4790 H   0  0  0  0  0  0  0  0  0  0  0  0
   -0.6020   -0.2880    0.4600 N   0  0  0  0  0  0  0  0  0  0  0  0
   -1.9830   -0.4040    0.0250 C   0  0  1  0  0  0  0  0  0  0  0  0
   -2.2980   -1.8700   -0.1100 C   0  0  0  0  0  0  0  0  0  0  0  0
   -3.6710   -2.1440   -0.5470 C   0  0  0  0  0  0  0  0  0  0  0  0
   -4.7900   -2.3300    0.2270 C   0  0  0  0  0  0  0  0  0  0  0  0
   -5.8370   -2.5550   -0.5790 N   0  0  0  0  0  0  0  0  0  0  0  0
   -5.4220   -2.5200   -1.8710 C   0  0  0  0  0  0  0  0  0  0  0  0
   -4.1020   -2.2690   -1.8360 N   0  0  0  0  0  0  0  0  0  0  0  0
   -2.9080    0.2920    0.9550 C   0  0  0  0  0  0  0  0  0  0  0  0
   -4.1470    0.3050    0.7480 O   0  0  0  0  0  0  0  0  0  0  0  0
   -2.4460    0.9540    2.0810 O   0  0  0  0  0  0  0  0  0  0  0  0
   -0.2650   -0.6660    1.3700 H   0  0  0  0  0  0  0  0  0  0  0  0
   -2.0780    0.0770   -0.9700 H   0  0  0  0  0  0  0  0  0  0  0  0
   -2.0910   -2.3370    0.8930 H   0  0  0  0  0  0  0  0  0  0  0  0
   -1.5370   -2.3030   -0.7900 H   0  0  0  0  0  0  0  0  0  0  0  0
   -4.8440   -2.3050    1.2980 H   0  0  0  0  0  0  0  0  0  0  0  0
   -6.8000   -2.7270   -0.2540 H   0  0  0  0  0  0  0  0  0  0  0  0
   -6.0600   -2.6700   -2.7300 H   0  0  0  0  0  0  0  0  0  0  0  0
  1  7  1  0  0  0  0
  1  8  1  0  0  0  0
  2  9  1  6  0  0  0
  2  3  1  0  0  0  0
  2  1  1  0  0  0  0
  3 10  1  0  0  0  0
  3  4  1  0  0  0  0
  5  2  1  0  0  0  0
  6  5  2  0  0  0  0
 11  3  1  0  0  0  0
 12  4  1  0  0  0  0
 13 23  1  0  0  0  0
 13 14  1  0  0  0  0
 14 25  1  0  0  0  0
 14 15  1  0  0  0  0
 15 26  1  1  0  0  0
 15 17  1  0  0  0  0
 16 15  1  0  0  0  0
 16 28  1  0  0  0  0
 17 30  1  1  0  0  0
 17 18  1  0  0  0  0
 18 31  1  0  0  0  0
 18  5  1  0  0  0  0
 19 17  1  0  0  0  0
 19 32  1  0  0  0  0
 20 19  2  0  0  0  0
 21 13  1  0  0  0  0
 22 13  1  0  0  0  0
 24 14  1  0  0  0  0
 27 16  1  0  0  0  0
 29 16  1  0  0  0  0
 32 43  1  0  0  0  0
 33 44  1  6  0  0  0
 33 32  1  0  0  0  0
 33 40  1  0  0  0  0
 34 33  1  0  0  0  0
 34 45  1  0  0  0  0
 35 34  1  0  0  0  0
 35 36  2  0  0  0  0
 36 47  1  0  0  0  0
 37 48  1  0  0  0  0
 37 36  1  0  0  0  0
 38 39  2  0  0  0  0
 38 37  1  0  0  0  0
 39 35  1  0  0  0  0
 40 42  1  0  0  0  0
 41 40  2  0  0  0  0
 46 34  1  0  0  0  0
 49 38  1  0  0  0  0
M  END
$$$$
