CIP.pdb
 OpenBabel07022418283D

 46 46  0  0  1  0  0  0  0  0999 V2000
    0.6760   -3.6810    0.8750 N   0  0  0  0  0  0  0  0  0  0  0  0
    1.0780   -3.2170    2.1740 C   0  0  1  0  0  0  0  0  0  0  0  0
    2.4060   -3.8350    2.5740 C   0  0  0  0  0  0  0  0  0  0  0  0
    3.7220   -3.4180    1.4180 S   0  0  0  0  0  0  0  0  0  0  0  0
    1.1790   -1.7530    2.1890 C   0  0  0  0  0  0  0  0  0  0  0  0
    1.5830   -1.1050    3.2120 O   0  0  0  0  0  0  0  0  0  0  0  0
   -0.2680   -3.3050    0.6650 H   0  0  0  0  0  0  0  0  0  0  0  0
    1.3280   -3.3210    0.1470 H   0  0  0  0  0  0  0  0  0  0  0  0
    0.3520   -3.5070    2.9630 H   0  0  0  0  0  0  0  0  0  0  0  0
    2.2830   -4.9340    2.6200 H   0  0  0  0  0  0  0  0  0  0  0  0
    2.6370   -3.4910    3.6080 H   0  0  0  0  0  0  0  0  0  0  0  0
    4.8220   -4.2500    1.6460 H   0  0  0  0  0  0  0  0  0  0  0  0
    1.9580   -0.7280   -1.7680 C   0  0  0  0  0  0  0  0  0  0  0  0
    1.7190    0.6880   -1.3790 C   0  0  0  0  0  0  0  0  0  0  0  0
    1.9250    1.0250    0.0520 C   0  0  2  0  0  0  0  0  0  0  0  0
    3.3500    0.7070    0.4440 C   0  0  0  0  0  0  0  0  0  0  0  0
    0.9160    0.4640    1.0200 C   0  0  2  0  0  0  0  0  0  0  0  0
    0.8270   -0.9490    1.0470 N   0  0  0  0  0  0  0  0  0  0  0  0
   -0.3570    1.2090    0.9850 C   0  0  0  0  0  0  0  0  0  0  0  0
   -0.1760    2.4810    0.8620 O   0  0  0  0  0  0  0  0  0  0  0  0
    2.4980   -1.3440   -1.0350 H   0  0  0  0  0  0  0  0  0  0  0  0
    1.0220   -1.2430   -2.0700 H   0  0  0  0  0  0  0  0  0  0  0  0
    2.5950   -0.7630   -2.6920 H   0  0  0  0  0  0  0  0  0  0  0  0
    2.4260    1.3350   -1.9800 H   0  0  0  0  0  0  0  0  0  0  0  0
    0.7150    0.9750   -1.7630 H   0  0  0  0  0  0  0  0  0  0  0  0
    1.8360    2.1560    0.1220 H   0  0  0  0  0  0  0  0  0  0  0  0
    3.9990    1.0990   -0.3650 H   0  0  0  0  0  0  0  0  0  0  0  0
    3.5190   -0.3670    0.6160 H   0  0  0  0  0  0  0  0  0  0  0  0
    3.6120    1.3130    1.3570 H   0  0  0  0  0  0  0  0  0  0  0  0
    1.3510    0.7530    2.0480 H   0  0  0  0  0  0  0  0  0  0  0  0
    0.4980   -1.4690    0.2230 H   0  0  0  0  0  0  0  0  0  0  0  0
   -1.6590    0.7220    1.0650 N   0  0  0  0  0  0  0  0  0  0  0  0
   -2.2290   -0.5830    1.2260 C   0  0  0  0  0  0  0  0  0  0  0  0
   -3.1500   -0.6120    0.0050 C   0  0  0  0  0  0  0  0  0  0  0  0
   -3.8010    0.7720    0.1820 C   0  0  0  0  0  0  0  0  0  0  0  0
   -2.8450    1.5950    0.9760 C   0  0  1  0  0  0  0  0  0  0  0  0
   -3.3150    1.8290    2.3530 C   0  0  0  0  0  0  0  0  0  0  0  0
   -2.6950    1.3790    3.3380 O   0  0  0  0  0  0  0  0  0  0  0  0
   -4.4660    2.5590    2.6410 O   0  0  0  0  0  0  0  0  0  0  0  0
   -1.5660   -1.4220    1.3170 H   0  0  0  0  0  0  0  0  0  0  0  0
   -2.9570   -0.5360    2.0950 H   0  0  0  0  0  0  0  0  0  0  0  0
   -2.5930   -0.6190   -0.9360 H   0  0  0  0  0  0  0  0  0  0  0  0
   -3.9070   -1.4150    0.0820 H   0  0  0  0  0  0  0  0  0  0  0  0
   -4.0020    1.2250   -0.7900 H   0  0  0  0  0  0  0  0  0  0  0  0
   -4.7350    0.6500    0.7780 H   0  0  0  0  0  0  0  0  0  0  0  0
   -2.5630    2.5460    0.4620 H   0  0  0  0  0  0  0  0  0  0  0  0
  1  2  1  0  0  0  0
  2  5  1  0  0  0  0
  2  3  1  0  0  0  0
  2  9  1  1  0  0  0
  3 10  1  0  0  0  0
  3 11  1  0  0  0  0
  4 12  1  0  0  0  0
  4  3  1  0  0  0  0
  5  6  2  0  0  0  0
  7  1  1  0  0  0  0
  8  1  1  0  0  0  0
 13 14  1  0  0  0  0
 13 21  1  0  0  0  0
 14 15  1  0  0  0  0
 15 26  1  1  0  0  0
 15 16  1  0  0  0  0
 15 17  1  0  0  0  0
 16 28  1  0  0  0  0
 16 29  1  0  0  0  0
 17 18  1  0  0  0  0
 17 30  1  1  0  0  0
 18  5  1  0  0  0  0
 19 17  1  0  0  0  0
 19 32  1  0  0  0  0
 20 19  2  0  0  0  0
 22 13  1  0  0  0  0
 23 13  1  0  0  0  0
 24 14  1  0  0  0  0
 25 14  1  0  0  0  0
 27 16  1  0  0  0  0
 31 18  1  0  0  0  0
 32 33  1  0  0  0  0
 33 40  1  0  0  0  0
 33 41  1  0  0  0  0
 34 43  1  0  0  0  0
 34 35  1  0  0  0  0
 34 33  1  0  0  0  0
 35 45  1  0  0  0  0
 35 36  1  0  0  0  0
 36 46  1  6  0  0  0
 36 32  1  0  0  0  0
 36 37  1  0  0  0  0
 37 39  2  0  0  0  0
 37 38  1  0  0  0  0
 42 34  1  0  0  0  0
 44 35  1  0  0  0  0
M  END
$$$$
