CKD.pdb
 OpenBabel07022418283D

 47 46  0  0  1  0  0  0  0  0999 V2000
    2.1060   -3.1580    0.0510 N   0  0  0  0  0  0  0  0  0  0  0  0
    2.7470   -3.1310    1.3480 C   0  0  1  0  0  0  0  0  0  0  0  0
    4.2100   -2.7590    1.0600 C   0  0  0  0  0  0  0  0  0  0  0  0
    5.2040   -2.6590    2.5500 S   0  0  0  0  0  0  0  0  0  0  0  0
    2.0890   -2.1180    2.1860 C   0  0  0  0  0  0  0  0  0  0  0  0
    2.3860   -1.9500    3.4100 O   0  0  0  0  0  0  0  0  0  0  0  0
    1.3780   -3.9410    0.0460 H   0  0  0  0  0  0  0  0  0  0  0  0
    2.7850   -3.4570   -0.7110 H   0  0  0  0  0  0  0  0  0  0  0  0
    2.7470   -4.1300    1.8280 H   0  0  0  0  0  0  0  0  0  0  0  0
    4.6360   -3.5170    0.3460 H   0  0  0  0  0  0  0  0  0  0  0  0
    4.2690   -1.7970    0.5250 H   0  0  0  0  0  0  0  0  0  0  0  0
    5.8420   -1.3960    2.6680 H   0  0  0  0  0  0  0  0  0  0  0  0
    1.0890   -1.2930    1.6220 N   0  0  0  0  0  0  0  0  0  0  0  0
    0.3900   -0.2740    2.3840 C   0  0  1  0  0  0  0  0  0  0  0  0
    0.9110    1.1100    2.0410 C   0  0  0  0  0  0  0  0  0  0  0  0
    0.7450    1.4380    0.5910 C   0  0  0  0  0  0  0  0  0  0  0  0
    1.3080    2.8200    0.3420 C   0  0  0  0  0  0  0  0  0  0  0  0
    1.1910    3.2070   -1.1200 C   0  0  0  0  0  0  0  0  0  0  0  0
    1.9260    2.2610   -1.9380 N   0  0  0  0  0  0  0  0  0  0  0  0
   -1.0590   -0.3980    2.2080 C   0  0  0  0  0  0  0  0  0  0  0  0
   -1.8450    0.3590    2.8730 O   0  0  0  0  0  0  0  0  0  0  0  0
    0.8270   -1.3960    0.6180 H   0  0  0  0  0  0  0  0  0  0  0  0
    0.7190   -0.4130    3.4520 H   0  0  0  0  0  0  0  0  0  0  0  0
    1.9820    1.1590    2.3160 H   0  0  0  0  0  0  0  0  0  0  0  0
    0.3790    1.8420    2.6480 H   0  0  0  0  0  0  0  0  0  0  0  0
   -0.3620    1.5000    0.3910 H   0  0  0  0  0  0  0  0  0  0  0  0
    1.1380    0.6660   -0.0860 H   0  0  0  0  0  0  0  0  0  0  0  0
    2.3460    2.9500    0.6510 H   0  0  0  0  0  0  0  0  0  0  0  0
    0.6980    3.5320    0.9620 H   0  0  0  0  0  0  0  0  0  0  0  0
    1.6570    4.2020   -1.2610 H   0  0  0  0  0  0  0  0  0  0  0  0
    0.1290    3.3050   -1.4160 H   0  0  0  0  0  0  0  0  0  0  0  0
    1.5390    2.3060   -2.9020 H   0  0  0  0  0  0  0  0  0  0  0  0
    2.9350    2.4630   -1.9380 H   0  0  0  0  0  0  0  0  0  0  0  0
   -1.6790   -1.3100    1.3390 N   0  0  0  0  0  0  0  0  0  0  0  0
   -3.1450   -1.4100    1.1860 C   0  0  1  0  0  0  0  0  0  0  0  0
   -3.5690   -0.5890   -0.0140 C   0  0  0  0  0  0  0  0  0  0  0  0
   -5.0210   -0.6130   -0.1760 C   0  0  0  0  0  0  0  0  0  0  0  0
   -5.8600   -1.1250    0.5820 O   0  0  0  0  0  0  0  0  0  0  0  0
   -3.5030   -2.8220    1.1220 C   0  0  0  0  0  0  0  0  0  0  0  0
   -2.5710   -3.7060    1.1440 O   0  0  0  0  0  0  0  0  0  0  0  0
   -5.5350    0.0190   -1.3280 O   0  0  0  0  0  0  0  0  0  0  0  0
   -4.7700   -3.3080    1.0380 O   0  0  0  0  0  0  0  0  0  0  0  0
   -1.1130   -1.9560    0.7730 H   0  0  0  0  0  0  0  0  0  0  0  0
   -3.5920   -0.9270    2.0590 H   0  0  0  0  0  0  0  0  0  0  0  0
   -3.2530    0.4630    0.1610 H   0  0  0  0  0  0  0  0  0  0  0  0
   -3.1290   -0.9960   -0.9560 H   0  0  0  0  0  0  0  0  0  0  0  0
   -6.4960   -0.1320   -1.6340 H   0  0  0  0  0  0  0  0  0  0  0  0
  1  2  1  0  0  0  0
  2  9  1  1  0  0  0
  2  5  1  0  0  0  0
  3  2  1  0  0  0  0
  3  4  1  0  0  0  0
  4 12  1  0  0  0  0
  5  6  2  0  0  0  0
  7  1  1  0  0  0  0
  8  1  1  0  0  0  0
 10  3  1  0  0  0  0
 11  3  1  0  0  0  0
 13  5  1  0  0  0  0
 13 14  1  0  0  0  0
 14 23  1  1  0  0  0
 15 24  1  0  0  0  0
 15 14  1  0  0  0  0
 15 25  1  0  0  0  0
 16 15  1  0  0  0  0
 17 16  1  0  0  0  0
 17 28  1  0  0  0  0
 17 29  1  0  0  0  0
 18 17  1  0  0  0  0
 19 18  1  0  0  0  0
 20 14  1  0  0  0  0
 20 21  2  0  0  0  0
 22 13  1  0  0  0  0
 26 16  1  0  0  0  0
 27 16  1  0  0  0  0
 30 18  1  0  0  0  0
 31 18  1  0  0  0  0
 32 19  1  0  0  0  0
 33 19  1  0  0  0  0
 34 20  1  0  0  0  0
 35 34  1  0  0  0  0
 35 44  1  1  0  0  0
 36 45  1  0  0  0  0
 36 35  1  0  0  0  0
 37 36  1  0  0  0  0
 37 38  2  0  0  0  0
 39 40  1  0  0  0  0
 39 35  1  0  0  0  0
 41 37  1  0  0  0  0
 42 39  2  0  0  0  0
 43 34  1  0  0  0  0
 46 36  1  0  0  0  0
 47 41  1  0  0  0  0
M  END
$$$$
