CKF.pdb
 OpenBabel07022418283D

 54 54  0  0  1  0  0  0  0  0999 V2000
    5.2590   -0.8320    2.4330 N   0  0  0  0  0  0  0  0  0  0  0  0
    4.3430   -1.2250    1.3490 C   0  0  1  0  0  0  0  0  0  0  0  0
    4.1490   -2.7210    1.3760 C   0  0  0  0  0  0  0  0  0  0  0  0
    3.0720   -3.3430    0.0760 S   0  0  0  0  0  0  0  0  0  0  0  0
    3.0430   -0.5560    1.5200 C   0  0  0  0  0  0  0  0  0  0  0  0
    2.8900    0.1450    2.5840 O   0  0  0  0  0  0  0  0  0  0  0  0
    5.2010    0.2100    2.4890 H   0  0  0  0  0  0  0  0  0  0  0  0
    6.2100   -1.0630    2.1020 H   0  0  0  0  0  0  0  0  0  0  0  0
    4.8580   -0.9680    0.4040 H   0  0  0  0  0  0  0  0  0  0  0  0
    5.1350   -3.2380    1.3100 H   0  0  0  0  0  0  0  0  0  0  0  0
    3.7290   -3.0560    2.3600 H   0  0  0  0  0  0  0  0  0  0  0  0
    2.1070   -4.2470    0.5560 H   0  0  0  0  0  0  0  0  0  0  0  0
    1.9390   -0.5810    0.6600 N   0  0  0  0  0  0  0  0  0  0  0  0
    0.6970    0.1460    0.9430 C   0  0  1  0  0  0  0  0  0  0  0  0
    0.5610    1.1600   -0.1560 C   0  0  0  0  0  0  0  0  0  0  0  0
   -0.6390    2.0390   -0.0690 C   0  0  0  0  0  0  0  0  0  0  0  0
   -0.6520    2.8630    1.2010 C   0  0  0  0  0  0  0  0  0  0  0  0
   -1.9280    3.7000    1.1570 C   0  0  0  0  0  0  0  0  0  0  0  0
   -2.0320    4.5280    2.3380 N   0  0  0  0  0  0  0  0  0  0  0  0
   -0.4670   -0.7140    1.1250 C   0  0  0  0  0  0  0  0  0  0  0  0
   -1.5730   -0.1160    1.3600 O   0  0  0  0  0  0  0  0  0  0  0  0
    1.9930   -1.1230   -0.2140 H   0  0  0  0  0  0  0  0  0  0  0  0
    0.8620    0.6870    1.9080 H   0  0  0  0  0  0  0  0  0  0  0  0
    1.4610    1.8390   -0.0630 H   0  0  0  0  0  0  0  0  0  0  0  0
    0.6550    0.7090   -1.1600 H   0  0  0  0  0  0  0  0  0  0  0  0
   -0.5290    2.7990   -0.9010 H   0  0  0  0  0  0  0  0  0  0  0  0
   -1.5980    1.5510   -0.2640 H   0  0  0  0  0  0  0  0  0  0  0  0
    0.1860    3.5990    1.2050 H   0  0  0  0  0  0  0  0  0  0  0  0
   -0.5500    2.2830    2.1210 H   0  0  0  0  0  0  0  0  0  0  0  0
   -1.9220    4.2680    0.2210 H   0  0  0  0  0  0  0  0  0  0  0  0
   -2.7880    2.9830    1.1820 H   0  0  0  0  0  0  0  0  0  0  0  0
   -1.5050    5.4180    2.2480 H   0  0  0  0  0  0  0  0  0  0  0  0
   -3.0530    4.8090    2.4290 H   0  0  0  0  0  0  0  0  0  0  0  0
   -0.5240   -2.1130    1.0750 N   0  0  0  0  0  0  0  0  0  0  0  0
   -1.7660   -2.8090    1.2780 C   0  0  1  0  0  0  0  0  0  0  0  0
   -2.1310   -3.5760    0.0050 C   0  0  0  0  0  0  0  0  0  0  0  0
   -2.2820   -2.6300   -1.1450 C   0  0  0  0  0  0  0  0  0  0  0  0
   -1.1530   -2.3580   -1.8990 C   0  0  0  0  0  0  0  0  0  0  0  0
   -1.3010   -1.4830   -2.9580 C   0  0  0  0  0  0  0  0  0  0  0  0
   -2.5250   -0.9110   -3.2460 C   0  0  0  0  0  0  0  0  0  0  0  0
   -3.6280   -1.2090   -2.4680 C   0  0  0  0  0  0  0  0  0  0  0  0
   -3.5090   -2.0740   -1.4100 C   0  0  0  0  0  0  0  0  0  0  0  0
   -1.7010   -3.7780    2.3820 C   0  0  0  0  0  0  0  0  0  0  0  0
   -2.7370   -4.4420    2.6440 O   0  0  0  0  0  0  0  0  0  0  0  0
   -0.5760   -4.0130    3.1580 O   0  0  0  0  0  0  0  0  0  0  0  0
    0.3340   -2.6410    0.8910 H   0  0  0  0  0  0  0  0  0  0  0  0
   -2.6160   -2.1220    1.4690 H   0  0  0  0  0  0  0  0  0  0  0  0
   -3.0690   -4.1480    0.1460 H   0  0  0  0  0  0  0  0  0  0  0  0
   -1.3260   -4.3080   -0.2210 H   0  0  0  0  0  0  0  0  0  0  0  0
   -0.1940   -2.8100   -1.6690 H   0  0  0  0  0  0  0  0  0  0  0  0
   -0.4410   -1.2510   -3.5650 H   0  0  0  0  0  0  0  0  0  0  0  0
   -2.6270   -0.2170   -4.0920 H   0  0  0  0  0  0  0  0  0  0  0  0
   -4.5650   -0.7320   -2.7370 H   0  0  0  0  0  0  0  0  0  0  0  0
   -4.3960   -2.2840   -0.8230 H   0  0  0  0  0  0  0  0  0  0  0  0
  1  7  1  0  0  0  0
  2  9  1  6  0  0  0
  2  3  1  0  0  0  0
  2  5  1  0  0  0  0
  2  1  1  0  0  0  0
  3 11  1  0  0  0  0
  4 12  1  0  0  0  0
  4  3  1  0  0  0  0
  5  6  2  0  0  0  0
  8  1  1  0  0  0  0
 10  3  1  0  0  0  0
 13 14  1  0  0  0  0
 13  5  1  0  0  0  0
 14 20  1  0  0  0  0
 14 23  1  1  0  0  0
 15 16  1  0  0  0  0
 15 24  1  0  0  0  0
 15 14  1  0  0  0  0
 16 17  1  0  0  0  0
 17 28  1  0  0  0  0
 17 29  1  0  0  0  0
 18 31  1  0  0  0  0
 18 17  1  0  0  0  0
 18 19  1  0  0  0  0
 19 33  1  0  0  0  0
 20 21  2  0  0  0  0
 22 13  1  0  0  0  0
 25 15  1  0  0  0  0
 26 16  1  0  0  0  0
 27 16  1  0  0  0  0
 30 18  1  0  0  0  0
 32 19  1  0  0  0  0
 34 20  1  0  0  0  0
 34 35  1  0  0  0  0
 35 47  1  1  0  0  0
 35 43  1  0  0  0  0
 36 48  1  0  0  0  0
 36 35  1  0  0  0  0
 37 36  1  0  0  0  0
 38 50  1  0  0  0  0
 38 37  2  0  0  0  0
 39 38  1  0  0  0  0
 40 39  2  0  0  0  0
 40 41  1  0  0  0  0
 41 42  2  0  0  0  0
 42 37  1  0  0  0  0
 42 54  1  0  0  0  0
 43 44  2  0  0  0  0
 43 45  1  0  0  0  0
 46 34  1  0  0  0  0
 49 36  1  0  0  0  0
 51 39  1  0  0  0  0
 52 40  1  0  0  0  0
 53 41  1  0  0  0  0
M  END
$$$$
