CKH.pdb
 OpenBabel07022418283D

 51 51  0  0  1  0  0  0  0  0999 V2000
    2.2350   -5.4060    0.8370 N   0  0  0  0  0  0  0  0  0  0  0  0
    1.4340   -4.2910    0.2800 C   0  0  1  0  0  0  0  0  0  0  0  0
    0.0820   -4.8580   -0.0230 C   0  0  0  0  0  0  0  0  0  0  0  0
   -1.0210   -3.6140   -0.7280 S   0  0  0  0  0  0  0  0  0  0  0  0
    1.4870   -3.2070    1.2420 C   0  0  0  0  0  0  0  0  0  0  0  0
    2.0670   -3.3850    2.3570 O   0  0  0  0  0  0  0  0  0  0  0  0
    1.9650   -6.2680    0.3010 H   0  0  0  0  0  0  0  0  0  0  0  0
    1.8670   -5.5570    1.8050 H   0  0  0  0  0  0  0  0  0  0  0  0
    1.9090   -4.0100   -0.6880 H   0  0  0  0  0  0  0  0  0  0  0  0
   -0.3740   -5.3880    0.8360 H   0  0  0  0  0  0  0  0  0  0  0  0
    0.2270   -5.6390   -0.8110 H   0  0  0  0  0  0  0  0  0  0  0  0
   -2.3060   -3.6510   -0.1560 H   0  0  0  0  0  0  0  0  0  0  0  0
    0.9340   -1.8880    1.0720 N   0  0  0  0  0  0  0  0  0  0  0  0
    1.0420   -0.8850    2.0830 C   0  0  1  0  0  0  0  0  0  0  0  0
    2.1430    0.1000    1.9430 C   0  0  0  0  0  0  0  0  0  0  0  0
    2.2330    0.9810    0.7790 C   0  0  0  0  0  0  0  0  0  0  0  0
    2.4130    0.3760   -0.5650 C   0  0  0  0  0  0  0  0  0  0  0  0
    2.5060    1.5780   -1.5460 C   0  0  0  0  0  0  0  0  0  0  0  0
    2.6840    1.0960   -2.9000 N   0  0  0  0  0  0  0  0  0  0  0  0
   -0.2550   -0.2510    2.4560 C   0  0  0  0  0  0  0  0  0  0  0  0
   -0.2280    0.6400    3.3410 O   0  0  0  0  0  0  0  0  0  0  0  0
    0.4420   -1.7760    0.1620 H   0  0  0  0  0  0  0  0  0  0  0  0
    1.3230   -1.4390    3.0660 H   0  0  0  0  0  0  0  0  0  0  0  0
    3.1600   -0.4240    2.0390 H   0  0  0  0  0  0  0  0  0  0  0  0
    2.1900    0.7840    2.8620 H   0  0  0  0  0  0  0  0  0  0  0  0
    3.1490    1.6490    0.9340 H   0  0  0  0  0  0  0  0  0  0  0  0
    1.4030    1.7430    0.7680 H   0  0  0  0  0  0  0  0  0  0  0  0
    3.3700   -0.1810   -0.6590 H   0  0  0  0  0  0  0  0  0  0  0  0
    1.6230   -0.2590   -0.9410 H   0  0  0  0  0  0  0  0  0  0  0  0
    1.6070    2.1940   -1.4780 H   0  0  0  0  0  0  0  0  0  0  0  0
    3.4080    2.1410   -1.1870 H   0  0  0  0  0  0  0  0  0  0  0  0
    2.4830    1.8990   -3.5310 H   0  0  0  0  0  0  0  0  0  0  0  0
    1.9830    0.3410   -3.0730 H   0  0  0  0  0  0  0  0  0  0  0  0
   -1.4990   -0.5970    1.8730 N   0  0  0  0  0  0  0  0  0  0  0  0
   -2.7520    0.0430    2.2620 C   0  0  1  0  0  0  0  0  0  0  0  0
   -3.4910    0.5850    1.0560 C   0  0  0  0  0  0  0  0  0  0  0  0
   -2.7210    1.5900    0.3120 C   0  0  0  0  0  0  0  0  0  0  0  0
   -1.8520    1.3940   -0.7300 C   0  0  0  0  0  0  0  0  0  0  0  0
   -1.3720    2.5930   -1.1080 N   0  0  0  0  0  0  0  0  0  0  0  0
   -1.9310    3.5370   -0.3160 C   0  0  0  0  0  0  0  0  0  0  0  0
   -2.7550    2.9090    0.5500 N   0  0  0  0  0  0  0  0  0  0  0  0
   -3.6280   -1.0420    2.8250 C   0  0  0  0  0  0  0  0  0  0  0  0
   -4.7900   -0.7840    3.2480 O   0  0  0  0  0  0  0  0  0  0  0  0
   -3.2120   -2.3590    2.9060 O   0  0  0  0  0  0  0  0  0  0  0  0
   -1.4780   -1.3400    1.1430 H   0  0  0  0  0  0  0  0  0  0  0  0
   -2.5730    0.7940    3.0270 H   0  0  0  0  0  0  0  0  0  0  0  0
   -3.7700   -0.2420    0.3710 H   0  0  0  0  0  0  0  0  0  0  0  0
   -4.4500    0.9990    1.4460 H   0  0  0  0  0  0  0  0  0  0  0  0
   -1.5690    0.4620   -1.1990 H   0  0  0  0  0  0  0  0  0  0  0  0
   -0.6880    2.7630   -1.8800 H   0  0  0  0  0  0  0  0  0  0  0  0
   -1.7560    4.6040   -0.3590 H   0  0  0  0  0  0  0  0  0  0  0  0
  1  8  1  0  0  0  0
  2  9  1  6  0  0  0
  2  1  1  0  0  0  0
  2  5  1  0  0  0  0
  3  2  1  0  0  0  0
  3 10  1  0  0  0  0
  4 12  1  0  0  0  0
  4  3  1  0  0  0  0
  5  6  2  0  0  0  0
  7  1  1  0  0  0  0
 11  3  1  0  0  0  0
 13  5  1  0  0  0  0
 13 14  1  0  0  0  0
 14 20  1  0  0  0  0
 14 23  1  1  0  0  0
 15 24  1  0  0  0  0
 15 14  1  0  0  0  0
 15 25  1  0  0  0  0
 16 26  1  0  0  0  0
 16 15  1  0  0  0  0
 17 16  1  0  0  0  0
 18 30  1  0  0  0  0
 18 31  1  0  0  0  0
 18 17  1  0  0  0  0
 19 18  1  0  0  0  0
 20 21  2  0  0  0  0
 22 13  1  0  0  0  0
 27 16  1  0  0  0  0
 28 17  1  0  0  0  0
 29 17  1  0  0  0  0
 32 19  1  0  0  0  0
 33 19  1  0  0  0  0
 34 35  1  0  0  0  0
 34 20  1  0  0  0  0
 35 42  1  0  0  0  0
 35 46  1  1  0  0  0
 36 48  1  0  0  0  0
 36 35  1  0  0  0  0
 37 41  1  0  0  0  0
 37 36  1  0  0  0  0
 38 37  2  0  0  0  0
 39 38  1  0  0  0  0
 39 40  1  0  0  0  0
 40 41  2  0  0  0  0
 42 44  2  0  0  0  0
 42 43  1  0  0  0  0
 45 34  1  0  0  0  0
 47 36  1  0  0  0  0
 49 38  1  0  0  0  0
 50 39  1  0  0  0  0
 51 40  1  0  0  0  0
M  END
$$$$
