CKK.pdb
 OpenBabel07022418283D

 55 54  0  0  1  0  0  0  0  0999 V2000
    2.1920    0.3380    5.7250 N   0  0  0  0  0  0  0  0  0  0  0  0
    2.1980   -0.7880    4.7820 C   0  0  1  0  0  0  0  0  0  0  0  0
    1.2990   -1.8530    5.4280 C   0  0  0  0  0  0  0  0  0  0  0  0
    1.1790   -3.3380    4.4120 S   0  0  0  0  0  0  0  0  0  0  0  0
    1.6190   -0.3270    3.5000 C   0  0  0  0  0  0  0  0  0  0  0  0
    1.1850    0.8510    3.4510 O   0  0  0  0  0  0  0  0  0  0  0  0
    1.2010    0.4490    6.0300 H   0  0  0  0  0  0  0  0  0  0  0  0
    2.8120    0.0540    6.5120 H   0  0  0  0  0  0  0  0  0  0  0  0
    3.2290   -1.1590    4.6920 H   0  0  0  0  0  0  0  0  0  0  0  0
    0.2650   -1.4060    5.4710 H   0  0  0  0  0  0  0  0  0  0  0  0
    1.5870   -2.0500    6.4580 H   0  0  0  0  0  0  0  0  0  0  0  0
   -0.0120   -4.0230    4.7890 H   0  0  0  0  0  0  0  0  0  0  0  0
    1.5210   -1.1030    2.3420 N   0  0  0  0  0  0  0  0  0  0  0  0
    0.9360   -0.6210    1.0660 C   0  0  1  0  0  0  0  0  0  0  0  0
    2.0910   -0.6710    0.1090 C   0  0  0  0  0  0  0  0  0  0  0  0
    1.8240   -0.2490   -1.2900 C   0  0  0  0  0  0  0  0  0  0  0  0
    3.1570   -0.3570   -2.0430 C   0  0  0  0  0  0  0  0  0  0  0  0
    2.9770    0.0570   -3.4890 C   0  0  0  0  0  0  0  0  0  0  0  0
    4.2490   -0.0630   -4.1420 N   0  0  0  0  0  0  0  0  0  0  0  0
   -0.1930   -1.5000    0.6990 C   0  0  0  0  0  0  0  0  0  0  0  0
   -0.3920   -2.5620    1.3310 O   0  0  0  0  0  0  0  0  0  0  0  0
    1.8660   -2.0750    2.3330 H   0  0  0  0  0  0  0  0  0  0  0  0
    0.6180    0.4190    1.2600 H   0  0  0  0  0  0  0  0  0  0  0  0
    2.9050    0.0140    0.4940 H   0  0  0  0  0  0  0  0  0  0  0  0
    2.5820   -1.6860    0.1630 H   0  0  0  0  0  0  0  0  0  0  0  0
    1.0590   -0.8740   -1.8020 H   0  0  0  0  0  0  0  0  0  0  0  0
    1.5050    0.8020   -1.3770 H   0  0  0  0  0  0  0  0  0  0  0  0
    3.5500   -1.3930   -2.0060 H   0  0  0  0  0  0  0  0  0  0  0  0
    3.8750    0.3310   -1.5580 H   0  0  0  0  0  0  0  0  0  0  0  0
    2.6370    1.1290   -3.4900 H   0  0  0  0  0  0  0  0  0  0  0  0
    2.1810   -0.5450   -3.9720 H   0  0  0  0  0  0  0  0  0  0  0  0
    4.0730   -0.2100   -5.1700 H   0  0  0  0  0  0  0  0  0  0  0  0
    4.8150   -0.8500   -3.8030 H   0  0  0  0  0  0  0  0  0  0  0  0
   -1.1240   -1.2260   -0.3640 N   0  0  0  0  0  0  0  0  0  0  0  0
   -2.1590   -2.1660   -0.6080 C   0  0  1  0  0  0  0  0  0  0  0  0
   -3.5550   -1.8100   -0.3000 C   0  0  0  0  0  0  0  0  0  0  0  0
   -4.2240   -0.6840   -0.9650 C   0  0  0  0  0  0  0  0  0  0  0  0
   -3.6530    0.6830   -0.7750 C   0  0  0  0  0  0  0  0  0  0  0  0
   -3.5840    1.0800    0.6980 C   0  0  0  0  0  0  0  0  0  0  0  0
   -3.0180    2.4170    0.7740 N   0  0  0  0  0  0  0  0  0  0  0  0
   -2.0670   -2.5480   -2.0660 C   0  0  0  0  0  0  0  0  0  0  0  0
   -1.1950   -2.0640   -2.8330 O   0  0  0  0  0  0  0  0  0  0  0  0
   -2.9490   -3.4610   -2.6320 O   0  0  0  0  0  0  0  0  0  0  0  0
   -0.9950   -0.3530   -0.9100 H   0  0  0  0  0  0  0  0  0  0  0  0
   -1.9730   -3.1440   -0.0670 H   0  0  0  0  0  0  0  0  0  0  0  0
   -3.6670   -1.7510    0.8320 H   0  0  0  0  0  0  0  0  0  0  0  0
   -4.1840   -2.7370   -0.5550 H   0  0  0  0  0  0  0  0  0  0  0  0
   -4.3450   -0.8350   -2.0750 H   0  0  0  0  0  0  0  0  0  0  0  0
   -5.3060   -0.6170   -0.6010 H   0  0  0  0  0  0  0  0  0  0  0  0
   -4.4840    1.3840   -1.1900 H   0  0  0  0  0  0  0  0  0  0  0  0
   -2.7550    0.9110   -1.3370 H   0  0  0  0  0  0  0  0  0  0  0  0
   -2.8910    0.3950    1.2060 H   0  0  0  0  0  0  0  0  0  0  0  0
   -4.5870    1.1370    1.1420 H   0  0  0  0  0  0  0  0  0  0  0  0
   -3.0430    2.8620   -0.1590 H   0  0  0  0  0  0  0  0  0  0  0  0
   -3.5290    3.0250    1.4250 H   0  0  0  0  0  0  0  0  0  0  0  0
  1  7  1  0  0  0  0
  1  8  1  0  0  0  0
  2  9  1  6  0  0  0
  2  3  1  0  0  0  0
  2  1  1  0  0  0  0
  3 10  1  0  0  0  0
  3 11  1  0  0  0  0
  4 12  1  0  0  0  0
  4  3  1  0  0  0  0
  5  2  1  0  0  0  0
  6  5  2  0  0  0  0
 13  5  1  0  0  0  0
 14 23  1  1  0  0  0
 14 13  1  0  0  0  0
 15 25  1  0  0  0  0
 15 24  1  0  0  0  0
 15 14  1  0  0  0  0
 16 15  1  0  0  0  0
 17 28  1  0  0  0  0
 17 29  1  0  0  0  0
 17 16  1  0  0  0  0
 18 17  1  0  0  0  0
 19 33  1  0  0  0  0
 19 18  1  0  0  0  0
 20 14  1  0  0  0  0
 20 21  2  0  0  0  0
 22 13  1  0  0  0  0
 26 16  1  0  0  0  0
 27 16  1  0  0  0  0
 30 18  1  0  0  0  0
 31 18  1  0  0  0  0
 32 19  1  0  0  0  0
 34 20  1  0  0  0  0
 35 34  1  0  0  0  0
 35 36  1  0  0  0  0
 35 45  1  1  0  0  0
 36 46  1  0  0  0  0
 37 38  1  0  0  0  0
 37 49  1  0  0  0  0
 37 36  1  0  0  0  0
 38 39  1  0  0  0  0
 39 40  1  0  0  0  0
 39 53  1  0  0  0  0
 39 52  1  0  0  0  0
 40 55  1  0  0  0  0
 41 35  1  0  0  0  0
 42 41  2  0  0  0  0
 43 41  1  0  0  0  0
 44 34  1  0  0  0  0
 47 36  1  0  0  0  0
 48 37  1  0  0  0  0
 50 38  1  0  0  0  0
 51 38  1  0  0  0  0
 54 40  1  0  0  0  0
M  END
$$$$
