CKN.pdb
 OpenBabel07022418283D

 48 47  0  0  1  0  0  0  0  0999 V2000
    1.9720   -3.8900    3.0350 N   0  0  0  0  0  0  0  0  0  0  0  0
    1.6360   -3.3700    1.6930 C   0  0  1  0  0  0  0  0  0  0  0  0
    0.5840   -4.2290    1.0940 C   0  0  0  0  0  0  0  0  0  0  0  0
    0.0550   -3.7960   -0.5560 S   0  0  0  0  0  0  0  0  0  0  0  0
    1.2750   -1.9490    1.8350 C   0  0  0  0  0  0  0  0  0  0  0  0
    1.3600   -1.4130    3.0030 O   0  0  0  0  0  0  0  0  0  0  0  0
    1.2230   -4.5140    3.3750 H   0  0  0  0  0  0  0  0  0  0  0  0
    2.0650   -3.0990    3.7100 H   0  0  0  0  0  0  0  0  0  0  0  0
    2.5880   -3.4390    1.1210 H   0  0  0  0  0  0  0  0  0  0  0  0
   -0.3020   -4.2630    1.7920 H   0  0  0  0  0  0  0  0  0  0  0  0
    0.9610   -5.2900    1.0500 H   0  0  0  0  0  0  0  0  0  0  0  0
   -1.3120   -4.1210   -0.7510 H   0  0  0  0  0  0  0  0  0  0  0  0
    0.8390   -1.0800    0.8260 N   0  0  0  0  0  0  0  0  0  0  0  0
    0.5200    0.3160    1.0470 C   0  0  1  0  0  0  0  0  0  0  0  0
    1.2420    1.1180   -0.0150 C   0  0  0  0  0  0  0  0  0  0  0  0
    2.7270    0.8900    0.1120 C   0  0  0  0  0  0  0  0  0  0  0  0
    3.2860    1.3070    1.4320 C   0  0  0  0  0  0  0  0  0  0  0  0
    3.0310    2.7900    1.6260 C   0  0  0  0  0  0  0  0  0  0  0  0
    3.6630    3.5580    0.5770 N   0  0  0  0  0  0  0  0  0  0  0  0
   -0.9430    0.4950    0.9650 C   0  0  0  0  0  0  0  0  0  0  0  0
   -1.4770    1.6420    1.0770 O   0  0  0  0  0  0  0  0  0  0  0  0
    0.7370   -1.4370   -0.1450 H   0  0  0  0  0  0  0  0  0  0  0  0
    0.8520    0.5960    2.0800 H   0  0  0  0  0  0  0  0  0  0  0  0
    0.9760    2.2000    0.0450 H   0  0  0  0  0  0  0  0  0  0  0  0
    0.8660    0.7600   -1.0060 H   0  0  0  0  0  0  0  0  0  0  0  0
    3.2000    1.4390   -0.7390 H   0  0  0  0  0  0  0  0  0  0  0  0
    2.9120   -0.1920   -0.0870 H   0  0  0  0  0  0  0  0  0  0  0  0
    4.3990    1.1270    1.3730 H   0  0  0  0  0  0  0  0  0  0  0  0
    2.8890    0.7210    2.2590 H   0  0  0  0  0  0  0  0  0  0  0  0
    1.9600    3.0090    1.6290 H   0  0  0  0  0  0  0  0  0  0  0  0
    3.4250    3.1020    2.6260 H   0  0  0  0  0  0  0  0  0  0  0  0
    3.8990    4.5220    0.8450 H   0  0  0  0  0  0  0  0  0  0  0  0
    4.4470    3.0160    0.1630 H   0  0  0  0  0  0  0  0  0  0  0  0
   -3.3300   -1.0030   -3.1180 N   0  0  0  0  0  0  0  0  0  0  0  0
   -3.0680   -0.5410   -1.8060 C   0  0  0  0  0  0  0  0  0  0  0  0
   -2.2940    0.4530   -1.6570 O   0  0  0  0  0  0  0  0  0  0  0  0
   -3.6520   -1.1610   -0.6120 C   0  0  0  0  0  0  0  0  0  0  0  0
   -3.2340   -0.5060    0.6670 C   0  0  2  0  0  0  0  0  0  0  0  0
   -1.7790   -0.6040    0.7610 N   0  0  0  0  0  0  0  0  0  0  0  0
   -3.7850   -1.2450    1.8300 C   0  0  0  0  0  0  0  0  0  0  0  0
   -3.0380   -1.8050    2.6680 O   0  0  0  0  0  0  0  0  0  0  0  0
   -5.1650   -1.3400    2.0310 O   0  0  0  0  0  0  0  0  0  0  0  0
   -4.2950   -1.2910   -3.3730 H   0  0  0  0  0  0  0  0  0  0  0  0
   -2.5930   -1.0660   -3.8400 H   0  0  0  0  0  0  0  0  0  0  0  0
   -4.7790   -1.1170   -0.6420 H   0  0  0  0  0  0  0  0  0  0  0  0
   -3.3910   -2.2240   -0.5920 H   0  0  0  0  0  0  0  0  0  0  0  0
   -3.5610    0.5550    0.7470 H   0  0  0  0  0  0  0  0  0  0  0  0
   -1.4040   -1.5690    0.6690 H   0  0  0  0  0  0  0  0  0  0  0  0
  1  7  1  0  0  0  0
  1  8  1  0  0  0  0
  2  9  1  6  0  0  0
  2  5  1  0  0  0  0
  2  1  1  0  0  0  0
  3  2  1  0  0  0  0
  3 10  1  0  0  0  0
  4  3  1  0  0  0  0
  5  6  2  0  0  0  0
 11  3  1  0  0  0  0
 12  4  1  0  0  0  0
 13 14  1  0  0  0  0
 13  5  1  0  0  0  0
 14 23  1  1  0  0  0
 15 24  1  0  0  0  0
 15 16  1  0  0  0  0
 15 14  1  0  0  0  0
 16 17  1  0  0  0  0
 17 18  1  0  0  0  0
 17 29  1  0  0  0  0
 18 30  1  0  0  0  0
 18 31  1  0  0  0  0
 19 32  1  0  0  0  0
 19 18  1  0  0  0  0
 20 14  1  0  0  0  0
 20 21  2  0  0  0  0
 22 13  1  0  0  0  0
 25 15  1  0  0  0  0
 26 16  1  0  0  0  0
 27 16  1  0  0  0  0
 28 17  1  0  0  0  0
 33 19  1  0  0  0  0
 34 35  1  0  0  0  0
 35 36  2  0  0  0  0
 35 37  1  0  0  0  0
 37 46  1  0  0  0  0
 37 38  1  0  0  0  0
 38 47  1  1  0  0  0
 38 39  1  0  0  0  0
 38 40  1  0  0  0  0
 39 20  1  0  0  0  0
 40 42  2  0  0  0  0
 40 41  1  0  0  0  0
 43 34  1  0  0  0  0
 44 34  1  0  0  0  0
 45 37  1  0  0  0  0
 48 39  1  0  0  0  0
M  END
$$$$
