CKT.pdb
 OpenBabel07022418283D

 48 47  0  0  1  0  0  0  0  0999 V2000
    1.4400   -3.6940    0.6080 N   0  0  0  0  0  0  0  0  0  0  0  0
    1.8060   -3.1120    1.8600 C   0  0  1  0  0  0  0  0  0  0  0  0
    3.3250   -3.0800    2.0520 C   0  0  0  0  0  0  0  0  0  0  0  0
    4.0280   -4.7290    2.0110 S   0  0  0  0  0  0  0  0  0  0  0  0
    1.2970   -1.7160    2.0110 C   0  0  0  0  0  0  0  0  0  0  0  0
    1.5510   -1.0910    3.0670 O   0  0  0  0  0  0  0  0  0  0  0  0
    0.5250   -4.1510    0.5880 H   0  0  0  0  0  0  0  0  0  0  0  0
    2.1370   -4.3670    0.2220 H   0  0  0  0  0  0  0  0  0  0  0  0
    1.3310   -3.7060    2.6670 H   0  0  0  0  0  0  0  0  0  0  0  0
    3.7710   -2.4910    1.2290 H   0  0  0  0  0  0  0  0  0  0  0  0
    3.5160   -2.5310    2.9850 H   0  0  0  0  0  0  0  0  0  0  0  0
    3.9390   -5.2090    0.6790 H   0  0  0  0  0  0  0  0  0  0  0  0
    0.5470   -1.0760    1.0190 N   0  0  0  0  0  0  0  0  0  0  0  0
    0.0210    0.2590    1.0810 C   0  0  1  0  0  0  0  0  0  0  0  0
    0.5860    1.0310   -0.0880 C   0  0  0  0  0  0  0  0  0  0  0  0
    2.0790    1.1130   -0.0850 C   0  0  0  0  0  0  0  0  0  0  0  0
    2.6650    1.7770    1.1090 C   0  0  0  0  0  0  0  0  0  0  0  0
    2.1780    3.2240    1.2530 C   0  0  0  0  0  0  0  0  0  0  0  0
    2.5620    3.9800    0.0760 N   0  0  0  0  0  0  0  0  0  0  0  0
   -1.4770    0.2450    0.9140 C   0  0  0  0  0  0  0  0  0  0  0  0
   -2.1260    1.3210    0.9400 O   0  0  0  0  0  0  0  0  0  0  0  0
    0.3440   -1.6180    0.1380 H   0  0  0  0  0  0  0  0  0  0  0  0
    0.2750    0.7920    2.0060 H   0  0  0  0  0  0  0  0  0  0  0  0
    0.1030    2.0190   -0.2090 H   0  0  0  0  0  0  0  0  0  0  0  0
    0.3110    0.4260   -1.0030 H   0  0  0  0  0  0  0  0  0  0  0  0
    2.5420    0.1140   -0.1850 H   0  0  0  0  0  0  0  0  0  0  0  0
    2.3630    1.7260   -0.9800 H   0  0  0  0  0  0  0  0  0  0  0  0
    3.7730    1.8810    0.9090 H   0  0  0  0  0  0  0  0  0  0  0  0
    2.5810    1.2410    2.0520 H   0  0  0  0  0  0  0  0  0  0  0  0
    1.0800    3.2390    1.3520 H   0  0  0  0  0  0  0  0  0  0  0  0
    2.6690    3.6770    2.1380 H   0  0  0  0  0  0  0  0  0  0  0  0
    3.4490    3.6360   -0.3540 H   0  0  0  0  0  0  0  0  0  0  0  0
    2.7400    4.9610    0.3890 H   0  0  0  0  0  0  0  0  0  0  0  0
   -3.4540   -0.6590   -1.8620 C   0  0  0  0  0  0  0  0  0  0  0  0
   -3.9440   -1.6170   -0.8250 C   0  0  1  0  0  0  0  0  0  0  0  0
   -3.3800   -2.8640   -1.0610 O   0  0  0  0  0  0  0  0  0  0  0  0
   -3.5830   -1.0960    0.5600 C   0  0  2  0  0  0  0  0  0  0  0  0
   -2.1690   -0.9580    0.7290 N   0  0  0  0  0  0  0  0  0  0  0  0
   -4.2340   -1.8650    1.6260 C   0  0  0  0  0  0  0  0  0  0  0  0
   -5.4670   -2.0950    1.6560 O   0  0  0  0  0  0  0  0  0  0  0  0
   -3.4680   -2.3740    2.6630 O   0  0  0  0  0  0  0  0  0  0  0  0
   -2.7170   -1.1330   -2.5580 H   0  0  0  0  0  0  0  0  0  0  0  0
   -3.0290    0.2500   -1.4260 H   0  0  0  0  0  0  0  0  0  0  0  0
   -4.3130   -0.3240   -2.5040 H   0  0  0  0  0  0  0  0  0  0  0  0
   -5.0320   -1.7270   -0.8740 H   0  0  0  0  0  0  0  0  0  0  0  0
   -3.0870   -3.3250   -0.2410 H   0  0  0  0  0  0  0  0  0  0  0  0
   -4.0300   -0.0580    0.6000 H   0  0  0  0  0  0  0  0  0  0  0  0
   -1.6000   -1.8530    0.7110 H   0  0  0  0  0  0  0  0  0  0  0  0
  1  2  1  0  0  0  0
  2  5  1  0  0  0  0
  2  3  1  0  0  0  0
  2  9  1  1  0  0  0
  3 11  1  0  0  0  0
  4  3  1  0  0  0  0
  5  6  2  0  0  0  0
  7  1  1  0  0  0  0
  8  1  1  0  0  0  0
 10  3  1  0  0  0  0
 12  4  1  0  0  0  0
 13 14  1  0  0  0  0
 13  5  1  0  0  0  0
 14 23  1  1  0  0  0
 15 16  1  0  0  0  0
 15 14  1  0  0  0  0
 16 17  1  0  0  0  0
 17 18  1  0  0  0  0
 17 29  1  0  0  0  0
 18 30  1  0  0  0  0
 18 31  1  0  0  0  0
 19 33  1  0  0  0  0
 19 18  1  0  0  0  0
 20 21  2  0  0  0  0
 20 14  1  0  0  0  0
 22 13  1  0  0  0  0
 24 15  1  0  0  0  0
 25 15  1  0  0  0  0
 26 16  1  0  0  0  0
 27 16  1  0  0  0  0
 28 17  1  0  0  0  0
 32 19  1  0  0  0  0
 34 43  1  0  0  0  0
 34 35  1  0  0  0  0
 35 45  1  6  0  0  0
 35 37  1  0  0  0  0
 36 35  1  0  0  0  0
 36 46  1  0  0  0  0
 37 47  1  1  0  0  0
 37 38  1  0  0  0  0
 37 39  1  0  0  0  0
 38 20  1  0  0  0  0
 39 40  2  0  0  0  0
 39 41  1  0  0  0  0
 42 34  1  0  0  0  0
 44 34  1  0  0  0  0
 48 38  1  0  0  0  0
M  END
$$$$
