CKV.pdb
 OpenBabel07022418283D

 50 49  0  0  1  0  0  0  0  0999 V2000
    4.3730   -3.5110   -0.4910 N   0  0  0  0  0  0  0  0  0  0  0  0
    3.6210   -2.3280   -0.1180 C   0  0  1  0  0  0  0  0  0  0  0  0
    3.4200   -1.4010   -1.2930 C   0  0  0  0  0  0  0  0  0  0  0  0
    5.0920   -0.9250   -1.8670 S   0  0  0  0  0  0  0  0  0  0  0  0
    2.3170   -2.7520    0.4780 C   0  0  0  0  0  0  0  0  0  0  0  0
    2.0340   -3.9760    0.5860 O   0  0  0  0  0  0  0  0  0  0  0  0
    4.0490   -3.9180   -1.4020 H   0  0  0  0  0  0  0  0  0  0  0  0
    4.1830   -4.2430    0.2340 H   0  0  0  0  0  0  0  0  0  0  0  0
    4.1950   -1.8030    0.6500 H   0  0  0  0  0  0  0  0  0  0  0  0
    2.9400   -0.4580   -0.9600 H   0  0  0  0  0  0  0  0  0  0  0  0
    2.8140   -1.8190   -2.0940 H   0  0  0  0  0  0  0  0  0  0  0  0
    5.3380   -1.5800   -3.0840 H   0  0  0  0  0  0  0  0  0  0  0  0
    1.3620   -1.8070    0.9390 N   0  0  0  0  0  0  0  0  0  0  0  0
    0.1240   -2.2620    1.5040 C   0  0  1  0  0  0  0  0  0  0  0  0
   -0.0430   -1.8360    2.9470 C   0  0  0  0  0  0  0  0  0  0  0  0
   -0.0230   -0.3160    3.0760 C   0  0  0  0  0  0  0  0  0  0  0  0
   -0.1940    0.0440    4.5360 C   0  0  0  0  0  0  0  0  0  0  0  0
   -0.1760    1.5510    4.6820 C   0  0  0  0  0  0  0  0  0  0  0  0
    1.1030    2.0210    4.1870 N   0  0  0  0  0  0  0  0  0  0  0  0
   -1.0600   -1.7890    0.7550 C   0  0  0  0  0  0  0  0  0  0  0  0
   -2.1900   -2.1530    1.2010 O   0  0  0  0  0  0  0  0  0  0  0  0
    1.6270   -0.8060    0.8350 H   0  0  0  0  0  0  0  0  0  0  0  0
    0.0760   -3.3740    1.5040 H   0  0  0  0  0  0  0  0  0  0  0  0
   -1.0610   -2.1470    3.2750 H   0  0  0  0  0  0  0  0  0  0  0  0
    0.6710   -2.3040    3.6240 H   0  0  0  0  0  0  0  0  0  0  0  0
   -0.8910    0.1190    2.5410 H   0  0  0  0  0  0  0  0  0  0  0  0
    0.8780    0.1300    2.6380 H   0  0  0  0  0  0  0  0  0  0  0  0
    0.6220   -0.3500    5.1640 H   0  0  0  0  0  0  0  0  0  0  0  0
   -1.1390   -0.4060    4.8890 H   0  0  0  0  0  0  0  0  0  0  0  0
   -1.0140    1.9860    4.1040 H   0  0  0  0  0  0  0  0  0  0  0  0
   -0.2790    1.8090    5.7680 H   0  0  0  0  0  0  0  0  0  0  0  0
    1.8690    1.3580    4.3920 H   0  0  0  0  0  0  0  0  0  0  0  0
    0.9970    2.2520    3.1800 H   0  0  0  0  0  0  0  0  0  0  0  0
   -3.6000    1.3650   -1.8340 C   0  0  0  0  0  0  0  0  0  0  0  0
   -2.3470    0.9660   -1.0810 C   0  0  0  0  0  0  0  0  0  0  0  0
   -2.4980    1.4950    0.3300 C   0  0  0  0  0  0  0  0  0  0  0  0
   -2.2220   -0.5430   -1.0930 C   0  0  2  0  0  0  0  0  0  0  0  0
   -1.0370   -0.9870   -0.3860 N   0  0  0  0  0  0  0  0  0  0  0  0
   -2.2260   -1.0760   -2.4650 C   0  0  0  0  0  0  0  0  0  0  0  0
   -3.1590   -0.8210   -3.2610 O   0  0  0  0  0  0  0  0  0  0  0  0
   -1.1920   -1.8950   -2.9520 O   0  0  0  0  0  0  0  0  0  0  0  0
   -4.4320    0.6510   -1.6520 H   0  0  0  0  0  0  0  0  0  0  0  0
   -3.9840    2.3650   -1.4870 H   0  0  0  0  0  0  0  0  0  0  0  0
   -3.3920    1.5000   -2.9290 H   0  0  0  0  0  0  0  0  0  0  0  0
   -1.4940    1.4460   -1.6070 H   0  0  0  0  0  0  0  0  0  0  0  0
   -3.0230    0.8090    0.9900 H   0  0  0  0  0  0  0  0  0  0  0  0
   -1.4790    1.7360    0.7380 H   0  0  0  0  0  0  0  0  0  0  0  0
   -3.0550    2.4590    0.3030 H   0  0  0  0  0  0  0  0  0  0  0  0
   -3.0920   -0.9600   -0.5510 H   0  0  0  0  0  0  0  0  0  0  0  0
   -0.1060   -0.6810   -0.7610 H   0  0  0  0  0  0  0  0  0  0  0  0
  1  2  1  0  0  0  0
  1  8  1  0  0  0  0
  2  5  1  0  0  0  0
  2  9  1  1  0  0  0
  3 10  1  0  0  0  0
  3  2  1  0  0  0  0
  4  3  1  0  0  0  0
  5  6  2  0  0  0  0
  5 13  1  0  0  0  0
  7  1  1  0  0  0  0
 11  3  1  0  0  0  0
 12  4  1  0  0  0  0
 13 14  1  0  0  0  0
 14 23  1  6  0  0  0
 14 15  1  0  0  0  0
 15 16  1  0  0  0  0
 15 24  1  0  0  0  0
 15 25  1  0  0  0  0
 16 17  1  0  0  0  0
 17 18  1  0  0  0  0
 17 29  1  0  0  0  0
 17 28  1  0  0  0  0
 18 31  1  0  0  0  0
 19 32  1  0  0  0  0
 19 18  1  0  0  0  0
 20 21  2  0  0  0  0
 20 14  1  0  0  0  0
 22 13  1  0  0  0  0
 26 16  1  0  0  0  0
 27 16  1  0  0  0  0
 30 18  1  0  0  0  0
 33 19  1  0  0  0  0
 34 42  1  0  0  0  0
 34 43  1  0  0  0  0
 34 35  1  0  0  0  0
 35 36  1  0  0  0  0
 36 47  1  0  0  0  0
 36 46  1  0  0  0  0
 37 35  1  0  0  0  0
 37 49  1  1  0  0  0
 37 38  1  0  0  0  0
 38 20  1  0  0  0  0
 39 37  1  0  0  0  0
 40 39  2  0  0  0  0
 41 39  1  0  0  0  0
 44 34  1  0  0  0  0
 45 35  1  0  0  0  0
 48 36  1  0  0  0  0
 50 38  1  0  0  0  0
M  END
$$$$
