CKW.pdb
 OpenBabel07022418283D

 58 59  0  0  1  0  0  0  0  0999 V2000
    4.9790   -2.0590    2.8170 N   0  0  0  0  0  0  0  0  0  0  0  0
    3.8520   -1.9040    1.9260 C   0  0  1  0  0  0  0  0  0  0  0  0
    2.9740   -3.1440    2.0480 C   0  0  0  0  0  0  0  0  0  0  0  0
    3.9460   -4.5870    1.5870 S   0  0  0  0  0  0  0  0  0  0  0  0
    3.0850   -0.6700    2.1850 C   0  0  0  0  0  0  0  0  0  0  0  0
    3.3500    0.1600    3.0730 O   0  0  0  0  0  0  0  0  0  0  0  0
    5.1090   -3.0970    3.0170 H   0  0  0  0  0  0  0  0  0  0  0  0
    5.8580   -1.7750    2.3310 H   0  0  0  0  0  0  0  0  0  0  0  0
    4.2030   -1.8680    0.8750 H   0  0  0  0  0  0  0  0  0  0  0  0
    2.0790   -3.1000    1.4320 H   0  0  0  0  0  0  0  0  0  0  0  0
    2.6630   -3.2780    3.1050 H   0  0  0  0  0  0  0  0  0  0  0  0
    3.3780   -5.7750    2.0740 H   0  0  0  0  0  0  0  0  0  0  0  0
    1.9590   -0.3840    1.3770 N   0  0  0  0  0  0  0  0  0  0  0  0
    1.1150    0.7340    1.4750 C   0  0  1  0  0  0  0  0  0  0  0  0
    0.9530    1.6330    0.3260 C   0  0  0  0  0  0  0  0  0  0  0  0
    0.4020    0.9480   -0.9150 C   0  0  0  0  0  0  0  0  0  0  0  0
    0.2570    1.9230   -2.0620 C   0  0  0  0  0  0  0  0  0  0  0  0
   -0.6880    3.0570   -1.7190 C   0  0  0  0  0  0  0  0  0  0  0  0
   -0.8150    3.9800   -2.8390 N   0  0  0  0  0  0  0  0  0  0  0  0
   -0.2260    0.2920    1.9430 C   0  0  0  0  0  0  0  0  0  0  0  0
   -1.1760    1.1350    2.0970 O   0  0  0  0  0  0  0  0  0  0  0  0
    1.7130   -1.0800    0.6100 H   0  0  0  0  0  0  0  0  0  0  0  0
    1.5100    1.3720    2.3280 H   0  0  0  0  0  0  0  0  0  0  0  0
    0.1420    2.3720    0.6200 H   0  0  0  0  0  0  0  0  0  0  0  0
    1.8170    2.2750    0.0870 H   0  0  0  0  0  0  0  0  0  0  0  0
    1.1400    0.1710   -1.2120 H   0  0  0  0  0  0  0  0  0  0  0  0
   -0.5690    0.4910   -0.7460 H   0  0  0  0  0  0  0  0  0  0  0  0
    1.2710    2.4030   -2.1980 H   0  0  0  0  0  0  0  0  0  0  0  0
    0.0120    1.4430   -3.0040 H   0  0  0  0  0  0  0  0  0  0  0  0
   -0.3010    3.6670   -0.8740 H   0  0  0  0  0  0  0  0  0  0  0  0
   -1.6340    2.6120   -1.4110 H   0  0  0  0  0  0  0  0  0  0  0  0
   -1.1070    4.9200   -2.5090 H   0  0  0  0  0  0  0  0  0  0  0  0
   -1.5200    3.6650   -3.5390 H   0  0  0  0  0  0  0  0  0  0  0  0
   -0.5570   -1.0590    2.2490 N   0  0  0  0  0  0  0  0  0  0  0  0
   -1.8710   -1.4510    2.7060 C   0  0  1  0  0  0  0  0  0  0  0  0
   -2.5750   -2.4460    1.8440 C   0  0  0  0  0  0  0  0  0  0  0  0
   -2.8370   -2.0580    0.4690 C   0  0  0  0  0  0  0  0  0  0  0  0
   -4.0630   -1.5780    0.0170 C   0  0  0  0  0  0  0  0  0  0  0  0
   -3.9480   -1.3040   -1.2830 N   0  0  0  0  0  0  0  0  0  0  0  0
   -2.6990   -1.5850   -1.6980 C   0  0  0  0  0  0  0  0  0  0  0  0
   -2.1040   -1.4780   -2.9380 C   0  0  0  0  0  0  0  0  0  0  0  0
   -0.7910   -1.8490   -3.0890 C   0  0  0  0  0  0  0  0  0  0  0  0
   -0.0350   -2.3310   -2.0300 C   0  0  0  0  0  0  0  0  0  0  0  0
   -0.6600   -2.4260   -0.8010 C   0  0  0  0  0  0  0  0  0  0  0  0
   -1.9920   -2.0570   -0.6160 C   0  0  0  0  0  0  0  0  0  0  0  0
   -1.7190   -2.0160    4.0640 C   0  0  0  0  0  0  0  0  0  0  0  0
   -2.7280   -2.4280    4.6630 O   0  0  0  0  0  0  0  0  0  0  0  0
   -0.4900   -2.0900    4.6610 O   0  0  0  0  0  0  0  0  0  0  0  0
    0.1680   -1.7960    2.1500 H   0  0  0  0  0  0  0  0  0  0  0  0
   -2.4910   -0.4950    2.7700 H   0  0  0  0  0  0  0  0  0  0  0  0
   -1.9960   -3.4150    1.8220 H   0  0  0  0  0  0  0  0  0  0  0  0
   -3.5180   -2.7260    2.3950 H   0  0  0  0  0  0  0  0  0  0  0  0
   -4.9360   -1.4540    0.6100 H   0  0  0  0  0  0  0  0  0  0  0  0
   -4.7030   -0.9290   -1.8960 H   0  0  0  0  0  0  0  0  0  0  0  0
   -2.6820   -1.1010   -3.7830 H   0  0  0  0  0  0  0  0  0  0  0  0
   -0.3420   -1.7530   -4.0870 H   0  0  0  0  0  0  0  0  0  0  0  0
    0.9970   -2.6190   -2.1700 H   0  0  0  0  0  0  0  0  0  0  0  0
   -0.1100   -2.7980    0.0330 H   0  0  0  0  0  0  0  0  0  0  0  0
  1  7  1  0  0  0  0
  2  9  1  6  0  0  0
  2  3  1  0  0  0  0
  2  5  1  0  0  0  0
  2  1  1  0  0  0  0
  3 11  1  0  0  0  0
  4  3  1  0  0  0  0
  4 12  1  0  0  0  0
  5  6  2  0  0  0  0
  8  1  1  0  0  0  0
 10  3  1  0  0  0  0
 13 14  1  0  0  0  0
 13  5  1  0  0  0  0
 14 20  1  0  0  0  0
 14 23  1  1  0  0  0
 15 24  1  0  0  0  0
 15 14  1  0  0  0  0
 16 27  1  0  0  0  0
 16 15  1  0  0  0  0
 17 18  1  0  0  0  0
 17 16  1  0  0  0  0
 18 31  1  0  0  0  0
 18 30  1  0  0  0  0
 19 32  1  0  0  0  0
 19 18  1  0  0  0  0
 20 21  2  0  0  0  0
 20 34  1  0  0  0  0
 22 13  1  0  0  0  0
 25 15  1  0  0  0  0
 26 16  1  0  0  0  0
 28 17  1  0  0  0  0
 29 17  1  0  0  0  0
 33 19  1  0  0  0  0
 34 35  1  0  0  0  0
 35 50  1  1  0  0  0
 35 46  1  0  0  0  0
 36 52  1  0  0  0  0
 36 35  1  0  0  0  0
 37 36  1  0  0  0  0
 38 37  2  0  0  0  0
 38 53  1  0  0  0  0
 39 38  1  0  0  0  0
 40 39  1  0  0  0  0
 40 45  1  0  0  0  0
 41 40  2  0  0  0  0
 42 41  1  0  0  0  0
 42 43  2  0  0  0  0
 43 44  1  0  0  0  0
 44 45  2  0  0  0  0
 44 58  1  0  0  0  0
 45 37  1  0  0  0  0
 46 48  2  0  0  0  0
 46 47  1  0  0  0  0
 49 34  1  0  0  0  0
 51 36  1  0  0  0  0
 54 39  1  0  0  0  0
 55 41  1  0  0  0  0
 56 42  1  0  0  0  0
 57 43  1  0  0  0  0
M  END
$$$$
