CLA.pdb
 OpenBabel07022418283D

 42 41  0  0  1  0  0  0  0  0999 V2000
    3.6880   -3.5010    3.3850 N   0  0  0  0  0  0  0  0  0  0  0  0
    2.4800   -3.3840    2.5440 C   0  0  1  0  0  0  0  0  0  0  0  0
    1.3740   -3.9890    3.3890 C   0  0  0  0  0  0  0  0  0  0  0  0
   -0.2290   -3.9790    2.5970 S   0  0  0  0  0  0  0  0  0  0  0  0
    2.2880   -1.9740    2.2200 C   0  0  0  0  0  0  0  0  0  0  0  0
    3.0450   -1.0920    2.6870 O   0  0  0  0  0  0  0  0  0  0  0  0
    3.4310   -3.0120    4.2920 H   0  0  0  0  0  0  0  0  0  0  0  0
    3.8460   -4.5000    3.6680 H   0  0  0  0  0  0  0  0  0  0  0  0
    2.6760   -4.0030    1.6610 H   0  0  0  0  0  0  0  0  0  0  0  0
    1.7010   -5.0460    3.5930 H   0  0  0  0  0  0  0  0  0  0  0  0
    1.3090   -3.4950    4.3750 H   0  0  0  0  0  0  0  0  0  0  0  0
   -0.1720   -4.8010    1.4580 H   0  0  0  0  0  0  0  0  0  0  0  0
    0.9910   -2.0020   -1.5610 C   0  0  0  0  0  0  0  0  0  0  0  0
    0.8060   -0.5110   -1.5000 C   0  0  0  0  0  0  0  0  0  0  0  0
    1.3340    0.0390   -2.8370 C   0  0  0  0  0  0  0  0  0  0  0  0
    1.4300    0.1820   -0.3510 C   0  0  0  0  0  0  0  0  0  0  0  0
    1.0080   -0.1670    1.0170 C   0  0  2  0  0  0  0  0  0  0  0  0
    1.2280   -1.5450    1.3560 N   0  0  0  0  0  0  0  0  0  0  0  0
   -0.3560    0.2970    1.3710 C   0  0  0  0  0  0  0  0  0  0  0  0
   -1.2120   -0.4550    1.9110 O   0  0  0  0  0  0  0  0  0  0  0  0
    0.0640   -2.5550   -1.3250 H   0  0  0  0  0  0  0  0  0  0  0  0
    1.8840   -2.3320   -0.9940 H   0  0  0  0  0  0  0  0  0  0  0  0
    1.2110   -2.3190   -2.6320 H   0  0  0  0  0  0  0  0  0  0  0  0
   -0.3190   -0.3600   -1.5350 H   0  0  0  0  0  0  0  0  0  0  0  0
    0.6390   -0.3880   -3.6100 H   0  0  0  0  0  0  0  0  0  0  0  0
    1.2660    1.1230   -2.8880 H   0  0  0  0  0  0  0  0  0  0  0  0
    2.3360   -0.3770   -3.0660 H   0  0  0  0  0  0  0  0  0  0  0  0
    1.2910    1.2950   -0.5010 H   0  0  0  0  0  0  0  0  0  0  0  0
    2.5460    0.0610   -0.4560 H   0  0  0  0  0  0  0  0  0  0  0  0
    1.7060    0.4090    1.7110 H   0  0  0  0  0  0  0  0  0  0  0  0
    0.5520   -2.2330    0.9430 H   0  0  0  0  0  0  0  0  0  0  0  0
   -2.0790    3.3140    2.3280 C   0  0  0  0  0  0  0  0  0  0  0  0
   -2.0930    2.0970    1.4530 C   0  0  2  0  0  0  0  0  0  0  0  0
   -0.7640    1.6350    1.1110 N   0  0  0  0  0  0  0  0  0  0  0  0
   -2.7700    2.4910    0.1710 C   0  0  0  0  0  0  0  0  0  0  0  0
   -2.1990    2.3970   -0.9360 O   0  0  0  0  0  0  0  0  0  0  0  0
   -4.0740    2.9820    0.1680 O   0  0  0  0  0  0  0  0  0  0  0  0
   -3.0420    3.3410    2.8790 H   0  0  0  0  0  0  0  0  0  0  0  0
   -1.2690    3.3040    3.0870 H   0  0  0  0  0  0  0  0  0  0  0  0
   -2.0600    4.2540    1.7160 H   0  0  0  0  0  0  0  0  0  0  0  0
   -2.7140    1.3310    1.9120 H   0  0  0  0  0  0  0  0  0  0  0  0
   -0.0730    2.2760    0.6650 H   0  0  0  0  0  0  0  0  0  0  0  0
  1  8  1  0  0  0  0
  1  7  1  0  0  0  0
  2  9  1  6  0  0  0
  2  1  1  0  0  0  0
  2  3  1  0  0  0  0
  3 10  1  0  0  0  0
  3 11  1  0  0  0  0
  4  3  1  0  0  0  0
  5  2  1  0  0  0  0
  5  6  2  0  0  0  0
 12  4  1  0  0  0  0
 13 14  1  0  0  0  0
 13 21  1  0  0  0  0
 13 22  1  0  0  0  0
 14 16  1  0  0  0  0
 15 14  1  0  0  0  0
 16 17  1  0  0  0  0
 17 18  1  0  0  0  0
 17 19  1  0  0  0  0
 17 30  1  1  0  0  0
 18  5  1  0  0  0  0
 19 20  2  0  0  0  0
 23 13  1  0  0  0  0
 24 14  1  0  0  0  0
 25 15  1  0  0  0  0
 26 15  1  0  0  0  0
 27 15  1  0  0  0  0
 28 16  1  0  0  0  0
 29 16  1  0  0  0  0
 31 18  1  0  0  0  0
 32 38  1  0  0  0  0
 32 39  1  0  0  0  0
 33 41  1  1  0  0  0
 33 32  1  0  0  0  0
 34 19  1  0  0  0  0
 34 33  1  0  0  0  0
 35 33  1  0  0  0  0
 36 35  2  0  0  0  0
 37 35  1  0  0  0  0
 40 32  1  0  0  0  0
 42 34  1  0  0  0  0
M  END
$$$$
