CLC.pdb
 OpenBabel07022418283D

 43 42  0  0  1  0  0  0  0  0999 V2000
   -2.2130   -2.5750    0.1360 N   0  0  0  0  0  0  0  0  0  0  0  0
   -1.9690   -2.8810    1.5200 C   0  0  1  0  0  0  0  0  0  0  0  0
   -1.7840   -4.3790    1.7260 C   0  0  0  0  0  0  0  0  0  0  0  0
   -1.4790   -4.7570    3.4530 S   0  0  0  0  0  0  0  0  0  0  0  0
   -0.6950   -2.2140    1.9600 C   0  0  0  0  0  0  0  0  0  0  0  0
   -0.3170   -2.3710    3.1580 O   0  0  0  0  0  0  0  0  0  0  0  0
   -2.8470   -1.7470    0.1100 H   0  0  0  0  0  0  0  0  0  0  0  0
   -2.6220   -3.4210   -0.3120 H   0  0  0  0  0  0  0  0  0  0  0  0
   -2.7560   -2.4790    2.1950 H   0  0  0  0  0  0  0  0  0  0  0  0
   -2.7380   -4.8570    1.4110 H   0  0  0  0  0  0  0  0  0  0  0  0
   -0.9510   -4.7010    1.0740 H   0  0  0  0  0  0  0  0  0  0  0  0
   -0.2840   -5.5010    3.5830 H   0  0  0  0  0  0  0  0  0  0  0  0
    1.8280   -2.1990   -1.2470 C   0  0  0  0  0  0  0  0  0  0  0  0
    2.8010   -1.3840   -0.4610 C   0  0  0  0  0  0  0  0  0  0  0  0
    2.9480   -0.0400   -1.1350 C   0  0  0  0  0  0  0  0  0  0  0  0
    2.5660   -1.3440    0.9950 C   0  0  0  0  0  0  0  0  0  0  0  0
    1.2900   -0.7940    1.5040 C   0  0  2  0  0  0  0  0  0  0  0  0
    0.0870   -1.4220    1.0840 N   0  0  0  0  0  0  0  0  0  0  0  0
    1.2630    0.6940    1.4630 C   0  0  0  0  0  0  0  0  0  0  0  0
    2.2830    1.3180    1.7880 O   0  0  0  0  0  0  0  0  0  0  0  0
    1.3280   -2.9150   -0.5790 H   0  0  0  0  0  0  0  0  0  0  0  0
    2.3600   -2.7740   -2.0520 H   0  0  0  0  0  0  0  0  0  0  0  0
    1.1200   -1.5170   -1.7830 H   0  0  0  0  0  0  0  0  0  0  0  0
    3.8140   -1.8810   -0.6010 H   0  0  0  0  0  0  0  0  0  0  0  0
    3.5660    0.6150   -0.5260 H   0  0  0  0  0  0  0  0  0  0  0  0
    3.5430   -0.2280   -2.0790 H   0  0  0  0  0  0  0  0  0  0  0  0
    1.9970    0.3680   -1.4860 H   0  0  0  0  0  0  0  0  0  0  0  0
    3.3900   -0.8450    1.5600 H   0  0  0  0  0  0  0  0  0  0  0  0
    2.6290   -2.4210    1.3550 H   0  0  0  0  0  0  0  0  0  0  0  0
    1.3410   -1.0010    2.6430 H   0  0  0  0  0  0  0  0  0  0  0  0
   -0.2770   -1.3190    0.1150 H   0  0  0  0  0  0  0  0  0  0  0  0
    0.1280    1.4500    1.0730 N   0  0  0  0  0  0  0  0  0  0  0  0
    0.0210    2.8620    1.0200 C   0  0  1  0  0  0  0  0  0  0  0  0
   -0.3340    3.4830   -0.2810 C   0  0  0  0  0  0  0  0  0  0  0  0
    0.8740    3.1070   -1.5450 S   0  0  0  0  0  0  0  0  0  0  0  0
   -0.8400    3.3290    2.1340 C   0  0  0  0  0  0  0  0  0  0  0  0
   -1.3340    2.5120    2.9260 O   0  0  0  0  0  0  0  0  0  0  0  0
   -1.0830    4.6730    2.2780 O   0  0  0  0  0  0  0  0  0  0  0  0
   -0.7230    0.8750    0.7960 H   0  0  0  0  0  0  0  0  0  0  0  0
    1.0510    3.2620    1.2880 H   0  0  0  0  0  0  0  0  0  0  0  0
   -1.3820    3.3020   -0.5990 H   0  0  0  0  0  0  0  0  0  0  0  0
   -0.2910    4.6020   -0.1130 H   0  0  0  0  0  0  0  0  0  0  0  0
    2.0640    3.8340   -1.3140 H   0  0  0  0  0  0  0  0  0  0  0  0
  1  2  1  0  0  0  0
  2  3  1  0  0  0  0
  2  5  1  0  0  0  0
  2  9  1  1  0  0  0
  3  4  1  0  0  0  0
  4 12  1  0  0  0  0
  5  6  2  0  0  0  0
  7  1  1  0  0  0  0
  8  1  1  0  0  0  0
 10  3  1  0  0  0  0
 11  3  1  0  0  0  0
 13 21  1  0  0  0  0
 13 14  1  0  0  0  0
 14 16  1  0  0  0  0
 15 25  1  0  0  0  0
 15 14  1  0  0  0  0
 16 29  1  0  0  0  0
 16 17  1  0  0  0  0
 16 28  1  0  0  0  0
 17 30  1  1  0  0  0
 18 17  1  0  0  0  0
 18  5  1  0  0  0  0
 19 17  1  0  0  0  0
 19 20  2  0  0  0  0
 22 13  1  0  0  0  0
 23 13  1  0  0  0  0
 24 14  1  0  0  0  0
 26 15  1  0  0  0  0
 27 15  1  0  0  0  0
 31 18  1  0  0  0  0
 32 19  1  0  0  0  0
 33 32  1  0  0  0  0
 33 40  1  1  0  0  0
 33 36  1  0  0  0  0
 34 42  1  0  0  0  0
 34 33  1  0  0  0  0
 35 43  1  0  0  0  0
 35 34  1  0  0  0  0
 36 38  2  0  0  0  0
 36 37  1  0  0  0  0
 39 32  1  0  0  0  0
 41 34  1  0  0  0  0
M  END
$$$$
