CLD.pdb
 OpenBabel07022418283D

 45 44  0  0  1  0  0  0  0  0999 V2000
   -0.3560   -5.4460   -2.6830 N   0  0  0  0  0  0  0  0  0  0  0  0
   -0.2390   -4.1140   -3.2580 C   0  0  1  0  0  0  0  0  0  0  0  0
   -1.5130   -3.7580   -4.0020 C   0  0  0  0  0  0  0  0  0  0  0  0
   -1.7340   -4.9940   -5.3080 S   0  0  0  0  0  0  0  0  0  0  0  0
    0.0070   -3.1590   -2.1530 C   0  0  0  0  0  0  0  0  0  0  0  0
    0.0420   -3.5960   -0.9800 O   0  0  0  0  0  0  0  0  0  0  0  0
   -1.1620   -5.3960   -2.0040 H   0  0  0  0  0  0  0  0  0  0  0  0
   -0.6190   -6.1260   -3.4530 H   0  0  0  0  0  0  0  0  0  0  0  0
    0.5910   -4.0440   -3.9800 H   0  0  0  0  0  0  0  0  0  0  0  0
   -1.3740   -2.7570   -4.4670 H   0  0  0  0  0  0  0  0  0  0  0  0
   -2.3290   -3.7540   -3.2570 H   0  0  0  0  0  0  0  0  0  0  0  0
   -0.4920   -5.4150   -5.8130 H   0  0  0  0  0  0  0  0  0  0  0  0
    1.8410    1.9320   -0.2040 C   0  0  0  0  0  0  0  0  0  0  0  0
    2.4530    0.6280   -0.5220 C   0  0  0  0  0  0  0  0  0  0  0  0
    2.8810   -0.0150    0.7980 C   0  0  0  0  0  0  0  0  0  0  0  0
    1.7770   -0.2950   -1.4250 C   0  0  0  0  0  0  0  0  0  0  0  0
    0.4490   -0.8720   -1.1520 C   0  0  2  0  0  0  0  0  0  0  0  0
    0.2050   -1.7760   -2.3490 N   0  0  0  0  0  0  0  0  0  0  0  0
   -0.7050    0.0250   -1.1320 C   0  0  0  0  0  0  0  0  0  0  0  0
   -1.4460    0.1230   -2.1890 O   0  0  0  0  0  0  0  0  0  0  0  0
    2.6470    2.7410   -0.1690 H   0  0  0  0  0  0  0  0  0  0  0  0
    1.4800    1.9240    0.8660 H   0  0  0  0  0  0  0  0  0  0  0  0
    1.0550    2.2860   -0.8670 H   0  0  0  0  0  0  0  0  0  0  0  0
    3.4630    0.8690   -1.0110 H   0  0  0  0  0  0  0  0  0  0  0  0
    3.3830   -0.9810    0.6530 H   0  0  0  0  0  0  0  0  0  0  0  0
    3.6510    0.6830    1.2270 H   0  0  0  0  0  0  0  0  0  0  0  0
    2.0530   -0.0350    1.5340 H   0  0  0  0  0  0  0  0  0  0  0  0
    1.6760    0.2520   -2.4320 H   0  0  0  0  0  0  0  0  0  0  0  0
    2.4700   -1.1540   -1.7320 H   0  0  0  0  0  0  0  0  0  0  0  0
    0.3940   -1.5460   -0.2960 H   0  0  0  0  0  0  0  0  0  0  0  0
    0.1840   -1.3830   -3.2980 H   0  0  0  0  0  0  0  0  0  0  0  0
   -1.1070    0.8100   -0.0320 N   0  0  0  0  0  0  0  0  0  0  0  0
   -2.3100    1.6620   -0.1270 C   0  0  1  0  0  0  0  0  0  0  0  0
   -3.4240    0.9900    0.6580 C   0  0  0  0  0  0  0  0  0  0  0  0
   -4.7060    1.7070    0.6130 C   0  0  0  0  0  0  0  0  0  0  0  0
   -4.9190    2.7090   -0.1110 O   0  0  0  0  0  0  0  0  0  0  0  0
   -1.9960    3.0110    0.3490 C   0  0  0  0  0  0  0  0  0  0  0  0
   -0.8630    3.2500    0.8360 O   0  0  0  0  0  0  0  0  0  0  0  0
   -5.7990    1.3040    1.3950 O   0  0  0  0  0  0  0  0  0  0  0  0
   -2.8760    4.0710    0.2980 O   0  0  0  0  0  0  0  0  0  0  0  0
   -0.5780    0.7880    0.8440 H   0  0  0  0  0  0  0  0  0  0  0  0
   -2.6270    1.6770   -1.1630 H   0  0  0  0  0  0  0  0  0  0  0  0
   -3.1230    0.9240    1.7430 H   0  0  0  0  0  0  0  0  0  0  0  0
   -3.5690   -0.0550    0.3450 H   0  0  0  0  0  0  0  0  0  0  0  0
   -6.7240    1.3950    0.9940 H   0  0  0  0  0  0  0  0  0  0  0  0
  1  7  1  0  0  0  0
  2  9  1  6  0  0  0
  2  1  1  0  0  0  0
  2  5  1  0  0  0  0
  3  2  1  0  0  0  0
  3 11  1  0  0  0  0
  4  3  1  0  0  0  0
  5  6  2  0  0  0  0
  8  1  1  0  0  0  0
 10  3  1  0  0  0  0
 12  4  1  0  0  0  0
 13 21  1  0  0  0  0
 13 22  1  0  0  0  0
 14 13  1  0  0  0  0
 14 15  1  0  0  0  0
 15 26  1  0  0  0  0
 15 27  1  0  0  0  0
 16 17  1  0  0  0  0
 16 14  1  0  0  0  0
 17 19  1  0  0  0  0
 17 30  1  1  0  0  0
 18  5  1  0  0  0  0
 18 17  1  0  0  0  0
 19 32  1  0  0  0  0
 20 19  2  0  0  0  0
 23 13  1  0  0  0  0
 24 14  1  0  0  0  0
 25 15  1  0  0  0  0
 28 16  1  0  0  0  0
 29 16  1  0  0  0  0
 31 18  1  0  0  0  0
 32 41  1  0  0  0  0
 33 42  1  6  0  0  0
 33 32  1  0  0  0  0
 33 37  1  0  0  0  0
 33 34  1  0  0  0  0
 34 43  1  0  0  0  0
 35 34  1  0  0  0  0
 35 39  1  0  0  0  0
 36 35  2  0  0  0  0
 37 38  1  0  0  0  0
 40 37  2  0  0  0  0
 44 34  1  0  0  0  0
 45 39  1  0  0  0  0
M  END
$$$$
