CLF.pdb
 OpenBabel07022418283D

 52 52  0  0  1  0  0  0  0  0999 V2000
    3.4860   -3.2840    2.8800 N   0  0  0  0  0  0  0  0  0  0  0  0
    2.8800   -2.7040    1.6660 C   0  0  1  0  0  0  0  0  0  0  0  0
    2.0140   -3.7650    1.0980 C   0  0  0  0  0  0  0  0  0  0  0  0
    1.2000   -3.2650   -0.4280 S   0  0  0  0  0  0  0  0  0  0  0  0
    2.2540   -1.4210    1.9820 C   0  0  0  0  0  0  0  0  0  0  0  0
    2.3160   -0.9890    3.1980 O   0  0  0  0  0  0  0  0  0  0  0  0
    3.8520   -4.2430    2.6540 H   0  0  0  0  0  0  0  0  0  0  0  0
    4.2330   -2.6550    3.2510 H   0  0  0  0  0  0  0  0  0  0  0  0
    3.7130   -2.5120    0.9490 H   0  0  0  0  0  0  0  0  0  0  0  0
    2.5380   -4.7310    0.9440 H   0  0  0  0  0  0  0  0  0  0  0  0
    1.2020   -3.9820    1.8390 H   0  0  0  0  0  0  0  0  0  0  0  0
    1.6770   -4.0210   -1.5320 H   0  0  0  0  0  0  0  0  0  0  0  0
    1.8750    4.2280    0.3200 C   0  0  0  0  0  0  0  0  0  0  0  0
    1.1190    3.2080    1.1630 C   0  0  0  0  0  0  0  0  0  0  0  0
    1.3120    3.5890    2.5930 C   0  0  0  0  0  0  0  0  0  0  0  0
    1.6230    1.8600    0.8010 C   0  0  0  0  0  0  0  0  0  0  0  0
    1.0000    0.7090    1.5350 C   0  0  2  0  0  0  0  0  0  0  0  0
    1.5710   -0.5620    1.1030 N   0  0  0  0  0  0  0  0  0  0  0  0
   -0.4640    0.6280    1.4380 C   0  0  0  0  0  0  0  0  0  0  0  0
   -1.1600    1.6450    1.7950 O   0  0  0  0  0  0  0  0  0  0  0  0
    2.9480    4.2340    0.5180 H   0  0  0  0  0  0  0  0  0  0  0  0
    1.7460    4.0010   -0.7700 H   0  0  0  0  0  0  0  0  0  0  0  0
    1.4920    5.2480    0.4730 H   0  0  0  0  0  0  0  0  0  0  0  0
    0.0430    3.3800    0.8970 H   0  0  0  0  0  0  0  0  0  0  0  0
    0.5820    3.1480    3.2950 H   0  0  0  0  0  0  0  0  0  0  0  0
    1.1600    4.7000    2.6650 H   0  0  0  0  0  0  0  0  0  0  0  0
    2.3280    3.3740    2.9580 H   0  0  0  0  0  0  0  0  0  0  0  0
    2.7190    1.8530    0.9650 H   0  0  0  0  0  0  0  0  0  0  0  0
    1.4820    1.7240   -0.2930 H   0  0  0  0  0  0  0  0  0  0  0  0
    1.2680    0.8350    2.6070 H   0  0  0  0  0  0  0  0  0  0  0  0
    1.4770   -0.8460    0.1070 H   0  0  0  0  0  0  0  0  0  0  0  0
   -1.2170   -0.4810    0.9800 N   0  0  0  0  0  0  0  0  0  0  0  0
   -2.6500   -0.4880    0.9130 C   0  0  1  0  0  0  0  0  0  0  0  0
   -3.2250   -0.6070   -0.4500 C   0  0  0  0  0  0  0  0  0  0  0  0
   -2.8840   -1.7980   -1.2100 C   0  0  0  0  0  0  0  0  0  0  0  0
   -3.6100   -2.9690   -1.1800 C   0  0  0  0  0  0  0  0  0  0  0  0
   -3.1940   -4.0340   -1.9440 C   0  0  0  0  0  0  0  0  0  0  0  0
   -2.0710   -3.9960   -2.7540 C   0  0  0  0  0  0  0  0  0  0  0  0
   -1.3490   -2.8220   -2.7780 C   0  0  0  0  0  0  0  0  0  0  0  0
   -1.7630   -1.7560   -2.0140 C   0  0  0  0  0  0  0  0  0  0  0  0
   -3.2480   -1.4890    1.8450 C   0  0  0  0  0  0  0  0  0  0  0  0
   -2.5250   -2.2130    2.5780 O   0  0  0  0  0  0  0  0  0  0  0  0
   -4.6190   -1.6660    1.9460 O   0  0  0  0  0  0  0  0  0  0  0  0
   -0.7050   -1.3310    0.6790 H   0  0  0  0  0  0  0  0  0  0  0  0
   -2.9940    0.5170    1.3040 H   0  0  0  0  0  0  0  0  0  0  0  0
   -4.3420   -0.5340   -0.3490 H   0  0  0  0  0  0  0  0  0  0  0  0
   -2.9470    0.2900   -1.0600 H   0  0  0  0  0  0  0  0  0  0  0  0
   -4.5110   -3.0330   -0.5470 H   0  0  0  0  0  0  0  0  0  0  0  0
   -3.7430   -4.9740   -1.9460 H   0  0  0  0  0  0  0  0  0  0  0  0
   -1.7610   -4.8480   -3.3480 H   0  0  0  0  0  0  0  0  0  0  0  0
   -0.4490   -2.7310   -3.4000 H   0  0  0  0  0  0  0  0  0  0  0  0
   -1.1410   -0.8490   -2.0810 H   0  0  0  0  0  0  0  0  0  0  0  0
  1  8  1  0  0  0  0
  2  9  1  6  0  0  0
  2  5  1  0  0  0  0
  2  1  1  0  0  0  0
  3  2  1  0  0  0  0
  3 11  1  0  0  0  0
  4  3  1  0  0  0  0
  5  6  2  0  0  0  0
  7  1  1  0  0  0  0
 10  3  1  0  0  0  0
 12  4  1  0  0  0  0
 13 23  1  0  0  0  0
 13 21  1  0  0  0  0
 13 14  1  0  0  0  0
 14 15  1  0  0  0  0
 15 26  1  0  0  0  0
 15 27  1  0  0  0  0
 15 25  1  0  0  0  0
 16 28  1  0  0  0  0
 16 14  1  0  0  0  0
 16 17  1  0  0  0  0
 17 30  1  1  0  0  0
 18 17  1  0  0  0  0
 18  5  1  0  0  0  0
 19 17  1  0  0  0  0
 19 20  2  0  0  0  0
 22 13  1  0  0  0  0
 24 14  1  0  0  0  0
 29 16  1  0  0  0  0
 31 18  1  0  0  0  0
 32 19  1  0  0  0  0
 33 32  1  0  0  0  0
 33 45  1  1  0  0  0
 33 41  1  0  0  0  0
 34 46  1  0  0  0  0
 34 33  1  0  0  0  0
 35 36  1  0  0  0  0
 35 34  1  0  0  0  0
 36 48  1  0  0  0  0
 37 36  2  0  0  0  0
 38 37  1  0  0  0  0
 39 38  2  0  0  0  0
 39 40  1  0  0  0  0
 40 35  2  0  0  0  0
 41 43  2  0  0  0  0
 41 42  1  0  0  0  0
 44 32  1  0  0  0  0
 47 34  1  0  0  0  0
 49 37  1  0  0  0  0
 50 38  1  0  0  0  0
 51 39  1  0  0  0  0
 52 40  1  0  0  0  0
M  END
$$$$
