CLI.pdb
 OpenBabel07022418283D

 51 50  0  0  1  0  0  0  0  0999 V2000
    2.5070    0.8760    5.2340 N   0  0  0  0  0  0  0  0  0  0  0  0
    2.0370   -0.1020    4.2860 C   0  0  1  0  0  0  0  0  0  0  0  0
    0.7060   -0.6880    4.6970 C   0  0  0  0  0  0  0  0  0  0  0  0
    0.9850   -1.4750    6.3300 S   0  0  0  0  0  0  0  0  0  0  0  0
    1.9520    0.5410    2.9340 C   0  0  0  0  0  0  0  0  0  0  0  0
    2.2660    1.7660    2.7750 O   0  0  0  0  0  0  0  0  0  0  0  0
    3.5510    0.8760    5.2550 H   0  0  0  0  0  0  0  0  0  0  0  0
    2.0680    0.7510    6.1720 H   0  0  0  0  0  0  0  0  0  0  0  0
    2.7610   -0.9410    4.2800 H   0  0  0  0  0  0  0  0  0  0  0  0
   -0.0720    0.0720    4.8480 H   0  0  0  0  0  0  0  0  0  0  0  0
    0.4470   -1.4850    3.9940 H   0  0  0  0  0  0  0  0  0  0  0  0
    0.7190   -2.8530    6.2860 H   0  0  0  0  0  0  0  0  0  0  0  0
    1.3820   -0.2030   -2.6720 C   0  0  0  0  0  0  0  0  0  0  0  0
    2.5890   -0.0290   -1.7950 C   0  0  0  0  0  0  0  0  0  0  0  0
    3.6590   -1.0100   -2.3410 C   0  0  0  0  0  0  0  0  0  0  0  0
    2.3530   -0.3170   -0.3920 C   0  0  0  0  0  0  0  0  0  0  0  0
    1.4330    0.4100    0.4870 C   0  0  2  0  0  0  0  0  0  0  0  0
    1.5170   -0.2200    1.8180 N   0  0  0  0  0  0  0  0  0  0  0  0
    0.0360    0.4130    0.0560 C   0  0  0  0  0  0  0  0  0  0  0  0
   -0.4310    1.0440   -0.9250 O   0  0  0  0  0  0  0  0  0  0  0  0
    0.6360   -0.9180   -2.2730 H   0  0  0  0  0  0  0  0  0  0  0  0
    0.9730    0.7320   -3.0920 H   0  0  0  0  0  0  0  0  0  0  0  0
    1.6990   -0.7560   -3.6440 H   0  0  0  0  0  0  0  0  0  0  0  0
    3.0830    0.9650   -1.9870 H   0  0  0  0  0  0  0  0  0  0  0  0
    4.4080   -1.1540   -1.5330 H   0  0  0  0  0  0  0  0  0  0  0  0
    4.1870   -0.5870   -3.1960 H   0  0  0  0  0  0  0  0  0  0  0  0
    3.2160   -1.9630   -2.6180 H   0  0  0  0  0  0  0  0  0  0  0  0
    3.4020   -0.3990    0.0860 H   0  0  0  0  0  0  0  0  0  0  0  0
    2.0420   -1.4290   -0.2990 H   0  0  0  0  0  0  0  0  0  0  0  0
    1.8060    1.4710    0.6010 H   0  0  0  0  0  0  0  0  0  0  0  0
    1.2790   -1.2130    2.0000 H   0  0  0  0  0  0  0  0  0  0  0  0
   -2.1380   -1.7300   -2.3580 C   0  0  0  0  0  0  0  0  0  0  0  0
   -1.9660   -2.4230   -1.0490 C   0  0  0  0  0  0  0  0  0  0  0  0
   -2.7700   -1.7490    0.0140 C   0  0  2  0  0  0  0  0  0  0  0  0
   -4.2290   -1.8020   -0.4250 C   0  0  0  0  0  0  0  0  0  0  0  0
   -2.3250   -0.3380    0.3290 C   0  0  2  0  0  0  0  0  0  0  0  0
   -0.9610   -0.3600    0.7770 N   0  0  0  0  0  0  0  0  0  0  0  0
   -3.2480    0.1370    1.4140 C   0  0  0  0  0  0  0  0  0  0  0  0
   -2.8050    0.4510    2.5430 O   0  0  0  0  0  0  0  0  0  0  0  0
   -4.6080    0.2370    1.1900 O   0  0  0  0  0  0  0  0  0  0  0  0
   -1.3400   -2.0220   -3.0730 H   0  0  0  0  0  0  0  0  0  0  0  0
   -2.1200   -0.6260   -2.3020 H   0  0  0  0  0  0  0  0  0  0  0  0
   -3.0950   -2.0020   -2.8710 H   0  0  0  0  0  0  0  0  0  0  0  0
   -0.8900   -2.5440   -0.7640 H   0  0  0  0  0  0  0  0  0  0  0  0
   -2.3760   -3.4580   -1.1490 H   0  0  0  0  0  0  0  0  0  0  0  0
   -2.6700   -2.3460    0.9730 H   0  0  0  0  0  0  0  0  0  0  0  0
   -4.8960   -1.9860    0.4650 H   0  0  0  0  0  0  0  0  0  0  0  0
   -4.5720   -0.8530   -0.8730 H   0  0  0  0  0  0  0  0  0  0  0  0
   -4.3960   -2.6400   -1.1580 H   0  0  0  0  0  0  0  0  0  0  0  0
   -2.5020    0.2830   -0.5460 H   0  0  0  0  0  0  0  0  0  0  0  0
   -0.6550   -0.8990    1.5920 H   0  0  0  0  0  0  0  0  0  0  0  0
  1  7  1  0  0  0  0
  1  8  1  0  0  0  0
  2  9  1  6  0  0  0
  2  3  1  0  0  0  0
  2  1  1  0  0  0  0
  3 10  1  0  0  0  0
  3  4  1  0  0  0  0
  5  2  1  0  0  0  0
  6  5  2  0  0  0  0
 11  3  1  0  0  0  0
 12  4  1  0  0  0  0
 13 21  1  0  0  0  0
 13 14  1  0  0  0  0
 14 16  1  0  0  0  0
 15 14  1  0  0  0  0
 15 25  1  0  0  0  0
 16 29  1  0  0  0  0
 16 28  1  0  0  0  0
 16 17  1  0  0  0  0
 17 30  1  1  0  0  0
 17 18  1  0  0  0  0
 18 31  1  0  0  0  0
 18  5  1  0  0  0  0
 19 17  1  0  0  0  0
 19 37  1  0  0  0  0
 20 19  2  0  0  0  0
 22 13  1  0  0  0  0
 23 13  1  0  0  0  0
 24 14  1  0  0  0  0
 26 15  1  0  0  0  0
 27 15  1  0  0  0  0
 32 42  1  0  0  0  0
 32 33  1  0  0  0  0
 33 44  1  0  0  0  0
 33 34  1  0  0  0  0
 34 36  1  0  0  0  0
 34 46  1  1  0  0  0
 35 34  1  0  0  0  0
 35 47  1  0  0  0  0
 36 50  1  6  0  0  0
 36 37  1  0  0  0  0
 36 38  1  0  0  0  0
 37 51  1  0  0  0  0
 38 39  1  0  0  0  0
 40 38  2  0  0  0  0
 41 32  1  0  0  0  0
 43 32  1  0  0  0  0
 45 33  1  0  0  0  0
 48 35  1  0  0  0  0
 49 35  1  0  0  0  0
M  END
$$$$
