CLK.pdb
 OpenBabel07022418283D

 53 52  0  0  1  0  0  0  0  0999 V2000
    3.5040   -0.9210    5.5550 N   0  0  0  0  0  0  0  0  0  0  0  0
    3.4110   -1.4900    4.2050 C   0  0  1  0  0  0  0  0  0  0  0  0
    2.8910   -2.9020    4.4130 C   0  0  0  0  0  0  0  0  0  0  0  0
    2.6890   -3.8220    2.8900 S   0  0  0  0  0  0  0  0  0  0  0  0
    2.5180   -0.6400    3.4170 C   0  0  0  0  0  0  0  0  0  0  0  0
    1.9610    0.3450    3.9640 O   0  0  0  0  0  0  0  0  0  0  0  0
    3.7750   -1.6530    6.2360 H   0  0  0  0  0  0  0  0  0  0  0  0
    2.5660   -0.5640    5.8420 H   0  0  0  0  0  0  0  0  0  0  0  0
    4.4400   -1.5470    3.8230 H   0  0  0  0  0  0  0  0  0  0  0  0
    3.6850   -3.4210    5.0180 H   0  0  0  0  0  0  0  0  0  0  0  0
    1.9960   -2.8870    5.0510 H   0  0  0  0  0  0  0  0  0  0  0  0
    1.3630   -4.3430    2.8740 H   0  0  0  0  0  0  0  0  0  0  0  0
    3.1890    1.3350   -1.7540 C   0  0  0  0  0  0  0  0  0  0  0  0
    2.6700    0.2010   -0.8430 C   0  0  0  0  0  0  0  0  0  0  0  0
    3.8940   -0.5870   -0.4440 C   0  0  0  0  0  0  0  0  0  0  0  0
    1.9630    0.8740    0.2710 C   0  0  0  0  0  0  0  0  0  0  0  0
    1.3370    0.0190    1.3140 C   0  0  2  0  0  0  0  0  0  0  0  0
    2.2220   -0.8460    2.0400 N   0  0  0  0  0  0  0  0  0  0  0  0
    0.2030   -0.7930    0.7840 C   0  0  0  0  0  0  0  0  0  0  0  0
    0.1960   -2.0220    1.0350 O   0  0  0  0  0  0  0  0  0  0  0  0
    2.5430    2.2420   -1.6390 H   0  0  0  0  0  0  0  0  0  0  0  0
    3.2560    1.0090   -2.7930 H   0  0  0  0  0  0  0  0  0  0  0  0
    4.2010    1.6500   -1.4250 H   0  0  0  0  0  0  0  0  0  0  0  0
    2.0280   -0.4140   -1.4940 H   0  0  0  0  0  0  0  0  0  0  0  0
    4.2830   -0.2590    0.5400 H   0  0  0  0  0  0  0  0  0  0  0  0
    4.7340   -0.3430   -1.1640 H   0  0  0  0  0  0  0  0  0  0  0  0
    3.7300   -1.6830   -0.5230 H   0  0  0  0  0  0  0  0  0  0  0  0
    1.1720    1.5590   -0.1080 H   0  0  0  0  0  0  0  0  0  0  0  0
    2.7070    1.5710    0.7560 H   0  0  0  0  0  0  0  0  0  0  0  0
    0.9140    0.7470    2.0820 H   0  0  0  0  0  0  0  0  0  0  0  0
    2.6680   -1.6520    1.5860 H   0  0  0  0  0  0  0  0  0  0  0  0
   -0.8430   -0.2780    0.0310 N   0  0  0  0  0  0  0  0  0  0  0  0
   -1.9790   -1.1410   -0.4900 C   0  0  1  0  0  0  0  0  0  0  0  0
   -3.2160   -0.6130    0.1490 C   0  0  0  0  0  0  0  0  0  0  0  0
   -4.4620   -1.3130   -0.1100 C   0  0  0  0  0  0  0  0  0  0  0  0
   -5.0480   -1.4780   -1.4430 C   0  0  0  0  0  0  0  0  0  0  0  0
   -5.3160   -0.2140   -2.2150 C   0  0  0  0  0  0  0  0  0  0  0  0
   -6.2210    0.6820   -1.5700 N   0  0  0  0  0  0  0  0  0  0  0  0
   -1.8590   -0.9330   -1.9410 C   0  0  0  0  0  0  0  0  0  0  0  0
   -1.0640   -0.0110   -2.3520 O   0  0  0  0  0  0  0  0  0  0  0  0
   -2.4940   -1.6120   -2.9380 O   0  0  0  0  0  0  0  0  0  0  0  0
   -0.8990    0.7150   -0.2100 H   0  0  0  0  0  0  0  0  0  0  0  0
   -1.8240   -2.1760   -0.1790 H   0  0  0  0  0  0  0  0  0  0  0  0
   -3.2940    0.5130   -0.0180 H   0  0  0  0  0  0  0  0  0  0  0  0
   -3.0190   -0.7010    1.2790 H   0  0  0  0  0  0  0  0  0  0  0  0
   -5.2990   -0.9650    0.5930 H   0  0  0  0  0  0  0  0  0  0  0  0
   -4.3310   -2.3910    0.2950 H   0  0  0  0  0  0  0  0  0  0  0  0
   -6.1400   -1.8640   -1.2160 H   0  0  0  0  0  0  0  0  0  0  0  0
   -4.7050   -2.2650   -2.1010 H   0  0  0  0  0  0  0  0  0  0  0  0
   -5.8020   -0.5360   -3.1800 H   0  0  0  0  0  0  0  0  0  0  0  0
   -4.4110    0.3260   -2.5000 H   0  0  0  0  0  0  0  0  0  0  0  0
   -5.8740    1.6470   -1.4700 H   0  0  0  0  0  0  0  0  0  0  0  0
   -6.7380    0.3020   -0.7720 H   0  0  0  0  0  0  0  0  0  0  0  0
  1  8  1  0  0  0  0
  1  7  1  0  0  0  0
  2  9  1  6  0  0  0
  2  3  1  0  0  0  0
  2  1  1  0  0  0  0
  3 10  1  0  0  0  0
  3 11  1  0  0  0  0
  4  3  1  0  0  0  0
  5  6  2  0  0  0  0
  5  2  1  0  0  0  0
 12  4  1  0  0  0  0
 13 21  1  0  0  0  0
 13 23  1  0  0  0  0
 13 14  1  0  0  0  0
 14 15  1  0  0  0  0
 14 16  1  0  0  0  0
 15 25  1  0  0  0  0
 16 29  1  0  0  0  0
 16 17  1  0  0  0  0
 17 18  1  0  0  0  0
 17 30  1  1  0  0  0
 18  5  1  0  0  0  0
 19 20  2  0  0  0  0
 19 17  1  0  0  0  0
 22 13  1  0  0  0  0
 24 14  1  0  0  0  0
 26 15  1  0  0  0  0
 27 15  1  0  0  0  0
 28 16  1  0  0  0  0
 31 18  1  0  0  0  0
 32 19  1  0  0  0  0
 33 43  1  1  0  0  0
 33 32  1  0  0  0  0
 33 34  1  0  0  0  0
 34 45  1  0  0  0  0
 35 34  1  0  0  0  0
 35 47  1  0  0  0  0
 35 46  1  0  0  0  0
 36 48  1  0  0  0  0
 36 35  1  0  0  0  0
 37 38  1  0  0  0  0
 37 36  1  0  0  0  0
 38 52  1  0  0  0  0
 38 53  1  0  0  0  0
 39 33  1  0  0  0  0
 40 39  1  0  0  0  0
 41 39  2  0  0  0  0
 42 32  1  0  0  0  0
 44 34  1  0  0  0  0
 49 36  1  0  0  0  0
 50 37  1  0  0  0  0
 51 37  1  0  0  0  0
M  END
$$$$
