CLM.pdb
 OpenBabel07022418283D

 49 48  0  0  1  0  0  0  0  0999 V2000
    1.2750   -1.4650    3.5380 N   0  0  0  0  0  0  0  0  0  0  0  0
    2.5380   -1.1880    2.8920 C   0  0  1  0  0  0  0  0  0  0  0  0
    3.5520   -2.2770    3.1950 C   0  0  0  0  0  0  0  0  0  0  0  0
    5.1040   -1.8420    2.3420 S   0  0  0  0  0  0  0  0  0  0  0  0
    2.3800   -0.9860    1.4300 C   0  0  0  0  0  0  0  0  0  0  0  0
    3.4140   -0.7370    0.7590 O   0  0  0  0  0  0  0  0  0  0  0  0
    1.4020   -1.2690    4.5520 H   0  0  0  0  0  0  0  0  0  0  0  0
    1.0870   -2.4930    3.4560 H   0  0  0  0  0  0  0  0  0  0  0  0
    2.9310   -0.2510    3.3300 H   0  0  0  0  0  0  0  0  0  0  0  0
    3.7770   -2.2230    4.2870 H   0  0  0  0  0  0  0  0  0  0  0  0
    3.1910   -3.2830    2.9160 H   0  0  0  0  0  0  0  0  0  0  0  0
    5.7630   -3.0450    2.0220 H   0  0  0  0  0  0  0  0  0  0  0  0
   -0.5830   -3.3210   -3.0840 C   0  0  0  0  0  0  0  0  0  0  0  0
    0.0560   -1.9830   -2.6450 C   0  0  0  0  0  0  0  0  0  0  0  0
    1.3580   -1.8770   -3.3950 C   0  0  0  0  0  0  0  0  0  0  0  0
    0.2690   -2.1050   -1.1630 C   0  0  0  0  0  0  0  0  0  0  0  0
    0.9010   -0.8910   -0.5610 C   0  0  2  0  0  0  0  0  0  0  0  0
    1.0860   -1.0840    0.8700 N   0  0  0  0  0  0  0  0  0  0  0  0
    0.0200    0.2820   -0.7990 C   0  0  0  0  0  0  0  0  0  0  0  0
   -0.2810    0.7400   -1.9220 O   0  0  0  0  0  0  0  0  0  0  0  0
   -1.2640   -3.7050   -2.3220 H   0  0  0  0  0  0  0  0  0  0  0  0
   -1.0600   -3.1450   -4.0660 H   0  0  0  0  0  0  0  0  0  0  0  0
    0.2250   -4.0670   -3.2510 H   0  0  0  0  0  0  0  0  0  0  0  0
   -0.6880   -1.2160   -2.9430 H   0  0  0  0  0  0  0  0  0  0  0  0
    2.2410   -2.0270   -2.7420 H   0  0  0  0  0  0  0  0  0  0  0  0
    1.4240   -0.8480   -3.8210 H   0  0  0  0  0  0  0  0  0  0  0  0
    1.4310   -2.6220   -4.2120 H   0  0  0  0  0  0  0  0  0  0  0  0
    0.8950   -3.0250   -1.0250 H   0  0  0  0  0  0  0  0  0  0  0  0
   -0.6980   -2.3540   -0.6740 H   0  0  0  0  0  0  0  0  0  0  0  0
    1.9020   -0.7370   -0.9990 H   0  0  0  0  0  0  0  0  0  0  0  0
    0.2730   -1.2990    1.4830 H   0  0  0  0  0  0  0  0  0  0  0  0
   -2.9040   -0.7100    3.9980 C   0  0  0  0  0  0  0  0  0  0  0  0
   -2.3840   -0.2470    2.3250 S   0  0  0  0  0  0  0  0  0  0  0  0
   -3.1470    1.2860    1.8380 C   0  0  0  0  0  0  0  0  0  0  0  0
   -2.8150    1.7900    0.4930 C   0  0  0  0  0  0  0  0  0  0  0  0
   -1.4020    2.1140    0.1840 C   0  0  2  0  0  0  0  0  0  0  0  0
   -0.5510    0.9770    0.3150 N   0  0  0  0  0  0  0  0  0  0  0  0
   -0.8930    3.3200    0.8450 C   0  0  0  0  0  0  0  0  0  0  0  0
   -1.5450    4.3870    0.8020 O   0  0  0  0  0  0  0  0  0  0  0  0
    0.3070    3.3310    1.5320 O   0  0  0  0  0  0  0  0  0  0  0  0
   -2.1120   -1.3530    4.4760 H   0  0  0  0  0  0  0  0  0  0  0  0
   -3.0500    0.1930    4.6540 H   0  0  0  0  0  0  0  0  0  0  0  0
   -3.8680   -1.2560    3.9010 H   0  0  0  0  0  0  0  0  0  0  0  0
   -2.9970    2.0230    2.6580 H   0  0  0  0  0  0  0  0  0  0  0  0
   -4.2650    1.1110    1.8470 H   0  0  0  0  0  0  0  0  0  0  0  0
   -3.5050    2.6270    0.2340 H   0  0  0  0  0  0  0  0  0  0  0  0
   -3.1090    0.9710   -0.2360 H   0  0  0  0  0  0  0  0  0  0  0  0
   -1.3960    2.3620   -0.9290 H   0  0  0  0  0  0  0  0  0  0  0  0
   -0.3120    0.6250    1.2560 H   0  0  0  0  0  0  0  0  0  0  0  0
  1  7  1  0  0  0  0
  2  3  1  0  0  0  0
  2  9  1  1  0  0  0
  2  1  1  0  0  0  0
  3 10  1  0  0  0  0
  4  3  1  0  0  0  0
  5  2  1  0  0  0  0
  6  5  2  0  0  0  0
  8  1  1  0  0  0  0
 11  3  1  0  0  0  0
 12  4  1  0  0  0  0
 13 14  1  0  0  0  0
 13 21  1  0  0  0  0
 14 16  1  0  0  0  0
 15 25  1  0  0  0  0
 15 14  1  0  0  0  0
 16 28  1  0  0  0  0
 16 29  1  0  0  0  0
 16 17  1  0  0  0  0
 17 30  1  6  0  0  0
 17 18  1  0  0  0  0
 18  5  1  0  0  0  0
 18 31  1  0  0  0  0
 19 17  1  0  0  0  0
 19 37  1  0  0  0  0
 20 19  2  0  0  0  0
 22 13  1  0  0  0  0
 23 13  1  0  0  0  0
 24 14  1  0  0  0  0
 26 15  1  0  0  0  0
 27 15  1  0  0  0  0
 32 41  1  0  0  0  0
 32 42  1  0  0  0  0
 33 32  1  0  0  0  0
 34 45  1  0  0  0  0
 34 33  1  0  0  0  0
 34 44  1  0  0  0  0
 35 34  1  0  0  0  0
 36 48  1  6  0  0  0
 36 37  1  0  0  0  0
 36 35  1  0  0  0  0
 36 38  1  0  0  0  0
 37 49  1  0  0  0  0
 38 40  1  0  0  0  0
 39 38  2  0  0  0  0
 43 32  1  0  0  0  0
 46 35  1  0  0  0  0
 47 35  1  0  0  0  0
M  END
$$$$
