CLN.pdb
 OpenBabel07022418283D

 46 45  0  0  1  0  0  0  0  0999 V2000
    3.2020    0.9040    4.3640 N   0  0  0  0  0  0  0  0  0  0  0  0
    2.6510   -0.1940    3.5530 C   0  0  1  0  0  0  0  0  0  0  0  0
    1.6530   -0.8870    4.4180 C   0  0  0  0  0  0  0  0  0  0  0  0
    0.8370   -2.2900    3.6470 S   0  0  0  0  0  0  0  0  0  0  0  0
    2.1120    0.4240    2.3330 C   0  0  0  0  0  0  0  0  0  0  0  0
    2.1850    1.6870    2.1230 O   0  0  0  0  0  0  0  0  0  0  0  0
    2.3440    1.4240    4.7130 H   0  0  0  0  0  0  0  0  0  0  0  0
    3.7440    0.5070    5.1480 H   0  0  0  0  0  0  0  0  0  0  0  0
    3.5030   -0.8750    3.3720 H   0  0  0  0  0  0  0  0  0  0  0  0
    2.1140   -1.2170    5.3730 H   0  0  0  0  0  0  0  0  0  0  0  0
    0.8420   -0.1770    4.7300 H   0  0  0  0  0  0  0  0  0  0  0  0
   -0.3150   -2.6780    4.3390 H   0  0  0  0  0  0  0  0  0  0  0  0
    2.4360   -0.3090   -3.3700 C   0  0  0  0  0  0  0  0  0  0  0  0
    1.4590    0.3670   -2.3910 C   0  0  0  0  0  0  0  0  0  0  0  0
    1.6740    1.8480   -2.5170 C   0  0  0  0  0  0  0  0  0  0  0  0
    1.7950   -0.1670   -1.0480 C   0  0  0  0  0  0  0  0  0  0  0  0
    0.9600    0.3650    0.0920 C   0  0  2  0  0  0  0  0  0  0  0  0
    1.4710   -0.2940    1.2830 N   0  0  0  0  0  0  0  0  0  0  0  0
   -0.4800    0.2220   -0.0740 C   0  0  0  0  0  0  0  0  0  0  0  0
   -1.0550    0.7610   -1.0500 O   0  0  0  0  0  0  0  0  0  0  0  0
    2.0770   -1.3480   -3.5440 H   0  0  0  0  0  0  0  0  0  0  0  0
    2.4490    0.2210   -4.3350 H   0  0  0  0  0  0  0  0  0  0  0  0
    3.4330   -0.3270   -2.8780 H   0  0  0  0  0  0  0  0  0  0  0  0
    0.4180    0.1110   -2.6850 H   0  0  0  0  0  0  0  0  0  0  0  0
    1.0320    2.4230   -1.8160 H   0  0  0  0  0  0  0  0  0  0  0  0
    1.3100    2.1260   -3.5470 H   0  0  0  0  0  0  0  0  0  0  0  0
    2.7380    2.0880   -2.4320 H   0  0  0  0  0  0  0  0  0  0  0  0
    1.6310   -1.2730   -1.0590 H   0  0  0  0  0  0  0  0  0  0  0  0
    2.8690    0.0300   -0.8280 H   0  0  0  0  0  0  0  0  0  0  0  0
    1.2070    1.4410    0.1860 H   0  0  0  0  0  0  0  0  0  0  0  0
    1.3600   -1.3230    1.3580 H   0  0  0  0  0  0  0  0  0  0  0  0
   -3.4310   -4.2530    1.5070 N   0  0  0  0  0  0  0  0  0  0  0  0
   -3.0210   -2.8950    1.5280 C   0  0  0  0  0  0  0  0  0  0  0  0
   -2.4390   -2.4580    2.5480 O   0  0  0  0  0  0  0  0  0  0  0  0
   -3.2640   -2.0020    0.3930 C   0  0  0  0  0  0  0  0  0  0  0  0
   -2.7610   -0.6100    0.5880 C   0  0  2  0  0  0  0  0  0  0  0  0
   -1.3390   -0.5100    0.8130 N   0  0  0  0  0  0  0  0  0  0  0  0
   -3.5050    0.0920    1.6640 C   0  0  0  0  0  0  0  0  0  0  0  0
   -4.7570    0.1050    1.6200 O   0  0  0  0  0  0  0  0  0  0  0  0
   -2.8630    0.7220    2.6940 O   0  0  0  0  0  0  0  0  0  0  0  0
   -4.1040   -4.5570    0.7470 H   0  0  0  0  0  0  0  0  0  0  0  0
   -3.1270   -4.9750    2.1720 H   0  0  0  0  0  0  0  0  0  0  0  0
   -2.8460   -2.4750   -0.5200 H   0  0  0  0  0  0  0  0  0  0  0  0
   -4.3700   -1.9180    0.1740 H   0  0  0  0  0  0  0  0  0  0  0  0
   -3.0200   -0.0440   -0.3560 H   0  0  0  0  0  0  0  0  0  0  0  0
   -0.9110   -0.9680    1.6270 H   0  0  0  0  0  0  0  0  0  0  0  0
  1  7  1  0  0  0  0
  1  8  1  0  0  0  0
  2  9  1  6  0  0  0
  2  1  1  0  0  0  0
  2  3  1  0  0  0  0
  3 11  1  0  0  0  0
  3 10  1  0  0  0  0
  4 12  1  0  0  0  0
  4  3  1  0  0  0  0
  5  2  1  0  0  0  0
  6  5  2  0  0  0  0
 13 23  1  0  0  0  0
 13 14  1  0  0  0  0
 14 16  1  0  0  0  0
 15 27  1  0  0  0  0
 15 14  1  0  0  0  0
 15 25  1  0  0  0  0
 16 29  1  0  0  0  0
 16 17  1  0  0  0  0
 17 30  1  1  0  0  0
 17 18  1  0  0  0  0
 18 31  1  0  0  0  0
 18  5  1  0  0  0  0
 19 17  1  0  0  0  0
 19 37  1  0  0  0  0
 20 19  2  0  0  0  0
 21 13  1  0  0  0  0
 22 13  1  0  0  0  0
 24 14  1  0  0  0  0
 26 15  1  0  0  0  0
 28 16  1  0  0  0  0
 32 33  1  0  0  0  0
 32 42  1  0  0  0  0
 33 34  2  0  0  0  0
 35 36  1  0  0  0  0
 35 33  1  0  0  0  0
 36 45  1  6  0  0  0
 36 37  1  0  0  0  0
 36 38  1  0  0  0  0
 37 46  1  0  0  0  0
 38 40  1  0  0  0  0
 39 38  2  0  0  0  0
 41 32  1  0  0  0  0
 43 35  1  0  0  0  0
 44 35  1  0  0  0  0
M  END
$$$$
