CLQ.pdb
 OpenBabel07022418283D

 49 48  0  0  1  0  0  0  0  0999 V2000
    0.8990   -3.4220    4.9350 N   0  0  0  0  0  0  0  0  0  0  0  0
    1.5330   -3.3710    3.6090 C   0  0  1  0  0  0  0  0  0  0  0  0
    1.0380   -4.5980    2.8740 C   0  0  0  0  0  0  0  0  0  0  0  0
    1.7050   -4.7370    1.2000 S   0  0  0  0  0  0  0  0  0  0  0  0
    1.1540   -2.1030    2.9660 C   0  0  0  0  0  0  0  0  0  0  0  0
    0.3570   -1.3370    3.5690 O   0  0  0  0  0  0  0  0  0  0  0  0
    0.7450   -2.4570    5.2730 H   0  0  0  0  0  0  0  0  0  0  0  0
    0.0480   -4.0190    4.9300 H   0  0  0  0  0  0  0  0  0  0  0  0
    2.6170   -3.4820    3.7630 H   0  0  0  0  0  0  0  0  0  0  0  0
   -0.0710   -4.6410    2.8840 H   0  0  0  0  0  0  0  0  0  0  0  0
    1.3910   -5.4740    3.4490 H   0  0  0  0  0  0  0  0  0  0  0  0
    1.4020   -6.0340    0.7360 H   0  0  0  0  0  0  0  0  0  0  0  0
    1.6060    2.7920    1.1660 C   0  0  0  0  0  0  0  0  0  0  0  0
    2.4950    1.7740    0.5110 C   0  0  0  0  0  0  0  0  0  0  0  0
    2.5510    1.8500   -0.9880 C   0  0  0  0  0  0  0  0  0  0  0  0
    2.4220    0.4140    1.0350 C   0  0  0  0  0  0  0  0  0  0  0  0
    1.2220   -0.3910    1.0850 C   0  0  2  0  0  0  0  0  0  0  0  0
    1.6390   -1.6930    1.7000 N   0  0  0  0  0  0  0  0  0  0  0  0
    0.4270   -0.7560   -0.0460 C   0  0  0  0  0  0  0  0  0  0  0  0
    0.2610   -1.9560   -0.4750 O   0  0  0  0  0  0  0  0  0  0  0  0
    0.8610    3.1260    0.3830 H   0  0  0  0  0  0  0  0  0  0  0  0
    2.1200    3.7310    1.4620 H   0  0  0  0  0  0  0  0  0  0  0  0
    1.1010    2.4150    2.0710 H   0  0  0  0  0  0  0  0  0  0  0  0
    3.5510    2.1480    0.8270 H   0  0  0  0  0  0  0  0  0  0  0  0
    3.5890    2.0870   -1.3830 H   0  0  0  0  0  0  0  0  0  0  0  0
    1.9530    2.7240   -1.3770 H   0  0  0  0  0  0  0  0  0  0  0  0
    2.3070    0.9010   -1.5070 H   0  0  0  0  0  0  0  0  0  0  0  0
    2.8640    0.4080    2.0900 H   0  0  0  0  0  0  0  0  0  0  0  0
    3.2240   -0.1830    0.4820 H   0  0  0  0  0  0  0  0  0  0  0  0
    0.5190    0.0360    1.8700 H   0  0  0  0  0  0  0  0  0  0  0  0
    2.3020   -2.2800    1.1530 H   0  0  0  0  0  0  0  0  0  0  0  0
   -4.9440   -0.9680    1.2120 N   0  0  0  0  0  0  0  0  0  0  0  0
   -4.2920   -0.3760    0.0960 C   0  0  0  0  0  0  0  0  0  0  0  0
   -4.9880    0.4530   -0.5750 O   0  0  0  0  0  0  0  0  0  0  0  0
   -2.9000   -0.6830   -0.2840 C   0  0  0  0  0  0  0  0  0  0  0  0
   -2.5430    0.1200   -1.5030 C   0  0  0  0  0  0  0  0  0  0  0  0
   -1.0970   -0.1620   -1.9450 C   0  0  2  0  0  0  0  0  0  0  0  0
   -0.2700    0.2240   -0.8030 N   0  0  0  0  0  0  0  0  0  0  0  0
   -0.8050    0.6630   -3.1000 C   0  0  0  0  0  0  0  0  0  0  0  0
   -1.4050    0.4840   -4.2150 O   0  0  0  0  0  0  0  0  0  0  0  0
    0.1190    1.6750   -3.0750 O   0  0  0  0  0  0  0  0  0  0  0  0
   -5.1310   -1.9860    1.3290 H   0  0  0  0  0  0  0  0  0  0  0  0
   -5.2610   -0.3330    1.9730 H   0  0  0  0  0  0  0  0  0  0  0  0
   -2.2150   -0.4360    0.5460 H   0  0  0  0  0  0  0  0  0  0  0  0
   -2.8610   -1.7770   -0.5120 H   0  0  0  0  0  0  0  0  0  0  0  0
   -3.1880   -0.1160   -2.3510 H   0  0  0  0  0  0  0  0  0  0  0  0
   -2.5650    1.1960   -1.2360 H   0  0  0  0  0  0  0  0  0  0  0  0
   -1.0350   -1.2490   -2.1560 H   0  0  0  0  0  0  0  0  0  0  0  0
   -0.2470    1.2480   -0.6070 H   0  0  0  0  0  0  0  0  0  0  0  0
  1  7  1  0  0  0  0
  2  9  1  1  0  0  0
  2  1  1  0  0  0  0
  3 10  1  0  0  0  0
  3 11  1  0  0  0  0
  3  2  1  0  0  0  0
  4  3  1  0  0  0  0
  5  6  2  0  0  0  0
  5  2  1  0  0  0  0
  8  1  1  0  0  0  0
 12  4  1  0  0  0  0
 13 22  1  0  0  0  0
 13 23  1  0  0  0  0
 14 24  1  0  0  0  0
 14 16  1  0  0  0  0
 14 13  1  0  0  0  0
 15 14  1  0  0  0  0
 16 17  1  0  0  0  0
 16 28  1  0  0  0  0
 17 18  1  0  0  0  0
 17 30  1  1  0  0  0
 18  5  1  0  0  0  0
 19 17  1  0  0  0  0
 20 19  2  0  0  0  0
 21 13  1  0  0  0  0
 25 15  1  0  0  0  0
 26 15  1  0  0  0  0
 27 15  1  0  0  0  0
 29 16  1  0  0  0  0
 31 18  1  0  0  0  0
 32 42  1  0  0  0  0
 32 43  1  0  0  0  0
 33 32  1  0  0  0  0
 34 33  2  0  0  0  0
 35 33  1  0  0  0  0
 35 44  1  0  0  0  0
 36 47  1  0  0  0  0
 36 35  1  0  0  0  0
 37 48  1  6  0  0  0
 37 36  1  0  0  0  0
 37 38  1  0  0  0  0
 38 49  1  0  0  0  0
 38 19  1  0  0  0  0
 39 41  1  0  0  0  0
 39 37  1  0  0  0  0
 40 39  2  0  0  0  0
 45 35  1  0  0  0  0
 46 36  1  0  0  0  0
M  END
$$$$
