CLR.pdb
 OpenBabel07022418283D

 55 54  0  0  1  0  0  0  0  0999 V2000
    2.1240   -1.1920    4.8450 N   0  0  0  0  0  0  0  0  0  0  0  0
    2.1480   -2.2320    3.8100 C   0  0  1  0  0  0  0  0  0  0  0  0
    1.1530   -3.3130    4.0960 C   0  0  0  0  0  0  0  0  0  0  0  0
    1.2190   -4.5620    2.8030 S   0  0  0  0  0  0  0  0  0  0  0  0
    1.9870   -1.6280    2.4590 C   0  0  0  0  0  0  0  0  0  0  0  0
    1.9910   -2.4200    1.4980 O   0  0  0  0  0  0  0  0  0  0  0  0
    2.1320   -1.6350    5.7860 H   0  0  0  0  0  0  0  0  0  0  0  0
    2.8320   -0.4720    4.6850 H   0  0  0  0  0  0  0  0  0  0  0  0
    3.1620   -2.6790    3.8590 H   0  0  0  0  0  0  0  0  0  0  0  0
    1.4580   -3.7990    5.0460 H   0  0  0  0  0  0  0  0  0  0  0  0
    0.1280   -2.9280    4.2690 H   0  0  0  0  0  0  0  0  0  0  0  0
    2.4540   -4.6120    2.1640 H   0  0  0  0  0  0  0  0  0  0  0  0
    4.4500    0.1480   -1.7910 C   0  0  0  0  0  0  0  0  0  0  0  0
    3.0320    0.5240   -1.2810 C   0  0  0  0  0  0  0  0  0  0  0  0
    2.9620    2.0040   -1.4750 C   0  0  0  0  0  0  0  0  0  0  0  0
    2.9320    0.0570    0.1210 C   0  0  0  0  0  0  0  0  0  0  0  0
    1.6800    0.2910    0.8700 C   0  0  2  0  0  0  0  0  0  0  0  0
    1.8370   -0.2590    2.2250 N   0  0  0  0  0  0  0  0  0  0  0  0
    0.4360   -0.2470    0.3230 C   0  0  0  0  0  0  0  0  0  0  0  0
   -0.2070   -1.1370    0.9950 O   0  0  0  0  0  0  0  0  0  0  0  0
    5.1330    0.4690   -0.9780 H   0  0  0  0  0  0  0  0  0  0  0  0
    4.4720   -0.9530   -1.8200 H   0  0  0  0  0  0  0  0  0  0  0  0
    4.6560    0.6330   -2.7520 H   0  0  0  0  0  0  0  0  0  0  0  0
    2.3920   -0.0610   -2.0060 H   0  0  0  0  0  0  0  0  0  0  0  0
    2.1180    2.4880   -0.9600 H   0  0  0  0  0  0  0  0  0  0  0  0
    2.8210    2.1880   -2.5670 H   0  0  0  0  0  0  0  0  0  0  0  0
    3.9510    2.4300   -1.1630 H   0  0  0  0  0  0  0  0  0  0  0  0
    3.7350    0.6230    0.6910 H   0  0  0  0  0  0  0  0  0  0  0  0
    3.2020   -1.0400    0.1110 H   0  0  0  0  0  0  0  0  0  0  0  0
    1.5400    1.4060    1.0180 H   0  0  0  0  0  0  0  0  0  0  0  0
    1.8360    0.3890    3.0350 H   0  0  0  0  0  0  0  0  0  0  0  0
   -5.2980   -0.7410    2.7180 N   0  0  0  0  0  0  0  0  0  0  0  0
   -4.9400   -1.3530    1.4910 C   0  0  0  0  0  0  0  0  0  0  0  0
   -5.0160   -2.6150    1.2870 N   0  0  0  0  0  0  0  0  0  0  0  0
   -4.4720   -0.5020    0.4350 N   0  0  0  0  0  0  0  0  0  0  0  0
   -4.3010   -1.0230   -0.8980 C   0  0  0  0  0  0  0  0  0  0  0  0
   -3.7980    0.0300   -1.8290 C   0  0  0  0  0  0  0  0  0  0  0  0
   -2.4730    0.5780   -1.4050 C   0  0  0  0  0  0  0  0  0  0  0  0
   -1.3870   -0.4890   -1.3370 C   0  0  2  0  0  0  0  0  0  0  0  0
   -0.1400    0.1380   -0.9130 N   0  0  0  0  0  0  0  0  0  0  0  0
   -1.1950   -1.1760   -2.6210 C   0  0  0  0  0  0  0  0  0  0  0  0
   -0.0670   -1.1400   -3.1870 O   0  0  0  0  0  0  0  0  0  0  0  0
   -2.2130   -1.8610   -3.2290 O   0  0  0  0  0  0  0  0  0  0  0  0
   -5.5530    0.2590    2.7830 H   0  0  0  0  0  0  0  0  0  0  0  0
   -5.2990   -1.3440    3.5910 H   0  0  0  0  0  0  0  0  0  0  0  0
   -5.3550   -3.2500    2.0460 H   0  0  0  0  0  0  0  0  0  0  0  0
   -4.2510    0.4970    0.6120 H   0  0  0  0  0  0  0  0  0  0  0  0
   -5.2710   -1.4300   -1.2640 H   0  0  0  0  0  0  0  0  0  0  0  0
   -3.6140   -1.9040   -0.8700 H   0  0  0  0  0  0  0  0  0  0  0  0
   -4.5210    0.8950   -1.7500 H   0  0  0  0  0  0  0  0  0  0  0  0
   -3.8580   -0.2710   -2.8900 H   0  0  0  0  0  0  0  0  0  0  0  0
   -2.0870    1.3340   -2.1260 H   0  0  0  0  0  0  0  0  0  0  0  0
   -2.5620    0.9870   -0.3930 H   0  0  0  0  0  0  0  0  0  0  0  0
   -1.7180   -1.2180   -0.5850 H   0  0  0  0  0  0  0  0  0  0  0  0
    0.3290    0.8690   -1.4890 H   0  0  0  0  0  0  0  0  0  0  0  0
  1  7  1  0  0  0  0
  2  9  1  1  0  0  0
  2  3  1  0  0  0  0
  2  1  1  0  0  0  0
  3 11  1  0  0  0  0
  3 10  1  0  0  0  0
  4  3  1  0  0  0  0
  5  2  1  0  0  0  0
  6  5  2  0  0  0  0
  8  1  1  0  0  0  0
 12  4  1  0  0  0  0
 13 14  1  0  0  0  0
 13 21  1  0  0  0  0
 14 16  1  0  0  0  0
 15 14  1  0  0  0  0
 15 27  1  0  0  0  0
 15 25  1  0  0  0  0
 16 28  1  0  0  0  0
 16 17  1  0  0  0  0
 17 30  1  1  0  0  0
 17 18  1  0  0  0  0
 18  5  1  0  0  0  0
 18 31  1  0  0  0  0
 19 17  1  0  0  0  0
 19 20  2  0  0  0  0
 22 13  1  0  0  0  0
 23 13  1  0  0  0  0
 24 14  1  0  0  0  0
 26 15  1  0  0  0  0
 29 16  1  0  0  0  0
 32 44  1  0  0  0  0
 32 45  1  0  0  0  0
 33 32  1  0  0  0  0
 34 33  2  0  0  0  0
 34 46  1  0  0  0  0
 35 47  1  0  0  0  0
 35 33  1  0  0  0  0
 36 49  1  0  0  0  0
 36 35  1  0  0  0  0
 37 50  1  0  0  0  0
 37 38  1  0  0  0  0
 37 36  1  0  0  0  0
 38 39  1  0  0  0  0
 38 53  1  0  0  0  0
 39 40  1  0  0  0  0
 39 54  1  1  0  0  0
 40 19  1  0  0  0  0
 41 39  1  0  0  0  0
 42 41  1  0  0  0  0
 43 41  2  0  0  0  0
 48 36  1  0  0  0  0
 51 37  1  0  0  0  0
 52 38  1  0  0  0  0
 55 40  1  0  0  0  0
M  END
$$$$
