CLV.pdb
 OpenBabel07022418283D

 48 47  0  0  1  0  0  0  0  0999 V2000
    4.4990   -3.7560    1.5680 N   0  0  0  0  0  0  0  0  0  0  0  0
    3.0730   -3.9950    1.5600 C   0  0  1  0  0  0  0  0  0  0  0  0
    2.6330   -4.1390    2.9900 C   0  0  0  0  0  0  0  0  0  0  0  0
    2.9920   -2.6430    3.9490 S   0  0  0  0  0  0  0  0  0  0  0  0
    2.4030   -2.8950    0.8440 C   0  0  0  0  0  0  0  0  0  0  0  0
    3.1370   -1.9830    0.3830 O   0  0  0  0  0  0  0  0  0  0  0  0
    4.9310   -4.1770    0.7220 H   0  0  0  0  0  0  0  0  0  0  0  0
    4.6290   -2.7080    1.5920 H   0  0  0  0  0  0  0  0  0  0  0  0
    2.9280   -4.9570    1.0000 H   0  0  0  0  0  0  0  0  0  0  0  0
    1.5540   -4.3410    3.1020 H   0  0  0  0  0  0  0  0  0  0  0  0
    3.2370   -4.9600    3.4310 H   0  0  0  0  0  0  0  0  0  0  0  0
    4.2230   -2.0770    3.6060 H   0  0  0  0  0  0  0  0  0  0  0  0
   -2.2200   -0.7080   -1.8160 C   0  0  0  0  0  0  0  0  0  0  0  0
   -0.9690   -1.3870   -2.2720 C   0  0  0  0  0  0  0  0  0  0  0  0
   -0.0580   -0.4120   -3.0240 C   0  0  0  0  0  0  0  0  0  0  0  0
   -0.2390   -2.2180   -1.3120 C   0  0  0  0  0  0  0  0  0  0  0  0
    0.3580   -1.6850   -0.0770 C   0  0  2  0  0  0  0  0  0  0  0  0
    1.0100   -2.8090    0.6500 N   0  0  0  0  0  0  0  0  0  0  0  0
   -0.4210   -0.9240    0.8790 C   0  0  0  0  0  0  0  0  0  0  0  0
   -0.6980   -1.4980    1.9980 O   0  0  0  0  0  0  0  0  0  0  0  0
   -3.0840   -0.9200   -2.5320 H   0  0  0  0  0  0  0  0  0  0  0  0
   -2.6070   -1.0330   -0.8480 H   0  0  0  0  0  0  0  0  0  0  0  0
   -2.1090    0.4050   -1.9270 H   0  0  0  0  0  0  0  0  0  0  0  0
   -1.3080   -2.0960   -3.1010 H   0  0  0  0  0  0  0  0  0  0  0  0
   -0.6650    0.4770   -3.2810 H   0  0  0  0  0  0  0  0  0  0  0  0
    0.8230   -0.1460   -2.4260 H   0  0  0  0  0  0  0  0  0  0  0  0
    0.3170   -0.8340   -3.9770 H   0  0  0  0  0  0  0  0  0  0  0  0
    0.6070   -2.7100   -1.9200 H   0  0  0  0  0  0  0  0  0  0  0  0
   -0.8880   -3.1290   -1.1220 H   0  0  0  0  0  0  0  0  0  0  0  0
    1.2270   -1.0290   -0.3920 H   0  0  0  0  0  0  0  0  0  0  0  0
    0.4090   -3.5490    1.0230 H   0  0  0  0  0  0  0  0  0  0  0  0
   -1.6450    2.8200    3.5540 C   0  0  0  0  0  0  0  0  0  0  0  0
   -0.8780    2.1680    2.4290 C   0  0  0  0  0  0  0  0  0  0  0  0
   -0.4830    3.1420    1.3700 C   0  0  0  0  0  0  0  0  0  0  0  0
   -1.6850    1.0050    1.8580 C   0  0  2  0  0  0  0  0  0  0  0  0
   -0.9330    0.3950    0.7820 N   0  0  0  0  0  0  0  0  0  0  0  0
   -2.9840    1.5160    1.4180 C   0  0  0  0  0  0  0  0  0  0  0  0
   -3.7540    2.0620    2.2910 O   0  0  0  0  0  0  0  0  0  0  0  0
   -3.4900    1.4790    0.1410 O   0  0  0  0  0  0  0  0  0  0  0  0
   -0.8820    3.2350    4.2640 H   0  0  0  0  0  0  0  0  0  0  0  0
   -2.2210    2.0190    4.0550 H   0  0  0  0  0  0  0  0  0  0  0  0
   -2.2680    3.6360    3.1750 H   0  0  0  0  0  0  0  0  0  0  0  0
    0.0480    1.7230    2.8430 H   0  0  0  0  0  0  0  0  0  0  0  0
    0.5240    2.9070    0.9770 H   0  0  0  0  0  0  0  0  0  0  0  0
   -0.4370    4.1560    1.8430 H   0  0  0  0  0  0  0  0  0  0  0  0
   -1.1930    3.2000    0.5260 H   0  0  0  0  0  0  0  0  0  0  0  0
   -1.8470    0.2480    2.6740 H   0  0  0  0  0  0  0  0  0  0  0  0
   -0.7450    0.9450   -0.0800 H   0  0  0  0  0  0  0  0  0  0  0  0
  1  8  1  0  0  0  0
  2  9  1  6  0  0  0
  2  1  1  0  0  0  0
  2  3  1  0  0  0  0
  3 10  1  0  0  0  0
  3 11  1  0  0  0  0
  3  4  1  0  0  0  0
  5  2  1  0  0  0  0
  6  5  2  0  0  0  0
  7  1  1  0  0  0  0
 12  4  1  0  0  0  0
 13 22  1  0  0  0  0
 14 13  1  0  0  0  0
 14 16  1  0  0  0  0
 15 26  1  0  0  0  0
 15 14  1  0  0  0  0
 16 29  1  0  0  0  0
 16 17  1  0  0  0  0
 17 30  1  6  0  0  0
 17 18  1  0  0  0  0
 17 19  1  0  0  0  0
 18  5  1  0  0  0  0
 18 31  1  0  0  0  0
 19 20  2  0  0  0  0
 21 13  1  0  0  0  0
 23 13  1  0  0  0  0
 24 14  1  0  0  0  0
 25 15  1  0  0  0  0
 27 15  1  0  0  0  0
 28 16  1  0  0  0  0
 32 41  1  0  0  0  0
 32 40  1  0  0  0  0
 33 43  1  0  0  0  0
 33 32  1  0  0  0  0
 34 45  1  0  0  0  0
 34 33  1  0  0  0  0
 35 33  1  0  0  0  0
 35 47  1  1  0  0  0
 36 19  1  0  0  0  0
 36 35  1  0  0  0  0
 37 35  1  0  0  0  0
 37 38  1  0  0  0  0
 39 37  2  0  0  0  0
 42 32  1  0  0  0  0
 44 34  1  0  0  0  0
 46 34  1  0  0  0  0
 48 36  1  0  0  0  0
M  END
$$$$
