CLW.pdb
 OpenBabel07022418283D

 56 57  0  0  1  0  0  0  0  0999 V2000
    2.0520    0.4890   -3.0550 N   0  0  0  0  0  0  0  0  0  0  0  0
    3.2050    0.2260   -2.2310 C   0  0  1  0  0  0  0  0  0  0  0  0
    4.0730    1.4740   -2.1790 C   0  0  0  0  0  0  0  0  0  0  0  0
    5.5360    1.1530   -1.1380 S   0  0  0  0  0  0  0  0  0  0  0  0
    2.8400   -0.1250   -0.8500 C   0  0  0  0  0  0  0  0  0  0  0  0
    3.7770   -0.3760   -0.0440 O   0  0  0  0  0  0  0  0  0  0  0  0
    1.4840    1.2180   -2.5470 H   0  0  0  0  0  0  0  0  0  0  0  0
    2.3970    0.9280   -3.9470 H   0  0  0  0  0  0  0  0  0  0  0  0
    3.7810   -0.6240   -2.6890 H   0  0  0  0  0  0  0  0  0  0  0  0
    3.4780    2.2730   -1.7070 H   0  0  0  0  0  0  0  0  0  0  0  0
    4.4520    1.7370   -3.1770 H   0  0  0  0  0  0  0  0  0  0  0  0
    6.6240    1.9510   -1.5440 H   0  0  0  0  0  0  0  0  0  0  0  0
   -0.8940   -0.2110    3.5020 C   0  0  0  0  0  0  0  0  0  0  0  0
    0.1880    0.6910    3.0470 C   0  0  0  0  0  0  0  0  0  0  0  0
    1.4050    0.5440    3.9730 C   0  0  0  0  0  0  0  0  0  0  0  0
    0.6170    0.6510    1.6400 C   0  0  0  0  0  0  0  0  0  0  0  0
    1.2000   -0.5600    1.0420 C   0  0  2  0  0  0  0  0  0  0  0  0
    1.5040   -0.1950   -0.3820 N   0  0  0  0  0  0  0  0  0  0  0  0
    0.4820   -1.8210    1.0690 C   0  0  0  0  0  0  0  0  0  0  0  0
    0.2110   -2.4700    2.1020 O   0  0  0  0  0  0  0  0  0  0  0  0
   -0.5840   -1.0470    4.1600 H   0  0  0  0  0  0  0  0  0  0  0  0
   -1.5270   -0.5520    2.6690 H   0  0  0  0  0  0  0  0  0  0  0  0
   -1.5450    0.4220    4.2130 H   0  0  0  0  0  0  0  0  0  0  0  0
   -0.1380    1.7710    3.2440 H   0  0  0  0  0  0  0  0  0  0  0  0
    2.1990    1.2410    3.6560 H   0  0  0  0  0  0  0  0  0  0  0  0
    1.1280    0.7560    5.0220 H   0  0  0  0  0  0  0  0  0  0  0  0
    1.8190   -0.4800    3.9360 H   0  0  0  0  0  0  0  0  0  0  0  0
   -0.1920    1.1120    0.9980 H   0  0  0  0  0  0  0  0  0  0  0  0
    1.4340    1.4540    1.5520 H   0  0  0  0  0  0  0  0  0  0  0  0
    2.2220   -0.7050    1.5020 H   0  0  0  0  0  0  0  0  0  0  0  0
    0.7410    0.0140   -1.0520 H   0  0  0  0  0  0  0  0  0  0  0  0
    0.0110   -2.4370   -0.1600 N   0  0  0  0  0  0  0  0  0  0  0  0
   -0.6970   -3.6690   -0.1970 C   0  0  1  0  0  0  0  0  0  0  0  0
   -2.1080   -3.6140   -0.6770 C   0  0  0  0  0  0  0  0  0  0  0  0
   -3.0080   -2.7580    0.1270 C   0  0  0  0  0  0  0  0  0  0  0  0
   -3.9090   -3.1460    1.1070 C   0  0  0  0  0  0  0  0  0  0  0  0
   -4.5130   -2.0640    1.6090 N   0  0  0  0  0  0  0  0  0  0  0  0
   -4.0500   -0.9460    0.9990 C   0  0  0  0  0  0  0  0  0  0  0  0
   -4.3400    0.3960    1.1380 C   0  0  0  0  0  0  0  0  0  0  0  0
   -3.7270    1.3690    0.3810 C   0  0  0  0  0  0  0  0  0  0  0  0
   -2.7950    0.9530   -0.5420 C   0  0  0  0  0  0  0  0  0  0  0  0
   -2.5060   -0.3900   -0.6790 C   0  0  0  0  0  0  0  0  0  0  0  0
   -3.1160   -1.3850    0.0800 C   0  0  0  0  0  0  0  0  0  0  0  0
    0.0090   -4.7150   -0.9970 C   0  0  0  0  0  0  0  0  0  0  0  0
   -0.4500   -5.8650   -1.1550 O   0  0  0  0  0  0  0  0  0  0  0  0
    1.2230   -4.3980   -1.5900 O   0  0  0  0  0  0  0  0  0  0  0  0
    0.2130   -1.9490   -1.0590 H   0  0  0  0  0  0  0  0  0  0  0  0
   -0.7500   -4.0850    0.8430 H   0  0  0  0  0  0  0  0  0  0  0  0
   -2.5400   -4.6190   -0.8600 H   0  0  0  0  0  0  0  0  0  0  0  0
   -2.0840   -3.1430   -1.7060 H   0  0  0  0  0  0  0  0  0  0  0  0
   -4.0600   -4.1700    1.3820 H   0  0  0  0  0  0  0  0  0  0  0  0
   -5.2490   -2.0300    2.3700 H   0  0  0  0  0  0  0  0  0  0  0  0
   -5.0770    0.7090    1.8690 H   0  0  0  0  0  0  0  0  0  0  0  0
   -3.9640    2.4310    0.4980 H   0  0  0  0  0  0  0  0  0  0  0  0
   -2.3070    1.7080   -1.1430 H   0  0  0  0  0  0  0  0  0  0  0  0
   -1.7770   -0.7260   -1.4130 H   0  0  0  0  0  0  0  0  0  0  0  0
  1  7  1  0  0  0  0
  1  2  1  0  0  0  0
  2  9  1  6  0  0  0
  2  3  1  0  0  0  0
  2  5  1  0  0  0  0
  3 10  1  0  0  0  0
  3  4  1  0  0  0  0
  5 18  1  0  0  0  0
  5  6  2  0  0  0  0
  8  1  1  0  0  0  0
 11  3  1  0  0  0  0
 12  4  1  0  0  0  0
 13 21  1  0  0  0  0
 13 23  1  0  0  0  0
 14 24  1  0  0  0  0
 14 13  1  0  0  0  0
 14 15  1  0  0  0  0
 15 26  1  0  0  0  0
 16 14  1  0  0  0  0
 17 19  1  0  0  0  0
 17 30  1  1  0  0  0
 17 16  1  0  0  0  0
 18 17  1  0  0  0  0
 19 20  2  0  0  0  0
 22 13  1  0  0  0  0
 25 15  1  0  0  0  0
 27 15  1  0  0  0  0
 28 16  1  0  0  0  0
 29 16  1  0  0  0  0
 31 18  1  0  0  0  0
 32 19  1  0  0  0  0
 33 32  1  0  0  0  0
 33 48  1  1  0  0  0
 34 33  1  0  0  0  0
 34 35  1  0  0  0  0
 35 36  2  0  0  0  0
 36 51  1  0  0  0  0
 36 37  1  0  0  0  0
 37 52  1  0  0  0  0
 38 39  1  0  0  0  0
 38 37  1  0  0  0  0
 39 53  1  0  0  0  0
 40 54  1  0  0  0  0
 40 39  2  0  0  0  0
 41 40  1  0  0  0  0
 42 41  2  0  0  0  0
 42 43  1  0  0  0  0
 43 35  1  0  0  0  0
 43 38  2  0  0  0  0
 44 33  1  0  0  0  0
 45 44  1  0  0  0  0
 46 44  2  0  0  0  0
 47 32  1  0  0  0  0
 49 34  1  0  0  0  0
 50 34  1  0  0  0  0
 55 41  1  0  0  0  0
 56 42  1  0  0  0  0
M  END
$$$$
