CMC.pdb
 OpenBabel07022418283D

 41 40  0  0  1  0  0  0  0  0999 V2000
   -0.5260   -4.0540   -0.1330 N   0  0  0  0  0  0  0  0  0  0  0  0
    0.7710   -4.0480    0.4670 C   0  0  1  0  0  0  0  0  0  0  0  0
    1.6700   -5.0370   -0.2290 C   0  0  0  0  0  0  0  0  0  0  0  0
    3.3290   -5.0500    0.5200 S   0  0  0  0  0  0  0  0  0  0  0  0
    1.4020   -2.7320    0.5440 C   0  0  0  0  0  0  0  0  0  0  0  0
    2.5560   -2.6570    1.0360 O   0  0  0  0  0  0  0  0  0  0  0  0
   -0.4110   -3.9960   -1.1730 H   0  0  0  0  0  0  0  0  0  0  0  0
   -1.0270   -4.9450    0.0660 H   0  0  0  0  0  0  0  0  0  0  0  0
    0.6320   -4.4340    1.5200 H   0  0  0  0  0  0  0  0  0  0  0  0
    1.2750   -6.0600   -0.1420 H   0  0  0  0  0  0  0  0  0  0  0  0
    1.8070   -4.8120   -1.3020 H   0  0  0  0  0  0  0  0  0  0  0  0
    4.1530   -4.1500   -0.1630 H   0  0  0  0  0  0  0  0  0  0  0  0
   -0.0060    3.4670   -1.3070 C   0  0  0  0  0  0  0  0  0  0  0  0
    1.4930    3.0880   -0.3690 S   0  0  0  0  0  0  0  0  0  0  0  0
    2.4390    1.7620   -1.0820 C   0  0  0  0  0  0  0  0  0  0  0  0
    1.7840    0.4290   -1.0530 C   0  0  0  0  0  0  0  0  0  0  0  0
    1.5090   -0.2170    0.2070 C   0  0  2  0  0  0  0  0  0  0  0  0
    0.8560   -1.5160    0.1210 N   0  0  0  0  0  0  0  0  0  0  0  0
    0.8500    0.5040    1.2980 C   0  0  0  0  0  0  0  0  0  0  0  0
    1.2190    1.5970    1.7760 O   0  0  0  0  0  0  0  0  0  0  0  0
   -0.7240    2.6000   -1.2300 H   0  0  0  0  0  0  0  0  0  0  0  0
    0.1890    3.7670   -2.3370 H   0  0  0  0  0  0  0  0  0  0  0  0
   -0.5200    4.3040   -0.7940 H   0  0  0  0  0  0  0  0  0  0  0  0
    2.5530    2.0200   -2.1880 H   0  0  0  0  0  0  0  0  0  0  0  0
    3.5000    1.7420   -0.7390 H   0  0  0  0  0  0  0  0  0  0  0  0
    0.9120    0.5670   -1.7470 H   0  0  0  0  0  0  0  0  0  0  0  0
    2.4680   -0.2330   -1.6930 H   0  0  0  0  0  0  0  0  0  0  0  0
    2.5290   -0.4780    0.6580 H   0  0  0  0  0  0  0  0  0  0  0  0
   -0.0980   -1.5160   -0.2930 H   0  0  0  0  0  0  0  0  0  0  0  0
   -0.3440   -0.0230    1.9400 N   0  0  0  0  0  0  0  0  0  0  0  0
   -1.0010    0.6720    3.0130 C   0  0  1  0  0  0  0  0  0  0  0  0
   -2.4140    1.0820    2.6520 C   0  0  0  0  0  0  0  0  0  0  0  0
   -2.4660    2.1840    1.2140 S   0  0  0  0  0  0  0  0  0  0  0  0
   -1.0430   -0.1010    4.2630 C   0  0  0  0  0  0  0  0  0  0  0  0
   -1.5830    0.3830    5.2760 O   0  0  0  0  0  0  0  0  0  0  0  0
   -0.4870   -1.3570    4.3170 O   0  0  0  0  0  0  0  0  0  0  0  0
   -0.7310   -0.9350    1.6070 H   0  0  0  0  0  0  0  0  0  0  0  0
   -0.4500    1.6110    3.2300 H   0  0  0  0  0  0  0  0  0  0  0  0
   -2.8710    1.6030    3.5380 H   0  0  0  0  0  0  0  0  0  0  0  0
   -3.0270    0.1710    2.5080 H   0  0  0  0  0  0  0  0  0  0  0  0
   -1.3650    3.0400    1.2850 H   0  0  0  0  0  0  0  0  0  0  0  0
  1  8  1  0  0  0  0
  1  2  1  0  0  0  0
  2  5  1  0  0  0  0
  2  9  1  1  0  0  0
  3 10  1  0  0  0  0
  3  2  1  0  0  0  0
  3  4  1  0  0  0  0
  5  6  2  0  0  0  0
  7  1  1  0  0  0  0
 11  3  1  0  0  0  0
 12  4  1  0  0  0  0
 13 21  1  0  0  0  0
 13 23  1  0  0  0  0
 13 14  1  0  0  0  0
 15 16  1  0  0  0  0
 15 25  1  0  0  0  0
 15 14  1  0  0  0  0
 16 17  1  0  0  0  0
 17 28  1  1  0  0  0
 17 19  1  0  0  0  0
 18 17  1  0  0  0  0
 18  5  1  0  0  0  0
 19 20  2  0  0  0  0
 19 30  1  0  0  0  0
 22 13  1  0  0  0  0
 24 15  1  0  0  0  0
 26 16  1  0  0  0  0
 27 16  1  0  0  0  0
 29 18  1  0  0  0  0
 30 31  1  0  0  0  0
 31 38  1  1  0  0  0
 31 34  1  0  0  0  0
 32 31  1  0  0  0  0
 32 39  1  0  0  0  0
 33 41  1  0  0  0  0
 33 32  1  0  0  0  0
 34 36  2  0  0  0  0
 34 35  1  0  0  0  0
 37 30  1  0  0  0  0
 40 32  1  0  0  0  0
M  END
$$$$
