CMG.pdb
 OpenBabel07022418283D

 37 36  0  0  1  0  0  0  0  0999 V2000
    1.4320   -1.3360    3.6740 N   0  0  0  0  0  0  0  0  0  0  0  0
    2.2060   -0.1800    3.3140 C   0  0  1  0  0  0  0  0  0  0  0  0
    3.6820   -0.5660    3.3080 C   0  0  0  0  0  0  0  0  0  0  0  0
    3.9840   -1.8970    2.1040 S   0  0  0  0  0  0  0  0  0  0  0  0
    1.8740    0.3320    1.9590 C   0  0  0  0  0  0  0  0  0  0  0  0
    2.5090    1.3450    1.5670 O   0  0  0  0  0  0  0  0  0  0  0  0
    1.4520   -2.0580    2.9390 H   0  0  0  0  0  0  0  0  0  0  0  0
    0.4710   -1.1110    3.9990 H   0  0  0  0  0  0  0  0  0  0  0  0
    2.0750    0.6280    4.0470 H   0  0  0  0  0  0  0  0  0  0  0  0
    4.0380   -0.8140    4.3120 H   0  0  0  0  0  0  0  0  0  0  0  0
    4.2850    0.3090    2.9520 H   0  0  0  0  0  0  0  0  0  0  0  0
    3.3360   -3.0580    2.6130 H   0  0  0  0  0  0  0  0  0  0  0  0
   -0.8780   -4.4940   -2.1930 C   0  0  0  0  0  0  0  0  0  0  0  0
    0.2520   -3.1020   -2.4680 S   0  0  0  0  0  0  0  0  0  0  0  0
   -0.0160   -1.8920   -1.1500 C   0  0  0  0  0  0  0  0  0  0  0  0
    0.8890   -0.6890   -1.2980 C   0  0  0  0  0  0  0  0  0  0  0  0
    0.6510    0.3160   -0.1840 C   0  0  2  0  0  0  0  0  0  0  0  0
    0.9020   -0.2540    1.1130 N   0  0  0  0  0  0  0  0  0  0  0  0
   -0.7430    0.8320   -0.2130 C   0  0  0  0  0  0  0  0  0  0  0  0
   -1.2020    1.3810   -1.2520 O   0  0  0  0  0  0  0  0  0  0  0  0
   -1.7990   -4.3880   -2.8170 H   0  0  0  0  0  0  0  0  0  0  0  0
   -0.3760   -5.4690   -2.3570 H   0  0  0  0  0  0  0  0  0  0  0  0
   -1.2240   -4.4990   -1.1320 H   0  0  0  0  0  0  0  0  0  0  0  0
    0.1360   -2.3440   -0.1490 H   0  0  0  0  0  0  0  0  0  0  0  0
   -1.0690   -1.5690   -1.2120 H   0  0  0  0  0  0  0  0  0  0  0  0
    0.6420   -0.1980   -2.2610 H   0  0  0  0  0  0  0  0  0  0  0  0
    1.9530   -0.9630   -1.3320 H   0  0  0  0  0  0  0  0  0  0  0  0
    1.3120    1.1900   -0.3230 H   0  0  0  0  0  0  0  0  0  0  0  0
    0.3740   -1.1120    1.4630 H   0  0  0  0  0  0  0  0  0  0  0  0
   -1.6130    0.7340    0.9090 N   0  0  0  0  0  0  0  0  0  0  0  0
   -2.9630    1.2560    0.8200 C   0  0  0  0  0  0  0  0  0  0  0  0
   -3.0000    2.6910    0.5320 C   0  0  0  0  0  0  0  0  0  0  0  0
   -4.1120    3.2670    0.4300 O   0  0  0  0  0  0  0  0  0  0  0  0
   -1.8620    3.4640    0.3630 O   0  0  0  0  0  0  0  0  0  0  0  0
   -1.2670    0.2780    1.8040 H   0  0  0  0  0  0  0  0  0  0  0  0
   -3.4680    0.6770    0.0070 H   0  0  0  0  0  0  0  0  0  0  0  0
   -3.5170    0.9840    1.7530 H   0  0  0  0  0  0  0  0  0  0  0  0
  1  8  1  0  0  0  0
  2  1  1  0  0  0  0
  2  9  1  1  0  0  0
  3  2  1  0  0  0  0
  3 10  1  0  0  0  0
  4 12  1  0  0  0  0
  4  3  1  0  0  0  0
  5  2  1  0  0  0  0
  6  5  2  0  0  0  0
  7  1  1  0  0  0  0
 11  3  1  0  0  0  0
 13 23  1  0  0  0  0
 14 13  1  0  0  0  0
 14 15  1  0  0  0  0
 15 24  1  0  0  0  0
 16 15  1  0  0  0  0
 16 17  1  0  0  0  0
 17 28  1  6  0  0  0
 17 18  1  0  0  0  0
 18 29  1  0  0  0  0
 18  5  1  0  0  0  0
 19 17  1  0  0  0  0
 19 30  1  0  0  0  0
 20 19  2  0  0  0  0
 21 13  1  0  0  0  0
 22 13  1  0  0  0  0
 25 15  1  0  0  0  0
 26 16  1  0  0  0  0
 27 16  1  0  0  0  0
 30 35  1  0  0  0  0
 31 30  1  0  0  0  0
 31 37  1  0  0  0  0
 32 31  1  0  0  0  0
 33 32  1  0  0  0  0
 34 32  2  0  0  0  0
 36 31  1  0  0  0  0
M  END
$$$$
