CMH.pdb
 OpenBabel07022418283D

 47 47  0  0  1  0  0  0  0  0999 V2000
    1.5240   -3.8580   -0.9830 N   0  0  0  0  0  0  0  0  0  0  0  0
    2.6090   -3.6660   -0.0550 C   0  0  1  0  0  0  0  0  0  0  0  0
    3.9320   -3.9570   -0.7740 C   0  0  0  0  0  0  0  0  0  0  0  0
    5.3450   -3.7360    0.3290 S   0  0  0  0  0  0  0  0  0  0  0  0
    2.6860   -2.2430    0.3890 C   0  0  0  0  0  0  0  0  0  0  0  0
    3.5780   -1.9570    1.2110 O   0  0  0  0  0  0  0  0  0  0  0  0
    1.8480   -3.5170   -1.9200 H   0  0  0  0  0  0  0  0  0  0  0  0
    1.2640   -4.8660   -1.0120 H   0  0  0  0  0  0  0  0  0  0  0  0
    2.5530   -4.3180    0.8250 H   0  0  0  0  0  0  0  0  0  0  0  0
    4.0200   -3.2650   -1.6560 H   0  0  0  0  0  0  0  0  0  0  0  0
    3.9580   -4.9940   -1.1540 H   0  0  0  0  0  0  0  0  0  0  0  0
    6.2890   -2.8280   -0.1810 H   0  0  0  0  0  0  0  0  0  0  0  0
   -0.3230    3.4750   -1.1010 C   0  0  0  0  0  0  0  0  0  0  0  0
    0.9620    3.3820    0.1590 S   0  0  0  0  0  0  0  0  0  0  0  0
    2.3830    2.4920   -0.4280 C   0  0  0  0  0  0  0  0  0  0  0  0
    2.2380    1.0490   -0.7170 C   0  0  0  0  0  0  0  0  0  0  0  0
    1.9330    0.1510    0.4020 C   0  0  2  0  0  0  0  0  0  0  0  0
    1.8300   -1.2420   -0.0580 N   0  0  0  0  0  0  0  0  0  0  0  0
    0.7200    0.3910    1.1880 C   0  0  0  0  0  0  0  0  0  0  0  0
    0.5800    1.4360    1.8480 O   0  0  0  0  0  0  0  0  0  0  0  0
   -1.0820    4.2160   -0.7450 H   0  0  0  0  0  0  0  0  0  0  0  0
   -0.7730    2.4690   -1.2660 H   0  0  0  0  0  0  0  0  0  0  0  0
    0.0540    3.8870   -2.0710 H   0  0  0  0  0  0  0  0  0  0  0  0
    3.2320    2.6160    0.3300 H   0  0  0  0  0  0  0  0  0  0  0  0
    2.8130    2.9640   -1.3630 H   0  0  0  0  0  0  0  0  0  0  0  0
    3.2100    0.7430   -1.1990 H   0  0  0  0  0  0  0  0  0  0  0  0
    1.4090    0.9470   -1.4760 H   0  0  0  0  0  0  0  0  0  0  0  0
    2.8510    0.1500    1.0720 H   0  0  0  0  0  0  0  0  0  0  0  0
    1.0810   -1.4330   -0.7450 H   0  0  0  0  0  0  0  0  0  0  0  0
   -0.3520   -0.5340    1.2460 N   0  0  0  0  0  0  0  0  0  0  0  0
   -1.5780   -0.3320    2.0140 C   0  0  1  0  0  0  0  0  0  0  0  0
   -2.7880   -0.4830    1.1790 C   0  0  0  0  0  0  0  0  0  0  0  0
   -4.0300   -0.1840    1.9070 C   0  0  0  0  0  0  0  0  0  0  0  0
   -4.2980    0.3320    3.1250 C   0  0  0  0  0  0  0  0  0  0  0  0
   -5.6450    0.4590    3.2600 N   0  0  0  0  0  0  0  0  0  0  0  0
   -6.2310    0.0300    2.1380 C   0  0  0  0  0  0  0  0  0  0  0  0
   -5.2590   -0.3620    1.3100 N   0  0  0  0  0  0  0  0  0  0  0  0
   -1.5260   -1.4430    3.0370 C   0  0  0  0  0  0  0  0  0  0  0  0
   -0.5110   -2.1710    3.0750 O   0  0  0  0  0  0  0  0  0  0  0  0
   -2.5280   -1.7010    3.9220 O   0  0  0  0  0  0  0  0  0  0  0  0
   -0.2820   -1.4170    0.7180 H   0  0  0  0  0  0  0  0  0  0  0  0
   -1.5580    0.6300    2.5210 H   0  0  0  0  0  0  0  0  0  0  0  0
   -2.9000   -1.5320    0.8060 H   0  0  0  0  0  0  0  0  0  0  0  0
   -2.7410    0.2410    0.3350 H   0  0  0  0  0  0  0  0  0  0  0  0
   -3.5540    0.6240    3.8590 H   0  0  0  0  0  0  0  0  0  0  0  0
   -6.0850    0.8410    4.1350 H   0  0  0  0  0  0  0  0  0  0  0  0
   -7.3030    0.0080    1.9450 H   0  0  0  0  0  0  0  0  0  0  0  0
  1  2  1  0  0  0  0
  2  5  1  0  0  0  0
  2  9  1  1  0  0  0
  3  2  1  0  0  0  0
  3  4  1  0  0  0  0
  5  6  2  0  0  0  0
  7  1  1  0  0  0  0
  8  1  1  0  0  0  0
 10  3  1  0  0  0  0
 11  3  1  0  0  0  0
 12  4  1  0  0  0  0
 13 21  1  0  0  0  0
 13 14  1  0  0  0  0
 15 14  1  0  0  0  0
 15 24  1  0  0  0  0
 16 15  1  0  0  0  0
 16 17  1  0  0  0  0
 17 28  1  1  0  0  0
 17 19  1  0  0  0  0
 18  5  1  0  0  0  0
 18 17  1  0  0  0  0
 19 30  1  0  0  0  0
 19 20  2  0  0  0  0
 22 13  1  0  0  0  0
 23 13  1  0  0  0  0
 25 15  1  0  0  0  0
 26 16  1  0  0  0  0
 27 16  1  0  0  0  0
 29 18  1  0  0  0  0
 30 31  1  0  0  0  0
 31 42  1  1  0  0  0
 31 38  1  0  0  0  0
 32 33  1  0  0  0  0
 32 31  1  0  0  0  0
 33 34  2  0  0  0  0
 34 35  1  0  0  0  0
 34 45  1  0  0  0  0
 35 46  1  0  0  0  0
 36 35  1  0  0  0  0
 37 33  1  0  0  0  0
 37 36  2  0  0  0  0
 38 39  2  0  0  0  0
 38 40  1  0  0  0  0
 41 30  1  0  0  0  0
 43 32  1  0  0  0  0
 44 32  1  0  0  0  0
 47 36  1  0  0  0  0
M  END
$$$$
