CMI.pdb
 OpenBabel07022418283D

 49 48  0  0  1  0  0  0  0  0999 V2000
   -4.9450   -2.4100    1.4720 N   0  0  0  0  0  0  0  0  0  0  0  0
   -3.6630   -1.7340    1.4100 C   0  0  1  0  0  0  0  0  0  0  0  0
   -2.6060   -2.8320    1.3010 C   0  0  0  0  0  0  0  0  0  0  0  0
   -2.9280   -3.7900   -0.2070 S   0  0  0  0  0  0  0  0  0  0  0  0
   -3.5820   -0.8310    0.2310 C   0  0  0  0  0  0  0  0  0  0  0  0
   -4.5790   -0.7630   -0.5310 O   0  0  0  0  0  0  0  0  0  0  0  0
   -4.7970   -3.2990    1.9990 H   0  0  0  0  0  0  0  0  0  0  0  0
   -5.2590   -2.6790    0.5130 H   0  0  0  0  0  0  0  0  0  0  0  0
   -3.4810   -1.1090    2.3030 H   0  0  0  0  0  0  0  0  0  0  0  0
   -2.6670   -3.4600    2.1890 H   0  0  0  0  0  0  0  0  0  0  0  0
   -1.6100   -2.3690    1.1860 H   0  0  0  0  0  0  0  0  0  0  0  0
   -1.7410   -4.4880   -0.5260 H   0  0  0  0  0  0  0  0  0  0  0  0
    1.0190    4.0750    1.4550 C   0  0  0  0  0  0  0  0  0  0  0  0
   -0.5640    4.0680    0.5360 S   0  0  0  0  0  0  0  0  0  0  0  0
   -0.8410    2.3480    0.0030 C   0  0  0  0  0  0  0  0  0  0  0  0
   -2.1310    2.2290   -0.7710 C   0  0  0  0  0  0  0  0  0  0  0  0
   -2.3620    0.8240   -1.2100 C   0  0  2  0  0  0  0  0  0  0  0  0
   -2.4380   -0.0570   -0.0580 N   0  0  0  0  0  0  0  0  0  0  0  0
   -1.2460    0.4310   -2.1190 C   0  0  0  0  0  0  0  0  0  0  0  0
   -1.0710    1.1080   -3.1490 O   0  0  0  0  0  0  0  0  0  0  0  0
    1.7820    3.4580    0.9220 H   0  0  0  0  0  0  0  0  0  0  0  0
    0.8910    3.6340    2.4610 H   0  0  0  0  0  0  0  0  0  0  0  0
    1.4090    5.1030    1.4930 H   0  0  0  0  0  0  0  0  0  0  0  0
    0.0230    2.0600   -0.6170 H   0  0  0  0  0  0  0  0  0  0  0  0
   -0.9370    1.7520    0.9320 H   0  0  0  0  0  0  0  0  0  0  0  0
   -1.9950    2.8580   -1.6970 H   0  0  0  0  0  0  0  0  0  0  0  0
   -2.9620    2.6780   -0.2170 H   0  0  0  0  0  0  0  0  0  0  0  0
   -3.2980    0.7950   -1.8030 H   0  0  0  0  0  0  0  0  0  0  0  0
   -1.6300   -0.1320    0.5850 H   0  0  0  0  0  0  0  0  0  0  0  0
    3.0880   -0.4330   -4.1940 C   0  0  0  0  0  0  0  0  0  0  0  0
    3.1490   -1.2670   -2.9330 C   0  0  0  0  0  0  0  0  0  0  0  0
    2.0220   -0.8910   -2.0240 C   0  0  2  0  0  0  0  0  0  0  0  0
    2.0890   -1.7160   -0.7590 C   0  0  0  0  0  0  0  0  0  0  0  0
    0.7000   -1.0600   -2.7370 C   0  0  2  0  0  0  0  0  0  0  0  0
   -0.4000   -0.6690   -1.8460 N   0  0  0  0  0  0  0  0  0  0  0  0
    0.4570   -2.4070   -3.2680 C   0  0  0  0  0  0  0  0  0  0  0  0
    1.1660   -3.0370   -4.0550 O   0  0  0  0  0  0  0  0  0  0  0  0
   -0.7160   -3.0610   -2.8340 O   0  0  0  0  0  0  0  0  0  0  0  0
    2.4890    0.4800   -3.9880 H   0  0  0  0  0  0  0  0  0  0  0  0
    2.6860   -1.0180   -5.0320 H   0  0  0  0  0  0  0  0  0  0  0  0
    4.1350   -0.1270   -4.4270 H   0  0  0  0  0  0  0  0  0  0  0  0
    4.0900   -1.0190   -2.3720 H   0  0  0  0  0  0  0  0  0  0  0  0
    3.1410   -2.3570   -3.1200 H   0  0  0  0  0  0  0  0  0  0  0  0
    2.1060    0.1760   -1.7600 H   0  0  0  0  0  0  0  0  0  0  0  0
    1.1740   -2.2490   -0.5180 H   0  0  0  0  0  0  0  0  0  0  0  0
    2.9020   -2.4750   -0.8500 H   0  0  0  0  0  0  0  0  0  0  0  0
    2.3520   -1.0580    0.0940 H   0  0  0  0  0  0  0  0  0  0  0  0
    0.6850   -0.3460   -3.5790 H   0  0  0  0  0  0  0  0  0  0  0  0
   -0.5360   -1.2440   -0.9870 H   0  0  0  0  0  0  0  0  0  0  0  0
  1  7  1  0  0  0  0
  2  1  1  0  0  0  0
  2  9  1  1  0  0  0
  3  2  1  0  0  0  0
  3 10  1  0  0  0  0
  4  3  1  0  0  0  0
  5  2  1  0  0  0  0
  6  5  2  0  0  0  0
  8  1  1  0  0  0  0
 11  3  1  0  0  0  0
 12  4  1  0  0  0  0
 13 23  1  0  0  0  0
 13 22  1  0  0  0  0
 14 13  1  0  0  0  0
 15 14  1  0  0  0  0
 15 25  1  0  0  0  0
 16 27  1  0  0  0  0
 16 15  1  0  0  0  0
 17 28  1  6  0  0  0
 17 16  1  0  0  0  0
 17 18  1  0  0  0  0
 18  5  1  0  0  0  0
 18 29  1  0  0  0  0
 19 35  1  0  0  0  0
 19 17  1  0  0  0  0
 20 19  2  0  0  0  0
 21 13  1  0  0  0  0
 24 15  1  0  0  0  0
 26 16  1  0  0  0  0
 30 39  1  0  0  0  0
 30 31  1  0  0  0  0
 31 42  1  0  0  0  0
 31 32  1  0  0  0  0
 32 44  1  1  0  0  0
 32 33  1  0  0  0  0
 33 45  1  0  0  0  0
 33 47  1  0  0  0  0
 34 48  1  6  0  0  0
 34 32  1  0  0  0  0
 34 35  1  0  0  0  0
 35 49  1  0  0  0  0
 36 38  1  0  0  0  0
 36 34  1  0  0  0  0
 37 36  2  0  0  0  0
 40 30  1  0  0  0  0
 41 30  1  0  0  0  0
 43 31  1  0  0  0  0
 46 33  1  0  0  0  0
M  END
$$$$
