CMM.pdb
 OpenBabel07022418283D

 47 46  0  0  1  0  0  0  0  0999 V2000
    3.0020   -2.1000    1.6340 N   0  0  0  0  0  0  0  0  0  0  0  0
    3.7830   -1.1970    0.7870 C   0  0  1  0  0  0  0  0  0  0  0  0
    4.7920   -2.0780    0.0710 C   0  0  0  0  0  0  0  0  0  0  0  0
    5.8240   -1.0630   -1.0130 S   0  0  0  0  0  0  0  0  0  0  0  0
    2.8680   -0.5740   -0.2270 C   0  0  0  0  0  0  0  0  0  0  0  0
    3.3110    0.2410   -1.0560 O   0  0  0  0  0  0  0  0  0  0  0  0
    2.2470   -1.5950    2.1510 H   0  0  0  0  0  0  0  0  0  0  0  0
    2.6490   -2.9260    1.1060 H   0  0  0  0  0  0  0  0  0  0  0  0
    4.2680   -0.4590    1.4340 H   0  0  0  0  0  0  0  0  0  0  0  0
    4.2520   -2.8580   -0.5060 H   0  0  0  0  0  0  0  0  0  0  0  0
    5.4510   -2.5490    0.8240 H   0  0  0  0  0  0  0  0  0  0  0  0
    6.2590   -1.8730   -2.0810 H   0  0  0  0  0  0  0  0  0  0  0  0
   -2.7100   -3.2900   -3.0910 C   0  0  0  0  0  0  0  0  0  0  0  0
   -1.7430   -2.1510   -4.0860 S   0  0  0  0  0  0  0  0  0  0  0  0
   -1.0560   -0.8360   -3.0080 C   0  0  0  0  0  0  0  0  0  0  0  0
   -0.0560   -1.4140   -2.0450 C   0  0  0  0  0  0  0  0  0  0  0  0
    0.5300   -0.3680   -1.1860 C   0  0  2  0  0  0  0  0  0  0  0  0
    1.5140   -0.9050   -0.2490 N   0  0  0  0  0  0  0  0  0  0  0  0
   -0.4080    0.4400   -0.3800 C   0  0  0  0  0  0  0  0  0  0  0  0
   -1.3560    1.0850   -0.8900 O   0  0  0  0  0  0  0  0  0  0  0  0
   -2.8670   -2.8720   -2.0770 H   0  0  0  0  0  0  0  0  0  0  0  0
   -3.6880   -3.4880   -3.6190 H   0  0  0  0  0  0  0  0  0  0  0  0
   -2.1920   -4.2790   -3.0340 H   0  0  0  0  0  0  0  0  0  0  0  0
   -0.5660   -0.1180   -3.6960 H   0  0  0  0  0  0  0  0  0  0  0  0
   -1.9010   -0.3040   -2.5330 H   0  0  0  0  0  0  0  0  0  0  0  0
    0.7860   -1.7910   -2.7040 H   0  0  0  0  0  0  0  0  0  0  0  0
   -0.4620   -2.2880   -1.4930 H   0  0  0  0  0  0  0  0  0  0  0  0
    1.1120    0.3360   -1.8430 H   0  0  0  0  0  0  0  0  0  0  0  0
    1.1330   -1.5900    0.4430 H   0  0  0  0  0  0  0  0  0  0  0  0
   -2.6320   -0.7650    5.9100 C   0  0  0  0  0  0  0  0  0  0  0  0
   -3.8520   -0.0760    4.7340 S   0  0  0  0  0  0  0  0  0  0  0  0
   -3.0090    1.1600    3.6520 C   0  0  0  0  0  0  0  0  0  0  0  0
   -2.0050    0.4840    2.7840 C   0  0  0  0  0  0  0  0  0  0  0  0
   -1.2480    1.3510    1.8380 C   0  0  2  0  0  0  0  0  0  0  0  0
   -0.3030    0.5440    1.0470 N   0  0  0  0  0  0  0  0  0  0  0  0
   -0.5740    2.4990    2.4490 C   0  0  0  0  0  0  0  0  0  0  0  0
    0.6690    2.7210    2.3630 O   0  0  0  0  0  0  0  0  0  0  0  0
   -1.3060    3.4180    3.1720 O   0  0  0  0  0  0  0  0  0  0  0  0
   -1.8980    0.0450    6.1570 H   0  0  0  0  0  0  0  0  0  0  0  0
   -2.0700   -1.6070    5.4750 H   0  0  0  0  0  0  0  0  0  0  0  0
   -3.1410   -1.1330    6.8190 H   0  0  0  0  0  0  0  0  0  0  0  0
   -2.6130    1.9620    4.2940 H   0  0  0  0  0  0  0  0  0  0  0  0
   -3.8290    1.6080    3.0400 H   0  0  0  0  0  0  0  0  0  0  0  0
   -1.2770   -0.0220    3.4680 H   0  0  0  0  0  0  0  0  0  0  0  0
   -2.5010   -0.3810    2.2560 H   0  0  0  0  0  0  0  0  0  0  0  0
   -1.9790    1.7790    1.1010 H   0  0  0  0  0  0  0  0  0  0  0  0
    0.4730    0.0220    1.4900 H   0  0  0  0  0  0  0  0  0  0  0  0
  1  7  1  0  0  0  0
  2  9  1  1  0  0  0
  2  1  1  0  0  0  0
  3  2  1  0  0  0  0
  3 11  1  0  0  0  0
  4  3  1  0  0  0  0
  5  2  1  0  0  0  0
  6  5  2  0  0  0  0
  8  1  1  0  0  0  0
 10  3  1  0  0  0  0
 12  4  1  0  0  0  0
 13 23  1  0  0  0  0
 13 21  1  0  0  0  0
 14 13  1  0  0  0  0
 14 15  1  0  0  0  0
 15 25  1  0  0  0  0
 15 16  1  0  0  0  0
 16 27  1  0  0  0  0
 16 17  1  0  0  0  0
 17 28  1  6  0  0  0
 17 19  1  0  0  0  0
 17 18  1  0  0  0  0
 18  5  1  0  0  0  0
 18 29  1  0  0  0  0
 19 35  1  0  0  0  0
 20 19  2  0  0  0  0
 22 13  1  0  0  0  0
 24 15  1  0  0  0  0
 26 16  1  0  0  0  0
 30 39  1  0  0  0  0
 30 41  1  0  0  0  0
 31 30  1  0  0  0  0
 32 42  1  0  0  0  0
 32 31  1  0  0  0  0
 33 44  1  0  0  0  0
 33 32  1  0  0  0  0
 34 46  1  6  0  0  0
 34 36  1  0  0  0  0
 34 33  1  0  0  0  0
 35 47  1  0  0  0  0
 35 34  1  0  0  0  0
 36 38  1  0  0  0  0
 37 36  2  0  0  0  0
 40 30  1  0  0  0  0
 43 32  1  0  0  0  0
 45 33  1  0  0  0  0
M  END
$$$$
