CMQ.pdb
 OpenBabel07022418283D

 47 46  0  0  1  0  0  0  0  0999 V2000
   -0.0810   -3.7110    1.4780 N   0  0  0  0  0  0  0  0  0  0  0  0
    1.3250   -3.5940    1.9030 C   0  0  1  0  0  0  0  0  0  0  0  0
    1.9860   -4.9050    1.5170 C   0  0  0  0  0  0  0  0  0  0  0  0
    3.7200   -4.9890    1.9600 S   0  0  0  0  0  0  0  0  0  0  0  0
    1.8950   -2.4470    1.1760 C   0  0  0  0  0  0  0  0  0  0  0  0
    3.1150   -2.0960    1.3280 O   0  0  0  0  0  0  0  0  0  0  0  0
   -0.1890   -4.4150    0.7160 H   0  0  0  0  0  0  0  0  0  0  0  0
   -0.6350   -4.0340    2.3110 H   0  0  0  0  0  0  0  0  0  0  0  0
    1.4200   -3.4490    2.9950 H   0  0  0  0  0  0  0  0  0  0  0  0
    1.4330   -5.7160    2.0080 H   0  0  0  0  0  0  0  0  0  0  0  0
    1.8840   -5.0080    0.4100 H   0  0  0  0  0  0  0  0  0  0  0  0
    4.4660   -3.9760    1.3670 H   0  0  0  0  0  0  0  0  0  0  0  0
   -0.7210    1.7580   -3.2130 C   0  0  0  0  0  0  0  0  0  0  0  0
    1.0230    1.9100   -2.7420 S   0  0  0  0  0  0  0  0  0  0  0  0
    1.8500    0.3180   -2.8470 C   0  0  0  0  0  0  0  0  0  0  0  0
    1.4110   -0.7340   -1.9040 C   0  0  0  0  0  0  0  0  0  0  0  0
    1.6390   -0.5280   -0.4790 C   0  0  2  0  0  0  0  0  0  0  0  0
    1.1350   -1.6930    0.2920 N   0  0  0  0  0  0  0  0  0  0  0  0
    1.0460    0.6940    0.0800 C   0  0  0  0  0  0  0  0  0  0  0  0
    1.3710    1.8700   -0.2180 O   0  0  0  0  0  0  0  0  0  0  0  0
   -1.2260    1.0120   -2.5470 H   0  0  0  0  0  0  0  0  0  0  0  0
   -0.8040    1.4760   -4.2670 H   0  0  0  0  0  0  0  0  0  0  0  0
   -1.2330    2.7320   -3.0210 H   0  0  0  0  0  0  0  0  0  0  0  0
    2.9670    0.4890   -2.7720 H   0  0  0  0  0  0  0  0  0  0  0  0
    1.7220   -0.0160   -3.9170 H   0  0  0  0  0  0  0  0  0  0  0  0
    0.3030   -0.8860   -2.1000 H   0  0  0  0  0  0  0  0  0  0  0  0
    1.9360   -1.7010   -2.2290 H   0  0  0  0  0  0  0  0  0  0  0  0
    2.7350   -0.5030   -0.2490 H   0  0  0  0  0  0  0  0  0  0  0  0
    0.1340   -1.9140    0.1100 H   0  0  0  0  0  0  0  0  0  0  0  0
   -3.8240   -0.7710    3.5610 N   0  0  0  0  0  0  0  0  0  0  0  0
   -3.0330    0.3550    3.1910 C   0  0  0  0  0  0  0  0  0  0  0  0
   -2.4760    0.9350    4.1600 O   0  0  0  0  0  0  0  0  0  0  0  0
   -2.9440    0.7160    1.8000 C   0  0  0  0  0  0  0  0  0  0  0  0
   -2.0950    1.8450    1.3670 C   0  0  0  0  0  0  0  0  0  0  0  0
   -0.6330    1.7610    1.6480 C   0  0  2  0  0  0  0  0  0  0  0  0
   -0.0170    0.5970    1.0750 N   0  0  0  0  0  0  0  0  0  0  0  0
   -0.2260    2.0620    3.0360 C   0  0  0  0  0  0  0  0  0  0  0  0
   -0.6760    3.1810    3.4850 O   0  0  0  0  0  0  0  0  0  0  0  0
    0.5600    1.2750    3.8410 O   0  0  0  0  0  0  0  0  0  0  0  0
   -3.8240   -1.1880    4.5040 H   0  0  0  0  0  0  0  0  0  0  0  0
   -4.4370   -1.2020    2.8480 H   0  0  0  0  0  0  0  0  0  0  0  0
   -2.7190   -0.1710    1.1300 H   0  0  0  0  0  0  0  0  0  0  0  0
   -4.0030    0.9850    1.4550 H   0  0  0  0  0  0  0  0  0  0  0  0
   -2.4690    2.8180    1.7780 H   0  0  0  0  0  0  0  0  0  0  0  0
   -2.1910    1.9000    0.2350 H   0  0  0  0  0  0  0  0  0  0  0  0
   -0.1800    2.6480    1.0630 H   0  0  0  0  0  0  0  0  0  0  0  0
   -0.2920   -0.3700    1.3390 H   0  0  0  0  0  0  0  0  0  0  0  0
  1  2  1  0  0  0  0
  1  8  1  0  0  0  0
  2  9  1  1  0  0  0
  3  2  1  0  0  0  0
  3  4  1  0  0  0  0
  3 10  1  0  0  0  0
  5  6  2  0  0  0  0
  5  2  1  0  0  0  0
  7  1  1  0  0  0  0
 11  3  1  0  0  0  0
 12  4  1  0  0  0  0
 13 23  1  0  0  0  0
 13 14  1  0  0  0  0
 13 21  1  0  0  0  0
 15 24  1  0  0  0  0
 15 14  1  0  0  0  0
 15 16  1  0  0  0  0
 16 17  1  0  0  0  0
 17 28  1  1  0  0  0
 17 19  1  0  0  0  0
 17 18  1  0  0  0  0
 18  5  1  0  0  0  0
 19 36  1  0  0  0  0
 20 19  2  0  0  0  0
 22 13  1  0  0  0  0
 25 15  1  0  0  0  0
 26 16  1  0  0  0  0
 27 16  1  0  0  0  0
 29 18  1  0  0  0  0
 30 40  1  0  0  0  0
 31 30  1  0  0  0  0
 31 32  2  0  0  0  0
 33 31  1  0  0  0  0
 34 35  1  0  0  0  0
 34 44  1  0  0  0  0
 34 33  1  0  0  0  0
 35 46  1  6  0  0  0
 35 37  1  0  0  0  0
 36 47  1  0  0  0  0
 36 35  1  0  0  0  0
 37 38  2  0  0  0  0
 37 39  1  0  0  0  0
 41 30  1  0  0  0  0
 42 33  1  0  0  0  0
 43 33  1  0  0  0  0
 45 34  1  0  0  0  0
M  END
$$$$
