CMT.pdb
 OpenBabel07022418283D

 44 43  0  0  1  0  0  0  0  0999 V2000
   -1.8240   -1.7640   -0.9720 N   0  0  0  0  0  0  0  0  0  0  0  0
   -0.8770   -2.5880   -0.2850 C   0  0  1  0  0  0  0  0  0  0  0  0
   -0.6150   -3.8220   -1.1050 C   0  0  0  0  0  0  0  0  0  0  0  0
    0.5830   -4.8930   -0.2650 S   0  0  0  0  0  0  0  0  0  0  0  0
    0.3660   -1.8870    0.0750 C   0  0  0  0  0  0  0  0  0  0  0  0
    1.2920   -2.5350    0.6750 O   0  0  0  0  0  0  0  0  0  0  0  0
   -2.1280   -0.9270   -0.4620 H   0  0  0  0  0  0  0  0  0  0  0  0
   -2.5360   -2.2840   -1.4880 H   0  0  0  0  0  0  0  0  0  0  0  0
   -1.3890   -2.8730    0.6890 H   0  0  0  0  0  0  0  0  0  0  0  0
   -0.1740   -3.5230   -2.0700 H   0  0  0  0  0  0  0  0  0  0  0  0
   -1.5450   -4.3630   -1.3320 H   0  0  0  0  0  0  0  0  0  0  0  0
   -0.1200   -5.9130    0.3700 H   0  0  0  0  0  0  0  0  0  0  0  0
    1.2590   -1.1970   -3.0740 C   0  0  0  0  0  0  0  0  0  0  0  0
    1.8140    0.5000   -3.2540 S   0  0  0  0  0  0  0  0  0  0  0  0
    2.9570    0.9400   -1.9770 C   0  0  0  0  0  0  0  0  0  0  0  0
    2.4980    1.1220   -0.6030 C   0  0  0  0  0  0  0  0  0  0  0  0
    1.8790    0.0980    0.2060 C   0  0  2  0  0  0  0  0  0  0  0  0
    0.6510   -0.5180   -0.1820 N   0  0  0  0  0  0  0  0  0  0  0  0
    1.6120    0.5940    1.6280 C   0  0  0  0  0  0  0  0  0  0  0  0
    2.5590    1.1800    2.1890 O   0  0  0  0  0  0  0  0  0  0  0  0
    1.8770   -1.7710   -2.3540 H   0  0  0  0  0  0  0  0  0  0  0  0
    0.2070   -1.2950   -2.8030 H   0  0  0  0  0  0  0  0  0  0  0  0
    1.4120   -1.7300   -4.0540 H   0  0  0  0  0  0  0  0  0  0  0  0
    3.9090    0.2940   -2.0190 H   0  0  0  0  0  0  0  0  0  0  0  0
    3.4040    1.9500   -2.2920 H   0  0  0  0  0  0  0  0  0  0  0  0
    1.8950    2.1060   -0.6080 H   0  0  0  0  0  0  0  0  0  0  0  0
    3.4250    1.4980   -0.0280 H   0  0  0  0  0  0  0  0  0  0  0  0
    2.6070   -0.7520    0.4230 H   0  0  0  0  0  0  0  0  0  0  0  0
   -0.0730    0.0300   -0.6690 H   0  0  0  0  0  0  0  0  0  0  0  0
   -2.3150    1.3240    3.1020 C   0  0  0  0  0  0  0  0  0  0  0  0
   -1.0310    1.8630    3.6530 C   0  0  1  0  0  0  0  0  0  0  0  0
   -1.2030    2.2170    5.0100 O   0  0  0  0  0  0  0  0  0  0  0  0
    0.1000    0.8700    3.6200 C   0  0  2  0  0  0  0  0  0  0  0  0
    0.3910    0.4130    2.2730 N   0  0  0  0  0  0  0  0  0  0  0  0
   -0.1800   -0.2950    4.4860 C   0  0  0  0  0  0  0  0  0  0  0  0
   -0.4630   -0.1810    5.6980 O   0  0  0  0  0  0  0  0  0  0  0  0
   -0.1370   -1.5880    3.9720 O   0  0  0  0  0  0  0  0  0  0  0  0
   -2.4850    1.7060    2.0670 H   0  0  0  0  0  0  0  0  0  0  0  0
   -3.1430    1.7930    3.7080 H   0  0  0  0  0  0  0  0  0  0  0  0
   -2.3960    0.2310    3.1830 H   0  0  0  0  0  0  0  0  0  0  0  0
   -0.6860    2.7770    3.1220 H   0  0  0  0  0  0  0  0  0  0  0  0
   -0.4910    2.8600    5.2580 H   0  0  0  0  0  0  0  0  0  0  0  0
    0.9840    1.3880    4.0700 H   0  0  0  0  0  0  0  0  0  0  0  0
   -0.3680   -0.0890    1.7460 H   0  0  0  0  0  0  0  0  0  0  0  0
  1  7  1  0  0  0  0
  1  2  1  0  0  0  0
  2  5  1  0  0  0  0
  2  9  1  1  0  0  0
  3  2  1  0  0  0  0
  3  4  1  0  0  0  0
  4 12  1  0  0  0  0
  5  6  2  0  0  0  0
  8  1  1  0  0  0  0
 10  3  1  0  0  0  0
 11  3  1  0  0  0  0
 13 22  1  0  0  0  0
 13 21  1  0  0  0  0
 14 13  1  0  0  0  0
 14 15  1  0  0  0  0
 15 16  1  0  0  0  0
 16 27  1  0  0  0  0
 16 17  1  0  0  0  0
 17 28  1  1  0  0  0
 17 19  1  0  0  0  0
 18  5  1  0  0  0  0
 18 17  1  0  0  0  0
 19 20  2  0  0  0  0
 19 34  1  0  0  0  0
 23 13  1  0  0  0  0
 24 15  1  0  0  0  0
 25 15  1  0  0  0  0
 26 16  1  0  0  0  0
 29 18  1  0  0  0  0
 30 40  1  0  0  0  0
 30 31  1  0  0  0  0
 30 39  1  0  0  0  0
 31 41  1  6  0  0  0
 31 32  1  0  0  0  0
 32 42  1  0  0  0  0
 33 31  1  0  0  0  0
 33 43  1  1  0  0  0
 33 35  1  0  0  0  0
 34 33  1  0  0  0  0
 35 36  1  0  0  0  0
 37 35  2  0  0  0  0
 38 30  1  0  0  0  0
 44 34  1  0  0  0  0
M  END
$$$$
