CMV.pdb
 OpenBabel07022418283D

 46 45  0  0  1  0  0  0  0  0999 V2000
    4.5260   -2.7510   -0.4360 N   0  0  0  0  0  0  0  0  0  0  0  0
    3.2660   -2.7780    0.3050 C   0  0  1  0  0  0  0  0  0  0  0  0
    3.4600   -2.1180    1.6380 C   0  0  0  0  0  0  0  0  0  0  0  0
    3.9840   -0.4100    1.5130 S   0  0  0  0  0  0  0  0  0  0  0  0
    2.2270   -2.1670   -0.5380 C   0  0  0  0  0  0  0  0  0  0  0  0
    2.5000   -1.7180   -1.7050 O   0  0  0  0  0  0  0  0  0  0  0  0
    4.8200   -3.7170   -0.7490 H   0  0  0  0  0  0  0  0  0  0  0  0
    4.4300   -2.2120   -1.3380 H   0  0  0  0  0  0  0  0  0  0  0  0
    3.0710   -3.8520    0.5180 H   0  0  0  0  0  0  0  0  0  0  0  0
    4.2500   -2.7020    2.1710 H   0  0  0  0  0  0  0  0  0  0  0  0
    2.5360   -2.2620    2.2220 H   0  0  0  0  0  0  0  0  0  0  0  0
    5.3740   -0.3320    1.6580 H   0  0  0  0  0  0  0  0  0  0  0  0
   -4.3760   -0.9680   -0.1020 C   0  0  0  0  0  0  0  0  0  0  0  0
   -3.4370   -0.6420   -1.5900 S   0  0  0  0  0  0  0  0  0  0  0  0
   -2.3930   -1.9740   -2.1240 C   0  0  0  0  0  0  0  0  0  0  0  0
   -1.2500   -2.3550   -1.2730 C   0  0  0  0  0  0  0  0  0  0  0  0
   -0.1500   -1.4110   -1.0230 C   0  0  2  0  0  0  0  0  0  0  0  0
    0.8740   -2.0220   -0.1600 N   0  0  0  0  0  0  0  0  0  0  0  0
   -0.5120   -0.1490   -0.3670 C   0  0  0  0  0  0  0  0  0  0  0  0
   -1.2850    0.7010   -0.8760 O   0  0  0  0  0  0  0  0  0  0  0  0
   -3.7600   -1.3810    0.7270 H   0  0  0  0  0  0  0  0  0  0  0  0
   -4.7450    0.0250    0.2890 H   0  0  0  0  0  0  0  0  0  0  0  0
   -5.3020   -1.5640   -0.2820 H   0  0  0  0  0  0  0  0  0  0  0  0
   -2.1020   -1.7880   -3.1940 H   0  0  0  0  0  0  0  0  0  0  0  0
   -3.0570   -2.9010   -2.1860 H   0  0  0  0  0  0  0  0  0  0  0  0
   -1.7230   -2.7260   -0.2960 H   0  0  0  0  0  0  0  0  0  0  0  0
   -0.7840   -3.2800   -1.7620 H   0  0  0  0  0  0  0  0  0  0  0  0
    0.3040   -1.1290   -2.0060 H   0  0  0  0  0  0  0  0  0  0  0  0
    0.5780   -2.3670    0.7720 H   0  0  0  0  0  0  0  0  0  0  0  0
   -1.4460    2.6590    3.4310 C   0  0  0  0  0  0  0  0  0  0  0  0
   -1.1120    1.3010    2.8560 C   0  0  0  0  0  0  0  0  0  0  0  0
   -0.4280    0.4780    3.8870 C   0  0  0  0  0  0  0  0  0  0  0  0
   -0.3800    1.4870    1.5750 C   0  0  2  0  0  0  0  0  0  0  0  0
   -0.0090    0.2400    0.9370 N   0  0  0  0  0  0  0  0  0  0  0  0
    0.7560    2.4420    1.6390 C   0  0  0  0  0  0  0  0  0  0  0  0
    1.9050    2.1800    1.1870 O   0  0  0  0  0  0  0  0  0  0  0  0
    0.6270    3.7040    2.2070 O   0  0  0  0  0  0  0  0  0  0  0  0
   -1.6530    3.4240    2.6680 H   0  0  0  0  0  0  0  0  0  0  0  0
   -2.3050    2.5860    4.1560 H   0  0  0  0  0  0  0  0  0  0  0  0
   -0.6070    3.0610    4.0700 H   0  0  0  0  0  0  0  0  0  0  0  0
   -2.0840    0.8190    2.6190 H   0  0  0  0  0  0  0  0  0  0  0  0
   -0.5930   -0.6170    3.6710 H   0  0  0  0  0  0  0  0  0  0  0  0
    0.6230    0.7080    4.0600 H   0  0  0  0  0  0  0  0  0  0  0  0
   -0.9560    0.6470    4.8600 H   0  0  0  0  0  0  0  0  0  0  0  0
   -1.1030    1.9810    0.8850 H   0  0  0  0  0  0  0  0  0  0  0  0
    0.6380   -0.4530    1.3700 H   0  0  0  0  0  0  0  0  0  0  0  0
  1  2  1  0  0  0  0
  2  9  1  1  0  0  0
  2  3  1  0  0  0  0
  3 10  1  0  0  0  0
  3 11  1  0  0  0  0
  4  3  1  0  0  0  0
  4 12  1  0  0  0  0
  5 18  1  0  0  0  0
  5  2  1  0  0  0  0
  6  5  2  0  0  0  0
  7  1  1  0  0  0  0
  8  1  1  0  0  0  0
 13 22  1  0  0  0  0
 13 21  1  0  0  0  0
 14 13  1  0  0  0  0
 15 14  1  0  0  0  0
 15 16  1  0  0  0  0
 16 17  1  0  0  0  0
 16 26  1  0  0  0  0
 17 28  1  6  0  0  0
 17 19  1  0  0  0  0
 17 18  1  0  0  0  0
 18 29  1  0  0  0  0
 19 34  1  0  0  0  0
 20 19  2  0  0  0  0
 23 13  1  0  0  0  0
 24 15  1  0  0  0  0
 25 15  1  0  0  0  0
 27 16  1  0  0  0  0
 30 40  1  0  0  0  0
 30 39  1  0  0  0  0
 31 30  1  0  0  0  0
 31 32  1  0  0  0  0
 32 43  1  0  0  0  0
 32 44  1  0  0  0  0
 33 45  1  6  0  0  0
 33 35  1  0  0  0  0
 33 31  1  0  0  0  0
 34 46  1  0  0  0  0
 34 33  1  0  0  0  0
 35 37  1  0  0  0  0
 36 35  2  0  0  0  0
 38 30  1  0  0  0  0
 41 31  1  0  0  0  0
 42 32  1  0  0  0  0
M  END
$$$$
