CMW.pdb
 OpenBabel07022418283D

 54 55  0  0  1  0  0  0  0  0999 V2000
   -4.1470   -4.4350    0.8400 N   0  0  0  0  0  0  0  0  0  0  0  0
   -2.8720   -3.7670    0.9490 C   0  0  1  0  0  0  0  0  0  0  0  0
   -1.8830   -4.5030    0.0730 C   0  0  0  0  0  0  0  0  0  0  0  0
   -1.7940   -6.2140    0.6960 S   0  0  0  0  0  0  0  0  0  0  0  0
   -3.0330   -2.3570    0.5670 C   0  0  0  0  0  0  0  0  0  0  0  0
   -4.1490   -1.9300    0.2260 O   0  0  0  0  0  0  0  0  0  0  0  0
   -4.1840   -5.0770    0.0050 H   0  0  0  0  0  0  0  0  0  0  0  0
   -4.9490   -3.7790    0.7410 H   0  0  0  0  0  0  0  0  0  0  0  0
   -2.4680   -3.8660    1.9980 H   0  0  0  0  0  0  0  0  0  0  0  0
   -0.8580   -4.0840    0.1650 H   0  0  0  0  0  0  0  0  0  0  0  0
   -2.2340   -4.5080   -0.9630 H   0  0  0  0  0  0  0  0  0  0  0  0
   -0.7060   -6.9010    0.0990 H   0  0  0  0  0  0  0  0  0  0  0  0
   -3.4990    4.6580    0.3660 C   0  0  0  0  0  0  0  0  0  0  0  0
   -3.5650    2.8400    0.5950 S   0  0  0  0  0  0  0  0  0  0  0  0
   -1.9470    2.3000    1.1400 C   0  0  0  0  0  0  0  0  0  0  0  0
   -1.8350    0.8370    1.3730 C   0  0  0  0  0  0  0  0  0  0  0  0
   -2.1090   -0.0250    0.1850 C   0  0  2  0  0  0  0  0  0  0  0  0
   -1.9630   -1.4190    0.5600 N   0  0  0  0  0  0  0  0  0  0  0  0
   -1.3280    0.3230   -1.0070 C   0  0  0  0  0  0  0  0  0  0  0  0
   -1.3350    1.4910   -1.4710 O   0  0  0  0  0  0  0  0  0  0  0  0
   -2.8180    5.1140    1.1170 H   0  0  0  0  0  0  0  0  0  0  0  0
   -3.1900    4.9290   -0.6460 H   0  0  0  0  0  0  0  0  0  0  0  0
   -4.5110    5.0910    0.5410 H   0  0  0  0  0  0  0  0  0  0  0  0
   -1.1270    2.7170    0.5010 H   0  0  0  0  0  0  0  0  0  0  0  0
   -1.7650    2.7910    2.1430 H   0  0  0  0  0  0  0  0  0  0  0  0
   -0.7770    0.6380    1.7060 H   0  0  0  0  0  0  0  0  0  0  0  0
   -2.4610    0.5580    2.2450 H   0  0  0  0  0  0  0  0  0  0  0  0
   -3.2030    0.1040   -0.0670 H   0  0  0  0  0  0  0  0  0  0  0  0
   -1.0180   -1.8020    0.8530 H   0  0  0  0  0  0  0  0  0  0  0  0
   -0.5280   -0.6330   -1.6950 N   0  0  0  0  0  0  0  0  0  0  0  0
    0.2480   -0.2800   -2.8830 C   0  0  1  0  0  0  0  0  0  0  0  0
    1.6770   -0.6470   -2.6770 C   0  0  0  0  0  0  0  0  0  0  0  0
    2.2520    0.0730   -1.5010 C   0  0  0  0  0  0  0  0  0  0  0  0
    2.5250   -0.3950   -0.2340 C   0  0  0  0  0  0  0  0  0  0  0  0
    3.0320    0.6420    0.4540 N   0  0  0  0  0  0  0  0  0  0  0  0
    3.0960    1.7470   -0.3050 C   0  0  0  0  0  0  0  0  0  0  0  0
    3.5200    3.0510   -0.1100 C   0  0  0  0  0  0  0  0  0  0  0  0
    3.4560    3.9870   -1.1250 C   0  0  0  0  0  0  0  0  0  0  0  0
    2.9710    3.6560   -2.3610 C   0  0  0  0  0  0  0  0  0  0  0  0
    2.5480    2.3560   -2.5580 C   0  0  0  0  0  0  0  0  0  0  0  0
    2.6090    1.4100   -1.5410 C   0  0  0  0  0  0  0  0  0  0  0  0
   -0.2460   -1.0690   -4.0650 C   0  0  0  0  0  0  0  0  0  0  0  0
    0.2940   -0.9140   -5.1880 O   0  0  0  0  0  0  0  0  0  0  0  0
   -1.2880   -1.9770   -3.9700 O   0  0  0  0  0  0  0  0  0  0  0  0
   -0.5300   -1.5950   -1.3030 H   0  0  0  0  0  0  0  0  0  0  0  0
    0.1440    0.7690   -3.1470 H   0  0  0  0  0  0  0  0  0  0  0  0
    1.8300   -1.7370   -2.5110 H   0  0  0  0  0  0  0  0  0  0  0  0
    2.2780   -0.4010   -3.5830 H   0  0  0  0  0  0  0  0  0  0  0  0
    2.3540   -1.4060    0.1080 H   0  0  0  0  0  0  0  0  0  0  0  0
    3.3360    0.5900    1.4540 H   0  0  0  0  0  0  0  0  0  0  0  0
    3.8970    3.3060    0.8550 H   0  0  0  0  0  0  0  0  0  0  0  0
    3.7860    5.0070   -0.9730 H   0  0  0  0  0  0  0  0  0  0  0  0
    2.9010    4.3520   -3.1840 H   0  0  0  0  0  0  0  0  0  0  0  0
    2.1620    2.0710   -3.5210 H   0  0  0  0  0  0  0  0  0  0  0  0
  1  2  1  0  0  0  0
  2  9  1  1  0  0  0
  3 10  1  0  0  0  0
  3  4  1  0  0  0  0
  3  2  1  0  0  0  0
  5  2  1  0  0  0  0
  6  5  2  0  0  0  0
  7  1  1  0  0  0  0
  8  1  1  0  0  0  0
 11  3  1  0  0  0  0
 12  4  1  0  0  0  0
 13 23  1  0  0  0  0
 13 14  1  0  0  0  0
 13 21  1  0  0  0  0
 14 15  1  0  0  0  0
 15 16  1  0  0  0  0
 15 25  1  0  0  0  0
 16 26  1  0  0  0  0
 16 27  1  0  0  0  0
 17 28  1  6  0  0  0
 17 18  1  0  0  0  0
 17 16  1  0  0  0  0
 18  5  1  0  0  0  0
 18 29  1  0  0  0  0
 19 17  1  0  0  0  0
 20 19  2  0  0  0  0
 22 13  1  0  0  0  0
 24 15  1  0  0  0  0
 30 45  1  0  0  0  0
 30 19  1  0  0  0  0
 31 46  1  6  0  0  0
 31 32  1  0  0  0  0
 31 30  1  0  0  0  0
 32 47  1  0  0  0  0
 32 33  1  0  0  0  0
 33 34  2  0  0  0  0
 34 49  1  0  0  0  0
 34 35  1  0  0  0  0
 35 50  1  0  0  0  0
 36 37  1  0  0  0  0
 36 35  1  0  0  0  0
 37 51  1  0  0  0  0
 38 52  1  0  0  0  0
 38 37  2  0  0  0  0
 39 38  1  0  0  0  0
 40 39  2  0  0  0  0
 40 41  1  0  0  0  0
 41 33  1  0  0  0  0
 41 36  2  0  0  0  0
 42 44  1  0  0  0  0
 42 31  1  0  0  0  0
 43 42  2  0  0  0  0
 48 32  1  0  0  0  0
 53 39  1  0  0  0  0
 54 40  1  0  0  0  0
M  END
$$$$
