CMY.pdb
 OpenBabel07022418283D

 51 51  0  0  1  0  0  0  0  0999 V2000
    1.5200   -1.9560    5.1090 N   0  0  0  0  0  0  0  0  0  0  0  0
    1.8050   -2.2700    3.7240 C   0  0  1  0  0  0  0  0  0  0  0  0
    1.0440   -3.5130    3.3090 C   0  0  0  0  0  0  0  0  0  0  0  0
    1.4980   -4.9480    4.3140 S   0  0  0  0  0  0  0  0  0  0  0  0
    1.3360   -1.1690    2.8280 C   0  0  0  0  0  0  0  0  0  0  0  0
    0.7940   -0.1690    3.3450 O   0  0  0  0  0  0  0  0  0  0  0  0
    2.2280   -2.4730    5.6900 H   0  0  0  0  0  0  0  0  0  0  0  0
    0.5630   -2.3430    5.3390 H   0  0  0  0  0  0  0  0  0  0  0  0
    2.8790   -2.4740    3.5800 H   0  0  0  0  0  0  0  0  0  0  0  0
   -0.0550   -3.3290    3.4790 H   0  0  0  0  0  0  0  0  0  0  0  0
    1.1490   -3.7390    2.2470 H   0  0  0  0  0  0  0  0  0  0  0  0
    1.5930   -6.1150    3.5160 H   0  0  0  0  0  0  0  0  0  0  0  0
    5.6230    0.4420   -0.9750 C   0  0  0  0  0  0  0  0  0  0  0  0
    4.6670    1.6300   -0.0400 S   0  0  0  0  0  0  0  0  0  0  0  0
    3.2400    0.9460    0.7750 C   0  0  0  0  0  0  0  0  0  0  0  0
    2.1770    0.4510   -0.1730 C   0  0  0  0  0  0  0  0  0  0  0  0
    1.0040   -0.1120    0.6140 C   0  0  2  0  0  0  0  0  0  0  0  0
    1.4770   -1.2070    1.4300 N   0  0  0  0  0  0  0  0  0  0  0  0
   -0.0260   -0.5960   -0.3730 C   0  0  0  0  0  0  0  0  0  0  0  0
   -0.3260   -1.8160   -0.3600 O   0  0  0  0  0  0  0  0  0  0  0  0
    6.6870    0.5250   -0.6660 H   0  0  0  0  0  0  0  0  0  0  0  0
    5.6160    0.6650   -2.0800 H   0  0  0  0  0  0  0  0  0  0  0  0
    5.3320   -0.6140   -0.7760 H   0  0  0  0  0  0  0  0  0  0  0  0
    3.5570    0.0880    1.4190 H   0  0  0  0  0  0  0  0  0  0  0  0
    2.8100    1.7080    1.4490 H   0  0  0  0  0  0  0  0  0  0  0  0
    2.5190   -0.3330   -0.8440 H   0  0  0  0  0  0  0  0  0  0  0  0
    1.7860    1.3200   -0.7370 H   0  0  0  0  0  0  0  0  0  0  0  0
    0.5740    0.6570    1.2640 H   0  0  0  0  0  0  0  0  0  0  0  0
    1.9250   -2.0310    0.9820 H   0  0  0  0  0  0  0  0  0  0  0  0
   -4.6300   -0.7730    3.2740 O   0  0  0  0  0  0  0  0  0  0  0  0
   -4.2310   -0.4860    1.9690 C   0  0  0  0  0  0  0  0  0  0  0  0
   -3.4970    0.6530    1.7240 C   0  0  0  0  0  0  0  0  0  0  0  0
   -3.0900    0.9520    0.4200 C   0  0  0  0  0  0  0  0  0  0  0  0
   -3.4110    0.1270   -0.6300 C   0  0  0  0  0  0  0  0  0  0  0  0
   -2.9680    0.4690   -1.9940 C   0  0  0  0  0  0  0  0  0  0  0  0
   -1.6100   -0.1620   -2.2180 C   0  0  2  0  0  0  0  0  0  0  0  0
   -0.6290    0.3090   -1.2820 N   0  0  0  0  0  0  0  0  0  0  0  0
   -1.1430    0.0190   -3.6080 C   0  0  0  0  0  0  0  0  0  0  0  0
   -0.0140    0.5290   -3.8040 O   0  0  0  0  0  0  0  0  0  0  0  0
   -4.1420   -1.0050   -0.3780 C   0  0  0  0  0  0  0  0  0  0  0  0
   -4.5500   -1.3100    0.9170 C   0  0  0  0  0  0  0  0  0  0  0  0
   -1.9000   -0.3530   -4.7080 O   0  0  0  0  0  0  0  0  0  0  0  0
   -4.3160   -0.2040    4.0390 H   0  0  0  0  0  0  0  0  0  0  0  0
   -3.2440    1.3030    2.5500 H   0  0  0  0  0  0  0  0  0  0  0  0
   -2.5180    1.8340    0.2070 H   0  0  0  0  0  0  0  0  0  0  0  0
   -3.6690   -0.0270   -2.6990 H   0  0  0  0  0  0  0  0  0  0  0  0
   -2.9770    1.5550   -2.2060 H   0  0  0  0  0  0  0  0  0  0  0  0
   -1.7500   -1.2500   -2.0630 H   0  0  0  0  0  0  0  0  0  0  0  0
   -0.3300    1.3080   -1.2360 H   0  0  0  0  0  0  0  0  0  0  0  0
   -4.4260   -1.7010   -1.1800 H   0  0  0  0  0  0  0  0  0  0  0  0
   -5.1270   -2.2170    1.0680 H   0  0  0  0  0  0  0  0  0  0  0  0
  1  8  1  0  0  0  0
  1  7  1  0  0  0  0
  2  9  1  6  0  0  0
  2  1  1  0  0  0  0
  3 10  1  0  0  0  0
  3  2  1  0  0  0  0
  3  4  1  0  0  0  0
  5  6  2  0  0  0  0
  5  2  1  0  0  0  0
 11  3  1  0  0  0  0
 12  4  1  0  0  0  0
 13 23  1  0  0  0  0
 13 21  1  0  0  0  0
 13 14  1  0  0  0  0
 14 15  1  0  0  0  0
 15 24  1  0  0  0  0
 15 25  1  0  0  0  0
 16 17  1  0  0  0  0
 16 15  1  0  0  0  0
 17 28  1  1  0  0  0
 17 18  1  0  0  0  0
 18  5  1  0  0  0  0
 19 20  2  0  0  0  0
 19 17  1  0  0  0  0
 22 13  1  0  0  0  0
 26 16  1  0  0  0  0
 27 16  1  0  0  0  0
 29 18  1  0  0  0  0
 30 43  1  0  0  0  0
 31 30  1  0  0  0  0
 32 31  1  0  0  0  0
 32 44  1  0  0  0  0
 33 32  2  0  0  0  0
 34 40  2  0  0  0  0
 34 33  1  0  0  0  0
 35 34  1  0  0  0  0
 36 48  1  1  0  0  0
 36 35  1  0  0  0  0
 36 37  1  0  0  0  0
 37 49  1  0  0  0  0
 37 19  1  0  0  0  0
 38 36  1  0  0  0  0
 39 38  1  0  0  0  0
 40 41  1  0  0  0  0
 41 51  1  0  0  0  0
 41 31  2  0  0  0  0
 42 38  2  0  0  0  0
 45 33  1  0  0  0  0
 46 35  1  0  0  0  0
 47 35  1  0  0  0  0
 50 40  1  0  0  0  0
M  END
$$$$
