CNA.pdb
 OpenBabel07022418263D

 37 36  0  0  1  0  0  0  0  0999 V2000
    2.0900   -4.1950   -0.2520 N   0  0  0  0  0  0  0  0  0  0  0  0
    1.7490   -2.8180   -0.6560 C   0  0  1  0  0  0  0  0  0  0  0  0
    0.5650   -2.9540   -1.5490 C   0  0  0  0  0  0  0  0  0  0  0  0
   -0.0920   -1.4350   -2.2160 S   0  0  0  0  0  0  0  0  0  0  0  0
    1.6020   -2.0050    0.5370 C   0  0  0  0  0  0  0  0  0  0  0  0
    1.7710   -2.5380    1.6900 O   0  0  0  0  0  0  0  0  0  0  0  0
    3.0290   -4.2270    0.2000 H   0  0  0  0  0  0  0  0  0  0  0  0
    1.3790   -4.5360    0.4580 H   0  0  0  0  0  0  0  0  0  0  0  0
    2.6150   -2.4800   -1.2580 H   0  0  0  0  0  0  0  0  0  0  0  0
    0.9140   -3.5760   -2.4270 H   0  0  0  0  0  0  0  0  0  0  0  0
   -0.2460   -3.5910   -1.0970 H   0  0  0  0  0  0  0  0  0  0  0  0
   -1.4760   -1.4130   -2.0440 H   0  0  0  0  0  0  0  0  0  0  0  0
    4.0630   -0.3830    1.6710 N   0  0  0  0  0  0  0  0  0  0  0  0
    3.5260    0.8880    1.8250 C   0  0  0  0  0  0  0  0  0  0  0  0
    4.3500    1.8620    1.9160 O   0  0  0  0  0  0  0  0  0  0  0  0
    2.1060    1.2490    1.8960 C   0  0  0  0  0  0  0  0  0  0  0  0
    1.1580    0.1070    1.7880 C   0  0  2  0  0  0  0  0  0  0  0  0
    1.2770   -0.6130    0.5680 N   0  0  0  0  0  0  0  0  0  0  0  0
   -0.2120    0.6970    1.9990 C   0  0  0  0  0  0  0  0  0  0  0  0
   -0.4560    1.3620    3.0400 O   0  0  0  0  0  0  0  0  0  0  0  0
    4.2280   -0.7710    0.7280 H   0  0  0  0  0  0  0  0  0  0  0  0
    4.3070   -0.9610    2.4930 H   0  0  0  0  0  0  0  0  0  0  0  0
    1.8970    1.9570    1.0660 H   0  0  0  0  0  0  0  0  0  0  0  0
    1.9120    1.7990    2.8400 H   0  0  0  0  0  0  0  0  0  0  0  0
    1.3790   -0.5930    2.6380 H   0  0  0  0  0  0  0  0  0  0  0  0
    1.1360   -0.1730   -0.3820 H   0  0  0  0  0  0  0  0  0  0  0  0
   -2.9590    2.1170    0.2320 C   0  0  0  0  0  0  0  0  0  0  0  0
   -2.5950    1.1230    1.2900 C   0  0  2  0  0  0  0  0  0  0  0  0
   -1.2740    0.5480    1.0770 N   0  0  0  0  0  0  0  0  0  0  0  0
   -3.6270    0.0700    1.4350 C   0  0  0  0  0  0  0  0  0  0  0  0
   -3.2720   -1.1310    1.3630 O   0  0  0  0  0  0  0  0  0  0  0  0
   -4.9590    0.3610    1.6460 O   0  0  0  0  0  0  0  0  0  0  0  0
   -4.0140    1.8930   -0.0870 H   0  0  0  0  0  0  0  0  0  0  0  0
   -2.8440    3.1410    0.6140 H   0  0  0  0  0  0  0  0  0  0  0  0
   -2.2600    1.9400   -0.6370 H   0  0  0  0  0  0  0  0  0  0  0  0
   -2.5480    1.6520    2.2650 H   0  0  0  0  0  0  0  0  0  0  0  0
   -1.0620   -0.0050    0.2180 H   0  0  0  0  0  0  0  0  0  0  0  0
  1  7  1  0  0  0  0
  1  8  1  0  0  0  0
  2  9  1  6  0  0  0
  2  1  1  0  0  0  0
  2  5  1  0  0  0  0
  3 11  1  0  0  0  0
  3  2  1  0  0  0  0
  4 12  1  0  0  0  0
  4  3  1  0  0  0  0
  5 18  1  0  0  0  0
  5  6  2  0  0  0  0
 10  3  1  0  0  0  0
 13 14  1  0  0  0  0
 13 22  1  0  0  0  0
 14 16  1  0  0  0  0
 14 15  2  0  0  0  0
 16 24  1  0  0  0  0
 17 16  1  0  0  0  0
 17 19  1  0  0  0  0
 17 25  1  1  0  0  0
 18 17  1  0  0  0  0
 19 20  2  0  0  0  0
 21 13  1  0  0  0  0
 23 16  1  0  0  0  0
 26 18  1  0  0  0  0
 27 34  1  0  0  0  0
 27 28  1  0  0  0  0
 28 30  1  0  0  0  0
 28 36  1  1  0  0  0
 29 28  1  0  0  0  0
 29 19  1  0  0  0  0
 30 32  1  0  0  0  0
 31 30  2  0  0  0  0
 33 27  1  0  0  0  0
 35 27  1  0  0  0  0
 37 29  1  0  0  0  0
M  END
$$$$
