CNE.pdb
 OpenBabel07022418263D

 43 42  0  0  1  0  0  0  0  0999 V2000
    1.7890   -2.9820    2.8780 N   0  0  0  0  0  0  0  0  0  0  0  0
    2.9590   -2.4850    2.2190 C   0  0  1  0  0  0  0  0  0  0  0  0
    3.8370   -3.6770    1.8940 C   0  0  0  0  0  0  0  0  0  0  0  0
    5.3610   -3.2190    1.0560 S   0  0  0  0  0  0  0  0  0  0  0  0
    2.6550   -1.6760    1.0230 C   0  0  0  0  0  0  0  0  0  0  0  0
    3.6030   -1.1790    0.3640 O   0  0  0  0  0  0  0  0  0  0  0  0
    1.0670   -3.3650    2.2540 H   0  0  0  0  0  0  0  0  0  0  0  0
    2.0880   -3.7800    3.5060 H   0  0  0  0  0  0  0  0  0  0  0  0
    3.5310   -1.8490    2.9270 H   0  0  0  0  0  0  0  0  0  0  0  0
    4.1310   -4.1320    2.8810 H   0  0  0  0  0  0  0  0  0  0  0  0
    3.2670   -4.4780    1.3730 H   0  0  0  0  0  0  0  0  0  0  0  0
    5.2840   -3.6620   -0.2790 H   0  0  0  0  0  0  0  0  0  0  0  0
   -0.7800   -1.1010   -3.9140 N   0  0  0  0  0  0  0  0  0  0  0  0
    0.0550   -0.5940   -2.8580 C   0  0  0  0  0  0  0  0  0  0  0  0
    0.5420    0.5510   -3.0690 O   0  0  0  0  0  0  0  0  0  0  0  0
    0.2960   -1.3880   -1.6390 C   0  0  0  0  0  0  0  0  0  0  0  0
    1.0590   -0.6110   -0.6300 C   0  0  2  0  0  0  0  0  0  0  0  0
    1.3380   -1.4200    0.5630 N   0  0  0  0  0  0  0  0  0  0  0  0
    0.3200    0.6010   -0.1230 C   0  0  0  0  0  0  0  0  0  0  0  0
   -0.0800    1.5320   -0.8540 O   0  0  0  0  0  0  0  0  0  0  0  0
   -1.3700   -0.4720   -4.4810 H   0  0  0  0  0  0  0  0  0  0  0  0
   -0.7610   -2.1220   -4.0760 H   0  0  0  0  0  0  0  0  0  0  0  0
   -0.6850   -1.7590   -1.2690 H   0  0  0  0  0  0  0  0  0  0  0  0
    0.9290   -2.2620   -1.9750 H   0  0  0  0  0  0  0  0  0  0  0  0
    2.0220   -0.2920   -1.0420 H   0  0  0  0  0  0  0  0  0  0  0  0
    0.5190   -1.8030    1.0620 H   0  0  0  0  0  0  0  0  0  0  0  0
    0.0220    0.7640    1.2750 N   0  0  0  0  0  0  0  0  0  0  0  0
   -0.6890    1.9270    1.7750 C   0  0  1  0  0  0  0  0  0  0  0  0
   -1.9250    1.4080    2.4760 C   0  0  0  0  0  0  0  0  0  0  0  0
   -2.8390    0.6290    1.5930 C   0  0  0  0  0  0  0  0  0  0  0  0
   -3.3690    1.3720    0.4450 C   0  0  0  0  0  0  0  0  0  0  0  0
   -4.1420    0.7160   -0.3310 O   0  0  0  0  0  0  0  0  0  0  0  0
    0.1320    2.6040    2.8080 C   0  0  0  0  0  0  0  0  0  0  0  0
   -0.2320    3.6330    3.4130 O   0  0  0  0  0  0  0  0  0  0  0  0
   -3.1240    2.6800    0.1250 O   0  0  0  0  0  0  0  0  0  0  0  0
    1.3690    2.0750    3.1260 O   0  0  0  0  0  0  0  0  0  0  0  0
    0.3320    0.0200    1.9320 H   0  0  0  0  0  0  0  0  0  0  0  0
   -0.9450    2.6300    0.9500 H   0  0  0  0  0  0  0  0  0  0  0  0
   -2.5000    2.2250    2.9610 H   0  0  0  0  0  0  0  0  0  0  0  0
   -1.5690    0.7200    3.2740 H   0  0  0  0  0  0  0  0  0  0  0  0
   -3.6900    0.2860    2.1990 H   0  0  0  0  0  0  0  0  0  0  0  0
   -2.3410   -0.2960    1.2040 H   0  0  0  0  0  0  0  0  0  0  0  0
   -3.9060    3.2890   -0.1320 H   0  0  0  0  0  0  0  0  0  0  0  0
  1  8  1  0  0  0  0
  2  1  1  0  0  0  0
  2  9  1  1  0  0  0
  3  2  1  0  0  0  0
  3 10  1  0  0  0  0
  4  3  1  0  0  0  0
  5  2  1  0  0  0  0
  6  5  2  0  0  0  0
  7  1  1  0  0  0  0
 11  3  1  0  0  0  0
 12  4  1  0  0  0  0
 13 14  1  0  0  0  0
 14 16  1  0  0  0  0
 15 14  2  0  0  0  0
 16 23  1  0  0  0  0
 16 17  1  0  0  0  0
 17 25  1  6  0  0  0
 17 19  1  0  0  0  0
 17 18  1  0  0  0  0
 18  5  1  0  0  0  0
 18 26  1  0  0  0  0
 19 27  1  0  0  0  0
 20 19  2  0  0  0  0
 21 13  1  0  0  0  0
 22 13  1  0  0  0  0
 24 16  1  0  0  0  0
 27 28  1  0  0  0  0
 27 37  1  0  0  0  0
 28 38  1  6  0  0  0
 28 29  1  0  0  0  0
 28 33  1  0  0  0  0
 29 39  1  0  0  0  0
 29 40  1  0  0  0  0
 30 41  1  0  0  0  0
 30 29  1  0  0  0  0
 31 30  1  0  0  0  0
 32 31  2  0  0  0  0
 33 36  2  0  0  0  0
 33 34  1  0  0  0  0
 35 31  1  0  0  0  0
 42 30  1  0  0  0  0
 43 35  1  0  0  0  0
M  END
$$$$
