CNF.pdb
 OpenBabel07022418263D

 47 47  0  0  1  0  0  0  0  0999 V2000
    2.1560   -3.9830    1.6150 N   0  0  0  0  0  0  0  0  0  0  0  0
    3.0710   -3.0050    2.2190 C   0  0  1  0  0  0  0  0  0  0  0  0
    4.4680   -3.5860    2.0630 C   0  0  0  0  0  0  0  0  0  0  0  0
    4.5950   -5.1840    2.9060 S   0  0  0  0  0  0  0  0  0  0  0  0
    2.9650   -1.7480    1.4350 C   0  0  0  0  0  0  0  0  0  0  0  0
    3.6430   -0.7290    1.7390 O   0  0  0  0  0  0  0  0  0  0  0  0
    2.2600   -4.8640    2.1920 H   0  0  0  0  0  0  0  0  0  0  0  0
    1.1880   -3.5860    1.8010 H   0  0  0  0  0  0  0  0  0  0  0  0
    2.8520   -2.8310    3.2840 H   0  0  0  0  0  0  0  0  0  0  0  0
    5.2050   -2.8980    2.4770 H   0  0  0  0  0  0  0  0  0  0  0  0
    4.6420   -3.7490    0.9620 H   0  0  0  0  0  0  0  0  0  0  0  0
    3.9360   -6.1400    2.0890 H   0  0  0  0  0  0  0  0  0  0  0  0
    2.4090    0.5640   -4.0880 N   0  0  0  0  0  0  0  0  0  0  0  0
    2.2740    0.6360   -2.6460 C   0  0  0  0  0  0  0  0  0  0  0  0
    2.1340    1.7940   -2.2020 O   0  0  0  0  0  0  0  0  0  0  0  0
    2.3130   -0.6110   -1.8790 C   0  0  0  0  0  0  0  0  0  0  0  0
    2.0220   -0.3820   -0.4360 C   0  0  2  0  0  0  0  0  0  0  0  0
    2.1100   -1.6340    0.3240 N   0  0  0  0  0  0  0  0  0  0  0  0
    0.5920    0.0650   -0.2240 C   0  0  0  0  0  0  0  0  0  0  0  0
    0.2080    1.1050   -0.7510 O   0  0  0  0  0  0  0  0  0  0  0  0
    1.7050    1.0580   -4.6950 H   0  0  0  0  0  0  0  0  0  0  0  0
    3.1840    0.0360   -4.5400 H   0  0  0  0  0  0  0  0  0  0  0  0
    3.3570   -1.0070   -1.9480 H   0  0  0  0  0  0  0  0  0  0  0  0
    1.6050   -1.3540   -2.3370 H   0  0  0  0  0  0  0  0  0  0  0  0
    2.7310    0.3220   -0.0010 H   0  0  0  0  0  0  0  0  0  0  0  0
    1.5230   -2.4170    0.0020 H   0  0  0  0  0  0  0  0  0  0  0  0
   -0.3260   -0.6710    0.5610 N   0  0  0  0  0  0  0  0  0  0  0  0
   -1.6890   -0.2650    0.7590 C   0  0  1  0  0  0  0  0  0  0  0  0
   -1.7450    0.6990    1.8920 C   0  0  0  0  0  0  0  0  0  0  0  0
   -3.0610    1.2240    2.2380 C   0  0  0  0  0  0  0  0  0  0  0  0
   -3.5490    2.3820    1.6850 C   0  0  0  0  0  0  0  0  0  0  0  0
   -4.8030    2.8110    2.0650 C   0  0  0  0  0  0  0  0  0  0  0  0
   -5.5850    2.1280    2.9740 C   0  0  0  0  0  0  0  0  0  0  0  0
   -5.0950    0.9680    3.5270 C   0  0  0  0  0  0  0  0  0  0  0  0
   -3.8420    0.5480    3.1420 C   0  0  0  0  0  0  0  0  0  0  0  0
   -2.4200    0.1150   -0.4510 C   0  0  0  0  0  0  0  0  0  0  0  0
   -3.5840    0.5490   -0.3510 O   0  0  0  0  0  0  0  0  0  0  0  0
   -1.8530    0.0010   -1.6900 O   0  0  0  0  0  0  0  0  0  0  0  0
    0.0150   -1.5420    1.0150 H   0  0  0  0  0  0  0  0  0  0  0  0
   -2.2230   -1.2400    1.0750 H   0  0  0  0  0  0  0  0  0  0  0  0
   -1.3150    0.1550    2.7860 H   0  0  0  0  0  0  0  0  0  0  0  0
   -1.0640    1.5770    1.7520 H   0  0  0  0  0  0  0  0  0  0  0  0
   -2.9950    2.9740    0.9650 H   0  0  0  0  0  0  0  0  0  0  0  0
   -5.2080    3.7350    1.6320 H   0  0  0  0  0  0  0  0  0  0  0  0
   -6.5740    2.4990    3.2510 H   0  0  0  0  0  0  0  0  0  0  0  0
   -5.6950    0.4140    4.2470 H   0  0  0  0  0  0  0  0  0  0  0  0
   -3.5060   -0.3860    3.6190 H   0  0  0  0  0  0  0  0  0  0  0  0
  1  8  1  0  0  0  0
  1  7  1  0  0  0  0
  1  2  1  0  0  0  0
  2  9  1  1  0  0  0
  3  2  1  0  0  0  0
  3 10  1  0  0  0  0
  3  4  1  0  0  0  0
  5  6  2  0  0  0  0
  5  2  1  0  0  0  0
 11  3  1  0  0  0  0
 12  4  1  0  0  0  0
 13 14  1  0  0  0  0
 14 15  2  0  0  0  0
 14 16  1  0  0  0  0
 16 17  1  0  0  0  0
 17 19  1  0  0  0  0
 17 25  1  1  0  0  0
 17 18  1  0  0  0  0
 18  5  1  0  0  0  0
 19 27  1  0  0  0  0
 20 19  2  0  0  0  0
 21 13  1  0  0  0  0
 22 13  1  0  0  0  0
 23 16  1  0  0  0  0
 24 16  1  0  0  0  0
 26 18  1  0  0  0  0
 27 28  1  0  0  0  0
 27 39  1  0  0  0  0
 28 40  1  1  0  0  0
 28 29  1  0  0  0  0
 29 30  1  0  0  0  0
 29 41  1  0  0  0  0
 30 35  1  0  0  0  0
 31 32  1  0  0  0  0
 31 30  2  0  0  0  0
 32 33  2  0  0  0  0
 33 45  1  0  0  0  0
 33 34  1  0  0  0  0
 34 46  1  0  0  0  0
 35 34  2  0  0  0  0
 35 47  1  0  0  0  0
 36 37  1  0  0  0  0
 36 28  1  0  0  0  0
 38 36  2  0  0  0  0
 42 29  1  0  0  0  0
 43 31  1  0  0  0  0
 44 32  1  0  0  0  0
M  END
$$$$
