CNI.pdb
 OpenBabel07022418263D

 46 45  0  0  1  0  0  0  0  0999 V2000
    0.0980   -4.8830   -2.0720 N   0  0  0  0  0  0  0  0  0  0  0  0
    0.2720   -4.1840   -0.8360 C   0  0  1  0  0  0  0  0  0  0  0  0
    1.6010   -3.4320   -0.8470 C   0  0  0  0  0  0  0  0  0  0  0  0
    1.6640   -2.2240   -2.2020 S   0  0  0  0  0  0  0  0  0  0  0  0
   -0.7930   -3.1690   -0.6190 C   0  0  0  0  0  0  0  0  0  0  0  0
   -1.7050   -3.0100   -1.4780 O   0  0  0  0  0  0  0  0  0  0  0  0
    0.9790   -4.8920   -2.6460 H   0  0  0  0  0  0  0  0  0  0  0  0
   -0.7020   -4.4920   -2.6340 H   0  0  0  0  0  0  0  0  0  0  0  0
    0.3140   -4.8510    0.0400 H   0  0  0  0  0  0  0  0  0  0  0  0
    2.4510   -4.1270   -1.0070 H   0  0  0  0  0  0  0  0  0  0  0  0
    1.6960   -2.8950    0.1070 H   0  0  0  0  0  0  0  0  0  0  0  0
    0.9140   -2.6300   -3.3120 H   0  0  0  0  0  0  0  0  0  0  0  0
   -4.9770   -0.8080    1.5080 N   0  0  0  0  0  0  0  0  0  0  0  0
   -3.7240   -0.6240    2.1660 C   0  0  0  0  0  0  0  0  0  0  0  0
   -3.5940    0.4190    2.8630 O   0  0  0  0  0  0  0  0  0  0  0  0
   -2.6720   -1.6500    1.9930 C   0  0  0  0  0  0  0  0  0  0  0  0
   -1.8910   -1.3550    0.7360 C   0  0  2  0  0  0  0  0  0  0  0  0
   -0.8450   -2.3480    0.5270 N   0  0  0  0  0  0  0  0  0  0  0  0
   -1.2320   -0.0370    0.8930 C   0  0  0  0  0  0  0  0  0  0  0  0
   -1.8580    1.0480    1.0590 O   0  0  0  0  0  0  0  0  0  0  0  0
   -5.3170   -0.2320    0.7130 H   0  0  0  0  0  0  0  0  0  0  0  0
   -5.5890   -1.5710    1.8510 H   0  0  0  0  0  0  0  0  0  0  0  0
   -2.0160   -1.6590    2.8950 H   0  0  0  0  0  0  0  0  0  0  0  0
   -3.2120   -2.6340    1.9130 H   0  0  0  0  0  0  0  0  0  0  0  0
   -2.6170   -1.3520   -0.1040 H   0  0  0  0  0  0  0  0  0  0  0  0
   -0.1020   -2.4630    1.2480 H   0  0  0  0  0  0  0  0  0  0  0  0
    1.3930    3.8040    2.6780 C   0  0  0  0  0  0  0  0  0  0  0  0
    2.3300    2.6220    2.6450 C   0  0  0  0  0  0  0  0  0  0  0  0
    1.5990    1.3310    2.3260 C   0  0  2  0  0  0  0  0  0  0  0  0
    2.5940    0.1970    2.3140 C   0  0  0  0  0  0  0  0  0  0  0  0
    0.8240    1.4100    1.0220 C   0  0  2  0  0  0  0  0  0  0  0  0
    0.1890    0.1160    0.8690 N   0  0  0  0  0  0  0  0  0  0  0  0
    1.7120    1.7210   -0.1240 C   0  0  0  0  0  0  0  0  0  0  0  0
    1.8680    0.9250   -1.0910 O   0  0  0  0  0  0  0  0  0  0  0  0
    2.4230    2.9090   -0.1970 O   0  0  0  0  0  0  0  0  0  0  0  0
    0.3320    3.4300    2.7700 H   0  0  0  0  0  0  0  0  0  0  0  0
    1.5330    4.4100    3.6160 H   0  0  0  0  0  0  0  0  0  0  0  0
    1.4830    4.4880    1.8330 H   0  0  0  0  0  0  0  0  0  0  0  0
    3.2130    2.7860    1.9920 H   0  0  0  0  0  0  0  0  0  0  0  0
    2.7240    2.4990    3.6830 H   0  0  0  0  0  0  0  0  0  0  0  0
    0.9010    1.1520    3.1660 H   0  0  0  0  0  0  0  0  0  0  0  0
    2.8230   -0.0700    1.2600 H   0  0  0  0  0  0  0  0  0  0  0  0
    2.0900   -0.6920    2.7460 H   0  0  0  0  0  0  0  0  0  0  0  0
    3.4820    0.4070    2.9290 H   0  0  0  0  0  0  0  0  0  0  0  0
    0.0900    2.2300    1.1450 H   0  0  0  0  0  0  0  0  0  0  0  0
    0.7980   -0.7120    0.7390 H   0  0  0  0  0  0  0  0  0  0  0  0
  1  2  1  0  0  0  0
  2  5  1  0  0  0  0
  2  9  1  1  0  0  0
  3  2  1  0  0  0  0
  3 11  1  0  0  0  0
  4  3  1  0  0  0  0
  5 18  1  0  0  0  0
  6  5  2  0  0  0  0
  7  1  1  0  0  0  0
  8  1  1  0  0  0  0
 10  3  1  0  0  0  0
 12  4  1  0  0  0  0
 13 22  1  0  0  0  0
 13 14  1  0  0  0  0
 14 15  2  0  0  0  0
 16 14  1  0  0  0  0
 16 23  1  0  0  0  0
 17 25  1  6  0  0  0
 17 19  1  0  0  0  0
 17 16  1  0  0  0  0
 18 17  1  0  0  0  0
 18 26  1  0  0  0  0
 19 20  2  0  0  0  0
 21 13  1  0  0  0  0
 24 16  1  0  0  0  0
 27 36  1  0  0  0  0
 27 37  1  0  0  0  0
 28 27  1  0  0  0  0
 28 40  1  0  0  0  0
 29 28  1  0  0  0  0
 29 41  1  1  0  0  0
 30 29  1  0  0  0  0
 30 43  1  0  0  0  0
 30 44  1  0  0  0  0
 31 45  1  1  0  0  0
 31 29  1  0  0  0  0
 32 19  1  0  0  0  0
 32 31  1  0  0  0  0
 33 31  1  0  0  0  0
 34 33  2  0  0  0  0
 35 33  1  0  0  0  0
 38 27  1  0  0  0  0
 39 28  1  0  0  0  0
 42 30  1  0  0  0  0
 46 32  1  0  0  0  0
M  END
$$$$
