CNL.pdb
 OpenBabel07022418263D

 46 45  0  0  1  0  0  0  0  0999 V2000
    1.3700   -5.6240   -0.9390 N   0  0  0  0  0  0  0  0  0  0  0  0
    0.8880   -4.2500   -1.1650 C   0  0  1  0  0  0  0  0  0  0  0  0
   -0.5520   -4.2540   -0.7850 C   0  0  0  0  0  0  0  0  0  0  0  0
   -1.3910   -2.6790   -0.9980 S   0  0  0  0  0  0  0  0  0  0  0  0
    1.6920   -3.3660   -0.3230 C   0  0  0  0  0  0  0  0  0  0  0  0
    2.5790   -3.8360    0.4610 O   0  0  0  0  0  0  0  0  0  0  0  0
    2.3660   -5.5830   -0.5870 H   0  0  0  0  0  0  0  0  0  0  0  0
    1.3850   -6.1210   -1.8650 H   0  0  0  0  0  0  0  0  0  0  0  0
    1.0040   -3.9900   -2.2310 H   0  0  0  0  0  0  0  0  0  0  0  0
   -1.1180   -5.0280   -1.3710 H   0  0  0  0  0  0  0  0  0  0  0  0
   -0.6620   -4.5950    0.2760 H   0  0  0  0  0  0  0  0  0  0  0  0
   -2.5120   -2.8050   -1.8270 H   0  0  0  0  0  0  0  0  0  0  0  0
    2.2930    0.0450   -2.7670 N   0  0  0  0  0  0  0  0  0  0  0  0
    2.4810    0.4900   -1.4220 C   0  0  0  0  0  0  0  0  0  0  0  0
    1.9570    1.5830   -1.1050 O   0  0  0  0  0  0  0  0  0  0  0  0
    3.2620   -0.3130   -0.4460 C   0  0  0  0  0  0  0  0  0  0  0  0
    2.3480   -1.0850    0.4910 C   0  0  2  0  0  0  0  0  0  0  0  0
    1.5390   -1.9610   -0.3320 N   0  0  0  0  0  0  0  0  0  0  0  0
    1.6260   -0.2260    1.4140 C   0  0  0  0  0  0  0  0  0  0  0  0
    2.3060    0.5580    2.1550 O   0  0  0  0  0  0  0  0  0  0  0  0
    3.0690   -0.5280   -3.1820 H   0  0  0  0  0  0  0  0  0  0  0  0
    1.4760    0.2370   -3.3500 H   0  0  0  0  0  0  0  0  0  0  0  0
    3.9760    0.3270    0.1150 H   0  0  0  0  0  0  0  0  0  0  0  0
    3.8820   -1.0230   -1.0290 H   0  0  0  0  0  0  0  0  0  0  0  0
    3.0510   -1.7630    1.0630 H   0  0  0  0  0  0  0  0  0  0  0  0
    0.8410   -1.5150   -0.9340 H   0  0  0  0  0  0  0  0  0  0  0  0
   -3.2300    2.2640    3.4010 C   0  0  0  0  0  0  0  0  0  0  0  0
   -2.2200    2.6050    2.3720 C   0  0  0  0  0  0  0  0  0  0  0  0
   -1.3870    3.8220    2.8430 C   0  0  0  0  0  0  0  0  0  0  0  0
   -1.3790    1.5670    1.7850 C   0  0  0  0  0  0  0  0  0  0  0  0
   -0.4270    0.7500    2.5530 C   0  0  2  0  0  0  0  0  0  0  0  0
    0.2360   -0.1820    1.5610 N   0  0  0  0  0  0  0  0  0  0  0  0
   -1.0640   -0.1080    3.5540 C   0  0  0  0  0  0  0  0  0  0  0  0
   -1.1960   -1.3680    3.4000 O   0  0  0  0  0  0  0  0  0  0  0  0
   -1.5520    0.4000    4.7280 O   0  0  0  0  0  0  0  0  0  0  0  0
   -4.1640    2.9020    3.1640 H   0  0  0  0  0  0  0  0  0  0  0  0
   -2.9880    2.5630    4.4410 H   0  0  0  0  0  0  0  0  0  0  0  0
   -3.5980    1.2430    3.2940 H   0  0  0  0  0  0  0  0  0  0  0  0
   -2.7990    3.0620    1.4930 H   0  0  0  0  0  0  0  0  0  0  0  0
   -1.2700    4.5710    2.0450 H   0  0  0  0  0  0  0  0  0  0  0  0
   -1.8930    4.2760    3.7040 H   0  0  0  0  0  0  0  0  0  0  0  0
   -0.3660    3.4970    3.1260 H   0  0  0  0  0  0  0  0  0  0  0  0
   -2.0790    0.8820    1.1780 H   0  0  0  0  0  0  0  0  0  0  0  0
   -0.7960    2.0560    0.9380 H   0  0  0  0  0  0  0  0  0  0  0  0
    0.3930    1.2810    3.0270 H   0  0  0  0  0  0  0  0  0  0  0  0
   -0.4010   -0.7750    1.0090 H   0  0  0  0  0  0  0  0  0  0  0  0
  1  7  1  0  0  0  0
  2  9  1  6  0  0  0
  2  1  1  0  0  0  0
  2  3  1  0  0  0  0
  2  5  1  0  0  0  0
  3 11  1  0  0  0  0
  4  3  1  0  0  0  0
  5  6  2  0  0  0  0
  8  1  1  0  0  0  0
 10  3  1  0  0  0  0
 12  4  1  0  0  0  0
 13 14  1  0  0  0  0
 14 15  2  0  0  0  0
 14 16  1  0  0  0  0
 16 23  1  0  0  0  0
 16 17  1  0  0  0  0
 17 25  1  1  0  0  0
 17 19  1  0  0  0  0
 18  5  1  0  0  0  0
 18 17  1  0  0  0  0
 19 32  1  0  0  0  0
 19 20  2  0  0  0  0
 21 13  1  0  0  0  0
 22 13  1  0  0  0  0
 24 16  1  0  0  0  0
 26 18  1  0  0  0  0
 27 37  1  0  0  0  0
 28 29  1  0  0  0  0
 28 27  1  0  0  0  0
 29 42  1  0  0  0  0
 29 41  1  0  0  0  0
 30 28  1  0  0  0  0
 30 31  1  0  0  0  0
 31 45  1  1  0  0  0
 31 33  1  0  0  0  0
 32 31  1  0  0  0  0
 33 35  1  0  0  0  0
 34 33  2  0  0  0  0
 36 27  1  0  0  0  0
 38 27  1  0  0  0  0
 39 28  1  0  0  0  0
 40 29  1  0  0  0  0
 43 30  1  0  0  0  0
 44 30  1  0  0  0  0
 46 32  1  0  0  0  0
M  END
$$$$
