CNR.pdb
 OpenBabel07022418263D

 50 49  0  0  1  0  0  0  0  0999 V2000
    3.6910   -5.7860    0.8700 N   0  0  0  0  0  0  0  0  0  0  0  0
    3.3110   -4.7240   -0.0370 C   0  0  1  0  0  0  0  0  0  0  0  0
    2.4030   -5.3560   -1.0760 C   0  0  0  0  0  0  0  0  0  0  0  0
    3.3690   -6.6670   -1.9140 S   0  0  0  0  0  0  0  0  0  0  0  0
    2.5870   -3.6910    0.7430 C   0  0  0  0  0  0  0  0  0  0  0  0
    2.3880   -3.8470    1.9610 O   0  0  0  0  0  0  0  0  0  0  0  0
    3.6610   -6.7170    0.4180 H   0  0  0  0  0  0  0  0  0  0  0  0
    4.6500   -5.5380    1.2430 H   0  0  0  0  0  0  0  0  0  0  0  0
    4.1820   -4.3240   -0.5640 H   0  0  0  0  0  0  0  0  0  0  0  0
    2.0540   -4.6090   -1.8390 H   0  0  0  0  0  0  0  0  0  0  0  0
    1.5370   -5.8530   -0.5940 H   0  0  0  0  0  0  0  0  0  0  0  0
    3.2540   -7.8930   -1.2260 H   0  0  0  0  0  0  0  0  0  0  0  0
    3.8230    0.0340   -1.1370 N   0  0  0  0  0  0  0  0  0  0  0  0
    2.5740    0.2810   -0.5160 C   0  0  0  0  0  0  0  0  0  0  0  0
    1.7210    0.9560   -1.1470 O   0  0  0  0  0  0  0  0  0  0  0  0
    2.2500   -0.2180    0.8210 C   0  0  0  0  0  0  0  0  0  0  0  0
    1.4050   -1.4700    0.7990 C   0  0  2  0  0  0  0  0  0  0  0  0
    2.1180   -2.5150    0.0980 N   0  0  0  0  0  0  0  0  0  0  0  0
    0.0810   -1.2940    0.1840 C   0  0  0  0  0  0  0  0  0  0  0  0
   -0.2780   -1.9820   -0.8040 O   0  0  0  0  0  0  0  0  0  0  0  0
    3.8700   -0.1360   -2.1610 H   0  0  0  0  0  0  0  0  0  0  0  0
    4.7040    0.0160   -0.5960 H   0  0  0  0  0  0  0  0  0  0  0  0
    3.1990   -0.4930    1.3310 H   0  0  0  0  0  0  0  0  0  0  0  0
    1.7760    0.5540    1.4790 H   0  0  0  0  0  0  0  0  0  0  0  0
    1.2930   -1.7590    1.8860 H   0  0  0  0  0  0  0  0  0  0  0  0
    2.3030   -2.4180   -0.9220 H   0  0  0  0  0  0  0  0  0  0  0  0
   -1.5430    4.7630    2.1100 N   0  0  0  0  0  0  0  0  0  0  0  0
   -2.7110    3.9830    2.1950 C   0  0  0  0  0  0  0  0  0  0  0  0
   -3.8990    4.4730    2.2710 N   0  0  0  0  0  0  0  0  0  0  0  0
   -2.5360    2.5410    2.2000 N   0  0  0  0  0  0  0  0  0  0  0  0
   -3.6650    1.7250    2.5310 C   0  0  0  0  0  0  0  0  0  0  0  0
   -3.4880    0.2720    2.3860 C   0  0  0  0  0  0  0  0  0  0  0  0
   -3.2620   -0.3450    1.0860 C   0  0  0  0  0  0  0  0  0  0  0  0
   -2.1120   -0.0570    0.2270 C   0  0  2  0  0  0  0  0  0  0  0  0
   -0.8060   -0.3190    0.7320 N   0  0  0  0  0  0  0  0  0  0  0  0
   -2.2470    1.2220   -0.5270 C   0  0  0  0  0  0  0  0  0  0  0  0
   -3.3330    1.6020   -1.0230 O   0  0  0  0  0  0  0  0  0  0  0  0
   -1.1400    2.0360   -0.6940 O   0  0  0  0  0  0  0  0  0  0  0  0
   -0.5810    4.3940    2.1830 H   0  0  0  0  0  0  0  0  0  0  0  0
   -1.6330    5.7920    1.9620 H   0  0  0  0  0  0  0  0  0  0  0  0
   -3.9610    5.5320    2.2640 H   0  0  0  0  0  0  0  0  0  0  0  0
   -1.6090    2.1340    1.9950 H   0  0  0  0  0  0  0  0  0  0  0  0
   -3.8800    1.9760    3.6240 H   0  0  0  0  0  0  0  0  0  0  0  0
   -4.6040    2.0980    2.0280 H   0  0  0  0  0  0  0  0  0  0  0  0
   -4.4530   -0.1980    2.7930 H   0  0  0  0  0  0  0  0  0  0  0  0
   -2.7500   -0.0640    3.1740 H   0  0  0  0  0  0  0  0  0  0  0  0
   -4.2260   -0.1770    0.4800 H   0  0  0  0  0  0  0  0  0  0  0  0
   -3.3410   -1.4820    1.2570 H   0  0  0  0  0  0  0  0  0  0  0  0
   -2.2090   -0.8430   -0.6400 H   0  0  0  0  0  0  0  0  0  0  0  0
   -0.4470    0.2080    1.5480 H   0  0  0  0  0  0  0  0  0  0  0  0
  1  8  1  0  0  0  0
  2  9  1  6  0  0  0
  2  5  1  0  0  0  0
  2  1  1  0  0  0  0
  3 11  1  0  0  0  0
  3  2  1  0  0  0  0
  4 12  1  0  0  0  0
  4  3  1  0  0  0  0
  5  6  2  0  0  0  0
  7  1  1  0  0  0  0
 10  3  1  0  0  0  0
 13 22  1  0  0  0  0
 13 14  1  0  0  0  0
 14 16  1  0  0  0  0
 15 14  2  0  0  0  0
 16 23  1  0  0  0  0
 16 24  1  0  0  0  0
 17 16  1  0  0  0  0
 17 25  1  1  0  0  0
 18  5  1  0  0  0  0
 18 17  1  0  0  0  0
 19 35  1  0  0  0  0
 19 17  1  0  0  0  0
 20 19  2  0  0  0  0
 21 13  1  0  0  0  0
 26 18  1  0  0  0  0
 27 39  1  0  0  0  0
 27 28  1  0  0  0  0
 28 30  1  0  0  0  0
 28 29  2  0  0  0  0
 30 31  1  0  0  0  0
 31 43  1  0  0  0  0
 32 31  1  0  0  0  0
 32 45  1  0  0  0  0
 32 46  1  0  0  0  0
 33 48  1  0  0  0  0
 33 32  1  0  0  0  0
 34 49  1  6  0  0  0
 34 35  1  0  0  0  0
 34 33  1  0  0  0  0
 35 50  1  0  0  0  0
 36 34  1  0  0  0  0
 37 36  2  0  0  0  0
 38 36  1  0  0  0  0
 40 27  1  0  0  0  0
 41 29  1  0  0  0  0
 42 30  1  0  0  0  0
 44 31  1  0  0  0  0
 47 33  1  0  0  0  0
M  END
$$$$
