CNV.pdb
 OpenBabel07022418263D

 43 42  0  0  1  0  0  0  0  0999 V2000
   -1.2050   -3.2500   -3.1640 N   0  0  0  0  0  0  0  0  0  0  0  0
   -1.2450   -2.1900   -2.1650 C   0  0  1  0  0  0  0  0  0  0  0  0
   -1.9610   -2.7190   -0.9250 C   0  0  0  0  0  0  0  0  0  0  0  0
   -0.9580   -4.1540   -0.3770 S   0  0  0  0  0  0  0  0  0  0  0  0
    0.1430   -1.8670   -1.7280 C   0  0  0  0  0  0  0  0  0  0  0  0
    1.1280   -2.5880   -2.0820 O   0  0  0  0  0  0  0  0  0  0  0  0
   -0.7770   -2.8640   -4.0380 H   0  0  0  0  0  0  0  0  0  0  0  0
   -0.6150   -4.0170   -2.7520 H   0  0  0  0  0  0  0  0  0  0  0  0
   -1.7960   -1.3000   -2.5200 H   0  0  0  0  0  0  0  0  0  0  0  0
   -2.9950   -3.0170   -1.1500 H   0  0  0  0  0  0  0  0  0  0  0  0
   -1.9780   -1.9860   -0.1110 H   0  0  0  0  0  0  0  0  0  0  0  0
   -0.9190   -4.1640    1.0200 H   0  0  0  0  0  0  0  0  0  0  0  0
    2.3800    2.3510   -3.0960 N   0  0  0  0  0  0  0  0  0  0  0  0
    1.9950    1.1640   -2.4220 C   0  0  0  0  0  0  0  0  0  0  0  0
    1.6560    0.2080   -3.1680 O   0  0  0  0  0  0  0  0  0  0  0  0
    1.9910    1.0540   -0.9490 C   0  0  0  0  0  0  0  0  0  0  0  0
    1.6130   -0.3390   -0.4460 C   0  0  2  0  0  0  0  0  0  0  0  0
    0.3080   -0.7030   -0.8930 N   0  0  0  0  0  0  0  0  0  0  0  0
    1.7020   -0.2570    1.0380 C   0  0  0  0  0  0  0  0  0  0  0  0
    2.8130   -0.0220    1.5720 O   0  0  0  0  0  0  0  0  0  0  0  0
    2.0080    3.2650   -2.8080 H   0  0  0  0  0  0  0  0  0  0  0  0
    3.0430    2.2870   -3.8820 H   0  0  0  0  0  0  0  0  0  0  0  0
    1.2640    1.8140   -0.5670 H   0  0  0  0  0  0  0  0  0  0  0  0
    2.9770    1.3670   -0.5410 H   0  0  0  0  0  0  0  0  0  0  0  0
    2.3710   -1.0520   -0.8260 H   0  0  0  0  0  0  0  0  0  0  0  0
   -0.5340   -0.1500   -0.6320 H   0  0  0  0  0  0  0  0  0  0  0  0
    0.6880    2.1330    3.2800 C   0  0  0  0  0  0  0  0  0  0  0  0
   -0.0470    0.9150    3.7910 C   0  0  0  0  0  0  0  0  0  0  0  0
    0.0910    0.9130    5.3000 C   0  0  0  0  0  0  0  0  0  0  0  0
    0.5800   -0.3660    3.2830 C   0  0  2  0  0  0  0  0  0  0  0  0
    0.5730   -0.4350    1.8370 N   0  0  0  0  0  0  0  0  0  0  0  0
   -0.0310   -1.5200    3.9480 C   0  0  0  0  0  0  0  0  0  0  0  0
   -0.1150   -1.6470    5.1960 O   0  0  0  0  0  0  0  0  0  0  0  0
   -0.5550   -2.5480    3.1820 O   0  0  0  0  0  0  0  0  0  0  0  0
    0.4340    2.2230    2.1810 H   0  0  0  0  0  0  0  0  0  0  0  0
    1.7600    2.1200    3.4570 H   0  0  0  0  0  0  0  0  0  0  0  0
    0.2160    3.0250    3.7520 H   0  0  0  0  0  0  0  0  0  0  0  0
   -1.1100    1.0240    3.5550 H   0  0  0  0  0  0  0  0  0  0  0  0
    0.9620    0.3570    5.6710 H   0  0  0  0  0  0  0  0  0  0  0  0
   -0.8070    0.5080    5.8100 H   0  0  0  0  0  0  0  0  0  0  0  0
    0.2180    1.9530    5.6970 H   0  0  0  0  0  0  0  0  0  0  0  0
    1.6440   -0.3030    3.5910 H   0  0  0  0  0  0  0  0  0  0  0  0
   -0.3500   -0.6320    1.3900 H   0  0  0  0  0  0  0  0  0  0  0  0
  1  8  1  0  0  0  0
  1  2  1  0  0  0  0
  2  9  1  6  0  0  0
  2  5  1  0  0  0  0
  2  3  1  0  0  0  0
  3  4  1  0  0  0  0
  3 11  1  0  0  0  0
  4 12  1  0  0  0  0
  5 18  1  0  0  0  0
  6  5  2  0  0  0  0
  7  1  1  0  0  0  0
 10  3  1  0  0  0  0
 13 21  1  0  0  0  0
 13 14  1  0  0  0  0
 14 16  1  0  0  0  0
 15 14  2  0  0  0  0
 16 23  1  0  0  0  0
 16 24  1  0  0  0  0
 16 17  1  0  0  0  0
 17 25  1  6  0  0  0
 17 19  1  0  0  0  0
 18 26  1  0  0  0  0
 18 17  1  0  0  0  0
 19 20  2  0  0  0  0
 19 31  1  0  0  0  0
 22 13  1  0  0  0  0
 27 36  1  0  0  0  0
 27 37  1  0  0  0  0
 27 28  1  0  0  0  0
 28 29  1  0  0  0  0
 29 39  1  0  0  0  0
 29 41  1  0  0  0  0
 29 40  1  0  0  0  0
 30 42  1  1  0  0  0
 30 28  1  0  0  0  0
 30 32  1  0  0  0  0
 31 30  1  0  0  0  0
 32 33  1  0  0  0  0
 34 32  2  0  0  0  0
 35 27  1  0  0  0  0
 38 28  1  0  0  0  0
 43 31  1  0  0  0  0
M  END
$$$$
