CPC.pdb
 OpenBabel07022418293D

 38 38  0  0  1  0  0  0  0  0999 V2000
    3.9840   -2.9230    1.6650 N   0  0  0  0  0  0  0  0  0  0  0  0
    2.6520   -3.1550    1.0450 C   0  0  1  0  0  0  0  0  0  0  0  0
    1.8750   -3.9330    2.0960 C   0  0  0  0  0  0  0  0  0  0  0  0
    0.2010   -4.3300    1.5740 S   0  0  0  0  0  0  0  0  0  0  0  0
    2.0780   -1.8400    0.7770 C   0  0  0  0  0  0  0  0  0  0  0  0
    2.4100   -0.8930    1.5380 O   0  0  0  0  0  0  0  0  0  0  0  0
    3.9150   -2.1650    2.3820 H   0  0  0  0  0  0  0  0  0  0  0  0
    4.3590   -3.8110    2.0470 H   0  0  0  0  0  0  0  0  0  0  0  0
    2.8160   -3.8100    0.1830 H   0  0  0  0  0  0  0  0  0  0  0  0
    1.8360   -3.3550    3.0620 H   0  0  0  0  0  0  0  0  0  0  0  0
    2.4090   -4.9090    2.2490 H   0  0  0  0  0  0  0  0  0  0  0  0
    0.2110   -5.4260    0.6720 H   0  0  0  0  0  0  0  0  0  0  0  0
    1.1630   -1.5240   -0.2840 N   0  0  0  0  0  0  0  0  0  0  0  0
    0.7840   -2.4990   -1.2730 C   0  0  0  0  0  0  0  0  0  0  0  0
   -0.7070   -2.2140   -1.4100 C   0  0  0  0  0  0  0  0  0  0  0  0
   -0.6300   -0.6810   -1.5090 C   0  0  0  0  0  0  0  0  0  0  0  0
    0.5000   -0.3120   -0.5560 C   0  0  1  0  0  0  0  0  0  0  0  0
   -0.0760    0.4000    0.6170 C   0  0  0  0  0  0  0  0  0  0  0  0
   -0.0430   -0.1990    1.7140 O   0  0  0  0  0  0  0  0  0  0  0  0
    1.0390   -3.5280   -1.0770 H   0  0  0  0  0  0  0  0  0  0  0  0
    1.2030   -2.1920   -2.2850 H   0  0  0  0  0  0  0  0  0  0  0  0
   -1.2570   -2.5350   -0.5220 H   0  0  0  0  0  0  0  0  0  0  0  0
   -1.1350   -2.6220   -2.3380 H   0  0  0  0  0  0  0  0  0  0  0  0
   -1.5980   -0.2550   -1.2170 H   0  0  0  0  0  0  0  0  0  0  0  0
   -0.4220   -0.3960   -2.5500 H   0  0  0  0  0  0  0  0  0  0  0  0
    1.1560    0.3950   -1.1110 H   0  0  0  0  0  0  0  0  0  0  0  0
   -0.6400    1.6760    0.5620 N   0  0  0  0  0  0  0  0  0  0  0  0
   -1.2040    2.4000    1.6580 C   0  0  1  0  0  0  0  0  0  0  0  0
   -0.5460    3.6810    1.9970 C   0  0  0  0  0  0  0  0  0  0  0  0
   -1.4440    4.4080    3.4200 S   0  0  0  0  0  0  0  0  0  0  0  0
   -2.6840    2.5270    1.4710 C   0  0  0  0  0  0  0  0  0  0  0  0
   -3.2550    2.0330    0.4620 O   0  0  0  0  0  0  0  0  0  0  0  0
   -3.4750    3.1920    2.4010 O   0  0  0  0  0  0  0  0  0  0  0  0
   -0.6580    2.1670   -0.3760 H   0  0  0  0  0  0  0  0  0  0  0  0
   -1.0960    1.7330    2.5670 H   0  0  0  0  0  0  0  0  0  0  0  0
    0.4760    3.4380    2.4040 H   0  0  0  0  0  0  0  0  0  0  0  0
   -0.5250    4.4410    1.2260 H   0  0  0  0  0  0  0  0  0  0  0  0
   -0.5910    5.2640    4.1560 H   0  0  0  0  0  0  0  0  0  0  0  0
  1  8  1  0  0  0  0
  1  7  1  0  0  0  0
  2  9  1  6  0  0  0
  2  1  1  0  0  0  0
  2  3  1  0  0  0  0
  3 11  1  0  0  0  0
  3 10  1  0  0  0  0
  4  3  1  0  0  0  0
  5  2  1  0  0  0  0
  5  6  2  0  0  0  0
 12  4  1  0  0  0  0
 13  5  1  0  0  0  0
 14 20  1  0  0  0  0
 14 13  1  0  0  0  0
 15 14  1  0  0  0  0
 15 22  1  0  0  0  0
 16 15  1  0  0  0  0
 16 24  1  0  0  0  0
 16 17  1  0  0  0  0
 17 26  1  6  0  0  0
 17 13  1  0  0  0  0
 17 18  1  0  0  0  0
 18 19  2  0  0  0  0
 21 14  1  0  0  0  0
 23 15  1  0  0  0  0
 25 16  1  0  0  0  0
 27 18  1  0  0  0  0
 27 28  1  0  0  0  0
 28 29  1  0  0  0  0
 28 35  1  1  0  0  0
 29 36  1  0  0  0  0
 29 30  1  0  0  0  0
 30 38  1  0  0  0  0
 31 28  1  0  0  0  0
 31 33  1  0  0  0  0
 32 31  2  0  0  0  0
 34 27  1  0  0  0  0
 37 29  1  0  0  0  0
M  END
$$$$
