CPE.pdb
 OpenBabel07022418293D

 43 43  0  0  1  0  0  0  0  0999 V2000
    1.7230   -4.4260    0.9980 N   0  0  0  0  0  0  0  0  0  0  0  0
    0.9290   -3.5850    0.1220 C   0  0  1  0  0  0  0  0  0  0  0  0
   -0.4410   -3.4720    0.7920 C   0  0  0  0  0  0  0  0  0  0  0  0
   -1.1950   -5.1090    0.9750 S   0  0  0  0  0  0  0  0  0  0  0  0
    1.5310   -2.2560   -0.0040 C   0  0  0  0  0  0  0  0  0  0  0  0
    2.5820   -2.0090    0.6410 O   0  0  0  0  0  0  0  0  0  0  0  0
    1.2740   -5.3620    1.1130 H   0  0  0  0  0  0  0  0  0  0  0  0
    1.7110   -3.9780    1.9410 H   0  0  0  0  0  0  0  0  0  0  0  0
    0.7860   -4.1170   -0.8340 H   0  0  0  0  0  0  0  0  0  0  0  0
   -0.3280   -3.0650    1.8300 H   0  0  0  0  0  0  0  0  0  0  0  0
   -1.0960   -2.7510    0.2650 H   0  0  0  0  0  0  0  0  0  0  0  0
   -2.2090   -5.3180    0.0240 H   0  0  0  0  0  0  0  0  0  0  0  0
    0.9870   -1.2200   -0.8260 N   0  0  0  0  0  0  0  0  0  0  0  0
   -0.2070   -1.2830   -1.6550 C   0  0  0  0  0  0  0  0  0  0  0  0
    0.1220   -0.3910   -2.8560 C   0  0  0  0  0  0  0  0  0  0  0  0
    1.1990    0.5390   -2.4000 C   0  0  0  0  0  0  0  0  0  0  0  0
    1.5130    0.1150   -1.0050 C   0  0  1  0  0  0  0  0  0  0  0  0
    0.9780    1.0770    0.0050 C   0  0  0  0  0  0  0  0  0  0  0  0
    1.4040    2.2520   -0.1150 O   0  0  0  0  0  0  0  0  0  0  0  0
   -1.0890   -0.8250   -1.1640 H   0  0  0  0  0  0  0  0  0  0  0  0
   -0.4340   -2.3130   -1.9940 H   0  0  0  0  0  0  0  0  0  0  0  0
   -0.7610    0.1920   -3.1720 H   0  0  0  0  0  0  0  0  0  0  0  0
    0.4360   -1.0330   -3.7260 H   0  0  0  0  0  0  0  0  0  0  0  0
    0.8490    1.6070   -2.3520 H   0  0  0  0  0  0  0  0  0  0  0  0
    2.0850    0.4950   -3.0760 H   0  0  0  0  0  0  0  0  0  0  0  0
    2.6080    0.0680   -0.8550 H   0  0  0  0  0  0  0  0  0  0  0  0
    0.0680    0.6970    1.0100 N   0  0  0  0  0  0  0  0  0  0  0  0
   -0.4150    1.6790    1.9530 C   0  0  1  0  0  0  0  0  0  0  0  0
    0.7210    2.1140    2.8210 C   0  0  0  0  0  0  0  0  0  0  0  0
    1.3660    1.0340    3.6160 C   0  0  0  0  0  0  0  0  0  0  0  0
    0.4960    0.3320    4.5670 C   0  0  0  0  0  0  0  0  0  0  0  0
    0.9710   -0.6140    5.2370 O   0  0  0  0  0  0  0  0  0  0  0  0
   -1.0000    2.8680    1.2910 C   0  0  0  0  0  0  0  0  0  0  0  0
   -1.4170    3.8190    1.9790 O   0  0  0  0  0  0  0  0  0  0  0  0
   -0.8280    0.6640    4.7610 O   0  0  0  0  0  0  0  0  0  0  0  0
   -1.0860    2.9250   -0.0760 O   0  0  0  0  0  0  0  0  0  0  0  0
   -0.2320   -0.3070    1.0380 H   0  0  0  0  0  0  0  0  0  0  0  0
   -1.2590    1.2560    2.5650 H   0  0  0  0  0  0  0  0  0  0  0  0
    0.3690    2.9120    3.5240 H   0  0  0  0  0  0  0  0  0  0  0  0
    1.4770    2.6160    2.1810 H   0  0  0  0  0  0  0  0  0  0  0  0
    2.2120    1.4620    4.2050 H   0  0  0  0  0  0  0  0  0  0  0  0
    1.8200    0.2950    2.9140 H   0  0  0  0  0  0  0  0  0  0  0  0
   -1.4340   -0.0430    5.1650 H   0  0  0  0  0  0  0  0  0  0  0  0
  1  7  1  0  0  0  0
  1  8  1  0  0  0  0
  2  9  1  6  0  0  0
  2  3  1  0  0  0  0
  2  1  1  0  0  0  0
  3  4  1  0  0  0  0
  3 10  1  0  0  0  0
  5  2  1  0  0  0  0
  5  6  2  0  0  0  0
 11  3  1  0  0  0  0
 12  4  1  0  0  0  0
 13  5  1  0  0  0  0
 14 20  1  0  0  0  0
 14 13  1  0  0  0  0
 15 16  1  0  0  0  0
 15 14  1  0  0  0  0
 16 24  1  0  0  0  0
 16 17  1  0  0  0  0
 17 26  1  1  0  0  0
 17 13  1  0  0  0  0
 17 18  1  0  0  0  0
 18 27  1  0  0  0  0
 19 18  2  0  0  0  0
 21 14  1  0  0  0  0
 22 15  1  0  0  0  0
 23 15  1  0  0  0  0
 25 16  1  0  0  0  0
 27 37  1  0  0  0  0
 27 28  1  0  0  0  0
 28 38  1  1  0  0  0
 28 29  1  0  0  0  0
 29 39  1  0  0  0  0
 29 30  1  0  0  0  0
 30 41  1  0  0  0  0
 30 31  1  0  0  0  0
 31 35  1  0  0  0  0
 31 32  2  0  0  0  0
 33 28  1  0  0  0  0
 33 34  1  0  0  0  0
 35 43  1  0  0  0  0
 36 33  2  0  0  0  0
 40 29  1  0  0  0  0
 42 30  1  0  0  0  0
M  END
$$$$
