CPM.pdb
 OpenBabel07022418293D

 44 44  0  0  1  0  0  0  0  0999 V2000
   -0.0070   -3.9540   -0.6340 N   0  0  0  0  0  0  0  0  0  0  0  0
    1.0240   -3.4570    0.2190 C   0  0  1  0  0  0  0  0  0  0  0  0
    2.2870   -4.3020    0.1050 C   0  0  0  0  0  0  0  0  0  0  0  0
    2.9480   -4.3220   -1.5630 S   0  0  0  0  0  0  0  0  0  0  0  0
    1.3050   -2.0240    0.1200 C   0  0  0  0  0  0  0  0  0  0  0  0
    2.1870   -1.5540    0.8820 O   0  0  0  0  0  0  0  0  0  0  0  0
   -0.7800   -4.4560   -0.1160 H   0  0  0  0  0  0  0  0  0  0  0  0
    0.3750   -4.6690   -1.3020 H   0  0  0  0  0  0  0  0  0  0  0  0
    0.6680   -3.6330    1.2780 H   0  0  0  0  0  0  0  0  0  0  0  0
    3.0570   -3.8430    0.7820 H   0  0  0  0  0  0  0  0  0  0  0  0
    2.0520   -5.3120    0.4680 H   0  0  0  0  0  0  0  0  0  0  0  0
    3.8230   -3.2560   -1.8190 H   0  0  0  0  0  0  0  0  0  0  0  0
    0.6110   -1.1720   -0.8070 N   0  0  0  0  0  0  0  0  0  0  0  0
   -0.4010   -1.5350   -1.7460 C   0  0  0  0  0  0  0  0  0  0  0  0
   -0.6700   -0.3640   -2.6420 C   0  0  0  0  0  0  0  0  0  0  0  0
    0.4680    0.6040   -2.3210 C   0  0  0  0  0  0  0  0  0  0  0  0
    0.8470    0.2510   -0.9210 C   0  0  1  0  0  0  0  0  0  0  0  0
    0.0950    0.9840    0.1040 C   0  0  0  0  0  0  0  0  0  0  0  0
    0.1950    2.2280    0.1430 O   0  0  0  0  0  0  0  0  0  0  0  0
   -0.1040   -2.3950   -2.3870 H   0  0  0  0  0  0  0  0  0  0  0  0
   -1.3660   -1.8110   -1.2690 H   0  0  0  0  0  0  0  0  0  0  0  0
   -0.6590   -0.6550   -3.7040 H   0  0  0  0  0  0  0  0  0  0  0  0
   -1.6250    0.1520   -2.4140 H   0  0  0  0  0  0  0  0  0  0  0  0
    0.1980    1.6450   -2.4880 H   0  0  0  0  0  0  0  0  0  0  0  0
    1.3120    0.3030   -2.9920 H   0  0  0  0  0  0  0  0  0  0  0  0
    1.9310    0.4110   -0.7370 H   0  0  0  0  0  0  0  0  0  0  0  0
    1.8380    0.7000    5.3800 C   0  0  0  0  0  0  0  0  0  0  0  0
    1.1160    2.2950    4.9000 S   0  0  0  0  0  0  0  0  0  0  0  0
    0.3490    2.0570    3.2590 C   0  0  0  0  0  0  0  0  0  0  0  0
   -0.8290    1.1030    3.3640 C   0  0  0  0  0  0  0  0  0  0  0  0
   -1.5170    0.8600    2.0650 C   0  0  2  0  0  0  0  0  0  0  0  0
   -0.7240    0.2990    1.0280 N   0  0  0  0  0  0  0  0  0  0  0  0
   -2.3040    2.0140    1.5580 C   0  0  0  0  0  0  0  0  0  0  0  0
   -2.2870    2.2900    0.3470 O   0  0  0  0  0  0  0  0  0  0  0  0
   -3.0690    2.8060    2.4030 O   0  0  0  0  0  0  0  0  0  0  0  0
    2.2650    0.1890    4.4880 H   0  0  0  0  0  0  0  0  0  0  0  0
    1.0930    0.0320    5.8330 H   0  0  0  0  0  0  0  0  0  0  0  0
    2.6240    0.9050    6.1130 H   0  0  0  0  0  0  0  0  0  0  0  0
    0.0450    3.0490    2.8960 H   0  0  0  0  0  0  0  0  0  0  0  0
    1.1000    1.5580    2.6330 H   0  0  0  0  0  0  0  0  0  0  0  0
   -0.5140    0.1260    3.7940 H   0  0  0  0  0  0  0  0  0  0  0  0
   -1.5050    1.5440    4.1280 H   0  0  0  0  0  0  0  0  0  0  0  0
   -2.3160    0.0760    2.2970 H   0  0  0  0  0  0  0  0  0  0  0  0
   -0.7180   -0.7660    0.9010 H   0  0  0  0  0  0  0  0  0  0  0  0
  1  7  1  0  0  0  0
  1  2  1  0  0  0  0
  2  9  1  1  0  0  0
  3  2  1  0  0  0  0
  3 11  1  0  0  0  0
  3 10  1  0  0  0  0
  4  3  1  0  0  0  0
  5  2  1  0  0  0  0
  5  6  2  0  0  0  0
  8  1  1  0  0  0  0
 12  4  1  0  0  0  0
 13  5  1  0  0  0  0
 14 21  1  0  0  0  0
 14 13  1  0  0  0  0
 15 23  1  0  0  0  0
 15 16  1  0  0  0  0
 15 14  1  0  0  0  0
 16 17  1  0  0  0  0
 17 13  1  0  0  0  0
 17 26  1  1  0  0  0
 17 18  1  0  0  0  0
 18 19  2  0  0  0  0
 18 32  1  0  0  0  0
 20 14  1  0  0  0  0
 22 15  1  0  0  0  0
 24 16  1  0  0  0  0
 25 16  1  0  0  0  0
 27 37  1  0  0  0  0
 27 38  1  0  0  0  0
 28 27  1  0  0  0  0
 29 30  1  0  0  0  0
 29 28  1  0  0  0  0
 30 41  1  0  0  0  0
 30 42  1  0  0  0  0
 31 43  1  1  0  0  0
 31 30  1  0  0  0  0
 32 31  1  0  0  0  0
 33 31  1  0  0  0  0
 33 35  1  0  0  0  0
 34 33  2  0  0  0  0
 36 27  1  0  0  0  0
 39 29  1  0  0  0  0
 40 29  1  0  0  0  0
 44 32  1  0  0  0  0
M  END
$$$$
