CPP.pdb
 OpenBabel07022418293D

 41 42  0  0  1  0  0  0  0  0999 V2000
   -3.6030   -2.4810    1.2110 N   0  0  0  0  0  0  0  0  0  0  0  0
   -2.3960   -3.2130    1.0240 C   0  0  1  0  0  0  0  0  0  0  0  0
   -2.5140   -4.2650   -0.0710 C   0  0  0  0  0  0  0  0  0  0  0  0
   -0.9160   -5.1130   -0.1930 S   0  0  0  0  0  0  0  0  0  0  0  0
   -1.1900   -2.4300    0.7780 C   0  0  0  0  0  0  0  0  0  0  0  0
   -0.1150   -3.1120    0.6590 O   0  0  0  0  0  0  0  0  0  0  0  0
   -3.7760   -2.1120    2.1420 H   0  0  0  0  0  0  0  0  0  0  0  0
   -4.4020   -2.7780    0.6550 H   0  0  0  0  0  0  0  0  0  0  0  0
   -2.2520   -3.8180    1.9700 H   0  0  0  0  0  0  0  0  0  0  0  0
   -3.2890   -5.0210    0.1820 H   0  0  0  0  0  0  0  0  0  0  0  0
   -2.6940   -3.7930   -1.0590 H   0  0  0  0  0  0  0  0  0  0  0  0
   -0.2410   -4.7890   -1.3780 H   0  0  0  0  0  0  0  0  0  0  0  0
   -1.1210   -1.0160    0.6630 N   0  0  0  0  0  0  0  0  0  0  0  0
   -2.1140   -0.0000    0.7380 C   0  0  0  0  0  0  0  0  0  0  0  0
   -1.7030    0.8810   -0.4600 C   0  0  0  0  0  0  0  0  0  0  0  0
   -0.1920    0.9400   -0.3140 C   0  0  0  0  0  0  0  0  0  0  0  0
    0.1370   -0.3040    0.4300 C   0  0  1  0  0  0  0  0  0  0  0  0
    0.8690   -0.0830    1.6960 C   0  0  0  0  0  0  0  0  0  0  0  0
    0.3110   -0.4080    2.7850 O   0  0  0  0  0  0  0  0  0  0  0  0
   -3.1490   -0.2760    0.6140 H   0  0  0  0  0  0  0  0  0  0  0  0
   -1.9440    0.6710    1.6270 H   0  0  0  0  0  0  0  0  0  0  0  0
   -2.0280    0.3710   -1.3690 H   0  0  0  0  0  0  0  0  0  0  0  0
   -2.1110    1.8880   -0.3810 H   0  0  0  0  0  0  0  0  0  0  0  0
    0.2640    0.9750   -1.3230 H   0  0  0  0  0  0  0  0  0  0  0  0
    0.1190    1.8580    0.2310 H   0  0  0  0  0  0  0  0  0  0  0  0
    0.8000   -0.9240   -0.2330 H   0  0  0  0  0  0  0  0  0  0  0  0
    2.1710    0.4840    1.6350 N   0  0  0  0  0  0  0  0  0  0  0  0
    2.9460    0.7400    2.8540 C   0  0  0  0  0  0  0  0  0  0  0  0
    3.7150    2.0060    2.5140 C   0  0  0  0  0  0  0  0  0  0  0  0
    4.0220    1.8030    1.0710 C   0  0  0  0  0  0  0  0  0  0  0  0
    2.9680    0.8920    0.5380 C   0  0  1  0  0  0  0  0  0  0  0  0
    3.6330   -0.2610   -0.1480 C   0  0  0  0  0  0  0  0  0  0  0  0
    3.4520   -1.4190    0.2780 O   0  0  0  0  0  0  0  0  0  0  0  0
    4.4510   -0.0860   -1.2520 O   0  0  0  0  0  0  0  0  0  0  0  0
    2.2970    0.9340    3.7230 H   0  0  0  0  0  0  0  0  0  0  0  0
    3.6300   -0.0930    3.0370 H   0  0  0  0  0  0  0  0  0  0  0  0
    4.6430    2.0830    3.1120 H   0  0  0  0  0  0  0  0  0  0  0  0
    3.0620    2.8890    2.6430 H   0  0  0  0  0  0  0  0  0  0  0  0
    5.0240    1.3200    0.9660 H   0  0  0  0  0  0  0  0  0  0  0  0
    4.0100    2.7700    0.5090 H   0  0  0  0  0  0  0  0  0  0  0  0
    2.3880    1.4030   -0.2710 H   0  0  0  0  0  0  0  0  0  0  0  0
  1  7  1  0  0  0  0
  2  1  1  0  0  0  0
  2  9  1  1  0  0  0
  3 10  1  0  0  0  0
  3  2  1  0  0  0  0
  4  3  1  0  0  0  0
  5  2  1  0  0  0  0
  6  5  2  0  0  0  0
  8  1  1  0  0  0  0
 11  3  1  0  0  0  0
 12  4  1  0  0  0  0
 13 14  1  0  0  0  0
 13  5  1  0  0  0  0
 14 21  1  0  0  0  0
 15 23  1  0  0  0  0
 15 16  1  0  0  0  0
 15 14  1  0  0  0  0
 16 25  1  0  0  0  0
 16 17  1  0  0  0  0
 17 26  1  6  0  0  0
 17 13  1  0  0  0  0
 17 18  1  0  0  0  0
 18 19  2  0  0  0  0
 20 14  1  0  0  0  0
 22 15  1  0  0  0  0
 24 16  1  0  0  0  0
 27 18  1  0  0  0  0
 27 28  1  0  0  0  0
 28 36  1  0  0  0  0
 28 35  1  0  0  0  0
 29 38  1  0  0  0  0
 29 28  1  0  0  0  0
 29 37  1  0  0  0  0
 30 29  1  0  0  0  0
 31 41  1  6  0  0  0
 31 30  1  0  0  0  0
 31 27  1  0  0  0  0
 32 33  1  0  0  0  0
 32 31  1  0  0  0  0
 34 32  2  0  0  0  0
 39 30  1  0  0  0  0
 40 30  1  0  0  0  0
M  END
$$$$
