CPQ.pdb
 OpenBabel07022418293D

 44 44  0  0  1  0  0  0  0  0999 V2000
    4.3370   -3.5940   -1.2380 N   0  0  0  0  0  0  0  0  0  0  0  0
    2.8470   -3.5700   -1.3130 C   0  0  1  0  0  0  0  0  0  0  0  0
    2.4130   -4.7270   -0.4010 C   0  0  0  0  0  0  0  0  0  0  0  0
    0.6310   -4.8700   -0.3620 S   0  0  0  0  0  0  0  0  0  0  0  0
    2.3700   -2.2640   -0.8480 C   0  0  0  0  0  0  0  0  0  0  0  0
    3.1930   -1.6240   -0.0890 O   0  0  0  0  0  0  0  0  0  0  0  0
    4.6230   -3.1830   -0.3290 H   0  0  0  0  0  0  0  0  0  0  0  0
    4.6120   -4.6140   -1.2200 H   0  0  0  0  0  0  0  0  0  0  0  0
    2.5990   -3.7930   -2.3520 H   0  0  0  0  0  0  0  0  0  0  0  0
    2.8720   -5.6660   -0.7760 H   0  0  0  0  0  0  0  0  0  0  0  0
    2.8220   -4.5170    0.6190 H   0  0  0  0  0  0  0  0  0  0  0  0
    0.1890   -4.7420    0.9660 H   0  0  0  0  0  0  0  0  0  0  0  0
    1.1420   -1.6540   -1.1400 N   0  0  0  0  0  0  0  0  0  0  0  0
    0.0850   -2.1740   -1.9770 C   0  0  0  0  0  0  0  0  0  0  0  0
   -0.3050   -0.9320   -2.7780 C   0  0  0  0  0  0  0  0  0  0  0  0
    0.0210    0.2230   -1.8450 C   0  0  0  0  0  0  0  0  0  0  0  0
    0.7140   -0.3330   -0.6430 C   0  0  1  0  0  0  0  0  0  0  0  0
   -0.1770   -0.4940    0.5350 C   0  0  0  0  0  0  0  0  0  0  0  0
   -0.4910   -1.6280    1.0010 O   0  0  0  0  0  0  0  0  0  0  0  0
   -0.7970   -2.5480   -1.4080 H   0  0  0  0  0  0  0  0  0  0  0  0
    0.3980   -2.9800   -2.6590 H   0  0  0  0  0  0  0  0  0  0  0  0
   -1.3710   -0.9490   -3.0790 H   0  0  0  0  0  0  0  0  0  0  0  0
    0.2930   -0.9080   -3.7110 H   0  0  0  0  0  0  0  0  0  0  0  0
    0.7340    0.9020   -2.3680 H   0  0  0  0  0  0  0  0  0  0  0  0
   -0.9120    0.7800   -1.5920 H   0  0  0  0  0  0  0  0  0  0  0  0
    1.6030    0.2220   -0.3180 H   0  0  0  0  0  0  0  0  0  0  0  0
    0.2520    4.4110    4.9480 N   0  0  0  0  0  0  0  0  0  0  0  0
   -0.1430    3.0490    4.7560 C   0  0  0  0  0  0  0  0  0  0  0  0
    0.0240    2.2830    5.7510 O   0  0  0  0  0  0  0  0  0  0  0  0
   -0.7110    2.5810    3.4680 C   0  0  0  0  0  0  0  0  0  0  0  0
   -1.0130    1.1180    3.6070 C   0  0  0  0  0  0  0  0  0  0  0  0
   -1.6010    0.5130    2.3540 C   0  0  2  0  0  0  0  0  0  0  0  0
   -0.7370    0.6210    1.2150 N   0  0  0  0  0  0  0  0  0  0  0  0
   -2.9690    1.0390    2.0780 C   0  0  0  0  0  0  0  0  0  0  0  0
   -3.3000    1.5190    0.9570 O   0  0  0  0  0  0  0  0  0  0  0  0
   -3.9600    1.0270    3.0510 O   0  0  0  0  0  0  0  0  0  0  0  0
    1.0450    4.6500    5.6110 H   0  0  0  0  0  0  0  0  0  0  0  0
   -0.2060    5.2110    4.4600 H   0  0  0  0  0  0  0  0  0  0  0  0
   -1.6590    3.1300    3.2600 H   0  0  0  0  0  0  0  0  0  0  0  0
   -0.0070    2.8020    2.6470 H   0  0  0  0  0  0  0  0  0  0  0  0
   -1.6970    1.0030    4.4730 H   0  0  0  0  0  0  0  0  0  0  0  0
   -0.0940    0.5530    3.8680 H   0  0  0  0  0  0  0  0  0  0  0  0
   -1.7180   -0.5730    2.5600 H   0  0  0  0  0  0  0  0  0  0  0  0
   -0.4750    1.5700    0.8250 H   0  0  0  0  0  0  0  0  0  0  0  0
  1  8  1  0  0  0  0
  1  7  1  0  0  0  0
  2  9  1  6  0  0  0
  2  1  1  0  0  0  0
  2  5  1  0  0  0  0
  2  3  1  0  0  0  0
  3  4  1  0  0  0  0
  3 11  1  0  0  0  0
  4 12  1  0  0  0  0
  5  6  2  0  0  0  0
 10  3  1  0  0  0  0
 13  5  1  0  0  0  0
 13 17  1  0  0  0  0
 14 20  1  0  0  0  0
 14 13  1  0  0  0  0
 15 14  1  0  0  0  0
 15 16  1  0  0  0  0
 16 25  1  0  0  0  0
 16 17  1  0  0  0  0
 17 26  1  1  0  0  0
 17 18  1  0  0  0  0
 18 19  2  0  0  0  0
 18 33  1  0  0  0  0
 21 14  1  0  0  0  0
 22 15  1  0  0  0  0
 23 15  1  0  0  0  0
 24 16  1  0  0  0  0
 27 37  1  0  0  0  0
 28 27  1  0  0  0  0
 28 29  2  0  0  0  0
 30 31  1  0  0  0  0
 30 28  1  0  0  0  0
 31 42  1  0  0  0  0
 31 41  1  0  0  0  0
 32 43  1  1  0  0  0
 32 31  1  0  0  0  0
 33 32  1  0  0  0  0
 34 32  1  0  0  0  0
 34 36  1  0  0  0  0
 35 34  2  0  0  0  0
 38 27  1  0  0  0  0
 39 30  1  0  0  0  0
 40 30  1  0  0  0  0
 44 33  1  0  0  0  0
M  END
$$$$
