CQD.pdb
 OpenBabel07022418273D

 43 42  0  0  1  0  0  0  0  0999 V2000
    3.2610   -1.8510    4.3010 N   0  0  0  0  0  0  0  0  0  0  0  0
    2.8860   -1.7850    2.8710 C   0  0  1  0  0  0  0  0  0  0  0  0
    2.0920   -3.0090    2.6100 C   0  0  0  0  0  0  0  0  0  0  0  0
    1.5130   -3.2340    0.9340 S   0  0  0  0  0  0  0  0  0  0  0  0
    2.2360   -0.4980    2.6480 C   0  0  0  0  0  0  0  0  0  0  0  0
    2.2230    0.3300    3.6290 O   0  0  0  0  0  0  0  0  0  0  0  0
    2.6960   -1.1540    4.8470 H   0  0  0  0  0  0  0  0  0  0  0  0
    3.1130   -2.7810    4.7030 H   0  0  0  0  0  0  0  0  0  0  0  0
    3.8570   -1.8780    2.3380 H   0  0  0  0  0  0  0  0  0  0  0  0
    2.7690   -3.8800    2.8570 H   0  0  0  0  0  0  0  0  0  0  0  0
    1.2290   -3.1440    3.2990 H   0  0  0  0  0  0  0  0  0  0  0  0
    1.2310   -4.6100    0.7420 H   0  0  0  0  0  0  0  0  0  0  0  0
    2.7240    0.3080   -2.4810 N   0  0  0  0  0  0  0  0  0  0  0  0
    2.8040    0.9210   -1.1970 C   0  0  0  0  0  0  0  0  0  0  0  0
    3.6400    0.4890   -0.3930 O   0  0  0  0  0  0  0  0  0  0  0  0
    1.9190    2.0440   -0.8350 C   0  0  0  0  0  0  0  0  0  0  0  0
    1.7220    2.2960    0.6060 C   0  0  0  0  0  0  0  0  0  0  0  0
    1.0270    1.2540    1.4130 C   0  0  2  0  0  0  0  0  0  0  0  0
    1.6080   -0.0480    1.4560 N   0  0  0  0  0  0  0  0  0  0  0  0
   -0.3810    1.1530    0.9510 C   0  0  0  0  0  0  0  0  0  0  0  0
   -1.0490    2.2180    0.7980 O   0  0  0  0  0  0  0  0  0  0  0  0
    2.1770    0.7300   -3.2680 H   0  0  0  0  0  0  0  0  0  0  0  0
    3.2140   -0.5880   -2.6770 H   0  0  0  0  0  0  0  0  0  0  0  0
    2.3620    2.9440   -1.3670 H   0  0  0  0  0  0  0  0  0  0  0  0
    0.9690    1.8730   -1.3970 H   0  0  0  0  0  0  0  0  0  0  0  0
    2.6800    2.6220    1.0810 H   0  0  0  0  0  0  0  0  0  0  0  0
    1.0750    3.2240    0.6820 H   0  0  0  0  0  0  0  0  0  0  0  0
    0.9510    1.6040    2.4920 H   0  0  0  0  0  0  0  0  0  0  0  0
    1.5830   -0.7240    0.6450 H   0  0  0  0  0  0  0  0  0  0  0  0
   -0.9330   -0.1220    0.6980 N   0  0  0  0  0  0  0  0  0  0  0  0
   -2.3440   -0.2110    0.2370 C   0  0  1  0  0  0  0  0  0  0  0  0
   -2.3130   -0.8930   -1.0830 C   0  0  0  0  0  0  0  0  0  0  0  0
   -3.5900   -1.0870   -1.7610 C   0  0  0  0  0  0  0  0  0  0  0  0
   -3.5580   -1.7750   -2.8290 O   0  0  0  0  0  0  0  0  0  0  0  0
   -3.1010   -0.9640    1.2840 C   0  0  0  0  0  0  0  0  0  0  0  0
   -4.3200   -1.1520    1.1240 O   0  0  0  0  0  0  0  0  0  0  0  0
   -4.8010   -0.5850   -1.3340 O   0  0  0  0  0  0  0  0  0  0  0  0
   -2.4990   -1.4630    2.4300 O   0  0  0  0  0  0  0  0  0  0  0  0
   -0.4100   -1.0100    0.8180 H   0  0  0  0  0  0  0  0  0  0  0  0
   -2.7490    0.8090    0.1280 H   0  0  0  0  0  0  0  0  0  0  0  0
   -1.7890   -1.8730   -1.0080 H   0  0  0  0  0  0  0  0  0  0  0  0
   -1.6370   -0.2800   -1.7460 H   0  0  0  0  0  0  0  0  0  0  0  0
   -5.6430   -1.1150   -1.6000 H   0  0  0  0  0  0  0  0  0  0  0  0
  1  8  1  0  0  0  0
  1  7  1  0  0  0  0
  2  9  1  6  0  0  0
  2  1  1  0  0  0  0
  3 10  1  0  0  0  0
  3  2  1  0  0  0  0
  3 11  1  0  0  0  0
  4  3  1  0  0  0  0
  5  2  1  0  0  0  0
  5  6  2  0  0  0  0
 12  4  1  0  0  0  0
 13 14  1  0  0  0  0
 14 16  1  0  0  0  0
 14 15  2  0  0  0  0
 16 17  1  0  0  0  0
 17 27  1  0  0  0  0
 17 26  1  0  0  0  0
 17 18  1  0  0  0  0
 18 19  1  0  0  0  0
 18 28  1  1  0  0  0
 19  5  1  0  0  0  0
 20 18  1  0  0  0  0
 21 20  2  0  0  0  0
 22 13  1  0  0  0  0
 23 13  1  0  0  0  0
 24 16  1  0  0  0  0
 25 16  1  0  0  0  0
 29 19  1  0  0  0  0
 30 39  1  0  0  0  0
 30 20  1  0  0  0  0
 31 40  1  6  0  0  0
 31 30  1  0  0  0  0
 31 35  1  0  0  0  0
 32 41  1  0  0  0  0
 32 31  1  0  0  0  0
 33 37  1  0  0  0  0
 33 32  1  0  0  0  0
 34 33  2  0  0  0  0
 35 38  1  0  0  0  0
 36 35  2  0  0  0  0
 42 32  1  0  0  0  0
 43 37  1  0  0  0  0
M  END
$$$$
