CQE.pdb
 OpenBabel07022418273D

 46 45  0  0  1  0  0  0  0  0999 V2000
    2.0600   -3.2480    0.9930 N   0  0  0  0  0  0  0  0  0  0  0  0
    3.0840   -2.6170    1.8050 C   0  0  1  0  0  0  0  0  0  0  0  0
    4.4300   -3.0570    1.2630 C   0  0  0  0  0  0  0  0  0  0  0  0
    4.6190   -4.8530    1.3400 S   0  0  0  0  0  0  0  0  0  0  0  0
    2.9180   -1.1560    1.7180 C   0  0  0  0  0  0  0  0  0  0  0  0
    3.6790   -0.3440    2.3320 O   0  0  0  0  0  0  0  0  0  0  0  0
    2.4560   -3.3910    0.0370 H   0  0  0  0  0  0  0  0  0  0  0  0
    1.8630   -4.1930    1.3910 H   0  0  0  0  0  0  0  0  0  0  0  0
    2.9830   -3.0100    2.8260 H   0  0  0  0  0  0  0  0  0  0  0  0
    5.2780   -2.5880    1.7820 H   0  0  0  0  0  0  0  0  0  0  0  0
    4.5320   -2.7720    0.1790 H   0  0  0  0  0  0  0  0  0  0  0  0
    3.4070   -5.4420    0.9230 H   0  0  0  0  0  0  0  0  0  0  0  0
   -1.0550    0.0770   -2.5400 N   0  0  0  0  0  0  0  0  0  0  0  0
   -0.2450    0.9420   -1.7310 C   0  0  0  0  0  0  0  0  0  0  0  0
   -0.8610    1.7930   -1.0770 O   0  0  0  0  0  0  0  0  0  0  0  0
    1.2030    0.8160   -1.6970 C   0  0  0  0  0  0  0  0  0  0  0  0
    1.9200    1.3810   -0.5400 C   0  0  0  0  0  0  0  0  0  0  0  0
    1.6670    0.8450    0.8050 C   0  0  2  0  0  0  0  0  0  0  0  0
    1.8960   -0.5720    0.9430 N   0  0  0  0  0  0  0  0  0  0  0  0
    0.4230    1.2860    1.4130 C   0  0  0  0  0  0  0  0  0  0  0  0
    0.1460    2.5260    1.5170 O   0  0  0  0  0  0  0  0  0  0  0  0
   -1.0460   -0.9300   -2.3750 H   0  0  0  0  0  0  0  0  0  0  0  0
   -1.6320    0.5140   -3.2760 H   0  0  0  0  0  0  0  0  0  0  0  0
    1.4160   -0.2850   -1.8450 H   0  0  0  0  0  0  0  0  0  0  0  0
    1.5880    1.3260   -2.6490 H   0  0  0  0  0  0  0  0  0  0  0  0
    3.0340    1.5180   -0.7540 H   0  0  0  0  0  0  0  0  0  0  0  0
    1.6020    2.4790   -0.4890 H   0  0  0  0  0  0  0  0  0  0  0  0
    2.4960    1.3180    1.4620 H   0  0  0  0  0  0  0  0  0  0  0  0
    1.2360   -1.2010    0.4120 H   0  0  0  0  0  0  0  0  0  0  0  0
   -0.5740    0.3970    1.9380 N   0  0  0  0  0  0  0  0  0  0  0  0
   -1.8070    0.8740    2.5400 C   0  0  1  0  0  0  0  0  0  0  0  0
   -2.9640    0.0580    2.0280 C   0  0  0  0  0  0  0  0  0  0  0  0
   -3.1330    0.1220    0.5340 C   0  0  0  0  0  0  0  0  0  0  0  0
   -4.2940   -0.6970    0.1050 C   0  0  0  0  0  0  0  0  0  0  0  0
   -4.9740   -1.3200    0.9670 O   0  0  0  0  0  0  0  0  0  0  0  0
   -1.7440    0.5940    4.0270 C   0  0  0  0  0  0  0  0  0  0  0  0
   -0.7300    0.0410    4.4850 O   0  0  0  0  0  0  0  0  0  0  0  0
   -4.6780   -0.8170   -1.2160 O   0  0  0  0  0  0  0  0  0  0  0  0
   -2.7790    0.9380    4.8620 O   0  0  0  0  0  0  0  0  0  0  0  0
   -0.3600   -0.6200    1.8600 H   0  0  0  0  0  0  0  0  0  0  0  0
   -1.9290    1.9600    2.4250 H   0  0  0  0  0  0  0  0  0  0  0  0
   -3.9240    0.4780    2.4510 H   0  0  0  0  0  0  0  0  0  0  0  0
   -2.9070   -0.9910    2.3880 H   0  0  0  0  0  0  0  0  0  0  0  0
   -2.1840   -0.2810    0.0960 H   0  0  0  0  0  0  0  0  0  0  0  0
   -3.2450    1.1520    0.1600 H   0  0  0  0  0  0  0  0  0  0  0  0
   -5.3700   -1.5070   -1.4790 H   0  0  0  0  0  0  0  0  0  0  0  0
  1  8  1  0  0  0  0
  1  2  1  0  0  0  0
  2  9  1  1  0  0  0
  3  4  1  0  0  0  0
  3 10  1  0  0  0  0
  3  2  1  0  0  0  0
  5  2  1  0  0  0  0
  5  6  2  0  0  0  0
  7  1  1  0  0  0  0
 11  3  1  0  0  0  0
 12  4  1  0  0  0  0
 13 22  1  0  0  0  0
 13 14  1  0  0  0  0
 14 16  1  0  0  0  0
 14 15  2  0  0  0  0
 16 17  1  0  0  0  0
 17 27  1  0  0  0  0
 17 18  1  0  0  0  0
 18 19  1  0  0  0  0
 18 20  1  0  0  0  0
 18 28  1  1  0  0  0
 19  5  1  0  0  0  0
 20 21  2  0  0  0  0
 20 30  1  0  0  0  0
 23 13  1  0  0  0  0
 24 16  1  0  0  0  0
 25 16  1  0  0  0  0
 26 17  1  0  0  0  0
 29 19  1  0  0  0  0
 30 31  1  0  0  0  0
 31 41  1  6  0  0  0
 31 36  1  0  0  0  0
 32 43  1  0  0  0  0
 32 42  1  0  0  0  0
 32 31  1  0  0  0  0
 33 32  1  0  0  0  0
 34 33  1  0  0  0  0
 34 35  2  0  0  0  0
 36 37  2  0  0  0  0
 36 39  1  0  0  0  0
 38 34  1  0  0  0  0
 40 30  1  0  0  0  0
 44 33  1  0  0  0  0
 45 33  1  0  0  0  0
 46 38  1  0  0  0  0
M  END
$$$$
