CQF.pdb
 OpenBabel07022418273D

 50 50  0  0  1  0  0  0  0  0999 V2000
    3.2990   -2.4960    4.6080 N   0  0  0  0  0  0  0  0  0  0  0  0
    3.0060   -2.3600    3.1570 C   0  0  1  0  0  0  0  0  0  0  0  0
    2.0980   -3.5220    2.8450 C   0  0  0  0  0  0  0  0  0  0  0  0
    1.5890   -3.6330    1.1310 S   0  0  0  0  0  0  0  0  0  0  0  0
    2.3300   -1.0570    2.9910 C   0  0  0  0  0  0  0  0  0  0  0  0
    2.0530   -0.3200    3.9980 O   0  0  0  0  0  0  0  0  0  0  0  0
    4.2220   -2.9630    4.7450 H   0  0  0  0  0  0  0  0  0  0  0  0
    2.5230   -2.9890    5.0920 H   0  0  0  0  0  0  0  0  0  0  0  0
    3.9640   -2.4300    2.6070 H   0  0  0  0  0  0  0  0  0  0  0  0
    1.1690   -3.3550    3.4510 H   0  0  0  0  0  0  0  0  0  0  0  0
    2.5740   -4.4980    3.1280 H   0  0  0  0  0  0  0  0  0  0  0  0
    0.1770   -3.7860    1.0110 H   0  0  0  0  0  0  0  0  0  0  0  0
    5.5900    3.2860    1.2440 N   0  0  0  0  0  0  0  0  0  0  0  0
    4.3210    2.8810    0.7690 C   0  0  0  0  0  0  0  0  0  0  0  0
    3.8960    3.3420   -0.3080 O   0  0  0  0  0  0  0  0  0  0  0  0
    3.5040    1.9230    1.5340 C   0  0  0  0  0  0  0  0  0  0  0  0
    2.2090    1.6760    0.7930 C   0  0  0  0  0  0  0  0  0  0  0  0
    1.3210    0.6950    1.5330 C   0  0  2  0  0  0  0  0  0  0  0  0
    1.9720   -0.5860    1.7010 N   0  0  0  0  0  0  0  0  0  0  0  0
   -0.0340    0.6320    0.9900 C   0  0  0  0  0  0  0  0  0  0  0  0
   -0.6240    1.7570    0.8280 O   0  0  0  0  0  0  0  0  0  0  0  0
    6.3960    3.5480    0.6360 H   0  0  0  0  0  0  0  0  0  0  0  0
    5.7440    3.3290    2.2750 H   0  0  0  0  0  0  0  0  0  0  0  0
    4.1060    0.9910    1.6340 H   0  0  0  0  0  0  0  0  0  0  0  0
    3.2860    2.3780    2.5230 H   0  0  0  0  0  0  0  0  0  0  0  0
    2.4650    1.3420   -0.2170 H   0  0  0  0  0  0  0  0  0  0  0  0
    1.7080    2.6610    0.6940 H   0  0  0  0  0  0  0  0  0  0  0  0
    1.2220    1.1380    2.5700 H   0  0  0  0  0  0  0  0  0  0  0  0
    2.2070   -1.2080    0.8890 H   0  0  0  0  0  0  0  0  0  0  0  0
   -0.7740   -0.4950    0.6230 N   0  0  0  0  0  0  0  0  0  0  0  0
   -2.1220   -0.4670    0.0880 C   0  0  1  0  0  0  0  0  0  0  0  0
   -2.0590   -1.1230   -1.2680 C   0  0  0  0  0  0  0  0  0  0  0  0
   -3.3260   -1.2010   -1.9870 C   0  0  0  0  0  0  0  0  0  0  0  0
   -3.7980   -0.2240   -2.8390 C   0  0  0  0  0  0  0  0  0  0  0  0
   -5.0110   -0.4140   -3.4640 C   0  0  0  0  0  0  0  0  0  0  0  0
   -5.7750   -1.5440   -3.2740 C   0  0  0  0  0  0  0  0  0  0  0  0
   -5.3120   -2.5290   -2.4230 C   0  0  0  0  0  0  0  0  0  0  0  0
   -4.1040   -2.3300   -1.8060 C   0  0  0  0  0  0  0  0  0  0  0  0
   -3.0710   -1.1500    0.9950 C   0  0  0  0  0  0  0  0  0  0  0  0
   -4.3010   -1.2650    0.7860 O   0  0  0  0  0  0  0  0  0  0  0  0
   -2.5690   -1.7040    2.1610 O   0  0  0  0  0  0  0  0  0  0  0  0
   -0.3340   -1.4260    0.7380 H   0  0  0  0  0  0  0  0  0  0  0  0
   -2.4360    0.5950    0.0310 H   0  0  0  0  0  0  0  0  0  0  0  0
   -1.3080   -0.6330   -1.9290 H   0  0  0  0  0  0  0  0  0  0  0  0
   -1.6760   -2.1520   -1.1100 H   0  0  0  0  0  0  0  0  0  0  0  0
   -3.1880    0.6460   -2.9730 H   0  0  0  0  0  0  0  0  0  0  0  0
   -5.3690    0.3730   -4.1370 H   0  0  0  0  0  0  0  0  0  0  0  0
   -6.7420   -1.6770   -3.7830 H   0  0  0  0  0  0  0  0  0  0  0  0
   -5.8740   -3.4300   -2.2420 H   0  0  0  0  0  0  0  0  0  0  0  0
   -3.7670   -3.1390   -1.1370 H   0  0  0  0  0  0  0  0  0  0  0  0
  1  7  1  0  0  0  0
  1  8  1  0  0  0  0
  2  9  1  6  0  0  0
  2  1  1  0  0  0  0
  3 11  1  0  0  0  0
  3  2  1  0  0  0  0
  3 10  1  0  0  0  0
  4  3  1  0  0  0  0
  5  2  1  0  0  0  0
  5  6  2  0  0  0  0
 12  4  1  0  0  0  0
 13 23  1  0  0  0  0
 14 13  1  0  0  0  0
 14 16  1  0  0  0  0
 15 14  2  0  0  0  0
 16 24  1  0  0  0  0
 16 25  1  0  0  0  0
 17 18  1  0  0  0  0
 17 16  1  0  0  0  0
 18 19  1  0  0  0  0
 18 28  1  1  0  0  0
 19  5  1  0  0  0  0
 20 18  1  0  0  0  0
 21 20  2  0  0  0  0
 22 13  1  0  0  0  0
 26 17  1  0  0  0  0
 27 17  1  0  0  0  0
 29 19  1  0  0  0  0
 30 42  1  0  0  0  0
 30 20  1  0  0  0  0
 31 43  1  6  0  0  0
 31 30  1  0  0  0  0
 31 39  1  0  0  0  0
 32 45  1  0  0  0  0
 32 31  1  0  0  0  0
 33 38  1  0  0  0  0
 33 32  1  0  0  0  0
 34 33  2  0  0  0  0
 35 36  2  0  0  0  0
 35 34  1  0  0  0  0
 36 37  1  0  0  0  0
 37 49  1  0  0  0  0
 37 38  2  0  0  0  0
 38 50  1  0  0  0  0
 39 41  1  0  0  0  0
 40 39  2  0  0  0  0
 44 32  1  0  0  0  0
 46 34  1  0  0  0  0
 47 35  1  0  0  0  0
 48 36  1  0  0  0  0
M  END
$$$$
