CQG.pdb
 OpenBabel07022418273D

 37 36  0  0  1  0  0  0  0  0999 V2000
    3.1440   -1.0050    4.4230 N   0  0  0  0  0  0  0  0  0  0  0  0
    2.3750   -1.5020    3.2710 C   0  0  1  0  0  0  0  0  0  0  0  0
    1.4050   -2.4900    3.8280 C   0  0  0  0  0  0  0  0  0  0  0  0
    0.3390   -3.2810    2.6320 S   0  0  0  0  0  0  0  0  0  0  0  0
    1.7550   -0.3030    2.6690 C   0  0  0  0  0  0  0  0  0  0  0  0
    1.9090    0.8640    3.1850 O   0  0  0  0  0  0  0  0  0  0  0  0
    2.4670   -0.8980    5.2220 H   0  0  0  0  0  0  0  0  0  0  0  0
    3.4980   -0.0540    4.2130 H   0  0  0  0  0  0  0  0  0  0  0  0
    3.0360   -2.0310    2.5620 H   0  0  0  0  0  0  0  0  0  0  0  0
    2.0090   -3.3010    4.3270 H   0  0  0  0  0  0  0  0  0  0  0  0
    0.7920   -2.0660    4.6650 H   0  0  0  0  0  0  0  0  0  0  0  0
   -0.9670   -3.3590    3.1280 H   0  0  0  0  0  0  0  0  0  0  0  0
    1.8120   -0.5210   -3.7690 N   0  0  0  0  0  0  0  0  0  0  0  0
    1.7370    0.3220   -2.6360 C   0  0  0  0  0  0  0  0  0  0  0  0
    2.3160    1.4330   -2.6870 O   0  0  0  0  0  0  0  0  0  0  0  0
    1.0120   -0.0410   -1.3940 C   0  0  0  0  0  0  0  0  0  0  0  0
    1.1230    1.0590   -0.3930 C   0  0  0  0  0  0  0  0  0  0  0  0
    0.3970    0.7570    0.9250 C   0  0  2  0  0  0  0  0  0  0  0  0
    0.9710   -0.4400    1.4860 N   0  0  0  0  0  0  0  0  0  0  0  0
   -1.0390    0.7030    0.6390 C   0  0  0  0  0  0  0  0  0  0  0  0
   -1.6350    1.7270    0.1550 O   0  0  0  0  0  0  0  0  0  0  0  0
    1.1400   -0.5220   -4.5460 H   0  0  0  0  0  0  0  0  0  0  0  0
    2.6250   -1.1950   -3.8030 H   0  0  0  0  0  0  0  0  0  0  0  0
    1.3450   -1.0290   -0.9970 H   0  0  0  0  0  0  0  0  0  0  0  0
   -0.0400   -0.2040   -1.6990 H   0  0  0  0  0  0  0  0  0  0  0  0
    0.5890    1.9520   -0.8280 H   0  0  0  0  0  0  0  0  0  0  0  0
    2.1550    1.3970   -0.2120 H   0  0  0  0  0  0  0  0  0  0  0  0
    0.6570    1.6440    1.5680 H   0  0  0  0  0  0  0  0  0  0  0  0
    0.8150   -1.3690    1.0360 H   0  0  0  0  0  0  0  0  0  0  0  0
   -1.8220   -0.4580    0.8820 N   0  0  0  0  0  0  0  0  0  0  0  0
   -3.2260   -0.4630    0.6000 C   0  0  0  0  0  0  0  0  0  0  0  0
   -3.5980   -0.2040   -0.7900 C   0  0  0  0  0  0  0  0  0  0  0  0
   -2.7400    0.0140   -1.6710 O   0  0  0  0  0  0  0  0  0  0  0  0
   -4.9250   -0.1870   -1.1990 O   0  0  0  0  0  0  0  0  0  0  0  0
   -1.3840   -1.3270    1.2680 H   0  0  0  0  0  0  0  0  0  0  0  0
   -3.6420   -1.4590    0.9390 H   0  0  0  0  0  0  0  0  0  0  0  0
   -3.7740    0.2630    1.2790 H   0  0  0  0  0  0  0  0  0  0  0  0
  1  7  1  0  0  0  0
  2  9  1  6  0  0  0
  2  3  1  0  0  0  0
  2  1  1  0  0  0  0
  3 10  1  0  0  0  0
  3 11  1  0  0  0  0
  4 12  1  0  0  0  0
  4  3  1  0  0  0  0
  5  6  2  0  0  0  0
  5  2  1  0  0  0  0
  8  1  1  0  0  0  0
 13 14  1  0  0  0  0
 14 16  1  0  0  0  0
 15 14  2  0  0  0  0
 16 24  1  0  0  0  0
 16 17  1  0  0  0  0
 17 27  1  0  0  0  0
 17 18  1  0  0  0  0
 18 19  1  0  0  0  0
 18 28  1  1  0  0  0
 19  5  1  0  0  0  0
 20 30  1  0  0  0  0
 20 18  1  0  0  0  0
 21 20  2  0  0  0  0
 22 13  1  0  0  0  0
 23 13  1  0  0  0  0
 25 16  1  0  0  0  0
 26 17  1  0  0  0  0
 29 19  1  0  0  0  0
 30 35  1  0  0  0  0
 31 30  1  0  0  0  0
 31 36  1  0  0  0  0
 31 37  1  0  0  0  0
 32 31  1  0  0  0  0
 33 32  2  0  0  0  0
 34 32  1  0  0  0  0
M  END
$$$$
