CQI.pdb
 OpenBabel07022418273D

 49 48  0  0  1  0  0  0  0  0999 V2000
    2.3600   -2.4220    2.6490 N   0  0  0  0  0  0  0  0  0  0  0  0
    1.5180   -1.9780    3.7390 C   0  0  1  0  0  0  0  0  0  0  0  0
    2.4320   -1.6360    4.8970 C   0  0  0  0  0  0  0  0  0  0  0  0
    3.3930   -3.0880    5.4030 S   0  0  0  0  0  0  0  0  0  0  0  0
    0.7130   -0.8370    3.3000 C   0  0  0  0  0  0  0  0  0  0  0  0
   -0.1090   -0.2700    4.0870 O   0  0  0  0  0  0  0  0  0  0  0  0
    3.2110   -1.7860    2.6090 H   0  0  0  0  0  0  0  0  0  0  0  0
    2.7610   -3.3760    2.8270 H   0  0  0  0  0  0  0  0  0  0  0  0
    0.9110   -2.8560    4.0630 H   0  0  0  0  0  0  0  0  0  0  0  0
    1.8290   -1.2910    5.7530 H   0  0  0  0  0  0  0  0  0  0  0  0
    3.1570   -0.8410    4.6290 H   0  0  0  0  0  0  0  0  0  0  0  0
    2.6480   -3.9880    6.1620 H   0  0  0  0  0  0  0  0  0  0  0  0
    0.1700    5.5260    0.0230 N   0  0  0  0  0  0  0  0  0  0  0  0
    0.8320    4.3460    0.4300 C   0  0  0  0  0  0  0  0  0  0  0  0
    2.0650    4.3060    0.4950 O   0  0  0  0  0  0  0  0  0  0  0  0
   -0.0140    3.1590    0.7770 C   0  0  0  0  0  0  0  0  0  0  0  0
    0.8340    1.9900    1.1880 C   0  0  0  0  0  0  0  0  0  0  0  0
   -0.0110    0.8330    1.5750 C   0  0  2  0  0  0  0  0  0  0  0  0
    0.8100   -0.3110    1.9830 N   0  0  0  0  0  0  0  0  0  0  0  0
   -0.9700    0.4220    0.5250 C   0  0  0  0  0  0  0  0  0  0  0  0
   -1.8620    1.1560    0.0310 O   0  0  0  0  0  0  0  0  0  0  0  0
   -0.2290    6.2170    0.6900 H   0  0  0  0  0  0  0  0  0  0  0  0
    0.0810    5.7080   -0.9980 H   0  0  0  0  0  0  0  0  0  0  0  0
   -0.5100    2.8770   -0.2030 H   0  0  0  0  0  0  0  0  0  0  0  0
   -0.8350    3.4030    1.4690 H   0  0  0  0  0  0  0  0  0  0  0  0
    1.4380    2.3280    2.0630 H   0  0  0  0  0  0  0  0  0  0  0  0
    1.4990    1.7680    0.3130 H   0  0  0  0  0  0  0  0  0  0  0  0
   -0.6190    1.1300    2.4550 H   0  0  0  0  0  0  0  0  0  0  0  0
    1.4710   -0.7410    1.2990 H   0  0  0  0  0  0  0  0  0  0  0  0
   -0.5940   -4.1690   -1.6550 C   0  0  0  0  0  0  0  0  0  0  0  0
   -0.1300   -2.8670   -2.2090 C   0  0  0  0  0  0  0  0  0  0  0  0
   -1.1330   -1.7790   -2.2760 C   0  0  2  0  0  0  0  0  0  0  0  0
   -0.4220   -0.5580   -2.8760 C   0  0  0  0  0  0  0  0  0  0  0  0
   -1.7830   -1.3820   -0.9910 C   0  0  2  0  0  0  0  0  0  0  0  0
   -0.9000   -0.9210    0.0110 N   0  0  0  0  0  0  0  0  0  0  0  0
   -2.7060   -2.4530   -0.5270 C   0  0  0  0  0  0  0  0  0  0  0  0
   -2.6780   -2.8940    0.6730 O   0  0  0  0  0  0  0  0  0  0  0  0
   -3.6440   -3.0340   -1.3540 O   0  0  0  0  0  0  0  0  0  0  0  0
    0.1970   -4.9270   -1.9450 H   0  0  0  0  0  0  0  0  0  0  0  0
   -0.6220   -4.2240   -0.5530 H   0  0  0  0  0  0  0  0  0  0  0  0
   -1.5080   -4.5510   -2.1520 H   0  0  0  0  0  0  0  0  0  0  0  0
    0.8140   -2.5840   -1.6980 H   0  0  0  0  0  0  0  0  0  0  0  0
    0.1850   -3.0670   -3.2760 H   0  0  0  0  0  0  0  0  0  0  0  0
   -1.9110   -2.0560   -3.0170 H   0  0  0  0  0  0  0  0  0  0  0  0
   -1.2020    0.1260   -3.2670 H   0  0  0  0  0  0  0  0  0  0  0  0
    0.2850   -0.8970   -3.6610 H   0  0  0  0  0  0  0  0  0  0  0  0
    0.1770   -0.0800   -2.0860 H   0  0  0  0  0  0  0  0  0  0  0  0
   -2.4790   -0.5250   -1.2550 H   0  0  0  0  0  0  0  0  0  0  0  0
   -0.1730   -1.5380    0.4070 H   0  0  0  0  0  0  0  0  0  0  0  0
  1  8  1  0  0  0  0
  1  2  1  0  0  0  0
  2  9  1  1  0  0  0
  2  3  1  0  0  0  0
  3  4  1  0  0  0  0
  3 10  1  0  0  0  0
  4 12  1  0  0  0  0
  5  2  1  0  0  0  0
  5  6  2  0  0  0  0
  7  1  1  0  0  0  0
 11  3  1  0  0  0  0
 13 14  1  0  0  0  0
 13 22  1  0  0  0  0
 14 15  2  0  0  0  0
 14 16  1  0  0  0  0
 16 17  1  0  0  0  0
 16 25  1  0  0  0  0
 17 18  1  0  0  0  0
 17 26  1  0  0  0  0
 18 19  1  0  0  0  0
 18 28  1  1  0  0  0
 19  5  1  0  0  0  0
 20 18  1  0  0  0  0
 21 20  2  0  0  0  0
 23 13  1  0  0  0  0
 24 16  1  0  0  0  0
 27 17  1  0  0  0  0
 29 19  1  0  0  0  0
 30 40  1  0  0  0  0
 31 42  1  0  0  0  0
 31 30  1  0  0  0  0
 32 44  1  6  0  0  0
 32 31  1  0  0  0  0
 32 34  1  0  0  0  0
 33 32  1  0  0  0  0
 33 47  1  0  0  0  0
 34 48  1  6  0  0  0
 34 36  1  0  0  0  0
 34 35  1  0  0  0  0
 35 49  1  0  0  0  0
 35 20  1  0  0  0  0
 36 37  1  0  0  0  0
 38 36  2  0  0  0  0
 39 30  1  0  0  0  0
 41 30  1  0  0  0  0
 43 31  1  0  0  0  0
 45 33  1  0  0  0  0
 46 33  1  0  0  0  0
M  END
$$$$
