CQK.pdb
 OpenBabel07022418273D

 51 50  0  0  1  0  0  0  0  0999 V2000
    5.0920   -3.0650    1.9190 N   0  0  0  0  0  0  0  0  0  0  0  0
    4.2440   -2.1570    1.1220 C   0  0  1  0  0  0  0  0  0  0  0  0
    3.6870   -2.9980    0.0330 C   0  0  0  0  0  0  0  0  0  0  0  0
    2.6090   -2.1530   -1.1240 S   0  0  0  0  0  0  0  0  0  0  0  0
    3.3050   -1.5070    2.0250 C   0  0  0  0  0  0  0  0  0  0  0  0
    3.3610   -1.7740    3.2820 O   0  0  0  0  0  0  0  0  0  0  0  0
    5.5260   -2.5060    2.7040 H   0  0  0  0  0  0  0  0  0  0  0  0
    4.4800   -3.7760    2.3910 H   0  0  0  0  0  0  0  0  0  0  0  0
    4.9620   -1.4370    0.6570 H   0  0  0  0  0  0  0  0  0  0  0  0
    3.2230   -3.9470    0.3930 H   0  0  0  0  0  0  0  0  0  0  0  0
    4.5800   -3.3540   -0.5670 H   0  0  0  0  0  0  0  0  0  0  0  0
    1.6450   -3.0740   -1.5920 H   0  0  0  0  0  0  0  0  0  0  0  0
    0.3440    2.9400   -0.6250 N   0  0  0  0  0  0  0  0  0  0  0  0
    0.2890    2.4030    0.7170 C   0  0  0  0  0  0  0  0  0  0  0  0
   -0.8100    2.0430    1.1440 O   0  0  0  0  0  0  0  0  0  0  0  0
    1.5340    2.3340    1.4580 C   0  0  0  0  0  0  0  0  0  0  0  0
    1.6110    1.5180    2.6910 C   0  0  0  0  0  0  0  0  0  0  0  0
    1.3840    0.0570    2.5750 C   0  0  2  0  0  0  0  0  0  0  0  0
    2.2970   -0.5750    1.6450 N   0  0  0  0  0  0  0  0  0  0  0  0
    0.0070   -0.3670    2.4080 C   0  0  0  0  0  0  0  0  0  0  0  0
   -0.9340   -0.0190    3.2020 O   0  0  0  0  0  0  0  0  0  0  0  0
   -0.3810    3.6130   -0.9200 H   0  0  0  0  0  0  0  0  0  0  0  0
    1.0950    2.6630   -1.2950 H   0  0  0  0  0  0  0  0  0  0  0  0
    2.3990    2.0580    0.7840 H   0  0  0  0  0  0  0  0  0  0  0  0
    1.7800    3.4070    1.7490 H   0  0  0  0  0  0  0  0  0  0  0  0
    0.8870    1.8950    3.4690 H   0  0  0  0  0  0  0  0  0  0  0  0
    2.6370    1.6860    3.1470 H   0  0  0  0  0  0  0  0  0  0  0  0
    1.7230   -0.3690    3.5900 H   0  0  0  0  0  0  0  0  0  0  0  0
    2.2330   -0.3480    0.6250 H   0  0  0  0  0  0  0  0  0  0  0  0
   -0.4220   -1.2100    1.3480 N   0  0  0  0  0  0  0  0  0  0  0  0
   -1.7470   -1.6590    1.1350 C   0  0  1  0  0  0  0  0  0  0  0  0
   -2.3530   -1.5430   -0.1910 C   0  0  0  0  0  0  0  0  0  0  0  0
   -2.4190   -0.1080   -0.6660 C   0  0  0  0  0  0  0  0  0  0  0  0
   -3.0480    0.0060   -2.0340 C   0  0  0  0  0  0  0  0  0  0  0  0
   -4.4590   -0.5220   -2.0700 C   0  0  0  0  0  0  0  0  0  0  0  0
   -5.3000    0.2100   -1.1490 N   0  0  0  0  0  0  0  0  0  0  0  0
   -1.7880   -3.1200    1.5170 C   0  0  0  0  0  0  0  0  0  0  0  0
   -0.7440   -3.6700    1.9270 O   0  0  0  0  0  0  0  0  0  0  0  0
   -2.9450   -3.8450    1.4210 O   0  0  0  0  0  0  0  0  0  0  0  0
    0.2880   -1.5540    0.6310 H   0  0  0  0  0  0  0  0  0  0  0  0
   -2.4040   -1.1340    1.8920 H   0  0  0  0  0  0  0  0  0  0  0  0
   -3.4370   -1.8580   -0.0820 H   0  0  0  0  0  0  0  0  0  0  0  0
   -1.9560   -2.2230   -0.9670 H   0  0  0  0  0  0  0  0  0  0  0  0
   -2.8560    0.5670    0.0660 H   0  0  0  0  0  0  0  0  0  0  0  0
   -1.3480    0.2040   -0.8100 H   0  0  0  0  0  0  0  0  0  0  0  0
   -3.0730    1.0650   -2.3050 H   0  0  0  0  0  0  0  0  0  0  0  0
   -2.4280   -0.5190   -2.7730 H   0  0  0  0  0  0  0  0  0  0  0  0
   -4.8510   -0.3200   -3.0890 H   0  0  0  0  0  0  0  0  0  0  0  0
   -4.5200   -1.6160   -1.9250 H   0  0  0  0  0  0  0  0  0  0  0  0
   -4.8280    1.0050   -0.6980 H   0  0  0  0  0  0  0  0  0  0  0  0
   -5.8290   -0.4120   -0.5070 H   0  0  0  0  0  0  0  0  0  0  0  0
  1  8  1  0  0  0  0
  1  7  1  0  0  0  0
  2  9  1  6  0  0  0
  2  1  1  0  0  0  0
  2  5  1  0  0  0  0
  3 10  1  0  0  0  0
  3  2  1  0  0  0  0
  4  3  1  0  0  0  0
  5  6  2  0  0  0  0
 11  3  1  0  0  0  0
 12  4  1  0  0  0  0
 13 14  1  0  0  0  0
 14 15  2  0  0  0  0
 14 16  1  0  0  0  0
 16 25  1  0  0  0  0
 16 17  1  0  0  0  0
 17 27  1  0  0  0  0
 17 26  1  0  0  0  0
 18 17  1  0  0  0  0
 18 28  1  1  0  0  0
 19  5  1  0  0  0  0
 19 18  1  0  0  0  0
 20 18  1  0  0  0  0
 20 21  2  0  0  0  0
 22 13  1  0  0  0  0
 23 13  1  0  0  0  0
 24 16  1  0  0  0  0
 29 19  1  0  0  0  0
 30 20  1  0  0  0  0
 31 30  1  0  0  0  0
 31 37  1  0  0  0  0
 31 41  1  1  0  0  0
 32 42  1  0  0  0  0
 32 31  1  0  0  0  0
 33 32  1  0  0  0  0
 33 44  1  0  0  0  0
 34 33  1  0  0  0  0
 35 34  1  0  0  0  0
 35 49  1  0  0  0  0
 35 36  1  0  0  0  0
 36 50  1  0  0  0  0
 36 51  1  0  0  0  0
 37 38  1  0  0  0  0
 39 37  2  0  0  0  0
 40 30  1  0  0  0  0
 43 32  1  0  0  0  0
 45 33  1  0  0  0  0
 46 34  1  0  0  0  0
 47 34  1  0  0  0  0
 48 35  1  0  0  0  0
M  END
$$$$
