CQM.pdb
 OpenBabel07022418273D

 47 46  0  0  1  0  0  0  0  0999 V2000
    1.2990   -1.9370    5.8220 N   0  0  0  0  0  0  0  0  0  0  0  0
    1.6010   -1.8350    4.4070 C   0  0  1  0  0  0  0  0  0  0  0  0
    1.3710   -3.1970    3.7940 C   0  0  0  0  0  0  0  0  0  0  0  0
    2.4800   -4.3710    4.6200 S   0  0  0  0  0  0  0  0  0  0  0  0
    0.7370   -0.7970    3.8250 C   0  0  0  0  0  0  0  0  0  0  0  0
   -0.1000   -0.1600    4.5450 O   0  0  0  0  0  0  0  0  0  0  0  0
    0.3750   -1.5000    6.0230 H   0  0  0  0  0  0  0  0  0  0  0  0
    1.2890   -2.9260    6.1540 H   0  0  0  0  0  0  0  0  0  0  0  0
    2.6820   -1.6170    4.3060 H   0  0  0  0  0  0  0  0  0  0  0  0
    0.3360   -3.5470    3.9600 H   0  0  0  0  0  0  0  0  0  0  0  0
    1.6380   -3.1990    2.7100 H   0  0  0  0  0  0  0  0  0  0  0  0
    2.3620   -5.6620    4.0690 H   0  0  0  0  0  0  0  0  0  0  0  0
    3.2090    2.5110   -1.3020 N   0  0  0  0  0  0  0  0  0  0  0  0
    2.2810    2.6540   -0.2530 C   0  0  0  0  0  0  0  0  0  0  0  0
    2.0580    3.7730    0.2370 O   0  0  0  0  0  0  0  0  0  0  0  0
    1.5840    1.4550    0.2490 C   0  0  0  0  0  0  0  0  0  0  0  0
    0.6270    1.7700    1.3680 C   0  0  0  0  0  0  0  0  0  0  0  0
   -0.0980    0.5960    1.9070 C   0  0  2  0  0  0  0  0  0  0  0  0
    0.7600   -0.4260    2.4520 N   0  0  0  0  0  0  0  0  0  0  0  0
   -1.0560   -0.0330    0.9770 C   0  0  0  0  0  0  0  0  0  0  0  0
   -0.9680   -1.2760    0.8290 O   0  0  0  0  0  0  0  0  0  0  0  0
    3.0590    3.0090   -2.2120 H   0  0  0  0  0  0  0  0  0  0  0  0
    4.0700    1.9260   -1.2490 H   0  0  0  0  0  0  0  0  0  0  0  0
    0.9400    1.0970   -0.6090 H   0  0  0  0  0  0  0  0  0  0  0  0
    2.3400    0.7180    0.5240 H   0  0  0  0  0  0  0  0  0  0  0  0
   -0.1080    2.5410    1.0630 H   0  0  0  0  0  0  0  0  0  0  0  0
    1.2260    2.2120    2.1920 H   0  0  0  0  0  0  0  0  0  0  0  0
   -0.7250    0.9810    2.7660 H   0  0  0  0  0  0  0  0  0  0  0  0
    1.4210   -0.9050    1.8030 H   0  0  0  0  0  0  0  0  0  0  0  0
    0.5390   -2.2120   -4.1010 C   0  0  0  0  0  0  0  0  0  0  0  0
   -0.9380   -1.1320   -3.9760 S   0  0  0  0  0  0  0  0  0  0  0  0
   -1.3460   -0.9720   -2.1930 C   0  0  0  0  0  0  0  0  0  0  0  0
   -2.5450   -0.1000   -2.0200 C   0  0  0  0  0  0  0  0  0  0  0  0
   -2.9730    0.1000   -0.6170 C   0  0  2  0  0  0  0  0  0  0  0  0
   -2.0410    0.6980    0.2690 N   0  0  0  0  0  0  0  0  0  0  0  0
   -3.6560   -1.1100   -0.0330 C   0  0  0  0  0  0  0  0  0  0  0  0
   -4.4380   -1.7990   -0.7330 O   0  0  0  0  0  0  0  0  0  0  0  0
   -3.4410   -1.4810    1.2690 O   0  0  0  0  0  0  0  0  0  0  0  0
    1.4140   -1.7050   -3.6430 H   0  0  0  0  0  0  0  0  0  0  0  0
    0.7240   -2.4560   -5.1670 H   0  0  0  0  0  0  0  0  0  0  0  0
    0.3810   -3.1460   -3.5080 H   0  0  0  0  0  0  0  0  0  0  0  0
   -1.4970   -2.0070   -1.8270 H   0  0  0  0  0  0  0  0  0  0  0  0
   -0.4660   -0.4760   -1.7450 H   0  0  0  0  0  0  0  0  0  0  0  0
   -2.3920    0.8740   -2.4950 H   0  0  0  0  0  0  0  0  0  0  0  0
   -3.3950   -0.5820   -2.5660 H   0  0  0  0  0  0  0  0  0  0  0  0
   -3.8450    0.8590   -0.6660 H   0  0  0  0  0  0  0  0  0  0  0  0
   -2.0130    1.7500    0.4680 H   0  0  0  0  0  0  0  0  0  0  0  0
  1  7  1  0  0  0  0
  1  8  1  0  0  0  0
  2  9  1  6  0  0  0
  2  1  1  0  0  0  0
  3 10  1  0  0  0  0
  3  2  1  0  0  0  0
  3  4  1  0  0  0  0
  5  2  1  0  0  0  0
  5  6  2  0  0  0  0
 11  3  1  0  0  0  0
 12  4  1  0  0  0  0
 13 23  1  0  0  0  0
 13 14  1  0  0  0  0
 14 15  2  0  0  0  0
 14 16  1  0  0  0  0
 16 25  1  0  0  0  0
 16 17  1  0  0  0  0
 17 18  1  0  0  0  0
 17 27  1  0  0  0  0
 18 19  1  0  0  0  0
 18 28  1  1  0  0  0
 19  5  1  0  0  0  0
 20 18  1  0  0  0  0
 21 20  2  0  0  0  0
 22 13  1  0  0  0  0
 24 16  1  0  0  0  0
 26 17  1  0  0  0  0
 29 19  1  0  0  0  0
 30 31  1  0  0  0  0
 30 39  1  0  0  0  0
 30 41  1  0  0  0  0
 31 32  1  0  0  0  0
 32 33  1  0  0  0  0
 32 42  1  0  0  0  0
 32 43  1  0  0  0  0
 33 34  1  0  0  0  0
 34 46  1  6  0  0  0
 34 36  1  0  0  0  0
 34 35  1  0  0  0  0
 35 47  1  0  0  0  0
 35 20  1  0  0  0  0
 36 38  1  0  0  0  0
 37 36  2  0  0  0  0
 40 30  1  0  0  0  0
 44 33  1  0  0  0  0
 45 33  1  0  0  0  0
M  END
$$$$
