CQN.pdb
 OpenBabel07022418273D

 44 43  0  0  1  0  0  0  0  0999 V2000
   -0.8430   -1.4830    4.1410 N   0  0  0  0  0  0  0  0  0  0  0  0
   -0.3580   -0.1390    4.3630 C   0  0  1  0  0  0  0  0  0  0  0  0
    0.8190   -0.3080    5.3450 C   0  0  0  0  0  0  0  0  0  0  0  0
    2.0920   -1.3670    4.6050 S   0  0  0  0  0  0  0  0  0  0  0  0
    0.2160    0.4900    3.1480 C   0  0  0  0  0  0  0  0  0  0  0  0
    0.4740    1.7130    3.1200 O   0  0  0  0  0  0  0  0  0  0  0  0
   -1.3590   -1.8720    4.9380 H   0  0  0  0  0  0  0  0  0  0  0  0
   -0.2030   -2.1180    3.6650 H   0  0  0  0  0  0  0  0  0  0  0  0
   -1.1480    0.4370    4.8470 H   0  0  0  0  0  0  0  0  0  0  0  0
    0.4840   -0.7400    6.3060 H   0  0  0  0  0  0  0  0  0  0  0  0
    1.3020    0.6630    5.5720 H   0  0  0  0  0  0  0  0  0  0  0  0
    2.9430   -1.8240    5.6450 H   0  0  0  0  0  0  0  0  0  0  0  0
    3.4910    2.9430   -1.6260 N   0  0  0  0  0  0  0  0  0  0  0  0
    3.1480    2.0760   -0.5250 C   0  0  0  0  0  0  0  0  0  0  0  0
    2.8880    2.6530    0.5450 O   0  0  0  0  0  0  0  0  0  0  0  0
    3.1090    0.6090   -0.6410 C   0  0  0  0  0  0  0  0  0  0  0  0
    2.4820   -0.0060    0.5470 C   0  0  0  0  0  0  0  0  0  0  0  0
    1.0750    0.4080    0.7560 C   0  0  2  0  0  0  0  0  0  0  0  0
    0.5060   -0.2310    1.9590 N   0  0  0  0  0  0  0  0  0  0  0  0
    0.2150    0.1210   -0.4170 C   0  0  0  0  0  0  0  0  0  0  0  0
    0.4330    0.5010   -1.5870 O   0  0  0  0  0  0  0  0  0  0  0  0
    2.7180    3.2870   -2.2260 H   0  0  0  0  0  0  0  0  0  0  0  0
    4.4580    3.2340   -1.8460 H   0  0  0  0  0  0  0  0  0  0  0  0
    4.1820    0.2120   -0.7390 H   0  0  0  0  0  0  0  0  0  0  0  0
    2.6740    0.3480   -1.6250 H   0  0  0  0  0  0  0  0  0  0  0  0
    2.5820   -1.1340    0.5490 H   0  0  0  0  0  0  0  0  0  0  0  0
    3.0560    0.3850    1.4470 H   0  0  0  0  0  0  0  0  0  0  0  0
    1.0510    1.4910    1.0060 H   0  0  0  0  0  0  0  0  0  0  0  0
    0.3190   -1.2470    1.9330 H   0  0  0  0  0  0  0  0  0  0  0  0
   -1.0470   -4.6160   -1.7300 N   0  0  0  0  0  0  0  0  0  0  0  0
   -0.9550   -3.2050   -1.6390 C   0  0  0  0  0  0  0  0  0  0  0  0
    0.1500   -2.6170   -1.6830 O   0  0  0  0  0  0  0  0  0  0  0  0
   -2.1840   -2.4090   -1.4890 C   0  0  0  0  0  0  0  0  0  0  0  0
   -1.8340   -0.9510   -1.3870 C   0  0  2  0  0  0  0  0  0  0  0  0
   -0.9860   -0.6580   -0.2450 N   0  0  0  0  0  0  0  0  0  0  0  0
   -3.0860   -0.1660   -1.1880 C   0  0  0  0  0  0  0  0  0  0  0  0
   -3.9960   -0.2540   -2.0560 O   0  0  0  0  0  0  0  0  0  0  0  0
   -3.3280    0.6640   -0.1160 O   0  0  0  0  0  0  0  0  0  0  0  0
   -1.4460   -5.1190   -0.9090 H   0  0  0  0  0  0  0  0  0  0  0  0
   -0.7350   -5.1350   -2.5810 H   0  0  0  0  0  0  0  0  0  0  0  0
   -2.7980   -2.7440   -0.6190 H   0  0  0  0  0  0  0  0  0  0  0  0
   -2.8030   -2.5490   -2.4050 H   0  0  0  0  0  0  0  0  0  0  0  0
   -1.4040   -0.6060   -2.3330 H   0  0  0  0  0  0  0  0  0  0  0  0
   -1.2570   -1.0160    0.6980 H   0  0  0  0  0  0  0  0  0  0  0  0
  1  2  1  0  0  0  0
  1  7  1  0  0  0  0
  2  9  1  1  0  0  0
  2  3  1  0  0  0  0
  3 11  1  0  0  0  0
  3 10  1  0  0  0  0
  4  3  1  0  0  0  0
  4 12  1  0  0  0  0
  5  2  1  0  0  0  0
  6  5  2  0  0  0  0
  8  1  1  0  0  0  0
 13 14  1  0  0  0  0
 14 15  2  0  0  0  0
 16 14  1  0  0  0  0
 16 17  1  0  0  0  0
 17 26  1  0  0  0  0
 17 18  1  0  0  0  0
 17 27  1  0  0  0  0
 18 28  1  1  0  0  0
 18 19  1  0  0  0  0
 19  5  1  0  0  0  0
 20 35  1  0  0  0  0
 20 18  1  0  0  0  0
 21 20  2  0  0  0  0
 22 13  1  0  0  0  0
 23 13  1  0  0  0  0
 24 16  1  0  0  0  0
 25 16  1  0  0  0  0
 29 19  1  0  0  0  0
 30 31  1  0  0  0  0
 30 39  1  0  0  0  0
 31 33  1  0  0  0  0
 32 31  2  0  0  0  0
 33 34  1  0  0  0  0
 33 41  1  0  0  0  0
 34 43  1  6  0  0  0
 34 36  1  0  0  0  0
 34 35  1  0  0  0  0
 35 44  1  0  0  0  0
 36 38  1  0  0  0  0
 37 36  2  0  0  0  0
 40 30  1  0  0  0  0
 42 33  1  0  0  0  0
M  END
$$$$
