CQQ.pdb
 OpenBabel07022418273D

 47 46  0  0  1  0  0  0  0  0999 V2000
    2.4770   -2.0250    4.6440 N   0  0  0  0  0  0  0  0  0  0  0  0
    2.2440   -1.6680    3.2780 C   0  0  1  0  0  0  0  0  0  0  0  0
    1.5470   -2.8540    2.6150 C   0  0  0  0  0  0  0  0  0  0  0  0
    2.5500   -4.3390    2.6850 S   0  0  0  0  0  0  0  0  0  0  0  0
    1.4930   -0.4230    3.1060 C   0  0  0  0  0  0  0  0  0  0  0  0
    1.0800    0.2870    4.0840 O   0  0  0  0  0  0  0  0  0  0  0  0
    1.6120   -1.7590    5.1960 H   0  0  0  0  0  0  0  0  0  0  0  0
    2.6320   -3.0400    4.7570 H   0  0  0  0  0  0  0  0  0  0  0  0
    3.2230   -1.5690    2.7530 H   0  0  0  0  0  0  0  0  0  0  0  0
    1.4110   -2.5480    1.5370 H   0  0  0  0  0  0  0  0  0  0  0  0
    0.5510   -3.0340    3.0190 H   0  0  0  0  0  0  0  0  0  0  0  0
    2.2390   -5.2390    1.6620 H   0  0  0  0  0  0  0  0  0  0  0  0
    0.9390    5.7260   -0.7400 N   0  0  0  0  0  0  0  0  0  0  0  0
    1.3940    4.4430   -0.3750 C   0  0  0  0  0  0  0  0  0  0  0  0
    2.4930    4.0170   -0.7370 O   0  0  0  0  0  0  0  0  0  0  0  0
    0.5240    3.5580    0.4820 C   0  0  0  0  0  0  0  0  0  0  0  0
    1.1900    2.2490    0.7500 C   0  0  0  0  0  0  0  0  0  0  0  0
    0.4420    1.2900    1.6010 C   0  0  2  0  0  0  0  0  0  0  0  0
    1.1890    0.0510    1.8060 N   0  0  0  0  0  0  0  0  0  0  0  0
   -0.8380    0.9270    0.9730 C   0  0  0  0  0  0  0  0  0  0  0  0
   -1.6910    1.8110    0.7260 O   0  0  0  0  0  0  0  0  0  0  0  0
    0.3580    6.2710   -0.0610 H   0  0  0  0  0  0  0  0  0  0  0  0
    1.1390    6.1910   -1.6560 H   0  0  0  0  0  0  0  0  0  0  0  0
   -0.4330    3.5210   -0.0370 H   0  0  0  0  0  0  0  0  0  0  0  0
    0.4170    4.1090    1.4470 H   0  0  0  0  0  0  0  0  0  0  0  0
    2.2490    2.4090    1.0980 H   0  0  0  0  0  0  0  0  0  0  0  0
    1.3410    1.7690   -0.2650 H   0  0  0  0  0  0  0  0  0  0  0  0
    0.2320    1.7250    2.6200 H   0  0  0  0  0  0  0  0  0  0  0  0
    1.5090   -0.4950    0.9750 H   0  0  0  0  0  0  0  0  0  0  0  0
   -0.2910   -4.6770   -2.4170 N   0  0  0  0  0  0  0  0  0  0  0  0
   -1.0660   -3.4960   -2.3640 C   0  0  0  0  0  0  0  0  0  0  0  0
   -1.5620   -3.0700   -3.4410 O   0  0  0  0  0  0  0  0  0  0  0  0
   -1.3170   -2.7460   -1.1080 C   0  0  0  0  0  0  0  0  0  0  0  0
   -2.1600   -1.5360   -1.3090 C   0  0  0  0  0  0  0  0  0  0  0  0
   -2.3600   -0.8460    0.0210 C   0  0  2  0  0  0  0  0  0  0  0  0
   -1.1240   -0.4200    0.6400 N   0  0  0  0  0  0  0  0  0  0  0  0
   -3.0370   -1.8180    0.9220 C   0  0  0  0  0  0  0  0  0  0  0  0
   -2.5190   -2.1450    2.0320 O   0  0  0  0  0  0  0  0  0  0  0  0
   -4.2500   -2.4020    0.5930 O   0  0  0  0  0  0  0  0  0  0  0  0
   -0.4370   -5.3760   -3.1780 H   0  0  0  0  0  0  0  0  0  0  0  0
    0.4480   -4.9100   -1.7200 H   0  0  0  0  0  0  0  0  0  0  0  0
   -1.8550   -3.4330   -0.4260 H   0  0  0  0  0  0  0  0  0  0  0  0
   -0.3430   -2.5160   -0.6350 H   0  0  0  0  0  0  0  0  0  0  0  0
   -1.7830   -0.8460   -2.0880 H   0  0  0  0  0  0  0  0  0  0  0  0
   -3.1760   -1.8450   -1.6470 H   0  0  0  0  0  0  0  0  0  0  0  0
   -3.0530    0.0120   -0.1460 H   0  0  0  0  0  0  0  0  0  0  0  0
   -0.4050   -1.1400    0.8550 H   0  0  0  0  0  0  0  0  0  0  0  0
  1  8  1  0  0  0  0
  1  7  1  0  0  0  0
  2  9  1  6  0  0  0
  2  1  1  0  0  0  0
  3  4  1  0  0  0  0
  3 11  1  0  0  0  0
  3  2  1  0  0  0  0
  5  2  1  0  0  0  0
  5  6  2  0  0  0  0
 10  3  1  0  0  0  0
 12  4  1  0  0  0  0
 13 14  1  0  0  0  0
 13 22  1  0  0  0  0
 14 16  1  0  0  0  0
 15 14  2  0  0  0  0
 16 17  1  0  0  0  0
 16 25  1  0  0  0  0
 17 26  1  0  0  0  0
 17 18  1  0  0  0  0
 18 19  1  0  0  0  0
 18 28  1  1  0  0  0
 19  5  1  0  0  0  0
 20 18  1  0  0  0  0
 21 20  2  0  0  0  0
 23 13  1  0  0  0  0
 24 16  1  0  0  0  0
 27 17  1  0  0  0  0
 29 19  1  0  0  0  0
 30 31  1  0  0  0  0
 30 41  1  0  0  0  0
 31 33  1  0  0  0  0
 32 31  2  0  0  0  0
 33 43  1  0  0  0  0
 33 42  1  0  0  0  0
 34 33  1  0  0  0  0
 34 35  1  0  0  0  0
 35 46  1  6  0  0  0
 35 36  1  0  0  0  0
 35 37  1  0  0  0  0
 36 47  1  0  0  0  0
 36 20  1  0  0  0  0
 37 38  1  0  0  0  0
 39 37  2  0  0  0  0
 40 30  1  0  0  0  0
 44 34  1  0  0  0  0
 45 34  1  0  0  0  0
M  END
$$$$
