CRC.pdb
 OpenBabel07022418263D

 47 46  0  0  1  0  0  0  0  0999 V2000
    0.4230   -2.9990    5.0440 N   0  0  0  0  0  0  0  0  0  0  0  0
    0.9190   -2.0770    4.0460 C   0  0  1  0  0  0  0  0  0  0  0  0
    1.7850   -2.8450    3.0830 C   0  0  0  0  0  0  0  0  0  0  0  0
    3.1570   -3.5760    4.0370 S   0  0  0  0  0  0  0  0  0  0  0  0
   -0.2210   -1.4090    3.4000 C   0  0  0  0  0  0  0  0  0  0  0  0
   -1.3860   -1.7020    3.7690 O   0  0  0  0  0  0  0  0  0  0  0  0
    0.3730   -3.9740    4.7070 H   0  0  0  0  0  0  0  0  0  0  0  0
   -0.4720   -2.7130    5.4610 H   0  0  0  0  0  0  0  0  0  0  0  0
    1.5310   -1.3200    4.6000 H   0  0  0  0  0  0  0  0  0  0  0  0
    1.1900   -3.6980    2.6990 H   0  0  0  0  0  0  0  0  0  0  0  0
    2.1640   -2.1890    2.2720 H   0  0  0  0  0  0  0  0  0  0  0  0
    3.3750   -4.9210    3.6450 H   0  0  0  0  0  0  0  0  0  0  0  0
    2.7420    1.5220   -1.9120 N   0  0  0  0  0  0  0  0  0  0  0  0
    1.4740    2.0700   -1.6230 C   0  0  0  0  0  0  0  0  0  0  0  0
    0.7850    2.7310   -2.5010 N   0  0  0  0  0  0  0  0  0  0  0  0
    0.9160    1.9000   -0.3100 N   0  0  0  0  0  0  0  0  0  0  0  0
    0.1430    2.9290    0.2940 C   0  0  0  0  0  0  0  0  0  0  0  0
   -0.3810    2.7010    1.6620 C   0  0  0  0  0  0  0  0  0  0  0  0
   -1.3550    1.6530    1.9390 C   0  0  0  0  0  0  0  0  0  0  0  0
   -1.1240    0.2310    1.7180 C   0  0  2  0  0  0  0  0  0  0  0  0
   -0.0530   -0.4320    2.3610 N   0  0  0  0  0  0  0  0  0  0  0  0
   -1.4650   -0.2310    0.3620 C   0  0  0  0  0  0  0  0  0  0  0  0
   -2.2680    0.4690   -0.3180 O   0  0  0  0  0  0  0  0  0  0  0  0
    3.5420    1.5510   -1.2570 H   0  0  0  0  0  0  0  0  0  0  0  0
    2.9300    1.0500   -2.8290 H   0  0  0  0  0  0  0  0  0  0  0  0
    1.1070    2.9030   -3.4640 H   0  0  0  0  0  0  0  0  0  0  0  0
    1.1050    1.0120    0.1680 H   0  0  0  0  0  0  0  0  0  0  0  0
   -0.6890    3.2550   -0.3950 H   0  0  0  0  0  0  0  0  0  0  0  0
    0.7910    3.8670    0.3250 H   0  0  0  0  0  0  0  0  0  0  0  0
    0.4870    2.7070    2.3950 H   0  0  0  0  0  0  0  0  0  0  0  0
   -0.8980    3.6920    1.9420 H   0  0  0  0  0  0  0  0  0  0  0  0
   -1.7990    1.7840    2.9850 H   0  0  0  0  0  0  0  0  0  0  0  0
   -2.2870    1.9180    1.3070 H   0  0  0  0  0  0  0  0  0  0  0  0
   -2.0810   -0.2460    2.3020 H   0  0  0  0  0  0  0  0  0  0  0  0
    0.9730   -0.2660    2.1380 H   0  0  0  0  0  0  0  0  0  0  0  0
   -0.9690   -1.4170   -0.2480 N   0  0  0  0  0  0  0  0  0  0  0  0
   -1.4030   -1.7750   -1.5830 C   0  0  1  0  0  0  0  0  0  0  0  0
   -0.3080   -2.4220   -2.3800 C   0  0  0  0  0  0  0  0  0  0  0  0
    1.0770   -1.2820   -2.5260 S   0  0  0  0  0  0  0  0  0  0  0  0
   -2.5520   -2.7610   -1.4810 C   0  0  0  0  0  0  0  0  0  0  0  0
   -3.0450   -3.1730   -2.5370 O   0  0  0  0  0  0  0  0  0  0  0  0
   -3.0160   -3.1710   -0.2640 O   0  0  0  0  0  0  0  0  0  0  0  0
   -0.3000   -1.9980    0.2950 H   0  0  0  0  0  0  0  0  0  0  0  0
   -1.8230   -0.9400   -2.1400 H   0  0  0  0  0  0  0  0  0  0  0  0
   -0.0020   -3.4030   -1.9490 H   0  0  0  0  0  0  0  0  0  0  0  0
   -0.7050   -2.6210   -3.4200 H   0  0  0  0  0  0  0  0  0  0  0  0
    2.2950   -1.9250   -2.1800 H   0  0  0  0  0  0  0  0  0  0  0  0
  1  8  1  0  0  0  0
  2  9  1  1  0  0  0
  2  1  1  0  0  0  0
  3  4  1  0  0  0  0
  3  2  1  0  0  0  0
  5  6  2  0  0  0  0
  5  2  1  0  0  0  0
  7  1  1  0  0  0  0
 10  3  1  0  0  0  0
 11  3  1  0  0  0  0
 12  4  1  0  0  0  0
 13 14  1  0  0  0  0
 13 24  1  0  0  0  0
 14 16  1  0  0  0  0
 15 14  2  0  0  0  0
 16 27  1  0  0  0  0
 16 17  1  0  0  0  0
 17 29  1  0  0  0  0
 17 18  1  0  0  0  0
 18 19  1  0  0  0  0
 18 31  1  0  0  0  0
 18 30  1  0  0  0  0
 19 32  1  0  0  0  0
 20 19  1  0  0  0  0
 20 34  1  1  0  0  0
 20 21  1  0  0  0  0
 21  5  1  0  0  0  0
 22 20  1  0  0  0  0
 23 22  2  0  0  0  0
 25 13  1  0  0  0  0
 26 15  1  0  0  0  0
 28 17  1  0  0  0  0
 33 19  1  0  0  0  0
 35 21  1  0  0  0  0
 36 43  1  0  0  0  0
 36 22  1  0  0  0  0
 37 44  1  6  0  0  0
 37 40  1  0  0  0  0
 37 36  1  0  0  0  0
 38 45  1  0  0  0  0
 38 37  1  0  0  0  0
 39 38  1  0  0  0  0
 39 47  1  0  0  0  0
 40 42  1  0  0  0  0
 41 40  2  0  0  0  0
 46 38  1  0  0  0  0
M  END
$$$$
