CRM.pdb
 OpenBabel07022418263D

 53 52  0  0  1  0  0  0  0  0999 V2000
    3.7530   -4.3090    2.9010 N   0  0  0  0  0  0  0  0  0  0  0  0
    3.3730   -3.1820    2.0620 C   0  0  1  0  0  0  0  0  0  0  0  0
    3.7370   -3.5850    0.6370 C   0  0  0  0  0  0  0  0  0  0  0  0
    2.8420   -5.0840    0.1360 S   0  0  0  0  0  0  0  0  0  0  0  0
    1.9260   -2.8900    2.1660 C   0  0  0  0  0  0  0  0  0  0  0  0
    1.1620   -3.5520    2.8890 O   0  0  0  0  0  0  0  0  0  0  0  0
    3.1760   -5.1420    2.6790 H   0  0  0  0  0  0  0  0  0  0  0  0
    3.7650   -4.0640    3.9060 H   0  0  0  0  0  0  0  0  0  0  0  0
    4.0160   -2.3140    2.3130 H   0  0  0  0  0  0  0  0  0  0  0  0
    4.8270   -3.8230    0.6560 H   0  0  0  0  0  0  0  0  0  0  0  0
    3.5990   -2.7550   -0.0830 H   0  0  0  0  0  0  0  0  0  0  0  0
    1.5120   -4.8070   -0.1980 H   0  0  0  0  0  0  0  0  0  0  0  0
    3.1970    1.0900   -0.3700 N   0  0  0  0  0  0  0  0  0  0  0  0
    2.3270    1.5490    0.6560 C   0  0  0  0  0  0  0  0  0  0  0  0
    1.5150    2.5340    0.4010 N   0  0  0  0  0  0  0  0  0  0  0  0
    2.3200    0.9610    1.9600 N   0  0  0  0  0  0  0  0  0  0  0  0
    1.3040    1.3660    2.8650 C   0  0  0  0  0  0  0  0  0  0  0  0
   -0.0520    0.9460    2.4780 C   0  0  0  0  0  0  0  0  0  0  0  0
   -0.4670   -0.4330    2.3640 C   0  0  0  0  0  0  0  0  0  0  0  0
    0.0330   -1.4220    1.4110 C   0  0  2  0  0  0  0  0  0  0  0  0
    1.4050   -1.7970    1.3930 N   0  0  0  0  0  0  0  0  0  0  0  0
   -0.4350   -1.1350    0.0260 C   0  0  0  0  0  0  0  0  0  0  0  0
    0.4130   -1.2290   -0.8950 O   0  0  0  0  0  0  0  0  0  0  0  0
    4.0510    0.5490   -0.1220 H   0  0  0  0  0  0  0  0  0  0  0  0
    2.9680    1.3010   -1.3680 H   0  0  0  0  0  0  0  0  0  0  0  0
    1.5170    2.9680   -0.5550 H   0  0  0  0  0  0  0  0  0  0  0  0
    3.0630    0.2690    2.2100 H   0  0  0  0  0  0  0  0  0  0  0  0
    1.5790    1.0450    3.9110 H   0  0  0  0  0  0  0  0  0  0  0  0
    1.3760    2.5040    2.9460 H   0  0  0  0  0  0  0  0  0  0  0  0
   -0.7530    1.4350    3.2650 H   0  0  0  0  0  0  0  0  0  0  0  0
   -0.4040    1.5480    1.5530 H   0  0  0  0  0  0  0  0  0  0  0  0
   -1.6180   -0.4170    2.2180 H   0  0  0  0  0  0  0  0  0  0  0  0
   -0.4420   -0.8590    3.4360 H   0  0  0  0  0  0  0  0  0  0  0  0
   -0.5110   -2.4210    1.6700 H   0  0  0  0  0  0  0  0  0  0  0  0
    2.0950   -1.3240    0.7780 H   0  0  0  0  0  0  0  0  0  0  0  0
   -5.0820    1.0960   -0.4090 C   0  0  0  0  0  0  0  0  0  0  0  0
   -5.5350   -0.1110   -1.6290 S   0  0  0  0  0  0  0  0  0  0  0  0
   -4.4840   -1.5490   -1.7570 C   0  0  0  0  0  0  0  0  0  0  0  0
   -3.1330   -1.3610   -2.3220 C   0  0  0  0  0  0  0  0  0  0  0  0
   -2.1520   -0.5020   -1.6710 C   0  0  2  0  0  0  0  0  0  0  0  0
   -1.7330   -0.7700   -0.3460 N   0  0  0  0  0  0  0  0  0  0  0  0
   -2.4050    0.9280   -1.9750 C   0  0  0  0  0  0  0  0  0  0  0  0
   -2.8930    1.2240   -3.0920 O   0  0  0  0  0  0  0  0  0  0  0  0
   -2.1210    1.9510   -1.0790 O   0  0  0  0  0  0  0  0  0  0  0  0
   -4.2470    0.8180    0.2490 H   0  0  0  0  0  0  0  0  0  0  0  0
   -5.9450    1.3140    0.2910 H   0  0  0  0  0  0  0  0  0  0  0  0
   -4.8400    2.1000   -0.8360 H   0  0  0  0  0  0  0  0  0  0  0  0
   -5.0930   -2.2970   -2.3730 H   0  0  0  0  0  0  0  0  0  0  0  0
   -4.4460   -2.1200   -0.7610 H   0  0  0  0  0  0  0  0  0  0  0  0
   -3.3120   -0.8770   -3.3510 H   0  0  0  0  0  0  0  0  0  0  0  0
   -2.6880   -2.3550   -2.6830 H   0  0  0  0  0  0  0  0  0  0  0  0
   -1.1700   -0.6840   -2.2960 H   0  0  0  0  0  0  0  0  0  0  0  0
   -2.4470   -0.6960    0.4120 H   0  0  0  0  0  0  0  0  0  0  0  0
  1  8  1  0  0  0  0
  2  5  1  0  0  0  0
  2  9  1  1  0  0  0
  2  1  1  0  0  0  0
  3 10  1  0  0  0  0
  3  2  1  0  0  0  0
  4  3  1  0  0  0  0
  5  6  2  0  0  0  0
  7  1  1  0  0  0  0
 11  3  1  0  0  0  0
 12  4  1  0  0  0  0
 13 24  1  0  0  0  0
 13 14  1  0  0  0  0
 14 16  1  0  0  0  0
 15 14  2  0  0  0  0
 16 27  1  0  0  0  0
 16 17  1  0  0  0  0
 17 29  1  0  0  0  0
 17 28  1  0  0  0  0
 18 17  1  0  0  0  0
 18 30  1  0  0  0  0
 19 18  1  0  0  0  0
 19 33  1  0  0  0  0
 20 34  1  1  0  0  0
 20 19  1  0  0  0  0
 21 20  1  0  0  0  0
 21  5  1  0  0  0  0
 22 20  1  0  0  0  0
 23 22  2  0  0  0  0
 25 13  1  0  0  0  0
 26 15  1  0  0  0  0
 31 18  1  0  0  0  0
 32 19  1  0  0  0  0
 35 21  1  0  0  0  0
 36 45  1  0  0  0  0
 36 46  1  0  0  0  0
 37 36  1  0  0  0  0
 38 37  1  0  0  0  0
 38 49  1  0  0  0  0
 39 38  1  0  0  0  0
 39 40  1  0  0  0  0
 40 52  1  6  0  0  0
 40 41  1  0  0  0  0
 41 22  1  0  0  0  0
 41 53  1  0  0  0  0
 42 40  1  0  0  0  0
 42 44  1  0  0  0  0
 43 42  2  0  0  0  0
 47 36  1  0  0  0  0
 48 38  1  0  0  0  0
 50 39  1  0  0  0  0
 51 39  1  0  0  0  0
M  END
$$$$
