CRN.pdb
 OpenBabel07022418263D

 50 49  0  0  1  0  0  0  0  0999 V2000
    1.9330   -3.3230    4.3680 N   0  0  0  0  0  0  0  0  0  0  0  0
    1.2590   -3.0020    3.0800 C   0  0  1  0  0  0  0  0  0  0  0  0
    0.0420   -3.8560    3.0570 C   0  0  0  0  0  0  0  0  0  0  0  0
   -0.9910   -3.7210    1.6120 S   0  0  0  0  0  0  0  0  0  0  0  0
    1.0440   -1.5510    3.0480 C   0  0  0  0  0  0  0  0  0  0  0  0
    1.3740   -0.8140    4.0400 O   0  0  0  0  0  0  0  0  0  0  0  0
    2.5630   -4.1310    4.2650 H   0  0  0  0  0  0  0  0  0  0  0  0
    2.3630   -2.4760    4.7700 H   0  0  0  0  0  0  0  0  0  0  0  0
    2.0040   -3.3390    2.3070 H   0  0  0  0  0  0  0  0  0  0  0  0
   -0.5170   -3.6790    4.0030 H   0  0  0  0  0  0  0  0  0  0  0  0
    0.4020   -4.9230    3.1330 H   0  0  0  0  0  0  0  0  0  0  0  0
   -0.5530   -4.4720    0.5270 H   0  0  0  0  0  0  0  0  0  0  0  0
    3.7800    1.2600   -3.7520 N   0  0  0  0  0  0  0  0  0  0  0  0
    3.7430    0.8430   -2.3740 C   0  0  0  0  0  0  0  0  0  0  0  0
    4.6650    1.1820   -1.5340 N   0  0  0  0  0  0  0  0  0  0  0  0
    2.6560    0.0380   -1.9470 N   0  0  0  0  0  0  0  0  0  0  0  0
    2.3040   -0.0620   -0.5130 C   0  0  0  0  0  0  0  0  0  0  0  0
    1.7750    1.2360   -0.0330 C   0  0  0  0  0  0  0  0  0  0  0  0
    1.3840    1.3900    1.3660 C   0  0  0  0  0  0  0  0  0  0  0  0
    0.2890    0.5690    1.9460 C   0  0  2  0  0  0  0  0  0  0  0  0
    0.4670   -0.8480    1.9410 N   0  0  0  0  0  0  0  0  0  0  0  0
   -1.0450    0.9780    1.5160 C   0  0  0  0  0  0  0  0  0  0  0  0
   -1.3990    2.2070    1.4890 O   0  0  0  0  0  0  0  0  0  0  0  0
    3.8860    2.2580   -4.0240 H   0  0  0  0  0  0  0  0  0  0  0  0
    3.7010    0.5550   -4.5080 H   0  0  0  0  0  0  0  0  0  0  0  0
    5.4660    1.7740   -1.8440 H   0  0  0  0  0  0  0  0  0  0  0  0
    2.1210   -0.4750   -2.6790 H   0  0  0  0  0  0  0  0  0  0  0  0
    3.2340   -0.3570    0.0500 H   0  0  0  0  0  0  0  0  0  0  0  0
    1.6330   -0.9110   -0.4600 H   0  0  0  0  0  0  0  0  0  0  0  0
    2.6040    1.9980   -0.2230 H   0  0  0  0  0  0  0  0  0  0  0  0
    0.9610    1.6090   -0.7080 H   0  0  0  0  0  0  0  0  0  0  0  0
    2.2630    1.3150    2.0610 H   0  0  0  0  0  0  0  0  0  0  0  0
    1.0440    2.4720    1.4900 H   0  0  0  0  0  0  0  0  0  0  0  0
    0.3260    0.8450    3.0700 H   0  0  0  0  0  0  0  0  0  0  0  0
    0.1700   -1.4610    1.1540 H   0  0  0  0  0  0  0  0  0  0  0  0
   -2.4020   -2.0530   -1.4740 N   0  0  0  0  0  0  0  0  0  0  0  0
   -3.5320   -1.4100   -0.8880 C   0  0  0  0  0  0  0  0  0  0  0  0
   -4.4750   -2.1560   -0.4830 O   0  0  0  0  0  0  0  0  0  0  0  0
   -3.6010    0.0590   -0.7570 C   0  0  0  0  0  0  0  0  0  0  0  0
   -3.3700    0.5050    0.6780 C   0  0  2  0  0  0  0  0  0  0  0  0
   -2.0340    0.0510    1.1030 N   0  0  0  0  0  0  0  0  0  0  0  0
   -4.3570   -0.1260    1.5710 C   0  0  0  0  0  0  0  0  0  0  0  0
   -5.5700    0.1230    1.3870 O   0  0  0  0  0  0  0  0  0  0  0  0
   -3.9960   -0.9800    2.6020 O   0  0  0  0  0  0  0  0  0  0  0  0
   -1.9390   -1.6720   -2.3470 H   0  0  0  0  0  0  0  0  0  0  0  0
   -1.9670   -2.9150   -1.0970 H   0  0  0  0  0  0  0  0  0  0  0  0
   -4.6450    0.3850   -1.0220 H   0  0  0  0  0  0  0  0  0  0  0  0
   -2.9410    0.5710   -1.4630 H   0  0  0  0  0  0  0  0  0  0  0  0
   -3.3850    1.5900    0.7780 H   0  0  0  0  0  0  0  0  0  0  0  0
   -1.8650   -0.9800    1.0780 H   0  0  0  0  0  0  0  0  0  0  0  0
  1  8  1  0  0  0  0
  2  9  1  6  0  0  0
  2  1  1  0  0  0  0
  3  2  1  0  0  0  0
  3 11  1  0  0  0  0
  3 10  1  0  0  0  0
  4  3  1  0  0  0  0
  5  2  1  0  0  0  0
  5  6  2  0  0  0  0
  7  1  1  0  0  0  0
 12  4  1  0  0  0  0
 13 14  1  0  0  0  0
 14 16  1  0  0  0  0
 14 15  2  0  0  0  0
 16 17  1  0  0  0  0
 17 29  1  0  0  0  0
 17 18  1  0  0  0  0
 17 28  1  0  0  0  0
 18 19  1  0  0  0  0
 19 33  1  0  0  0  0
 19 20  1  0  0  0  0
 19 32  1  0  0  0  0
 20 34  1  1  0  0  0
 21 20  1  0  0  0  0
 21  5  1  0  0  0  0
 22 20  1  0  0  0  0
 23 22  2  0  0  0  0
 24 13  1  0  0  0  0
 25 13  1  0  0  0  0
 26 15  1  0  0  0  0
 27 16  1  0  0  0  0
 30 18  1  0  0  0  0
 31 18  1  0  0  0  0
 35 21  1  0  0  0  0
 36 46  1  0  0  0  0
 36 37  1  0  0  0  0
 37 39  1  0  0  0  0
 37 38  2  0  0  0  0
 39 40  1  0  0  0  0
 40 49  1  1  0  0  0
 40 41  1  0  0  0  0
 40 42  1  0  0  0  0
 41 22  1  0  0  0  0
 42 44  1  0  0  0  0
 43 42  2  0  0  0  0
 45 36  1  0  0  0  0
 47 39  1  0  0  0  0
 48 39  1  0  0  0  0
 50 41  1  0  0  0  0
M  END
$$$$
