CRR.pdb
 OpenBabel07022418263D

 59 58  0  0  1  0  0  0  0  0999 V2000
    2.7870   -1.0180    2.3550 N   0  0  0  0  0  0  0  0  0  0  0  0
    2.2880   -0.9660    3.6950 C   0  0  1  0  0  0  0  0  0  0  0  0
    3.0920    0.0580    4.4590 C   0  0  0  0  0  0  0  0  0  0  0  0
    4.8350   -0.4400    4.4560 S   0  0  0  0  0  0  0  0  0  0  0  0
    0.8650   -0.5900    3.7470 C   0  0  0  0  0  0  0  0  0  0  0  0
    0.2450   -0.4930    4.8350 O   0  0  0  0  0  0  0  0  0  0  0  0
    3.8130   -1.2060    2.3520 H   0  0  0  0  0  0  0  0  0  0  0  0
    2.3530   -1.8850    1.9120 H   0  0  0  0  0  0  0  0  0  0  0  0
    2.4450   -1.9370    4.2170 H   0  0  0  0  0  0  0  0  0  0  0  0
    2.6610    0.1420    5.4620 H   0  0  0  0  0  0  0  0  0  0  0  0
    2.9860    1.0510    3.9520 H   0  0  0  0  0  0  0  0  0  0  0  0
    5.2440   -0.5560    5.7940 H   0  0  0  0  0  0  0  0  0  0  0  0
    2.6180    1.0080   -0.4790 N   0  0  0  0  0  0  0  0  0  0  0  0
    2.0090    2.0870    0.2260 C   0  0  0  0  0  0  0  0  0  0  0  0
    2.6800    3.1370    0.5020 N   0  0  0  0  0  0  0  0  0  0  0  0
    0.6650    2.0080    0.6300 N   0  0  0  0  0  0  0  0  0  0  0  0
   -0.0020    2.9180    1.4840 C   0  0  0  0  0  0  0  0  0  0  0  0
   -1.3790    2.5690    1.9220 C   0  0  0  0  0  0  0  0  0  0  0  0
   -1.6290    1.4630    2.8150 C   0  0  0  0  0  0  0  0  0  0  0  0
   -1.2860    0.0530    2.6420 C   0  0  2  0  0  0  0  0  0  0  0  0
    0.0890   -0.3080    2.5570 N   0  0  0  0  0  0  0  0  0  0  0  0
   -2.1000   -0.6420    1.5890 C   0  0  0  0  0  0  0  0  0  0  0  0
   -3.3270   -0.4020    1.5480 O   0  0  0  0  0  0  0  0  0  0  0  0
    3.2860    1.1360   -1.2610 H   0  0  0  0  0  0  0  0  0  0  0  0
    2.4090   -0.0040   -0.2290 H   0  0  0  0  0  0  0  0  0  0  0  0
    2.2940    3.9560    1.0120 H   0  0  0  0  0  0  0  0  0  0  0  0
    0.0970    1.2140    0.2290 H   0  0  0  0  0  0  0  0  0  0  0  0
    0.0210    3.9310    1.0000 H   0  0  0  0  0  0  0  0  0  0  0  0
    0.6300    3.0070    2.4270 H   0  0  0  0  0  0  0  0  0  0  0  0
   -2.0970    2.5950    1.0290 H   0  0  0  0  0  0  0  0  0  0  0  0
   -1.7440    3.5280    2.4620 H   0  0  0  0  0  0  0  0  0  0  0  0
   -2.7340    1.5340    3.2000 H   0  0  0  0  0  0  0  0  0  0  0  0
   -1.1240    1.7580    3.8320 H   0  0  0  0  0  0  0  0  0  0  0  0
   -1.6100   -0.4110    3.6660 H   0  0  0  0  0  0  0  0  0  0  0  0
    0.5900   -0.4260    1.6780 H   0  0  0  0  0  0  0  0  0  0  0  0
   -2.1370   -4.7700   -4.7090 N   0  0  0  0  0  0  0  0  0  0  0  0
   -1.1080   -3.8190   -4.4880 C   0  0  0  0  0  0  0  0  0  0  0  0
    0.1310   -4.1910   -4.3910 N   0  0  0  0  0  0  0  0  0  0  0  0
   -1.3790   -2.4230   -4.3630 N   0  0  0  0  0  0  0  0  0  0  0  0
   -0.4330   -1.6380   -3.6010 C   0  0  0  0  0  0  0  0  0  0  0  0
   -0.5830   -2.1070   -2.1450 C   0  0  0  0  0  0  0  0  0  0  0  0
   -2.0010   -1.8250   -1.7650 C   0  0  0  0  0  0  0  0  0  0  0  0
   -2.3640   -2.2150   -0.3710 C   0  0  2  0  0  0  0  0  0  0  0  0
   -1.5800   -1.5470    0.6420 N   0  0  0  0  0  0  0  0  0  0  0  0
   -2.3900   -3.6610   -0.1400 C   0  0  0  0  0  0  0  0  0  0  0  0
   -3.0140   -4.4160   -0.9140 O   0  0  0  0  0  0  0  0  0  0  0  0
   -1.7250   -4.2120    0.9410 O   0  0  0  0  0  0  0  0  0  0  0  0
   -3.0150   -4.4500   -5.1540 H   0  0  0  0  0  0  0  0  0  0  0  0
   -2.0190   -5.7570   -4.4350 H   0  0  0  0  0  0  0  0  0  0  0  0
    0.4380   -5.1760   -4.4650 H   0  0  0  0  0  0  0  0  0  0  0  0
   -2.2250   -2.0270   -4.8110 H   0  0  0  0  0  0  0  0  0  0  0  0
    0.5930   -1.7000   -3.9550 H   0  0  0  0  0  0  0  0  0  0  0  0
   -0.7300   -0.5490   -3.6310 H   0  0  0  0  0  0  0  0  0  0  0  0
   -0.3720   -3.1730   -2.0560 H   0  0  0  0  0  0  0  0  0  0  0  0
    0.1640   -1.5420   -1.5790 H   0  0  0  0  0  0  0  0  0  0  0  0
   -2.2830   -0.7760   -1.9780 H   0  0  0  0  0  0  0  0  0  0  0  0
   -2.6470   -2.4470   -2.4460 H   0  0  0  0  0  0  0  0  0  0  0  0
   -3.4300   -1.8580   -0.2310 H   0  0  0  0  0  0  0  0  0  0  0  0
   -0.5380   -1.7630    0.6650 H   0  0  0  0  0  0  0  0  0  0  0  0
  1  2  1  0  0  0  0
  2  5  1  0  0  0  0
  2  9  1  1  0  0  0
  2  3  1  0  0  0  0
  3 10  1  0  0  0  0
  4  3  1  0  0  0  0
  4 12  1  0  0  0  0
  5  6  2  0  0  0  0
  7  1  1  0  0  0  0
  8  1  1  0  0  0  0
 11  3  1  0  0  0  0
 13 25  1  0  0  0  0
 13 14  1  0  0  0  0
 14 15  2  0  0  0  0
 14 16  1  0  0  0  0
 15 26  1  0  0  0  0
 16 17  1  0  0  0  0
 17 18  1  0  0  0  0
 17 29  1  0  0  0  0
 18 31  1  0  0  0  0
 18 19  1  0  0  0  0
 19 32  1  0  0  0  0
 19 33  1  0  0  0  0
 20 19  1  0  0  0  0
 20 34  1  1  0  0  0
 21 20  1  0  0  0  0
 21  5  1  0  0  0  0
 22 20  1  0  0  0  0
 23 22  2  0  0  0  0
 24 13  1  0  0  0  0
 27 16  1  0  0  0  0
 28 17  1  0  0  0  0
 30 18  1  0  0  0  0
 35 21  1  0  0  0  0
 36 37  1  0  0  0  0
 36 49  1  0  0  0  0
 37 38  2  0  0  0  0
 37 39  1  0  0  0  0
 39 40  1  0  0  0  0
 40 41  1  0  0  0  0
 41 54  1  0  0  0  0
 41 42  1  0  0  0  0
 41 55  1  0  0  0  0
 42 43  1  0  0  0  0
 43 58  1  1  0  0  0
 43 45  1  0  0  0  0
 43 44  1  0  0  0  0
 44 59  1  0  0  0  0
 44 22  1  0  0  0  0
 45 47  1  0  0  0  0
 46 45  2  0  0  0  0
 48 36  1  0  0  0  0
 50 38  1  0  0  0  0
 51 39  1  0  0  0  0
 52 40  1  0  0  0  0
 53 40  1  0  0  0  0
 56 42  1  0  0  0  0
 57 42  1  0  0  0  0
M  END
$$$$
