CRS.pdb
 OpenBabel07022418263D

 47 46  0  0  1  0  0  0  0  0999 V2000
    1.8010   -3.9900    4.0850 N   0  0  0  0  0  0  0  0  0  0  0  0
    1.7060   -3.3210    2.7650 C   0  0  1  0  0  0  0  0  0  0  0  0
    0.9430   -4.2310    1.8560 C   0  0  0  0  0  0  0  0  0  0  0  0
    0.7250   -3.6320    0.1830 S   0  0  0  0  0  0  0  0  0  0  0  0
    1.0440   -2.0260    3.0330 C   0  0  0  0  0  0  0  0  0  0  0  0
    0.6550   -1.7560    4.2300 O   0  0  0  0  0  0  0  0  0  0  0  0
    2.2960   -3.2990    4.6920 H   0  0  0  0  0  0  0  0  0  0  0  0
    0.8100   -4.0210    4.4340 H   0  0  0  0  0  0  0  0  0  0  0  0
    2.7480   -3.1460    2.4010 H   0  0  0  0  0  0  0  0  0  0  0  0
    1.3460   -5.2780    1.8920 H   0  0  0  0  0  0  0  0  0  0  0  0
   -0.0890   -4.3380    2.2980 H   0  0  0  0  0  0  0  0  0  0  0  0
    0.8360   -4.7120   -0.7140 H   0  0  0  0  0  0  0  0  0  0  0  0
    1.5030    1.8990   -3.5450 N   0  0  0  0  0  0  0  0  0  0  0  0
    1.4780    2.4860   -2.2560 C   0  0  0  0  0  0  0  0  0  0  0  0
    0.4580    3.2240   -1.9050 N   0  0  0  0  0  0  0  0  0  0  0  0
    2.5030    2.3250   -1.3020 N   0  0  0  0  0  0  0  0  0  0  0  0
    2.2860    2.4870    0.1180 C   0  0  0  0  0  0  0  0  0  0  0  0
    1.3900    1.3250    0.5450 C   0  0  0  0  0  0  0  0  0  0  0  0
    1.0790    1.3690    2.0190 C   0  0  0  0  0  0  0  0  0  0  0  0
    0.1900    0.1690    2.3110 C   0  0  2  0  0  0  0  0  0  0  0  0
    0.8280   -1.0700    1.9940 N   0  0  0  0  0  0  0  0  0  0  0  0
   -1.1570    0.3380    1.7100 C   0  0  0  0  0  0  0  0  0  0  0  0
   -1.8170    1.3960    1.8940 O   0  0  0  0  0  0  0  0  0  0  0  0
    2.0910    1.0780   -3.7670 H   0  0  0  0  0  0  0  0  0  0  0  0
    0.9140    2.3060   -4.2900 H   0  0  0  0  0  0  0  0  0  0  0  0
    0.3570    3.6870   -0.9940 H   0  0  0  0  0  0  0  0  0  0  0  0
    3.4590    2.0790   -1.6280 H   0  0  0  0  0  0  0  0  0  0  0  0
    3.2580    2.3770    0.6630 H   0  0  0  0  0  0  0  0  0  0  0  0
    1.8340    3.4750    0.3830 H   0  0  0  0  0  0  0  0  0  0  0  0
    1.9670    0.4030    0.3280 H   0  0  0  0  0  0  0  0  0  0  0  0
    0.4750    1.4100   -0.0690 H   0  0  0  0  0  0  0  0  0  0  0  0
    0.5090    2.2670    2.2880 H   0  0  0  0  0  0  0  0  0  0  0  0
    1.9980    1.2500    2.6020 H   0  0  0  0  0  0  0  0  0  0  0  0
    0.0330    0.1990    3.4290 H   0  0  0  0  0  0  0  0  0  0  0  0
    1.1600   -1.3300    1.0410 H   0  0  0  0  0  0  0  0  0  0  0  0
   -2.5330   -1.9190   -1.3860 O   0  0  0  0  0  0  0  0  0  0  0  0
   -2.9910   -0.6100   -1.1590 C   0  0  0  0  0  0  0  0  0  0  0  0
   -3.1220   -0.4340    0.3380 C   0  0  2  0  0  0  0  0  0  0  0  0
   -1.7840   -0.6520    0.9080 N   0  0  0  0  0  0  0  0  0  0  0  0
   -4.0030   -1.5230    0.8240 C   0  0  0  0  0  0  0  0  0  0  0  0
   -5.2020   -1.5300    0.4610 O   0  0  0  0  0  0  0  0  0  0  0  0
   -3.5640   -2.5330    1.6610 O   0  0  0  0  0  0  0  0  0  0  0  0
   -2.7220   -2.5050   -0.6130 H   0  0  0  0  0  0  0  0  0  0  0  0
   -2.2150    0.0890   -1.4980 H   0  0  0  0  0  0  0  0  0  0  0  0
   -3.9490   -0.4770   -1.6850 H   0  0  0  0  0  0  0  0  0  0  0  0
   -3.5210    0.5570    0.5980 H   0  0  0  0  0  0  0  0  0  0  0  0
   -1.3250   -1.5490    0.7020 H   0  0  0  0  0  0  0  0  0  0  0  0
  1  8  1  0  0  0  0
  1  7  1  0  0  0  0
  2  9  1  6  0  0  0
  2  5  1  0  0  0  0
  2  1  1  0  0  0  0
  3 10  1  0  0  0  0
  3 11  1  0  0  0  0
  3  2  1  0  0  0  0
  4  3  1  0  0  0  0
  5  6  2  0  0  0  0
 12  4  1  0  0  0  0
 13 14  1  0  0  0  0
 14 15  2  0  0  0  0
 14 16  1  0  0  0  0
 15 26  1  0  0  0  0
 16 17  1  0  0  0  0
 17 29  1  0  0  0  0
 17 18  1  0  0  0  0
 17 28  1  0  0  0  0
 18 19  1  0  0  0  0
 19 32  1  0  0  0  0
 19 20  1  0  0  0  0
 19 33  1  0  0  0  0
 20 34  1  1  0  0  0
 21 20  1  0  0  0  0
 21  5  1  0  0  0  0
 22 23  2  0  0  0  0
 22 20  1  0  0  0  0
 24 13  1  0  0  0  0
 25 13  1  0  0  0  0
 27 16  1  0  0  0  0
 30 18  1  0  0  0  0
 31 18  1  0  0  0  0
 35 21  1  0  0  0  0
 36 37  1  0  0  0  0
 36 43  1  0  0  0  0
 37 38  1  0  0  0  0
 38 46  1  1  0  0  0
 38 40  1  0  0  0  0
 38 39  1  0  0  0  0
 39 22  1  0  0  0  0
 40 42  1  0  0  0  0
 41 40  2  0  0  0  0
 44 37  1  0  0  0  0
 45 37  1  0  0  0  0
 47 39  1  0  0  0  0
M  END
$$$$
