CRV.pdb
 OpenBabel07022418263D

 52 51  0  0  1  0  0  0  0  0999 V2000
    4.0500   -4.0230    2.4770 N   0  0  0  0  0  0  0  0  0  0  0  0
    3.4280   -3.0240    1.6690 C   0  0  1  0  0  0  0  0  0  0  0  0
    2.7950   -3.6610    0.4680 C   0  0  0  0  0  0  0  0  0  0  0  0
    1.5370   -4.8670    0.8870 S   0  0  0  0  0  0  0  0  0  0  0  0
    2.5110   -2.1460    2.4180 C   0  0  0  0  0  0  0  0  0  0  0  0
    2.3740   -2.3590    3.6490 O   0  0  0  0  0  0  0  0  0  0  0  0
    3.6920   -4.9890    2.3340 H   0  0  0  0  0  0  0  0  0  0  0  0
    4.1970   -3.7640    3.4620 H   0  0  0  0  0  0  0  0  0  0  0  0
    4.2530   -2.3620    1.2750 H   0  0  0  0  0  0  0  0  0  0  0  0
    3.6080   -4.1910   -0.0860 H   0  0  0  0  0  0  0  0  0  0  0  0
    2.4330   -2.8710   -0.2210 H   0  0  0  0  0  0  0  0  0  0  0  0
    0.9710   -5.3360   -0.3250 H   0  0  0  0  0  0  0  0  0  0  0  0
    0.0560    3.6650   -2.9690 N   0  0  0  0  0  0  0  0  0  0  0  0
   -0.3400    3.1290   -1.7080 C   0  0  0  0  0  0  0  0  0  0  0  0
   -1.5850    2.8910   -1.4710 N   0  0  0  0  0  0  0  0  0  0  0  0
    0.5940    2.8360   -0.6780 N   0  0  0  0  0  0  0  0  0  0  0  0
    0.2410    2.0710    0.5020 C   0  0  0  0  0  0  0  0  0  0  0  0
    1.4340    1.9460    1.3710 C   0  0  0  0  0  0  0  0  0  0  0  0
    1.2850    1.1990    2.6330 C   0  0  0  0  0  0  0  0  0  0  0  0
    0.8770   -0.2210    2.5710 C   0  0  2  0  0  0  0  0  0  0  0  0
    1.7760   -1.0810    1.8350 N   0  0  0  0  0  0  0  0  0  0  0  0
   -0.5400   -0.3960    2.1850 C   0  0  0  0  0  0  0  0  0  0  0  0
   -1.3790    0.3330    2.7760 O   0  0  0  0  0  0  0  0  0  0  0  0
    0.5850    3.1120   -3.6680 H   0  0  0  0  0  0  0  0  0  0  0  0
   -0.2230    4.6680   -3.1540 H   0  0  0  0  0  0  0  0  0  0  0  0
   -1.9240    2.5070   -0.5830 H   0  0  0  0  0  0  0  0  0  0  0  0
    1.5620    3.1980   -0.7990 H   0  0  0  0  0  0  0  0  0  0  0  0
   -0.5750    2.6410    1.0070 H   0  0  0  0  0  0  0  0  0  0  0  0
   -0.1800    1.1290    0.1370 H   0  0  0  0  0  0  0  0  0  0  0  0
    2.2830    1.5890    0.7370 H   0  0  0  0  0  0  0  0  0  0  0  0
    1.7410    2.9970    1.6550 H   0  0  0  0  0  0  0  0  0  0  0  0
    2.2850    1.2380    3.1580 H   0  0  0  0  0  0  0  0  0  0  0  0
    0.5940    1.7280    3.3190 H   0  0  0  0  0  0  0  0  0  0  0  0
    0.9060   -0.5850    3.6480 H   0  0  0  0  0  0  0  0  0  0  0  0
    1.9200   -0.9390    0.8030 H   0  0  0  0  0  0  0  0  0  0  0  0
   -2.0100   -1.8060   -1.5090 C   0  0  0  0  0  0  0  0  0  0  0  0
   -2.7020   -0.9520   -0.4950 C   0  0  0  0  0  0  0  0  0  0  0  0
   -4.1930   -1.0290   -0.7170 C   0  0  0  0  0  0  0  0  0  0  0  0
   -2.4260   -1.3740    0.9360 C   0  0  2  0  0  0  0  0  0  0  0  0
   -1.0000   -1.2990    1.2250 N   0  0  0  0  0  0  0  0  0  0  0  0
   -2.9760   -2.7020    1.2400 C   0  0  0  0  0  0  0  0  0  0  0  0
   -2.2340   -3.5990    1.6830 O   0  0  0  0  0  0  0  0  0  0  0  0
   -4.3110   -2.9580    1.0360 O   0  0  0  0  0  0  0  0  0  0  0  0
   -2.6890   -1.9440   -2.3780 H   0  0  0  0  0  0  0  0  0  0  0  0
   -1.8070   -2.7990   -1.0780 H   0  0  0  0  0  0  0  0  0  0  0  0
   -1.0870   -1.2750   -1.8240 H   0  0  0  0  0  0  0  0  0  0  0  0
   -2.3820    0.1080   -0.5850 H   0  0  0  0  0  0  0  0  0  0  0  0
   -4.7560   -0.8230    0.2150 H   0  0  0  0  0  0  0  0  0  0  0  0
   -4.5290   -2.0190   -1.0860 H   0  0  0  0  0  0  0  0  0  0  0  0
   -4.4800   -0.2200   -1.4450 H   0  0  0  0  0  0  0  0  0  0  0  0
   -2.9740   -0.6440    1.5730 H   0  0  0  0  0  0  0  0  0  0  0  0
   -0.3300   -1.9100    0.7250 H   0  0  0  0  0  0  0  0  0  0  0  0
  1  8  1  0  0  0  0
  2  9  1  6  0  0  0
  2  5  1  0  0  0  0
  2  1  1  0  0  0  0
  3  4  1  0  0  0  0
  3  2  1  0  0  0  0
  5  6  2  0  0  0  0
  7  1  1  0  0  0  0
 10  3  1  0  0  0  0
 11  3  1  0  0  0  0
 12  4  1  0  0  0  0
 13 14  1  0  0  0  0
 14 15  2  0  0  0  0
 14 16  1  0  0  0  0
 15 26  1  0  0  0  0
 16 17  1  0  0  0  0
 17 28  1  0  0  0  0
 17 18  1  0  0  0  0
 18 31  1  0  0  0  0
 18 19  1  0  0  0  0
 19 32  1  0  0  0  0
 19 33  1  0  0  0  0
 20 19  1  0  0  0  0
 20 34  1  1  0  0  0
 21  5  1  0  0  0  0
 21 20  1  0  0  0  0
 22 20  1  0  0  0  0
 22 23  2  0  0  0  0
 24 13  1  0  0  0  0
 25 13  1  0  0  0  0
 27 16  1  0  0  0  0
 29 17  1  0  0  0  0
 30 18  1  0  0  0  0
 35 21  1  0  0  0  0
 36 45  1  0  0  0  0
 36 37  1  0  0  0  0
 37 39  1  0  0  0  0
 38 37  1  0  0  0  0
 38 48  1  0  0  0  0
 39 40  1  0  0  0  0
 39 41  1  0  0  0  0
 39 51  1  1  0  0  0
 40 22  1  0  0  0  0
 41 42  1  0  0  0  0
 43 41  2  0  0  0  0
 44 36  1  0  0  0  0
 46 36  1  0  0  0  0
 47 37  1  0  0  0  0
 49 38  1  0  0  0  0
 50 38  1  0  0  0  0
 52 40  1  0  0  0  0
M  END
$$$$
