CRW.pdb
 OpenBabel07022418263D

 60 61  0  0  1  0  0  0  0  0999 V2000
   -0.1560   -0.8200    6.0450 N   0  0  0  0  0  0  0  0  0  0  0  0
    0.3680   -0.5760    4.6790 C   0  0  1  0  0  0  0  0  0  0  0  0
    0.6150   -1.9910    4.1390 C   0  0  0  0  0  0  0  0  0  0  0  0
    1.2690   -1.9220    2.4790 S   0  0  0  0  0  0  0  0  0  0  0  0
   -0.6940    0.0900    3.8990 C   0  0  0  0  0  0  0  0  0  0  0  0
   -1.8210    0.2180    4.4000 O   0  0  0  0  0  0  0  0  0  0  0  0
   -0.9040   -1.5590    5.8970 H   0  0  0  0  0  0  0  0  0  0  0  0
   -0.6390    0.0620    6.2970 H   0  0  0  0  0  0  0  0  0  0  0  0
    1.3130   -0.0370    4.7180 H   0  0  0  0  0  0  0  0  0  0  0  0
   -0.3720   -2.5340    4.1560 H   0  0  0  0  0  0  0  0  0  0  0  0
    1.2780   -2.5520    4.8190 H   0  0  0  0  0  0  0  0  0  0  0  0
    2.4820   -1.2020    2.4780 H   0  0  0  0  0  0  0  0  0  0  0  0
    2.7480    0.3610   -0.0860 N   0  0  0  0  0  0  0  0  0  0  0  0
    2.0860    1.5770    0.2120 C   0  0  0  0  0  0  0  0  0  0  0  0
    2.5970    2.4220    1.0610 N   0  0  0  0  0  0  0  0  0  0  0  0
    0.8370    1.9550   -0.3870 N   0  0  0  0  0  0  0  0  0  0  0  0
    0.2740    3.2280   -0.0870 C   0  0  0  0  0  0  0  0  0  0  0  0
   -0.2500    3.4610    1.2690 C   0  0  0  0  0  0  0  0  0  0  0  0
   -1.4290    2.7430    1.7520 C   0  0  0  0  0  0  0  0  0  0  0  0
   -1.4680    1.2500    1.8000 C   0  0  2  0  0  0  0  0  0  0  0  0
   -0.4840    0.6010    2.5860 N   0  0  0  0  0  0  0  0  0  0  0  0
   -1.9010    0.6190    0.5520 C   0  0  0  0  0  0  0  0  0  0  0  0
   -2.7740    1.2910   -0.0910 O   0  0  0  0  0  0  0  0  0  0  0  0
    3.7340    0.3740   -0.4670 H   0  0  0  0  0  0  0  0  0  0  0  0
    2.3330   -0.5850    0.0430 H   0  0  0  0  0  0  0  0  0  0  0  0
    3.4920    2.1870    1.5110 H   0  0  0  0  0  0  0  0  0  0  0  0
    0.3860    1.2950   -1.0260 H   0  0  0  0  0  0  0  0  0  0  0  0
    1.0680    3.9860   -0.3810 H   0  0  0  0  0  0  0  0  0  0  0  0
   -0.5630    3.4940   -0.8120 H   0  0  0  0  0  0  0  0  0  0  0  0
   -0.5200    4.5750    1.3040 H   0  0  0  0  0  0  0  0  0  0  0  0
    0.5630    3.4200    2.0560 H   0  0  0  0  0  0  0  0  0  0  0  0
   -2.3780    3.0580    1.2010 H   0  0  0  0  0  0  0  0  0  0  0  0
   -1.7010    3.0810    2.8220 H   0  0  0  0  0  0  0  0  0  0  0  0
   -2.4470    1.0770    2.4760 H   0  0  0  0  0  0  0  0  0  0  0  0
    0.4790    0.4660    2.2120 H   0  0  0  0  0  0  0  0  0  0  0  0
   -1.5140   -0.5870   -0.0260 N   0  0  0  0  0  0  0  0  0  0  0  0
   -2.0250   -1.1370   -1.2620 C   0  0  1  0  0  0  0  0  0  0  0  0
   -1.1510   -1.4090   -2.3570 C   0  0  0  0  0  0  0  0  0  0  0  0
   -0.0180   -2.2840   -2.3690 C   0  0  0  0  0  0  0  0  0  0  0  0
    1.2920   -1.7600   -2.3620 C   0  0  0  0  0  0  0  0  0  0  0  0
    2.1500   -2.7690   -2.3800 N   0  0  0  0  0  0  0  0  0  0  0  0
    1.5240   -3.9450   -2.3990 C   0  0  0  0  0  0  0  0  0  0  0  0
    1.9380   -5.2620   -2.4210 C   0  0  0  0  0  0  0  0  0  0  0  0
    1.0030   -6.3010   -2.4360 C   0  0  0  0  0  0  0  0  0  0  0  0
   -0.3460   -5.9610   -2.4290 C   0  0  0  0  0  0  0  0  0  0  0  0
   -0.7620   -4.6470   -2.4080 C   0  0  0  0  0  0  0  0  0  0  0  0
    0.1630   -3.6360   -2.3920 C   0  0  0  0  0  0  0  0  0  0  0  0
   -3.1290   -2.1310   -0.9930 C   0  0  0  0  0  0  0  0  0  0  0  0
   -3.7040   -2.6170   -1.9750 O   0  0  0  0  0  0  0  0  0  0  0  0
   -3.4810   -2.4780    0.2860 O   0  0  0  0  0  0  0  0  0  0  0  0
   -0.7890   -1.1440    0.4830 H   0  0  0  0  0  0  0  0  0  0  0  0
   -2.6950   -0.2690   -1.6170 H   0  0  0  0  0  0  0  0  0  0  0  0
   -0.8680   -0.4230   -2.8480 H   0  0  0  0  0  0  0  0  0  0  0  0
   -1.8200   -1.8310   -3.1940 H   0  0  0  0  0  0  0  0  0  0  0  0
    1.5910   -0.7210   -2.3510 H   0  0  0  0  0  0  0  0  0  0  0  0
    3.2130   -2.6860   -2.3810 H   0  0  0  0  0  0  0  0  0  0  0  0
    2.9850   -5.5300   -2.4270 H   0  0  0  0  0  0  0  0  0  0  0  0
    1.3190   -7.3340   -2.4520 H   0  0  0  0  0  0  0  0  0  0  0  0
   -1.0460   -6.7930   -2.4450 H   0  0  0  0  0  0  0  0  0  0  0  0
   -1.8120   -4.4480   -2.4060 H   0  0  0  0  0  0  0  0  0  0  0  0
  1  8  1  0  0  0  0
  2  9  1  1  0  0  0
  2  1  1  0  0  0  0
  3 10  1  0  0  0  0
  3  2  1  0  0  0  0
  3 11  1  0  0  0  0
  4  3  1  0  0  0  0
  5  6  2  0  0  0  0
  5  2  1  0  0  0  0
  7  1  1  0  0  0  0
 12  4  1  0  0  0  0
 13 25  1  0  0  0  0
 13 14  1  0  0  0  0
 14 15  2  0  0  0  0
 15 26  1  0  0  0  0
 16 17  1  0  0  0  0
 16 14  1  0  0  0  0
 17 18  1  0  0  0  0
 18 30  1  0  0  0  0
 18 19  1  0  0  0  0
 18 31  1  0  0  0  0
 19 20  1  0  0  0  0
 19 33  1  0  0  0  0
 20 34  1  1  0  0  0
 20 21  1  0  0  0  0
 21  5  1  0  0  0  0
 22 20  1  0  0  0  0
 23 22  2  0  0  0  0
 24 13  1  0  0  0  0
 27 16  1  0  0  0  0
 28 17  1  0  0  0  0
 29 17  1  0  0  0  0
 32 19  1  0  0  0  0
 35 21  1  0  0  0  0
 36 51  1  0  0  0  0
 36 22  1  0  0  0  0
 37 52  1  6  0  0  0
 37 48  1  0  0  0  0
 37 36  1  0  0  0  0
 38 37  1  0  0  0  0
 39 40  2  0  0  0  0
 39 38  1  0  0  0  0
 40 55  1  0  0  0  0
 41 40  1  0  0  0  0
 42 47  1  0  0  0  0
 42 41  1  0  0  0  0
 43 42  2  0  0  0  0
 44 45  2  0  0  0  0
 44 43  1  0  0  0  0
 45 46  1  0  0  0  0
 46 60  1  0  0  0  0
 46 47  2  0  0  0  0
 47 39  1  0  0  0  0
 48 50  1  0  0  0  0
 49 48  2  0  0  0  0
 53 38  1  0  0  0  0
 54 38  1  0  0  0  0
 56 41  1  0  0  0  0
 57 43  1  0  0  0  0
 58 44  1  0  0  0  0
 59 45  1  0  0  0  0
M  END
$$$$
