CRY.pdb
 OpenBabel07022418263D

 57 57  0  0  1  0  0  0  0  0999 V2000
    1.2560   -0.9820    5.4580 N   0  0  0  0  0  0  0  0  0  0  0  0
    0.1070   -0.1760    5.0990 C   0  0  1  0  0  0  0  0  0  0  0  0
    0.3050    1.1740    5.7510 C   0  0  0  0  0  0  0  0  0  0  0  0
    1.8090    1.9870    5.1970 S   0  0  0  0  0  0  0  0  0  0  0  0
    0.0540   -0.0750    3.6200 C   0  0  0  0  0  0  0  0  0  0  0  0
    0.9370   -0.6350    2.9430 O   0  0  0  0  0  0  0  0  0  0  0  0
    1.1700   -1.3660    6.4250 H   0  0  0  0  0  0  0  0  0  0  0  0
    2.1590   -0.5520    5.2380 H   0  0  0  0  0  0  0  0  0  0  0  0
   -0.8020   -0.6550    5.4570 H   0  0  0  0  0  0  0  0  0  0  0  0
    0.4010    0.9930    6.8450 H   0  0  0  0  0  0  0  0  0  0  0  0
   -0.5320    1.8570    5.6060 H   0  0  0  0  0  0  0  0  0  0  0  0
    1.6290    3.3040    4.7930 H   0  0  0  0  0  0  0  0  0  0  0  0
    4.8280    2.7870    1.3380 N   0  0  0  0  0  0  0  0  0  0  0  0
    3.9310    3.0130    0.2600 C   0  0  0  0  0  0  0  0  0  0  0  0
    4.1860    3.8690   -0.6990 N   0  0  0  0  0  0  0  0  0  0  0  0
    2.6820    2.3120    0.1580 N   0  0  0  0  0  0  0  0  0  0  0  0
    1.5190    2.9260   -0.4320 C   0  0  0  0  0  0  0  0  0  0  0  0
    0.3590    1.9200   -0.3420 C   0  0  0  0  0  0  0  0  0  0  0  0
    0.1010    1.6310    1.0720 C   0  0  0  0  0  0  0  0  0  0  0  0
   -0.9880    0.7140    1.4550 C   0  0  2  0  0  0  0  0  0  0  0  0
   -0.9620    0.6360    2.9260 N   0  0  0  0  0  0  0  0  0  0  0  0
   -1.0430   -0.6010    0.8290 C   0  0  0  0  0  0  0  0  0  0  0  0
   -0.9450   -1.6830    1.5110 O   0  0  0  0  0  0  0  0  0  0  0  0
    4.6300    3.1480    2.2830 H   0  0  0  0  0  0  0  0  0  0  0  0
    5.7110    2.2500    1.1970 H   0  0  0  0  0  0  0  0  0  0  0  0
    5.0890    4.3960   -0.6490 H   0  0  0  0  0  0  0  0  0  0  0  0
    2.6710    1.3520    0.5240 H   0  0  0  0  0  0  0  0  0  0  0  0
    1.2460    3.8850    0.0380 H   0  0  0  0  0  0  0  0  0  0  0  0
    1.7190    3.0280   -1.5270 H   0  0  0  0  0  0  0  0  0  0  0  0
    0.7350    1.0570   -0.9370 H   0  0  0  0  0  0  0  0  0  0  0  0
   -0.4960    2.3880   -0.8230 H   0  0  0  0  0  0  0  0  0  0  0  0
   -0.1100    2.6210    1.5880 H   0  0  0  0  0  0  0  0  0  0  0  0
    1.0250    1.2790    1.6210 H   0  0  0  0  0  0  0  0  0  0  0  0
   -1.9750    1.2130    1.2080 H   0  0  0  0  0  0  0  0  0  0  0  0
   -1.6880    1.0980    3.5150 H   0  0  0  0  0  0  0  0  0  0  0  0
   -2.7020   -7.7480   -3.8550 O   0  0  0  0  0  0  0  0  0  0  0  0
   -2.6700   -6.4430   -3.3450 C   0  0  0  0  0  0  0  0  0  0  0  0
   -2.3470   -5.3700   -4.1460 C   0  0  0  0  0  0  0  0  0  0  0  0
   -2.3190   -4.0900   -3.6340 C   0  0  0  0  0  0  0  0  0  0  0  0
   -2.6020   -3.7960   -2.3150 C   0  0  0  0  0  0  0  0  0  0  0  0
   -2.5640   -2.4290   -1.7560 C   0  0  0  0  0  0  0  0  0  0  0  0
   -1.2500   -2.1590   -1.1260 C   0  0  2  0  0  0  0  0  0  0  0  0
   -1.2090   -0.7880   -0.5680 N   0  0  0  0  0  0  0  0  0  0  0  0
   -0.1630   -2.3200   -2.1120 C   0  0  0  0  0  0  0  0  0  0  0  0
    0.5340   -1.2750   -2.3720 O   0  0  0  0  0  0  0  0  0  0  0  0
   -2.9280   -4.8990   -1.5140 C   0  0  0  0  0  0  0  0  0  0  0  0
   -2.9580   -6.1790   -2.0230 C   0  0  0  0  0  0  0  0  0  0  0  0
    0.1670   -3.4830   -2.7670 O   0  0  0  0  0  0  0  0  0  0  0  0
   -1.9730   -8.1230   -4.4290 H   0  0  0  0  0  0  0  0  0  0  0  0
   -2.1220   -5.5940   -5.1860 H   0  0  0  0  0  0  0  0  0  0  0  0
   -2.0690   -3.2680   -4.2930 H   0  0  0  0  0  0  0  0  0  0  0  0
   -3.4300   -2.2590   -1.0600 H   0  0  0  0  0  0  0  0  0  0  0  0
   -2.6570   -1.7400   -2.6430 H   0  0  0  0  0  0  0  0  0  0  0  0
   -1.1180   -2.8960   -0.2970 H   0  0  0  0  0  0  0  0  0  0  0  0
   -1.3190    0.0270   -1.2170 H   0  0  0  0  0  0  0  0  0  0  0  0
   -3.1560   -4.6900   -0.4670 H   0  0  0  0  0  0  0  0  0  0  0  0
   -3.2120   -7.0180   -1.3880 H   0  0  0  0  0  0  0  0  0  0  0  0
  1  7  1  0  0  0  0
  2  9  1  1  0  0  0
  2  1  1  0  0  0  0
  2  3  1  0  0  0  0
  3 10  1  0  0  0  0
  4  3  1  0  0  0  0
  5  2  1  0  0  0  0
  6  5  2  0  0  0  0
  8  1  1  0  0  0  0
 11  3  1  0  0  0  0
 12  4  1  0  0  0  0
 13 24  1  0  0  0  0
 14 13  1  0  0  0  0
 15 26  1  0  0  0  0
 15 14  2  0  0  0  0
 16 14  1  0  0  0  0
 16 27  1  0  0  0  0
 17 18  1  0  0  0  0
 17 28  1  0  0  0  0
 17 16  1  0  0  0  0
 18 19  1  0  0  0  0
 19 20  1  0  0  0  0
 19 32  1  0  0  0  0
 19 33  1  0  0  0  0
 20 34  1  6  0  0  0
 20 21  1  0  0  0  0
 21 35  1  0  0  0  0
 21  5  1  0  0  0  0
 22 20  1  0  0  0  0
 22 23  2  0  0  0  0
 25 13  1  0  0  0  0
 29 17  1  0  0  0  0
 30 18  1  0  0  0  0
 31 18  1  0  0  0  0
 36 37  1  0  0  0  0
 37 47  1  0  0  0  0
 38 39  1  0  0  0  0
 38 37  2  0  0  0  0
 39 40  2  0  0  0  0
 40 41  1  0  0  0  0
 40 46  1  0  0  0  0
 41 42  1  0  0  0  0
 41 52  1  0  0  0  0
 42 43  1  0  0  0  0
 42 54  1  1  0  0  0
 43 22  1  0  0  0  0
 44 42  1  0  0  0  0
 45 44  1  0  0  0  0
 46 56  1  0  0  0  0
 47 46  2  0  0  0  0
 47 57  1  0  0  0  0
 48 44  2  0  0  0  0
 49 36  1  0  0  0  0
 50 38  1  0  0  0  0
 51 39  1  0  0  0  0
 53 41  1  0  0  0  0
 55 43  1  0  0  0  0
M  END
$$$$
