CSC.pdb
 OpenBabel07022418293D

 35 34  0  0  1  0  0  0  0  0999 V2000
   -0.8940   -3.8720    3.0960 N   0  0  0  0  0  0  0  0  0  0  0  0
   -0.2250   -3.3230    1.9350 C   0  0  1  0  0  0  0  0  0  0  0  0
   -1.1410   -3.2660    0.7360 C   0  0  0  0  0  0  0  0  0  0  0  0
   -1.7120   -4.9380    0.3250 S   0  0  0  0  0  0  0  0  0  0  0  0
    0.4220   -2.0320    2.2220 C   0  0  0  0  0  0  0  0  0  0  0  0
    0.3080   -1.5910    3.4160 O   0  0  0  0  0  0  0  0  0  0  0  0
   -0.3870   -3.6050    3.9700 H   0  0  0  0  0  0  0  0  0  0  0  0
   -0.8540   -4.9140    3.0350 H   0  0  0  0  0  0  0  0  0  0  0  0
    0.5950   -4.0430    1.6730 H   0  0  0  0  0  0  0  0  0  0  0  0
   -0.6060   -2.8860   -0.1570 H   0  0  0  0  0  0  0  0  0  0  0  0
   -2.0170   -2.6310    0.8890 H   0  0  0  0  0  0  0  0  0  0  0  0
   -2.9150   -4.9260   -0.3830 H   0  0  0  0  0  0  0  0  0  0  0  0
    3.6640   -0.4100    0.2510 O   0  0  0  0  0  0  0  0  0  0  0  0
    3.2450   -0.1130    1.5280 C   0  0  0  0  0  0  0  0  0  0  0  0
    1.7430   -0.0190    1.6530 C   0  0  2  0  0  0  0  0  0  0  0  0
    1.1440   -1.2690    1.2850 N   0  0  0  0  0  0  0  0  0  0  0  0
    1.1920    1.1190    0.8600 C   0  0  0  0  0  0  0  0  0  0  0  0
    1.6300    2.2780    1.0800 O   0  0  0  0  0  0  0  0  0  0  0  0
    2.8970   -0.4960   -0.3830 H   0  0  0  0  0  0  0  0  0  0  0  0
    3.5670   -0.9420    2.1920 H   0  0  0  0  0  0  0  0  0  0  0  0
    3.7460    0.8000    1.8850 H   0  0  0  0  0  0  0  0  0  0  0  0
    1.5270    0.1740    2.7170 H   0  0  0  0  0  0  0  0  0  0  0  0
    1.2490   -1.6060    0.3170 H   0  0  0  0  0  0  0  0  0  0  0  0
    0.2020    0.9730   -0.1260 N   0  0  0  0  0  0  0  0  0  0  0  0
   -0.3460    2.0640   -0.9050 C   0  0  1  0  0  0  0  0  0  0  0  0
   -0.1520    1.8670   -2.3830 C   0  0  0  0  0  0  0  0  0  0  0  0
    1.6280    1.7570   -2.7070 S   0  0  0  0  0  0  0  0  0  0  0  0
   -1.7990    2.1750   -0.5630 C   0  0  0  0  0  0  0  0  0  0  0  0
   -2.5380    3.0490   -1.0960 O   0  0  0  0  0  0  0  0  0  0  0  0
   -2.4120    1.3290    0.3550 O   0  0  0  0  0  0  0  0  0  0  0  0
   -0.1690    0.0180   -0.3180 H   0  0  0  0  0  0  0  0  0  0  0  0
    0.1070    3.0400   -0.6350 H   0  0  0  0  0  0  0  0  0  0  0  0
   -0.5070    2.7960   -2.8830 H   0  0  0  0  0  0  0  0  0  0  0  0
   -0.7050    1.0010   -2.7910 H   0  0  0  0  0  0  0  0  0  0  0  0
    2.1450    3.0620   -2.7370 H   0  0  0  0  0  0  0  0  0  0  0  0
  1  7  1  0  0  0  0
  2  9  1  6  0  0  0
  2  5  1  0  0  0  0
  2  1  1  0  0  0  0
  3 11  1  0  0  0  0
  3  2  1  0  0  0  0
  4  3  1  0  0  0  0
  5  6  2  0  0  0  0
  8  1  1  0  0  0  0
 10  3  1  0  0  0  0
 12  4  1  0  0  0  0
 13 14  1  0  0  0  0
 14 15  1  0  0  0  0
 14 21  1  0  0  0  0
 14 20  1  0  0  0  0
 15 22  1  1  0  0  0
 16 15  1  0  0  0  0
 16  5  1  0  0  0  0
 17 18  2  0  0  0  0
 17 15  1  0  0  0  0
 19 13  1  0  0  0  0
 23 16  1  0  0  0  0
 24 17  1  0  0  0  0
 25 32  1  1  0  0  0
 25 28  1  0  0  0  0
 25 24  1  0  0  0  0
 26 25  1  0  0  0  0
 27 26  1  0  0  0  0
 28 30  1  0  0  0  0
 29 28  2  0  0  0  0
 31 24  1  0  0  0  0
 33 26  1  0  0  0  0
 34 26  1  0  0  0  0
 35 27  1  0  0  0  0
M  END
$$$$
