CSI.pdb
 OpenBabel07022418293D

 43 42  0  0  1  0  0  0  0  0999 V2000
    1.2190   -5.6090    2.8740 N   0  0  0  0  0  0  0  0  0  0  0  0
    0.3620   -4.9990    1.8350 C   0  0  1  0  0  0  0  0  0  0  0  0
   -0.9830   -4.8350    2.5230 C   0  0  0  0  0  0  0  0  0  0  0  0
   -2.1670   -4.1060    1.4000 S   0  0  0  0  0  0  0  0  0  0  0  0
    0.9540   -3.6920    1.5110 C   0  0  0  0  0  0  0  0  0  0  0  0
    1.9430   -3.2400    2.1790 O   0  0  0  0  0  0  0  0  0  0  0  0
    0.9040   -5.3370    3.8250 H   0  0  0  0  0  0  0  0  0  0  0  0
    2.2230   -5.3770    2.7030 H   0  0  0  0  0  0  0  0  0  0  0  0
    0.3090   -5.6980    0.9790 H   0  0  0  0  0  0  0  0  0  0  0  0
   -1.3530   -5.8480    2.8280 H   0  0  0  0  0  0  0  0  0  0  0  0
   -0.8210   -4.2750    3.4410 H   0  0  0  0  0  0  0  0  0  0  0  0
   -2.1830   -4.7760    0.1720 H   0  0  0  0  0  0  0  0  0  0  0  0
    2.5780   -2.7200   -1.2180 O   0  0  0  0  0  0  0  0  0  0  0  0
    1.6390   -1.6690   -1.2230 C   0  0  0  0  0  0  0  0  0  0  0  0
    1.0710   -1.5980    0.1690 C   0  0  2  0  0  0  0  0  0  0  0  0
    0.4430   -2.8940    0.4460 N   0  0  0  0  0  0  0  0  0  0  0  0
    0.0430   -0.5100    0.2490 C   0  0  0  0  0  0  0  0  0  0  0  0
   -1.1500   -0.7920    0.5220 O   0  0  0  0  0  0  0  0  0  0  0  0
    3.4970   -2.3800   -1.0980 H   0  0  0  0  0  0  0  0  0  0  0  0
    0.8300   -1.9930   -1.9010 H   0  0  0  0  0  0  0  0  0  0  0  0
    2.1210   -0.7270   -1.5290 H   0  0  0  0  0  0  0  0  0  0  0  0
    1.8950   -1.4200    0.8670 H   0  0  0  0  0  0  0  0  0  0  0  0
   -0.3560   -3.2470   -0.1120 H   0  0  0  0  0  0  0  0  0  0  0  0
    1.2770    4.3390   -0.0530 C   0  0  0  0  0  0  0  0  0  0  0  0
    0.9810    3.5610    1.1930 C   0  0  0  0  0  0  0  0  0  0  0  0
   -0.3370    2.8730    1.2220 C   0  0  2  0  0  0  0  0  0  0  0  0
   -0.4420    2.1520    2.5640 C   0  0  0  0  0  0  0  0  0  0  0  0
   -0.6020    1.9250    0.0960 C   0  0  2  0  0  0  0  0  0  0  0  0
    0.3710    0.8490    0.0250 N   0  0  0  0  0  0  0  0  0  0  0  0
   -0.8170    2.5690   -1.2090 C   0  0  0  0  0  0  0  0  0  0  0  0
   -1.6150    3.5240   -1.3880 O   0  0  0  0  0  0  0  0  0  0  0  0
   -0.1290    2.1480   -2.3630 O   0  0  0  0  0  0  0  0  0  0  0  0
    1.5820    3.6260   -0.8320 H   0  0  0  0  0  0  0  0  0  0  0  0
    0.4250    4.9800   -0.3100 H   0  0  0  0  0  0  0  0  0  0  0  0
    2.1500    5.0370    0.1380 H   0  0  0  0  0  0  0  0  0  0  0  0
    1.8070    2.8500    1.4510 H   0  0  0  0  0  0  0  0  0  0  0  0
    0.9990    4.3090    2.0380 H   0  0  0  0  0  0  0  0  0  0  0  0
   -1.1560    3.6220    1.2230 H   0  0  0  0  0  0  0  0  0  0  0  0
   -1.4760    1.8760    2.8080 H   0  0  0  0  0  0  0  0  0  0  0  0
   -0.0360    2.8670    3.3340 H   0  0  0  0  0  0  0  0  0  0  0  0
    0.2460    1.2720    2.5960 H   0  0  0  0  0  0  0  0  0  0  0  0
   -1.5930    1.4270    0.3540 H   0  0  0  0  0  0  0  0  0  0  0  0
    1.3660    1.0660   -0.2000 H   0  0  0  0  0  0  0  0  0  0  0  0
  1  7  1  0  0  0  0
  2  9  1  6  0  0  0
  2  3  1  0  0  0  0
  2  1  1  0  0  0  0
  3 10  1  0  0  0  0
  3 11  1  0  0  0  0
  4  3  1  0  0  0  0
  5  2  1  0  0  0  0
  5  6  2  0  0  0  0
  8  1  1  0  0  0  0
 12  4  1  0  0  0  0
 13 19  1  0  0  0  0
 14 13  1  0  0  0  0
 14 15  1  0  0  0  0
 15 17  1  0  0  0  0
 15 16  1  0  0  0  0
 15 22  1  1  0  0  0
 16  5  1  0  0  0  0
 17 18  2  0  0  0  0
 20 14  1  0  0  0  0
 21 14  1  0  0  0  0
 23 16  1  0  0  0  0
 24 35  1  0  0  0  0
 24 25  1  0  0  0  0
 25 26  1  0  0  0  0
 25 36  1  0  0  0  0
 25 37  1  0  0  0  0
 26 38  1  6  0  0  0
 26 27  1  0  0  0  0
 27 41  1  0  0  0  0
 27 39  1  0  0  0  0
 27 40  1  0  0  0  0
 28 42  1  1  0  0  0
 28 26  1  0  0  0  0
 29 28  1  0  0  0  0
 29 17  1  0  0  0  0
 30 28  1  0  0  0  0
 31 30  1  0  0  0  0
 32 30  2  0  0  0  0
 33 24  1  0  0  0  0
 34 24  1  0  0  0  0
 43 29  1  0  0  0  0
M  END
$$$$
