CSM.pdb
 OpenBabel07022418293D

 41 40  0  0  1  0  0  0  0  0999 V2000
   -2.0180   -4.5100    3.0420 N   0  0  0  0  0  0  0  0  0  0  0  0
   -0.6060   -4.7100    2.9690 C   0  0  1  0  0  0  0  0  0  0  0  0
   -0.3760   -6.1030    2.4130 C   0  0  0  0  0  0  0  0  0  0  0  0
    1.3630   -6.5100    2.2590 S   0  0  0  0  0  0  0  0  0  0  0  0
    0.0830   -3.7620    2.0700 C   0  0  0  0  0  0  0  0  0  0  0  0
    1.3390   -3.8700    1.9500 O   0  0  0  0  0  0  0  0  0  0  0  0
   -2.5040   -4.5770    2.1260 H   0  0  0  0  0  0  0  0  0  0  0  0
   -2.3290   -3.6710    3.5350 H   0  0  0  0  0  0  0  0  0  0  0  0
   -0.2090   -4.6600    4.0160 H   0  0  0  0  0  0  0  0  0  0  0  0
   -0.9110   -6.8510    3.0490 H   0  0  0  0  0  0  0  0  0  0  0  0
   -0.8810   -6.1290    1.4210 H   0  0  0  0  0  0  0  0  0  0  0  0
    1.5020   -7.4750    1.2420 H   0  0  0  0  0  0  0  0  0  0  0  0
   -0.0120   -3.2190   -1.5110 O   0  0  0  0  0  0  0  0  0  0  0  0
   -0.2070   -1.9540   -0.9740 C   0  0  0  0  0  0  0  0  0  0  0  0
    0.1880   -1.8580    0.4780 C   0  0  2  0  0  0  0  0  0  0  0  0
   -0.5360   -2.7410    1.3290 N   0  0  0  0  0  0  0  0  0  0  0  0
   -0.0350   -0.4640    0.9090 C   0  0  0  0  0  0  0  0  0  0  0  0
   -0.7810   -0.2470    1.8980 O   0  0  0  0  0  0  0  0  0  0  0  0
    0.9230   -3.3810   -1.7780 H   0  0  0  0  0  0  0  0  0  0  0  0
   -1.2050   -1.5440   -1.1770 H   0  0  0  0  0  0  0  0  0  0  0  0
    0.5100   -1.2790   -1.5290 H   0  0  0  0  0  0  0  0  0  0  0  0
    1.2870   -2.1220    0.5150 H   0  0  0  0  0  0  0  0  0  0  0  0
   -1.5710   -2.6340    1.4130 H   0  0  0  0  0  0  0  0  0  0  0  0
    2.2250    5.3600   -0.8560 C   0  0  0  0  0  0  0  0  0  0  0  0
    2.3470    3.6110   -1.2300 S   0  0  0  0  0  0  0  0  0  0  0  0
    2.6960    2.6010    0.2040 C   0  0  0  0  0  0  0  0  0  0  0  0
    1.6090    2.5490    1.2250 C   0  0  0  0  0  0  0  0  0  0  0  0
    0.3080    1.9920    0.7150 C   0  0  2  0  0  0  0  0  0  0  0  0
    0.5570    0.6540    0.2560 N   0  0  0  0  0  0  0  0  0  0  0  0
   -0.3230    2.8190   -0.3360 C   0  0  0  0  0  0  0  0  0  0  0  0
   -0.5420    2.2930   -1.4550 O   0  0  0  0  0  0  0  0  0  0  0  0
   -0.6850    4.1390   -0.1490 O   0  0  0  0  0  0  0  0  0  0  0  0
    3.2270    5.8340   -0.7540 H   0  0  0  0  0  0  0  0  0  0  0  0
    1.6440    5.5880    0.0560 H   0  0  0  0  0  0  0  0  0  0  0  0
    1.7220    5.8620   -1.7090 H   0  0  0  0  0  0  0  0  0  0  0  0
    2.8410    1.5430   -0.1650 H   0  0  0  0  0  0  0  0  0  0  0  0
    3.6550    2.8750    0.7070 H   0  0  0  0  0  0  0  0  0  0  0  0
    1.4380    3.5800    1.6470 H   0  0  0  0  0  0  0  0  0  0  0  0
    1.9790    1.9510    2.0800 H   0  0  0  0  0  0  0  0  0  0  0  0
   -0.3810    1.9510    1.5900 H   0  0  0  0  0  0  0  0  0  0  0  0
    1.1650    0.4510   -0.5520 H   0  0  0  0  0  0  0  0  0  0  0  0
  1  8  1  0  0  0  0
  2  1  1  0  0  0  0
  2  9  1  1  0  0  0
  3  2  1  0  0  0  0
  3 10  1  0  0  0  0
  4  3  1  0  0  0  0
  5  2  1  0  0  0  0
  6  5  2  0  0  0  0
  7  1  1  0  0  0  0
 11  3  1  0  0  0  0
 12  4  1  0  0  0  0
 13 14  1  0  0  0  0
 14 15  1  0  0  0  0
 15 22  1  1  0  0  0
 15 17  1  0  0  0  0
 15 16  1  0  0  0  0
 16 23  1  0  0  0  0
 16  5  1  0  0  0  0
 17 18  2  0  0  0  0
 19 13  1  0  0  0  0
 20 14  1  0  0  0  0
 21 14  1  0  0  0  0
 24 33  1  0  0  0  0
 24 34  1  0  0  0  0
 25 24  1  0  0  0  0
 25 26  1  0  0  0  0
 26 37  1  0  0  0  0
 26 27  1  0  0  0  0
 27 38  1  0  0  0  0
 27 39  1  0  0  0  0
 28 27  1  0  0  0  0
 28 40  1  1  0  0  0
 29 28  1  0  0  0  0
 29 17  1  0  0  0  0
 30 32  1  0  0  0  0
 30 28  1  0  0  0  0
 31 30  2  0  0  0  0
 35 24  1  0  0  0  0
 36 26  1  0  0  0  0
 41 29  1  0  0  0  0
M  END
$$$$
