CSP.pdb
 OpenBabel07022418293D

 38 38  0  0  1  0  0  0  0  0999 V2000
    1.0170   -4.1910    3.4390 N   0  0  0  0  0  0  0  0  0  0  0  0
    1.7140   -3.1160    2.6790 C   0  0  1  0  0  0  0  0  0  0  0  0
    1.9570   -3.6510    1.2950 C   0  0  0  0  0  0  0  0  0  0  0  0
    2.8380   -2.4890    0.2390 S   0  0  0  0  0  0  0  0  0  0  0  0
    0.8890   -1.9060    2.7620 C   0  0  0  0  0  0  0  0  0  0  0  0
   -0.2010   -1.9940    3.4390 O   0  0  0  0  0  0  0  0  0  0  0  0
    0.7280   -3.7320    4.3360 H   0  0  0  0  0  0  0  0  0  0  0  0
    0.1880   -4.5250    2.9240 H   0  0  0  0  0  0  0  0  0  0  0  0
    2.6940   -3.0100    3.2010 H   0  0  0  0  0  0  0  0  0  0  0  0
    0.9360   -3.7760    0.8230 H   0  0  0  0  0  0  0  0  0  0  0  0
    2.4750   -4.6360    1.3440 H   0  0  0  0  0  0  0  0  0  0  0  0
    2.3620   -2.5250   -1.1000 H   0  0  0  0  0  0  0  0  0  0  0  0
    1.9860    2.0740    2.4100 O   0  0  0  0  0  0  0  0  0  0  0  0
    0.9100    1.6000    3.1480 C   0  0  0  0  0  0  0  0  0  0  0  0
    0.2330    0.4390    2.3940 C   0  0  2  0  0  0  0  0  0  0  0  0
    1.1520   -0.6350    2.1840 N   0  0  0  0  0  0  0  0  0  0  0  0
   -0.4920    0.9870    1.2690 C   0  0  0  0  0  0  0  0  0  0  0  0
   -1.3480    1.9050    1.6000 O   0  0  0  0  0  0  0  0  0  0  0  0
    2.7880    1.5480    2.6800 H   0  0  0  0  0  0  0  0  0  0  0  0
    0.1270    2.3660    3.2900 H   0  0  0  0  0  0  0  0  0  0  0  0
    1.2110    1.2440    4.1520 H   0  0  0  0  0  0  0  0  0  0  0  0
   -0.5720    0.1140    3.1350 H   0  0  0  0  0  0  0  0  0  0  0  0
    2.0320   -0.5700    1.6410 H   0  0  0  0  0  0  0  0  0  0  0  0
   -0.4400    0.7090   -0.0990 N   0  0  0  0  0  0  0  0  0  0  0  0
    0.4530   -0.1990   -0.7690 C   0  0  0  0  0  0  0  0  0  0  0  0
    0.3490    0.1410   -2.2650 C   0  0  0  0  0  0  0  0  0  0  0  0
   -1.0990    0.5110   -2.3860 C   0  0  0  0  0  0  0  0  0  0  0  0
   -1.3170    1.2900   -1.0870 C   0  0  1  0  0  0  0  0  0  0  0  0
   -2.7540    1.1950   -0.7320 C   0  0  0  0  0  0  0  0  0  0  0  0
   -3.0890    0.5540    0.2800 O   0  0  0  0  0  0  0  0  0  0  0  0
   -3.7110    1.8080   -1.5110 O   0  0  0  0  0  0  0  0  0  0  0  0
    0.2070   -1.2550   -0.6450 H   0  0  0  0  0  0  0  0  0  0  0  0
    1.5250    0.0350   -0.5460 H   0  0  0  0  0  0  0  0  0  0  0  0
    0.6540   -0.7120   -2.8880 H   0  0  0  0  0  0  0  0  0  0  0  0
    0.9460    1.0580   -2.4680 H   0  0  0  0  0  0  0  0  0  0  0  0
   -1.2860    1.1880   -3.2330 H   0  0  0  0  0  0  0  0  0  0  0  0
   -1.7480   -0.3930   -2.4070 H   0  0  0  0  0  0  0  0  0  0  0  0
   -1.0210    2.3390   -1.3130 H   0  0  0  0  0  0  0  0  0  0  0  0
  1  7  1  0  0  0  0
  2  5  1  0  0  0  0
  2  9  1  1  0  0  0
  2  1  1  0  0  0  0
  3 11  1  0  0  0  0
  3  2  1  0  0  0  0
  4  3  1  0  0  0  0
  5  6  2  0  0  0  0
  8  1  1  0  0  0  0
 10  3  1  0  0  0  0
 12  4  1  0  0  0  0
 13 19  1  0  0  0  0
 13 14  1  0  0  0  0
 14 20  1  0  0  0  0
 14 21  1  0  0  0  0
 15 22  1  1  0  0  0
 15 14  1  0  0  0  0
 16 15  1  0  0  0  0
 16  5  1  0  0  0  0
 17 18  2  0  0  0  0
 17 15  1  0  0  0  0
 23 16  1  0  0  0  0
 24 17  1  0  0  0  0
 25 32  1  0  0  0  0
 25 33  1  0  0  0  0
 25 24  1  0  0  0  0
 26 25  1  0  0  0  0
 27 26  1  0  0  0  0
 27 28  1  0  0  0  0
 28 38  1  6  0  0  0
 28 29  1  0  0  0  0
 28 24  1  0  0  0  0
 29 30  1  0  0  0  0
 31 29  2  0  0  0  0
 34 26  1  0  0  0  0
 35 26  1  0  0  0  0
 36 27  1  0  0  0  0
 37 27  1  0  0  0  0
M  END
$$$$
