CSV.pdb
 OpenBabel07022418293D

 40 39  0  0  1  0  0  0  0  0999 V2000
    0.1350   -4.3700    3.7740 N   0  0  0  0  0  0  0  0  0  0  0  0
   -0.2050   -3.7230    2.4890 C   0  0  1  0  0  0  0  0  0  0  0  0
   -1.4400   -2.9370    2.7450 C   0  0  0  0  0  0  0  0  0  0  0  0
   -2.1010   -2.0460    1.3420 S   0  0  0  0  0  0  0  0  0  0  0  0
    0.9810   -2.9520    2.0850 C   0  0  0  0  0  0  0  0  0  0  0  0
    1.9980   -2.9490    2.8350 O   0  0  0  0  0  0  0  0  0  0  0  0
    0.4730   -3.6480    4.4580 H   0  0  0  0  0  0  0  0  0  0  0  0
    0.8640   -5.0890    3.5840 H   0  0  0  0  0  0  0  0  0  0  0  0
   -0.4070   -4.5770    1.7770 H   0  0  0  0  0  0  0  0  0  0  0  0
   -1.2890   -2.3000    3.6410 H   0  0  0  0  0  0  0  0  0  0  0  0
   -2.2280   -3.6820    3.0630 H   0  0  0  0  0  0  0  0  0  0  0  0
   -2.8920   -2.9060    0.5660 H   0  0  0  0  0  0  0  0  0  0  0  0
    1.9090   -1.9150   -1.8490 O   0  0  0  0  0  0  0  0  0  0  0  0
    2.8190   -1.9960   -0.7990 C   0  0  0  0  0  0  0  0  0  0  0  0
    2.2200   -1.4560    0.4920 C   0  0  2  0  0  0  0  0  0  0  0  0
    1.0410   -2.2010    0.8750 N   0  0  0  0  0  0  0  0  0  0  0  0
    1.9770   -0.0150    0.4180 C   0  0  0  0  0  0  0  0  0  0  0  0
    2.9740    0.7120    0.0770 O   0  0  0  0  0  0  0  0  0  0  0  0
    2.4380   -1.7930   -2.6800 H   0  0  0  0  0  0  0  0  0  0  0  0
    3.7100   -1.3720   -1.0120 H   0  0  0  0  0  0  0  0  0  0  0  0
    3.0770   -3.0660   -0.6140 H   0  0  0  0  0  0  0  0  0  0  0  0
    3.0320   -1.5880    1.2670 H   0  0  0  0  0  0  0  0  0  0  0  0
    0.1880   -2.2240    0.2840 H   0  0  0  0  0  0  0  0  0  0  0  0
   -0.0360    1.9220   -1.8300 C   0  0  0  0  0  0  0  0  0  0  0  0
   -0.3850    2.4510   -0.4560 C   0  0  0  0  0  0  0  0  0  0  0  0
   -1.7640    1.9960   -0.0990 C   0  0  0  0  0  0  0  0  0  0  0  0
    0.6460    2.0670    0.5760 C   0  0  2  0  0  0  0  0  0  0  0  0
    0.7630    0.6270    0.6850 N   0  0  0  0  0  0  0  0  0  0  0  0
    0.2270    2.6700    1.8690 C   0  0  0  0  0  0  0  0  0  0  0  0
    0.0620    3.9050    2.0110 O   0  0  0  0  0  0  0  0  0  0  0  0
    0.0140    1.8300    2.9510 O   0  0  0  0  0  0  0  0  0  0  0  0
   -0.8130    2.3380   -2.5260 H   0  0  0  0  0  0  0  0  0  0  0  0
   -0.1450    0.8290   -1.8820 H   0  0  0  0  0  0  0  0  0  0  0  0
    0.9470    2.2900   -2.1820 H   0  0  0  0  0  0  0  0  0  0  0  0
   -0.3970    3.5580   -0.5190 H   0  0  0  0  0  0  0  0  0  0  0  0
   -1.8820    0.9060   -0.0820 H   0  0  0  0  0  0  0  0  0  0  0  0
   -2.4710    2.4620   -0.8210 H   0  0  0  0  0  0  0  0  0  0  0  0
   -2.0360    2.4500    0.8980 H   0  0  0  0  0  0  0  0  0  0  0  0
    1.6200    2.4820    0.2710 H   0  0  0  0  0  0  0  0  0  0  0  0
   -0.0410    0.0590    0.9590 H   0  0  0  0  0  0  0  0  0  0  0  0
  1  7  1  0  0  0  0
  2  9  1  6  0  0  0
  2  3  1  0  0  0  0
  2  1  1  0  0  0  0
  3 11  1  0  0  0  0
  3 10  1  0  0  0  0
  4  3  1  0  0  0  0
  5  2  1  0  0  0  0
  5  6  2  0  0  0  0
  8  1  1  0  0  0  0
 12  4  1  0  0  0  0
 13 14  1  0  0  0  0
 14 21  1  0  0  0  0
 14 15  1  0  0  0  0
 15 16  1  0  0  0  0
 15 22  1  1  0  0  0
 16  5  1  0  0  0  0
 17 15  1  0  0  0  0
 17 28  1  0  0  0  0
 18 17  2  0  0  0  0
 19 13  1  0  0  0  0
 20 14  1  0  0  0  0
 23 16  1  0  0  0  0
 24 25  1  0  0  0  0
 25 26  1  0  0  0  0
 25 27  1  0  0  0  0
 26 36  1  0  0  0  0
 26 38  1  0  0  0  0
 27 39  1  6  0  0  0
 27 28  1  0  0  0  0
 27 29  1  0  0  0  0
 28 40  1  0  0  0  0
 29 30  2  0  0  0  0
 29 31  1  0  0  0  0
 32 24  1  0  0  0  0
 33 24  1  0  0  0  0
 34 24  1  0  0  0  0
 35 25  1  0  0  0  0
 37 26  1  0  0  0  0
M  END
$$$$
