CSW.pdb
 OpenBabel07022418293D

 48 49  0  0  1  0  0  0  0  0999 V2000
    0.2500   -1.8830    5.8750 N   0  0  0  0  0  0  0  0  0  0  0  0
   -0.0860   -1.8820    4.4720 C   0  0  1  0  0  0  0  0  0  0  0  0
   -1.2320   -0.9260    4.2300 C   0  0  0  0  0  0  0  0  0  0  0  0
   -2.6430   -1.4970    5.2190 S   0  0  0  0  0  0  0  0  0  0  0  0
    1.1040   -1.5450    3.6450 C   0  0  0  0  0  0  0  0  0  0  0  0
    2.2070   -1.3140    4.2070 O   0  0  0  0  0  0  0  0  0  0  0  0
    0.8850   -1.1360    6.1680 H   0  0  0  0  0  0  0  0  0  0  0  0
    0.4920   -2.8370    6.2300 H   0  0  0  0  0  0  0  0  0  0  0  0
   -0.4570   -2.9140    4.2350 H   0  0  0  0  0  0  0  0  0  0  0  0
   -1.5510   -0.8800    3.1900 H   0  0  0  0  0  0  0  0  0  0  0  0
   -0.9600    0.0990    4.5980 H   0  0  0  0  0  0  0  0  0  0  0  0
   -3.1380   -2.6720    4.5950 H   0  0  0  0  0  0  0  0  0  0  0  0
    1.3560   -2.6140   -0.3050 O   0  0  0  0  0  0  0  0  0  0  0  0
    2.4590   -2.3240    0.4920 C   0  0  0  0  0  0  0  0  0  0  0  0
    2.1620   -1.1520    1.3890 C   0  0  2  0  0  0  0  0  0  0  0  0
    1.0250   -1.4780    2.2430 N   0  0  0  0  0  0  0  0  0  0  0  0
    1.9070    0.0470    0.5910 C   0  0  0  0  0  0  0  0  0  0  0  0
    2.7830    0.4490   -0.2150 O   0  0  0  0  0  0  0  0  0  0  0  0
    0.7470   -3.2670    0.1670 H   0  0  0  0  0  0  0  0  0  0  0  0
    3.3170   -2.1740   -0.1580 H   0  0  0  0  0  0  0  0  0  0  0  0
    2.6240   -3.2380    1.1260 H   0  0  0  0  0  0  0  0  0  0  0  0
    3.0280   -0.9860    2.0870 H   0  0  0  0  0  0  0  0  0  0  0  0
    0.0760   -1.6800    1.8150 H   0  0  0  0  0  0  0  0  0  0  0  0
    0.6770    0.7680    0.7160 N   0  0  0  0  0  0  0  0  0  0  0  0
    0.4560    1.9340   -0.0700 C   0  0  1  0  0  0  0  0  0  0  0  0
   -0.6980    1.9010   -1.0140 C   0  0  0  0  0  0  0  0  0  0  0  0
   -0.6880    0.8710   -2.0380 C   0  0  0  0  0  0  0  0  0  0  0  0
   -0.2990    1.0040   -3.3670 C   0  0  0  0  0  0  0  0  0  0  0  0
   -0.4140   -0.1760   -3.9910 N   0  0  0  0  0  0  0  0  0  0  0  0
   -0.8640   -1.0650   -3.1110 C   0  0  0  0  0  0  0  0  0  0  0  0
   -1.1640   -2.4050   -3.2190 C   0  0  0  0  0  0  0  0  0  0  0  0
   -1.6360   -3.1680   -2.1810 C   0  0  0  0  0  0  0  0  0  0  0  0
   -1.8130   -2.5350   -0.9640 C   0  0  0  0  0  0  0  0  0  0  0  0
   -1.5230   -1.2010   -0.8230 C   0  0  0  0  0  0  0  0  0  0  0  0
   -1.0440   -0.4460   -1.8930 C   0  0  0  0  0  0  0  0  0  0  0  0
    0.2880    3.1610    0.7630 C   0  0  0  0  0  0  0  0  0  0  0  0
    0.0860    4.2690    0.2410 O   0  0  0  0  0  0  0  0  0  0  0  0
    0.3580    3.0580    2.1300 O   0  0  0  0  0  0  0  0  0  0  0  0
   -0.0660    0.4440    1.3940 H   0  0  0  0  0  0  0  0  0  0  0  0
    1.3690    2.0890   -0.7330 H   0  0  0  0  0  0  0  0  0  0  0  0
   -0.8170    2.9090   -1.5090 H   0  0  0  0  0  0  0  0  0  0  0  0
   -1.6540    1.8080   -0.4160 H   0  0  0  0  0  0  0  0  0  0  0  0
    0.0420    1.8990   -3.8360 H   0  0  0  0  0  0  0  0  0  0  0  0
   -0.1940   -0.3910   -4.9970 H   0  0  0  0  0  0  0  0  0  0  0  0
   -1.0250   -2.9060   -4.1790 H   0  0  0  0  0  0  0  0  0  0  0  0
   -1.8740   -4.2190   -2.2610 H   0  0  0  0  0  0  0  0  0  0  0  0
   -2.1860   -3.0700   -0.0860 H   0  0  0  0  0  0  0  0  0  0  0  0
   -1.6760   -0.7360    0.1350 H   0  0  0  0  0  0  0  0  0  0  0  0
  1  7  1  0  0  0  0
  1  8  1  0  0  0  0
  2  9  1  6  0  0  0
  2  1  1  0  0  0  0
  3  2  1  0  0  0  0
  3 11  1  0  0  0  0
  3  4  1  0  0  0  0
  5  6  2  0  0  0  0
  5  2  1  0  0  0  0
 10  3  1  0  0  0  0
 12  4  1  0  0  0  0
 13 19  1  0  0  0  0
 13 14  1  0  0  0  0
 14 21  1  0  0  0  0
 14 15  1  0  0  0  0
 15 22  1  1  0  0  0
 15 16  1  0  0  0  0
 16  5  1  0  0  0  0
 17 24  1  0  0  0  0
 17 15  1  0  0  0  0
 18 17  2  0  0  0  0
 20 14  1  0  0  0  0
 23 16  1  0  0  0  0
 24 39  1  0  0  0  0
 25 40  1  6  0  0  0
 25 24  1  0  0  0  0
 25 36  1  0  0  0  0
 26 42  1  0  0  0  0
 26 25  1  0  0  0  0
 27 35  1  0  0  0  0
 27 26  1  0  0  0  0
 28 27  2  0  0  0  0
 29 28  1  0  0  0  0
 29 30  1  0  0  0  0
 30 35  1  0  0  0  0
 31 30  2  0  0  0  0
 31 32  1  0  0  0  0
 32 33  2  0  0  0  0
 33 34  1  0  0  0  0
 33 47  1  0  0  0  0
 34 48  1  0  0  0  0
 35 34  2  0  0  0  0
 36 38  1  0  0  0  0
 37 36  2  0  0  0  0
 41 26  1  0  0  0  0
 43 28  1  0  0  0  0
 44 29  1  0  0  0  0
 45 31  1  0  0  0  0
 46 32  1  0  0  0  0
M  END
$$$$
