CTC.pdb
 OpenBabel07022418293D

 38 37  0  0  1  0  0  0  0  0999 V2000
   -0.3150   -5.1310    1.0640 N   0  0  0  0  0  0  0  0  0  0  0  0
   -0.3910   -3.8530    0.3420 C   0  0  1  0  0  0  0  0  0  0  0  0
   -1.7320   -3.2420    0.6880 C   0  0  0  0  0  0  0  0  0  0  0  0
   -3.0820   -4.3330    0.1790 S   0  0  0  0  0  0  0  0  0  0  0  0
    0.7330   -3.0210    0.8430 C   0  0  0  0  0  0  0  0  0  0  0  0
    1.5490   -3.4240    1.7250 O   0  0  0  0  0  0  0  0  0  0  0  0
   -0.1140   -4.9550    2.0730 H   0  0  0  0  0  0  0  0  0  0  0  0
    0.5230   -5.6860    0.7180 H   0  0  0  0  0  0  0  0  0  0  0  0
   -0.3220   -3.9940   -0.7350 H   0  0  0  0  0  0  0  0  0  0  0  0
   -1.8460   -2.2430    0.1980 H   0  0  0  0  0  0  0  0  0  0  0  0
   -1.8330   -3.0640    1.7770 H   0  0  0  0  0  0  0  0  0  0  0  0
   -3.7520   -3.8620   -0.9630 H   0  0  0  0  0  0  0  0  0  0  0  0
    2.1490    0.1420   -1.4820 C   0  0  0  0  0  0  0  0  0  0  0  0
    2.9400   -0.5790   -0.3860 C   0  0  1  0  0  0  0  0  0  0  0  0
    4.0120    0.2210   -0.0760 O   0  0  0  0  0  0  0  0  0  0  0  0
    2.0390   -0.8570    0.8070 C   0  0  2  0  0  0  0  0  0  0  0  0
    0.9690   -1.6950    0.3540 N   0  0  0  0  0  0  0  0  0  0  0  0
    1.5320    0.4670    1.3010 C   0  0  0  0  0  0  0  0  0  0  0  0
    2.3130    1.3470    1.7420 O   0  0  0  0  0  0  0  0  0  0  0  0
    2.8660    0.4420   -2.2650 H   0  0  0  0  0  0  0  0  0  0  0  0
    1.3960   -0.5280   -1.9340 H   0  0  0  0  0  0  0  0  0  0  0  0
    1.7070    1.0520   -1.0400 H   0  0  0  0  0  0  0  0  0  0  0  0
    3.3050   -1.5120   -0.8480 H   0  0  0  0  0  0  0  0  0  0  0  0
    3.9220    1.1620   -0.3800 H   0  0  0  0  0  0  0  0  0  0  0  0
    2.6740   -1.3370    1.5790 H   0  0  0  0  0  0  0  0  0  0  0  0
    0.3190   -1.3310   -0.3690 H   0  0  0  0  0  0  0  0  0  0  0  0
    0.1470    0.7920    1.2940 N   0  0  0  0  0  0  0  0  0  0  0  0
   -0.3450    2.0780    1.7730 C   0  0  1  0  0  0  0  0  0  0  0  0
   -1.1350    2.7950    0.6980 C   0  0  0  0  0  0  0  0  0  0  0  0
   -1.7240    4.3840    1.3390 S   0  0  0  0  0  0  0  0  0  0  0  0
   -1.2400    1.8080    2.9240 C   0  0  0  0  0  0  0  0  0  0  0  0
   -1.4660    0.6590    3.3290 O   0  0  0  0  0  0  0  0  0  0  0  0
   -1.8360    2.9160    3.5530 O   0  0  0  0  0  0  0  0  0  0  0  0
   -0.5080    0.0690    0.9300 H   0  0  0  0  0  0  0  0  0  0  0  0
    0.4590    2.7270    2.1200 H   0  0  0  0  0  0  0  0  0  0  0  0
   -1.9910    2.1660    0.3590 H   0  0  0  0  0  0  0  0  0  0  0  0
   -0.5030    3.0090   -0.1850 H   0  0  0  0  0  0  0  0  0  0  0  0
   -0.7480    4.9450    2.1610 H   0  0  0  0  0  0  0  0  0  0  0  0
  1  7  1  0  0  0  0
  2  9  1  6  0  0  0
  2  3  1  0  0  0  0
  2  5  1  0  0  0  0
  2  1  1  0  0  0  0
  3 11  1  0  0  0  0
  4  3  1  0  0  0  0
  5  6  2  0  0  0  0
  8  1  1  0  0  0  0
 10  3  1  0  0  0  0
 12  4  1  0  0  0  0
 13 22  1  0  0  0  0
 13 14  1  0  0  0  0
 14 23  1  6  0  0  0
 14 15  1  0  0  0  0
 14 16  1  0  0  0  0
 16 18  1  0  0  0  0
 16 25  1  1  0  0  0
 17 16  1  0  0  0  0
 17  5  1  0  0  0  0
 18 19  2  0  0  0  0
 20 13  1  0  0  0  0
 21 13  1  0  0  0  0
 24 15  1  0  0  0  0
 26 17  1  0  0  0  0
 27 18  1  0  0  0  0
 27 28  1  0  0  0  0
 28 35  1  1  0  0  0
 28 31  1  0  0  0  0
 29 30  1  0  0  0  0
 29 28  1  0  0  0  0
 30 38  1  0  0  0  0
 31 32  2  0  0  0  0
 31 33  1  0  0  0  0
 34 27  1  0  0  0  0
 36 29  1  0  0  0  0
 37 29  1  0  0  0  0
M  END
$$$$
