CTE.pdb
 OpenBabel07022418293D

 43 42  0  0  1  0  0  0  0  0999 V2000
    2.4590   -4.9340    0.1610 N   0  0  0  0  0  0  0  0  0  0  0  0
    1.2640   -4.0460    0.1090 C   0  0  1  0  0  0  0  0  0  0  0  0
    0.6210   -4.1470    1.4510 C   0  0  0  0  0  0  0  0  0  0  0  0
   -0.8810   -3.1750    1.6500 S   0  0  0  0  0  0  0  0  0  0  0  0
    1.6780   -2.6980   -0.3100 C   0  0  0  0  0  0  0  0  0  0  0  0
    2.9330   -2.4780   -0.4890 O   0  0  0  0  0  0  0  0  0  0  0  0
    3.1240   -4.4270    0.7870 H   0  0  0  0  0  0  0  0  0  0  0  0
    2.1320   -5.7750    0.6890 H   0  0  0  0  0  0  0  0  0  0  0  0
    0.5940   -4.5320   -0.6270 H   0  0  0  0  0  0  0  0  0  0  0  0
    0.3180   -5.2170    1.6500 H   0  0  0  0  0  0  0  0  0  0  0  0
    1.3550   -3.9410    2.2860 H   0  0  0  0  0  0  0  0  0  0  0  0
   -1.9800   -3.7330    1.0150 H   0  0  0  0  0  0  0  0  0  0  0  0
   -0.7960   -0.3390   -2.4650 C   0  0  0  0  0  0  0  0  0  0  0  0
    0.6880   -0.1410   -2.3810 C   0  0  1  0  0  0  0  0  0  0  0  0
    1.0870    1.1170   -2.8650 O   0  0  0  0  0  0  0  0  0  0  0  0
    1.2040   -0.3410   -0.9470 C   0  0  2  0  0  0  0  0  0  0  0  0
    0.7590   -1.6390   -0.5260 N   0  0  0  0  0  0  0  0  0  0  0  0
    0.7760    0.7940   -0.1330 C   0  0  0  0  0  0  0  0  0  0  0  0
    1.1430    1.9580   -0.4600 O   0  0  0  0  0  0  0  0  0  0  0  0
   -1.3170   -0.2390   -1.4950 H   0  0  0  0  0  0  0  0  0  0  0  0
   -1.2340    0.4570   -3.1280 H   0  0  0  0  0  0  0  0  0  0  0  0
   -1.0870   -1.3100   -2.8970 H   0  0  0  0  0  0  0  0  0  0  0  0
    1.1640   -0.8820   -3.0640 H   0  0  0  0  0  0  0  0  0  0  0  0
    0.3480    1.7720   -2.8440 H   0  0  0  0  0  0  0  0  0  0  0  0
    2.3260   -0.3560   -1.0440 H   0  0  0  0  0  0  0  0  0  0  0  0
   -0.2540   -1.8200   -0.3780 H   0  0  0  0  0  0  0  0  0  0  0  0
   -0.0410    0.6670    1.0210 N   0  0  0  0  0  0  0  0  0  0  0  0
   -0.4660    1.7740    1.8130 C   0  0  1  0  0  0  0  0  0  0  0  0
    0.5810    2.4090    2.6500 C   0  0  0  0  0  0  0  0  0  0  0  0
    1.1500    1.4110    3.6080 C   0  0  0  0  0  0  0  0  0  0  0  0
    0.1120    0.8680    4.5070 C   0  0  0  0  0  0  0  0  0  0  0  0
   -0.6190   -0.0920    4.1570 O   0  0  0  0  0  0  0  0  0  0  0  0
   -1.1940    2.7440    0.9460 C   0  0  0  0  0  0  0  0  0  0  0  0
   -1.6380    3.8390    1.3550 O   0  0  0  0  0  0  0  0  0  0  0  0
   -0.1190    1.3850    5.7870 O   0  0  0  0  0  0  0  0  0  0  0  0
   -1.3890    2.4130   -0.3760 O   0  0  0  0  0  0  0  0  0  0  0  0
   -0.3660   -0.3000    1.3320 H   0  0  0  0  0  0  0  0  0  0  0  0
   -1.2830    1.4170    2.5240 H   0  0  0  0  0  0  0  0  0  0  0  0
    0.0560    3.1840    3.2840 H   0  0  0  0  0  0  0  0  0  0  0  0
    1.3470    2.9670    2.0930 H   0  0  0  0  0  0  0  0  0  0  0  0
    1.9550    1.8620    4.2490 H   0  0  0  0  0  0  0  0  0  0  0  0
    1.6190    0.5870    3.0290 H   0  0  0  0  0  0  0  0  0  0  0  0
   -1.0140    1.2100    6.2340 H   0  0  0  0  0  0  0  0  0  0  0  0
  1  8  1  0  0  0  0
  1  7  1  0  0  0  0
  2  9  1  6  0  0  0
  2  1  1  0  0  0  0
  2  3  1  0  0  0  0
  3 10  1  0  0  0  0
  3  4  1  0  0  0  0
  3 11  1  0  0  0  0
  5  2  1  0  0  0  0
  6  5  2  0  0  0  0
 12  4  1  0  0  0  0
 13 14  1  0  0  0  0
 13 20  1  0  0  0  0
 14 23  1  6  0  0  0
 14 16  1  0  0  0  0
 15 24  1  0  0  0  0
 15 14  1  0  0  0  0
 16 25  1  6  0  0  0
 16 17  1  0  0  0  0
 16 18  1  0  0  0  0
 17 26  1  0  0  0  0
 17  5  1  0  0  0  0
 18 27  1  0  0  0  0
 19 18  2  0  0  0  0
 21 13  1  0  0  0  0
 22 13  1  0  0  0  0
 27 37  1  0  0  0  0
 27 28  1  0  0  0  0
 28 38  1  1  0  0  0
 28 29  1  0  0  0  0
 29 39  1  0  0  0  0
 29 30  1  0  0  0  0
 30 41  1  0  0  0  0
 30 31  1  0  0  0  0
 31 35  1  0  0  0  0
 32 31  2  0  0  0  0
 33 34  1  0  0  0  0
 33 28  1  0  0  0  0
 35 43  1  0  0  0  0
 36 33  2  0  0  0  0
 40 29  1  0  0  0  0
 42 30  1  0  0  0  0
M  END
$$$$
