CTF.pdb
 OpenBabel07022418293D

 47 47  0  0  1  0  0  0  0  0999 V2000
    4.0910   -3.1990    4.0430 N   0  0  0  0  0  0  0  0  0  0  0  0
    3.8740   -3.0450    2.5950 C   0  0  1  0  0  0  0  0  0  0  0  0
    3.2140   -4.3300    2.1540 C   0  0  0  0  0  0  0  0  0  0  0  0
    2.8470   -4.4080    0.4040 S   0  0  0  0  0  0  0  0  0  0  0  0
    2.9350   -1.9140    2.3910 C   0  0  0  0  0  0  0  0  0  0  0  0
    2.3970   -1.3040    3.3720 O   0  0  0  0  0  0  0  0  0  0  0  0
    4.2120   -2.2340    4.4330 H   0  0  0  0  0  0  0  0  0  0  0  0
    3.2820   -3.6280    4.5100 H   0  0  0  0  0  0  0  0  0  0  0  0
    4.8230   -2.9090    2.0730 H   0  0  0  0  0  0  0  0  0  0  0  0
    2.2430   -4.4420    2.7050 H   0  0  0  0  0  0  0  0  0  0  0  0
    3.8210   -5.2140    2.4920 H   0  0  0  0  0  0  0  0  0  0  0  0
    3.0990   -5.7050   -0.1330 H   0  0  0  0  0  0  0  0  0  0  0  0
    1.4740    1.9390    0.0370 C   0  0  0  0  0  0  0  0  0  0  0  0
    2.3580    0.7110    0.0610 C   0  0  1  0  0  0  0  0  0  0  0  0
    3.5500    1.1400    0.6650 O   0  0  0  0  0  0  0  0  0  0  0  0
    1.6820   -0.3550    0.9080 C   0  0  2  0  0  0  0  0  0  0  0  0
    2.6140   -1.4830    1.0820 N   0  0  0  0  0  0  0  0  0  0  0  0
    0.5450   -0.8870    0.1330 C   0  0  0  0  0  0  0  0  0  0  0  0
    0.6240   -2.0470   -0.3440 O   0  0  0  0  0  0  0  0  0  0  0  0
    0.9120    2.0950    0.9730 H   0  0  0  0  0  0  0  0  0  0  0  0
    2.1100    2.8730   -0.0480 H   0  0  0  0  0  0  0  0  0  0  0  0
    0.8180    1.9910   -0.8460 H   0  0  0  0  0  0  0  0  0  0  0  0
    2.4940    0.3060   -0.9480 H   0  0  0  0  0  0  0  0  0  0  0  0
    4.2840    0.6420    0.1840 H   0  0  0  0  0  0  0  0  0  0  0  0
    1.3510   -0.0000    1.8900 H   0  0  0  0  0  0  0  0  0  0  0  0
    2.9870   -1.8970    0.2030 H   0  0  0  0  0  0  0  0  0  0  0  0
   -0.6670   -0.2040   -0.1350 N   0  0  0  0  0  0  0  0  0  0  0  0
   -1.7360   -0.8120   -0.9180 C   0  0  1  0  0  0  0  0  0  0  0  0
   -2.9740   -1.0120   -0.0720 C   0  0  0  0  0  0  0  0  0  0  0  0
   -3.4920    0.2710    0.4690 C   0  0  0  0  0  0  0  0  0  0  0  0
   -4.4130    1.0040   -0.2370 C   0  0  0  0  0  0  0  0  0  0  0  0
   -4.8630    2.1860    0.3040 C   0  0  0  0  0  0  0  0  0  0  0  0
   -4.4120    2.6430    1.5270 C   0  0  0  0  0  0  0  0  0  0  0  0
   -3.4870    1.8770    2.2040 C   0  0  0  0  0  0  0  0  0  0  0  0
   -3.0220    0.6910    1.6830 C   0  0  0  0  0  0  0  0  0  0  0  0
   -2.0050   -0.0660   -2.1570 C   0  0  0  0  0  0  0  0  0  0  0  0
   -1.3360    0.9580   -2.4130 O   0  0  0  0  0  0  0  0  0  0  0  0
   -2.9810   -0.4740   -3.0440 O   0  0  0  0  0  0  0  0  0  0  0  0
   -0.8460    0.7490    0.2260 H   0  0  0  0  0  0  0  0  0  0  0  0
   -1.4030   -1.8360   -1.2210 H   0  0  0  0  0  0  0  0  0  0  0  0
   -2.6840   -1.6640    0.7780 H   0  0  0  0  0  0  0  0  0  0  0  0
   -3.7330   -1.5540   -0.6450 H   0  0  0  0  0  0  0  0  0  0  0  0
   -4.7760    0.6490   -1.2080 H   0  0  0  0  0  0  0  0  0  0  0  0
   -5.5880    2.7870   -0.2290 H   0  0  0  0  0  0  0  0  0  0  0  0
   -4.7550    3.5720    1.9680 H   0  0  0  0  0  0  0  0  0  0  0  0
   -3.0840    2.1760    3.1800 H   0  0  0  0  0  0  0  0  0  0  0  0
   -2.2840    0.0820    2.2270 H   0  0  0  0  0  0  0  0  0  0  0  0
  1  7  1  0  0  0  0
  1  8  1  0  0  0  0
  2  9  1  6  0  0  0
  2  1  1  0  0  0  0
  3 11  1  0  0  0  0
  3  2  1  0  0  0  0
  3 10  1  0  0  0  0
  4  3  1  0  0  0  0
  5  2  1  0  0  0  0
  5  6  2  0  0  0  0
 12  4  1  0  0  0  0
 13 14  1  0  0  0  0
 13 20  1  0  0  0  0
 14 23  1  6  0  0  0
 14 15  1  0  0  0  0
 14 16  1  0  0  0  0
 16 17  1  0  0  0  0
 16 25  1  1  0  0  0
 17  5  1  0  0  0  0
 18 16  1  0  0  0  0
 19 18  2  0  0  0  0
 21 13  1  0  0  0  0
 22 13  1  0  0  0  0
 24 15  1  0  0  0  0
 26 17  1  0  0  0  0
 27 18  1  0  0  0  0
 27 39  1  0  0  0  0
 28 40  1  6  0  0  0
 28 27  1  0  0  0  0
 28 29  1  0  0  0  0
 29 30  1  0  0  0  0
 29 41  1  0  0  0  0
 30 35  1  0  0  0  0
 31 32  1  0  0  0  0
 31 30  2  0  0  0  0
 32 33  2  0  0  0  0
 33 45  1  0  0  0  0
 33 34  1  0  0  0  0
 34 46  1  0  0  0  0
 35 34  2  0  0  0  0
 35 47  1  0  0  0  0
 36 28  1  0  0  0  0
 37 36  1  0  0  0  0
 38 36  2  0  0  0  0
 42 29  1  0  0  0  0
 43 31  1  0  0  0  0
 44 32  1  0  0  0  0
M  END
$$$$
