CTH.pdb
 OpenBabel07022418293D

 44 44  0  0  1  0  0  0  0  0999 V2000
    2.5220   -4.6450    0.6270 N   0  0  0  0  0  0  0  0  0  0  0  0
    1.6150   -3.6060    0.1070 C   0  0  1  0  0  0  0  0  0  0  0  0
    0.2460   -3.8720    0.6280 C   0  0  0  0  0  0  0  0  0  0  0  0
   -0.9810   -2.6780    0.0600 S   0  0  0  0  0  0  0  0  0  0  0  0
    2.1960   -2.3050    0.4290 C   0  0  0  0  0  0  0  0  0  0  0  0
    3.2760   -2.2940    1.1010 O   0  0  0  0  0  0  0  0  0  0  0  0
    3.4770   -4.2340    0.7130 H   0  0  0  0  0  0  0  0  0  0  0  0
    2.2280   -4.9280    1.5880 H   0  0  0  0  0  0  0  0  0  0  0  0
    1.6000   -3.7120   -0.9970 H   0  0  0  0  0  0  0  0  0  0  0  0
   -0.0650   -4.8680    0.1940 H   0  0  0  0  0  0  0  0  0  0  0  0
    0.2080   -4.0250    1.7250 H   0  0  0  0  0  0  0  0  0  0  0  0
   -2.2200   -3.3120   -0.0650 H   0  0  0  0  0  0  0  0  0  0  0  0
    3.6300   -0.2150   -1.6340 C   0  0  0  0  0  0  0  0  0  0  0  0
    2.8370    0.8090   -0.8490 C   0  0  1  0  0  0  0  0  0  0  0  0
    1.6820    1.0720   -1.5870 O   0  0  0  0  0  0  0  0  0  0  0  0
    2.3740    0.1510    0.4600 C   0  0  2  0  0  0  0  0  0  0  0  0
    1.6840   -1.0400    0.0710 N   0  0  0  0  0  0  0  0  0  0  0  0
    1.6130    1.0900    1.2830 C   0  0  0  0  0  0  0  0  0  0  0  0
    2.1070    2.1730    1.7020 O   0  0  0  0  0  0  0  0  0  0  0  0
    2.9680   -0.9540   -2.1300 H   0  0  0  0  0  0  0  0  0  0  0  0
    4.3940   -0.7250   -1.0490 H   0  0  0  0  0  0  0  0  0  0  0  0
    4.1280    0.3450   -2.4780 H   0  0  0  0  0  0  0  0  0  0  0  0
    3.4460    1.7050   -0.6590 H   0  0  0  0  0  0  0  0  0  0  0  0
    1.5060    0.4110   -2.2880 H   0  0  0  0  0  0  0  0  0  0  0  0
    3.3020   -0.0980    1.0500 H   0  0  0  0  0  0  0  0  0  0  0  0
    0.8100   -0.9850   -0.4750 H   0  0  0  0  0  0  0  0  0  0  0  0
    0.2700    0.7910    1.6350 N   0  0  0  0  0  0  0  0  0  0  0  0
   -0.5020    1.6920    2.4430 C   0  0  1  0  0  0  0  0  0  0  0  0
   -1.6420    2.2980    1.6190 C   0  0  0  0  0  0  0  0  0  0  0  0
   -2.5640    1.2710    1.0920 C   0  0  0  0  0  0  0  0  0  0  0  0
   -3.7040    0.7430    1.6570 C   0  0  0  0  0  0  0  0  0  0  0  0
   -4.2460   -0.1710    0.8360 N   0  0  0  0  0  0  0  0  0  0  0  0
   -3.4700   -0.2440   -0.2620 C   0  0  0  0  0  0  0  0  0  0  0  0
   -2.4510    0.6290   -0.1070 N   0  0  0  0  0  0  0  0  0  0  0  0
   -0.9870    1.1030    3.6910 C   0  0  0  0  0  0  0  0  0  0  0  0
   -0.7410   -0.0820    4.0090 O   0  0  0  0  0  0  0  0  0  0  0  0
   -1.7450    1.8600    4.5640 O   0  0  0  0  0  0  0  0  0  0  0  0
   -0.2140   -0.0910    1.3250 H   0  0  0  0  0  0  0  0  0  0  0  0
    0.1550    2.5610    2.7040 H   0  0  0  0  0  0  0  0  0  0  0  0
   -1.1840    2.8610    0.7720 H   0  0  0  0  0  0  0  0  0  0  0  0
   -2.2010    3.0270    2.2140 H   0  0  0  0  0  0  0  0  0  0  0  0
   -4.1190    1.0080    2.6160 H   0  0  0  0  0  0  0  0  0  0  0  0
   -5.1020   -0.7480    0.9640 H   0  0  0  0  0  0  0  0  0  0  0  0
   -3.5770   -0.8620   -1.1440 H   0  0  0  0  0  0  0  0  0  0  0  0
  1  7  1  0  0  0  0
  1  8  1  0  0  0  0
  2  9  1  6  0  0  0
  2  5  1  0  0  0  0
  2  1  1  0  0  0  0
  2  3  1  0  0  0  0
  3 11  1  0  0  0  0
  4  3  1  0  0  0  0
  5  6  2  0  0  0  0
 10  3  1  0  0  0  0
 12  4  1  0  0  0  0
 13 21  1  0  0  0  0
 13 14  1  0  0  0  0
 14 23  1  1  0  0  0
 14 16  1  0  0  0  0
 15 14  1  0  0  0  0
 16 25  1  1  0  0  0
 16 18  1  0  0  0  0
 17  5  1  0  0  0  0
 17 16  1  0  0  0  0
 18 27  1  0  0  0  0
 18 19  2  0  0  0  0
 20 13  1  0  0  0  0
 22 13  1  0  0  0  0
 24 15  1  0  0  0  0
 26 17  1  0  0  0  0
 27 28  1  0  0  0  0
 28 39  1  1  0  0  0
 28 35  1  0  0  0  0
 29 41  1  0  0  0  0
 29 28  1  0  0  0  0
 30 29  1  0  0  0  0
 30 31  2  0  0  0  0
 31 42  1  0  0  0  0
 32 43  1  0  0  0  0
 32 31  1  0  0  0  0
 33 34  2  0  0  0  0
 33 32  1  0  0  0  0
 34 30  1  0  0  0  0
 35 36  2  0  0  0  0
 35 37  1  0  0  0  0
 38 27  1  0  0  0  0
 40 29  1  0  0  0  0
 44 33  1  0  0  0  0
M  END
$$$$
