CTK.pdb
 OpenBabel07022418293D

 48 47  0  0  1  0  0  0  0  0999 V2000
    5.8920   -2.0620    1.7110 N   0  0  0  0  0  0  0  0  0  0  0  0
    4.6070   -2.3430    1.0210 C   0  0  1  0  0  0  0  0  0  0  0  0
    3.8280   -3.2220    1.9410 C   0  0  0  0  0  0  0  0  0  0  0  0
    2.2230   -3.7350    1.3500 S   0  0  0  0  0  0  0  0  0  0  0  0
    3.9560   -1.0620    0.6760 C   0  0  0  0  0  0  0  0  0  0  0  0
    4.4960    0.0400    1.0260 O   0  0  0  0  0  0  0  0  0  0  0  0
    6.4570   -2.9150    1.6320 H   0  0  0  0  0  0  0  0  0  0  0  0
    5.6530   -1.9230    2.7350 H   0  0  0  0  0  0  0  0  0  0  0  0
    4.8920   -2.9360    0.1280 H   0  0  0  0  0  0  0  0  0  0  0  0
    4.4120   -4.1520    2.1700 H   0  0  0  0  0  0  0  0  0  0  0  0
    3.6810   -2.7270    2.9320 H   0  0  0  0  0  0  0  0  0  0  0  0
    1.2550   -3.8520    2.3350 H   0  0  0  0  0  0  0  0  0  0  0  0
    1.2710   -0.7200   -2.5220 C   0  0  0  0  0  0  0  0  0  0  0  0
    2.0330    0.4120   -1.8870 C   0  0  1  0  0  0  0  0  0  0  0  0
    1.4330    1.5960   -2.2760 O   0  0  0  0  0  0  0  0  0  0  0  0
    2.1110    0.2720   -0.3810 C   0  0  2  0  0  0  0  0  0  0  0  0
    2.7390   -0.9680   -0.0400 N   0  0  0  0  0  0  0  0  0  0  0  0
    0.7760    0.4900    0.1770 C   0  0  0  0  0  0  0  0  0  0  0  0
    0.1590    1.5790   -0.0970 O   0  0  0  0  0  0  0  0  0  0  0  0
    0.1890   -0.7130   -2.2140 H   0  0  0  0  0  0  0  0  0  0  0  0
    1.2570   -0.5280   -3.6160 H   0  0  0  0  0  0  0  0  0  0  0  0
    1.7330   -1.7100   -2.3580 H   0  0  0  0  0  0  0  0  0  0  0  0
    3.0550    0.3980   -2.3180 H   0  0  0  0  0  0  0  0  0  0  0  0
    0.9990    1.5240   -3.1630 H   0  0  0  0  0  0  0  0  0  0  0  0
    2.7800    1.0860    0.0140 H   0  0  0  0  0  0  0  0  0  0  0  0
    2.2890   -1.8620   -0.3320 H   0  0  0  0  0  0  0  0  0  0  0  0
    0.0750   -0.4050    1.0130 N   0  0  0  0  0  0  0  0  0  0  0  0
   -1.2480   -0.0650    1.4990 C   0  0  1  0  0  0  0  0  0  0  0  0
   -2.1650   -1.1620    1.0010 C   0  0  0  0  0  0  0  0  0  0  0  0
   -3.5940   -0.9960    1.4010 C   0  0  0  0  0  0  0  0  0  0  0  0
   -4.1440    0.2980    0.8630 C   0  0  0  0  0  0  0  0  0  0  0  0
   -5.5950    0.4720    1.2640 C   0  0  0  0  0  0  0  0  0  0  0  0
   -6.1190    1.7020    0.7520 N   0  0  0  0  0  0  0  0  0  0  0  0
   -1.2740    0.0230    2.9820 C   0  0  0  0  0  0  0  0  0  0  0  0
   -0.2310   -0.1940    3.6260 O   0  0  0  0  0  0  0  0  0  0  0  0
   -2.4510    0.3440    3.6400 O   0  0  0  0  0  0  0  0  0  0  0  0
    0.5170   -1.3050    1.2740 H   0  0  0  0  0  0  0  0  0  0  0  0
   -1.5550    0.9270    1.1210 H   0  0  0  0  0  0  0  0  0  0  0  0
   -1.7320   -2.1330    1.2820 H   0  0  0  0  0  0  0  0  0  0  0  0
   -2.1390   -1.1010   -0.1260 H   0  0  0  0  0  0  0  0  0  0  0  0
   -4.1670   -1.8090    0.8640 H   0  0  0  0  0  0  0  0  0  0  0  0
   -3.7950   -1.1510    2.4610 H   0  0  0  0  0  0  0  0  0  0  0  0
   -3.5740    1.1420    1.2600 H   0  0  0  0  0  0  0  0  0  0  0  0
   -4.1130    0.2800   -0.2450 H   0  0  0  0  0  0  0  0  0  0  0  0
   -5.6660    0.4800    2.3620 H   0  0  0  0  0  0  0  0  0  0  0  0
   -6.2060   -0.3550    0.8270 H   0  0  0  0  0  0  0  0  0  0  0  0
   -5.6830    2.5520    1.1310 H   0  0  0  0  0  0  0  0  0  0  0  0
   -6.2900    1.7090   -0.2650 H   0  0  0  0  0  0  0  0  0  0  0  0
  1  8  1  0  0  0  0
  2  9  1  6  0  0  0
  2  1  1  0  0  0  0
  2  3  1  0  0  0  0
  3 10  1  0  0  0  0
  3 11  1  0  0  0  0
  4  3  1  0  0  0  0
  4 12  1  0  0  0  0
  5  2  1  0  0  0  0
  5  6  2  0  0  0  0
  7  1  1  0  0  0  0
 13 22  1  0  0  0  0
 13 20  1  0  0  0  0
 13 14  1  0  0  0  0
 14 23  1  6  0  0  0
 14 16  1  0  0  0  0
 15 14  1  0  0  0  0
 16 17  1  0  0  0  0
 16 25  1  1  0  0  0
 16 18  1  0  0  0  0
 17  5  1  0  0  0  0
 18 27  1  0  0  0  0
 19 18  2  0  0  0  0
 21 13  1  0  0  0  0
 24 15  1  0  0  0  0
 26 17  1  0  0  0  0
 27 37  1  0  0  0  0
 27 28  1  0  0  0  0
 28 38  1  6  0  0  0
 28 34  1  0  0  0  0
 29 39  1  0  0  0  0
 29 30  1  0  0  0  0
 29 28  1  0  0  0  0
 30 42  1  0  0  0  0
 31 43  1  0  0  0  0
 31 32  1  0  0  0  0
 31 30  1  0  0  0  0
 32 45  1  0  0  0  0
 33 47  1  0  0  0  0
 33 32  1  0  0  0  0
 34 35  2  0  0  0  0
 34 36  1  0  0  0  0
 40 29  1  0  0  0  0
 41 30  1  0  0  0  0
 44 31  1  0  0  0  0
 46 32  1  0  0  0  0
 48 33  1  0  0  0  0
M  END
$$$$
