CTL.pdb
 OpenBabel07022418293D

 46 45  0  0  1  0  0  0  0  0999 V2000
    1.8860   -3.2760    0.6070 N   0  0  0  0  0  0  0  0  0  0  0  0
    2.5700   -2.3630   -0.2650 C   0  0  1  0  0  0  0  0  0  0  0  0
    3.3330   -3.2010   -1.2770 C   0  0  0  0  0  0  0  0  0  0  0  0
    4.1960   -2.0720   -2.3870 S   0  0  0  0  0  0  0  0  0  0  0  0
    1.6560   -1.3820   -0.9140 C   0  0  0  0  0  0  0  0  0  0  0  0
    2.0830   -0.5090   -1.6870 O   0  0  0  0  0  0  0  0  0  0  0  0
    1.3780   -2.8550    1.3920 H   0  0  0  0  0  0  0  0  0  0  0  0
    1.3800   -4.0290    0.0900 H   0  0  0  0  0  0  0  0  0  0  0  0
    3.3190   -1.8090    0.3200 H   0  0  0  0  0  0  0  0  0  0  0  0
    4.0520   -3.8260   -0.6720 H   0  0  0  0  0  0  0  0  0  0  0  0
    2.6780   -3.9330   -1.7880 H   0  0  0  0  0  0  0  0  0  0  0  0
    4.9950   -2.7420   -3.3140 H   0  0  0  0  0  0  0  0  0  0  0  0
   -2.6900   -2.1900   -1.0930 C   0  0  0  0  0  0  0  0  0  0  0  0
   -1.8430   -1.2820   -1.9450 C   0  0  1  0  0  0  0  0  0  0  0  0
   -2.6920   -0.2680   -2.4770 O   0  0  0  0  0  0  0  0  0  0  0  0
   -0.7080   -0.6130   -1.2050 C   0  0  2  0  0  0  0  0  0  0  0  0
    0.2620   -1.4700   -0.6330 N   0  0  0  0  0  0  0  0  0  0  0  0
   -1.2230    0.4190   -0.2520 C   0  0  0  0  0  0  0  0  0  0  0  0
   -2.3080    0.9640   -0.4840 O   0  0  0  0  0  0  0  0  0  0  0  0
   -2.2770   -3.2140   -1.0510 H   0  0  0  0  0  0  0  0  0  0  0  0
   -3.6970   -2.2520   -1.5710 H   0  0  0  0  0  0  0  0  0  0  0  0
   -2.8520   -1.7690   -0.0750 H   0  0  0  0  0  0  0  0  0  0  0  0
   -1.4990   -1.8600   -2.8230 H   0  0  0  0  0  0  0  0  0  0  0  0
   -3.6360   -0.4870   -2.2870 H   0  0  0  0  0  0  0  0  0  0  0  0
   -0.1510   -0.0160   -2.0170 H   0  0  0  0  0  0  0  0  0  0  0  0
   -0.0530   -2.2430    0.0590 H   0  0  0  0  0  0  0  0  0  0  0  0
    0.1900    0.6980    5.4340 C   0  0  0  0  0  0  0  0  0  0  0  0
   -0.4480    0.4270    4.0390 C   0  0  0  0  0  0  0  0  0  0  0  0
    0.4630   -0.6860    3.4880 C   0  0  0  0  0  0  0  0  0  0  0  0
   -0.3300    1.6570    3.2160 C   0  0  0  0  0  0  0  0  0  0  0  0
   -0.8840    1.6980    1.8600 C   0  0  2  0  0  0  0  0  0  0  0  0
   -0.4470    0.7480    0.8990 N   0  0  0  0  0  0  0  0  0  0  0  0
   -0.4950    3.1080    1.3430 C   0  0  0  0  0  0  0  0  0  0  0  0
    0.0810    3.1380    0.2560 O   0  0  0  0  0  0  0  0  0  0  0  0
   -0.7860    4.2270    2.0630 O   0  0  0  0  0  0  0  0  0  0  0  0
    0.9380    1.4970    5.3860 H   0  0  0  0  0  0  0  0  0  0  0  0
    0.6840   -0.2050    5.8240 H   0  0  0  0  0  0  0  0  0  0  0  0
   -0.6080    1.0740    6.1190 H   0  0  0  0  0  0  0  0  0  0  0  0
   -1.4540    0.0630    4.2550 H   0  0  0  0  0  0  0  0  0  0  0  0
    1.3530   -0.1600    3.0860 H   0  0  0  0  0  0  0  0  0  0  0  0
    0.7950   -1.3540    4.3410 H   0  0  0  0  0  0  0  0  0  0  0  0
   -0.0140   -1.2990    2.7380 H   0  0  0  0  0  0  0  0  0  0  0  0
   -0.8910    2.4640    3.8070 H   0  0  0  0  0  0  0  0  0  0  0  0
    0.7330    2.0720    3.2480 H   0  0  0  0  0  0  0  0  0  0  0  0
   -1.9870    1.7620    1.8550 H   0  0  0  0  0  0  0  0  0  0  0  0
    0.4590    0.2680    0.9970 H   0  0  0  0  0  0  0  0  0  0  0  0
  1  7  1  0  0  0  0
  2  9  1  1  0  0  0
  2  1  1  0  0  0  0
  3 10  1  0  0  0  0
  3  2  1  0  0  0  0
  4  3  1  0  0  0  0
  5 17  1  0  0  0  0
  5  2  1  0  0  0  0
  6  5  2  0  0  0  0
  8  1  1  0  0  0  0
 11  3  1  0  0  0  0
 12  4  1  0  0  0  0
 13 20  1  0  0  0  0
 13 22  1  0  0  0  0
 14 23  1  6  0  0  0
 14 16  1  0  0  0  0
 14 13  1  0  0  0  0
 15 24  1  0  0  0  0
 15 14  1  0  0  0  0
 16 25  1  6  0  0  0
 16 17  1  0  0  0  0
 16 18  1  0  0  0  0
 17 26  1  0  0  0  0
 18 32  1  0  0  0  0
 19 18  2  0  0  0  0
 21 13  1  0  0  0  0
 27 37  1  0  0  0  0
 27 38  1  0  0  0  0
 28 39  1  0  0  0  0
 28 27  1  0  0  0  0
 29 28  1  0  0  0  0
 29 41  1  0  0  0  0
 30 44  1  0  0  0  0
 30 43  1  0  0  0  0
 30 28  1  0  0  0  0
 31 45  1  1  0  0  0
 31 30  1  0  0  0  0
 32 46  1  0  0  0  0
 32 31  1  0  0  0  0
 33 31  1  0  0  0  0
 33 35  1  0  0  0  0
 34 33  2  0  0  0  0
 36 27  1  0  0  0  0
 40 29  1  0  0  0  0
 42 29  1  0  0  0  0
M  END
$$$$
