CTN.pdb
 OpenBabel07022418293D

 41 40  0  0  1  0  0  0  0  0999 V2000
    1.8160   -3.7540   -1.8730 N   0  0  0  0  0  0  0  0  0  0  0  0
    2.8990   -3.4610   -0.9870 C   0  0  1  0  0  0  0  0  0  0  0  0
    4.2260   -3.3260   -1.6900 C   0  0  0  0  0  0  0  0  0  0  0  0
    4.1260   -1.9840   -2.8970 S   0  0  0  0  0  0  0  0  0  0  0  0
    2.6190   -2.2110   -0.1940 C   0  0  0  0  0  0  0  0  0  0  0  0
    3.4340   -1.7670    0.6420 O   0  0  0  0  0  0  0  0  0  0  0  0
    1.9590   -3.2270   -2.7620 H   0  0  0  0  0  0  0  0  0  0  0  0
    1.7490   -4.7620   -2.1240 H   0  0  0  0  0  0  0  0  0  0  0  0
    3.0050   -4.3130   -0.2710 H   0  0  0  0  0  0  0  0  0  0  0  0
    4.4810   -4.2760   -2.1790 H   0  0  0  0  0  0  0  0  0  0  0  0
    5.0040   -3.1400   -0.9200 H   0  0  0  0  0  0  0  0  0  0  0  0
    5.4390   -1.5820   -3.1940 H   0  0  0  0  0  0  0  0  0  0  0  0
   -0.0670    0.4250   -1.6630 C   0  0  0  0  0  0  0  0  0  0  0  0
    1.0310    0.8300   -0.6740 C   0  0  1  0  0  0  0  0  0  0  0  0
    0.7540    2.0560   -0.0970 O   0  0  0  0  0  0  0  0  0  0  0  0
    1.1100   -0.2910    0.3660 C   0  0  2  0  0  0  0  0  0  0  0  0
    1.4030   -1.4990   -0.3860 N   0  0  0  0  0  0  0  0  0  0  0  0
   -0.2150   -0.3730    1.0340 C   0  0  0  0  0  0  0  0  0  0  0  0
   -0.8820   -1.4370    0.8640 O   0  0  0  0  0  0  0  0  0  0  0  0
   -0.8330   -0.2120   -1.1720 H   0  0  0  0  0  0  0  0  0  0  0  0
   -0.5250    1.3600   -2.0930 H   0  0  0  0  0  0  0  0  0  0  0  0
    0.3540   -0.1540   -2.5110 H   0  0  0  0  0  0  0  0  0  0  0  0
    1.9950    0.8380   -1.2300 H   0  0  0  0  0  0  0  0  0  0  0  0
    1.1110    2.7540   -0.6940 H   0  0  0  0  0  0  0  0  0  0  0  0
    1.9140   -0.0250    1.0580 H   0  0  0  0  0  0  0  0  0  0  0  0
    0.7220   -1.8700   -1.0850 H   0  0  0  0  0  0  0  0  0  0  0  0
   -0.8660   -0.2420    6.0160 N   0  0  0  0  0  0  0  0  0  0  0  0
   -1.0770   -0.2700    4.6140 C   0  0  0  0  0  0  0  0  0  0  0  0
   -0.5410   -1.1710    3.9280 O   0  0  0  0  0  0  0  0  0  0  0  0
   -1.9210    0.7580    3.9700 C   0  0  0  0  0  0  0  0  0  0  0  0
   -2.0340    0.5770    2.4810 C   0  0  2  0  0  0  0  0  0  0  0  0
   -0.7580    0.6410    1.8280 N   0  0  0  0  0  0  0  0  0  0  0  0
   -2.9680    1.6300    1.9860 C   0  0  0  0  0  0  0  0  0  0  0  0
   -2.6620    2.4610    1.1100 O   0  0  0  0  0  0  0  0  0  0  0  0
   -4.2410    1.6590    2.5550 O   0  0  0  0  0  0  0  0  0  0  0  0
   -0.3460   -0.9920    6.5260 H   0  0  0  0  0  0  0  0  0  0  0  0
   -1.2390    0.5540    6.5880 H   0  0  0  0  0  0  0  0  0  0  0  0
   -1.5060    1.7900    4.1720 H   0  0  0  0  0  0  0  0  0  0  0  0
   -2.9180    0.7600    4.4560 H   0  0  0  0  0  0  0  0  0  0  0  0
   -2.5400   -0.4000    2.3000 H   0  0  0  0  0  0  0  0  0  0  0  0
   -0.2000    1.5220    1.9660 H   0  0  0  0  0  0  0  0  0  0  0  0
  1  2  1  0  0  0  0
  2  9  1  1  0  0  0
  2  5  1  0  0  0  0
  3  2  1  0  0  0  0
  3 11  1  0  0  0  0
  4  3  1  0  0  0  0
  5  6  2  0  0  0  0
  7  1  1  0  0  0  0
  8  1  1  0  0  0  0
 10  3  1  0  0  0  0
 12  4  1  0  0  0  0
 13 20  1  0  0  0  0
 13 14  1  0  0  0  0
 14 23  1  6  0  0  0
 14 15  1  0  0  0  0
 14 16  1  0  0  0  0
 16 18  1  0  0  0  0
 16 25  1  1  0  0  0
 17  5  1  0  0  0  0
 17 16  1  0  0  0  0
 18 32  1  0  0  0  0
 19 18  2  0  0  0  0
 21 13  1  0  0  0  0
 22 13  1  0  0  0  0
 24 15  1  0  0  0  0
 26 17  1  0  0  0  0
 27 36  1  0  0  0  0
 27 37  1  0  0  0  0
 28 27  1  0  0  0  0
 29 28  2  0  0  0  0
 30 38  1  0  0  0  0
 30 39  1  0  0  0  0
 30 28  1  0  0  0  0
 31 40  1  6  0  0  0
 31 30  1  0  0  0  0
 32 41  1  0  0  0  0
 32 31  1  0  0  0  0
 33 31  1  0  0  0  0
 33 35  1  0  0  0  0
 34 33  2  0  0  0  0
M  END
$$$$
