CTQ.pdb
 OpenBabel07022418293D

 44 43  0  0  1  0  0  0  0  0999 V2000
    1.0770   -3.7970   -2.9480 N   0  0  0  0  0  0  0  0  0  0  0  0
    0.8780   -2.4190   -2.4470 C   0  0  1  0  0  0  0  0  0  0  0  0
   -0.6100   -2.2860   -2.2700 C   0  0  0  0  0  0  0  0  0  0  0  0
   -1.1610   -0.6910   -1.6810 S   0  0  0  0  0  0  0  0  0  0  0  0
    1.6650   -2.2290   -1.2100 C   0  0  0  0  0  0  0  0  0  0  0  0
    2.3220   -3.2500   -0.7820 O   0  0  0  0  0  0  0  0  0  0  0  0
    0.2840   -4.0220   -3.5730 H   0  0  0  0  0  0  0  0  0  0  0  0
    1.0180   -4.4290   -2.1210 H   0  0  0  0  0  0  0  0  0  0  0  0
    1.1820   -1.7130   -3.2570 H   0  0  0  0  0  0  0  0  0  0  0  0
   -1.0500   -2.4360   -3.2920 H   0  0  0  0  0  0  0  0  0  0  0  0
   -1.0170   -3.1310   -1.6600 H   0  0  0  0  0  0  0  0  0  0  0  0
   -2.0810   -0.8200   -0.6200 H   0  0  0  0  0  0  0  0  0  0  0  0
    3.2750    1.4470    0.2870 C   0  0  0  0  0  0  0  0  0  0  0  0
    3.6670    0.0500    0.5600 C   0  0  1  0  0  0  0  0  0  0  0  0
    4.3590    0.0180    1.7850 O   0  0  0  0  0  0  0  0  0  0  0  0
    2.5250   -0.9220    0.6850 C   0  0  2  0  0  0  0  0  0  0  0  0
    1.7180   -0.9980   -0.5060 N   0  0  0  0  0  0  0  0  0  0  0  0
    1.7350   -0.6970    1.9260 C   0  0  0  0  0  0  0  0  0  0  0  0
    2.3250   -0.6010    3.0580 O   0  0  0  0  0  0  0  0  0  0  0  0
    3.2640    2.0980    1.2090 H   0  0  0  0  0  0  0  0  0  0  0  0
    4.0680    1.9240   -0.3610 H   0  0  0  0  0  0  0  0  0  0  0  0
    2.3300    1.6070   -0.2210 H   0  0  0  0  0  0  0  0  0  0  0  0
    4.3790   -0.3130   -0.2100 H   0  0  0  0  0  0  0  0  0  0  0  0
    5.3040   -0.1780    1.6690 H   0  0  0  0  0  0  0  0  0  0  0  0
    2.9990   -1.9140    0.8280 H   0  0  0  0  0  0  0  0  0  0  0  0
    1.1690   -0.1780   -0.8750 H   0  0  0  0  0  0  0  0  0  0  0  0
   -3.9510    2.6770    1.3810 N   0  0  0  0  0  0  0  0  0  0  0  0
   -2.9140    2.3430    2.3180 C   0  0  0  0  0  0  0  0  0  0  0  0
   -2.6750    3.1900    3.2100 O   0  0  0  0  0  0  0  0  0  0  0  0
   -2.2020    1.0540    2.1880 C   0  0  0  0  0  0  0  0  0  0  0  0
   -1.1660    0.9240    3.2740 C   0  0  0  0  0  0  0  0  0  0  0  0
   -0.3950   -0.3530    3.2170 C   0  0  2  0  0  0  0  0  0  0  0  0
    0.3390   -0.5700    2.0080 N   0  0  0  0  0  0  0  0  0  0  0  0
   -1.2460   -1.5480    3.5630 C   0  0  0  0  0  0  0  0  0  0  0  0
   -1.9680   -1.5790    4.5720 O   0  0  0  0  0  0  0  0  0  0  0  0
   -1.2530   -2.6860    2.7480 O   0  0  0  0  0  0  0  0  0  0  0  0
   -3.9660    3.6450    1.0230 H   0  0  0  0  0  0  0  0  0  0  0  0
   -4.6240    1.9260    1.1190 H   0  0  0  0  0  0  0  0  0  0  0  0
   -2.9720    0.2540    2.3400 H   0  0  0  0  0  0  0  0  0  0  0  0
   -1.8190    0.9330    1.1790 H   0  0  0  0  0  0  0  0  0  0  0  0
   -1.7390    0.9220    4.2290 H   0  0  0  0  0  0  0  0  0  0  0  0
   -0.4800    1.7680    3.3320 H   0  0  0  0  0  0  0  0  0  0  0  0
    0.3640   -0.3130    4.0310 H   0  0  0  0  0  0  0  0  0  0  0  0
   -0.2070   -0.6380    1.1230 H   0  0  0  0  0  0  0  0  0  0  0  0
  1  2  1  0  0  0  0
  1  8  1  0  0  0  0
  2  9  1  6  0  0  0
  2  3  1  0  0  0  0
  2  5  1  0  0  0  0
  3  4  1  0  0  0  0
  3 11  1  0  0  0  0
  4 12  1  0  0  0  0
  5  6  2  0  0  0  0
  5 17  1  0  0  0  0
  7  1  1  0  0  0  0
 10  3  1  0  0  0  0
 13 14  1  0  0  0  0
 13 20  1  0  0  0  0
 14 23  1  6  0  0  0
 14 16  1  0  0  0  0
 14 15  1  0  0  0  0
 16 25  1  1  0  0  0
 16 18  1  0  0  0  0
 17 16  1  0  0  0  0
 18 33  1  0  0  0  0
 18 19  2  0  0  0  0
 21 13  1  0  0  0  0
 22 13  1  0  0  0  0
 24 15  1  0  0  0  0
 26 17  1  0  0  0  0
 27 28  1  0  0  0  0
 28 29  2  0  0  0  0
 30 28  1  0  0  0  0
 30 39  1  0  0  0  0
 30 31  1  0  0  0  0
 31 42  1  0  0  0  0
 31 41  1  0  0  0  0
 32 31  1  0  0  0  0
 32 34  1  0  0  0  0
 32 43  1  1  0  0  0
 33 32  1  0  0  0  0
 34 35  1  0  0  0  0
 36 34  2  0  0  0  0
 37 27  1  0  0  0  0
 38 27  1  0  0  0  0
 40 30  1  0  0  0  0
 44 33  1  0  0  0  0
M  END
$$$$
