CTS.pdb
 OpenBabel07022418293D

 38 37  0  0  1  0  0  0  0  0999 V2000
    1.2560   -4.7970    2.9840 N   0  0  0  0  0  0  0  0  0  0  0  0
    0.3940   -4.1560    1.9720 C   0  0  1  0  0  0  0  0  0  0  0  0
   -1.0160   -4.0940    2.5230 C   0  0  0  0  0  0  0  0  0  0  0  0
   -2.1850   -3.3320    1.3780 S   0  0  0  0  0  0  0  0  0  0  0  0
    0.9810   -2.8240    1.7030 C   0  0  0  0  0  0  0  0  0  0  0  0
    1.9800   -2.4030    2.3780 O   0  0  0  0  0  0  0  0  0  0  0  0
    1.2650   -4.1260    3.7890 H   0  0  0  0  0  0  0  0  0  0  0  0
    2.2270   -4.8390    2.6180 H   0  0  0  0  0  0  0  0  0  0  0  0
    0.3590   -4.7450    1.0410 H   0  0  0  0  0  0  0  0  0  0  0  0
   -1.0540   -3.6180    3.5210 H   0  0  0  0  0  0  0  0  0  0  0  0
   -1.3370   -5.1460    2.6670 H   0  0  0  0  0  0  0  0  0  0  0  0
   -3.2640   -2.7550    2.0540 H   0  0  0  0  0  0  0  0  0  0  0  0
    2.6440   -1.8270   -1.0700 C   0  0  0  0  0  0  0  0  0  0  0  0
    1.6490   -0.6910   -0.9630 C   0  0  1  0  0  0  0  0  0  0  0  0
    0.5610   -0.9660   -1.8220 O   0  0  0  0  0  0  0  0  0  0  0  0
    1.0900   -0.6350    0.4640 C   0  0  2  0  0  0  0  0  0  0  0  0
    0.5020   -1.9460    0.7170 N   0  0  0  0  0  0  0  0  0  0  0  0
    0.0030    0.3570    0.5670 C   0  0  0  0  0  0  0  0  0  0  0  0
   -1.1990    0.0380    0.8320 O   0  0  0  0  0  0  0  0  0  0  0  0
    2.7110   -2.2050   -2.1300 H   0  0  0  0  0  0  0  0  0  0  0  0
    3.6650   -1.5060   -0.7530 H   0  0  0  0  0  0  0  0  0  0  0  0
    2.3680   -2.6910   -0.4180 H   0  0  0  0  0  0  0  0  0  0  0  0
    2.1340    0.2470   -1.2350 H   0  0  0  0  0  0  0  0  0  0  0  0
    0.8210   -0.6790   -2.7420 H   0  0  0  0  0  0  0  0  0  0  0  0
    1.9440   -0.4300    1.1390 H   0  0  0  0  0  0  0  0  0  0  0  0
   -0.3020   -2.2280    0.1300 H   0  0  0  0  0  0  0  0  0  0  0  0
   -0.5400    2.8140    2.8520 O   0  0  0  0  0  0  0  0  0  0  0  0
   -0.5360    3.6000    1.7080 C   0  0  0  0  0  0  0  0  0  0  0  0
   -0.8050    2.7460    0.4670 C   0  0  2  0  0  0  0  0  0  0  0  0
    0.2220    1.7610    0.3750 N   0  0  0  0  0  0  0  0  0  0  0  0
   -1.0000    3.5530   -0.7260 C   0  0  0  0  0  0  0  0  0  0  0  0
   -0.3000    3.3710   -1.7440 O   0  0  0  0  0  0  0  0  0  0  0  0
   -1.9640    4.5380   -0.7590 O   0  0  0  0  0  0  0  0  0  0  0  0
   -0.7490    3.3420    3.6570 H   0  0  0  0  0  0  0  0  0  0  0  0
   -1.3550    4.3640    1.7280 H   0  0  0  0  0  0  0  0  0  0  0  0
    0.4110    4.1750    1.5980 H   0  0  0  0  0  0  0  0  0  0  0  0
   -1.7620    2.1970    0.7090 H   0  0  0  0  0  0  0  0  0  0  0  0
    1.2000    2.0530    0.1560 H   0  0  0  0  0  0  0  0  0  0  0  0
  1  7  1  0  0  0  0
  2  9  1  6  0  0  0
  2  3  1  0  0  0  0
  2  1  1  0  0  0  0
  3 11  1  0  0  0  0
  3 10  1  0  0  0  0
  4 12  1  0  0  0  0
  4  3  1  0  0  0  0
  5  2  1  0  0  0  0
  5  6  2  0  0  0  0
  8  1  1  0  0  0  0
 13 14  1  0  0  0  0
 13 21  1  0  0  0  0
 13 22  1  0  0  0  0
 14 23  1  6  0  0  0
 14 16  1  0  0  0  0
 15 14  1  0  0  0  0
 16 18  1  0  0  0  0
 16 17  1  0  0  0  0
 16 25  1  1  0  0  0
 17  5  1  0  0  0  0
 18 19  2  0  0  0  0
 20 13  1  0  0  0  0
 24 15  1  0  0  0  0
 26 17  1  0  0  0  0
 27 34  1  0  0  0  0
 28 35  1  0  0  0  0
 28 27  1  0  0  0  0
 29 37  1  1  0  0  0
 29 28  1  0  0  0  0
 30 29  1  0  0  0  0
 30 18  1  0  0  0  0
 31 29  1  0  0  0  0
 32 31  2  0  0  0  0
 33 31  1  0  0  0  0
 36 28  1  0  0  0  0
 38 30  1  0  0  0  0
M  END
$$$$
