CTV.pdb
 OpenBabel07022418293D

 43 42  0  0  1  0  0  0  0  0999 V2000
    1.9230   -3.5540    0.3070 N   0  0  0  0  0  0  0  0  0  0  0  0
    1.0650   -3.6040   -0.8500 C   0  0  1  0  0  0  0  0  0  0  0  0
    0.3690   -4.9710   -0.8100 C   0  0  0  0  0  0  0  0  0  0  0  0
   -0.7470   -5.1970   -2.1970 S   0  0  0  0  0  0  0  0  0  0  0  0
   -0.0290   -2.5950   -0.7920 C   0  0  0  0  0  0  0  0  0  0  0  0
   -0.8220   -2.5740   -1.7680 O   0  0  0  0  0  0  0  0  0  0  0  0
    1.5070   -3.9490    1.1650 H   0  0  0  0  0  0  0  0  0  0  0  0
    2.8950   -3.8600    0.1090 H   0  0  0  0  0  0  0  0  0  0  0  0
    1.6460   -3.5710   -1.7700 H   0  0  0  0  0  0  0  0  0  0  0  0
   -0.1950   -5.0550    0.1490 H   0  0  0  0  0  0  0  0  0  0  0  0
    1.1750   -5.7340   -0.7740 H   0  0  0  0  0  0  0  0  0  0  0  0
   -0.1150   -5.9050   -3.2180 H   0  0  0  0  0  0  0  0  0  0  0  0
   -1.4000   -0.6970    2.7190 C   0  0  0  0  0  0  0  0  0  0  0  0
   -2.2060   -0.9790    1.4700 C   0  0  1  0  0  0  0  0  0  0  0  0
   -3.2050   -0.0140    1.3180 O   0  0  0  0  0  0  0  0  0  0  0  0
   -1.2490   -0.7630    0.2870 C   0  0  2  0  0  0  0  0  0  0  0  0
   -0.1750   -1.6920    0.3180 N   0  0  0  0  0  0  0  0  0  0  0  0
   -0.8500    0.6460    0.3430 C   0  0  0  0  0  0  0  0  0  0  0  0
   -1.7480    1.5210    0.3220 O   0  0  0  0  0  0  0  0  0  0  0  0
   -1.5860    0.3470    3.0640 H   0  0  0  0  0  0  0  0  0  0  0  0
   -0.3140   -0.7940    2.5900 H   0  0  0  0  0  0  0  0  0  0  0  0
   -1.6910   -1.4270    3.5250 H   0  0  0  0  0  0  0  0  0  0  0  0
   -2.6470   -1.9830    1.4490 H   0  0  0  0  0  0  0  0  0  0  0  0
   -3.9800   -0.3440    1.8540 H   0  0  0  0  0  0  0  0  0  0  0  0
   -1.8520   -0.8780   -0.6610 H   0  0  0  0  0  0  0  0  0  0  0  0
    0.5340   -1.8060    1.0520 H   0  0  0  0  0  0  0  0  0  0  0  0
    0.5670    2.3390    2.9080 C   0  0  0  0  0  0  0  0  0  0  0  0
    1.6070    2.5760    1.8370 C   0  0  0  0  0  0  0  0  0  0  0  0
    2.8060    1.6780    2.0100 C   0  0  0  0  0  0  0  0  0  0  0  0
    0.9810    2.3790    0.4750 C   0  0  2  0  0  0  0  0  0  0  0  0
    0.4940    1.0140    0.4170 N   0  0  0  0  0  0  0  0  0  0  0  0
    1.8900    2.7040   -0.6230 C   0  0  0  0  0  0  0  0  0  0  0  0
    2.1640    1.8300   -1.4790 O   0  0  0  0  0  0  0  0  0  0  0  0
    2.4750    3.9480   -0.7710 O   0  0  0  0  0  0  0  0  0  0  0  0
    0.6470    1.2850    3.2930 H   0  0  0  0  0  0  0  0  0  0  0  0
    0.7240    3.0430    3.7710 H   0  0  0  0  0  0  0  0  0  0  0  0
   -0.4650    2.4670    2.5590 H   0  0  0  0  0  0  0  0  0  0  0  0
    1.9470    3.6280    1.9270 H   0  0  0  0  0  0  0  0  0  0  0  0
    2.4890    0.6680    2.3300 H   0  0  0  0  0  0  0  0  0  0  0  0
    3.3150    1.5870    1.0390 H   0  0  0  0  0  0  0  0  0  0  0  0
    3.4860    2.0850    2.8110 H   0  0  0  0  0  0  0  0  0  0  0  0
    0.0550    3.0260    0.4630 H   0  0  0  0  0  0  0  0  0  0  0  0
    1.2140    0.2650    0.4330 H   0  0  0  0  0  0  0  0  0  0  0  0
  1  7  1  0  0  0  0
  2  9  1  6  0  0  0
  2  3  1  0  0  0  0
  2  5  1  0  0  0  0
  2  1  1  0  0  0  0
  3 11  1  0  0  0  0
  3 10  1  0  0  0  0
  4  3  1  0  0  0  0
  5 17  1  0  0  0  0
  6  5  2  0  0  0  0
  8  1  1  0  0  0  0
 12  4  1  0  0  0  0
 13 20  1  0  0  0  0
 13 22  1  0  0  0  0
 14 23  1  1  0  0  0
 14 13  1  0  0  0  0
 15 14  1  0  0  0  0
 15 24  1  0  0  0  0
 16 25  1  6  0  0  0
 16 17  1  0  0  0  0
 16 18  1  0  0  0  0
 16 14  1  0  0  0  0
 17 26  1  0  0  0  0
 18 31  1  0  0  0  0
 19 18  2  0  0  0  0
 21 13  1  0  0  0  0
 27 35  1  0  0  0  0
 27 36  1  0  0  0  0
 28 38  1  0  0  0  0
 28 29  1  0  0  0  0
 28 27  1  0  0  0  0
 29 39  1  0  0  0  0
 29 41  1  0  0  0  0
 30 42  1  6  0  0  0
 30 28  1  0  0  0  0
 31 43  1  0  0  0  0
 31 30  1  0  0  0  0
 32 30  1  0  0  0  0
 33 32  2  0  0  0  0
 34 32  1  0  0  0  0
 37 27  1  0  0  0  0
 40 29  1  0  0  0  0
M  END
$$$$
