CVA.pdb
 OpenBabel07022418303D

 39 38  0  0  1  0  0  0  0  0999 V2000
   -0.2490   -4.2690    3.4210 N   0  0  0  0  0  0  0  0  0  0  0  0
    0.4290   -3.0820    2.9610 C   0  0  1  0  0  0  0  0  0  0  0  0
    1.7500   -3.5730    2.3380 C   0  0  0  0  0  0  0  0  0  0  0  0
    1.3020   -4.6880    0.9770 S   0  0  0  0  0  0  0  0  0  0  0  0
   -0.3210   -2.5030    1.7770 C   0  0  0  0  0  0  0  0  0  0  0  0
   -1.2840   -3.1970    1.4040 O   0  0  0  0  0  0  0  0  0  0  0  0
   -0.9450   -4.5470    2.7000 H   0  0  0  0  0  0  0  0  0  0  0  0
   -0.8570   -3.9320    4.2330 H   0  0  0  0  0  0  0  0  0  0  0  0
    0.5730   -2.3190    3.7370 H   0  0  0  0  0  0  0  0  0  0  0  0
    2.2890   -4.1520    3.0980 H   0  0  0  0  0  0  0  0  0  0  0  0
    2.2950   -2.7100    1.9370 H   0  0  0  0  0  0  0  0  0  0  0  0
    2.1960   -4.5780   -0.1010 H   0  0  0  0  0  0  0  0  0  0  0  0
   -2.4300   -1.9360   -0.6990 C   0  0  0  0  0  0  0  0  0  0  0  0
   -1.8740   -0.6310   -0.2270 C   0  0  0  0  0  0  0  0  0  0  0  0
   -2.4130    0.4590   -1.1130 C   0  0  0  0  0  0  0  0  0  0  0  0
   -0.4320   -0.5830    0.0840 C   0  0  2  0  0  0  0  0  0  0  0  0
    0.0690   -1.3090    1.1910 N   0  0  0  0  0  0  0  0  0  0  0  0
    0.2280    0.6840   -0.1780 C   0  0  0  0  0  0  0  0  0  0  0  0
   -0.1280    1.3170   -1.2320 O   0  0  0  0  0  0  0  0  0  0  0  0
   -3.2350   -2.3460   -0.0970 H   0  0  0  0  0  0  0  0  0  0  0  0
   -2.9620   -1.7200   -1.7330 H   0  0  0  0  0  0  0  0  0  0  0  0
   -1.6480   -2.6910   -0.9910 H   0  0  0  0  0  0  0  0  0  0  0  0
   -2.4260   -0.4460    0.7730 H   0  0  0  0  0  0  0  0  0  0  0  0
   -2.3960    1.4700   -0.6540 H   0  0  0  0  0  0  0  0  0  0  0  0
   -3.5340    0.2660   -1.2840 H   0  0  0  0  0  0  0  0  0  0  0  0
   -2.0060    0.5070   -2.1200 H   0  0  0  0  0  0  0  0  0  0  0  0
   -0.0330   -1.2790   -0.8220 H   0  0  0  0  0  0  0  0  0  0  0  0
    0.9660   -0.8810    1.7050 H   0  0  0  0  0  0  0  0  0  0  0  0
    1.4430    3.5820    1.2970 C   0  0  0  0  0  0  0  0  0  0  0  0
    1.7950    2.6300    0.1700 C   0  0  2  0  0  0  0  0  0  0  0  0
    1.2270    1.3540    0.5590 N   0  0  0  0  0  0  0  0  0  0  0  0
    3.2560    2.6510   -0.0010 C   0  0  0  0  0  0  0  0  0  0  0  0
    3.9090    1.5960    0.2330 O   0  0  0  0  0  0  0  0  0  0  0  0
    3.8460    3.8270   -0.4100 O   0  0  0  0  0  0  0  0  0  0  0  0
    1.7950    3.1340    2.2680 H   0  0  0  0  0  0  0  0  0  0  0  0
    1.9240    4.5830    1.1400 H   0  0  0  0  0  0  0  0  0  0  0  0
    0.3500    3.6800    1.3820 H   0  0  0  0  0  0  0  0  0  0  0  0
    1.3330    3.0130   -0.7770 H   0  0  0  0  0  0  0  0  0  0  0  0
    1.5700    0.9160    1.4310 H   0  0  0  0  0  0  0  0  0  0  0  0
  1  8  1  0  0  0  0
  2  1  1  0  0  0  0
  2  9  1  1  0  0  0
  3  2  1  0  0  0  0
  3 10  1  0  0  0  0
  4  3  1  0  0  0  0
  5  2  1  0  0  0  0
  6  5  2  0  0  0  0
  7  1  1  0  0  0  0
 11  3  1  0  0  0  0
 12  4  1  0  0  0  0
 13 14  1  0  0  0  0
 13 20  1  0  0  0  0
 14 16  1  0  0  0  0
 14 23  1  0  0  0  0
 15 24  1  0  0  0  0
 15 14  1  0  0  0  0
 16 27  1  6  0  0  0
 16 17  1  0  0  0  0
 17 28  1  0  0  0  0
 17  5  1  0  0  0  0
 18 16  1  0  0  0  0
 18 31  1  0  0  0  0
 19 18  2  0  0  0  0
 21 13  1  0  0  0  0
 22 13  1  0  0  0  0
 25 15  1  0  0  0  0
 26 15  1  0  0  0  0
 29 37  1  0  0  0  0
 29 35  1  0  0  0  0
 30 38  1  6  0  0  0
 30 31  1  0  0  0  0
 30 29  1  0  0  0  0
 31 39  1  0  0  0  0
 32 30  1  0  0  0  0
 32 33  1  0  0  0  0
 34 32  2  0  0  0  0
 36 29  1  0  0  0  0
M  END
$$$$
