CVL.pdb
 OpenBabel07022418303D

 48 47  0  0  1  0  0  0  0  0999 V2000
    3.3130   -4.5500    1.5180 N   0  0  0  0  0  0  0  0  0  0  0  0
    2.0820   -4.1690    0.7680 C   0  0  1  0  0  0  0  0  0  0  0  0
    0.9590   -4.6680    1.6230 C   0  0  0  0  0  0  0  0  0  0  0  0
   -0.6350   -4.3280    0.8730 S   0  0  0  0  0  0  0  0  0  0  0  0
    2.1100   -2.7010    0.6050 C   0  0  0  0  0  0  0  0  0  0  0  0
    3.0480   -2.0460    1.1670 O   0  0  0  0  0  0  0  0  0  0  0  0
    4.0680   -3.8450    1.3070 H   0  0  0  0  0  0  0  0  0  0  0  0
    3.1220   -4.5950    2.5330 H   0  0  0  0  0  0  0  0  0  0  0  0
    2.1550   -4.6900   -0.1880 H   0  0  0  0  0  0  0  0  0  0  0  0
    1.0410   -5.7790    1.7680 H   0  0  0  0  0  0  0  0  0  0  0  0
    1.0090   -4.2640    2.6680 H   0  0  0  0  0  0  0  0  0  0  0  0
   -0.6440   -4.7310   -0.4670 H   0  0  0  0  0  0  0  0  0  0  0  0
    0.4630   -0.8240   -2.5970 C   0  0  0  0  0  0  0  0  0  0  0  0
    1.5900   -0.3060   -1.7320 C   0  0  0  0  0  0  0  0  0  0  0  0
    1.8240    1.1460   -1.9880 C   0  0  0  0  0  0  0  0  0  0  0  0
    1.2560   -0.5830   -0.2670 C   0  0  2  0  0  0  0  0  0  0  0  0
    1.1220   -2.0150   -0.1630 N   0  0  0  0  0  0  0  0  0  0  0  0
    0.0700    0.1930    0.1330 C   0  0  0  0  0  0  0  0  0  0  0  0
    0.1510    1.4400    0.0740 O   0  0  0  0  0  0  0  0  0  0  0  0
    0.7370   -1.7890   -3.0740 H   0  0  0  0  0  0  0  0  0  0  0  0
   -0.4730   -0.9570   -2.0330 H   0  0  0  0  0  0  0  0  0  0  0  0
    0.2530   -0.1000   -3.4250 H   0  0  0  0  0  0  0  0  0  0  0  0
    2.5300   -0.8640   -1.9470 H   0  0  0  0  0  0  0  0  0  0  0  0
    2.3920    1.2240   -2.9570 H   0  0  0  0  0  0  0  0  0  0  0  0
    0.8530    1.6870   -2.1430 H   0  0  0  0  0  0  0  0  0  0  0  0
    2.4270    1.6080   -1.1970 H   0  0  0  0  0  0  0  0  0  0  0  0
    2.1270   -0.2350    0.3300 H   0  0  0  0  0  0  0  0  0  0  0  0
    0.3570   -2.5550   -0.6160 H   0  0  0  0  0  0  0  0  0  0  0  0
   -1.4430    2.7030    3.8370 C   0  0  0  0  0  0  0  0  0  0  0  0
   -1.5100    1.3200    3.1570 C   0  0  0  0  0  0  0  0  0  0  0  0
   -0.1270    0.7710    3.2060 C   0  0  0  0  0  0  0  0  0  0  0  0
   -2.1400    1.5020    1.8260 C   0  0  0  0  0  0  0  0  0  0  0  0
   -2.2980    0.2690    0.9800 C   0  0  2  0  0  0  0  0  0  0  0  0
   -1.1310   -0.4120    0.5730 N   0  0  0  0  0  0  0  0  0  0  0  0
   -3.1740    0.5540   -0.1530 C   0  0  0  0  0  0  0  0  0  0  0  0
   -2.8590    0.2050   -1.3110 O   0  0  0  0  0  0  0  0  0  0  0  0
   -4.3850    1.2230    0.0250 O   0  0  0  0  0  0  0  0  0  0  0  0
   -2.4170    2.9250    4.3120 H   0  0  0  0  0  0  0  0  0  0  0  0
   -0.5880    2.7460    4.5370 H   0  0  0  0  0  0  0  0  0  0  0  0
   -1.2550    3.4210    3.0110 H   0  0  0  0  0  0  0  0  0  0  0  0
   -2.1900    0.6710    3.7780 H   0  0  0  0  0  0  0  0  0  0  0  0
   -0.0430   -0.3010    2.9400 H   0  0  0  0  0  0  0  0  0  0  0  0
    0.1540    0.7770    4.3120 H   0  0  0  0  0  0  0  0  0  0  0  0
    0.6150    1.4300    2.7300 H   0  0  0  0  0  0  0  0  0  0  0  0
   -3.1900    1.8540    2.0210 H   0  0  0  0  0  0  0  0  0  0  0  0
   -1.6760    2.3460    1.2560 H   0  0  0  0  0  0  0  0  0  0  0  0
   -2.8220   -0.4440    1.7210 H   0  0  0  0  0  0  0  0  0  0  0  0
   -1.1290   -1.4490    0.5820 H   0  0  0  0  0  0  0  0  0  0  0  0
  1  8  1  0  0  0  0
  2  9  1  6  0  0  0
  2  1  1  0  0  0  0
  2  3  1  0  0  0  0
  3 10  1  0  0  0  0
  3 11  1  0  0  0  0
  4  3  1  0  0  0  0
  5  2  1  0  0  0  0
  5  6  2  0  0  0  0
  7  1  1  0  0  0  0
 12  4  1  0  0  0  0
 13 21  1  0  0  0  0
 13 14  1  0  0  0  0
 14 16  1  0  0  0  0
 15 14  1  0  0  0  0
 15 26  1  0  0  0  0
 16 17  1  0  0  0  0
 16 18  1  0  0  0  0
 16 27  1  1  0  0  0
 17  5  1  0  0  0  0
 18 34  1  0  0  0  0
 19 18  2  0  0  0  0
 20 13  1  0  0  0  0
 22 13  1  0  0  0  0
 23 14  1  0  0  0  0
 24 15  1  0  0  0  0
 25 15  1  0  0  0  0
 28 17  1  0  0  0  0
 29 38  1  0  0  0  0
 29 39  1  0  0  0  0
 30 31  1  0  0  0  0
 30 41  1  0  0  0  0
 30 29  1  0  0  0  0
 31 43  1  0  0  0  0
 32 45  1  0  0  0  0
 32 30  1  0  0  0  0
 33 47  1  1  0  0  0
 33 32  1  0  0  0  0
 34 48  1  0  0  0  0
 34 33  1  0  0  0  0
 35 37  1  0  0  0  0
 35 33  1  0  0  0  0
 36 35  2  0  0  0  0
 40 29  1  0  0  0  0
 42 31  1  0  0  0  0
 44 31  1  0  0  0  0
 46 32  1  0  0  0  0
M  END
$$$$
