CVM.pdb
 OpenBabel07022418303D

 46 45  0  0  1  0  0  0  0  0999 V2000
    1.3550   -5.3730   -0.7370 N   0  0  0  0  0  0  0  0  0  0  0  0
    0.9530   -3.9680   -0.9280 C   0  0  1  0  0  0  0  0  0  0  0  0
   -0.4980   -3.9550   -1.2190 C   0  0  0  0  0  0  0  0  0  0  0  0
   -1.1880   -2.3090   -1.4970 S   0  0  0  0  0  0  0  0  0  0  0  0
    1.4240   -3.2030    0.2130 C   0  0  0  0  0  0  0  0  0  0  0  0
    2.0170   -3.8380    1.1530 O   0  0  0  0  0  0  0  0  0  0  0  0
    2.2910   -5.4300   -0.2960 H   0  0  0  0  0  0  0  0  0  0  0  0
    0.6170   -5.9290   -0.2750 H   0  0  0  0  0  0  0  0  0  0  0  0
    1.4860   -3.5930   -1.8310 H   0  0  0  0  0  0  0  0  0  0  0  0
   -0.6680   -4.5350   -2.1740 H   0  0  0  0  0  0  0  0  0  0  0  0
   -1.1220   -4.4860   -0.4730 H   0  0  0  0  0  0  0  0  0  0  0  0
   -1.3970   -2.0800   -2.8500 H   0  0  0  0  0  0  0  0  0  0  0  0
    2.4110    0.7750    0.2670 C   0  0  0  0  0  0  0  0  0  0  0  0
    2.9690   -0.2580    1.2020 C   0  0  0  0  0  0  0  0  0  0  0  0
    3.5710    0.4340    2.3730 C   0  0  0  0  0  0  0  0  0  0  0  0
    1.8340   -1.1860    1.6070 C   0  0  2  0  0  0  0  0  0  0  0  0
    1.3030   -1.8040    0.4150 N   0  0  0  0  0  0  0  0  0  0  0  0
    0.8210   -0.3950    2.3050 C   0  0  0  0  0  0  0  0  0  0  0  0
    1.1300    0.1940    3.3700 O   0  0  0  0  0  0  0  0  0  0  0  0
    2.9160    0.6370   -0.7180 H   0  0  0  0  0  0  0  0  0  0  0  0
    1.3290    0.6800    0.1670 H   0  0  0  0  0  0  0  0  0  0  0  0
    2.6330    1.8120    0.6150 H   0  0  0  0  0  0  0  0  0  0  0  0
    3.7570   -0.8750    0.7210 H   0  0  0  0  0  0  0  0  0  0  0  0
    4.5660    0.8440    2.0160 H   0  0  0  0  0  0  0  0  0  0  0  0
    3.0250    1.3520    2.7000 H   0  0  0  0  0  0  0  0  0  0  0  0
    3.8330   -0.2170    3.2250 H   0  0  0  0  0  0  0  0  0  0  0  0
    2.2320   -1.9860    2.2810 H   0  0  0  0  0  0  0  0  0  0  0  0
    0.8180   -1.2670   -0.3390 H   0  0  0  0  0  0  0  0  0  0  0  0
   -2.6080    3.2110   -1.1140 C   0  0  0  0  0  0  0  0  0  0  0  0
   -2.0030    3.9840    0.4280 S   0  0  0  0  0  0  0  0  0  0  0  0
   -1.1160    2.6860    1.3370 C   0  0  0  0  0  0  0  0  0  0  0  0
   -2.1180    1.6420    1.7440 C   0  0  0  0  0  0  0  0  0  0  0  0
   -1.5190    0.5140    2.5050 C   0  0  2  0  0  0  0  0  0  0  0  0
   -0.5070   -0.2450    1.8540 N   0  0  0  0  0  0  0  0  0  0  0  0
   -2.6150   -0.3160    3.0570 C   0  0  0  0  0  0  0  0  0  0  0  0
   -2.5360   -1.5620    2.9170 O   0  0  0  0  0  0  0  0  0  0  0  0
   -3.7050    0.2220    3.7120 O   0  0  0  0  0  0  0  0  0  0  0  0
   -3.5100    3.6970   -1.4940 H   0  0  0  0  0  0  0  0  0  0  0  0
   -1.7540    3.2020   -1.8300 H   0  0  0  0  0  0  0  0  0  0  0  0
   -2.8780    2.1430   -0.9370 H   0  0  0  0  0  0  0  0  0  0  0  0
   -0.6930    3.0930    2.2950 H   0  0  0  0  0  0  0  0  0  0  0  0
   -0.3080    2.3280    0.7040 H   0  0  0  0  0  0  0  0  0  0  0  0
   -2.8250    2.1580    2.4610 H   0  0  0  0  0  0  0  0  0  0  0  0
   -2.7860    1.3150    0.9140 H   0  0  0  0  0  0  0  0  0  0  0  0
   -1.0220    0.9690    3.4150 H   0  0  0  0  0  0  0  0  0  0  0  0
   -0.7620   -0.7350    0.9700 H   0  0  0  0  0  0  0  0  0  0  0  0
  1  7  1  0  0  0  0
  1  8  1  0  0  0  0
  2  9  1  6  0  0  0
  2  1  1  0  0  0  0
  2  5  1  0  0  0  0
  3  2  1  0  0  0  0
  3 11  1  0  0  0  0
  4  3  1  0  0  0  0
  5 17  1  0  0  0  0
  5  6  2  0  0  0  0
 10  3  1  0  0  0  0
 12  4  1  0  0  0  0
 13 22  1  0  0  0  0
 13 14  1  0  0  0  0
 14 16  1  0  0  0  0
 14 15  1  0  0  0  0
 15 25  1  0  0  0  0
 15 26  1  0  0  0  0
 16 27  1  1  0  0  0
 16 18  1  0  0  0  0
 17 16  1  0  0  0  0
 18 19  2  0  0  0  0
 20 13  1  0  0  0  0
 21 13  1  0  0  0  0
 23 14  1  0  0  0  0
 24 15  1  0  0  0  0
 28 17  1  0  0  0  0
 29 40  1  0  0  0  0
 29 30  1  0  0  0  0
 30 31  1  0  0  0  0
 31 32  1  0  0  0  0
 31 41  1  0  0  0  0
 32 43  1  0  0  0  0
 32 33  1  0  0  0  0
 33 35  1  0  0  0  0
 33 45  1  1  0  0  0
 34 18  1  0  0  0  0
 34 33  1  0  0  0  0
 35 37  1  0  0  0  0
 36 35  2  0  0  0  0
 38 29  1  0  0  0  0
 39 29  1  0  0  0  0
 42 31  1  0  0  0  0
 44 32  1  0  0  0  0
 46 34  1  0  0  0  0
M  END
$$$$
