CVY.pdb
 OpenBabel07022418303D

 50 50  0  0  1  0  0  0  0  0999 V2000
    4.1970   -0.1210    2.8400 N   0  0  0  0  0  0  0  0  0  0  0  0
    3.1470   -0.8040    2.1470 C   0  0  1  0  0  0  0  0  0  0  0  0
    1.9520   -0.9520    3.0340 C   0  0  0  0  0  0  0  0  0  0  0  0
    2.3410   -1.8940    4.5210 S   0  0  0  0  0  0  0  0  0  0  0  0
    2.8040   -0.0230    0.9310 C   0  0  0  0  0  0  0  0  0  0  0  0
    3.4100    1.0650    0.6470 O   0  0  0  0  0  0  0  0  0  0  0  0
    5.0800   -0.6690    2.7960 H   0  0  0  0  0  0  0  0  0  0  0  0
    3.8970    0.0830    3.8140 H   0  0  0  0  0  0  0  0  0  0  0  0
    3.5000   -1.8360    1.8730 H   0  0  0  0  0  0  0  0  0  0  0  0
    1.1660   -1.4960    2.4870 H   0  0  0  0  0  0  0  0  0  0  0  0
    1.5640    0.0460    3.3180 H   0  0  0  0  0  0  0  0  0  0  0  0
    2.2530   -3.2850    4.3120 H   0  0  0  0  0  0  0  0  0  0  0  0
    1.3560    0.1050   -3.6340 C   0  0  0  0  0  0  0  0  0  0  0  0
    1.7090   -0.5970   -2.3440 C   0  0  0  0  0  0  0  0  0  0  0  0
    3.1710   -0.9890   -2.3000 C   0  0  0  0  0  0  0  0  0  0  0  0
    1.4440    0.2960   -1.1520 C   0  0  2  0  0  0  0  0  0  0  0  0
    1.8000   -0.4330    0.0300 N   0  0  0  0  0  0  0  0  0  0  0  0
    0.0370    0.7770   -1.1240 C   0  0  0  0  0  0  0  0  0  0  0  0
   -0.4550    1.4360   -2.0750 O   0  0  0  0  0  0  0  0  0  0  0  0
    1.9690   -0.3090   -4.4490 H   0  0  0  0  0  0  0  0  0  0  0  0
    1.4590    1.1880   -3.5010 H   0  0  0  0  0  0  0  0  0  0  0  0
    0.2800   -0.1130   -3.8720 H   0  0  0  0  0  0  0  0  0  0  0  0
    1.1200   -1.5270   -2.2630 H   0  0  0  0  0  0  0  0  0  0  0  0
    3.2690   -1.9250   -1.6980 H   0  0  0  0  0  0  0  0  0  0  0  0
    3.7300   -0.2060   -1.7700 H   0  0  0  0  0  0  0  0  0  0  0  0
    3.5540   -1.1860   -3.3230 H   0  0  0  0  0  0  0  0  0  0  0  0
    2.0830    1.1990   -1.2110 H   0  0  0  0  0  0  0  0  0  0  0  0
    1.2690   -1.3260    0.2200 H   0  0  0  0  0  0  0  0  0  0  0  0
   -2.3870   -4.0770    4.0160 O   0  0  0  0  0  0  0  0  0  0  0  0
   -2.5930   -3.1020    3.0310 C   0  0  0  0  0  0  0  0  0  0  0  0
   -3.4760   -2.0760    3.2320 C   0  0  0  0  0  0  0  0  0  0  0  0
   -3.6550   -1.1420    2.2530 C   0  0  0  0  0  0  0  0  0  0  0  0
   -2.9920   -1.1610    1.0450 C   0  0  0  0  0  0  0  0  0  0  0  0
   -3.1400   -0.1970   -0.0330 C   0  0  0  0  0  0  0  0  0  0  0  0
   -2.2050    0.9810    0.0250 C   0  0  2  0  0  0  0  0  0  0  0  0
   -0.8420    0.5270   -0.0250 N   0  0  0  0  0  0  0  0  0  0  0  0
   -2.4940    1.9260    1.0890 C   0  0  0  0  0  0  0  0  0  0  0  0
   -1.6170    2.2970    1.8800 O   0  0  0  0  0  0  0  0  0  0  0  0
   -2.1110   -2.2080    0.8750 C   0  0  0  0  0  0  0  0  0  0  0  0
   -1.9110   -3.1640    1.8470 C   0  0  0  0  0  0  0  0  0  0  0  0
   -3.7760    2.4230    1.2220 O   0  0  0  0  0  0  0  0  0  0  0  0
   -2.4910   -3.8480    5.0120 H   0  0  0  0  0  0  0  0  0  0  0  0
   -4.0040   -2.0480    4.1760 H   0  0  0  0  0  0  0  0  0  0  0  0
   -4.3550   -0.3430    2.4330 H   0  0  0  0  0  0  0  0  0  0  0  0
   -2.9340   -0.7030   -1.0010 H   0  0  0  0  0  0  0  0  0  0  0  0
   -4.1990    0.1810   -0.1390 H   0  0  0  0  0  0  0  0  0  0  0  0
   -2.3810    1.5380   -0.9460 H   0  0  0  0  0  0  0  0  0  0  0  0
   -0.4280   -0.0270    0.7740 H   0  0  0  0  0  0  0  0  0  0  0  0
   -1.5260   -2.3300   -0.0430 H   0  0  0  0  0  0  0  0  0  0  0  0
   -1.2180   -3.9890    1.7150 H   0  0  0  0  0  0  0  0  0  0  0  0
  1  8  1  0  0  0  0
  2  9  1  6  0  0  0
  2  1  1  0  0  0  0
  2  3  1  0  0  0  0
  3 11  1  0  0  0  0
  3  4  1  0  0  0  0
  5  2  1  0  0  0  0
  6  5  2  0  0  0  0
  7  1  1  0  0  0  0
 10  3  1  0  0  0  0
 12  4  1  0  0  0  0
 13 21  1  0  0  0  0
 13 14  1  0  0  0  0
 14 15  1  0  0  0  0
 14 23  1  0  0  0  0
 14 16  1  0  0  0  0
 15 25  1  0  0  0  0
 15 24  1  0  0  0  0
 16 27  1  6  0  0  0
 16 18  1  0  0  0  0
 16 17  1  0  0  0  0
 17 28  1  0  0  0  0
 17  5  1  0  0  0  0
 18 36  1  0  0  0  0
 19 18  2  0  0  0  0
 20 13  1  0  0  0  0
 22 13  1  0  0  0  0
 26 15  1  0  0  0  0
 29 42  1  0  0  0  0
 30 31  1  0  0  0  0
 30 29  1  0  0  0  0
 31 43  1  0  0  0  0
 32 44  1  0  0  0  0
 32 31  2  0  0  0  0
 33 32  1  0  0  0  0
 34 35  1  0  0  0  0
 34 33  1  0  0  0  0
 35 47  1  6  0  0  0
 35 37  1  0  0  0  0
 36 35  1  0  0  0  0
 36 48  1  0  0  0  0
 37 41  2  0  0  0  0
 37 38  1  0  0  0  0
 39 33  2  0  0  0  0
 39 40  1  0  0  0  0
 40 30  2  0  0  0  0
 45 34  1  0  0  0  0
 46 34  1  0  0  0  0
 49 39  1  0  0  0  0
 50 40  1  0  0  0  0
M  END
$$$$
