CWD.pdb
 OpenBabel07022418293D

 50 51  0  0  1  0  0  0  0  0999 V2000
    3.4580    0.6960   -2.0840 N   0  0  0  0  0  0  0  0  0  0  0  0
    2.0390    0.7390   -1.8160 C   0  0  1  0  0  0  0  0  0  0  0  0
    1.2330    0.2650   -3.0090 C   0  0  0  0  0  0  0  0  0  0  0  0
    1.5330    1.2900   -4.4740 S   0  0  0  0  0  0  0  0  0  0  0  0
    1.6750   -0.1410   -0.6780 C   0  0  0  0  0  0  0  0  0  0  0  0
    2.5420   -0.8260   -0.0790 O   0  0  0  0  0  0  0  0  0  0  0  0
    3.7800    1.5720   -2.5510 H   0  0  0  0  0  0  0  0  0  0  0  0
    3.7430   -0.1210   -2.6370 H   0  0  0  0  0  0  0  0  0  0  0  0
    1.7200    1.7670   -1.5530 H   0  0  0  0  0  0  0  0  0  0  0  0
    1.4500   -0.7760   -3.2760 H   0  0  0  0  0  0  0  0  0  0  0  0
    0.1580    0.3110   -2.7320 H   0  0  0  0  0  0  0  0  0  0  0  0
    1.3800    0.4890   -5.6200 H   0  0  0  0  0  0  0  0  0  0  0  0
    0.3200   -0.2020   -0.2670 N   0  0  0  0  0  0  0  0  0  0  0  0
   -0.1120   -1.0290    0.8240 C   0  0  1  0  0  0  0  0  0  0  0  0
   -0.6090   -0.1630    1.9540 C   0  0  0  0  0  0  0  0  0  0  0  0
    0.4300    0.7510    2.4800 C   0  0  0  0  0  0  0  0  0  0  0  0
    1.2030    0.4650    3.6160 C   0  0  0  0  0  0  0  0  0  0  0  0
    2.0640    1.4750    3.7980 N   0  0  0  0  0  0  0  0  0  0  0  0
    1.9100    2.4110    2.8560 C   0  0  0  0  0  0  0  0  0  0  0  0
    2.5640    3.6200    2.6460 C   0  0  0  0  0  0  0  0  0  0  0  0
    2.1740    4.3850    1.5820 C   0  0  0  0  0  0  0  0  0  0  0  0
    1.1650    3.9670    0.7480 C   0  0  0  0  0  0  0  0  0  0  0  0
    0.5290    2.7480    0.9860 C   0  0  0  0  0  0  0  0  0  0  0  0
    0.8950    1.9550    2.0430 C   0  0  0  0  0  0  0  0  0  0  0  0
   -1.1190   -1.9760    0.3390 C   0  0  0  0  0  0  0  0  0  0  0  0
   -1.4400   -1.9370   -0.8700 O   0  0  0  0  0  0  0  0  0  0  0  0
   -0.3970    0.3600   -0.7710 H   0  0  0  0  0  0  0  0  0  0  0  0
    0.7580   -1.6650    1.1830 H   0  0  0  0  0  0  0  0  0  0  0  0
   -1.5100    0.4170    1.6730 H   0  0  0  0  0  0  0  0  0  0  0  0
   -0.9150   -0.8380    2.7780 H   0  0  0  0  0  0  0  0  0  0  0  0
    1.1000   -0.4360    4.2300 H   0  0  0  0  0  0  0  0  0  0  0  0
    2.7760    1.5420    4.5750 H   0  0  0  0  0  0  0  0  0  0  0  0
    3.3550    3.9630    3.2880 H   0  0  0  0  0  0  0  0  0  0  0  0
    2.6710    5.3300    1.4010 H   0  0  0  0  0  0  0  0  0  0  0  0
    0.8540    4.5730   -0.0970 H   0  0  0  0  0  0  0  0  0  0  0  0
   -0.2700    2.4280    0.3370 H   0  0  0  0  0  0  0  0  0  0  0  0
   -1.7670   -2.9490    1.1550 N   0  0  0  0  0  0  0  0  0  0  0  0
   -2.7560   -3.8530    0.6050 C   0  0  1  0  0  0  0  0  0  0  0  0
   -2.3060   -5.2890    0.6730 C   0  0  0  0  0  0  0  0  0  0  0  0
   -2.0440   -5.7520    2.0500 C   0  0  0  0  0  0  0  0  0  0  0  0
   -2.1750   -5.0460    3.0780 O   0  0  0  0  0  0  0  0  0  0  0  0
   -4.0900   -3.6330    1.2080 C   0  0  0  0  0  0  0  0  0  0  0  0
   -5.0830   -4.3180    0.8620 O   0  0  0  0  0  0  0  0  0  0  0  0
   -1.6220   -7.0630    2.2280 O   0  0  0  0  0  0  0  0  0  0  0  0
   -4.2700   -2.6610    2.1700 O   0  0  0  0  0  0  0  0  0  0  0  0
   -1.5090   -2.9970    2.1750 H   0  0  0  0  0  0  0  0  0  0  0  0
   -2.8670   -3.6170   -0.4860 H   0  0  0  0  0  0  0  0  0  0  0  0
   -1.3740   -5.3610    0.0720 H   0  0  0  0  0  0  0  0  0  0  0  0
   -3.0520   -5.9760    0.2300 H   0  0  0  0  0  0  0  0  0  0  0  0
   -0.9690   -7.3050    2.9860 H   0  0  0  0  0  0  0  0  0  0  0  0
  1  2  1  0  0  0  0
  2  9  1  1  0  0  0
  2  5  1  0  0  0  0
  3 11  1  0  0  0  0
  3  2  1  0  0  0  0
  4  3  1  0  0  0  0
  5 13  1  0  0  0  0
  5  6  2  0  0  0  0
  7  1  1  0  0  0  0
  8  1  1  0  0  0  0
 10  3  1  0  0  0  0
 12  4  1  0  0  0  0
 13 14  1  0  0  0  0
 14 28  1  1  0  0  0
 14 15  1  0  0  0  0
 15 16  1  0  0  0  0
 15 30  1  0  0  0  0
 16 17  2  0  0  0  0
 17 18  1  0  0  0  0
 17 31  1  0  0  0  0
 18 32  1  0  0  0  0
 19 18  1  0  0  0  0
 20 19  1  0  0  0  0
 20 33  1  0  0  0  0
 21 20  2  0  0  0  0
 22 23  2  0  0  0  0
 22 21  1  0  0  0  0
 23 24  1  0  0  0  0
 24 16  1  0  0  0  0
 24 19  2  0  0  0  0
 25 14  1  0  0  0  0
 25 37  1  0  0  0  0
 26 25  2  0  0  0  0
 27 13  1  0  0  0  0
 29 15  1  0  0  0  0
 34 21  1  0  0  0  0
 35 22  1  0  0  0  0
 36 23  1  0  0  0  0
 37 46  1  0  0  0  0
 38 47  1  6  0  0  0
 38 39  1  0  0  0  0
 38 37  1  0  0  0  0
 38 42  1  0  0  0  0
 39 40  1  0  0  0  0
 40 44  1  0  0  0  0
 40 41  2  0  0  0  0
 42 45  1  0  0  0  0
 43 42  2  0  0  0  0
 44 50  1  0  0  0  0
 48 39  1  0  0  0  0
 49 39  1  0  0  0  0
M  END
$$$$
