CWF.pdb
 OpenBabel07022418293D

 57 59  0  0  1  0  0  0  0  0999 V2000
    1.0660   -0.8930    4.2820 N   0  0  0  0  0  0  0  0  0  0  0  0
    1.9900   -1.1800    3.2320 C   0  0  1  0  0  0  0  0  0  0  0  0
    2.2870   -2.6670    3.2650 C   0  0  0  0  0  0  0  0  0  0  0  0
    3.4600   -3.0570    1.9420 S   0  0  0  0  0  0  0  0  0  0  0  0
    1.4070   -0.8390    1.8860 C   0  0  0  0  0  0  0  0  0  0  0  0
    2.0910   -1.0450    0.8720 O   0  0  0  0  0  0  0  0  0  0  0  0
    0.1850   -1.4360    4.1840 H   0  0  0  0  0  0  0  0  0  0  0  0
    0.8390    0.1210    4.2830 H   0  0  0  0  0  0  0  0  0  0  0  0
    2.9080   -0.5850    3.4180 H   0  0  0  0  0  0  0  0  0  0  0  0
    2.7110   -2.8990    4.2730 H   0  0  0  0  0  0  0  0  0  0  0  0
    1.3400   -3.2210    3.1560 H   0  0  0  0  0  0  0  0  0  0  0  0
    2.7320   -3.3320    0.7790 H   0  0  0  0  0  0  0  0  0  0  0  0
    0.1210   -0.3050    1.8290 N   0  0  0  0  0  0  0  0  0  0  0  0
   -0.5450    0.0790    0.6370 C   0  0  1  0  0  0  0  0  0  0  0  0
    0.2970    0.5910   -0.5060 C   0  0  0  0  0  0  0  0  0  0  0  0
    1.0520    1.8360   -0.1920 C   0  0  0  0  0  0  0  0  0  0  0  0
    2.3850    2.0250    0.0790 C   0  0  0  0  0  0  0  0  0  0  0  0
    2.6290    3.3410    0.3040 N   0  0  0  0  0  0  0  0  0  0  0  0
    1.4760    4.0220    0.1840 C   0  0  0  0  0  0  0  0  0  0  0  0
    1.1690    5.3840    0.3080 C   0  0  0  0  0  0  0  0  0  0  0  0
   -0.1290    5.8260    0.1240 C   0  0  0  0  0  0  0  0  0  0  0  0
   -1.0990    4.8930   -0.1830 C   0  0  0  0  0  0  0  0  0  0  0  0
   -0.7930    3.5490   -0.3050 C   0  0  0  0  0  0  0  0  0  0  0  0
    0.4890    3.1250   -0.1200 C   0  0  0  0  0  0  0  0  0  0  0  0
   -1.5200   -0.9140    0.1740 C   0  0  0  0  0  0  0  0  0  0  0  0
   -2.1750   -0.6460   -0.8880 O   0  0  0  0  0  0  0  0  0  0  0  0
   -0.4460   -0.1620    2.7510 H   0  0  0  0  0  0  0  0  0  0  0  0
   -1.0780    1.0760    0.9490 H   0  0  0  0  0  0  0  0  0  0  0  0
    1.0240   -0.1420   -0.8800 H   0  0  0  0  0  0  0  0  0  0  0  0
   -0.3680    0.7880   -1.4100 H   0  0  0  0  0  0  0  0  0  0  0  0
    3.1680    1.2670    0.1130 H   0  0  0  0  0  0  0  0  0  0  0  0
    3.5480    3.7940    0.5350 H   0  0  0  0  0  0  0  0  0  0  0  0
    1.9900    6.0710    0.5540 H   0  0  0  0  0  0  0  0  0  0  0  0
   -0.3650    6.8780    0.2210 H   0  0  0  0  0  0  0  0  0  0  0  0
   -2.1350    5.2060   -0.3350 H   0  0  0  0  0  0  0  0  0  0  0  0
   -1.5520    2.8110   -0.5540 H   0  0  0  0  0  0  0  0  0  0  0  0
   -1.7870   -2.1450    0.8170 N   0  0  0  0  0  0  0  0  0  0  0  0
   -2.7630   -3.0580    0.2910 C   0  0  1  0  0  0  0  0  0  0  0  0
   -2.1070   -4.3480   -0.1560 C   0  0  0  0  0  0  0  0  0  0  0  0
   -1.1030   -4.1070   -1.2150 C   0  0  0  0  0  0  0  0  0  0  0  0
   -1.4190   -4.1230   -2.5660 C   0  0  0  0  0  0  0  0  0  0  0  0
   -0.4510   -3.8940   -3.5010 C   0  0  0  0  0  0  0  0  0  0  0  0
    0.8640   -3.6400   -3.1540 C   0  0  0  0  0  0  0  0  0  0  0  0
    1.1830   -3.6230   -1.8160 C   0  0  0  0  0  0  0  0  0  0  0  0
    0.1930   -3.8570   -0.8660 C   0  0  0  0  0  0  0  0  0  0  0  0
   -3.8410   -3.3420    1.2510 C   0  0  0  0  0  0  0  0  0  0  0  0
   -4.7560   -4.1400    0.8830 O   0  0  0  0  0  0  0  0  0  0  0  0
   -3.8450   -2.7540    2.5070 O   0  0  0  0  0  0  0  0  0  0  0  0
   -1.2620   -2.3880    1.6890 H   0  0  0  0  0  0  0  0  0  0  0  0
   -3.2280   -2.6120   -0.6330 H   0  0  0  0  0  0  0  0  0  0  0  0
   -1.5900   -4.8310    0.7000 H   0  0  0  0  0  0  0  0  0  0  0  0
   -2.9160   -5.0380   -0.5040 H   0  0  0  0  0  0  0  0  0  0  0  0
   -2.4520   -4.3220   -2.8350 H   0  0  0  0  0  0  0  0  0  0  0  0
   -0.6710   -3.9000   -4.5670 H   0  0  0  0  0  0  0  0  0  0  0  0
    1.6180   -3.4600   -3.9290 H   0  0  0  0  0  0  0  0  0  0  0  0
    2.2140   -3.4240   -1.5600 H   0  0  0  0  0  0  0  0  0  0  0  0
    0.4710   -3.8380    0.1590 H   0  0  0  0  0  0  0  0  0  0  0  0
  1  8  1  0  0  0  0
  2  3  1  0  0  0  0
  2  9  1  1  0  0  0
  2  1  1  0  0  0  0
  3 10  1  0  0  0  0
  4  3  1  0  0  0  0
  5  2  1  0  0  0  0
  6  5  2  0  0  0  0
  7  1  1  0  0  0  0
 11  3  1  0  0  0  0
 12  4  1  0  0  0  0
 13  5  1  0  0  0  0
 13 27  1  0  0  0  0
 14 28  1  1  0  0  0
 14 13  1  0  0  0  0
 15 16  1  0  0  0  0
 15 14  1  0  0  0  0
 16 24  1  0  0  0  0
 16 17  2  0  0  0  0
 17 31  1  0  0  0  0
 17 18  1  0  0  0  0
 18 32  1  0  0  0  0
 19 18  1  0  0  0  0
 19 20  1  0  0  0  0
 20 33  1  0  0  0  0
 21 34  1  0  0  0  0
 21 20  2  0  0  0  0
 22 21  1  0  0  0  0
 23 22  2  0  0  0  0
 23 24  1  0  0  0  0
 24 19  2  0  0  0  0
 25 14  1  0  0  0  0
 25 37  1  0  0  0  0
 26 25  2  0  0  0  0
 29 15  1  0  0  0  0
 30 15  1  0  0  0  0
 35 22  1  0  0  0  0
 36 23  1  0  0  0  0
 37 49  1  0  0  0  0
 38 50  1  6  0  0  0
 38 37  1  0  0  0  0
 38 46  1  0  0  0  0
 39 38  1  0  0  0  0
 39 51  1  0  0  0  0
 40 45  1  0  0  0  0
 40 39  1  0  0  0  0
 41 40  2  0  0  0  0
 42 43  2  0  0  0  0
 42 41  1  0  0  0  0
 43 44  1  0  0  0  0
 44 56  1  0  0  0  0
 44 45  2  0  0  0  0
 45 57  1  0  0  0  0
 46 48  1  0  0  0  0
 47 46  2  0  0  0  0
 52 39  1  0  0  0  0
 53 41  1  0  0  0  0
 54 42  1  0  0  0  0
 55 43  1  0  0  0  0
M  END
$$$$
