CWH.pdb
 OpenBabel07022418293D

 54 56  0  0  1  0  0  0  0  0999 V2000
   -1.8330   -2.4470    5.4570 N   0  0  0  0  0  0  0  0  0  0  0  0
   -0.9000   -2.6120    4.3780 C   0  0  1  0  0  0  0  0  0  0  0  0
   -1.2360   -3.8160    3.5390 C   0  0  0  0  0  0  0  0  0  0  0  0
   -2.8680   -3.7280    2.7910 S   0  0  0  0  0  0  0  0  0  0  0  0
   -0.7580   -1.3720    3.5990 C   0  0  0  0  0  0  0  0  0  0  0  0
   -1.4060   -0.3510    3.9430 O   0  0  0  0  0  0  0  0  0  0  0  0
   -2.4440   -3.2890    5.5710 H   0  0  0  0  0  0  0  0  0  0  0  0
   -2.3760   -1.5700    5.3660 H   0  0  0  0  0  0  0  0  0  0  0  0
    0.1030   -2.8270    4.8350 H   0  0  0  0  0  0  0  0  0  0  0  0
   -0.4270   -4.0440    2.8150 H   0  0  0  0  0  0  0  0  0  0  0  0
   -1.2510   -4.6910    4.2550 H   0  0  0  0  0  0  0  0  0  0  0  0
   -2.8560   -4.5950    1.6570 H   0  0  0  0  0  0  0  0  0  0  0  0
    0.0880   -1.2840    2.4700 N   0  0  0  0  0  0  0  0  0  0  0  0
    0.1950   -0.0220    1.7300 C   0  0  1  0  0  0  0  0  0  0  0  0
    1.6430    0.3860    1.8270 C   0  0  0  0  0  0  0  0  0  0  0  0
    1.9670    1.6400    1.1420 C   0  0  0  0  0  0  0  0  0  0  0  0
    2.6160    1.7460   -0.0670 C   0  0  0  0  0  0  0  0  0  0  0  0
    2.7360    3.0450   -0.3780 N   0  0  0  0  0  0  0  0  0  0  0  0
    2.1790    3.7730    0.6040 C   0  0  0  0  0  0  0  0  0  0  0  0
    2.0140    5.1330    0.8180 C   0  0  0  0  0  0  0  0  0  0  0  0
    1.3890    5.6240    1.9440 C   0  0  0  0  0  0  0  0  0  0  0  0
    0.9080    4.7440    2.8950 C   0  0  0  0  0  0  0  0  0  0  0  0
    1.0480    3.4020    2.7240 C   0  0  0  0  0  0  0  0  0  0  0  0
    1.6770    2.9180    1.5910 C   0  0  0  0  0  0  0  0  0  0  0  0
   -0.2120   -0.3240    0.3350 C   0  0  0  0  0  0  0  0  0  0  0  0
   -0.2160    0.6030   -0.5280 O   0  0  0  0  0  0  0  0  0  0  0  0
    0.6500   -2.0980    2.1350 H   0  0  0  0  0  0  0  0  0  0  0  0
   -0.4140    0.7650    2.1660 H   0  0  0  0  0  0  0  0  0  0  0  0
    2.2540   -0.4570    1.4340 H   0  0  0  0  0  0  0  0  0  0  0  0
    1.9160    0.4890    2.8970 H   0  0  0  0  0  0  0  0  0  0  0  0
    2.9860    0.9360   -0.6980 H   0  0  0  0  0  0  0  0  0  0  0  0
    3.1750    3.4610   -1.2200 H   0  0  0  0  0  0  0  0  0  0  0  0
    2.4030    5.7950    0.0530 H   0  0  0  0  0  0  0  0  0  0  0  0
    1.2690    6.6890    2.0940 H   0  0  0  0  0  0  0  0  0  0  0  0
    0.4050    5.0810    3.8040 H   0  0  0  0  0  0  0  0  0  0  0  0
    0.6960    2.6530    3.4280 H   0  0  0  0  0  0  0  0  0  0  0  0
   -0.6090   -1.5980   -0.1250 N   0  0  0  0  0  0  0  0  0  0  0  0
   -1.0040   -1.8480   -1.5240 C   0  0  1  0  0  0  0  0  0  0  0  0
   -0.1440   -2.8770   -2.1150 C   0  0  0  0  0  0  0  0  0  0  0  0
   -0.2820   -3.2660   -3.4850 C   0  0  0  0  0  0  0  0  0  0  0  0
   -1.0410   -2.8460   -4.5400 C   0  0  0  0  0  0  0  0  0  0  0  0
   -0.7490   -3.5510   -5.6700 N   0  0  0  0  0  0  0  0  0  0  0  0
    0.2040   -4.4100   -5.2880 C   0  0  0  0  0  0  0  0  0  0  0  0
    0.4990   -4.2670   -4.0130 N   0  0  0  0  0  0  0  0  0  0  0  0
   -2.4320   -2.2480   -1.3730 C   0  0  0  0  0  0  0  0  0  0  0  0
   -2.9370   -2.2620   -0.2190 O   0  0  0  0  0  0  0  0  0  0  0  0
   -3.2510   -2.6090   -2.4290 O   0  0  0  0  0  0  0  0  0  0  0  0
   -0.6150   -2.3760    0.5640 H   0  0  0  0  0  0  0  0  0  0  0  0
   -0.9550   -0.9160   -2.1110 H   0  0  0  0  0  0  0  0  0  0  0  0
    0.9230   -2.5040   -1.9890 H   0  0  0  0  0  0  0  0  0  0  0  0
   -0.2430   -3.8040   -1.4650 H   0  0  0  0  0  0  0  0  0  0  0  0
   -1.7560   -2.0640   -4.5060 H   0  0  0  0  0  0  0  0  0  0  0  0
   -1.2030   -3.4080   -6.6050 H   0  0  0  0  0  0  0  0  0  0  0  0
    0.6480   -5.1190   -5.9860 H   0  0  0  0  0  0  0  0  0  0  0  0
  1  7  1  0  0  0  0
  2  9  1  1  0  0  0
  2  1  1  0  0  0  0
  3 11  1  0  0  0  0
  3  2  1  0  0  0  0
  4  3  1  0  0  0  0
  5  6  2  0  0  0  0
  5  2  1  0  0  0  0
  8  1  1  0  0  0  0
 10  3  1  0  0  0  0
 12  4  1  0  0  0  0
 13  5  1  0  0  0  0
 14 15  1  0  0  0  0
 14 28  1  1  0  0  0
 14 13  1  0  0  0  0
 15 30  1  0  0  0  0
 16 24  1  0  0  0  0
 16 15  1  0  0  0  0
 17 16  2  0  0  0  0
 18 17  1  0  0  0  0
 18 19  1  0  0  0  0
 19 20  2  0  0  0  0
 19 24  1  0  0  0  0
 20 21  1  0  0  0  0
 21 34  1  0  0  0  0
 21 22  2  0  0  0  0
 22 35  1  0  0  0  0
 23 22  1  0  0  0  0
 23 36  1  0  0  0  0
 24 23  2  0  0  0  0
 25 14  1  0  0  0  0
 26 25  2  0  0  0  0
 27 13  1  0  0  0  0
 29 15  1  0  0  0  0
 31 17  1  0  0  0  0
 32 18  1  0  0  0  0
 33 20  1  0  0  0  0
 37 25  1  0  0  0  0
 37 48  1  0  0  0  0
 38 49  1  6  0  0  0
 38 45  1  0  0  0  0
 38 37  1  0  0  0  0
 39 50  1  0  0  0  0
 39 38  1  0  0  0  0
 39 51  1  0  0  0  0
 40 39  1  0  0  0  0
 41 52  1  0  0  0  0
 41 40  2  0  0  0  0
 42 43  1  0  0  0  0
 42 41  1  0  0  0  0
 43 44  2  0  0  0  0
 44 40  1  0  0  0  0
 45 46  1  0  0  0  0
 47 45  2  0  0  0  0
 53 42  1  0  0  0  0
 54 43  1  0  0  0  0
M  END
$$$$
