CWL.pdb
 OpenBabel07022418293D

 56 57  0  0  1  0  0  0  0  0999 V2000
    3.2020   -1.3960    3.4020 N   0  0  0  0  0  0  0  0  0  0  0  0
    2.1820   -0.4020    3.6780 C   0  0  1  0  0  0  0  0  0  0  0  0
    2.8630    0.9440    3.8000 C   0  0  0  0  0  0  0  0  0  0  0  0
    4.0810    0.9410    5.1410 S   0  0  0  0  0  0  0  0  0  0  0  0
    1.2280   -0.3030    2.5300 C   0  0  0  0  0  0  0  0  0  0  0  0
    0.2890    0.5220    2.5980 O   0  0  0  0  0  0  0  0  0  0  0  0
    3.8830   -1.0720    2.6840 H   0  0  0  0  0  0  0  0  0  0  0  0
    2.7960   -2.3280    3.1800 H   0  0  0  0  0  0  0  0  0  0  0  0
    1.6660   -0.7040    4.6070 H   0  0  0  0  0  0  0  0  0  0  0  0
    3.3850    1.1260    2.8370 H   0  0  0  0  0  0  0  0  0  0  0  0
    2.1120    1.7490    3.9360 H   0  0  0  0  0  0  0  0  0  0  0  0
    4.3550    2.2240    5.6140 H   0  0  0  0  0  0  0  0  0  0  0  0
    1.3320   -1.0920    1.3750 N   0  0  0  0  0  0  0  0  0  0  0  0
    0.4570   -1.0540    0.2370 C   0  0  1  0  0  0  0  0  0  0  0  0
    1.2490   -0.6170   -0.9530 C   0  0  0  0  0  0  0  0  0  0  0  0
    1.8380    0.7340   -0.7520 C   0  0  0  0  0  0  0  0  0  0  0  0
    3.1580    1.0580   -0.4550 C   0  0  0  0  0  0  0  0  0  0  0  0
    3.2650    2.3850   -0.3560 N   0  0  0  0  0  0  0  0  0  0  0  0
    2.0770    2.9860   -0.5710 C   0  0  0  0  0  0  0  0  0  0  0  0
    1.6920    4.3110   -0.5760 C   0  0  0  0  0  0  0  0  0  0  0  0
    0.3790    4.6480   -0.8330 C   0  0  0  0  0  0  0  0  0  0  0  0
   -0.5030    3.6180   -1.0780 C   0  0  0  0  0  0  0  0  0  0  0  0
   -0.1230    2.2940   -1.0740 C   0  0  0  0  0  0  0  0  0  0  0  0
    1.1940    1.9550   -0.8160 C   0  0  0  0  0  0  0  0  0  0  0  0
   -0.2870   -2.3070    0.0330 C   0  0  0  0  0  0  0  0  0  0  0  0
   -0.0830   -3.2440    0.8480 O   0  0  0  0  0  0  0  0  0  0  0  0
    2.1320   -1.7880    1.3290 H   0  0  0  0  0  0  0  0  0  0  0  0
   -0.3080   -0.2610    0.4430 H   0  0  0  0  0  0  0  0  0  0  0  0
    2.1140   -1.3060   -1.1230 H   0  0  0  0  0  0  0  0  0  0  0  0
    0.6710   -0.6120   -1.8960 H   0  0  0  0  0  0  0  0  0  0  0  0
    3.9490    0.3270   -0.3310 H   0  0  0  0  0  0  0  0  0  0  0  0
    4.1390    2.9170   -0.1410 H   0  0  0  0  0  0  0  0  0  0  0  0
    2.3820    5.1220   -0.3840 H   0  0  0  0  0  0  0  0  0  0  0  0
    0.0440    5.6930   -0.8440 H   0  0  0  0  0  0  0  0  0  0  0  0
   -1.5390    3.8440   -1.2840 H   0  0  0  0  0  0  0  0  0  0  0  0
   -0.8110    1.4810   -1.2650 H   0  0  0  0  0  0  0  0  0  0  0  0
   -3.6920   -3.8230    1.3090 C   0  0  0  0  0  0  0  0  0  0  0  0
   -3.9740   -2.9930    0.0790 C   0  0  0  0  0  0  0  0  0  0  0  0
   -5.4930   -2.9710   -0.0830 C   0  0  0  0  0  0  0  0  0  0  0  0
   -3.4140   -3.5950   -1.1610 C   0  0  0  0  0  0  0  0  0  0  0  0
   -1.9160   -3.7740   -1.1640 C   0  0  2  0  0  0  0  0  0  0  0  0
   -1.2110   -2.5290   -1.0090 N   0  0  0  0  0  0  0  0  0  0  0  0
   -1.4690   -4.4530   -2.4050 C   0  0  0  0  0  0  0  0  0  0  0  0
   -1.9220   -5.5630   -2.7800 O   0  0  0  0  0  0  0  0  0  0  0  0
   -0.5100   -3.8400   -3.1890 O   0  0  0  0  0  0  0  0  0  0  0  0
   -4.2820   -4.7630    1.2580 H   0  0  0  0  0  0  0  0  0  0  0  0
   -2.6350   -4.0640    1.3880 H   0  0  0  0  0  0  0  0  0  0  0  0
   -4.0160   -3.2850    2.2230 H   0  0  0  0  0  0  0  0  0  0  0  0
   -3.6090   -1.9540    0.2210 H   0  0  0  0  0  0  0  0  0  0  0  0
   -5.8440   -2.0550   -0.5780 H   0  0  0  0  0  0  0  0  0  0  0  0
   -5.8250   -3.8600   -0.6710 H   0  0  0  0  0  0  0  0  0  0  0  0
   -6.0040   -3.0270    0.9070 H   0  0  0  0  0  0  0  0  0  0  0  0
   -3.8690   -4.6250   -1.2570 H   0  0  0  0  0  0  0  0  0  0  0  0
   -3.7210   -3.0710   -2.0860 H   0  0  0  0  0  0  0  0  0  0  0  0
   -1.6590   -4.4850   -0.3360 H   0  0  0  0  0  0  0  0  0  0  0  0
   -1.3870   -1.7650   -1.6880 H   0  0  0  0  0  0  0  0  0  0  0  0
  1  2  1  0  0  0  0
  2  3  1  0  0  0  0
  2  9  1  1  0  0  0
  3 11  1  0  0  0  0
  3  4  1  0  0  0  0
  4 12  1  0  0  0  0
  5  6  2  0  0  0  0
  5  2  1  0  0  0  0
  7  1  1  0  0  0  0
  8  1  1  0  0  0  0
 10  3  1  0  0  0  0
 13  5  1  0  0  0  0
 14 28  1  1  0  0  0
 14 13  1  0  0  0  0
 15 16  1  0  0  0  0
 15 14  1  0  0  0  0
 16 17  2  0  0  0  0
 17 18  1  0  0  0  0
 17 31  1  0  0  0  0
 18 32  1  0  0  0  0
 19 18  1  0  0  0  0
 20 19  1  0  0  0  0
 20 33  1  0  0  0  0
 21 20  2  0  0  0  0
 22 23  2  0  0  0  0
 22 21  1  0  0  0  0
 23 24  1  0  0  0  0
 24 16  1  0  0  0  0
 24 19  2  0  0  0  0
 25 14  1  0  0  0  0
 25 26  2  0  0  0  0
 27 13  1  0  0  0  0
 29 15  1  0  0  0  0
 30 15  1  0  0  0  0
 34 21  1  0  0  0  0
 35 22  1  0  0  0  0
 36 23  1  0  0  0  0
 37 47  1  0  0  0  0
 37 48  1  0  0  0  0
 38 49  1  0  0  0  0
 38 37  1  0  0  0  0
 39 38  1  0  0  0  0
 39 52  1  0  0  0  0
 40 38  1  0  0  0  0
 41 40  1  0  0  0  0
 41 42  1  0  0  0  0
 41 55  1  1  0  0  0
 42 25  1  0  0  0  0
 43 41  1  0  0  0  0
 44 43  1  0  0  0  0
 45 43  2  0  0  0  0
 46 37  1  0  0  0  0
 50 39  1  0  0  0  0
 51 39  1  0  0  0  0
 53 40  1  0  0  0  0
 54 40  1  0  0  0  0
 56 42  1  0  0  0  0
M  END
$$$$
