CWN.pdb
 OpenBabel07022418293D

 51 52  0  0  1  0  0  0  0  0999 V2000
    4.1860   -1.4870    2.2030 N   0  0  0  0  0  0  0  0  0  0  0  0
    3.1840   -0.8610    3.0090 C   0  0  1  0  0  0  0  0  0  0  0  0
    3.5000    0.5570    3.4000 C   0  0  0  0  0  0  0  0  0  0  0  0
    5.0330    0.6710    4.3510 S   0  0  0  0  0  0  0  0  0  0  0  0
    1.8520   -0.8430    2.3200 C   0  0  0  0  0  0  0  0  0  0  0  0
    0.9080   -0.2760    2.9600 O   0  0  0  0  0  0  0  0  0  0  0  0
    5.0980   -1.4000    2.7180 H   0  0  0  0  0  0  0  0  0  0  0  0
    4.2590   -0.9340    1.3040 H   0  0  0  0  0  0  0  0  0  0  0  0
    3.0510   -1.4770    3.9460 H   0  0  0  0  0  0  0  0  0  0  0  0
    2.6370    0.9060    4.0380 H   0  0  0  0  0  0  0  0  0  0  0  0
    3.4990    1.1770    2.4870 H   0  0  0  0  0  0  0  0  0  0  0  0
    5.3450    2.0170    4.5380 H   0  0  0  0  0  0  0  0  0  0  0  0
    1.6620   -1.4250    1.0370 N   0  0  0  0  0  0  0  0  0  0  0  0
    0.3600   -1.3660    0.4410 C   0  0  1  0  0  0  0  0  0  0  0  0
    0.3380   -0.7440   -0.9220 C   0  0  0  0  0  0  0  0  0  0  0  0
    0.8210    0.6650   -0.9400 C   0  0  0  0  0  0  0  0  0  0  0  0
    2.0220    1.1610   -1.3740 C   0  0  0  0  0  0  0  0  0  0  0  0
    1.9990    2.4820   -1.2040 N   0  0  0  0  0  0  0  0  0  0  0  0
    0.8270    2.8840   -0.6720 C   0  0  0  0  0  0  0  0  0  0  0  0
    0.3230    4.1270   -0.3180 C   0  0  0  0  0  0  0  0  0  0  0  0
   -0.9380    4.2580    0.2140 C   0  0  0  0  0  0  0  0  0  0  0  0
   -1.6960    3.0990    0.3880 C   0  0  0  0  0  0  0  0  0  0  0  0
   -1.1870    1.8750    0.0320 C   0  0  0  0  0  0  0  0  0  0  0  0
    0.0860    1.7460   -0.5060 C   0  0  0  0  0  0  0  0  0  0  0  0
   -0.1900   -2.7650    0.4120 C   0  0  0  0  0  0  0  0  0  0  0  0
    0.4960   -3.7310    0.8370 O   0  0  0  0  0  0  0  0  0  0  0  0
    2.5030   -1.8640    0.6020 H   0  0  0  0  0  0  0  0  0  0  0  0
   -0.2900   -0.7320    1.1200 H   0  0  0  0  0  0  0  0  0  0  0  0
    0.9780   -1.3540   -1.5940 H   0  0  0  0  0  0  0  0  0  0  0  0
   -0.6750   -0.7610   -1.3490 H   0  0  0  0  0  0  0  0  0  0  0  0
    2.8140    0.5500   -1.7730 H   0  0  0  0  0  0  0  0  0  0  0  0
    2.7490    3.1670   -1.4300 H   0  0  0  0  0  0  0  0  0  0  0  0
    0.9060    5.0260   -0.4530 H   0  0  0  0  0  0  0  0  0  0  0  0
   -1.3840    5.2120    0.5070 H   0  0  0  0  0  0  0  0  0  0  0  0
   -2.6870    3.2170    0.8080 H   0  0  0  0  0  0  0  0  0  0  0  0
   -1.7500    0.9470    0.1550 H   0  0  0  0  0  0  0  0  0  0  0  0
   -4.5690   -2.1410    1.4410 N   0  0  0  0  0  0  0  0  0  0  0  0
   -4.2250   -3.1560    0.5210 C   0  0  0  0  0  0  0  0  0  0  0  0
   -4.7740   -3.1000   -0.6370 O   0  0  0  0  0  0  0  0  0  0  0  0
   -3.2740   -4.2340    0.8660 C   0  0  0  0  0  0  0  0  0  0  0  0
   -2.1200   -4.3200   -0.1580 C   0  0  2  0  0  0  0  0  0  0  0  0
   -1.4770   -3.0260   -0.0850 N   0  0  0  0  0  0  0  0  0  0  0  0
   -2.6410   -4.5770   -1.5180 C   0  0  0  0  0  0  0  0  0  0  0  0
   -3.2350   -5.6440   -1.8190 O   0  0  0  0  0  0  0  0  0  0  0  0
   -2.4850   -3.6240   -2.5290 O   0  0  0  0  0  0  0  0  0  0  0  0
   -4.1460   -2.1260    2.3790 H   0  0  0  0  0  0  0  0  0  0  0  0
   -5.2500   -1.3980    1.1870 H   0  0  0  0  0  0  0  0  0  0  0  0
   -2.8630   -4.0170    1.8690 H   0  0  0  0  0  0  0  0  0  0  0  0
   -3.7830   -5.2200    0.8760 H   0  0  0  0  0  0  0  0  0  0  0  0
   -1.4600   -5.1470    0.1470 H   0  0  0  0  0  0  0  0  0  0  0  0
   -2.0140   -2.1770   -0.4370 H   0  0  0  0  0  0  0  0  0  0  0  0
  1  7  1  0  0  0  0
  1  2  1  0  0  0  0
  2  3  1  0  0  0  0
  2  9  1  1  0  0  0
  3 10  1  0  0  0  0
  3  4  1  0  0  0  0
  4 12  1  0  0  0  0
  5  6  2  0  0  0  0
  5  2  1  0  0  0  0
  8  1  1  0  0  0  0
 11  3  1  0  0  0  0
 13  5  1  0  0  0  0
 14 13  1  0  0  0  0
 14 28  1  1  0  0  0
 15 14  1  0  0  0  0
 16 15  1  0  0  0  0
 16 24  1  0  0  0  0
 17 18  1  0  0  0  0
 17 16  2  0  0  0  0
 18 19  1  0  0  0  0
 19 24  2  0  0  0  0
 19 20  1  0  0  0  0
 20 21  2  0  0  0  0
 21 22  1  0  0  0  0
 21 34  1  0  0  0  0
 22 35  1  0  0  0  0
 23 36  1  0  0  0  0
 23 22  2  0  0  0  0
 24 23  1  0  0  0  0
 25 14  1  0  0  0  0
 25 26  2  0  0  0  0
 27 13  1  0  0  0  0
 29 15  1  0  0  0  0
 30 15  1  0  0  0  0
 31 17  1  0  0  0  0
 32 18  1  0  0  0  0
 33 20  1  0  0  0  0
 37 46  1  0  0  0  0
 38 40  1  0  0  0  0
 38 37  1  0  0  0  0
 39 38  2  0  0  0  0
 40 49  1  0  0  0  0
 40 48  1  0  0  0  0
 41 42  1  0  0  0  0
 41 50  1  1  0  0  0
 41 40  1  0  0  0  0
 42 25  1  0  0  0  0
 43 41  1  0  0  0  0
 44 43  1  0  0  0  0
 45 43  2  0  0  0  0
 47 37  1  0  0  0  0
 51 42  1  0  0  0  0
M  END
$$$$
