CWP.pdb
 OpenBabel07022418293D

 51 53  0  0  1  0  0  0  0  0999 V2000
    3.5090   -1.1420    2.3360 N   0  0  0  0  0  0  0  0  0  0  0  0
    2.8320   -1.1690    1.0420 C   0  0  1  0  0  0  0  0  0  0  0  0
    2.9490   -2.4900    0.3750 C   0  0  0  0  0  0  0  0  0  0  0  0
    4.6600   -2.9740    0.0540 S   0  0  0  0  0  0  0  0  0  0  0  0
    1.4320   -0.7810    1.2810 C   0  0  0  0  0  0  0  0  0  0  0  0
    0.9970   -0.4990    2.4510 O   0  0  0  0  0  0  0  0  0  0  0  0
    2.8570   -1.2470    3.1250 H   0  0  0  0  0  0  0  0  0  0  0  0
    4.2480   -1.8740    2.4110 H   0  0  0  0  0  0  0  0  0  0  0  0
    3.3730   -0.3910    0.4280 H   0  0  0  0  0  0  0  0  0  0  0  0
    2.4090   -3.2440    0.9840 H   0  0  0  0  0  0  0  0  0  0  0  0
    2.4310   -2.4340   -0.6020 H   0  0  0  0  0  0  0  0  0  0  0  0
    4.6070   -4.1140   -0.8010 H   0  0  0  0  0  0  0  0  0  0  0  0
    0.4530   -0.6850    0.2200 N   0  0  0  0  0  0  0  0  0  0  0  0
   -0.8980   -0.2810    0.4860 C   0  0  1  0  0  0  0  0  0  0  0  0
   -1.0930    1.0350   -0.2630 C   0  0  0  0  0  0  0  0  0  0  0  0
   -0.1240    2.0620    0.2230 C   0  0  0  0  0  0  0  0  0  0  0  0
    1.0250    2.5090   -0.3940 C   0  0  0  0  0  0  0  0  0  0  0  0
    1.6330    3.4430    0.3600 N   0  0  0  0  0  0  0  0  0  0  0  0
    0.9030    3.6240    1.4730 C   0  0  0  0  0  0  0  0  0  0  0  0
    1.0710    4.4580    2.5750 C   0  0  0  0  0  0  0  0  0  0  0  0
    0.1720    4.4660    3.6130 C   0  0  0  0  0  0  0  0  0  0  0  0
   -0.9330    3.6150    3.5530 C   0  0  0  0  0  0  0  0  0  0  0  0
   -1.0840    2.7980    2.4590 C   0  0  0  0  0  0  0  0  0  0  0  0
   -0.1970    2.7800    1.4190 C   0  0  0  0  0  0  0  0  0  0  0  0
   -1.8870   -1.2490    0.0160 C   0  0  0  0  0  0  0  0  0  0  0  0
   -3.1350   -0.8910    0.1620 O   0  0  0  0  0  0  0  0  0  0  0  0
    0.8170   -0.9200   -0.7290 H   0  0  0  0  0  0  0  0  0  0  0  0
   -0.9830   -0.0870    1.5890 H   0  0  0  0  0  0  0  0  0  0  0  0
   -2.1220    1.4200   -0.1360 H   0  0  0  0  0  0  0  0  0  0  0  0
   -0.8750    0.8560   -1.3290 H   0  0  0  0  0  0  0  0  0  0  0  0
    1.3650    2.1310   -1.3680 H   0  0  0  0  0  0  0  0  0  0  0  0
    2.5210    3.9480    0.1290 H   0  0  0  0  0  0  0  0  0  0  0  0
    1.9480    5.1150    2.5950 H   0  0  0  0  0  0  0  0  0  0  0  0
    0.2860    5.1050    4.4730 H   0  0  0  0  0  0  0  0  0  0  0  0
   -1.6250    3.6410    4.3840 H   0  0  0  0  0  0  0  0  0  0  0  0
   -1.9420    2.1500    2.4320 H   0  0  0  0  0  0  0  0  0  0  0  0
   -1.7170   -2.5040   -0.5690 N   0  0  0  0  0  0  0  0  0  0  0  0
   -0.4630   -3.1810   -0.8330 C   0  0  0  0  0  0  0  0  0  0  0  0
   -0.8150   -4.6580   -1.0110 C   0  0  0  0  0  0  0  0  0  0  0  0
   -2.1360   -4.5320   -1.7260 C   0  0  0  0  0  0  0  0  0  0  0  0
   -2.7940   -3.3940   -1.0400 C   0  0  1  0  0  0  0  0  0  0  0  0
   -3.5500   -3.9000    0.1320 C   0  0  0  0  0  0  0  0  0  0  0  0
   -4.5260   -4.6840    0.0200 O   0  0  0  0  0  0  0  0  0  0  0  0
   -3.2190   -3.5300    1.4500 O   0  0  0  0  0  0  0  0  0  0  0  0
    0.2210   -3.1010    0.0260 H   0  0  0  0  0  0  0  0  0  0  0  0
    0.0210   -2.8650   -1.7620 H   0  0  0  0  0  0  0  0  0  0  0  0
   -0.0790   -5.1700   -1.6520 H   0  0  0  0  0  0  0  0  0  0  0  0
   -0.9870   -5.1090   -0.0340 H   0  0  0  0  0  0  0  0  0  0  0  0
   -1.9940   -4.3920   -2.8140 H   0  0  0  0  0  0  0  0  0  0  0  0
   -2.7550   -5.4590   -1.6150 H   0  0  0  0  0  0  0  0  0  0  0  0
   -3.4430   -2.7830   -1.7070 H   0  0  0  0  0  0  0  0  0  0  0  0
  1  8  1  0  0  0  0
  1  7  1  0  0  0  0
  2  9  1  6  0  0  0
  2  5  1  0  0  0  0
  2  1  1  0  0  0  0
  3 10  1  0  0  0  0
  3  2  1  0  0  0  0
  4  3  1  0  0  0  0
  5  6  2  0  0  0  0
 11  3  1  0  0  0  0
 12  4  1  0  0  0  0
 13 14  1  0  0  0  0
 13  5  1  0  0  0  0
 14 28  1  1  0  0  0
 15 29  1  0  0  0  0
 15 16  1  0  0  0  0
 15 14  1  0  0  0  0
 16 24  1  0  0  0  0
 17 16  2  0  0  0  0
 17 18  1  0  0  0  0
 18 19  1  0  0  0  0
 19 20  1  0  0  0  0
 20 33  1  0  0  0  0
 20 21  2  0  0  0  0
 21 34  1  0  0  0  0
 22 21  1  0  0  0  0
 22 35  1  0  0  0  0
 23 22  2  0  0  0  0
 24 19  2  0  0  0  0
 24 23  1  0  0  0  0
 25 26  2  0  0  0  0
 25 14  1  0  0  0  0
 27 13  1  0  0  0  0
 30 15  1  0  0  0  0
 31 17  1  0  0  0  0
 32 18  1  0  0  0  0
 36 23  1  0  0  0  0
 37 25  1  0  0  0  0
 38 37  1  0  0  0  0
 38 45  1  0  0  0  0
 39 38  1  0  0  0  0
 39 48  1  0  0  0  0
 40 50  1  0  0  0  0
 40 41  1  0  0  0  0
 40 39  1  0  0  0  0
 41 51  1  6  0  0  0
 41 37  1  0  0  0  0
 41 42  1  0  0  0  0
 42 44  1  0  0  0  0
 43 42  2  0  0  0  0
 46 38  1  0  0  0  0
 47 39  1  0  0  0  0
 49 40  1  0  0  0  0
M  END
$$$$
