CWQ.pdb
 OpenBabel07022418293D

 54 55  0  0  1  0  0  0  0  0999 V2000
    2.2900   -0.2080   -4.4020 N   0  0  0  0  0  0  0  0  0  0  0  0
    2.1030    0.3580   -3.0820 C   0  0  1  0  0  0  0  0  0  0  0  0
    1.1500    1.5290   -3.2480 C   0  0  0  0  0  0  0  0  0  0  0  0
   -0.4050    0.8570   -3.9380 S   0  0  0  0  0  0  0  0  0  0  0  0
    1.5980   -0.6770   -2.1790 C   0  0  0  0  0  0  0  0  0  0  0  0
    1.3900   -1.8350   -2.6190 O   0  0  0  0  0  0  0  0  0  0  0  0
    3.1140    0.2040   -4.8940 H   0  0  0  0  0  0  0  0  0  0  0  0
    2.2930   -1.2450   -4.4030 H   0  0  0  0  0  0  0  0  0  0  0  0
    3.0990    0.7430   -2.7270 H   0  0  0  0  0  0  0  0  0  0  0  0
    0.9850    2.0840   -2.3220 H   0  0  0  0  0  0  0  0  0  0  0  0
    1.5900    2.1690   -4.0440 H   0  0  0  0  0  0  0  0  0  0  0  0
   -0.1110    0.5210   -5.2920 H   0  0  0  0  0  0  0  0  0  0  0  0
    1.3180   -0.4590   -0.8010 N   0  0  0  0  0  0  0  0  0  0  0  0
    0.8180   -1.4960    0.0800 C   0  0  1  0  0  0  0  0  0  0  0  0
    1.8520   -1.8570    1.1200 C   0  0  0  0  0  0  0  0  0  0  0  0
    2.3030   -0.7240    1.9510 C   0  0  0  0  0  0  0  0  0  0  0  0
    3.5140   -0.0340    1.7510 C   0  0  0  0  0  0  0  0  0  0  0  0
    3.6090    0.9290    2.6500 N   0  0  0  0  0  0  0  0  0  0  0  0
    2.5350    0.9450    3.4620 C   0  0  0  0  0  0  0  0  0  0  0  0
    2.2250    1.7640    4.5220 C   0  0  0  0  0  0  0  0  0  0  0  0
    1.0340    1.5350    5.1800 C   0  0  0  0  0  0  0  0  0  0  0  0
    0.2110    0.5170    4.7650 C   0  0  0  0  0  0  0  0  0  0  0  0
    0.5490   -0.2830    3.7040 C   0  0  0  0  0  0  0  0  0  0  0  0
    1.7360   -0.0860    3.0150 C   0  0  0  0  0  0  0  0  0  0  0  0
   -0.5210   -1.2220    0.5460 C   0  0  0  0  0  0  0  0  0  0  0  0
   -1.0100   -0.0610    0.3310 O   0  0  0  0  0  0  0  0  0  0  0  0
    1.4940    0.5080   -0.4460 H   0  0  0  0  0  0  0  0  0  0  0  0
    0.7280   -2.4100   -0.6020 H   0  0  0  0  0  0  0  0  0  0  0  0
    1.5080   -2.6480    1.8030 H   0  0  0  0  0  0  0  0  0  0  0  0
    2.7360   -2.3000    0.5840 H   0  0  0  0  0  0  0  0  0  0  0  0
    4.2140   -0.2870    0.9760 H   0  0  0  0  0  0  0  0  0  0  0  0
    4.4100    1.6050    2.7370 H   0  0  0  0  0  0  0  0  0  0  0  0
    2.9010    2.5760    4.8380 H   0  0  0  0  0  0  0  0  0  0  0  0
    0.7420    2.1510    6.0210 H   0  0  0  0  0  0  0  0  0  0  0  0
   -0.7400    0.2940    5.2510 H   0  0  0  0  0  0  0  0  0  0  0  0
   -0.0850   -1.0690    3.3910 H   0  0  0  0  0  0  0  0  0  0  0  0
   -3.6520   -0.4940   -2.2480 N   0  0  0  0  0  0  0  0  0  0  0  0
   -3.8150   -1.0430   -0.9470 C   0  0  0  0  0  0  0  0  0  0  0  0
   -4.2700   -0.2710   -0.0680 O   0  0  0  0  0  0  0  0  0  0  0  0
   -3.4800   -2.4340   -0.6260 C   0  0  0  0  0  0  0  0  0  0  0  0
   -3.5830   -2.7800    0.8290 C   0  0  0  0  0  0  0  0  0  0  0  0
   -2.6200   -1.9580    1.6810 C   0  0  2  0  0  0  0  0  0  0  0  0
   -1.2740   -2.2370    1.2250 N   0  0  0  0  0  0  0  0  0  0  0  0
   -2.8680   -2.3690    3.0810 C   0  0  0  0  0  0  0  0  0  0  0  0
   -1.9840   -2.9430    3.7460 O   0  0  0  0  0  0  0  0  0  0  0  0
   -4.0870   -2.1380    3.7170 O   0  0  0  0  0  0  0  0  0  0  0  0
   -3.8120   -1.0310   -3.1280 H   0  0  0  0  0  0  0  0  0  0  0  0
   -3.3560    0.4980   -2.3320 H   0  0  0  0  0  0  0  0  0  0  0  0
   -4.1930   -3.0710   -1.2240 H   0  0  0  0  0  0  0  0  0  0  0  0
   -2.4790   -2.6810   -1.0460 H   0  0  0  0  0  0  0  0  0  0  0  0
   -3.3800   -3.8600    0.9590 H   0  0  0  0  0  0  0  0  0  0  0  0
   -4.6380   -2.5780    1.1380 H   0  0  0  0  0  0  0  0  0  0  0  0
   -2.8290   -0.8810    1.5920 H   0  0  0  0  0  0  0  0  0  0  0  0
   -0.7930   -3.1510    1.3580 H   0  0  0  0  0  0  0  0  0  0  0  0
  1  2  1  0  0  0  0
  2  9  1  1  0  0  0
  2  5  1  0  0  0  0
  3  2  1  0  0  0  0
  3 10  1  0  0  0  0
  4  3  1  0  0  0  0
  5 13  1  0  0  0  0
  6  5  2  0  0  0  0
  7  1  1  0  0  0  0
  8  1  1  0  0  0  0
 11  3  1  0  0  0  0
 12  4  1  0  0  0  0
 13 27  1  0  0  0  0
 13 14  1  0  0  0  0
 14 28  1  6  0  0  0
 14 25  1  0  0  0  0
 14 15  1  0  0  0  0
 15 29  1  0  0  0  0
 15 16  1  0  0  0  0
 16 24  1  0  0  0  0
 17 16  2  0  0  0  0
 17 18  1  0  0  0  0
 18 32  1  0  0  0  0
 18 19  1  0  0  0  0
 19 20  1  0  0  0  0
 20 33  1  0  0  0  0
 20 21  2  0  0  0  0
 21 34  1  0  0  0  0
 22 21  1  0  0  0  0
 22 35  1  0  0  0  0
 23 22  2  0  0  0  0
 24 19  2  0  0  0  0
 24 23  1  0  0  0  0
 25 43  1  0  0  0  0
 26 25  2  0  0  0  0
 30 15  1  0  0  0  0
 31 17  1  0  0  0  0
 36 23  1  0  0  0  0
 37 38  1  0  0  0  0
 38 40  1  0  0  0  0
 38 39  2  0  0  0  0
 40 41  1  0  0  0  0
 41 51  1  0  0  0  0
 41 52  1  0  0  0  0
 41 42  1  0  0  0  0
 42 53  1  6  0  0  0
 42 44  1  0  0  0  0
 43 54  1  0  0  0  0
 43 42  1  0  0  0  0
 44 46  2  0  0  0  0
 44 45  1  0  0  0  0
 47 37  1  0  0  0  0
 48 37  1  0  0  0  0
 49 40  1  0  0  0  0
 50 40  1  0  0  0  0
M  END
$$$$
