CWT.pdb
 OpenBabel07022418293D

 51 52  0  0  1  0  0  0  0  0999 V2000
    4.2940   -1.7220    0.6930 N   0  0  0  0  0  0  0  0  0  0  0  0
    3.8500   -0.9460    1.8420 C   0  0  1  0  0  0  0  0  0  0  0  0
    4.6160    0.3470    1.9650 C   0  0  0  0  0  0  0  0  0  0  0  0
    4.4200    1.3980    0.5130 S   0  0  0  0  0  0  0  0  0  0  0  0
    2.3840   -0.7210    1.7970 C   0  0  0  0  0  0  0  0  0  0  0  0
    1.7910   -0.0710    2.6930 O   0  0  0  0  0  0  0  0  0  0  0  0
    5.3230   -1.6440    0.5650 H   0  0  0  0  0  0  0  0  0  0  0  0
    3.9480   -2.6840    0.7000 H   0  0  0  0  0  0  0  0  0  0  0  0
    4.1020   -1.5530    2.7370 H   0  0  0  0  0  0  0  0  0  0  0  0
    4.1600    0.8970    2.8280 H   0  0  0  0  0  0  0  0  0  0  0  0
    5.6680    0.1880    2.2360 H   0  0  0  0  0  0  0  0  0  0  0  0
    4.9560    2.6680    0.7980 H   0  0  0  0  0  0  0  0  0  0  0  0
    1.6330   -1.2500    0.7180 N   0  0  0  0  0  0  0  0  0  0  0  0
    0.2050   -1.0990    0.5610 C   0  0  1  0  0  0  0  0  0  0  0  0
   -0.1490   -0.3320   -0.6920 C   0  0  0  0  0  0  0  0  0  0  0  0
    0.4100    1.0200   -0.7140 C   0  0  0  0  0  0  0  0  0  0  0  0
    1.4970    1.4860   -1.4280 C   0  0  0  0  0  0  0  0  0  0  0  0
    1.6810    2.7960   -1.1650 N   0  0  0  0  0  0  0  0  0  0  0  0
    0.7410    3.2130   -0.2900 C   0  0  0  0  0  0  0  0  0  0  0  0
    0.4680    4.4420    0.3100 C   0  0  0  0  0  0  0  0  0  0  0  0
   -0.5970    4.5790    1.1960 C   0  0  0  0  0  0  0  0  0  0  0  0
   -1.3830    3.4770    1.4740 C   0  0  0  0  0  0  0  0  0  0  0  0
   -1.1070    2.2680    0.8770 C   0  0  0  0  0  0  0  0  0  0  0  0
   -0.0560    2.1280    0.0020 C   0  0  0  0  0  0  0  0  0  0  0  0
   -0.3850   -2.4600    0.5070 C   0  0  0  0  0  0  0  0  0  0  0  0
    0.3300   -3.4930    0.5950 O   0  0  0  0  0  0  0  0  0  0  0  0
    2.1460   -1.7830   -0.0110 H   0  0  0  0  0  0  0  0  0  0  0  0
   -0.1710   -0.5090    1.4210 H   0  0  0  0  0  0  0  0  0  0  0  0
   -1.2490   -0.2560   -0.7970 H   0  0  0  0  0  0  0  0  0  0  0  0
    0.2100   -0.8860   -1.5950 H   0  0  0  0  0  0  0  0  0  0  0  0
    2.1320    0.9290   -2.1040 H   0  0  0  0  0  0  0  0  0  0  0  0
    2.4240    3.3960   -1.5650 H   0  0  0  0  0  0  0  0  0  0  0  0
    1.0980    5.2910    0.0770 H   0  0  0  0  0  0  0  0  0  0  0  0
   -0.7730    5.5330    1.6350 H   0  0  0  0  0  0  0  0  0  0  0  0
   -2.2060    3.5660    2.1540 H   0  0  0  0  0  0  0  0  0  0  0  0
   -1.7090    1.4170    1.0880 H   0  0  0  0  0  0  0  0  0  0  0  0
   -4.4740   -3.1970    1.3740 C   0  0  0  0  0  0  0  0  0  0  0  0
   -3.3450   -4.1850    1.4690 C   0  0  1  0  0  0  0  0  0  0  0  0
   -3.8780   -5.4630    1.3820 O   0  0  0  0  0  0  0  0  0  0  0  0
   -2.3700   -4.0220    0.3000 C   0  0  2  0  0  0  0  0  0  0  0  0
   -1.7840   -2.6870    0.3540 N   0  0  0  0  0  0  0  0  0  0  0  0
   -3.0400   -4.2580   -0.9900 C   0  0  0  0  0  0  0  0  0  0  0  0
   -3.0530   -3.3700   -1.8620 O   0  0  0  0  0  0  0  0  0  0  0  0
   -3.6530   -5.4640   -1.2310 O   0  0  0  0  0  0  0  0  0  0  0  0
   -5.2920   -3.5590    2.0220 H   0  0  0  0  0  0  0  0  0  0  0  0
   -4.8780   -3.1040    0.3430 H   0  0  0  0  0  0  0  0  0  0  0  0
   -4.1720   -2.2010    1.7980 H   0  0  0  0  0  0  0  0  0  0  0  0
   -2.8140   -4.0200    2.4220 H   0  0  0  0  0  0  0  0  0  0  0  0
   -4.2610   -5.7270    2.2580 H   0  0  0  0  0  0  0  0  0  0  0  0
   -1.5930   -4.8070    0.4030 H   0  0  0  0  0  0  0  0  0  0  0  0
   -2.3910   -1.8510    0.2800 H   0  0  0  0  0  0  0  0  0  0  0  0
  1  8  1  0  0  0  0
  1  2  1  0  0  0  0
  2  3  1  0  0  0  0
  2  9  1  1  0  0  0
  3 11  1  0  0  0  0
  3 10  1  0  0  0  0
  4 12  1  0  0  0  0
  4  3  1  0  0  0  0
  5  2  1  0  0  0  0
  5  6  2  0  0  0  0
  7  1  1  0  0  0  0
 13  5  1  0  0  0  0
 14 13  1  0  0  0  0
 14 28  1  1  0  0  0
 15 14  1  0  0  0  0
 16 15  1  0  0  0  0
 16 24  1  0  0  0  0
 17 18  1  0  0  0  0
 17 16  2  0  0  0  0
 18 19  1  0  0  0  0
 19 24  2  0  0  0  0
 19 20  1  0  0  0  0
 20 21  2  0  0  0  0
 21 22  1  0  0  0  0
 21 34  1  0  0  0  0
 22 35  1  0  0  0  0
 23 36  1  0  0  0  0
 23 22  2  0  0  0  0
 24 23  1  0  0  0  0
 25 14  1  0  0  0  0
 25 26  2  0  0  0  0
 27 13  1  0  0  0  0
 29 15  1  0  0  0  0
 30 15  1  0  0  0  0
 31 17  1  0  0  0  0
 32 18  1  0  0  0  0
 33 20  1  0  0  0  0
 37 38  1  0  0  0  0
 37 47  1  0  0  0  0
 37 45  1  0  0  0  0
 38 48  1  1  0  0  0
 39 38  1  0  0  0  0
 39 49  1  0  0  0  0
 40 41  1  0  0  0  0
 40 50  1  1  0  0  0
 40 38  1  0  0  0  0
 41 25  1  0  0  0  0
 42 40  1  0  0  0  0
 43 42  2  0  0  0  0
 44 42  1  0  0  0  0
 46 37  1  0  0  0  0
 51 41  1  0  0  0  0
M  END
$$$$
