CWY.pdb
 OpenBabel07022418293D

 58 60  0  0  1  0  0  0  0  0999 V2000
    5.7400   -1.2050    3.0600 N   0  0  0  0  0  0  0  0  0  0  0  0
    4.8820   -0.2750    2.3650 C   0  0  1  0  0  0  0  0  0  0  0  0
    5.5680    0.2060    1.0980 C   0  0  0  0  0  0  0  0  0  0  0  0
    5.9310   -1.1810   -0.0110 S   0  0  0  0  0  0  0  0  0  0  0  0
    3.5880   -0.9170    2.0760 C   0  0  0  0  0  0  0  0  0  0  0  0
    3.3640   -2.0850    2.4760 O   0  0  0  0  0  0  0  0  0  0  0  0
    6.7180   -1.1720    2.6900 H   0  0  0  0  0  0  0  0  0  0  0  0
    5.7110   -1.0400    4.1010 H   0  0  0  0  0  0  0  0  0  0  0  0
    4.7520    0.6210    3.0030 H   0  0  0  0  0  0  0  0  0  0  0  0
    4.9470    0.9870    0.6410 H   0  0  0  0  0  0  0  0  0  0  0  0
    6.5410    0.6410    1.4100 H   0  0  0  0  0  0  0  0  0  0  0  0
    5.8970   -2.4200    0.6770 H   0  0  0  0  0  0  0  0  0  0  0  0
    2.5490   -0.2450    1.3370 N   0  0  0  0  0  0  0  0  0  0  0  0
    1.3010   -0.9020    1.0700 C   0  0  1  0  0  0  0  0  0  0  0  0
    0.1060   -0.2630    1.7060 C   0  0  0  0  0  0  0  0  0  0  0  0
   -0.1600    1.1190    1.2890 C   0  0  0  0  0  0  0  0  0  0  0  0
    0.3970    1.8720    0.2900 C   0  0  0  0  0  0  0  0  0  0  0  0
   -0.1950    3.0750    0.2980 N   0  0  0  0  0  0  0  0  0  0  0  0
   -1.1330    3.1550    1.2710 C   0  0  0  0  0  0  0  0  0  0  0  0
   -1.9970    4.1480    1.6840 C   0  0  0  0  0  0  0  0  0  0  0  0
   -2.8690    3.9580    2.7260 C   0  0  0  0  0  0  0  0  0  0  0  0
   -2.8540    2.7370    3.3510 C   0  0  0  0  0  0  0  0  0  0  0  0
   -1.9980    1.7400    2.9490 C   0  0  0  0  0  0  0  0  0  0  0  0
   -1.1070    1.9130    1.8960 C   0  0  0  0  0  0  0  0  0  0  0  0
    1.1050   -1.1560   -0.3790 C   0  0  0  0  0  0  0  0  0  0  0  0
    1.9570   -0.8830   -1.2530 O   0  0  0  0  0  0  0  0  0  0  0  0
    2.8120    0.7220    1.0430 H   0  0  0  0  0  0  0  0  0  0  0  0
    1.3710   -1.9320    1.5330 H   0  0  0  0  0  0  0  0  0  0  0  0
    0.2490   -0.2700    2.8320 H   0  0  0  0  0  0  0  0  0  0  0  0
   -0.7790   -0.9330    1.5160 H   0  0  0  0  0  0  0  0  0  0  0  0
    1.1710    1.6020   -0.4130 H   0  0  0  0  0  0  0  0  0  0  0  0
   -0.0210    3.9030   -0.3270 H   0  0  0  0  0  0  0  0  0  0  0  0
   -1.9950    5.0970    1.1830 H   0  0  0  0  0  0  0  0  0  0  0  0
   -3.5310    4.7550    3.0200 H   0  0  0  0  0  0  0  0  0  0  0  0
   -3.5190    2.5480    4.1680 H   0  0  0  0  0  0  0  0  0  0  0  0
   -1.9790    0.7580    3.4430 H   0  0  0  0  0  0  0  0  0  0  0  0
   -5.4170   -4.8580    0.2830 O   0  0  0  0  0  0  0  0  0  0  0  0
   -4.2420   -4.5180   -0.3610 C   0  0  0  0  0  0  0  0  0  0  0  0
   -3.0160   -4.6350    0.2760 C   0  0  0  0  0  0  0  0  0  0  0  0
   -1.8820   -4.2870   -0.3990 C   0  0  0  0  0  0  0  0  0  0  0  0
   -1.9370   -3.8280   -1.6870 C   0  0  0  0  0  0  0  0  0  0  0  0
   -0.6910   -3.4420   -2.4320 C   0  0  0  0  0  0  0  0  0  0  0  0
   -0.3250   -1.9930   -2.2390 C   0  0  2  0  0  0  0  0  0  0  0  0
   -0.1130   -1.7380   -0.8130 N   0  0  0  0  0  0  0  0  0  0  0  0
   -1.4300   -1.1480   -2.7620 C   0  0  0  0  0  0  0  0  0  0  0  0
   -1.7650   -1.1570   -3.9700 O   0  0  0  0  0  0  0  0  0  0  0  0
   -3.1410   -3.7090   -2.3310 C   0  0  0  0  0  0  0  0  0  0  0  0
   -4.3010   -4.0590   -1.6560 C   0  0  0  0  0  0  0  0  0  0  0  0
   -2.1560   -0.2940   -1.9230 O   0  0  0  0  0  0  0  0  0  0  0  0
   -5.6430   -4.3650    1.1450 H   0  0  0  0  0  0  0  0  0  0  0  0
   -2.9820   -5.0070    1.3170 H   0  0  0  0  0  0  0  0  0  0  0  0
   -0.9090   -4.3790    0.1080 H   0  0  0  0  0  0  0  0  0  0  0  0
   -0.8100   -3.6780   -3.5090 H   0  0  0  0  0  0  0  0  0  0  0  0
    0.1270   -4.1120   -2.0620 H   0  0  0  0  0  0  0  0  0  0  0  0
    0.6110   -1.7830   -2.7950 H   0  0  0  0  0  0  0  0  0  0  0  0
   -0.8960   -2.0080   -0.1750 H   0  0  0  0  0  0  0  0  0  0  0  0
   -3.2240   -3.3490   -3.3740 H   0  0  0  0  0  0  0  0  0  0  0  0
   -5.2380   -3.9500   -2.1990 H   0  0  0  0  0  0  0  0  0  0  0  0
  1  8  1  0  0  0  0
  2  9  1  1  0  0  0
  2  1  1  0  0  0  0
  3 11  1  0  0  0  0
  3  2  1  0  0  0  0
  4 12  1  0  0  0  0
  4  3  1  0  0  0  0
  5  2  1  0  0  0  0
  5  6  2  0  0  0  0
  7  1  1  0  0  0  0
 10  3  1  0  0  0  0
 13  5  1  0  0  0  0
 14 13  1  0  0  0  0
 14 28  1  1  0  0  0
 14 15  1  0  0  0  0
 15 29  1  0  0  0  0
 16 15  1  0  0  0  0
 16 24  1  0  0  0  0
 17 18  1  0  0  0  0
 17 16  2  0  0  0  0
 18 19  1  0  0  0  0
 19 20  2  0  0  0  0
 19 24  1  0  0  0  0
 20 21  1  0  0  0  0
 21 34  1  0  0  0  0
 21 22  2  0  0  0  0
 22 35  1  0  0  0  0
 23 22  1  0  0  0  0
 23 36  1  0  0  0  0
 24 23  2  0  0  0  0
 25 14  1  0  0  0  0
 26 25  2  0  0  0  0
 27 13  1  0  0  0  0
 30 15  1  0  0  0  0
 31 17  1  0  0  0  0
 32 18  1  0  0  0  0
 33 20  1  0  0  0  0
 37 50  1  0  0  0  0
 38 39  1  0  0  0  0
 38 37  1  0  0  0  0
 39 51  1  0  0  0  0
 40 52  1  0  0  0  0
 40 39  2  0  0  0  0
 41 40  1  0  0  0  0
 42 43  1  0  0  0  0
 42 54  1  0  0  0  0
 42 41  1  0  0  0  0
 43 55  1  6  0  0  0
 43 44  1  0  0  0  0
 44 25  1  0  0  0  0
 44 56  1  0  0  0  0
 45 43  1  0  0  0  0
 45 49  1  0  0  0  0
 46 45  2  0  0  0  0
 47 41  2  0  0  0  0
 47 48  1  0  0  0  0
 48 38  2  0  0  0  0
 53 42  1  0  0  0  0
 57 47  1  0  0  0  0
 58 48  1  0  0  0  0
M  END
$$$$
