CYI.pdb
 OpenBabel07022418303D

 53 53  0  0  1  0  0  0  0  0999 V2000
    1.0520    3.4690    2.4180 N   0  0  0  0  0  0  0  0  0  0  0  0
    0.5300    2.1050    2.4520 C   0  0  1  0  0  0  0  0  0  0  0  0
   -0.9300    2.2390    2.8210 C   0  0  0  0  0  0  0  0  0  0  0  0
   -1.7850    0.6700    2.9300 S   0  0  0  0  0  0  0  0  0  0  0  0
    0.7450    1.4790    1.1240 C   0  0  0  0  0  0  0  0  0  0  0  0
    1.2720    2.1850    0.1920 O   0  0  0  0  0  0  0  0  0  0  0  0
    1.4430    3.7280    3.3510 H   0  0  0  0  0  0  0  0  0  0  0  0
    0.2930    4.1560    2.2220 H   0  0  0  0  0  0  0  0  0  0  0  0
    1.0920    1.5880    3.2560 H   0  0  0  0  0  0  0  0  0  0  0  0
   -1.4630    2.9230    2.1310 H   0  0  0  0  0  0  0  0  0  0  0  0
   -0.9510    2.7610    3.8160 H   0  0  0  0  0  0  0  0  0  0  0  0
   -1.0690   -0.1980    3.7840 H   0  0  0  0  0  0  0  0  0  0  0  0
    6.7160    0.0450    1.6950 O   0  0  0  0  0  0  0  0  0  0  0  0
    5.4790   -0.3280    1.1340 C   0  0  0  0  0  0  0  0  0  0  0  0
    5.2410   -0.2050   -0.2110 C   0  0  0  0  0  0  0  0  0  0  0  0
    4.0120   -0.5760   -0.7580 C   0  0  0  0  0  0  0  0  0  0  0  0
    2.9980   -1.0760    0.0260 C   0  0  0  0  0  0  0  0  0  0  0  0
    1.6980   -1.4760   -0.5070 C   0  0  0  0  0  0  0  0  0  0  0  0
    0.6680   -0.3580   -0.5230 C   0  0  2  0  0  0  0  0  0  0  0  0
    0.4140    0.1500    0.7940 N   0  0  0  0  0  0  0  0  0  0  0  0
   -0.5140   -0.9270   -1.2050 C   0  0  0  0  0  0  0  0  0  0  0  0
   -0.3240   -1.3390   -2.3840 O   0  0  0  0  0  0  0  0  0  0  0  0
    3.2490   -1.1950    1.3760 C   0  0  0  0  0  0  0  0  0  0  0  0
    4.4710   -0.8270    1.9280 C   0  0  0  0  0  0  0  0  0  0  0  0
    7.5650   -0.4030    1.3850 H   0  0  0  0  0  0  0  0  0  0  0  0
    6.0320    0.1860   -0.8280 H   0  0  0  0  0  0  0  0  0  0  0  0
    3.8450   -0.4730   -1.8140 H   0  0  0  0  0  0  0  0  0  0  0  0
    1.7380   -1.8580   -1.5610 H   0  0  0  0  0  0  0  0  0  0  0  0
    1.2190   -2.3090    0.0790 H   0  0  0  0  0  0  0  0  0  0  0  0
    1.1100    0.4290   -1.1870 H   0  0  0  0  0  0  0  0  0  0  0  0
   -0.0130   -0.4590    1.5110 H   0  0  0  0  0  0  0  0  0  0  0  0
    2.4890   -1.5810    2.0380 H   0  0  0  0  0  0  0  0  0  0  0  0
    4.6880   -0.9130    2.9860 H   0  0  0  0  0  0  0  0  0  0  0  0
   -2.7710   -2.9040    1.5440 C   0  0  0  0  0  0  0  0  0  0  0  0
   -3.8360   -2.9850    0.5220 C   0  0  0  0  0  0  0  0  0  0  0  0
   -3.3870   -2.9590   -0.8940 C   0  0  2  0  0  0  0  0  0  0  0  0
   -2.4560   -4.0930   -1.2540 C   0  0  0  0  0  0  0  0  0  0  0  0
   -2.9310   -1.6190   -1.4020 C   0  0  2  0  0  0  0  0  0  0  0  0
   -1.8130   -1.0560   -0.6810 N   0  0  0  0  0  0  0  0  0  0  0  0
   -4.0770   -0.6750   -1.4890 C   0  0  0  0  0  0  0  0  0  0  0  0
   -5.0980   -1.0860   -2.1020 O   0  0  0  0  0  0  0  0  0  0  0  0
   -4.0470    0.5880   -0.9350 O   0  0  0  0  0  0  0  0  0  0  0  0
   -1.7450   -2.9370    1.1780 H   0  0  0  0  0  0  0  0  0  0  0  0
   -2.9090   -1.9810    2.1410 H   0  0  0  0  0  0  0  0  0  0  0  0
   -2.8890   -3.7640    2.2670 H   0  0  0  0  0  0  0  0  0  0  0  0
   -4.5840   -2.1620    0.6470 H   0  0  0  0  0  0  0  0  0  0  0  0
   -4.4480   -3.9260    0.6510 H   0  0  0  0  0  0  0  0  0  0  0  0
   -4.3210   -3.1820   -1.5040 H   0  0  0  0  0  0  0  0  0  0  0  0
   -3.0020   -5.0580   -1.3120 H   0  0  0  0  0  0  0  0  0  0  0  0
   -2.1180   -3.8850   -2.3080 H   0  0  0  0  0  0  0  0  0  0  0  0
   -1.6150   -4.2190   -0.5800 H   0  0  0  0  0  0  0  0  0  0  0  0
   -2.5260   -1.8280   -2.4410 H   0  0  0  0  0  0  0  0  0  0  0  0
   -1.9670   -0.7180    0.2930 H   0  0  0  0  0  0  0  0  0  0  0  0
  1  2  1  0  0  0  0
  1  7  1  0  0  0  0
  2  3  1  0  0  0  0
  2  9  1  1  0  0  0
  3  4  1  0  0  0  0
  3 11  1  0  0  0  0
  4 12  1  0  0  0  0
  5  2  1  0  0  0  0
  6  5  2  0  0  0  0
  8  1  1  0  0  0  0
 10  3  1  0  0  0  0
 14 13  1  0  0  0  0
 14 24  1  0  0  0  0
 15 14  2  0  0  0  0
 16 15  1  0  0  0  0
 16 17  2  0  0  0  0
 17 23  1  0  0  0  0
 18 17  1  0  0  0  0
 18 29  1  0  0  0  0
 19 30  1  6  0  0  0
 19 18  1  0  0  0  0
 19 20  1  0  0  0  0
 20  5  1  0  0  0  0
 20 31  1  0  0  0  0
 21 39  1  0  0  0  0
 21 19  1  0  0  0  0
 22 21  2  0  0  0  0
 23 24  2  0  0  0  0
 23 32  1  0  0  0  0
 24 33  1  0  0  0  0
 25 13  1  0  0  0  0
 26 15  1  0  0  0  0
 27 16  1  0  0  0  0
 28 18  1  0  0  0  0
 34 44  1  0  0  0  0
 34 45  1  0  0  0  0
 35 46  1  0  0  0  0
 35 47  1  0  0  0  0
 35 34  1  0  0  0  0
 36 48  1  6  0  0  0
 36 35  1  0  0  0  0
 37 36  1  0  0  0  0
 37 51  1  0  0  0  0
 38 52  1  6  0  0  0
 38 36  1  0  0  0  0
 38 39  1  0  0  0  0
 39 53  1  0  0  0  0
 40 38  1  0  0  0  0
 40 42  1  0  0  0  0
 41 40  2  0  0  0  0
 43 34  1  0  0  0  0
 49 37  1  0  0  0  0
 50 37  1  0  0  0  0
M  END
$$$$
