CYK.pdb
 OpenBabel07022418303D

 55 55  0  0  1  0  0  0  0  0999 V2000
    2.2250   -1.9060    4.0740 N   0  0  0  0  0  0  0  0  0  0  0  0
    1.6240   -1.8640    2.7720 C   0  0  1  0  0  0  0  0  0  0  0  0
    0.2880   -2.6120    2.8490 C   0  0  0  0  0  0  0  0  0  0  0  0
    0.5580   -4.3250    3.3450 S   0  0  0  0  0  0  0  0  0  0  0  0
    1.3960   -0.4890    2.2830 C   0  0  0  0  0  0  0  0  0  0  0  0
    1.7300    0.4970    3.0130 O   0  0  0  0  0  0  0  0  0  0  0  0
    3.1970   -1.5340    4.0670 H   0  0  0  0  0  0  0  0  0  0  0  0
    2.2780   -2.8930    4.3800 H   0  0  0  0  0  0  0  0  0  0  0  0
    2.2650   -2.4350    2.0590 H   0  0  0  0  0  0  0  0  0  0  0  0
   -0.4120   -2.0730    3.5300 H   0  0  0  0  0  0  0  0  0  0  0  0
   -0.1430   -2.6160    1.8260 H   0  0  0  0  0  0  0  0  0  0  0  0
    0.4850   -4.4290    4.7560 H   0  0  0  0  0  0  0  0  0  0  0  0
    6.8820    0.8730    0.2520 O   0  0  0  0  0  0  0  0  0  0  0  0
    5.5210    1.0200    0.0060 C   0  0  0  0  0  0  0  0  0  0  0  0
    4.9070    2.2400    0.1260 C   0  0  0  0  0  0  0  0  0  0  0  0
    3.5450    2.2860   -0.1410 C   0  0  0  0  0  0  0  0  0  0  0  0
    2.8310    1.1780   -0.5070 C   0  0  0  0  0  0  0  0  0  0  0  0
    1.3860    1.2380   -0.7880 C   0  0  0  0  0  0  0  0  0  0  0  0
    0.5470    0.9930    0.4420 C   0  0  2  0  0  0  0  0  0  0  0  0
    0.8100   -0.3070    1.0080 N   0  0  0  0  0  0  0  0  0  0  0  0
   -0.8810    1.2440    0.2180 C   0  0  0  0  0  0  0  0  0  0  0  0
   -1.3110    2.3180   -0.2680 O   0  0  0  0  0  0  0  0  0  0  0  0
    3.4780   -0.0240   -0.6170 C   0  0  0  0  0  0  0  0  0  0  0  0
    4.8270   -0.1100   -0.3610 C   0  0  0  0  0  0  0  0  0  0  0  0
    7.4450    0.4390   -0.4790 H   0  0  0  0  0  0  0  0  0  0  0  0
    5.4670    3.1190    0.4160 H   0  0  0  0  0  0  0  0  0  0  0  0
    3.0720    3.2710   -0.0390 H   0  0  0  0  0  0  0  0  0  0  0  0
    1.1790    0.5060   -1.5970 H   0  0  0  0  0  0  0  0  0  0  0  0
    1.1280    2.2340   -1.2030 H   0  0  0  0  0  0  0  0  0  0  0  0
    0.8930    1.7480    1.2020 H   0  0  0  0  0  0  0  0  0  0  0  0
    0.5580   -1.1460    0.4580 H   0  0  0  0  0  0  0  0  0  0  0  0
    2.9300   -0.9400   -0.9120 H   0  0  0  0  0  0  0  0  0  0  0  0
    5.3220   -1.0850   -0.4570 H   0  0  0  0  0  0  0  0  0  0  0  0
   -1.8980    0.2610    0.5460 N   0  0  0  0  0  0  0  0  0  0  0  0
   -3.2740    0.5580    0.3060 C   0  0  1  0  0  0  0  0  0  0  0  0
   -3.8200   -0.0360   -0.9260 C   0  0  0  0  0  0  0  0  0  0  0  0
   -3.8760   -1.4780   -1.1480 C   0  0  0  0  0  0  0  0  0  0  0  0
   -2.6250   -2.2770   -1.1930 C   0  0  0  0  0  0  0  0  0  0  0  0
   -2.9740   -3.7520   -1.5100 C   0  0  0  0  0  0  0  0  0  0  0  0
   -3.6460   -3.8460   -2.7890 N   0  0  0  0  0  0  0  0  0  0  0  0
   -4.0620    0.1750    1.5140 C   0  0  0  0  0  0  0  0  0  0  0  0
   -3.5370   -0.3250    2.5430 O   0  0  0  0  0  0  0  0  0  0  0  0
   -5.4350    0.3720    1.5170 O   0  0  0  0  0  0  0  0  0  0  0  0
   -1.5940   -0.6050    0.9710 H   0  0  0  0  0  0  0  0  0  0  0  0
   -3.4000    1.7110    0.2280 H   0  0  0  0  0  0  0  0  0  0  0  0
   -4.9110    0.3390   -1.0000 H   0  0  0  0  0  0  0  0  0  0  0  0
   -3.3850    0.4900   -1.8510 H   0  0  0  0  0  0  0  0  0  0  0  0
   -4.4100   -1.6790   -2.1430 H   0  0  0  0  0  0  0  0  0  0  0  0
   -4.6080   -1.9350   -0.4110 H   0  0  0  0  0  0  0  0  0  0  0  0
   -2.1540   -2.3140   -0.2040 H   0  0  0  0  0  0  0  0  0  0  0  0
   -1.8990   -1.9190   -1.9400 H   0  0  0  0  0  0  0  0  0  0  0  0
   -2.0510   -4.3500   -1.4900 H   0  0  0  0  0  0  0  0  0  0  0  0
   -3.6990   -4.0490   -0.7270 H   0  0  0  0  0  0  0  0  0  0  0  0
   -3.4260   -4.6930   -3.3230 H   0  0  0  0  0  0  0  0  0  0  0  0
   -4.6500   -3.6550   -2.6360 H   0  0  0  0  0  0  0  0  0  0  0  0
  1  8  1  0  0  0  0
  2  9  1  6  0  0  0
  2  3  1  0  0  0  0
  2  1  1  0  0  0  0
  3  4  1  0  0  0  0
  3 10  1  0  0  0  0
  4 12  1  0  0  0  0
  5  2  1  0  0  0  0
  5  6  2  0  0  0  0
  7  1  1  0  0  0  0
 11  3  1  0  0  0  0
 14 15  1  0  0  0  0
 14 13  1  0  0  0  0
 15 26  1  0  0  0  0
 16 27  1  0  0  0  0
 16 15  2  0  0  0  0
 17 16  1  0  0  0  0
 18 17  1  0  0  0  0
 18 19  1  0  0  0  0
 19 20  1  0  0  0  0
 19 30  1  1  0  0  0
 20  5  1  0  0  0  0
 21 19  1  0  0  0  0
 21 34  1  0  0  0  0
 22 21  2  0  0  0  0
 23 17  2  0  0  0  0
 23 24  1  0  0  0  0
 24 14  2  0  0  0  0
 25 13  1  0  0  0  0
 28 18  1  0  0  0  0
 29 18  1  0  0  0  0
 31 20  1  0  0  0  0
 32 23  1  0  0  0  0
 33 24  1  0  0  0  0
 34 44  1  0  0  0  0
 35 45  1  6  0  0  0
 35 34  1  0  0  0  0
 35 41  1  0  0  0  0
 36 35  1  0  0  0  0
 37 36  1  0  0  0  0
 37 49  1  0  0  0  0
 38 37  1  0  0  0  0
 38 50  1  0  0  0  0
 39 52  1  0  0  0  0
 39 38  1  0  0  0  0
 39 53  1  0  0  0  0
 40 55  1  0  0  0  0
 40 39  1  0  0  0  0
 41 43  2  0  0  0  0
 41 42  1  0  0  0  0
 46 36  1  0  0  0  0
 47 36  1  0  0  0  0
 48 37  1  0  0  0  0
 51 38  1  0  0  0  0
 54 40  1  0  0  0  0
M  END
$$$$
