CYM.pdb
 OpenBabel07022418303D

 51 51  0  0  1  0  0  0  0  0999 V2000
   -1.1990    3.3090    3.6310 N   0  0  0  0  0  0  0  0  0  0  0  0
   -0.3900    2.0910    3.3670 C   0  0  1  0  0  0  0  0  0  0  0  0
   -1.1680    0.8910    3.8050 C   0  0  0  0  0  0  0  0  0  0  0  0
   -0.3020   -0.6810    3.6270 S   0  0  0  0  0  0  0  0  0  0  0  0
   -0.0280    2.1040    1.9420 C   0  0  0  0  0  0  0  0  0  0  0  0
   -0.3450    3.1680    1.2660 O   0  0  0  0  0  0  0  0  0  0  0  0
   -0.9590    3.5850    4.6060 H   0  0  0  0  0  0  0  0  0  0  0  0
   -2.1950    2.9960    3.6150 H   0  0  0  0  0  0  0  0  0  0  0  0
    0.5470    2.1680    3.9660 H   0  0  0  0  0  0  0  0  0  0  0  0
   -2.1000    0.8490    3.1660 H   0  0  0  0  0  0  0  0  0  0  0  0
   -1.5540    1.0050    4.8490 H   0  0  0  0  0  0  0  0  0  0  0  0
   -0.1670   -1.3120    4.8710 H   0  0  0  0  0  0  0  0  0  0  0  0
    3.9140   -4.4120    0.8820 O   0  0  0  0  0  0  0  0  0  0  0  0
    3.5370   -3.1230    0.5630 C   0  0  0  0  0  0  0  0  0  0  0  0
    3.6760   -2.1040    1.5020 C   0  0  0  0  0  0  0  0  0  0  0  0
    3.2800   -0.8360    1.1240 C   0  0  0  0  0  0  0  0  0  0  0  0
    2.7640   -0.5810   -0.1410 C   0  0  0  0  0  0  0  0  0  0  0  0
    2.3760    0.7890   -0.4710 C   0  0  0  0  0  0  0  0  0  0  0  0
    0.9710    1.1710   -0.1470 C   0  0  2  0  0  0  0  0  0  0  0  0
    0.6370    1.0630    1.2530 N   0  0  0  0  0  0  0  0  0  0  0  0
    0.0410    0.4820   -1.0710 C   0  0  0  0  0  0  0  0  0  0  0  0
    0.3060    0.5090   -2.3260 O   0  0  0  0  0  0  0  0  0  0  0  0
    2.6260   -1.5860   -1.0640 C   0  0  0  0  0  0  0  0  0  0  0  0
    3.0150   -2.8550   -0.7050 C   0  0  0  0  0  0  0  0  0  0  0  0
    3.2710   -5.0460    1.3600 H   0  0  0  0  0  0  0  0  0  0  0  0
    4.0800   -2.3160    2.4810 H   0  0  0  0  0  0  0  0  0  0  0  0
    3.3900   -0.0370    1.8590 H   0  0  0  0  0  0  0  0  0  0  0  0
    2.5930    0.9570   -1.5480 H   0  0  0  0  0  0  0  0  0  0  0  0
    3.0790    1.4820    0.0790 H   0  0  0  0  0  0  0  0  0  0  0  0
    0.8890    2.2940   -0.3850 H   0  0  0  0  0  0  0  0  0  0  0  0
    0.9080    0.2000    1.7530 H   0  0  0  0  0  0  0  0  0  0  0  0
    2.2340   -1.4400   -2.0550 H   0  0  0  0  0  0  0  0  0  0  0  0
    2.9100   -3.6590   -1.4340 H   0  0  0  0  0  0  0  0  0  0  0  0
   -0.5470   -3.4470    1.3650 C   0  0  0  0  0  0  0  0  0  0  0  0
   -2.0880   -2.5040    1.2360 S   0  0  0  0  0  0  0  0  0  0  0  0
   -2.9170   -2.7390   -0.3210 C   0  0  0  0  0  0  0  0  0  0  0  0
   -2.2360   -2.2440   -1.5330 C   0  0  0  0  0  0  0  0  0  0  0  0
   -1.9600   -0.8140   -1.7110 C   0  0  2  0  0  0  0  0  0  0  0  0
   -1.1370   -0.2160   -0.7390 N   0  0  0  0  0  0  0  0  0  0  0  0
   -3.1790   -0.0070   -2.0300 C   0  0  0  0  0  0  0  0  0  0  0  0
   -3.4320    1.1170   -1.5190 O   0  0  0  0  0  0  0  0  0  0  0  0
   -4.1370   -0.4500   -2.9320 O   0  0  0  0  0  0  0  0  0  0  0  0
   -0.7470   -4.5030    1.0370 H   0  0  0  0  0  0  0  0  0  0  0  0
   -0.3180   -3.5270    2.4610 H   0  0  0  0  0  0  0  0  0  0  0  0
    0.2900   -3.0200    0.8030 H   0  0  0  0  0  0  0  0  0  0  0  0
   -3.0340   -3.8600   -0.4680 H   0  0  0  0  0  0  0  0  0  0  0  0
   -3.9700   -2.3820   -0.2370 H   0  0  0  0  0  0  0  0  0  0  0  0
   -1.2710   -2.8510   -1.6290 H   0  0  0  0  0  0  0  0  0  0  0  0
   -2.8320   -2.6600   -2.4140 H   0  0  0  0  0  0  0  0  0  0  0  0
   -1.3770   -0.7510   -2.7000 H   0  0  0  0  0  0  0  0  0  0  0  0
   -1.4280   -0.2890    0.2860 H   0  0  0  0  0  0  0  0  0  0  0  0
  1  7  1  0  0  0  0
  2  1  1  0  0  0  0
  2  3  1  0  0  0  0
  2  9  1  1  0  0  0
  3 11  1  0  0  0  0
  4  3  1  0  0  0  0
  4 12  1  0  0  0  0
  5  2  1  0  0  0  0
  6  5  2  0  0  0  0
  8  1  1  0  0  0  0
 10  3  1  0  0  0  0
 13 25  1  0  0  0  0
 14 13  1  0  0  0  0
 14 15  1  0  0  0  0
 15 26  1  0  0  0  0
 16 15  2  0  0  0  0
 16 27  1  0  0  0  0
 17 16  1  0  0  0  0
 18 19  1  0  0  0  0
 18 17  1  0  0  0  0
 18 29  1  0  0  0  0
 19 30  1  6  0  0  0
 19 20  1  0  0  0  0
 20 31  1  0  0  0  0
 20  5  1  0  0  0  0
 21 39  1  0  0  0  0
 21 19  1  0  0  0  0
 22 21  2  0  0  0  0
 23 24  1  0  0  0  0
 23 17  2  0  0  0  0
 24 14  2  0  0  0  0
 28 18  1  0  0  0  0
 32 23  1  0  0  0  0
 33 24  1  0  0  0  0
 34 44  1  0  0  0  0
 35 34  1  0  0  0  0
 36 47  1  0  0  0  0
 36 35  1  0  0  0  0
 37 36  1  0  0  0  0
 38 50  1  6  0  0  0
 38 37  1  0  0  0  0
 38 39  1  0  0  0  0
 39 51  1  0  0  0  0
 40 38  1  0  0  0  0
 40 41  1  0  0  0  0
 42 40  2  0  0  0  0
 43 34  1  0  0  0  0
 45 34  1  0  0  0  0
 46 36  1  0  0  0  0
 48 37  1  0  0  0  0
 49 37  1  0  0  0  0
M  END
$$$$
