CYV.pdb
 OpenBabel07022418303D

 50 50  0  0  1  0  0  0  0  0999 V2000
    2.8400    0.1840    5.4110 N   0  0  0  0  0  0  0  0  0  0  0  0
    2.3790   -0.6860    4.2990 C   0  0  1  0  0  0  0  0  0  0  0  0
    1.4360   -1.6890    4.9060 C   0  0  0  0  0  0  0  0  0  0  0  0
    0.7910   -2.8320    3.6670 S   0  0  0  0  0  0  0  0  0  0  0  0
    1.8370    0.1190    3.2140 C   0  0  0  0  0  0  0  0  0  0  0  0
    1.6800    1.3640    3.4210 O   0  0  0  0  0  0  0  0  0  0  0  0
    3.5940   -0.3580    5.9170 H   0  0  0  0  0  0  0  0  0  0  0  0
    2.0420    0.2460    6.0820 H   0  0  0  0  0  0  0  0  0  0  0  0
    3.2840   -1.2140    3.9460 H   0  0  0  0  0  0  0  0  0  0  0  0
    2.0370   -2.2990    5.6250 H   0  0  0  0  0  0  0  0  0  0  0  0
    0.6380   -1.2190    5.5150 H   0  0  0  0  0  0  0  0  0  0  0  0
   -0.1750   -3.6670    4.2160 H   0  0  0  0  0  0  0  0  0  0  0  0
    2.6070   -4.9370   -2.1990 O   0  0  0  0  0  0  0  0  0  0  0  0
    2.4040   -3.6350   -1.7520 C   0  0  0  0  0  0  0  0  0  0  0  0
    1.3610   -2.8830   -2.2490 C   0  0  0  0  0  0  0  0  0  0  0  0
    1.1730   -1.5790   -1.7880 C   0  0  0  0  0  0  0  0  0  0  0  0
    2.0040   -1.0250   -0.8480 C   0  0  0  0  0  0  0  0  0  0  0  0
    1.8260    0.3560   -0.3410 C   0  0  0  0  0  0  0  0  0  0  0  0
    0.9390    0.3980    0.8790 C   0  0  2  0  0  0  0  0  0  0  0  0
    1.4810   -0.4020    1.9590 N   0  0  0  0  0  0  0  0  0  0  0  0
   -0.3940   -0.1090    0.5290 C   0  0  0  0  0  0  0  0  0  0  0  0
   -0.8310   -1.1390    1.0960 O   0  0  0  0  0  0  0  0  0  0  0  0
    3.0460   -1.7650   -0.3480 C   0  0  0  0  0  0  0  0  0  0  0  0
    3.2230   -3.0510   -0.8080 C   0  0  0  0  0  0  0  0  0  0  0  0
    3.2620   -5.0370   -2.9840 H   0  0  0  0  0  0  0  0  0  0  0  0
    0.6970   -3.3160   -2.9940 H   0  0  0  0  0  0  0  0  0  0  0  0
    0.3350   -1.0230   -2.2120 H   0  0  0  0  0  0  0  0  0  0  0  0
    1.3390    0.9910   -1.1210 H   0  0  0  0  0  0  0  0  0  0  0  0
    2.8290    0.7730   -0.1740 H   0  0  0  0  0  0  0  0  0  0  0  0
    0.8860    1.4450    1.2790 H   0  0  0  0  0  0  0  0  0  0  0  0
    1.6200   -1.4180    1.7900 H   0  0  0  0  0  0  0  0  0  0  0  0
    3.7190   -1.3570    0.3940 H   0  0  0  0  0  0  0  0  0  0  0  0
    4.0550   -3.6690   -0.4210 H   0  0  0  0  0  0  0  0  0  0  0  0
   -3.6130    2.2510   -0.7350 C   0  0  0  0  0  0  0  0  0  0  0  0
   -3.6730    0.8680   -0.1790 C   0  0  0  0  0  0  0  0  0  0  0  0
   -3.6650    0.8450    1.3230 C   0  0  0  0  0  0  0  0  0  0  0  0
   -2.5650   -0.0220   -0.7460 C   0  0  2  0  0  0  0  0  0  0  0  0
   -1.2670    0.5030   -0.4400 N   0  0  0  0  0  0  0  0  0  0  0  0
   -2.8480   -0.2130   -2.1710 C   0  0  0  0  0  0  0  0  0  0  0  0
   -1.9860    0.1120   -3.0240 O   0  0  0  0  0  0  0  0  0  0  0  0
   -4.0400   -0.7430   -2.6450 O   0  0  0  0  0  0  0  0  0  0  0  0
   -3.4340    2.9920    0.0720 H   0  0  0  0  0  0  0  0  0  0  0  0
   -2.7730    2.3150   -1.4710 H   0  0  0  0  0  0  0  0  0  0  0  0
   -4.5840    2.4900   -1.2100 H   0  0  0  0  0  0  0  0  0  0  0  0
   -4.6150    0.3880   -0.5110 H   0  0  0  0  0  0  0  0  0  0  0  0
   -4.7040    0.9840    1.7340 H   0  0  0  0  0  0  0  0  0  0  0  0
   -3.3070   -0.1200    1.7040 H   0  0  0  0  0  0  0  0  0  0  0  0
   -2.9930    1.6480    1.7130 H   0  0  0  0  0  0  0  0  0  0  0  0
   -2.7000   -0.9920   -0.2250 H   0  0  0  0  0  0  0  0  0  0  0  0
   -0.8950    1.3570   -0.9080 H   0  0  0  0  0  0  0  0  0  0  0  0
  1  7  1  0  0  0  0
  1  8  1  0  0  0  0
  2  9  1  6  0  0  0
  2  3  1  0  0  0  0
  2  1  1  0  0  0  0
  3 11  1  0  0  0  0
  3 10  1  0  0  0  0
  4 12  1  0  0  0  0
  4  3  1  0  0  0  0
  5  6  2  0  0  0  0
  5  2  1  0  0  0  0
 13 14  1  0  0  0  0
 14 24  1  0  0  0  0
 15 16  1  0  0  0  0
 15 14  2  0  0  0  0
 16 17  2  0  0  0  0
 17 23  1  0  0  0  0
 17 18  1  0  0  0  0
 18 29  1  0  0  0  0
 18 19  1  0  0  0  0
 19 30  1  1  0  0  0
 19 20  1  0  0  0  0
 20  5  1  0  0  0  0
 21 19  1  0  0  0  0
 21 22  2  0  0  0  0
 23 32  1  0  0  0  0
 24 33  1  0  0  0  0
 24 23  2  0  0  0  0
 25 13  1  0  0  0  0
 26 15  1  0  0  0  0
 27 16  1  0  0  0  0
 28 18  1  0  0  0  0
 31 20  1  0  0  0  0
 34 35  1  0  0  0  0
 34 42  1  0  0  0  0
 35 36  1  0  0  0  0
 36 47  1  0  0  0  0
 36 48  1  0  0  0  0
 36 46  1  0  0  0  0
 37 38  1  0  0  0  0
 37 49  1  1  0  0  0
 37 35  1  0  0  0  0
 38 21  1  0  0  0  0
 39 37  1  0  0  0  0
 40 39  2  0  0  0  0
 41 39  1  0  0  0  0
 43 34  1  0  0  0  0
 44 34  1  0  0  0  0
 45 35  1  0  0  0  0
 50 38  1  0  0  0  0
M  END
$$$$
