CYY.pdb
 OpenBabel07022418303D

 55 56  0  0  1  0  0  0  0  0999 V2000
    0.2670   -1.3240    3.8750 N   0  0  0  0  0  0  0  0  0  0  0  0
    1.5710   -1.4540    3.2890 C   0  0  1  0  0  0  0  0  0  0  0  0
    2.0800   -2.8620    3.3490 C   0  0  0  0  0  0  0  0  0  0  0  0
    1.0420   -4.0440    2.5030 S   0  0  0  0  0  0  0  0  0  0  0  0
    1.6500   -0.9300    1.8990 C   0  0  0  0  0  0  0  0  0  0  0  0
    2.7350   -1.1360    1.3010 O   0  0  0  0  0  0  0  0  0  0  0  0
   -0.4130   -2.0200    3.5530 H   0  0  0  0  0  0  0  0  0  0  0  0
   -0.0460   -0.3400    3.8710 H   0  0  0  0  0  0  0  0  0  0  0  0
    2.3120   -0.8550    3.9210 H   0  0  0  0  0  0  0  0  0  0  0  0
    3.1190   -2.9040    2.9410 H   0  0  0  0  0  0  0  0  0  0  0  0
    2.1430   -3.1710    4.4170 H   0  0  0  0  0  0  0  0  0  0  0  0
    1.7930   -4.8210    1.6260 H   0  0  0  0  0  0  0  0  0  0  0  0
    1.6830    5.5840    3.2430 O   0  0  0  0  0  0  0  0  0  0  0  0
    1.7420    4.4750    2.3860 C   0  0  0  0  0  0  0  0  0  0  0  0
    2.4680    3.3710    2.7280 C   0  0  0  0  0  0  0  0  0  0  0  0
    2.5310    2.2570    1.8740 C   0  0  0  0  0  0  0  0  0  0  0  0
    1.8760    2.2310    0.6750 C   0  0  0  0  0  0  0  0  0  0  0  0
    1.8800    1.0840   -0.2620 C   0  0  0  0  0  0  0  0  0  0  0  0
    0.6410    0.2830   -0.0400 C   0  0  2  0  0  0  0  0  0  0  0  0
    0.5790   -0.2410    1.2870 N   0  0  0  0  0  0  0  0  0  0  0  0
    0.3340   -0.7440   -1.0260 C   0  0  0  0  0  0  0  0  0  0  0  0
    0.3660   -0.5580   -2.2740 O   0  0  0  0  0  0  0  0  0  0  0  0
    1.1400    3.3830    0.3550 C   0  0  0  0  0  0  0  0  0  0  0  0
    1.0800    4.4660    1.1880 C   0  0  0  0  0  0  0  0  0  0  0  0
    0.9390    5.6990    3.9240 H   0  0  0  0  0  0  0  0  0  0  0  0
    2.9970    3.3600    3.6690 H   0  0  0  0  0  0  0  0  0  0  0  0
    3.1370    1.4120    2.1880 H   0  0  0  0  0  0  0  0  0  0  0  0
    2.8240    0.5440   -0.2440 H   0  0  0  0  0  0  0  0  0  0  0  0
    1.8110    1.5370   -1.3060 H   0  0  0  0  0  0  0  0  0  0  0  0
   -0.1930    1.0880   -0.1160 H   0  0  0  0  0  0  0  0  0  0  0  0
   -0.2980   -0.1220    1.8600 H   0  0  0  0  0  0  0  0  0  0  0  0
    0.6230    3.3570   -0.5970 H   0  0  0  0  0  0  0  0  0  0  0  0
    0.5060    5.3210    0.8990 H   0  0  0  0  0  0  0  0  0  0  0  0
   -6.3310   -1.4410   -0.2900 O   0  0  0  0  0  0  0  0  0  0  0  0
   -5.0880   -1.7000   -0.8480 C   0  0  0  0  0  0  0  0  0  0  0  0
   -4.7220   -3.0130   -1.0840 C   0  0  0  0  0  0  0  0  0  0  0  0
   -3.5070   -3.3370   -1.6320 C   0  0  0  0  0  0  0  0  0  0  0  0
   -2.5880   -2.3390   -1.9750 C   0  0  0  0  0  0  0  0  0  0  0  0
   -1.3230   -2.7980   -2.5720 C   0  0  0  0  0  0  0  0  0  0  0  0
   -0.3610   -3.1440   -1.4450 C   0  0  2  0  0  0  0  0  0  0  0  0
   -0.0280   -2.0450   -0.5800 N   0  0  0  0  0  0  0  0  0  0  0  0
    0.7740   -3.9620   -1.8560 C   0  0  0  0  0  0  0  0  0  0  0  0
    1.9240   -3.6770   -1.4530 O   0  0  0  0  0  0  0  0  0  0  0  0
   -2.9480   -1.0340   -1.7430 C   0  0  0  0  0  0  0  0  0  0  0  0
   -4.1910   -0.7100   -1.1820 C   0  0  0  0  0  0  0  0  0  0  0  0
    0.6270   -5.0550   -2.6860 O   0  0  0  0  0  0  0  0  0  0  0  0
   -6.7960   -0.5700   -0.5680 H   0  0  0  0  0  0  0  0  0  0  0  0
   -5.4180   -3.7960   -0.8250 H   0  0  0  0  0  0  0  0  0  0  0  0
   -3.2680   -4.3710   -1.7970 H   0  0  0  0  0  0  0  0  0  0  0  0
   -0.9110   -2.1300   -3.3280 H   0  0  0  0  0  0  0  0  0  0  0  0
   -1.5210   -3.7910   -3.0710 H   0  0  0  0  0  0  0  0  0  0  0  0
   -1.0310   -3.8260   -0.7940 H   0  0  0  0  0  0  0  0  0  0  0  0
   -0.0480   -2.1890    0.4840 H   0  0  0  0  0  0  0  0  0  0  0  0
   -2.2960   -0.2320   -1.9930 H   0  0  0  0  0  0  0  0  0  0  0  0
   -4.4660    0.3190   -1.0020 H   0  0  0  0  0  0  0  0  0  0  0  0
  2  3  1  0  0  0  0
  2  1  1  0  0  0  0
  2  9  1  1  0  0  0
  3 11  1  0  0  0  0
  4  3  1  0  0  0  0
  5  2  1  0  0  0  0
  6  5  2  0  0  0  0
  7  1  1  0  0  0  0
  8  1  1  0  0  0  0
 10  3  1  0  0  0  0
 12  4  1  0  0  0  0
 13 25  1  0  0  0  0
 14 15  1  0  0  0  0
 14 13  1  0  0  0  0
 15 26  1  0  0  0  0
 16 27  1  0  0  0  0
 16 15  2  0  0  0  0
 17 16  1  0  0  0  0
 18 28  1  0  0  0  0
 18 19  1  0  0  0  0
 18 17  1  0  0  0  0
 19 30  1  6  0  0  0
 19 20  1  0  0  0  0
 20 31  1  0  0  0  0
 20  5  1  0  0  0  0
 21 41  1  0  0  0  0
 21 19  1  0  0  0  0
 22 21  2  0  0  0  0
 23 17  2  0  0  0  0
 23 24  1  0  0  0  0
 24 14  2  0  0  0  0
 29 18  1  0  0  0  0
 32 23  1  0  0  0  0
 33 24  1  0  0  0  0
 35 34  1  0  0  0  0
 36 35  1  0  0  0  0
 36 48  1  0  0  0  0
 37 36  2  0  0  0  0
 38 44  2  0  0  0  0
 38 37  1  0  0  0  0
 39 38  1  0  0  0  0
 39 40  1  0  0  0  0
 40 52  1  1  0  0  0
 40 41  1  0  0  0  0
 41 53  1  0  0  0  0
 42 43  1  0  0  0  0
 42 40  1  0  0  0  0
 44 45  1  0  0  0  0
 45 55  1  0  0  0  0
 45 35  2  0  0  0  0
 46 42  2  0  0  0  0
 47 34  1  0  0  0  0
 49 37  1  0  0  0  0
 50 39  1  0  0  0  0
 51 39  1  0  0  0  0
 54 44  1  0  0  0  0
M  END
$$$$
