DAC.pdb
 OpenBabel07022418123D

 36 35  0  0  1  0  0  0  0  0999 V2000
    1.9090   -4.7300    2.7020 N   0  0  0  0  0  0  0  0  0  0  0  0
    0.7540   -3.9320    2.2500 C   0  0  1  0  0  0  0  0  0  0  0  0
    0.0090   -3.4180    3.4330 C   0  0  0  0  0  0  0  0  0  0  0  0
   -1.1770   -2.5990    3.1470 C   0  0  0  0  0  0  0  0  0  0  0  0
   -1.1110   -1.3510    3.1480 O   0  0  0  0  0  0  0  0  0  0  0  0
    1.2120   -2.8240    1.4000 C   0  0  0  0  0  0  0  0  0  0  0  0
    2.4560   -2.5740    1.3830 O   0  0  0  0  0  0  0  0  0  0  0  0
   -2.3910   -3.2450    2.8720 O   0  0  0  0  0  0  0  0  0  0  0  0
    2.1540   -5.3330    1.8870 H   0  0  0  0  0  0  0  0  0  0  0  0
    1.5280   -5.3660    3.4380 H   0  0  0  0  0  0  0  0  0  0  0  0
    0.0740   -4.6440    1.7180 H   0  0  0  0  0  0  0  0  0  0  0  0
    0.6720   -2.8170    4.1240 H   0  0  0  0  0  0  0  0  0  0  0  0
   -0.2760   -4.3120    4.0680 H   0  0  0  0  0  0  0  0  0  0  0  0
   -3.2320   -2.6750    2.9330 H   0  0  0  0  0  0  0  0  0  0  0  0
    1.0060   -1.3720   -1.6990 C   0  0  0  0  0  0  0  0  0  0  0  0
    0.9900   -0.9280   -0.2320 C   0  0  2  0  0  0  0  0  0  0  0  0
    0.3980   -1.9990    0.5840 N   0  0  0  0  0  0  0  0  0  0  0  0
    0.1710    0.2830   -0.0940 C   0  0  0  0  0  0  0  0  0  0  0  0
   -0.8520    0.2770    0.6050 O   0  0  0  0  0  0  0  0  0  0  0  0
    0.9990   -0.4370   -2.3010 H   0  0  0  0  0  0  0  0  0  0  0  0
    0.1080   -1.9450   -1.9510 H   0  0  0  0  0  0  0  0  0  0  0  0
    1.9400   -1.9180   -1.9350 H   0  0  0  0  0  0  0  0  0  0  0  0
    2.0610   -0.7970    0.0210 H   0  0  0  0  0  0  0  0  0  0  0  0
   -0.6240   -2.1830    0.5840 H   0  0  0  0  0  0  0  0  0  0  0  0
    0.5150    1.5090   -0.7540 N   0  0  0  0  0  0  0  0  0  0  0  0
   -0.2770    2.7180   -0.6330 C   0  0  1  0  0  0  0  0  0  0  0  0
    0.5950    3.7730    0.0160 C   0  0  0  0  0  0  0  0  0  0  0  0
    1.1670    3.2820    1.6480 S   0  0  0  0  0  0  0  0  0  0  0  0
   -0.7410    3.2070   -1.9480 C   0  0  0  0  0  0  0  0  0  0  0  0
   -1.4390    4.2410   -2.0570 O   0  0  0  0  0  0  0  0  0  0  0  0
   -0.4090    2.5190   -3.1030 O   0  0  0  0  0  0  0  0  0  0  0  0
    1.3790    1.4830   -1.3350 H   0  0  0  0  0  0  0  0  0  0  0  0
   -1.1490    2.5570    0.0410 H   0  0  0  0  0  0  0  0  0  0  0  0
    0.0200    4.7320    0.0610 H   0  0  0  0  0  0  0  0  0  0  0  0
    1.4530    3.9630   -0.6730 H   0  0  0  0  0  0  0  0  0  0  0  0
    0.4770    2.1510    2.1120 H   0  0  0  0  0  0  0  0  0  0  0  0
  1 10  1  0  0  0  0
  2 11  1  6  0  0  0
  2  1  1  0  0  0  0
  2  3  1  0  0  0  0
  3 13  1  0  0  0  0
  3 12  1  0  0  0  0
  4  5  2  0  0  0  0
  4  3  1  0  0  0  0
  6  2  1  0  0  0  0
  7  6  2  0  0  0  0
  8 14  1  0  0  0  0
  8  4  1  0  0  0  0
  9  1  1  0  0  0  0
 15 16  1  0  0  0  0
 16 18  1  0  0  0  0
 16 23  1  1  0  0  0
 16 17  1  0  0  0  0
 17 24  1  0  0  0  0
 17  6  1  0  0  0  0
 18 19  2  0  0  0  0
 20 15  1  0  0  0  0
 21 15  1  0  0  0  0
 22 15  1  0  0  0  0
 25 26  1  0  0  0  0
 25 18  1  0  0  0  0
 26 27  1  0  0  0  0
 26 33  1  1  0  0  0
 27 34  1  0  0  0  0
 27 28  1  0  0  0  0
 28 36  1  0  0  0  0
 29 26  1  0  0  0  0
 30 29  1  0  0  0  0
 31 29  2  0  0  0  0
 32 25  1  0  0  0  0
 35 27  1  0  0  0  0
M  END
$$$$
