DAD.pdb
 OpenBabel07022418123D

 38 37  0  0  1  0  0  0  0  0999 V2000
    1.8510   -3.5860    0.4230 N   0  0  0  0  0  0  0  0  0  0  0  0
    1.4260   -3.1840   -0.9040 C   0  0  1  0  0  0  0  0  0  0  0  0
    0.8700   -4.3800   -1.6230 C   0  0  0  0  0  0  0  0  0  0  0  0
   -0.2860   -4.9220   -0.8780 C   0  0  0  0  0  0  0  0  0  0  0  0
   -0.7040   -4.4130    0.1970 O   0  0  0  0  0  0  0  0  0  0  0  0
    0.3660   -2.1600   -0.8190 C   0  0  0  0  0  0  0  0  0  0  0  0
   -0.1120   -1.7220   -1.8950 O   0  0  0  0  0  0  0  0  0  0  0  0
   -0.9430   -6.0410   -1.3810 O   0  0  0  0  0  0  0  0  0  0  0  0
    2.2230   -4.5590    0.3310 H   0  0  0  0  0  0  0  0  0  0  0  0
    2.6230   -2.9470    0.7340 H   0  0  0  0  0  0  0  0  0  0  0  0
    2.3150   -2.8220   -1.4390 H   0  0  0  0  0  0  0  0  0  0  0  0
    0.4930   -4.0370   -2.6040 H   0  0  0  0  0  0  0  0  0  0  0  0
    1.6310   -5.1590   -1.8300 H   0  0  0  0  0  0  0  0  0  0  0  0
   -1.6600   -6.5460   -0.8920 H   0  0  0  0  0  0  0  0  0  0  0  0
   -2.4050   -1.1460    1.1090 C   0  0  0  0  0  0  0  0  0  0  0  0
   -1.1730   -0.6500    0.3770 C   0  0  2  0  0  0  0  0  0  0  0  0
   -0.1360   -1.6500    0.3970 N   0  0  0  0  0  0  0  0  0  0  0  0
   -0.7340    0.6170    1.0480 C   0  0  0  0  0  0  0  0  0  0  0  0
   -1.5600    1.5610    1.0860 O   0  0  0  0  0  0  0  0  0  0  0  0
   -2.1100   -2.0360    1.7330 H   0  0  0  0  0  0  0  0  0  0  0  0
   -3.1470   -1.5370    0.3850 H   0  0  0  0  0  0  0  0  0  0  0  0
   -2.8340   -0.3770    1.7770 H   0  0  0  0  0  0  0  0  0  0  0  0
   -1.4770   -0.3890   -0.6550 H   0  0  0  0  0  0  0  0  0  0  0  0
    0.2390   -1.9900    1.3040 H   0  0  0  0  0  0  0  0  0  0  0  0
    0.5320    0.7770    1.6170 N   0  0  0  0  0  0  0  0  0  0  0  0
    0.9780    2.0250    2.2890 C   0  0  1  0  0  0  0  0  0  0  0  0
    1.1530    3.1030    1.2850 C   0  0  0  0  0  0  0  0  0  0  0  0
    1.6420    4.3570    1.8540 C   0  0  0  0  0  0  0  0  0  0  0  0
    2.0150    4.4620    3.0310 O   0  0  0  0  0  0  0  0  0  0  0  0
    0.0020    2.3210    3.3750 C   0  0  0  0  0  0  0  0  0  0  0  0
   -0.9800    1.5310    3.6010 O   0  0  0  0  0  0  0  0  0  0  0  0
    1.7070    5.5180    1.0580 O   0  0  0  0  0  0  0  0  0  0  0  0
    0.0860    3.4200    4.1790 O   0  0  0  0  0  0  0  0  0  0  0  0
    1.2070   -0.0100    1.5730 H   0  0  0  0  0  0  0  0  0  0  0  0
    1.9350    1.7870    2.7740 H   0  0  0  0  0  0  0  0  0  0  0  0
    1.8220    2.7270    0.4690 H   0  0  0  0  0  0  0  0  0  0  0  0
    0.1590    3.2490    0.7740 H   0  0  0  0  0  0  0  0  0  0  0  0
    2.3050    6.2620    1.3470 H   0  0  0  0  0  0  0  0  0  0  0  0
  1 10  1  0  0  0  0
  2 11  1  6  0  0  0
  2  6  1  0  0  0  0
  2  1  1  0  0  0  0
  3  2  1  0  0  0  0
  3  4  1  0  0  0  0
  4  5  2  0  0  0  0
  6 17  1  0  0  0  0
  7  6  2  0  0  0  0
  8 14  1  0  0  0  0
  8  4  1  0  0  0  0
  9  1  1  0  0  0  0
 12  3  1  0  0  0  0
 13  3  1  0  0  0  0
 15 20  1  0  0  0  0
 15 22  1  0  0  0  0
 16 23  1  6  0  0  0
 16 17  1  0  0  0  0
 16 18  1  0  0  0  0
 16 15  1  0  0  0  0
 17 24  1  0  0  0  0
 18 19  2  0  0  0  0
 18 25  1  0  0  0  0
 21 15  1  0  0  0  0
 25 26  1  0  0  0  0
 26 35  1  1  0  0  0
 26 30  1  0  0  0  0
 27 28  1  0  0  0  0
 27 26  1  0  0  0  0
 28 29  2  0  0  0  0
 30 31  2  0  0  0  0
 30 33  1  0  0  0  0
 32 38  1  0  0  0  0
 32 28  1  0  0  0  0
 34 25  1  0  0  0  0
 36 27  1  0  0  0  0
 37 27  1  0  0  0  0
M  END
$$$$
