DAI.pdb
 OpenBabel07022418123D

 44 43  0  0  1  0  0  0  0  0999 V2000
    1.7140   -5.8630   -0.4380 N   0  0  0  0  0  0  0  0  0  0  0  0
    0.6210   -4.9910   -0.7470 C   0  0  1  0  0  0  0  0  0  0  0  0
   -0.4480   -5.1910    0.3030 C   0  0  0  0  0  0  0  0  0  0  0  0
    0.1080   -4.8660    1.6350 C   0  0  0  0  0  0  0  0  0  0  0  0
    1.2930   -4.4950    1.7370 O   0  0  0  0  0  0  0  0  0  0  0  0
    1.0290   -3.5520   -0.6900 C   0  0  0  0  0  0  0  0  0  0  0  0
    2.2090   -3.2370   -0.3970 O   0  0  0  0  0  0  0  0  0  0  0  0
   -0.6470   -4.9570    2.8040 O   0  0  0  0  0  0  0  0  0  0  0  0
    1.6830   -6.7710   -0.9340 H   0  0  0  0  0  0  0  0  0  0  0  0
    2.6500   -5.4030   -0.4770 H   0  0  0  0  0  0  0  0  0  0  0  0
    0.1720   -5.2460   -1.7270 H   0  0  0  0  0  0  0  0  0  0  0  0
   -1.3310   -4.5420    0.1470 H   0  0  0  0  0  0  0  0  0  0  0  0
   -0.7320   -6.2790    0.3260 H   0  0  0  0  0  0  0  0  0  0  0  0
   -0.2200   -5.1650    3.7030 H   0  0  0  0  0  0  0  0  0  0  0  0
    0.4250   -0.4970   -2.2620 C   0  0  0  0  0  0  0  0  0  0  0  0
    0.5670   -1.1220   -0.8890 C   0  0  2  0  0  0  0  0  0  0  0  0
    0.1240   -2.4960   -0.9570 N   0  0  0  0  0  0  0  0  0  0  0  0
   -0.2650   -0.3170    0.0490 C   0  0  0  0  0  0  0  0  0  0  0  0
   -1.2230   -0.7730    0.6940 O   0  0  0  0  0  0  0  0  0  0  0  0
    1.1490    0.3170   -2.4310 H   0  0  0  0  0  0  0  0  0  0  0  0
    0.6430   -1.2930   -3.0160 H   0  0  0  0  0  0  0  0  0  0  0  0
   -0.6300   -0.1860   -2.4170 H   0  0  0  0  0  0  0  0  0  0  0  0
    1.6390   -1.0410   -0.6160 H   0  0  0  0  0  0  0  0  0  0  0  0
   -0.8670   -2.7120   -1.2040 H   0  0  0  0  0  0  0  0  0  0  0  0
    0.5710    3.3610    4.4100 C   0  0  0  0  0  0  0  0  0  0  0  0
   -0.4130    3.1940    3.2720 C   0  0  0  0  0  0  0  0  0  0  0  0
    0.2240    2.3140    2.2430 C   0  0  2  0  0  0  0  0  0  0  0  0
    1.4940    2.8950    1.7050 C   0  0  0  0  0  0  0  0  0  0  0  0
   -0.7360    1.9070    1.1380 C   0  0  2  0  0  0  0  0  0  0  0  0
    0.0440    1.0600    0.2290 N   0  0  0  0  0  0  0  0  0  0  0  0
   -1.3110    3.0620    0.4350 C   0  0  0  0  0  0  0  0  0  0  0  0
   -2.0130    3.9070    1.0420 O   0  0  0  0  0  0  0  0  0  0  0  0
   -1.1010    3.2620   -0.9210 O   0  0  0  0  0  0  0  0  0  0  0  0
    1.2260    4.2430    4.2530 H   0  0  0  0  0  0  0  0  0  0  0  0
    0.0390    3.4390    5.3930 H   0  0  0  0  0  0  0  0  0  0  0  0
    1.2620    2.4720    4.4650 H   0  0  0  0  0  0  0  0  0  0  0  0
   -1.3340    2.7540    3.6570 H   0  0  0  0  0  0  0  0  0  0  0  0
   -0.5620    4.2230    2.8460 H   0  0  0  0  0  0  0  0  0  0  0  0
    0.4960    1.3520    2.7650 H   0  0  0  0  0  0  0  0  0  0  0  0
    2.2950    2.1030    1.6330 H   0  0  0  0  0  0  0  0  0  0  0  0
    1.3990    3.2950    0.6740 H   0  0  0  0  0  0  0  0  0  0  0  0
    1.8880    3.6560    2.4130 H   0  0  0  0  0  0  0  0  0  0  0  0
   -1.5450    1.3360    1.6230 H   0  0  0  0  0  0  0  0  0  0  0  0
    0.8380    1.4970   -0.2870 H   0  0  0  0  0  0  0  0  0  0  0  0
  2 11  1  6  0  0  0
  2  6  1  0  0  0  0
  2  1  1  0  0  0  0
  2  3  1  0  0  0  0
  3 13  1  0  0  0  0
  3  4  1  0  0  0  0
  4  5  2  0  0  0  0
  4  8  1  0  0  0  0
  6  7  2  0  0  0  0
  8 14  1  0  0  0  0
  9  1  1  0  0  0  0
 10  1  1  0  0  0  0
 12  3  1  0  0  0  0
 15 16  1  0  0  0  0
 16 23  1  1  0  0  0
 16 18  1  0  0  0  0
 17 16  1  0  0  0  0
 17  6  1  0  0  0  0
 18 30  1  0  0  0  0
 18 19  2  0  0  0  0
 20 15  1  0  0  0  0
 21 15  1  0  0  0  0
 22 15  1  0  0  0  0
 24 17  1  0  0  0  0
 25 36  1  0  0  0  0
 25 35  1  0  0  0  0
 26 37  1  0  0  0  0
 26 25  1  0  0  0  0
 27 39  1  1  0  0  0
 27 26  1  0  0  0  0
 28 27  1  0  0  0  0
 28 42  1  0  0  0  0
 29 43  1  1  0  0  0
 29 27  1  0  0  0  0
 30 29  1  0  0  0  0
 31 32  1  0  0  0  0
 31 29  1  0  0  0  0
 33 31  2  0  0  0  0
 34 25  1  0  0  0  0
 38 26  1  0  0  0  0
 40 28  1  0  0  0  0
 41 28  1  0  0  0  0
 44 30  1  0  0  0  0
M  END
$$$$
