DAK.pdb
 OpenBabel07022418123D

 46 45  0  0  1  0  0  0  0  0999 V2000
    4.4080   -3.4740   -0.8110 N   0  0  0  0  0  0  0  0  0  0  0  0
    3.2320   -3.1580   -0.0440 C   0  0  1  0  0  0  0  0  0  0  0  0
    3.6150   -2.2900    1.1330 C   0  0  0  0  0  0  0  0  0  0  0  0
    4.5820   -3.0500    1.9670 C   0  0  0  0  0  0  0  0  0  0  0  0
    5.0680   -2.5470    3.0290 O   0  0  0  0  0  0  0  0  0  0  0  0
    2.2430   -2.4880   -0.9240 C   0  0  0  0  0  0  0  0  0  0  0  0
    2.4750   -2.2640   -2.1580 O   0  0  0  0  0  0  0  0  0  0  0  0
    5.0010   -4.3440    1.6270 O   0  0  0  0  0  0  0  0  0  0  0  0
    4.3400   -3.1420   -1.7950 H   0  0  0  0  0  0  0  0  0  0  0  0
    4.6470   -4.5060   -0.7680 H   0  0  0  0  0  0  0  0  0  0  0  0
    2.8270   -4.1060    0.3500 H   0  0  0  0  0  0  0  0  0  0  0  0
    2.7620   -2.0150    1.7570 H   0  0  0  0  0  0  0  0  0  0  0  0
    4.1670   -1.4210    0.7180 H   0  0  0  0  0  0  0  0  0  0  0  0
    5.2890   -4.9850    2.3470 H   0  0  0  0  0  0  0  0  0  0  0  0
   -1.2380   -2.3230   -1.3180 C   0  0  0  0  0  0  0  0  0  0  0  0
   -0.0080   -1.4080   -1.2510 C   0  0  2  0  0  0  0  0  0  0  0  0
    0.9730   -2.0550   -0.4420 N   0  0  0  0  0  0  0  0  0  0  0  0
   -0.4930   -0.1260   -0.6600 C   0  0  0  0  0  0  0  0  0  0  0  0
   -1.3610    0.5250   -1.2970 O   0  0  0  0  0  0  0  0  0  0  0  0
   -1.4100   -2.7790   -0.3120 H   0  0  0  0  0  0  0  0  0  0  0  0
   -1.1330   -3.0890   -2.0900 H   0  0  0  0  0  0  0  0  0  0  0  0
   -2.1470   -1.7230   -1.5400 H   0  0  0  0  0  0  0  0  0  0  0  0
    0.3580   -1.2960   -2.2790 H   0  0  0  0  0  0  0  0  0  0  0  0
    0.7890   -2.2460    0.5830 H   0  0  0  0  0  0  0  0  0  0  0  0
   -0.0410    0.3970    0.5620 N   0  0  0  0  0  0  0  0  0  0  0  0
   -0.5220    1.6520    1.1310 C   0  0  1  0  0  0  0  0  0  0  0  0
   -1.0250    1.4420    2.5200 C   0  0  0  0  0  0  0  0  0  0  0  0
   -2.1580    0.4740    2.6340 C   0  0  0  0  0  0  0  0  0  0  0  0
   -3.3790    0.8540    1.8650 C   0  0  0  0  0  0  0  0  0  0  0  0
   -3.9640    2.1700    2.2850 C   0  0  0  0  0  0  0  0  0  0  0  0
   -5.1430    2.4210    1.4630 N   0  0  0  0  0  0  0  0  0  0  0  0
    0.6300    2.5920    1.2010 C   0  0  0  0  0  0  0  0  0  0  0  0
    1.7770    2.2590    0.8080 O   0  0  0  0  0  0  0  0  0  0  0  0
    0.4800    3.8780    1.7030 O   0  0  0  0  0  0  0  0  0  0  0  0
    0.6780   -0.1410    1.0900 H   0  0  0  0  0  0  0  0  0  0  0  0
   -1.2780    2.1290    0.4850 H   0  0  0  0  0  0  0  0  0  0  0  0
   -1.3360    2.4460    2.9140 H   0  0  0  0  0  0  0  0  0  0  0  0
   -0.1870    1.1220    3.1710 H   0  0  0  0  0  0  0  0  0  0  0  0
   -2.4390    0.4080    3.7060 H   0  0  0  0  0  0  0  0  0  0  0  0
   -1.8190   -0.5340    2.3250 H   0  0  0  0  0  0  0  0  0  0  0  0
   -4.1470    0.0730    2.0450 H   0  0  0  0  0  0  0  0  0  0  0  0
   -3.2270    0.8910    0.7710 H   0  0  0  0  0  0  0  0  0  0  0  0
   -3.2570    3.0070    2.1770 H   0  0  0  0  0  0  0  0  0  0  0  0
   -4.2600    2.1320    3.3600 H   0  0  0  0  0  0  0  0  0  0  0  0
   -5.9840    1.9890    1.9040 H   0  0  0  0  0  0  0  0  0  0  0  0
   -5.0080    2.1350    0.4830 H   0  0  0  0  0  0  0  0  0  0  0  0
  1 10  1  0  0  0  0
  1  2  1  0  0  0  0
  2 11  1  1  0  0  0
  2  3  1  0  0  0  0
  3 12  1  0  0  0  0
  3  4  1  0  0  0  0
  4  5  2  0  0  0  0
  6 17  1  0  0  0  0
  6  2  1  0  0  0  0
  7  6  2  0  0  0  0
  8  4  1  0  0  0  0
  8 14  1  0  0  0  0
  9  1  1  0  0  0  0
 13  3  1  0  0  0  0
 15 16  1  0  0  0  0
 15 20  1  0  0  0  0
 16 23  1  6  0  0  0
 16 18  1  0  0  0  0
 16 17  1  0  0  0  0
 17 24  1  0  0  0  0
 18 25  1  0  0  0  0
 19 18  2  0  0  0  0
 21 15  1  0  0  0  0
 22 15  1  0  0  0  0
 25 35  1  0  0  0  0
 25 26  1  0  0  0  0
 26 36  1  6  0  0  0
 26 32  1  0  0  0  0
 26 27  1  0  0  0  0
 27 28  1  0  0  0  0
 27 37  1  0  0  0  0
 27 38  1  0  0  0  0
 28 39  1  0  0  0  0
 29 41  1  0  0  0  0
 29 30  1  0  0  0  0
 29 28  1  0  0  0  0
 30 44  1  0  0  0  0
 31 45  1  0  0  0  0
 31 30  1  0  0  0  0
 32 34  1  0  0  0  0
 33 32  2  0  0  0  0
 40 28  1  0  0  0  0
 42 29  1  0  0  0  0
 43 30  1  0  0  0  0
 46 31  1  0  0  0  0
M  END
$$$$
