DAL.pdb
 OpenBabel07022418123D

 44 43  0  0  1  0  0  0  0  0999 V2000
    1.3660   -3.1960    0.6180 N   0  0  0  0  0  0  0  0  0  0  0  0
    0.7740   -3.1720   -0.6900 C   0  0  1  0  0  0  0  0  0  0  0  0
    0.2410   -4.5600   -0.9690 C   0  0  0  0  0  0  0  0  0  0  0  0
    1.2420   -5.6270   -0.9380 C   0  0  0  0  0  0  0  0  0  0  0  0
    2.4530   -5.4270   -0.7520 O   0  0  0  0  0  0  0  0  0  0  0  0
   -0.4460   -2.2710   -0.7150 C   0  0  0  0  0  0  0  0  0  0  0  0
   -1.0400   -2.1010   -1.7980 O   0  0  0  0  0  0  0  0  0  0  0  0
    0.8530   -6.9520   -1.1230 O   0  0  0  0  0  0  0  0  0  0  0  0
    1.4430   -2.2360    1.0300 H   0  0  0  0  0  0  0  0  0  0  0  0
    2.3760   -3.5170    0.5040 H   0  0  0  0  0  0  0  0  0  0  0  0
    1.4680   -2.8690   -1.5010 H   0  0  0  0  0  0  0  0  0  0  0  0
   -0.5800   -4.7330   -0.2410 H   0  0  0  0  0  0  0  0  0  0  0  0
   -0.2750   -4.5060   -1.9600 H   0  0  0  0  0  0  0  0  0  0  0  0
    1.1940   -7.7100   -0.4980 H   0  0  0  0  0  0  0  0  0  0  0  0
   -3.2060   -1.2360    1.3390 C   0  0  0  0  0  0  0  0  0  0  0  0
   -2.0900   -0.7600    0.4710 C   0  0  2  0  0  0  0  0  0  0  0  0
   -0.9310   -1.6220    0.4410 N   0  0  0  0  0  0  0  0  0  0  0  0
   -1.7720    0.6690    0.6380 C   0  0  0  0  0  0  0  0  0  0  0  0
   -2.6750    1.5170    0.7740 O   0  0  0  0  0  0  0  0  0  0  0  0
   -4.0120   -0.4700    1.2830 H   0  0  0  0  0  0  0  0  0  0  0  0
   -3.6410   -2.1570    0.8400 H   0  0  0  0  0  0  0  0  0  0  0  0
   -2.9500   -1.5440    2.3500 H   0  0  0  0  0  0  0  0  0  0  0  0
   -2.5070   -0.8250   -0.5940 H   0  0  0  0  0  0  0  0  0  0  0  0
   -0.4330   -1.7620    1.3730 H   0  0  0  0  0  0  0  0  0  0  0  0
    1.3300    0.7110    3.0080 C   0  0  0  0  0  0  0  0  0  0  0  0
    1.4630    2.1900    2.8510 C   0  0  0  0  0  0  0  0  0  0  0  0
    2.8300    2.6200    3.3440 C   0  0  0  0  0  0  0  0  0  0  0  0
    1.2990    2.7010    1.4550 C   0  0  0  0  0  0  0  0  0  0  0  0
    0.0000    2.4420    0.8000 C   0  0  2  0  0  0  0  0  0  0  0  0
   -0.3970    1.0880    0.6390 N   0  0  0  0  0  0  0  0  0  0  0  0
    0.1030    3.0710   -0.5950 C   0  0  0  0  0  0  0  0  0  0  0  0
    0.4720    4.2500   -0.7120 O   0  0  0  0  0  0  0  0  0  0  0  0
   -0.2160    2.3350   -1.7100 O   0  0  0  0  0  0  0  0  0  0  0  0
    1.9650    0.2270    2.2430 H   0  0  0  0  0  0  0  0  0  0  0  0
    1.7790    0.4350    4.0020 H   0  0  0  0  0  0  0  0  0  0  0  0
    0.2880    0.3510    3.0260 H   0  0  0  0  0  0  0  0  0  0  0  0
    0.7190    2.7210    3.5180 H   0  0  0  0  0  0  0  0  0  0  0  0
    3.6590    2.2290    2.7390 H   0  0  0  0  0  0  0  0  0  0  0  0
    2.9220    3.7280    3.3850 H   0  0  0  0  0  0  0  0  0  0  0  0
    3.0060    2.2750    4.3930 H   0  0  0  0  0  0  0  0  0  0  0  0
    2.1480    2.3290    0.8240 H   0  0  0  0  0  0  0  0  0  0  0  0
    1.4420    3.8110    1.4860 H   0  0  0  0  0  0  0  0  0  0  0  0
   -0.8020    3.0790    1.2720 H   0  0  0  0  0  0  0  0  0  0  0  0
    0.3150    0.3420    0.5130 H   0  0  0  0  0  0  0  0  0  0  0  0
  1  9  1  0  0  0  0
  2 11  1  6  0  0  0
  2  1  1  0  0  0  0
  3  4  1  0  0  0  0
  3  2  1  0  0  0  0
  3 12  1  0  0  0  0
  4  5  2  0  0  0  0
  6  2  1  0  0  0  0
  6 17  1  0  0  0  0
  7  6  2  0  0  0  0
  8  4  1  0  0  0  0
  8 14  1  0  0  0  0
 10  1  1  0  0  0  0
 13  3  1  0  0  0  0
 15 22  1  0  0  0  0
 16 23  1  6  0  0  0
 16 18  1  0  0  0  0
 16 15  1  0  0  0  0
 17 16  1  0  0  0  0
 17 24  1  0  0  0  0
 18 30  1  0  0  0  0
 18 19  2  0  0  0  0
 20 15  1  0  0  0  0
 21 15  1  0  0  0  0
 25 36  1  0  0  0  0
 25 35  1  0  0  0  0
 26 25  1  0  0  0  0
 26 27  1  0  0  0  0
 26 37  1  0  0  0  0
 27 39  1  0  0  0  0
 27 40  1  0  0  0  0
 28 42  1  0  0  0  0
 28 26  1  0  0  0  0
 29 43  1  1  0  0  0
 29 28  1  0  0  0  0
 30 29  1  0  0  0  0
 31 29  1  0  0  0  0
 32 31  1  0  0  0  0
 33 31  2  0  0  0  0
 34 25  1  0  0  0  0
 38 27  1  0  0  0  0
 41 28  1  0  0  0  0
 44 30  1  0  0  0  0
M  END
$$$$
