DAM.pdb
 OpenBabel07022418123D

 42 41  0  0  1  0  0  0  0  0999 V2000
    2.3310   -4.3240    1.5460 N   0  0  0  0  0  0  0  0  0  0  0  0
    1.7680   -4.2860    0.2370 C   0  0  1  0  0  0  0  0  0  0  0  0
    1.2000   -5.6170   -0.1630 C   0  0  0  0  0  0  0  0  0  0  0  0
    2.1780   -6.7200   -0.1960 C   0  0  0  0  0  0  0  0  0  0  0  0
    3.3970   -6.5850    0.0640 O   0  0  0  0  0  0  0  0  0  0  0  0
    0.7050   -3.2650    0.0910 C   0  0  0  0  0  0  0  0  0  0  0  0
    0.1500   -3.1300   -1.0350 O   0  0  0  0  0  0  0  0  0  0  0  0
    1.7430   -7.9930   -0.5340 O   0  0  0  0  0  0  0  0  0  0  0  0
    3.0810   -4.9950    1.6980 H   0  0  0  0  0  0  0  0  0  0  0  0
    2.5020   -3.3840    1.9640 H   0  0  0  0  0  0  0  0  0  0  0  0
    2.5740   -3.9930   -0.4990 H   0  0  0  0  0  0  0  0  0  0  0  0
    0.3930   -5.8960    0.5460 H   0  0  0  0  0  0  0  0  0  0  0  0
    0.7390   -5.5350   -1.1790 H   0  0  0  0  0  0  0  0  0  0  0  0
    2.1960   -8.8320   -0.2240 H   0  0  0  0  0  0  0  0  0  0  0  0
   -2.0080   -1.6720    1.7860 C   0  0  0  0  0  0  0  0  0  0  0  0
   -0.7910   -1.4290    0.9440 C   0  0  2  0  0  0  0  0  0  0  0  0
    0.2410   -2.4080    1.1110 N   0  0  0  0  0  0  0  0  0  0  0  0
   -0.2260   -0.0970    1.2680 C   0  0  0  0  0  0  0  0  0  0  0  0
    0.9710    0.0110    1.6310 O   0  0  0  0  0  0  0  0  0  0  0  0
   -1.7690   -2.0390    2.8020 H   0  0  0  0  0  0  0  0  0  0  0  0
   -2.5050   -0.6900    1.9250 H   0  0  0  0  0  0  0  0  0  0  0  0
   -2.7210   -2.3140    1.2350 H   0  0  0  0  0  0  0  0  0  0  0  0
   -1.1230   -1.4700   -0.1150 H   0  0  0  0  0  0  0  0  0  0  0  0
    0.6770   -2.4910    2.0550 H   0  0  0  0  0  0  0  0  0  0  0  0
    2.7090    4.2190   -0.3950 C   0  0  0  0  0  0  0  0  0  0  0  0
    1.6330    4.7840    0.9460 S   0  0  0  0  0  0  0  0  0  0  0  0
   -0.1080    4.7070    0.4950 C   0  0  0  0  0  0  0  0  0  0  0  0
   -0.6120    3.3240    0.2930 C   0  0  0  0  0  0  0  0  0  0  0  0
   -0.4920    2.4140    1.4890 C   0  0  2  0  0  0  0  0  0  0  0  0
   -1.0090    1.0860    1.1790 N   0  0  0  0  0  0  0  0  0  0  0  0
   -1.2760    2.9010    2.6530 C   0  0  0  0  0  0  0  0  0  0  0  0
   -2.2210    2.2140    3.1680 O   0  0  0  0  0  0  0  0  0  0  0  0
   -1.0480    4.1290    3.2720 O   0  0  0  0  0  0  0  0  0  0  0  0
    2.3930    4.5980   -1.3890 H   0  0  0  0  0  0  0  0  0  0  0  0
    3.7520    4.5700   -0.2470 H   0  0  0  0  0  0  0  0  0  0  0  0
    2.7330    3.1100   -0.3450 H   0  0  0  0  0  0  0  0  0  0  0  0
   -0.6920    5.2050    1.2840 H   0  0  0  0  0  0  0  0  0  0  0  0
   -0.3240    5.2940   -0.4360 H   0  0  0  0  0  0  0  0  0  0  0  0
   -1.7230    3.4160    0.1080 H   0  0  0  0  0  0  0  0  0  0  0  0
   -0.2280    2.8470   -0.6320 H   0  0  0  0  0  0  0  0  0  0  0  0
    0.5590    2.3930    1.7890 H   0  0  0  0  0  0  0  0  0  0  0  0
   -1.9990    0.9720    0.8740 H   0  0  0  0  0  0  0  0  0  0  0  0
  1  9  1  0  0  0  0
  1 10  1  0  0  0  0
  2 11  1  6  0  0  0
  2  1  1  0  0  0  0
  3  2  1  0  0  0  0
  3 12  1  0  0  0  0
  4  3  1  0  0  0  0
  4  5  2  0  0  0  0
  6  2  1  0  0  0  0
  6 17  1  0  0  0  0
  7  6  2  0  0  0  0
  8 14  1  0  0  0  0
  8  4  1  0  0  0  0
 13  3  1  0  0  0  0
 15 21  1  0  0  0  0
 15 20  1  0  0  0  0
 16 23  1  6  0  0  0
 16 17  1  0  0  0  0
 16 18  1  0  0  0  0
 16 15  1  0  0  0  0
 17 24  1  0  0  0  0
 18 19  2  0  0  0  0
 22 15  1  0  0  0  0
 25 36  1  0  0  0  0
 25 35  1  0  0  0  0
 25 26  1  0  0  0  0
 27 26  1  0  0  0  0
 27 37  1  0  0  0  0
 28 27  1  0  0  0  0
 28 29  1  0  0  0  0
 29 41  1  1  0  0  0
 29 31  1  0  0  0  0
 30 18  1  0  0  0  0
 30 29  1  0  0  0  0
 31 32  2  0  0  0  0
 31 33  1  0  0  0  0
 34 25  1  0  0  0  0
 38 27  1  0  0  0  0
 39 28  1  0  0  0  0
 40 28  1  0  0  0  0
 42 30  1  0  0  0  0
M  END
$$$$
