DAP.pdb
 OpenBabel07022418123D

 39 39  0  0  1  0  0  0  0  0999 V2000
   -0.3180   -2.6370    2.1480 N   0  0  0  0  0  0  0  0  0  0  0  0
    0.8310   -2.9860    1.3700 C   0  0  1  0  0  0  0  0  0  0  0  0
    0.8770   -4.4610    1.0710 C   0  0  0  0  0  0  0  0  0  0  0  0
    0.9280   -5.2240    2.3270 C   0  0  0  0  0  0  0  0  0  0  0  0
    0.9720   -6.4870    2.2610 O   0  0  0  0  0  0  0  0  0  0  0  0
    0.8270   -2.1820    0.1230 C   0  0  0  0  0  0  0  0  0  0  0  0
    1.7690   -2.3620   -0.6850 O   0  0  0  0  0  0  0  0  0  0  0  0
    0.9320   -4.6500    3.5860 O   0  0  0  0  0  0  0  0  0  0  0  0
   -1.2220   -2.8790    1.7310 H   0  0  0  0  0  0  0  0  0  0  0  0
   -0.3090   -1.6120    2.3380 H   0  0  0  0  0  0  0  0  0  0  0  0
    1.7380   -2.7170    1.9500 H   0  0  0  0  0  0  0  0  0  0  0  0
   -0.0890   -4.7340    0.5660 H   0  0  0  0  0  0  0  0  0  0  0  0
    1.7430   -4.6590    0.4240 H   0  0  0  0  0  0  0  0  0  0  0  0
    1.4150   -5.1600    4.3260 H   0  0  0  0  0  0  0  0  0  0  0  0
   -1.3760   -0.9060   -2.2210 C   0  0  0  0  0  0  0  0  0  0  0  0
   -0.1770   -0.4500   -1.4100 C   0  0  2  0  0  0  0  0  0  0  0  0
   -0.1580   -1.2280   -0.2210 N   0  0  0  0  0  0  0  0  0  0  0  0
   -0.0520    0.9860   -1.3050 C   0  0  0  0  0  0  0  0  0  0  0  0
   -0.1510    1.6180   -2.4250 O   0  0  0  0  0  0  0  0  0  0  0  0
   -2.2760   -1.0360   -1.5520 H   0  0  0  0  0  0  0  0  0  0  0  0
   -1.5810   -0.2710   -3.0870 H   0  0  0  0  0  0  0  0  0  0  0  0
   -1.1620   -1.9280   -2.6060 H   0  0  0  0  0  0  0  0  0  0  0  0
    0.7140   -0.8220   -2.0180 H   0  0  0  0  0  0  0  0  0  0  0  0
   -0.9500   -1.0990    0.4660 H   0  0  0  0  0  0  0  0  0  0  0  0
    0.1600    1.7980   -0.1610 N   0  0  0  0  0  0  0  0  0  0  0  0
    0.2450    3.2750   -0.1600 C   0  0  0  0  0  0  0  0  0  0  0  0
    1.4650    3.4900    0.7030 C   0  0  0  0  0  0  0  0  0  0  0  0
    1.5510    2.3250    1.6250 C   0  0  0  0  0  0  0  0  0  0  0  0
    0.3530    1.4630    1.2250 C   0  0  1  0  0  0  0  0  0  0  0  0
   -0.7770    1.8840    2.0910 C   0  0  0  0  0  0  0  0  0  0  0  0
   -1.8240    2.4390    1.7010 O   0  0  0  0  0  0  0  0  0  0  0  0
   -0.6600    1.6390    3.4530 O   0  0  0  0  0  0  0  0  0  0  0  0
    0.5310    3.5870   -1.1880 H   0  0  0  0  0  0  0  0  0  0  0  0
   -0.6610    3.7540    0.2010 H   0  0  0  0  0  0  0  0  0  0  0  0
    1.4030    4.4470    1.2760 H   0  0  0  0  0  0  0  0  0  0  0  0
    2.3930    3.5400    0.0890 H   0  0  0  0  0  0  0  0  0  0  0  0
    2.4810    1.7240    1.5170 H   0  0  0  0  0  0  0  0  0  0  0  0
    1.4610    2.6200    2.7050 H   0  0  0  0  0  0  0  0  0  0  0  0
    0.6010    0.3880    1.3750 H   0  0  0  0  0  0  0  0  0  0  0  0
  1 10  1  0  0  0  0
  2 11  1  1  0  0  0
  2  1  1  0  0  0  0
  3  2  1  0  0  0  0
  3  4  1  0  0  0  0
  4  8  1  0  0  0  0
  5  4  2  0  0  0  0
  6  2  1  0  0  0  0
  7  6  2  0  0  0  0
  8 14  1  0  0  0  0
  9  1  1  0  0  0  0
 12  3  1  0  0  0  0
 13  3  1  0  0  0  0
 15 20  1  0  0  0  0
 15 16  1  0  0  0  0
 16 23  1  6  0  0  0
 16 18  1  0  0  0  0
 16 17  1  0  0  0  0
 17  6  1  0  0  0  0
 17 24  1  0  0  0  0
 18 25  1  0  0  0  0
 19 18  2  0  0  0  0
 21 15  1  0  0  0  0
 22 15  1  0  0  0  0
 25 26  1  0  0  0  0
 25 29  1  0  0  0  0
 26 34  1  0  0  0  0
 26 27  1  0  0  0  0
 27 35  1  0  0  0  0
 27 28  1  0  0  0  0
 28 38  1  0  0  0  0
 29 39  1  1  0  0  0
 29 28  1  0  0  0  0
 29 30  1  0  0  0  0
 30 32  1  0  0  0  0
 31 30  2  0  0  0  0
 33 26  1  0  0  0  0
 36 27  1  0  0  0  0
 37 28  1  0  0  0  0
M  END
$$$$
