DAQ.pdb
 OpenBabel07022418123D

 42 41  0  0  1  0  0  0  0  0999 V2000
    1.6740   -5.1580   -0.6020 N   0  0  0  0  0  0  0  0  0  0  0  0
    0.6890   -4.1900   -0.1650 C   0  0  1  0  0  0  0  0  0  0  0  0
    0.8110   -3.9960    1.3030 C   0  0  0  0  0  0  0  0  0  0  0  0
    0.5790   -5.2900    1.9970 C   0  0  0  0  0  0  0  0  0  0  0  0
    0.6470   -5.3010    3.2500 O   0  0  0  0  0  0  0  0  0  0  0  0
    0.7660   -3.0000   -0.9870 C   0  0  0  0  0  0  0  0  0  0  0  0
    1.6160   -2.9550   -1.9130 O   0  0  0  0  0  0  0  0  0  0  0  0
    0.2960   -6.4720    1.3560 O   0  0  0  0  0  0  0  0  0  0  0  0
    2.1420   -5.5960    0.2210 H   0  0  0  0  0  0  0  0  0  0  0  0
    1.2680   -5.9380   -1.1570 H   0  0  0  0  0  0  0  0  0  0  0  0
   -0.3110   -4.6760   -0.3670 H   0  0  0  0  0  0  0  0  0  0  0  0
    0.1650   -3.2480    1.7460 H   0  0  0  0  0  0  0  0  0  0  0  0
    1.8700   -3.7060    1.5540 H   0  0  0  0  0  0  0  0  0  0  0  0
   -0.4320   -7.0790    1.7380 H   0  0  0  0  0  0  0  0  0  0  0  0
   -1.2200   -0.4350   -2.4730 C   0  0  0  0  0  0  0  0  0  0  0  0
    0.0420   -0.6680   -1.6760 C   0  0  2  0  0  0  0  0  0  0  0  0
   -0.0550   -1.8450   -0.8410 N   0  0  0  0  0  0  0  0  0  0  0  0
    0.2960    0.5580   -0.8630 C   0  0  0  0  0  0  0  0  0  0  0  0
    0.4060    1.6550   -1.4230 O   0  0  0  0  0  0  0  0  0  0  0  0
   -2.1270   -0.5250   -1.8730 H   0  0  0  0  0  0  0  0  0  0  0  0
   -1.2710   -1.0730   -3.3770 H   0  0  0  0  0  0  0  0  0  0  0  0
   -1.1750    0.6280   -2.8300 H   0  0  0  0  0  0  0  0  0  0  0  0
    0.8520   -0.8570   -2.4130 H   0  0  0  0  0  0  0  0  0  0  0  0
   -0.7550   -1.8600   -0.0920 H   0  0  0  0  0  0  0  0  0  0  0  0
    0.0690    5.5140    3.0770 N   0  0  0  0  0  0  0  0  0  0  0  0
   -0.2740    4.2730    2.4880 C   0  0  0  0  0  0  0  0  0  0  0  0
   -0.5680    4.2420    1.2790 O   0  0  0  0  0  0  0  0  0  0  0  0
   -0.2900    3.0320    3.2830 C   0  0  0  0  0  0  0  0  0  0  0  0
   -0.4270    1.8520    2.3770 C   0  0  0  0  0  0  0  0  0  0  0  0
    0.6650    1.6810    1.3870 C   0  0  2  0  0  0  0  0  0  0  0  0
    0.4130    0.4860    0.5510 N   0  0  0  0  0  0  0  0  0  0  0  0
    1.9950    1.5750    2.0110 C   0  0  0  0  0  0  0  0  0  0  0  0
    2.4830    2.4890    2.7110 O   0  0  0  0  0  0  0  0  0  0  0  0
    2.8010    0.4440    1.8620 O   0  0  0  0  0  0  0  0  0  0  0  0
   -0.6310    5.9860    3.6820 H   0  0  0  0  0  0  0  0  0  0  0  0
    0.9860    5.9820    2.9390 H   0  0  0  0  0  0  0  0  0  0  0  0
    0.6410    2.9000    3.8910 H   0  0  0  0  0  0  0  0  0  0  0  0
   -1.1620    3.0550    4.0160 H   0  0  0  0  0  0  0  0  0  0  0  0
   -0.4800    0.9350    3.0400 H   0  0  0  0  0  0  0  0  0  0  0  0
   -1.4360    1.9670    1.8820 H   0  0  0  0  0  0  0  0  0  0  0  0
    0.7200    2.5090    0.6640 H   0  0  0  0  0  0  0  0  0  0  0  0
    0.3130   -0.4620    0.9790 H   0  0  0  0  0  0  0  0  0  0  0  0
  1  2  1  0  0  0  0
  1  9  1  0  0  0  0
  2 11  1  6  0  0  0
  2  3  1  0  0  0  0
  3 13  1  0  0  0  0
  3 12  1  0  0  0  0
  3  4  1  0  0  0  0
  4  5  2  0  0  0  0
  6 17  1  0  0  0  0
  6  2  1  0  0  0  0
  7  6  2  0  0  0  0
  8 14  1  0  0  0  0
  8  4  1  0  0  0  0
 10  1  1  0  0  0  0
 15 20  1  0  0  0  0
 15 16  1  0  0  0  0
 16 23  1  6  0  0  0
 16 18  1  0  0  0  0
 16 17  1  0  0  0  0
 17 24  1  0  0  0  0
 18 31  1  0  0  0  0
 19 18  2  0  0  0  0
 21 15  1  0  0  0  0
 22 15  1  0  0  0  0
 25 35  1  0  0  0  0
 26 25  1  0  0  0  0
 26 28  1  0  0  0  0
 27 26  2  0  0  0  0
 28 37  1  0  0  0  0
 28 38  1  0  0  0  0
 29 39  1  0  0  0  0
 29 28  1  0  0  0  0
 30 41  1  6  0  0  0
 30 32  1  0  0  0  0
 30 29  1  0  0  0  0
 31 42  1  0  0  0  0
 31 30  1  0  0  0  0
 32 33  1  0  0  0  0
 34 32  2  0  0  0  0
 36 25  1  0  0  0  0
 40 29  1  0  0  0  0
M  END
$$$$
