DAR.pdb
 OpenBabel07022418123D

 48 47  0  0  1  0  0  0  0  0999 V2000
    2.2850   -3.8360    0.5560 N   0  0  0  0  0  0  0  0  0  0  0  0
    2.9100   -2.6300    0.9960 C   0  0  1  0  0  0  0  0  0  0  0  0
    4.4150   -2.7400    1.1160 C   0  0  0  0  0  0  0  0  0  0  0  0
    4.7800   -3.7960    2.0910 C   0  0  0  0  0  0  0  0  0  0  0  0
    5.9720   -4.0680    2.3550 O   0  0  0  0  0  0  0  0  0  0  0  0
    2.5080   -1.4350    0.2110 C   0  0  0  0  0  0  0  0  0  0  0  0
    3.0170   -0.3330    0.5420 O   0  0  0  0  0  0  0  0  0  0  0  0
    3.7860   -4.5130    2.7380 O   0  0  0  0  0  0  0  0  0  0  0  0
    1.3010   -3.9110    0.8590 H   0  0  0  0  0  0  0  0  0  0  0  0
    2.4690   -4.0870   -0.4240 H   0  0  0  0  0  0  0  0  0  0  0  0
    2.5400   -2.4380    2.0470 H   0  0  0  0  0  0  0  0  0  0  0  0
    4.8030   -1.7510    1.3900 H   0  0  0  0  0  0  0  0  0  0  0  0
    4.8270   -2.9920    0.1180 H   0  0  0  0  0  0  0  0  0  0  0  0
    3.9620   -5.1700    3.4840 H   0  0  0  0  0  0  0  0  0  0  0  0
    1.5140   -0.4480   -3.0880 C   0  0  0  0  0  0  0  0  0  0  0  0
    1.2170   -0.2850   -1.6310 C   0  0  2  0  0  0  0  0  0  0  0  0
    1.6070   -1.4530   -0.8660 N   0  0  0  0  0  0  0  0  0  0  0  0
   -0.2630   -0.1070   -1.3780 C   0  0  0  0  0  0  0  0  0  0  0  0
   -0.7800    0.8560   -1.9710 O   0  0  0  0  0  0  0  0  0  0  0  0
    2.3820   -1.1210   -3.2050 H   0  0  0  0  0  0  0  0  0  0  0  0
    0.6660   -0.8880   -3.6610 H   0  0  0  0  0  0  0  0  0  0  0  0
    1.8340    0.5340   -3.5290 H   0  0  0  0  0  0  0  0  0  0  0  0
    1.7570    0.6230   -1.2560 H   0  0  0  0  0  0  0  0  0  0  0  0
    1.1860   -2.3670   -1.1440 H   0  0  0  0  0  0  0  0  0  0  0  0
   -1.3860    3.4900    4.8570 N   0  0  0  0  0  0  0  0  0  0  0  0
   -1.8260    2.3470    4.1520 C   0  0  0  0  0  0  0  0  0  0  0  0
   -2.1990    1.3150    4.8090 N   0  0  0  0  0  0  0  0  0  0  0  0
   -1.8570    2.3370    2.7120 N   0  0  0  0  0  0  0  0  0  0  0  0
   -2.4980    1.2260    2.0090 C   0  0  0  0  0  0  0  0  0  0  0  0
   -2.3610    1.5160    0.5230 C   0  0  0  0  0  0  0  0  0  0  0  0
   -2.9750    0.4810   -0.3360 C   0  0  0  0  0  0  0  0  0  0  0  0
   -2.3800   -0.9170   -0.1830 C   0  0  2  0  0  0  0  0  0  0  0  0
   -1.0180   -0.9320   -0.5540 N   0  0  0  0  0  0  0  0  0  0  0  0
   -3.2370   -1.9330   -0.7750 C   0  0  0  0  0  0  0  0  0  0  0  0
   -2.7470   -2.7710   -1.5770 O   0  0  0  0  0  0  0  0  0  0  0  0
   -4.5930   -2.0450   -0.5080 O   0  0  0  0  0  0  0  0  0  0  0  0
   -1.0370    3.4280    5.8350 H   0  0  0  0  0  0  0  0  0  0  0  0
   -1.4150    4.4140    4.3770 H   0  0  0  0  0  0  0  0  0  0  0  0
   -2.1820    1.3080    5.8500 H   0  0  0  0  0  0  0  0  0  0  0  0
   -1.4270    3.1140    2.2080 H   0  0  0  0  0  0  0  0  0  0  0  0
   -3.5550    1.2060    2.3420 H   0  0  0  0  0  0  0  0  0  0  0  0
   -1.9150    0.3350    2.3290 H   0  0  0  0  0  0  0  0  0  0  0  0
   -2.9620    2.4640    0.3760 H   0  0  0  0  0  0  0  0  0  0  0  0
   -1.3350    1.7840    0.3410 H   0  0  0  0  0  0  0  0  0  0  0  0
   -4.0840    0.4000   -0.1200 H   0  0  0  0  0  0  0  0  0  0  0  0
   -2.9330    0.7570   -1.3990 H   0  0  0  0  0  0  0  0  0  0  0  0
   -2.4680   -1.0280    0.9770 H   0  0  0  0  0  0  0  0  0  0  0  0
   -0.4400   -1.7410   -0.1130 H   0  0  0  0  0  0  0  0  0  0  0  0
  1  9  1  0  0  0  0
  1  2  1  0  0  0  0
  2  3  1  0  0  0  0
  2 11  1  1  0  0  0
  3 12  1  0  0  0  0
  3  4  1  0  0  0  0
  4  5  2  0  0  0  0
  4  8  1  0  0  0  0
  6  7  2  0  0  0  0
  6  2  1  0  0  0  0
  8 14  1  0  0  0  0
 10  1  1  0  0  0  0
 13  3  1  0  0  0  0
 15 16  1  0  0  0  0
 16 18  1  0  0  0  0
 16 23  1  1  0  0  0
 16 17  1  0  0  0  0
 17  6  1  0  0  0  0
 18 33  1  0  0  0  0
 19 18  2  0  0  0  0
 20 15  1  0  0  0  0
 21 15  1  0  0  0  0
 22 15  1  0  0  0  0
 24 17  1  0  0  0  0
 25 37  1  0  0  0  0
 26 27  2  0  0  0  0
 26 25  1  0  0  0  0
 27 39  1  0  0  0  0
 28 26  1  0  0  0  0
 29 42  1  0  0  0  0
 29 41  1  0  0  0  0
 29 28  1  0  0  0  0
 30 29  1  0  0  0  0
 31 32  1  0  0  0  0
 31 45  1  0  0  0  0
 31 30  1  0  0  0  0
 32 47  1  1  0  0  0
 33 32  1  0  0  0  0
 33 48  1  0  0  0  0
 34 36  1  0  0  0  0
 34 32  1  0  0  0  0
 35 34  2  0  0  0  0
 38 25  1  0  0  0  0
 40 28  1  0  0  0  0
 43 30  1  0  0  0  0
 44 30  1  0  0  0  0
 46 31  1  0  0  0  0
M  END
$$$$
