DAT.pdb
 OpenBabel07022418123D

 39 38  0  0  1  0  0  0  0  0999 V2000
    2.2950   -5.3050    1.0060 N   0  0  0  0  0  0  0  0  0  0  0  0
    1.0310   -4.5960    1.0930 C   0  0  1  0  0  0  0  0  0  0  0  0
    0.7500   -4.2970    2.5490 C   0  0  0  0  0  0  0  0  0  0  0  0
    1.8510   -3.4450    3.1230 C   0  0  0  0  0  0  0  0  0  0  0  0
    2.8350   -3.0750    2.4220 O   0  0  0  0  0  0  0  0  0  0  0  0
    1.1350   -3.3890    0.2710 C   0  0  0  0  0  0  0  0  0  0  0  0
    2.1740   -3.0600   -0.3860 O   0  0  0  0  0  0  0  0  0  0  0  0
    1.8220   -3.0370    4.4430 O   0  0  0  0  0  0  0  0  0  0  0  0
    3.0590   -4.6970    0.6350 H   0  0  0  0  0  0  0  0  0  0  0  0
    2.5640   -5.7460    1.9090 H   0  0  0  0  0  0  0  0  0  0  0  0
    0.2550   -5.2980    0.7270 H   0  0  0  0  0  0  0  0  0  0  0  0
   -0.1840   -3.7630    2.7180 H   0  0  0  0  0  0  0  0  0  0  0  0
    0.7300   -5.2300    3.1450 H   0  0  0  0  0  0  0  0  0  0  0  0
    2.2000   -2.1350    4.7380 H   0  0  0  0  0  0  0  0  0  0  0  0
   -0.9550   -1.5290   -1.7580 C   0  0  0  0  0  0  0  0  0  0  0  0
    0.0180   -1.3030   -0.5930 C   0  0  2  0  0  0  0  0  0  0  0  0
    0.0240   -2.5070    0.1800 N   0  0  0  0  0  0  0  0  0  0  0  0
   -0.3140   -0.1020    0.1700 C   0  0  0  0  0  0  0  0  0  0  0  0
   -0.5580   -0.2100    1.3960 O   0  0  0  0  0  0  0  0  0  0  0  0
   -1.8420   -2.0580   -1.3120 H   0  0  0  0  0  0  0  0  0  0  0  0
   -1.2580   -0.5800   -2.2200 H   0  0  0  0  0  0  0  0  0  0  0  0
   -0.4690   -2.2390   -2.4480 H   0  0  0  0  0  0  0  0  0  0  0  0
    1.0340   -1.2260   -1.0780 H   0  0  0  0  0  0  0  0  0  0  0  0
   -0.8500   -2.7430    0.7080 H   0  0  0  0  0  0  0  0  0  0  0  0
    0.0760    4.5550    1.2120 C   0  0  0  0  0  0  0  0  0  0  0  0
    0.4470    3.3760    0.3340 C   0  0  1  0  0  0  0  0  0  0  0  0
    1.5690    2.7960    0.9350 O   0  0  0  0  0  0  0  0  0  0  0  0
   -0.7000    2.3920    0.3190 C   0  0  2  0  0  0  0  0  0  0  0  0
   -0.3740    1.1880   -0.4120 N   0  0  0  0  0  0  0  0  0  0  0  0
   -1.9180    3.0460   -0.1830 C   0  0  0  0  0  0  0  0  0  0  0  0
   -2.5670    2.5760   -1.1450 O   0  0  0  0  0  0  0  0  0  0  0  0
   -2.3590    4.2050    0.4190 O   0  0  0  0  0  0  0  0  0  0  0  0
   -0.6490    4.2790    2.0020 H   0  0  0  0  0  0  0  0  0  0  0  0
    0.9800    4.9430    1.7600 H   0  0  0  0  0  0  0  0  0  0  0  0
   -0.3650    5.3970    0.6190 H   0  0  0  0  0  0  0  0  0  0  0  0
    0.6890    3.7770   -0.6680 H   0  0  0  0  0  0  0  0  0  0  0  0
    2.3890    3.2900    0.7660 H   0  0  0  0  0  0  0  0  0  0  0  0
   -0.8820    2.1020    1.3770 H   0  0  0  0  0  0  0  0  0  0  0  0
   -0.1660    1.2590   -1.4390 H   0  0  0  0  0  0  0  0  0  0  0  0
  1  2  1  0  0  0  0
  1 10  1  0  0  0  0
  2 11  1  6  0  0  0
  2  3  1  0  0  0  0
  3 12  1  0  0  0  0
  3  4  1  0  0  0  0
  3 13  1  0  0  0  0
  4  8  1  0  0  0  0
  5  4  2  0  0  0  0
  6  2  1  0  0  0  0
  7  6  2  0  0  0  0
  8 14  1  0  0  0  0
  9  1  1  0  0  0  0
 15 20  1  0  0  0  0
 15 16  1  0  0  0  0
 16 23  1  6  0  0  0
 16 18  1  0  0  0  0
 16 17  1  0  0  0  0
 17  6  1  0  0  0  0
 17 24  1  0  0  0  0
 18 19  2  0  0  0  0
 21 15  1  0  0  0  0
 22 15  1  0  0  0  0
 25 34  1  0  0  0  0
 25 33  1  0  0  0  0
 26 36  1  6  0  0  0
 26 27  1  0  0  0  0
 26 25  1  0  0  0  0
 28 26  1  0  0  0  0
 28 38  1  1  0  0  0
 29 18  1  0  0  0  0
 29 28  1  0  0  0  0
 30 28  1  0  0  0  0
 30 32  1  0  0  0  0
 31 30  2  0  0  0  0
 35 25  1  0  0  0  0
 37 27  1  0  0  0  0
 39 29  1  0  0  0  0
M  END
$$$$
