DAW.pdb
 OpenBabel07022418123D

 49 50  0  0  1  0  0  0  0  0999 V2000
   -4.1840    1.9170    1.4190 N   0  0  0  0  0  0  0  0  0  0  0  0
   -2.8450    2.4930    1.1430 C   0  0  1  0  0  0  0  0  0  0  0  0
   -2.1570    2.7010    2.4520 C   0  0  0  0  0  0  0  0  0  0  0  0
   -0.8230    3.2820    2.2630 C   0  0  0  0  0  0  0  0  0  0  0  0
    0.1940    2.5880    2.4750 O   0  0  0  0  0  0  0  0  0  0  0  0
   -2.1240    1.5580    0.2760 C   0  0  0  0  0  0  0  0  0  0  0  0
   -2.6600    0.4230    0.0070 O   0  0  0  0  0  0  0  0  0  0  0  0
   -0.6950    4.5900    1.8510 O   0  0  0  0  0  0  0  0  0  0  0  0
   -4.7740    2.6880    1.7810 H   0  0  0  0  0  0  0  0  0  0  0  0
   -4.0650    1.1270    2.0770 H   0  0  0  0  0  0  0  0  0  0  0  0
   -3.0340    3.4300    0.5980 H   0  0  0  0  0  0  0  0  0  0  0  0
   -2.1150    1.7620    3.0540 H   0  0  0  0  0  0  0  0  0  0  0  0
   -2.7570    3.4370    3.0580 H   0  0  0  0  0  0  0  0  0  0  0  0
    0.1430    5.1080    2.0340 H   0  0  0  0  0  0  0  0  0  0  0  0
    0.2590    1.3070   -2.4760 C   0  0  0  0  0  0  0  0  0  0  0  0
   -0.2390    0.7600   -1.1860 C   0  0  2  0  0  0  0  0  0  0  0  0
   -0.8590    1.7660   -0.3270 N   0  0  0  0  0  0  0  0  0  0  0  0
    0.8180    0.0270   -0.4210 C   0  0  0  0  0  0  0  0  0  0  0  0
    1.1110    0.2230    0.7700 O   0  0  0  0  0  0  0  0  0  0  0  0
   -0.1320    2.3550   -2.5800 H   0  0  0  0  0  0  0  0  0  0  0  0
   -0.1150    0.7620   -3.3650 H   0  0  0  0  0  0  0  0  0  0  0  0
    1.3650    1.3060   -2.5770 H   0  0  0  0  0  0  0  0  0  0  0  0
   -1.0240   -0.0270   -1.3640 H   0  0  0  0  0  0  0  0  0  0  0  0
   -0.3780    2.6720   -0.1520 H   0  0  0  0  0  0  0  0  0  0  0  0
    1.5280   -0.9730   -1.1430 N   0  0  0  0  0  0  0  0  0  0  0  0
    2.5670   -1.7590   -0.5340 C   0  0  1  0  0  0  0  0  0  0  0  0
    2.3210   -3.2470   -0.6190 C   0  0  0  0  0  0  0  0  0  0  0  0
    1.0480   -3.5440    0.0790 C   0  0  0  0  0  0  0  0  0  0  0  0
   -0.1940   -3.8100   -0.4720 C   0  0  0  0  0  0  0  0  0  0  0  0
   -1.0650   -4.0200    0.5330 N   0  0  0  0  0  0  0  0  0  0  0  0
   -0.4340   -3.9000    1.7170 C   0  0  0  0  0  0  0  0  0  0  0  0
   -0.8580   -4.0180    3.0100 C   0  0  0  0  0  0  0  0  0  0  0  0
    0.0240   -3.8430    4.0330 C   0  0  0  0  0  0  0  0  0  0  0  0
    1.3380   -3.5490    3.7970 C   0  0  0  0  0  0  0  0  0  0  0  0
    1.7570   -3.4310    2.4820 C   0  0  0  0  0  0  0  0  0  0  0  0
    0.8780   -3.6050    1.4390 C   0  0  0  0  0  0  0  0  0  0  0  0
    3.9130   -1.4100   -1.0950 C   0  0  0  0  0  0  0  0  0  0  0  0
    4.9470   -1.9880   -0.6980 O   0  0  0  0  0  0  0  0  0  0  0  0
    4.0250   -0.4380   -2.0660 O   0  0  0  0  0  0  0  0  0  0  0  0
    1.3220   -1.1850   -2.1620 H   0  0  0  0  0  0  0  0  0  0  0  0
    2.5780   -1.4980    0.5590 H   0  0  0  0  0  0  0  0  0  0  0  0
    2.2810   -3.5140   -1.6930 H   0  0  0  0  0  0  0  0  0  0  0  0
    3.1700   -3.7370   -0.0980 H   0  0  0  0  0  0  0  0  0  0  0  0
   -0.3690   -3.8320   -1.5450 H   0  0  0  0  0  0  0  0  0  0  0  0
   -2.0710   -4.2410    0.4510 H   0  0  0  0  0  0  0  0  0  0  0  0
   -1.9080   -4.2540    3.2050 H   0  0  0  0  0  0  0  0  0  0  0  0
   -0.3470   -3.9450    5.0590 H   0  0  0  0  0  0  0  0  0  0  0  0
    2.0200   -3.4150    4.6250 H   0  0  0  0  0  0  0  0  0  0  0  0
    2.7790   -3.2020    2.2710 H   0  0  0  0  0  0  0  0  0  0  0  0
  1  9  1  0  0  0  0
  1 10  1  0  0  0  0
  2 11  1  6  0  0  0
  2  1  1  0  0  0  0
  2  3  1  0  0  0  0
  3 12  1  0  0  0  0
  3 13  1  0  0  0  0
  4  3  1  0  0  0  0
  4  5  2  0  0  0  0
  6  2  1  0  0  0  0
  7  6  2  0  0  0  0
  8 14  1  0  0  0  0
  8  4  1  0  0  0  0
 15 16  1  0  0  0  0
 16 23  1  6  0  0  0
 16 18  1  0  0  0  0
 16 17  1  0  0  0  0
 17 24  1  0  0  0  0
 17  6  1  0  0  0  0
 18 19  2  0  0  0  0
 20 15  1  0  0  0  0
 21 15  1  0  0  0  0
 22 15  1  0  0  0  0
 25 26  1  0  0  0  0
 25 18  1  0  0  0  0
 26 41  1  1  0  0  0
 27 26  1  0  0  0  0
 27 43  1  0  0  0  0
 27 28  1  0  0  0  0
 28 36  1  0  0  0  0
 29 28  2  0  0  0  0
 29 30  1  0  0  0  0
 30 31  1  0  0  0  0
 31 32  1  0  0  0  0
 32 46  1  0  0  0  0
 32 33  2  0  0  0  0
 33 47  1  0  0  0  0
 34 33  1  0  0  0  0
 34 48  1  0  0  0  0
 35 34  2  0  0  0  0
 36 31  2  0  0  0  0
 36 35  1  0  0  0  0
 37 38  1  0  0  0  0
 37 26  1  0  0  0  0
 39 37  2  0  0  0  0
 40 25  1  0  0  0  0
 42 27  1  0  0  0  0
 44 29  1  0  0  0  0
 45 30  1  0  0  0  0
 49 35  1  0  0  0  0
M  END
$$$$
