DCL.pdb
 OpenBabel07022418133D

 45 44  0  0  1  0  0  0  0  0999 V2000
    3.4540   -3.7370    1.3930 N   0  0  0  0  0  0  0  0  0  0  0  0
    2.1020   -3.5770    0.8960 C   0  0  1  0  0  0  0  0  0  0  0  0
    1.1720   -3.6640    2.0590 C   0  0  0  0  0  0  0  0  0  0  0  0
    1.2680   -4.9560    2.7640 C   0  0  0  0  0  0  0  0  0  0  0  0
    2.0690   -5.8200    2.3570 O   0  0  0  0  0  0  0  0  0  0  0  0
    2.0280   -2.3760    0.0980 C   0  0  0  0  0  0  0  0  0  0  0  0
    3.0510   -1.6640   -0.0650 O   0  0  0  0  0  0  0  0  0  0  0  0
    0.4880   -5.2290    3.8650 O   0  0  0  0  0  0  0  0  0  0  0  0
    3.9060   -4.6140    1.1040 H   0  0  0  0  0  0  0  0  0  0  0  0
    4.0830   -2.9460    1.1160 H   0  0  0  0  0  0  0  0  0  0  0  0
    1.9360   -4.4570    0.2070 H   0  0  0  0  0  0  0  0  0  0  0  0
    1.2470   -2.8600    2.7800 H   0  0  0  0  0  0  0  0  0  0  0  0
    0.1230   -3.6160    1.6400 H   0  0  0  0  0  0  0  0  0  0  0  0
    0.8820   -5.9040    4.5380 H   0  0  0  0  0  0  0  0  0  0  0  0
    0.8330   -1.9100   -0.5510 N   0  0  0  0  0  0  0  0  0  0  0  0
    0.8280   -0.6940   -1.3390 C   0  0  1  0  0  0  0  0  0  0  0  0
    0.3750   -0.9600   -2.7690 C   0  0  0  0  0  0  0  0  0  0  0  0
    0.4120    0.6230   -3.6420 S   0  0  0  0  0  0  0  0  0  0  0  0
   -0.1380    0.2470   -0.7200 C   0  0  0  0  0  0  0  0  0  0  0  0
   -0.3400    1.3720   -1.2220 O   0  0  0  0  0  0  0  0  0  0  0  0
    0.0040   -2.5160   -0.4050 H   0  0  0  0  0  0  0  0  0  0  0  0
    1.8580   -0.2760   -1.3540 H   0  0  0  0  0  0  0  0  0  0  0  0
    1.0830   -1.6720   -3.2420 H   0  0  0  0  0  0  0  0  0  0  0  0
   -0.6580   -1.3280   -2.7580 H   0  0  0  0  0  0  0  0  0  0  0  0
    1.4120    1.4790   -3.1590 H   0  0  0  0  0  0  0  0  0  0  0  0
    0.8630    2.2870    1.5660 C   0  0  0  0  0  0  0  0  0  0  0  0
   -0.4740    2.6110    2.0830 C   0  0  0  0  0  0  0  0  0  0  0  0
   -0.5600    4.1430    2.1860 C   0  0  0  0  0  0  0  0  0  0  0  0
   -1.6790    2.1510    1.3260 C   0  0  0  0  0  0  0  0  0  0  0  0
   -1.7860    0.6830    1.1540 C   0  0  2  0  0  0  0  0  0  0  0  0
   -0.8660   -0.0720    0.4460 N   0  0  0  0  0  0  0  0  0  0  0  0
   -3.1580    0.2590    0.8440 C   0  0  0  0  0  0  0  0  0  0  0  0
   -4.1850    0.7780    1.3490 O   0  0  0  0  0  0  0  0  0  0  0  0
   -3.3460   -0.7750   -0.0570 O   0  0  0  0  0  0  0  0  0  0  0  0
    1.1340    2.7230    0.5970 H   0  0  0  0  0  0  0  0  0  0  0  0
    1.1560    1.2110    1.6370 H   0  0  0  0  0  0  0  0  0  0  0  0
    1.5940    2.7780    2.2940 H   0  0  0  0  0  0  0  0  0  0  0  0
   -0.5550    2.2280    3.1320 H   0  0  0  0  0  0  0  0  0  0  0  0
   -1.5290    4.5160    1.8180 H   0  0  0  0  0  0  0  0  0  0  0  0
   -0.4540    4.4770    3.2380 H   0  0  0  0  0  0  0  0  0  0  0  0
    0.2290    4.6240    1.5680 H   0  0  0  0  0  0  0  0  0  0  0  0
   -2.5480    2.4370    2.0020 H   0  0  0  0  0  0  0  0  0  0  0  0
   -1.8810    2.7490    0.4180 H   0  0  0  0  0  0  0  0  0  0  0  0
   -1.6340    0.3390    2.2630 H   0  0  0  0  0  0  0  0  0  0  0  0
   -0.6620   -1.0520    0.8160 H   0  0  0  0  0  0  0  0  0  0  0  0
  2 11  1  6  0  0  0
  2  1  1  0  0  0  0
  2  3  1  0  0  0  0
  3  4  1  0  0  0  0
  3 12  1  0  0  0  0
  4  8  1  0  0  0  0
  5  4  2  0  0  0  0
  6  2  1  0  0  0  0
  7  6  2  0  0  0  0
  8 14  1  0  0  0  0
  9  1  1  0  0  0  0
 10  1  1  0  0  0  0
 13  3  1  0  0  0  0
 15 21  1  0  0  0  0
 15  6  1  0  0  0  0
 16 22  1  6  0  0  0
 16 19  1  0  0  0  0
 16 15  1  0  0  0  0
 17 24  1  0  0  0  0
 17 16  1  0  0  0  0
 18 25  1  0  0  0  0
 18 17  1  0  0  0  0
 19 31  1  0  0  0  0
 20 19  2  0  0  0  0
 23 17  1  0  0  0  0
 26 36  1  0  0  0  0
 26 27  1  0  0  0  0
 26 37  1  0  0  0  0
 27 28  1  0  0  0  0
 27 38  1  0  0  0  0
 28 40  1  0  0  0  0
 29 42  1  0  0  0  0
 29 27  1  0  0  0  0
 30 29  1  0  0  0  0
 30 44  1  1  0  0  0
 31 45  1  0  0  0  0
 31 30  1  0  0  0  0
 32 30  1  0  0  0  0
 32 33  1  0  0  0  0
 34 32  2  0  0  0  0
 35 26  1  0  0  0  0
 39 28  1  0  0  0  0
 41 28  1  0  0  0  0
 43 29  1  0  0  0  0
M  END
$$$$
