DCN.pdb
 OpenBabel07022418133D

 40 39  0  0  1  0  0  0  0  0999 V2000
    2.9750   -1.6080    0.7030 N   0  0  0  0  0  0  0  0  0  0  0  0
    2.9030   -0.8310   -0.4930 C   0  0  1  0  0  0  0  0  0  0  0  0
    3.7560   -1.4140   -1.5710 C   0  0  0  0  0  0  0  0  0  0  0  0
    5.1940   -1.4960   -1.2220 C   0  0  0  0  0  0  0  0  0  0  0  0
    5.9830   -1.9500   -2.0620 O   0  0  0  0  0  0  0  0  0  0  0  0
    1.5100   -0.7110   -1.0060 C   0  0  0  0  0  0  0  0  0  0  0  0
    1.2770   -0.1080   -2.0860 O   0  0  0  0  0  0  0  0  0  0  0  0
    5.6430   -1.0770    0.0090 O   0  0  0  0  0  0  0  0  0  0  0  0
    3.0650   -2.6130    0.4350 H   0  0  0  0  0  0  0  0  0  0  0  0
    3.7510   -1.3370    1.3390 H   0  0  0  0  0  0  0  0  0  0  0  0
    3.3210    0.1890   -0.2510 H   0  0  0  0  0  0  0  0  0  0  0  0
    3.6420   -0.8510   -2.5390 H   0  0  0  0  0  0  0  0  0  0  0  0
    3.4270   -2.4690   -1.7810 H   0  0  0  0  0  0  0  0  0  0  0  0
    6.5110   -1.4140    0.4280 H   0  0  0  0  0  0  0  0  0  0  0  0
    0.3940   -1.2530   -0.3290 N   0  0  0  0  0  0  0  0  0  0  0  0
   -0.9480   -1.1330   -0.8390 C   0  0  1  0  0  0  0  0  0  0  0  0
   -1.5400   -2.4800   -1.0980 C   0  0  0  0  0  0  0  0  0  0  0  0
   -1.6210   -3.4970    0.4030 S   0  0  0  0  0  0  0  0  0  0  0  0
   -1.8000   -0.2750    0.0200 C   0  0  0  0  0  0  0  0  0  0  0  0
   -3.0040   -0.0950   -0.3020 O   0  0  0  0  0  0  0  0  0  0  0  0
    0.5490   -1.7530    0.5650 H   0  0  0  0  0  0  0  0  0  0  0  0
   -0.8720   -0.6040   -1.8320 H   0  0  0  0  0  0  0  0  0  0  0  0
   -2.5740   -2.4250   -1.4960 H   0  0  0  0  0  0  0  0  0  0  0  0
   -0.9410   -2.9890   -1.8910 H   0  0  0  0  0  0  0  0  0  0  0  0
   -2.7440   -3.0140    1.1360 H   0  0  0  0  0  0  0  0  0  0  0  0
   -0.5330   -0.9360    4.2630 N   0  0  0  0  0  0  0  0  0  0  0  0
   -1.0460    0.3970    4.1460 C   0  0  0  0  0  0  0  0  0  0  0  0
   -0.3610    1.2990    4.6660 O   0  0  0  0  0  0  0  0  0  0  0  0
   -2.3150    0.6150    3.4380 C   0  0  0  0  0  0  0  0  0  0  0  0
   -2.1250    1.2000    2.0550 C   0  0  2  0  0  0  0  0  0  0  0  0
   -1.3390    0.3650    1.1980 N   0  0  0  0  0  0  0  0  0  0  0  0
   -1.6440    2.5940    2.1160 C   0  0  0  0  0  0  0  0  0  0  0  0
   -0.6440    2.9660    1.4710 O   0  0  0  0  0  0  0  0  0  0  0  0
   -2.3140    3.5050    2.9030 O   0  0  0  0  0  0  0  0  0  0  0  0
    0.1740   -1.2750    3.5800 H   0  0  0  0  0  0  0  0  0  0  0  0
   -0.8400   -1.5890    5.0100 H   0  0  0  0  0  0  0  0  0  0  0  0
   -2.9170   -0.2940    3.3930 H   0  0  0  0  0  0  0  0  0  0  0  0
   -2.9010    1.3460    4.0480 H   0  0  0  0  0  0  0  0  0  0  0  0
   -3.1580    1.2440    1.6070 H   0  0  0  0  0  0  0  0  0  0  0  0
   -0.3200    0.1880    1.4330 H   0  0  0  0  0  0  0  0  0  0  0  0
  1 10  1  0  0  0  0
  2 11  1  1  0  0  0
  2  1  1  0  0  0  0
  3  4  1  0  0  0  0
  3  2  1  0  0  0  0
  4  8  1  0  0  0  0
  5  4  2  0  0  0  0
  6  2  1  0  0  0  0
  6 15  1  0  0  0  0
  7  6  2  0  0  0  0
  8 14  1  0  0  0  0
  9  1  1  0  0  0  0
 12  3  1  0  0  0  0
 13  3  1  0  0  0  0
 15 21  1  0  0  0  0
 16 22  1  6  0  0  0
 16 15  1  0  0  0  0
 16 19  1  0  0  0  0
 17 16  1  0  0  0  0
 17 18  1  0  0  0  0
 18 25  1  0  0  0  0
 19 31  1  0  0  0  0
 20 19  2  0  0  0  0
 23 17  1  0  0  0  0
 24 17  1  0  0  0  0
 26 36  1  0  0  0  0
 27 26  1  0  0  0  0
 27 28  2  0  0  0  0
 29 38  1  0  0  0  0
 29 27  1  0  0  0  0
 30 39  1  6  0  0  0
 30 32  1  0  0  0  0
 30 29  1  0  0  0  0
 31 40  1  0  0  0  0
 31 30  1  0  0  0  0
 32 34  1  0  0  0  0
 33 32  2  0  0  0  0
 35 26  1  0  0  0  0
 37 29  1  0  0  0  0
M  END
$$$$
