DCS.pdb
 OpenBabel07022418133D

 37 36  0  0  1  0  0  0  0  0999 V2000
   -1.5480   -2.0310    1.9920 N   0  0  0  0  0  0  0  0  0  0  0  0
   -0.3590   -2.8200    1.9080 C   0  0  1  0  0  0  0  0  0  0  0  0
   -0.7090   -4.2720    1.9030 C   0  0  0  0  0  0  0  0  0  0  0  0
   -1.4310   -4.5770    3.1680 C   0  0  0  0  0  0  0  0  0  0  0  0
   -1.8110   -5.7610    3.3490 O   0  0  0  0  0  0  0  0  0  0  0  0
    0.5220   -2.4310    0.7790 C   0  0  0  0  0  0  0  0  0  0  0  0
    1.6090   -3.0280    0.5670 O   0  0  0  0  0  0  0  0  0  0  0  0
   -1.6930   -3.6170    4.1330 O   0  0  0  0  0  0  0  0  0  0  0  0
   -2.0040   -2.0420    1.0510 H   0  0  0  0  0  0  0  0  0  0  0  0
   -1.2930   -1.0340    2.1730 H   0  0  0  0  0  0  0  0  0  0  0  0
    0.2380   -2.6270    2.8430 H   0  0  0  0  0  0  0  0  0  0  0  0
    0.2030   -4.9190    1.8920 H   0  0  0  0  0  0  0  0  0  0  0  0
   -1.3730   -4.5600    1.0750 H   0  0  0  0  0  0  0  0  0  0  0  0
   -1.7770   -3.9270    5.1070 H   0  0  0  0  0  0  0  0  0  0  0  0
    0.2090   -1.3770   -0.1260 N   0  0  0  0  0  0  0  0  0  0  0  0
    1.0950   -1.0220   -1.2220 C   0  0  1  0  0  0  0  0  0  0  0  0
    0.3920   -1.1020   -2.5580 C   0  0  0  0  0  0  0  0  0  0  0  0
   -1.0270    0.0270   -2.6210 S   0  0  0  0  0  0  0  0  0  0  0  0
    1.4970    0.3950   -1.0280 C   0  0  0  0  0  0  0  0  0  0  0  0
    2.2710    0.9340   -1.8590 O   0  0  0  0  0  0  0  0  0  0  0  0
   -0.6860   -0.8600    0.0200 H   0  0  0  0  0  0  0  0  0  0  0  0
    1.9680   -1.6980   -1.1820 H   0  0  0  0  0  0  0  0  0  0  0  0
    1.1240   -0.7300   -3.3160 H   0  0  0  0  0  0  0  0  0  0  0  0
    0.1210   -2.1260   -2.8370 H   0  0  0  0  0  0  0  0  0  0  0  0
   -1.8370   -0.0790   -1.4900 H   0  0  0  0  0  0  0  0  0  0  0  0
   -0.5600    3.0390    1.3980 O   0  0  0  0  0  0  0  0  0  0  0  0
    0.2170    3.4570    0.3280 C   0  0  0  0  0  0  0  0  0  0  0  0
    1.4360    2.5650    0.2550 C   0  0  2  0  0  0  0  0  0  0  0  0
    1.0420    1.1640    0.0600 N   0  0  0  0  0  0  0  0  0  0  0  0
    2.2280    2.6290    1.5130 C   0  0  0  0  0  0  0  0  0  0  0  0
    2.4590    1.5880    2.2140 O   0  0  0  0  0  0  0  0  0  0  0  0
    2.7600    3.8100    1.9990 O   0  0  0  0  0  0  0  0  0  0  0  0
   -1.3190    3.6780    1.5110 H   0  0  0  0  0  0  0  0  0  0  0  0
    0.5550    4.4880    0.5500 H   0  0  0  0  0  0  0  0  0  0  0  0
   -0.2890    3.4390   -0.6360 H   0  0  0  0  0  0  0  0  0  0  0  0
    2.1140    2.8590   -0.5720 H   0  0  0  0  0  0  0  0  0  0  0  0
    0.4000    0.7060    0.7440 H   0  0  0  0  0  0  0  0  0  0  0  0
  1 10  1  0  0  0  0
  2  1  1  0  0  0  0
  2 11  1  1  0  0  0
  3  2  1  0  0  0  0
  3  4  1  0  0  0  0
  4  5  2  0  0  0  0
  4  8  1  0  0  0  0
  6  2  1  0  0  0  0
  7  6  2  0  0  0  0
  8 14  1  0  0  0  0
  9  1  1  0  0  0  0
 12  3  1  0  0  0  0
 13  3  1  0  0  0  0
 15 21  1  0  0  0  0
 15  6  1  0  0  0  0
 16 22  1  1  0  0  0
 16 19  1  0  0  0  0
 16 15  1  0  0  0  0
 17 16  1  0  0  0  0
 18 17  1  0  0  0  0
 18 25  1  0  0  0  0
 19 29  1  0  0  0  0
 20 19  2  0  0  0  0
 23 17  1  0  0  0  0
 24 17  1  0  0  0  0
 26 33  1  0  0  0  0
 27 34  1  0  0  0  0
 27 26  1  0  0  0  0
 28 36  1  6  0  0  0
 28 27  1  0  0  0  0
 28 30  1  0  0  0  0
 29 28  1  0  0  0  0
 29 37  1  0  0  0  0
 30 32  2  0  0  0  0
 30 31  1  0  0  0  0
 35 27  1  0  0  0  0
M  END
$$$$
