DCV.pdb
 OpenBabel07022418143D

 42 41  0  0  1  0  0  0  0  0999 V2000
    4.0410   -2.1160   -1.8450 N   0  0  0  0  0  0  0  0  0  0  0  0
    2.9540   -2.3480   -0.9210 C   0  0  1  0  0  0  0  0  0  0  0  0
    3.3260   -1.7660    0.4150 C   0  0  0  0  0  0  0  0  0  0  0  0
    3.5750   -0.3040    0.3330 C   0  0  0  0  0  0  0  0  0  0  0  0
    3.4740    0.3560   -0.7380 O   0  0  0  0  0  0  0  0  0  0  0  0
    1.7180   -1.8100   -1.4820 C   0  0  0  0  0  0  0  0  0  0  0  0
    1.7570   -1.2480   -2.6100 O   0  0  0  0  0  0  0  0  0  0  0  0
    3.9410    0.4260    1.4710 O   0  0  0  0  0  0  0  0  0  0  0  0
    4.9700   -2.2870   -1.4480 H   0  0  0  0  0  0  0  0  0  0  0  0
    3.9780   -1.2290   -2.3700 H   0  0  0  0  0  0  0  0  0  0  0  0
    2.8220   -3.4630   -0.8560 H   0  0  0  0  0  0  0  0  0  0  0  0
    2.5720   -1.9290    1.1980 H   0  0  0  0  0  0  0  0  0  0  0  0
    4.2710   -2.2520    0.7400 H   0  0  0  0  0  0  0  0  0  0  0  0
    4.4930    1.2540    1.3810 H   0  0  0  0  0  0  0  0  0  0  0  0
    0.4840   -1.9240   -0.7540 N   0  0  0  0  0  0  0  0  0  0  0  0
   -0.7010   -1.3810   -1.3420 C   0  0  1  0  0  0  0  0  0  0  0  0
   -1.7670   -2.4390   -1.5050 C   0  0  0  0  0  0  0  0  0  0  0  0
   -2.1610   -3.0990    0.1290 S   0  0  0  0  0  0  0  0  0  0  0  0
   -1.2520   -0.3530   -0.4080 C   0  0  0  0  0  0  0  0  0  0  0  0
   -2.2890    0.2350   -0.7220 O   0  0  0  0  0  0  0  0  0  0  0  0
    0.5400   -2.4030    0.1670 H   0  0  0  0  0  0  0  0  0  0  0  0
   -0.4920   -0.9400   -2.3410 H   0  0  0  0  0  0  0  0  0  0  0  0
   -1.4380   -3.2180   -2.1960 H   0  0  0  0  0  0  0  0  0  0  0  0
   -2.6750   -1.9460   -1.9440 H   0  0  0  0  0  0  0  0  0  0  0  0
   -3.5430   -2.9940    0.4180 H   0  0  0  0  0  0  0  0  0  0  0  0
   -0.3380   -0.3780    3.7410 C   0  0  0  0  0  0  0  0  0  0  0  0
   -1.5050    0.3270    3.0770 C   0  0  0  0  0  0  0  0  0  0  0  0
   -2.0750    1.2970    4.0570 C   0  0  0  0  0  0  0  0  0  0  0  0
   -1.1130    0.9560    1.7640 C   0  0  2  0  0  0  0  0  0  0  0  0
   -0.6220   -0.0320    0.8210 N   0  0  0  0  0  0  0  0  0  0  0  0
   -0.1880    2.0940    1.9180 C   0  0  0  0  0  0  0  0  0  0  0  0
    0.9080    2.1840    1.2890 O   0  0  0  0  0  0  0  0  0  0  0  0
   -0.4460    3.1610    2.7690 O   0  0  0  0  0  0  0  0  0  0  0  0
    0.6240    0.1530    3.5950 H   0  0  0  0  0  0  0  0  0  0  0  0
   -0.4900   -0.4360    4.8430 H   0  0  0  0  0  0  0  0  0  0  0  0
   -0.2770   -1.4420    3.3900 H   0  0  0  0  0  0  0  0  0  0  0  0
   -2.2800   -0.4610    2.9130 H   0  0  0  0  0  0  0  0  0  0  0  0
   -1.3600    1.9610    4.5420 H   0  0  0  0  0  0  0  0  0  0  0  0
   -2.9740    1.8360    3.6530 H   0  0  0  0  0  0  0  0  0  0  0  0
   -2.5060    0.6730    4.8980 H   0  0  0  0  0  0  0  0  0  0  0  0
   -2.0460    1.3610    1.3150 H   0  0  0  0  0  0  0  0  0  0  0  0
    0.2690   -0.5810    1.0220 H   0  0  0  0  0  0  0  0  0  0  0  0
  1  9  1  0  0  0  0
  1  2  1  0  0  0  0
  2 11  1  1  0  0  0
  2  3  1  0  0  0  0
  3 13  1  0  0  0  0
  3 12  1  0  0  0  0
  4  3  1  0  0  0  0
  4  8  1  0  0  0  0
  5  4  2  0  0  0  0
  6  2  1  0  0  0  0
  6 15  1  0  0  0  0
  7  6  2  0  0  0  0
 10  1  1  0  0  0  0
 14  8  1  0  0  0  0
 15 21  1  0  0  0  0
 16 22  1  6  0  0  0
 16 15  1  0  0  0  0
 16 19  1  0  0  0  0
 17 16  1  0  0  0  0
 17 18  1  0  0  0  0
 18 25  1  0  0  0  0
 19 30  1  0  0  0  0
 20 19  2  0  0  0  0
 23 17  1  0  0  0  0
 24 17  1  0  0  0  0
 26 35  1  0  0  0  0
 27 26  1  0  0  0  0
 27 28  1  0  0  0  0
 28 38  1  0  0  0  0
 28 40  1  0  0  0  0
 29 41  1  6  0  0  0
 29 31  1  0  0  0  0
 29 27  1  0  0  0  0
 30 42  1  0  0  0  0
 30 29  1  0  0  0  0
 31 33  1  0  0  0  0
 32 31  2  0  0  0  0
 34 26  1  0  0  0  0
 36 26  1  0  0  0  0
 37 27  1  0  0  0  0
 39 28  1  0  0  0  0
M  END
$$$$
