DDA.pdb
 OpenBabel07022418133D

 38 37  0  0  1  0  0  0  0  0999 V2000
    2.4260   -3.8520    1.0660 N   0  0  0  0  0  0  0  0  0  0  0  0
    1.1800   -3.2020    0.7080 C   0  0  1  0  0  0  0  0  0  0  0  0
    0.3130   -3.1820    1.9290 C   0  0  0  0  0  0  0  0  0  0  0  0
    0.0750   -4.5930    2.3660 C   0  0  0  0  0  0  0  0  0  0  0  0
    0.5740   -5.5570    1.7320 O   0  0  0  0  0  0  0  0  0  0  0  0
    1.4710   -1.9000    0.1320 C   0  0  0  0  0  0  0  0  0  0  0  0
    2.6880   -1.5420    0.0090 O   0  0  0  0  0  0  0  0  0  0  0  0
   -0.6990   -4.9130    3.4780 O   0  0  0  0  0  0  0  0  0  0  0  0
    2.7690   -3.4670    1.9960 H   0  0  0  0  0  0  0  0  0  0  0  0
    3.1840   -3.6650    0.3840 H   0  0  0  0  0  0  0  0  0  0  0  0
    0.7170   -3.8620   -0.0750 H   0  0  0  0  0  0  0  0  0  0  0  0
    0.7290   -2.6470    2.7740 H   0  0  0  0  0  0  0  0  0  0  0  0
   -0.7030   -2.8080    1.6050 H   0  0  0  0  0  0  0  0  0  0  0  0
   -0.4150   -5.7240    4.0340 H   0  0  0  0  0  0  0  0  0  0  0  0
    0.5170   -0.9610   -0.3210 N   0  0  0  0  0  0  0  0  0  0  0  0
    0.8970    0.3440   -0.8970 C   0  0  1  0  0  0  0  0  0  0  0  0
    0.3480    0.4370   -2.2940 C   0  0  0  0  0  0  0  0  0  0  0  0
    0.7350    1.6900   -2.9380 C   0  0  0  0  0  0  0  0  0  0  0  0
    1.5240    2.5540   -2.4880 O   0  0  0  0  0  0  0  0  0  0  0  0
    0.3840    1.4130    0.0150 C   0  0  0  0  0  0  0  0  0  0  0  0
    0.5700    2.6160   -0.1960 O   0  0  0  0  0  0  0  0  0  0  0  0
    0.2000    2.0250   -4.2020 O   0  0  0  0  0  0  0  0  0  0  0  0
   -0.4730   -1.2090   -0.2400 H   0  0  0  0  0  0  0  0  0  0  0  0
    1.9860    0.4630   -0.9460 H   0  0  0  0  0  0  0  0  0  0  0  0
   -0.7520    0.2550   -2.3220 H   0  0  0  0  0  0  0  0  0  0  0  0
    0.8770   -0.3850   -2.8680 H   0  0  0  0  0  0  0  0  0  0  0  0
   -0.0760    2.9800   -4.4290 H   0  0  0  0  0  0  0  0  0  0  0  0
   -2.3840    2.0490    2.2350 C   0  0  0  0  0  0  0  0  0  0  0  0
   -0.8760    2.0650    2.1140 C   0  0  2  0  0  0  0  0  0  0  0  0
   -0.3600    1.0770    1.1990 N   0  0  0  0  0  0  0  0  0  0  0  0
   -0.2440    1.8340    3.4390 C   0  0  0  0  0  0  0  0  0  0  0  0
   -0.5420    2.5790    4.4280 O   0  0  0  0  0  0  0  0  0  0  0  0
    0.6810    0.8280    3.6780 O   0  0  0  0  0  0  0  0  0  0  0  0
   -2.8790    1.4880    1.4310 H   0  0  0  0  0  0  0  0  0  0  0  0
   -2.8130    3.0850    2.2960 H   0  0  0  0  0  0  0  0  0  0  0  0
   -2.6590    1.5450    3.1910 H   0  0  0  0  0  0  0  0  0  0  0  0
   -0.6110    3.1000    1.8040 H   0  0  0  0  0  0  0  0  0  0  0  0
   -0.5030    0.0580    1.3520 H   0  0  0  0  0  0  0  0  0  0  0  0
  1  9  1  0  0  0  0
  2 11  1  6  0  0  0
  2  1  1  0  0  0  0
  2  3  1  0  0  0  0
  3  4  1  0  0  0  0
  3 12  1  0  0  0  0
  4  8  1  0  0  0  0
  5  4  2  0  0  0  0
  6  2  1  0  0  0  0
  7  6  2  0  0  0  0
  8 14  1  0  0  0  0
 10  1  1  0  0  0  0
 13  3  1  0  0  0  0
 15 23  1  0  0  0  0
 15  6  1  0  0  0  0
 16 24  1  6  0  0  0
 16 15  1  0  0  0  0
 16 20  1  0  0  0  0
 17 16  1  0  0  0  0
 18 19  2  0  0  0  0
 18 17  1  0  0  0  0
 20 30  1  0  0  0  0
 21 20  2  0  0  0  0
 22 18  1  0  0  0  0
 25 17  1  0  0  0  0
 26 17  1  0  0  0  0
 27 22  1  0  0  0  0
 28 35  1  0  0  0  0
 28 36  1  0  0  0  0
 29 37  1  6  0  0  0
 29 28  1  0  0  0  0
 29 31  1  0  0  0  0
 30 38  1  0  0  0  0
 30 29  1  0  0  0  0
 31 33  2  0  0  0  0
 31 32  1  0  0  0  0
 34 28  1  0  0  0  0
M  END
$$$$
