DDG.pdb
 OpenBabel07022418133D

 35 34  0  0  1  0  0  0  0  0999 V2000
    3.0630   -3.5240    1.5310 N   0  0  0  0  0  0  0  0  0  0  0  0
    1.7170   -2.9870    1.5960 C   0  0  1  0  0  0  0  0  0  0  0  0
    1.4110   -2.4510    2.9810 C   0  0  0  0  0  0  0  0  0  0  0  0
    1.5300   -3.5310    3.9910 C   0  0  0  0  0  0  0  0  0  0  0  0
    1.8460   -4.6730    3.6120 O   0  0  0  0  0  0  0  0  0  0  0  0
    1.4870   -1.9630    0.5500 C   0  0  0  0  0  0  0  0  0  0  0  0
    2.4660   -1.6770   -0.2200 O   0  0  0  0  0  0  0  0  0  0  0  0
    1.3040   -3.3190    5.3360 O   0  0  0  0  0  0  0  0  0  0  0  0
    3.5900   -3.0580    2.3300 H   0  0  0  0  0  0  0  0  0  0  0  0
    3.5180   -3.1300    0.6690 H   0  0  0  0  0  0  0  0  0  0  0  0
    1.0210   -3.8230    1.4010 H   0  0  0  0  0  0  0  0  0  0  0  0
    0.4680   -1.9050    3.0380 H   0  0  0  0  0  0  0  0  0  0  0  0
    2.2200   -1.7110    3.2600 H   0  0  0  0  0  0  0  0  0  0  0  0
    1.5780   -4.0150    6.0240 H   0  0  0  0  0  0  0  0  0  0  0  0
    0.2820   -1.2890    0.3430 N   0  0  0  0  0  0  0  0  0  0  0  0
    0.1850   -0.2600   -0.7660 C   0  0  1  0  0  0  0  0  0  0  0  0
   -0.8130   -0.7960   -1.7350 C   0  0  0  0  0  0  0  0  0  0  0  0
   -1.0560   -0.0040   -2.9320 C   0  0  0  0  0  0  0  0  0  0  0  0
   -0.4640    1.0260   -3.3210 O   0  0  0  0  0  0  0  0  0  0  0  0
   -0.1470    1.0050   -0.1100 C   0  0  0  0  0  0  0  0  0  0  0  0
   -0.6320    0.9130    1.0870 O   0  0  0  0  0  0  0  0  0  0  0  0
   -2.0990   -0.3870   -3.8400 O   0  0  0  0  0  0  0  0  0  0  0  0
   -0.5440   -1.4780    0.9320 H   0  0  0  0  0  0  0  0  0  0  0  0
    1.1660   -0.2100   -1.2240 H   0  0  0  0  0  0  0  0  0  0  0  0
   -0.4010   -1.7940   -2.0940 H   0  0  0  0  0  0  0  0  0  0  0  0
   -1.7740   -1.0910   -1.2340 H   0  0  0  0  0  0  0  0  0  0  0  0
   -2.0020   -0.1830   -4.8190 H   0  0  0  0  0  0  0  0  0  0  0  0
   -0.0190    2.3170   -0.5710 N   0  0  0  0  0  0  0  0  0  0  0  0
   -0.4230    3.4700    0.2320 C   0  0  0  0  0  0  0  0  0  0  0  0
   -1.8760    3.3640    0.5380 C   0  0  0  0  0  0  0  0  0  0  0  0
   -2.4560    4.2400    1.2120 O   0  0  0  0  0  0  0  0  0  0  0  0
   -2.6440    2.2880    0.0880 O   0  0  0  0  0  0  0  0  0  0  0  0
    0.3910    2.5110   -1.4810 H   0  0  0  0  0  0  0  0  0  0  0  0
    0.1130    3.4390    1.2060 H   0  0  0  0  0  0  0  0  0  0  0  0
   -0.2170    4.4070   -0.2810 H   0  0  0  0  0  0  0  0  0  0  0  0
  1  2  1  0  0  0  0
  1  9  1  0  0  0  0
  2 11  1  6  0  0  0
  2  3  1  0  0  0  0
  3 12  1  0  0  0  0
  3 13  1  0  0  0  0
  3  4  1  0  0  0  0
  4  8  1  0  0  0  0
  5  4  2  0  0  0  0
  6  2  1  0  0  0  0
  7  6  2  0  0  0  0
  8 14  1  0  0  0  0
 10  1  1  0  0  0  0
 15  6  1  0  0  0  0
 15 23  1  0  0  0  0
 16 24  1  6  0  0  0
 16 20  1  0  0  0  0
 16 15  1  0  0  0  0
 17 26  1  0  0  0  0
 17 16  1  0  0  0  0
 18 17  1  0  0  0  0
 19 18  2  0  0  0  0
 20 21  2  0  0  0  0
 22 18  1  0  0  0  0
 25 17  1  0  0  0  0
 27 22  1  0  0  0  0
 28 20  1  0  0  0  0
 28 29  1  0  0  0  0
 29 30  1  0  0  0  0
 29 34  1  0  0  0  0
 30 31  1  0  0  0  0
 32 30  2  0  0  0  0
 33 28  1  0  0  0  0
 35 29  1  0  0  0  0
M  END
$$$$
