DDH.pdb
 OpenBabel07022418133D

 45 45  0  0  1  0  0  0  0  0999 V2000
    2.9830   -1.7970    2.6720 N   0  0  0  0  0  0  0  0  0  0  0  0
    2.6010   -0.6700    3.5140 C   0  0  1  0  0  0  0  0  0  0  0  0
    3.8360   -0.0880    4.1550 C   0  0  0  0  0  0  0  0  0  0  0  0
    3.5360    1.0520    5.0220 C   0  0  0  0  0  0  0  0  0  0  0  0
    3.5970    2.2160    4.5620 O   0  0  0  0  0  0  0  0  0  0  0  0
    1.9670    0.3800    2.6810 C   0  0  0  0  0  0  0  0  0  0  0  0
    1.5300    1.4270    3.2190 O   0  0  0  0  0  0  0  0  0  0  0  0
    3.1770    0.9360    6.3590 O   0  0  0  0  0  0  0  0  0  0  0  0
    3.5010   -2.4610    3.2980 H   0  0  0  0  0  0  0  0  0  0  0  0
    2.1420   -2.1980    2.2360 H   0  0  0  0  0  0  0  0  0  0  0  0
    1.8680   -1.0320    4.2830 H   0  0  0  0  0  0  0  0  0  0  0  0
    4.4850    0.2590    3.3180 H   0  0  0  0  0  0  0  0  0  0  0  0
    4.3200   -0.9240    4.7150 H   0  0  0  0  0  0  0  0  0  0  0  0
    2.4280    1.5240    6.7190 H   0  0  0  0  0  0  0  0  0  0  0  0
    1.8290    0.2530    1.2890 N   0  0  0  0  0  0  0  0  0  0  0  0
    1.1840    1.3440    0.5190 C   0  0  1  0  0  0  0  0  0  0  0  0
    2.1420    1.8020   -0.5210 C   0  0  0  0  0  0  0  0  0  0  0  0
    1.6620    2.9090   -1.3570 C   0  0  0  0  0  0  0  0  0  0  0  0
    0.5950    3.4950   -1.1850 O   0  0  0  0  0  0  0  0  0  0  0  0
   -0.1090    0.8140   -0.0240 C   0  0  0  0  0  0  0  0  0  0  0  0
   -0.9050    1.4950   -0.7040 O   0  0  0  0  0  0  0  0  0  0  0  0
    2.4660    3.3230   -2.4130 O   0  0  0  0  0  0  0  0  0  0  0  0
    2.1640   -0.5810    0.7840 H   0  0  0  0  0  0  0  0  0  0  0  0
    0.9610    2.1410    1.2180 H   0  0  0  0  0  0  0  0  0  0  0  0
    2.5740    0.9690   -1.1230 H   0  0  0  0  0  0  0  0  0  0  0  0
    3.0440    2.2150    0.0270 H   0  0  0  0  0  0  0  0  0  0  0  0
    2.0710    3.8360   -3.2180 H   0  0  0  0  0  0  0  0  0  0  0  0
   -0.5010   -0.5370    0.2200 N   0  0  0  0  0  0  0  0  0  0  0  0
   -1.7560   -1.0940   -0.2920 C   0  0  1  0  0  0  0  0  0  0  0  0
   -1.5260   -2.3680   -1.0230 C   0  0  0  0  0  0  0  0  0  0  0  0
   -2.7290   -2.9540   -1.6440 C   0  0  0  0  0  0  0  0  0  0  0  0
   -4.0090   -2.5270   -1.8020 C   0  0  0  0  0  0  0  0  0  0  0  0
   -4.7190   -3.4420   -2.5140 N   0  0  0  0  0  0  0  0  0  0  0  0
   -3.8690   -4.4390   -2.7970 C   0  0  0  0  0  0  0  0  0  0  0  0
   -2.6670   -4.1670   -2.2850 N   0  0  0  0  0  0  0  0  0  0  0  0
   -2.5260   -1.4670    0.9560 C   0  0  0  0  0  0  0  0  0  0  0  0
   -1.9830   -1.1960    2.0560 O   0  0  0  0  0  0  0  0  0  0  0  0
   -3.7430   -2.0670    0.9860 O   0  0  0  0  0  0  0  0  0  0  0  0
    0.1480   -1.1160    0.7820 H   0  0  0  0  0  0  0  0  0  0  0  0
   -2.3640   -0.3990   -0.8510 H   0  0  0  0  0  0  0  0  0  0  0  0
   -1.1210   -3.1700   -0.3350 H   0  0  0  0  0  0  0  0  0  0  0  0
   -0.7510   -2.2820   -1.8230 H   0  0  0  0  0  0  0  0  0  0  0  0
   -4.4430   -1.6030   -1.4590 H   0  0  0  0  0  0  0  0  0  0  0  0
   -5.7180   -3.3480   -2.7660 H   0  0  0  0  0  0  0  0  0  0  0  0
   -4.1560   -5.3250   -3.3640 H   0  0  0  0  0  0  0  0  0  0  0  0
  1  9  1  0  0  0  0
  1  2  1  0  0  0  0
  2  3  1  0  0  0  0
  2 11  1  1  0  0  0
  3 13  1  0  0  0  0
  3  4  1  0  0  0  0
  4  8  1  0  0  0  0
  5  4  2  0  0  0  0
  6  7  2  0  0  0  0
  6  2  1  0  0  0  0
  8 14  1  0  0  0  0
 10  1  1  0  0  0  0
 12  3  1  0  0  0  0
 15  6  1  0  0  0  0
 16 24  1  1  0  0  0
 16 15  1  0  0  0  0
 17 26  1  0  0  0  0
 17 16  1  0  0  0  0
 18 19  2  0  0  0  0
 18 17  1  0  0  0  0
 20 28  1  0  0  0  0
 20 16  1  0  0  0  0
 21 20  2  0  0  0  0
 22 18  1  0  0  0  0
 23 15  1  0  0  0  0
 25 17  1  0  0  0  0
 27 22  1  0  0  0  0
 28 39  1  0  0  0  0
 29 40  1  6  0  0  0
 29 28  1  0  0  0  0
 29 36  1  0  0  0  0
 30 41  1  0  0  0  0
 30 29  1  0  0  0  0
 31 30  1  0  0  0  0
 32 31  2  0  0  0  0
 32 43  1  0  0  0  0
 33 32  1  0  0  0  0
 34 33  1  0  0  0  0
 34 35  2  0  0  0  0
 35 31  1  0  0  0  0
 36 38  2  0  0  0  0
 36 37  1  0  0  0  0
 42 30  1  0  0  0  0
 44 33  1  0  0  0  0
 45 34  1  0  0  0  0
M  END
$$$$
