DDI.pdb
 OpenBabel07022418133D

 47 46  0  0  1  0  0  0  0  0999 V2000
    4.4510   -2.1410    0.8650 N   0  0  0  0  0  0  0  0  0  0  0  0
    2.9880   -2.1960    0.9560 C   0  0  1  0  0  0  0  0  0  0  0  0
    2.5850   -1.6640    2.3310 C   0  0  0  0  0  0  0  0  0  0  0  0
    3.2470   -2.5660    3.3280 C   0  0  0  0  0  0  0  0  0  0  0  0
    3.0370   -2.3180    4.5620 O   0  0  0  0  0  0  0  0  0  0  0  0
    2.4240   -1.3990   -0.1340 C   0  0  0  0  0  0  0  0  0  0  0  0
    3.1950   -0.8200   -0.9450 O   0  0  0  0  0  0  0  0  0  0  0  0
    4.0540   -3.6240    2.9710 O   0  0  0  0  0  0  0  0  0  0  0  0
    4.8600   -3.1010    0.8120 H   0  0  0  0  0  0  0  0  0  0  0  0
    4.8920   -1.5920    1.6090 H   0  0  0  0  0  0  0  0  0  0  0  0
    2.7100   -3.2640    0.9420 H   0  0  0  0  0  0  0  0  0  0  0  0
    1.4870   -1.8280    2.4180 H   0  0  0  0  0  0  0  0  0  0  0  0
    2.8620   -0.6080    2.4800 H   0  0  0  0  0  0  0  0  0  0  0  0
    4.3050   -4.3720    3.6140 H   0  0  0  0  0  0  0  0  0  0  0  0
    1.0420   -1.2130   -0.3720 N   0  0  0  0  0  0  0  0  0  0  0  0
    0.5080   -0.4310   -1.4430 C   0  0  1  0  0  0  0  0  0  0  0  0
   -0.2080   -1.2100   -2.5110 C   0  0  0  0  0  0  0  0  0  0  0  0
    0.6990   -2.2060   -3.1540 C   0  0  0  0  0  0  0  0  0  0  0  0
    1.2930   -2.9970   -2.3680 O   0  0  0  0  0  0  0  0  0  0  0  0
   -0.4270    0.6380   -0.9880 C   0  0  0  0  0  0  0  0  0  0  0  0
   -0.9910    1.4050   -1.8060 O   0  0  0  0  0  0  0  0  0  0  0  0
    0.8770   -2.2510   -4.5470 O   0  0  0  0  0  0  0  0  0  0  0  0
    0.3680   -1.6710    0.2750 H   0  0  0  0  0  0  0  0  0  0  0  0
    1.3630    0.0620   -1.9560 H   0  0  0  0  0  0  0  0  0  0  0  0
   -0.4970   -0.4960   -3.3030 H   0  0  0  0  0  0  0  0  0  0  0  0
   -1.1570   -1.6750   -2.1590 H   0  0  0  0  0  0  0  0  0  0  0  0
    1.8150   -2.5470   -4.8640 H   0  0  0  0  0  0  0  0  0  0  0  0
   -3.6030   -0.4850    3.1770 C   0  0  0  0  0  0  0  0  0  0  0  0
   -2.4460    0.2640    2.5650 C   0  0  0  0  0  0  0  0  0  0  0  0
   -2.8750    1.1440    1.4390 C   0  0  2  0  0  0  0  0  0  0  0  0
   -3.5150    0.3430    0.3330 C   0  0  0  0  0  0  0  0  0  0  0  0
   -1.6220    1.8370    0.8710 C   0  0  2  0  0  0  0  0  0  0  0  0
   -0.7150    0.8240    0.4080 N   0  0  0  0  0  0  0  0  0  0  0  0
   -1.0640    2.7650    1.8650 C   0  0  0  0  0  0  0  0  0  0  0  0
    0.1210    2.6500    2.2440 O   0  0  0  0  0  0  0  0  0  0  0  0
   -1.8510    3.7860    2.3980 O   0  0  0  0  0  0  0  0  0  0  0  0
   -3.4640   -0.4920    4.2810 H   0  0  0  0  0  0  0  0  0  0  0  0
   -4.5740    0.0490    3.0000 H   0  0  0  0  0  0  0  0  0  0  0  0
   -3.6550   -1.5050    2.7700 H   0  0  0  0  0  0  0  0  0  0  0  0
   -1.7490   -0.4940    2.1420 H   0  0  0  0  0  0  0  0  0  0  0  0
   -1.9000    0.8150    3.3430 H   0  0  0  0  0  0  0  0  0  0  0  0
   -3.5390    1.9730    1.7720 H   0  0  0  0  0  0  0  0  0  0  0  0
   -4.0030    1.0450   -0.3850 H   0  0  0  0  0  0  0  0  0  0  0  0
   -4.2820   -0.3400    0.7230 H   0  0  0  0  0  0  0  0  0  0  0  0
   -2.7060   -0.2430   -0.1870 H   0  0  0  0  0  0  0  0  0  0  0  0
   -1.9660    2.4160   -0.0080 H   0  0  0  0  0  0  0  0  0  0  0  0
   -0.1950    0.1570    1.0440 H   0  0  0  0  0  0  0  0  0  0  0  0
  1  2  1  0  0  0  0
  1 10  1  0  0  0  0
  2 11  1  6  0  0  0
  2  3  1  0  0  0  0
  3 12  1  0  0  0  0
  3 13  1  0  0  0  0
  3  4  1  0  0  0  0
  4  5  2  0  0  0  0
  6  2  1  0  0  0  0
  7  6  2  0  0  0  0
  8  4  1  0  0  0  0
  8 14  1  0  0  0  0
  9  1  1  0  0  0  0
 15  6  1  0  0  0  0
 15 23  1  0  0  0  0
 16 24  1  6  0  0  0
 16 20  1  0  0  0  0
 16 15  1  0  0  0  0
 17 26  1  0  0  0  0
 17 16  1  0  0  0  0
 18 17  1  0  0  0  0
 18 19  2  0  0  0  0
 20 33  1  0  0  0  0
 21 20  2  0  0  0  0
 22 18  1  0  0  0  0
 25 17  1  0  0  0  0
 27 22  1  0  0  0  0
 28 37  1  0  0  0  0
 29 28  1  0  0  0  0
 29 41  1  0  0  0  0
 30 42  1  1  0  0  0
 30 29  1  0  0  0  0
 31 44  1  0  0  0  0
 31 30  1  0  0  0  0
 32 46  1  6  0  0  0
 32 30  1  0  0  0  0
 32 34  1  0  0  0  0
 33 32  1  0  0  0  0
 33 47  1  0  0  0  0
 34 35  2  0  0  0  0
 34 36  1  0  0  0  0
 38 28  1  0  0  0  0
 39 28  1  0  0  0  0
 40 29  1  0  0  0  0
 43 31  1  0  0  0  0
 45 31  1  0  0  0  0
M  END
$$$$
