DDK.pdb
 OpenBabel07022418133D

 49 48  0  0  1  0  0  0  0  0999 V2000
    4.4120   -1.0730    2.8490 N   0  0  0  0  0  0  0  0  0  0  0  0
    3.5350   -0.1100    3.5350 C   0  0  1  0  0  0  0  0  0  0  0  0
    4.2990    1.1960    3.7930 C   0  0  0  0  0  0  0  0  0  0  0  0
    4.7350    1.7620    2.4910 C   0  0  0  0  0  0  0  0  0  0  0  0
    4.4420    1.1740    1.4420 O   0  0  0  0  0  0  0  0  0  0  0  0
    2.3760    0.2300    2.6730 C   0  0  0  0  0  0  0  0  0  0  0  0
    1.5090    1.0560    3.0570 O   0  0  0  0  0  0  0  0  0  0  0  0
    5.4620    2.9330    2.4440 O   0  0  0  0  0  0  0  0  0  0  0  0
    5.2880   -1.1100    3.4450 H   0  0  0  0  0  0  0  0  0  0  0  0
    3.9460   -2.0150    3.0120 H   0  0  0  0  0  0  0  0  0  0  0  0
    3.2950   -0.5340    4.5090 H   0  0  0  0  0  0  0  0  0  0  0  0
    3.5250    1.8670    4.2460 H   0  0  0  0  0  0  0  0  0  0  0  0
    5.1440    1.0370    4.4570 H   0  0  0  0  0  0  0  0  0  0  0  0
    5.4410    3.4660    1.5700 H   0  0  0  0  0  0  0  0  0  0  0  0
    2.1800   -0.3470    1.3840 N   0  0  0  0  0  0  0  0  0  0  0  0
    1.0340   -0.0000    0.5310 C   0  0  1  0  0  0  0  0  0  0  0  0
    1.5270    0.5740   -0.7840 C   0  0  0  0  0  0  0  0  0  0  0  0
    2.3470   -0.3470   -1.5580 C   0  0  0  0  0  0  0  0  0  0  0  0
    1.9400   -1.5170   -1.7700 O   0  0  0  0  0  0  0  0  0  0  0  0
    0.2600   -1.2430    0.3380 C   0  0  0  0  0  0  0  0  0  0  0  0
    0.6360   -2.2950    0.8960 O   0  0  0  0  0  0  0  0  0  0  0  0
    3.5670    0.0400   -2.0670 O   0  0  0  0  0  0  0  0  0  0  0  0
    2.8800   -1.0440    1.0240 H   0  0  0  0  0  0  0  0  0  0  0  0
    0.3940    0.7220    1.0630 H   0  0  0  0  0  0  0  0  0  0  0  0
    2.1050    1.4890   -0.5550 H   0  0  0  0  0  0  0  0  0  0  0  0
    0.6000    0.9280   -1.3110 H   0  0  0  0  0  0  0  0  0  0  0  0
    4.1190   -0.5540   -2.6820 H   0  0  0  0  0  0  0  0  0  0  0  0
   -0.9250   -1.3270   -0.4710 N   0  0  0  0  0  0  0  0  0  0  0  0
   -1.6420   -2.5600   -0.6330 C   0  0  1  0  0  0  0  0  0  0  0  0
   -2.8070   -2.8130    0.2280 C   0  0  0  0  0  0  0  0  0  0  0  0
   -3.9860   -1.9550    0.2500 C   0  0  0  0  0  0  0  0  0  0  0  0
   -3.7620   -0.5750    0.7250 C   0  0  0  0  0  0  0  0  0  0  0  0
   -5.0720    0.2330    0.7340 C   0  0  0  0  0  0  0  0  0  0  0  0
   -5.5440    0.2360   -0.6340 N   0  0  0  0  0  0  0  0  0  0  0  0
   -1.9040   -2.8380   -2.0830 C   0  0  0  0  0  0  0  0  0  0  0  0
   -2.5280   -3.8750   -2.4030 O   0  0  0  0  0  0  0  0  0  0  0  0
   -1.4880   -2.0000   -3.1050 O   0  0  0  0  0  0  0  0  0  0  0  0
   -1.1810   -0.4410   -0.9500 H   0  0  0  0  0  0  0  0  0  0  0  0
   -0.9150   -3.4330   -0.3470 H   0  0  0  0  0  0  0  0  0  0  0  0
   -3.1890   -3.8820    0.0870 H   0  0  0  0  0  0  0  0  0  0  0  0
   -2.4310   -2.8760    1.3120 H   0  0  0  0  0  0  0  0  0  0  0  0
   -4.7390   -2.4330    0.9680 H   0  0  0  0  0  0  0  0  0  0  0  0
   -4.5750   -1.9640   -0.7150 H   0  0  0  0  0  0  0  0  0  0  0  0
   -3.0190   -0.0500    0.1360 H   0  0  0  0  0  0  0  0  0  0  0  0
   -3.3580   -0.6270    1.7820 H   0  0  0  0  0  0  0  0  0  0  0  0
   -4.8370    1.2440    1.0850 H   0  0  0  0  0  0  0  0  0  0  0  0
   -5.8250   -0.2740    1.3580 H   0  0  0  0  0  0  0  0  0  0  0  0
   -6.1390   -0.6120   -0.8160 H   0  0  0  0  0  0  0  0  0  0  0  0
   -4.7170    0.1640   -1.2750 H   0  0  0  0  0  0  0  0  0  0  0  0
  1 10  1  0  0  0  0
  1  9  1  0  0  0  0
  1  2  1  0  0  0  0
  2  3  1  0  0  0  0
  2 11  1  1  0  0  0
  3 12  1  0  0  0  0
  3 13  1  0  0  0  0
  4  3  1  0  0  0  0
  5  4  2  0  0  0  0
  6  7  2  0  0  0  0
  6  2  1  0  0  0  0
  8  4  1  0  0  0  0
 14  8  1  0  0  0  0
 15  6  1  0  0  0  0
 16 24  1  1  0  0  0
 16 15  1  0  0  0  0
 17 25  1  0  0  0  0
 17 16  1  0  0  0  0
 18 17  1  0  0  0  0
 19 18  2  0  0  0  0
 20 16  1  0  0  0  0
 20 21  2  0  0  0  0
 22 18  1  0  0  0  0
 23 15  1  0  0  0  0
 26 17  1  0  0  0  0
 27 22  1  0  0  0  0
 28 20  1  0  0  0  0
 29 28  1  0  0  0  0
 29 39  1  1  0  0  0
 29 30  1  0  0  0  0
 30 31  1  0  0  0  0
 30 41  1  0  0  0  0
 31 32  1  0  0  0  0
 31 42  1  0  0  0  0
 32 33  1  0  0  0  0
 32 45  1  0  0  0  0
 33 46  1  0  0  0  0
 33 47  1  0  0  0  0
 34 33  1  0  0  0  0
 35 29  1  0  0  0  0
 36 35  1  0  0  0  0
 37 35  2  0  0  0  0
 38 28  1  0  0  0  0
 40 30  1  0  0  0  0
 43 31  1  0  0  0  0
 44 32  1  0  0  0  0
 48 34  1  0  0  0  0
 49 34  1  0  0  0  0
M  END
$$$$
