DDL.pdb
 OpenBabel07022418133D

 47 46  0  0  1  0  0  0  0  0999 V2000
    1.9520   -3.5620   -0.4480 N   0  0  0  0  0  0  0  0  0  0  0  0
    2.2690   -3.1800    0.9050 C   0  0  1  0  0  0  0  0  0  0  0  0
    3.6730   -3.5470    1.3160 C   0  0  0  0  0  0  0  0  0  0  0  0
    4.7210   -2.8910    0.4650 C   0  0  0  0  0  0  0  0  0  0  0  0
    4.7550   -1.6510    0.2690 O   0  0  0  0  0  0  0  0  0  0  0  0
    2.0700   -1.7450    1.1500 C   0  0  0  0  0  0  0  0  0  0  0  0
    2.3780   -1.2030    2.2430 O   0  0  0  0  0  0  0  0  0  0  0  0
    5.6860   -3.6880   -0.1270 O   0  0  0  0  0  0  0  0  0  0  0  0
    0.9760   -3.9690   -0.5210 H   0  0  0  0  0  0  0  0  0  0  0  0
    2.6020   -4.3040   -0.7910 H   0  0  0  0  0  0  0  0  0  0  0  0
    1.6080   -3.8170    1.5600 H   0  0  0  0  0  0  0  0  0  0  0  0
    3.7960   -3.0850    2.3460 H   0  0  0  0  0  0  0  0  0  0  0  0
    3.8290   -4.6430    1.3870 H   0  0  0  0  0  0  0  0  0  0  0  0
    6.6570   -3.3910   -0.2140 H   0  0  0  0  0  0  0  0  0  0  0  0
    1.5090   -0.8560    0.1630 N   0  0  0  0  0  0  0  0  0  0  0  0
    1.3110    0.5520    0.3910 C   0  0  1  0  0  0  0  0  0  0  0  0
    1.9370    1.4310   -0.6450 C   0  0  0  0  0  0  0  0  0  0  0  0
    1.4140    1.1980   -2.0140 C   0  0  0  0  0  0  0  0  0  0  0  0
    0.5140    0.3440   -2.2070 O   0  0  0  0  0  0  0  0  0  0  0  0
   -0.1750    0.7720    0.4800 C   0  0  0  0  0  0  0  0  0  0  0  0
   -0.5920    1.9550    0.6330 O   0  0  0  0  0  0  0  0  0  0  0  0
    1.8950    1.9080   -3.1040 O   0  0  0  0  0  0  0  0  0  0  0  0
    1.2480   -1.2940   -0.7450 H   0  0  0  0  0  0  0  0  0  0  0  0
    1.6940    0.8740    1.3880 H   0  0  0  0  0  0  0  0  0  0  0  0
    1.9280    2.5010   -0.3700 H   0  0  0  0  0  0  0  0  0  0  0  0
    3.0380    1.1640   -0.7180 H   0  0  0  0  0  0  0  0  0  0  0  0
    1.3160    1.9520   -3.9530 H   0  0  0  0  0  0  0  0  0  0  0  0
   -3.1890    2.1140    3.3890 C   0  0  0  0  0  0  0  0  0  0  0  0
   -2.6300    0.9040    2.6520 C   0  0  0  0  0  0  0  0  0  0  0  0
   -3.2000   -0.3100    3.3990 C   0  0  0  0  0  0  0  0  0  0  0  0
   -3.0800    0.9290    1.2320 C   0  0  0  0  0  0  0  0  0  0  0  0
   -2.5000   -0.2790    0.4840 C   0  0  2  0  0  0  0  0  0  0  0  0
   -1.0780   -0.3030    0.3970 N   0  0  0  0  0  0  0  0  0  0  0  0
   -3.2400   -0.6470   -0.7090 C   0  0  0  0  0  0  0  0  0  0  0  0
   -2.6910   -0.9740   -1.8060 O   0  0  0  0  0  0  0  0  0  0  0  0
   -4.6520   -0.6640   -0.7320 O   0  0  0  0  0  0  0  0  0  0  0  0
   -2.5330    2.3050    4.2730 H   0  0  0  0  0  0  0  0  0  0  0  0
   -4.1790    1.8740    3.8150 H   0  0  0  0  0  0  0  0  0  0  0  0
   -3.2190    3.0220    2.7240 H   0  0  0  0  0  0  0  0  0  0  0  0
   -1.5460    0.8950    2.7420 H   0  0  0  0  0  0  0  0  0  0  0  0
   -3.2630   -0.0820    4.5060 H   0  0  0  0  0  0  0  0  0  0  0  0
   -4.2240   -0.5540    3.0800 H   0  0  0  0  0  0  0  0  0  0  0  0
   -2.4770   -1.1490    3.3330 H   0  0  0  0  0  0  0  0  0  0  0  0
   -2.8640    1.8840    0.7670 H   0  0  0  0  0  0  0  0  0  0  0  0
   -4.1970    0.7690    1.1560 H   0  0  0  0  0  0  0  0  0  0  0  0
   -2.7340   -1.1010    1.2810 H   0  0  0  0  0  0  0  0  0  0  0  0
   -0.6220   -1.2670    0.2490 H   0  0  0  0  0  0  0  0  0  0  0  0
  1  2  1  0  0  0  0
  2  6  1  0  0  0  0
  2  3  1  0  0  0  0
  2 11  1  1  0  0  0
  3 13  1  0  0  0  0
  3 12  1  0  0  0  0
  4  3  1  0  0  0  0
  5  4  2  0  0  0  0
  6  7  2  0  0  0  0
  8  4  1  0  0  0  0
  9  1  1  0  0  0  0
 10  1  1  0  0  0  0
 14  8  1  0  0  0  0
 15 16  1  0  0  0  0
 15  6  1  0  0  0  0
 16 20  1  0  0  0  0
 16 24  1  1  0  0  0
 17 25  1  0  0  0  0
 17 16  1  0  0  0  0
 18 17  1  0  0  0  0
 19 18  2  0  0  0  0
 20 21  2  0  0  0  0
 22 18  1  0  0  0  0
 23 15  1  0  0  0  0
 26 17  1  0  0  0  0
 27 22  1  0  0  0  0
 28 38  1  0  0  0  0
 28 37  1  0  0  0  0
 29 40  1  0  0  0  0
 29 28  1  0  0  0  0
 29 30  1  0  0  0  0
 30 41  1  0  0  0  0
 31 29  1  0  0  0  0
 32 31  1  0  0  0  0
 32 46  1  1  0  0  0
 33 20  1  0  0  0  0
 33 32  1  0  0  0  0
 34 32  1  0  0  0  0
 35 34  2  0  0  0  0
 36 34  1  0  0  0  0
 39 28  1  0  0  0  0
 42 30  1  0  0  0  0
 43 30  1  0  0  0  0
 44 31  1  0  0  0  0
 45 31  1  0  0  0  0
 47 33  1  0  0  0  0
M  END
$$$$
