DDN.pdb
 OpenBabel07022418133D

 42 41  0  0  1  0  0  0  0  0999 V2000
   -1.1180   -2.3010   -0.6790 N   0  0  0  0  0  0  0  0  0  0  0  0
   -0.0550   -3.1310   -0.1980 C   0  0  1  0  0  0  0  0  0  0  0  0
    0.2920   -4.1940   -1.1990 C   0  0  0  0  0  0  0  0  0  0  0  0
   -0.8800   -5.0500   -1.4650 C   0  0  0  0  0  0  0  0  0  0  0  0
   -0.7960   -6.0350   -2.2470 O   0  0  0  0  0  0  0  0  0  0  0  0
    1.1610   -2.3130    0.0610 C   0  0  0  0  0  0  0  0  0  0  0  0
    2.2220   -2.8580    0.4780 O   0  0  0  0  0  0  0  0  0  0  0  0
   -2.0830   -4.7510   -0.8360 O   0  0  0  0  0  0  0  0  0  0  0  0
   -1.5490   -1.6990    0.0480 H   0  0  0  0  0  0  0  0  0  0  0  0
   -0.9000   -1.7240   -1.5000 H   0  0  0  0  0  0  0  0  0  0  0  0
   -0.4190   -3.6510    0.7140 H   0  0  0  0  0  0  0  0  0  0  0  0
    1.1290   -4.7930   -0.7730 H   0  0  0  0  0  0  0  0  0  0  0  0
    0.6810   -3.7420   -2.1500 H   0  0  0  0  0  0  0  0  0  0  0  0
   -2.9280   -5.0900   -1.2780 H   0  0  0  0  0  0  0  0  0  0  0  0
    1.2000   -0.9150   -0.1400 N   0  0  0  0  0  0  0  0  0  0  0  0
    2.3610   -0.0790    0.0940 C   0  0  1  0  0  0  0  0  0  0  0  0
    2.5810    0.7540   -1.1280 C   0  0  0  0  0  0  0  0  0  0  0  0
    2.8180   -0.0860   -2.3250 C   0  0  0  0  0  0  0  0  0  0  0  0
    3.0380    0.4110   -3.4550 O   0  0  0  0  0  0  0  0  0  0  0  0
    2.0200    0.8090    1.2630 C   0  0  0  0  0  0  0  0  0  0  0  0
    2.8490    1.6660    1.7050 O   0  0  0  0  0  0  0  0  0  0  0  0
    2.8000   -1.4640   -2.2140 O   0  0  0  0  0  0  0  0  0  0  0  0
    0.3370   -0.4380   -0.4820 H   0  0  0  0  0  0  0  0  0  0  0  0
    3.2470   -0.6800    0.3850 H   0  0  0  0  0  0  0  0  0  0  0  0
    1.7330    1.4420   -1.3060 H   0  0  0  0  0  0  0  0  0  0  0  0
    3.5270    1.3590   -1.0000 H   0  0  0  0  0  0  0  0  0  0  0  0
    3.0890   -2.0950   -2.9460 H   0  0  0  0  0  0  0  0  0  0  0  0
   -2.3120    2.9600    4.5860 N   0  0  0  0  0  0  0  0  0  0  0  0
   -1.1980    3.3030    3.7830 C   0  0  0  0  0  0  0  0  0  0  0  0
   -0.5320    4.3640    3.9870 O   0  0  0  0  0  0  0  0  0  0  0  0
   -0.7920    2.4080    2.6780 C   0  0  0  0  0  0  0  0  0  0  0  0
    0.4370    1.5910    3.0520 C   0  0  2  0  0  0  0  0  0  0  0  0
    0.7780    0.7370    1.9180 N   0  0  0  0  0  0  0  0  0  0  0  0
    0.1120    0.7470    4.2260 C   0  0  0  0  0  0  0  0  0  0  0  0
   -0.2120    1.3170    5.3010 O   0  0  0  0  0  0  0  0  0  0  0  0
    0.1380   -0.6390    4.2230 O   0  0  0  0  0  0  0  0  0  0  0  0
   -3.1550    2.4570    4.2450 H   0  0  0  0  0  0  0  0  0  0  0  0
   -2.3150    3.2220    5.6130 H   0  0  0  0  0  0  0  0  0  0  0  0
   -1.6380    1.7380    2.4480 H   0  0  0  0  0  0  0  0  0  0  0  0
   -0.6000    2.9800    1.7320 H   0  0  0  0  0  0  0  0  0  0  0  0
    1.2780    2.2620    3.2810 H   0  0  0  0  0  0  0  0  0  0  0  0
    0.0840    0.0400    1.5710 H   0  0  0  0  0  0  0  0  0  0  0  0
  1  2  1  0  0  0  0
  1  9  1  0  0  0  0
  2  6  1  0  0  0  0
  2 11  1  1  0  0  0
  3 12  1  0  0  0  0
  3  2  1  0  0  0  0
  4  3  1  0  0  0  0
  4  8  1  0  0  0  0
  5  4  2  0  0  0  0
  6  7  2  0  0  0  0
 10  1  1  0  0  0  0
 13  3  1  0  0  0  0
 14  8  1  0  0  0  0
 15  6  1  0  0  0  0
 15 16  1  0  0  0  0
 16 24  1  1  0  0  0
 16 20  1  0  0  0  0
 17 26  1  0  0  0  0
 17 16  1  0  0  0  0
 18 22  1  0  0  0  0
 18 17  1  0  0  0  0
 19 18  2  0  0  0  0
 20 21  2  0  0  0  0
 20 33  1  0  0  0  0
 23 15  1  0  0  0  0
 25 17  1  0  0  0  0
 27 22  1  0  0  0  0
 28 38  1  0  0  0  0
 29 30  2  0  0  0  0
 29 28  1  0  0  0  0
 31 32  1  0  0  0  0
 31 29  1  0  0  0  0
 32 41  1  1  0  0  0
 32 34  1  0  0  0  0
 33 32  1  0  0  0  0
 34 35  1  0  0  0  0
 36 34  2  0  0  0  0
 37 28  1  0  0  0  0
 39 31  1  0  0  0  0
 40 31  1  0  0  0  0
 42 33  1  0  0  0  0
M  END
$$$$
