DDV.pdb
 OpenBabel07022418133D

 44 43  0  0  1  0  0  0  0  0999 V2000
    2.1240   -2.9360    1.7770 N   0  0  0  0  0  0  0  0  0  0  0  0
    3.0110   -1.7900    1.9750 C   0  0  1  0  0  0  0  0  0  0  0  0
    4.4290   -2.1830    1.6640 C   0  0  0  0  0  0  0  0  0  0  0  0
    5.3190   -1.0410    1.8670 C   0  0  0  0  0  0  0  0  0  0  0  0
    5.6370   -0.1970    1.0000 O   0  0  0  0  0  0  0  0  0  0  0  0
    2.5630   -0.6420    1.1440 C   0  0  0  0  0  0  0  0  0  0  0  0
    3.1360    0.4720    1.1350 O   0  0  0  0  0  0  0  0  0  0  0  0
    5.8660   -0.8780    3.1550 O   0  0  0  0  0  0  0  0  0  0  0  0
    2.6820   -3.7920    1.9520 H   0  0  0  0  0  0  0  0  0  0  0  0
    1.3360   -2.8410    2.4400 H   0  0  0  0  0  0  0  0  0  0  0  0
    2.9680   -1.5570    3.0690 H   0  0  0  0  0  0  0  0  0  0  0  0
    4.5170   -2.5970    0.6240 H   0  0  0  0  0  0  0  0  0  0  0  0
    4.7420   -3.0160    2.3370 H   0  0  0  0  0  0  0  0  0  0  0  0
    6.1470    0.0230    3.4960 H   0  0  0  0  0  0  0  0  0  0  0  0
    1.4040   -0.7990    0.2930 N   0  0  0  0  0  0  0  0  0  0  0  0
    0.9280    0.2920   -0.5380 C   0  0  1  0  0  0  0  0  0  0  0  0
    0.9880   -0.1290   -1.9700 C   0  0  0  0  0  0  0  0  0  0  0  0
    0.5260    0.9020   -2.9270 C   0  0  0  0  0  0  0  0  0  0  0  0
   -0.6990    1.0130   -3.1550 O   0  0  0  0  0  0  0  0  0  0  0  0
   -0.4120    0.7600   -0.1000 C   0  0  0  0  0  0  0  0  0  0  0  0
   -1.0290    1.7010   -0.6540 O   0  0  0  0  0  0  0  0  0  0  0  0
    1.4060    1.7480   -3.5770 O   0  0  0  0  0  0  0  0  0  0  0  0
    0.9460   -1.7360    0.3200 H   0  0  0  0  0  0  0  0  0  0  0  0
    1.6280    1.1460   -0.3930 H   0  0  0  0  0  0  0  0  0  0  0  0
    2.0350   -0.3760   -2.2780 H   0  0  0  0  0  0  0  0  0  0  0  0
    0.3480   -1.0260   -2.1540 H   0  0  0  0  0  0  0  0  0  0  0  0
    1.1180    2.2680   -4.4120 H   0  0  0  0  0  0  0  0  0  0  0  0
   -3.1710   -1.7950    1.9190 C   0  0  0  0  0  0  0  0  0  0  0  0
   -3.4370   -0.4940    1.2470 C   0  0  0  0  0  0  0  0  0  0  0  0
   -3.6780   -0.6110   -0.2410 C   0  0  0  0  0  0  0  0  0  0  0  0
   -2.3640    0.5490    1.4720 C   0  0  2  0  0  0  0  0  0  0  0  0
   -1.0790    0.1440    1.0040 N   0  0  0  0  0  0  0  0  0  0  0  0
   -2.3720    1.0930    2.8360 C   0  0  0  0  0  0  0  0  0  0  0  0
   -1.3200    1.1720    3.4860 O   0  0  0  0  0  0  0  0  0  0  0  0
   -3.5550    1.5150    3.3870 O   0  0  0  0  0  0  0  0  0  0  0  0
   -2.1500   -1.9140    2.3170 H   0  0  0  0  0  0  0  0  0  0  0  0
   -3.8720   -2.0280    2.7430 H   0  0  0  0  0  0  0  0  0  0  0  0
   -3.2870   -2.6060    1.1430 H   0  0  0  0  0  0  0  0  0  0  0  0
   -4.4110   -0.1130    1.6780 H   0  0  0  0  0  0  0  0  0  0  0  0
   -4.4220    0.1520   -0.5560 H   0  0  0  0  0  0  0  0  0  0  0  0
   -2.7080   -0.4810   -0.7770 H   0  0  0  0  0  0  0  0  0  0  0  0
   -4.1550   -1.5960   -0.5070 H   0  0  0  0  0  0  0  0  0  0  0  0
   -2.6800    1.4120    0.8050 H   0  0  0  0  0  0  0  0  0  0  0  0
   -0.5380   -0.6520    1.4590 H   0  0  0  0  0  0  0  0  0  0  0  0
  1  9  1  0  0  0  0
  1  2  1  0  0  0  0
  1 10  1  0  0  0  0
  2 11  1  1  0  0  0
  3  4  1  0  0  0  0
  3  2  1  0  0  0  0
  3 13  1  0  0  0  0
  4  8  1  0  0  0  0
  5  4  2  0  0  0  0
  6  2  1  0  0  0  0
  7  6  2  0  0  0  0
  8 14  1  0  0  0  0
 12  3  1  0  0  0  0
 15 23  1  0  0  0  0
 15  6  1  0  0  0  0
 16 24  1  1  0  0  0
 16 20  1  0  0  0  0
 16 15  1  0  0  0  0
 17 16  1  0  0  0  0
 18 17  1  0  0  0  0
 19 18  2  0  0  0  0
 20 32  1  0  0  0  0
 21 20  2  0  0  0  0
 22 18  1  0  0  0  0
 25 17  1  0  0  0  0
 26 17  1  0  0  0  0
 27 22  1  0  0  0  0
 28 36  1  0  0  0  0
 28 37  1  0  0  0  0
 29 31  1  0  0  0  0
 29 39  1  0  0  0  0
 29 28  1  0  0  0  0
 30 29  1  0  0  0  0
 31 43  1  6  0  0  0
 31 33  1  0  0  0  0
 32 44  1  0  0  0  0
 32 31  1  0  0  0  0
 33 35  2  0  0  0  0
 33 34  1  0  0  0  0
 38 28  1  0  0  0  0
 40 30  1  0  0  0  0
 41 30  1  0  0  0  0
 42 30  1  0  0  0  0
M  END
$$$$
