DDY.pdb
 OpenBabel07022418133D

 49 49  0  0  1  0  0  0  0  0999 V2000
    2.8660   -0.5110   -2.0460 N   0  0  0  0  0  0  0  0  0  0  0  0
    3.2510   -0.7010   -0.6820 C   0  0  1  0  0  0  0  0  0  0  0  0
    4.6500   -0.1140   -0.5300 C   0  0  0  0  0  0  0  0  0  0  0  0
    5.1350   -0.2620    0.8610 C   0  0  0  0  0  0  0  0  0  0  0  0
    5.6090   -1.3300    1.3160 O   0  0  0  0  0  0  0  0  0  0  0  0
    2.3100   -0.0990    0.2890 C   0  0  0  0  0  0  0  0  0  0  0  0
    2.5660   -0.2700    1.5330 O   0  0  0  0  0  0  0  0  0  0  0  0
    5.0720    0.8290    1.7330 O   0  0  0  0  0  0  0  0  0  0  0  0
    2.1850   -1.2630   -2.3420 H   0  0  0  0  0  0  0  0  0  0  0  0
    3.6750   -0.5030   -2.7100 H   0  0  0  0  0  0  0  0  0  0  0  0
    3.3490   -1.7900   -0.4860 H   0  0  0  0  0  0  0  0  0  0  0  0
    5.3100   -0.7110   -1.2030 H   0  0  0  0  0  0  0  0  0  0  0  0
    4.6970    0.9340   -0.8840 H   0  0  0  0  0  0  0  0  0  0  0  0
    5.5290    0.8160    2.6420 H   0  0  0  0  0  0  0  0  0  0  0  0
    1.1590    0.6440   -0.0540 N   0  0  0  0  0  0  0  0  0  0  0  0
    0.3000    1.1890    0.9560 C   0  0  1  0  0  0  0  0  0  0  0  0
    0.3410    2.6950    0.9680 C   0  0  0  0  0  0  0  0  0  0  0  0
   -0.0800    3.2550   -0.3210 C   0  0  0  0  0  0  0  0  0  0  0  0
   -1.2810    3.4120   -0.6410 O   0  0  0  0  0  0  0  0  0  0  0  0
   -1.0800    0.6340    0.9290 C   0  0  0  0  0  0  0  0  0  0  0  0
   -1.9470    1.0000    1.7830 O   0  0  0  0  0  0  0  0  0  0  0  0
    0.8850    3.6370   -1.2530 O   0  0  0  0  0  0  0  0  0  0  0  0
    0.9360    0.7940   -1.0480 H   0  0  0  0  0  0  0  0  0  0  0  0
    0.7100    0.8800    1.9570 H   0  0  0  0  0  0  0  0  0  0  0  0
   -0.2840    3.1000    1.8040 H   0  0  0  0  0  0  0  0  0  0  0  0
    1.3760    3.0290    1.1790 H   0  0  0  0  0  0  0  0  0  0  0  0
    0.6460    3.8450   -2.2090 H   0  0  0  0  0  0  0  0  0  0  0  0
   -0.3510   -5.6780    3.3940 O   0  0  0  0  0  0  0  0  0  0  0  0
   -1.0990   -4.6330    2.8570 C   0  0  0  0  0  0  0  0  0  0  0  0
   -0.8450   -3.3320    3.2230 C   0  0  0  0  0  0  0  0  0  0  0  0
   -1.5470   -2.2620    2.7310 C   0  0  0  0  0  0  0  0  0  0  0  0
   -2.5450   -2.4360    1.8410 C   0  0  0  0  0  0  0  0  0  0  0  0
   -3.3670   -1.3970    1.2210 C   0  0  0  0  0  0  0  0  0  0  0  0
   -2.8180   -0.9120   -0.1040 C   0  0  2  0  0  0  0  0  0  0  0  0
   -1.5080   -0.3200   -0.0280 N   0  0  0  0  0  0  0  0  0  0  0  0
   -3.7290   -0.0210   -0.8180 C   0  0  0  0  0  0  0  0  0  0  0  0
   -4.9270   -0.3420   -0.9840 O   0  0  0  0  0  0  0  0  0  0  0  0
   -2.8190   -3.7580    1.4550 C   0  0  0  0  0  0  0  0  0  0  0  0
   -2.1110   -4.8280    1.9530 C   0  0  0  0  0  0  0  0  0  0  0  0
   -3.2840    1.1800   -1.3170 O   0  0  0  0  0  0  0  0  0  0  0  0
    0.6010   -5.7770    3.0590 H   0  0  0  0  0  0  0  0  0  0  0  0
   -0.0300   -3.1920    3.9480 H   0  0  0  0  0  0  0  0  0  0  0  0
   -1.2790   -1.2850    3.0770 H   0  0  0  0  0  0  0  0  0  0  0  0
   -3.6470   -0.5540    1.8840 H   0  0  0  0  0  0  0  0  0  0  0  0
   -4.3640   -1.8620    0.9620 H   0  0  0  0  0  0  0  0  0  0  0  0
   -2.7570   -1.8680   -0.7470 H   0  0  0  0  0  0  0  0  0  0  0  0
   -0.7420   -0.5840   -0.7330 H   0  0  0  0  0  0  0  0  0  0  0  0
   -3.6070   -3.9760    0.7440 H   0  0  0  0  0  0  0  0  0  0  0  0
   -2.3160   -5.8600    1.6600 H   0  0  0  0  0  0  0  0  0  0  0  0
  1  2  1  0  0  0  0
  2  3  1  0  0  0  0
  2 11  1  1  0  0  0
  2  6  1  0  0  0  0
  3  4  1  0  0  0  0
  4  5  2  0  0  0  0
  4  8  1  0  0  0  0
  6  7  2  0  0  0  0
  8 14  1  0  0  0  0
  9  1  1  0  0  0  0
 10  1  1  0  0  0  0
 12  3  1  0  0  0  0
 13  3  1  0  0  0  0
 15  6  1  0  0  0  0
 15 16  1  0  0  0  0
 16 17  1  0  0  0  0
 16 24  1  1  0  0  0
 17 26  1  0  0  0  0
 17 25  1  0  0  0  0
 18 17  1  0  0  0  0
 19 18  2  0  0  0  0
 20 16  1  0  0  0  0
 20 21  2  0  0  0  0
 22 18  1  0  0  0  0
 23 15  1  0  0  0  0
 27 22  1  0  0  0  0
 29 30  1  0  0  0  0
 29 28  1  0  0  0  0
 30 42  1  0  0  0  0
 31 43  1  0  0  0  0
 31 30  2  0  0  0  0
 32 31  1  0  0  0  0
 33 32  1  0  0  0  0
 33 44  1  0  0  0  0
 34 46  1  6  0  0  0
 34 35  1  0  0  0  0
 34 33  1  0  0  0  0
 35 20  1  0  0  0  0
 36 34  1  0  0  0  0
 37 36  1  0  0  0  0
 38 32  2  0  0  0  0
 38 39  1  0  0  0  0
 39 29  2  0  0  0  0
 40 36  2  0  0  0  0
 41 28  1  0  0  0  0
 45 33  1  0  0  0  0
 47 35  1  0  0  0  0
 48 38  1  0  0  0  0
 49 39  1  0  0  0  0
M  END
$$$$
