DEG.pdb
 OpenBabel07022418133D

 38 37  0  0  1  0  0  0  0  0999 V2000
    3.0310   -3.8160    0.0830 N   0  0  0  0  0  0  0  0  0  0  0  0
    1.6900   -3.3310   -0.0240 C   0  0  1  0  0  0  0  0  0  0  0  0
    0.8030   -3.9260    1.0310 C   0  0  0  0  0  0  0  0  0  0  0  0
    1.2560   -3.6170    2.3980 C   0  0  0  0  0  0  0  0  0  0  0  0
    2.2590   -2.9400    2.6870 O   0  0  0  0  0  0  0  0  0  0  0  0
    1.6500   -1.8330   -0.0160 C   0  0  0  0  0  0  0  0  0  0  0  0
    2.6980   -1.1570    0.0740 O   0  0  0  0  0  0  0  0  0  0  0  0
    0.5040   -4.1220    3.4540 O   0  0  0  0  0  0  0  0  0  0  0  0
    3.2940   -4.4650   -0.7080 H   0  0  0  0  0  0  0  0  0  0  0  0
    3.1660   -4.3610    0.9690 H   0  0  0  0  0  0  0  0  0  0  0  0
    1.2790   -3.6760   -1.0150 H   0  0  0  0  0  0  0  0  0  0  0  0
    0.8080   -5.0120    0.9060 H   0  0  0  0  0  0  0  0  0  0  0  0
   -0.2450   -3.5660    0.8630 H   0  0  0  0  0  0  0  0  0  0  0  0
    0.5270   -3.7190    4.3910 H   0  0  0  0  0  0  0  0  0  0  0  0
    0.4270   -1.1430   -0.1110 N   0  0  0  0  0  0  0  0  0  0  0  0
    0.4740    0.3200   -0.0970 C   0  0  1  0  0  0  0  0  0  0  0  0
   -0.1940    0.8900   -1.3030 C   0  0  0  0  0  0  0  0  0  0  0  0
   -0.2040    2.3840   -1.3990 C   0  0  0  0  0  0  0  0  0  0  0  0
    1.1250    3.0030   -1.4420 C   0  0  0  0  0  0  0  0  0  0  0  0
    2.1750    2.3420   -1.4320 O   0  0  0  0  0  0  0  0  0  0  0  0
   -0.2560    0.7390    1.1460 C   0  0  0  0  0  0  0  0  0  0  0  0
   -0.3390    1.9560    1.4180 O   0  0  0  0  0  0  0  0  0  0  0  0
    1.2670    4.3980   -1.4980 O   0  0  0  0  0  0  0  0  0  0  0  0
   -0.5040   -1.5970   -0.1910 H   0  0  0  0  0  0  0  0  0  0  0  0
    1.4960    0.6800   -0.0100 H   0  0  0  0  0  0  0  0  0  0  0  0
   -1.2410    0.5320   -1.4270 H   0  0  0  0  0  0  0  0  0  0  0  0
    0.3820    0.5280   -2.2040 H   0  0  0  0  0  0  0  0  0  0  0  0
   -0.7390    2.6320   -2.3630 H   0  0  0  0  0  0  0  0  0  0  0  0
   -0.8240    2.8900   -0.6190 H   0  0  0  0  0  0  0  0  0  0  0  0
    2.1580    4.8540   -1.3220 H   0  0  0  0  0  0  0  0  0  0  0  0
   -0.8620   -0.1890    2.0320 N   0  0  0  0  0  0  0  0  0  0  0  0
   -1.5660    0.2230    3.2320 C   0  0  0  0  0  0  0  0  0  0  0  0
   -2.7150    1.1080    2.9300 C   0  0  0  0  0  0  0  0  0  0  0  0
   -3.0550    1.4690    1.7900 O   0  0  0  0  0  0  0  0  0  0  0  0
   -3.4610    1.5630    4.0040 O   0  0  0  0  0  0  0  0  0  0  0  0
   -0.8070   -1.2110    1.8280 H   0  0  0  0  0  0  0  0  0  0  0  0
   -0.8760    0.7900    3.9140 H   0  0  0  0  0  0  0  0  0  0  0  0
   -1.9270   -0.6340    3.8050 H   0  0  0  0  0  0  0  0  0  0  0  0
  1 10  1  0  0  0  0
  2 11  1  6  0  0  0
  2  6  1  0  0  0  0
  2  1  1  0  0  0  0
  2  3  1  0  0  0  0
  3  4  1  0  0  0  0
  4  5  2  0  0  0  0
  4  8  1  0  0  0  0
  6  7  2  0  0  0  0
  8 14  1  0  0  0  0
  9  1  1  0  0  0  0
 12  3  1  0  0  0  0
 13  3  1  0  0  0  0
 15 16  1  0  0  0  0
 15  6  1  0  0  0  0
 16 25  1  1  0  0  0
 16 21  1  0  0  0  0
 17 16  1  0  0  0  0
 18 17  1  0  0  0  0
 18 29  1  0  0  0  0
 19 20  2  0  0  0  0
 19 18  1  0  0  0  0
 21 22  2  0  0  0  0
 21 31  1  0  0  0  0
 23 19  1  0  0  0  0
 23 30  1  0  0  0  0
 24 15  1  0  0  0  0
 26 17  1  0  0  0  0
 27 17  1  0  0  0  0
 28 18  1  0  0  0  0
 31 32  1  0  0  0  0
 32 38  1  0  0  0  0
 32 37  1  0  0  0  0
 33 32  1  0  0  0  0
 33 35  1  0  0  0  0
 34 33  2  0  0  0  0
 36 31  1  0  0  0  0
M  END
$$$$
