DEN.pdb
 OpenBabel07022418133D

 45 44  0  0  1  0  0  0  0  0999 V2000
    4.6430   -1.5860    1.2310 N   0  0  0  0  0  0  0  0  0  0  0  0
    3.8320   -2.1370    2.2820 C   0  0  1  0  0  0  0  0  0  0  0  0
    4.3900   -1.8410    3.6570 C   0  0  0  0  0  0  0  0  0  0  0  0
    4.4480   -0.3750    3.8240 C   0  0  0  0  0  0  0  0  0  0  0  0
    4.0760    0.3890    2.9200 O   0  0  0  0  0  0  0  0  0  0  0  0
    2.4410   -1.6040    2.2620 C   0  0  0  0  0  0  0  0  0  0  0  0
    1.6450   -2.0140    3.1420 O   0  0  0  0  0  0  0  0  0  0  0  0
    4.9240    0.2100    5.0050 O   0  0  0  0  0  0  0  0  0  0  0  0
    4.6280   -2.2040    0.3890 H   0  0  0  0  0  0  0  0  0  0  0  0
    5.6440   -1.6100    1.5800 H   0  0  0  0  0  0  0  0  0  0  0  0
    3.8040   -3.2530    2.1020 H   0  0  0  0  0  0  0  0  0  0  0  0
    3.6070   -2.2100    4.3830 H   0  0  0  0  0  0  0  0  0  0  0  0
    5.3570   -2.3480    3.8370 H   0  0  0  0  0  0  0  0  0  0  0  0
    4.7280    1.2020    5.1780 H   0  0  0  0  0  0  0  0  0  0  0  0
    1.9780   -0.6760    1.3180 N   0  0  0  0  0  0  0  0  0  0  0  0
    0.5940   -0.1590    1.3150 C   0  0  1  0  0  0  0  0  0  0  0  0
    0.7300    1.3100    1.5320 C   0  0  0  0  0  0  0  0  0  0  0  0
   -0.5080    2.1170    1.5740 C   0  0  0  0  0  0  0  0  0  0  0  0
   -1.4810    1.7590    2.6180 C   0  0  0  0  0  0  0  0  0  0  0  0
   -1.2480    0.8370    3.4280 O   0  0  0  0  0  0  0  0  0  0  0  0
   -0.0040   -0.5510    0.0250 C   0  0  0  0  0  0  0  0  0  0  0  0
    0.7310   -1.0990   -0.8350 O   0  0  0  0  0  0  0  0  0  0  0  0
   -2.6800    2.4430    2.7220 O   0  0  0  0  0  0  0  0  0  0  0  0
    2.6470   -0.3420    0.5920 H   0  0  0  0  0  0  0  0  0  0  0  0
    0.0200   -0.6020    2.1510 H   0  0  0  0  0  0  0  0  0  0  0  0
    1.3460    1.7010    0.6690 H   0  0  0  0  0  0  0  0  0  0  0  0
    1.3580    1.5130    2.4370 H   0  0  0  0  0  0  0  0  0  0  0  0
   -0.1600    3.2000    1.7170 H   0  0  0  0  0  0  0  0  0  0  0  0
   -1.0170    2.1630    0.5800 H   0  0  0  0  0  0  0  0  0  0  0  0
   -3.1630    2.3880    3.6270 H   0  0  0  0  0  0  0  0  0  0  0  0
   -4.7140   -3.2070   -2.6290 N   0  0  0  0  0  0  0  0  0  0  0  0
   -3.5450   -2.3590   -2.6960 C   0  0  0  0  0  0  0  0  0  0  0  0
   -3.0750   -2.1570   -3.8400 O   0  0  0  0  0  0  0  0  0  0  0  0
   -2.9700   -1.7850   -1.4760 C   0  0  0  0  0  0  0  0  0  0  0  0
   -1.8390   -0.8080   -1.6950 C   0  0  2  0  0  0  0  0  0  0  0  0
   -1.3580   -0.3680   -0.3500 N   0  0  0  0  0  0  0  0  0  0  0  0
   -2.3700    0.3830   -2.3980 C   0  0  0  0  0  0  0  0  0  0  0  0
   -2.3710    1.5040   -1.8040 O   0  0  0  0  0  0  0  0  0  0  0  0
   -2.8640    0.3450   -3.6620 O   0  0  0  0  0  0  0  0  0  0  0  0
   -5.6140   -2.8490   -2.9940 H   0  0  0  0  0  0  0  0  0  0  0  0
   -4.6780   -4.1590   -2.2280 H   0  0  0  0  0  0  0  0  0  0  0  0
   -2.6110   -2.6320   -0.8300 H   0  0  0  0  0  0  0  0  0  0  0  0
   -3.7870   -1.3190   -0.8580 H   0  0  0  0  0  0  0  0  0  0  0  0
   -1.0010   -1.2510   -2.2310 H   0  0  0  0  0  0  0  0  0  0  0  0
   -2.0020    0.0650    0.3290 H   0  0  0  0  0  0  0  0  0  0  0  0
  1 10  1  0  0  0  0
  1  2  1  0  0  0  0
  2 11  1  6  0  0  0
  2  3  1  0  0  0  0
  3  4  1  0  0  0  0
  3 13  1  0  0  0  0
  3 12  1  0  0  0  0
  4  8  1  0  0  0  0
  5  4  2  0  0  0  0
  6  2  1  0  0  0  0
  6  7  2  0  0  0  0
  8 14  1  0  0  0  0
  9  1  1  0  0  0  0
 15  6  1  0  0  0  0
 16 15  1  0  0  0  0
 16 17  1  0  0  0  0
 16 25  1  1  0  0  0
 17 18  1  0  0  0  0
 17 27  1  0  0  0  0
 18 28  1  0  0  0  0
 18 19  1  0  0  0  0
 19 23  1  0  0  0  0
 19 20  2  0  0  0  0
 21 16  1  0  0  0  0
 22 21  2  0  0  0  0
 23 30  1  0  0  0  0
 24 15  1  0  0  0  0
 26 17  1  0  0  0  0
 29 18  1  0  0  0  0
 31 41  1  0  0  0  0
 32 31  1  0  0  0  0
 32 34  1  0  0  0  0
 33 32  2  0  0  0  0
 34 43  1  0  0  0  0
 34 42  1  0  0  0  0
 35 44  1  6  0  0  0
 35 34  1  0  0  0  0
 35 36  1  0  0  0  0
 36 21  1  0  0  0  0
 36 45  1  0  0  0  0
 37 38  1  0  0  0  0
 37 35  1  0  0  0  0
 39 37  2  0  0  0  0
 40 31  1  0  0  0  0
M  END
$$$$
