DEP.pdb
 OpenBabel07022418133D

 45 45  0  0  1  0  0  0  0  0999 V2000
    1.0590   -2.4680    3.7910 N   0  0  0  0  0  0  0  0  0  0  0  0
    0.1540   -1.6120    3.0920 C   0  0  1  0  0  0  0  0  0  0  0  0
   -0.6680   -0.7350    3.9690 C   0  0  0  0  0  0  0  0  0  0  0  0
    0.1160    0.1790    4.8140 C   0  0  0  0  0  0  0  0  0  0  0  0
    1.3720    0.2150    4.8130 O   0  0  0  0  0  0  0  0  0  0  0  0
    0.8300   -0.8660    1.9670 C   0  0  0  0  0  0  0  0  0  0  0  0
    2.0580   -1.0660    1.8560 O   0  0  0  0  0  0  0  0  0  0  0  0
   -0.5160    1.0700    5.6800 O   0  0  0  0  0  0  0  0  0  0  0  0
    0.8050   -2.6620    4.7620 H   0  0  0  0  0  0  0  0  0  0  0  0
    1.2300   -3.3850    3.3100 H   0  0  0  0  0  0  0  0  0  0  0  0
   -0.5780   -2.2920    2.5610 H   0  0  0  0  0  0  0  0  0  0  0  0
   -1.2970   -1.4040    4.6150 H   0  0  0  0  0  0  0  0  0  0  0  0
   -1.3590   -0.1440    3.3520 H   0  0  0  0  0  0  0  0  0  0  0  0
   -0.1910    2.0200    5.8210 H   0  0  0  0  0  0  0  0  0  0  0  0
    0.0550   -0.0220    1.1440 N   0  0  0  0  0  0  0  0  0  0  0  0
    0.5240    0.7460    0.0690 C   0  0  1  0  0  0  0  0  0  0  0  0
    1.9710    1.2050    0.3000 C   0  0  0  0  0  0  0  0  0  0  0  0
    2.0990    2.0540    1.5030 C   0  0  0  0  0  0  0  0  0  0  0  0
    1.3740    3.3430    1.4570 C   0  0  0  0  0  0  0  0  0  0  0  0
    0.7780    3.7830    0.4570 O   0  0  0  0  0  0  0  0  0  0  0  0
    0.3370    0.2910   -1.2950 C   0  0  0  0  0  0  0  0  0  0  0  0
    0.7500    1.0760   -2.2420 O   0  0  0  0  0  0  0  0  0  0  0  0
    1.3240    4.1660    2.5950 O   0  0  0  0  0  0  0  0  0  0  0  0
   -0.9990    0.0620    1.3710 H   0  0  0  0  0  0  0  0  0  0  0  0
   -0.0260    1.7680    0.1220 H   0  0  0  0  0  0  0  0  0  0  0  0
    2.2380    1.8280   -0.6080 H   0  0  0  0  0  0  0  0  0  0  0  0
    2.6510    0.3580    0.2850 H   0  0  0  0  0  0  0  0  0  0  0  0
    1.8620    1.5000    2.4440 H   0  0  0  0  0  0  0  0  0  0  0  0
    3.1820    2.3160    1.6160 H   0  0  0  0  0  0  0  0  0  0  0  0
    0.7240    4.9900    2.6150 H   0  0  0  0  0  0  0  0  0  0  0  0
   -0.2380   -0.9040   -1.7290 N   0  0  0  0  0  0  0  0  0  0  0  0
   -0.3890   -1.2830   -3.1620 C   0  0  0  0  0  0  0  0  0  0  0  0
   -1.3240   -2.4650   -3.1740 C   0  0  0  0  0  0  0  0  0  0  0  0
   -2.0080   -2.3310   -1.8340 C   0  0  0  0  0  0  0  0  0  0  0  0
   -0.7790   -1.9890   -0.9620 C   0  0  1  0  0  0  0  0  0  0  0  0
    0.0870   -3.2130   -1.0670 C   0  0  0  0  0  0  0  0  0  0  0  0
    1.1300   -3.2440   -1.7320 O   0  0  0  0  0  0  0  0  0  0  0  0
   -0.3200   -4.3380   -0.3850 O   0  0  0  0  0  0  0  0  0  0  0  0
   -0.7910   -0.4100   -3.7100 H   0  0  0  0  0  0  0  0  0  0  0  0
    0.6070   -1.5630   -3.5780 H   0  0  0  0  0  0  0  0  0  0  0  0
   -0.7160   -3.3890   -3.1520 H   0  0  0  0  0  0  0  0  0  0  0  0
   -2.0370   -2.4400   -4.0180 H   0  0  0  0  0  0  0  0  0  0  0  0
   -2.6650   -1.4430   -1.7810 H   0  0  0  0  0  0  0  0  0  0  0  0
   -2.4700   -3.2670   -1.4930 H   0  0  0  0  0  0  0  0  0  0  0  0
   -1.0680   -1.8010    0.0560 H   0  0  0  0  0  0  0  0  0  0  0  0
  1  9  1  0  0  0  0
  2 11  1  6  0  0  0
  2  1  1  0  0  0  0
  2  3  1  0  0  0  0
  3 12  1  0  0  0  0
  3  4  1  0  0  0  0
  4  8  1  0  0  0  0
  5  4  2  0  0  0  0
  6  2  1  0  0  0  0
  7  6  2  0  0  0  0
  8 14  1  0  0  0  0
 10  1  1  0  0  0  0
 13  3  1  0  0  0  0
 15 24  1  0  0  0  0
 15  6  1  0  0  0  0
 16 25  1  1  0  0  0
 16 17  1  0  0  0  0
 16 15  1  0  0  0  0
 17 18  1  0  0  0  0
 18 29  1  0  0  0  0
 18 28  1  0  0  0  0
 19 18  1  0  0  0  0
 19 23  1  0  0  0  0
 20 19  2  0  0  0  0
 21 16  1  0  0  0  0
 22 21  2  0  0  0  0
 23 30  1  0  0  0  0
 26 17  1  0  0  0  0
 27 17  1  0  0  0  0
 31 21  1  0  0  0  0
 31 35  1  0  0  0  0
 32 31  1  0  0  0  0
 33 32  1  0  0  0  0
 33 41  1  0  0  0  0
 33 34  1  0  0  0  0
 34 43  1  0  0  0  0
 34 44  1  0  0  0  0
 34 35  1  0  0  0  0
 35 45  1  1  0  0  0
 36 35  1  0  0  0  0
 36 38  1  0  0  0  0
 37 36  2  0  0  0  0
 39 32  1  0  0  0  0
 40 32  1  0  0  0  0
 42 33  1  0  0  0  0
M  END
$$$$
