DEV.pdb
 OpenBabel07022418133D

 47 46  0  0  1  0  0  0  0  0999 V2000
    1.6350   -2.4110    1.9400 N   0  0  0  0  0  0  0  0  0  0  0  0
    1.1690   -1.6600    3.0730 C   0  0  1  0  0  0  0  0  0  0  0  0
    2.3140   -1.4690    4.0430 C   0  0  0  0  0  0  0  0  0  0  0  0
    2.7820   -2.8020    4.4700 C   0  0  0  0  0  0  0  0  0  0  0  0
    3.7290   -2.9130    5.2750 O   0  0  0  0  0  0  0  0  0  0  0  0
    0.5670   -0.3540    2.6810 C   0  0  0  0  0  0  0  0  0  0  0  0
    0.1220    0.3980    3.5600 O   0  0  0  0  0  0  0  0  0  0  0  0
    2.1950   -3.9660    3.9980 O   0  0  0  0  0  0  0  0  0  0  0  0
    0.8840   -2.9020    1.4220 H   0  0  0  0  0  0  0  0  0  0  0  0
    2.3300   -1.9290    1.3570 H   0  0  0  0  0  0  0  0  0  0  0  0
    0.3600   -2.2440    3.5480 H   0  0  0  0  0  0  0  0  0  0  0  0
    1.9350   -0.8640    4.9040 H   0  0  0  0  0  0  0  0  0  0  0  0
    3.1300   -0.8960    3.5950 H   0  0  0  0  0  0  0  0  0  0  0  0
    2.2030   -4.8420    4.4820 H   0  0  0  0  0  0  0  0  0  0  0  0
    0.5110    0.0100    1.3100 N   0  0  0  0  0  0  0  0  0  0  0  0
   -0.0720    1.2880    0.8670 C   0  0  1  0  0  0  0  0  0  0  0  0
    0.9690    2.0820    0.1390 C   0  0  0  0  0  0  0  0  0  0  0  0
    2.1830    2.4250    0.9180 C   0  0  0  0  0  0  0  0  0  0  0  0
    1.9840    3.2360    2.1150 C   0  0  0  0  0  0  0  0  0  0  0  0
    0.8530    3.6500    2.4650 O   0  0  0  0  0  0  0  0  0  0  0  0
   -1.2050    0.9300   -0.0300 C   0  0  0  0  0  0  0  0  0  0  0  0
   -1.8510    1.8580   -0.5380 O   0  0  0  0  0  0  0  0  0  0  0  0
    3.0450    3.5970    2.9360 O   0  0  0  0  0  0  0  0  0  0  0  0
    0.9040   -0.6650    0.6190 H   0  0  0  0  0  0  0  0  0  0  0  0
   -0.4140    1.8700    1.7420 H   0  0  0  0  0  0  0  0  0  0  0  0
    0.5390    3.0300   -0.2610 H   0  0  0  0  0  0  0  0  0  0  0  0
    1.2770    1.4900   -0.7470 H   0  0  0  0  0  0  0  0  0  0  0  0
    2.7330    1.4880    1.1770 H   0  0  0  0  0  0  0  0  0  0  0  0
    2.8950    2.9700    0.2310 H   0  0  0  0  0  0  0  0  0  0  0  0
    2.8530    3.7760    3.9110 H   0  0  0  0  0  0  0  0  0  0  0  0
   -1.5240   -2.9010   -1.9800 C   0  0  0  0  0  0  0  0  0  0  0  0
   -2.2290   -1.6210   -2.3620 C   0  0  0  0  0  0  0  0  0  0  0  0
   -1.4300   -0.8220   -3.3760 C   0  0  0  0  0  0  0  0  0  0  0  0
   -2.6400   -0.8070   -1.1730 C   0  0  2  0  0  0  0  0  0  0  0  0
   -1.5670   -0.3890   -0.3210 N   0  0  0  0  0  0  0  0  0  0  0  0
   -3.6950   -1.5570   -0.4430 C   0  0  0  0  0  0  0  0  0  0  0  0
   -3.6030   -1.7690    0.7790 O   0  0  0  0  0  0  0  0  0  0  0  0
   -4.8060   -2.0360   -1.1170 O   0  0  0  0  0  0  0  0  0  0  0  0
   -1.4810   -3.0440   -0.8690 H   0  0  0  0  0  0  0  0  0  0  0  0
   -0.4900   -2.9490   -2.4210 H   0  0  0  0  0  0  0  0  0  0  0  0
   -2.0390   -3.8080   -2.3640 H   0  0  0  0  0  0  0  0  0  0  0  0
   -3.1630   -1.9250   -2.8850 H   0  0  0  0  0  0  0  0  0  0  0  0
   -1.5790   -1.1890   -4.4140 H   0  0  0  0  0  0  0  0  0  0  0  0
   -1.7340    0.2420   -3.3720 H   0  0  0  0  0  0  0  0  0  0  0  0
   -0.3250   -0.9390   -3.1900 H   0  0  0  0  0  0  0  0  0  0  0  0
   -3.1260    0.1180   -1.5550 H   0  0  0  0  0  0  0  0  0  0  0  0
   -1.0020   -1.1560    0.1250 H   0  0  0  0  0  0  0  0  0  0  0  0
  1  2  1  0  0  0  0
  2 11  1  1  0  0  0
  2  3  1  0  0  0  0
  3  4  1  0  0  0  0
  3 12  1  0  0  0  0
  4  5  2  0  0  0  0
  6  2  1  0  0  0  0
  6  7  2  0  0  0  0
  8  4  1  0  0  0  0
  8 14  1  0  0  0  0
  9  1  1  0  0  0  0
 10  1  1  0  0  0  0
 13  3  1  0  0  0  0
 15  6  1  0  0  0  0
 16 15  1  0  0  0  0
 16 25  1  1  0  0  0
 17 16  1  0  0  0  0
 17 18  1  0  0  0  0
 18 28  1  0  0  0  0
 18 19  1  0  0  0  0
 19 20  2  0  0  0  0
 19 23  1  0  0  0  0
 21 16  1  0  0  0  0
 22 21  2  0  0  0  0
 23 30  1  0  0  0  0
 24 15  1  0  0  0  0
 26 17  1  0  0  0  0
 27 17  1  0  0  0  0
 29 18  1  0  0  0  0
 31 39  1  0  0  0  0
 32 31  1  0  0  0  0
 32 34  1  0  0  0  0
 33 44  1  0  0  0  0
 33 45  1  0  0  0  0
 33 32  1  0  0  0  0
 34 46  1  6  0  0  0
 34 36  1  0  0  0  0
 34 35  1  0  0  0  0
 35 21  1  0  0  0  0
 35 47  1  0  0  0  0
 36 37  1  0  0  0  0
 38 36  2  0  0  0  0
 40 31  1  0  0  0  0
 41 31  1  0  0  0  0
 42 32  1  0  0  0  0
 43 33  1  0  0  0  0
M  END
$$$$
