DEW.pdb
 OpenBabel07022418133D

 55 56  0  0  1  0  0  0  0  0999 V2000
   -1.3650    2.4100    2.7750 N   0  0  0  0  0  0  0  0  0  0  0  0
   -0.1730    1.7310    3.1670 C   0  0  1  0  0  0  0  0  0  0  0  0
   -0.5110    0.6330    4.1370 C   0  0  0  0  0  0  0  0  0  0  0  0
   -1.1550    1.2170    5.3220 C   0  0  0  0  0  0  0  0  0  0  0  0
   -1.3460    2.4530    5.3930 O   0  0  0  0  0  0  0  0  0  0  0  0
    0.6110    1.1900    2.0110 C   0  0  0  0  0  0  0  0  0  0  0  0
    1.6690    0.5480    2.2280 O   0  0  0  0  0  0  0  0  0  0  0  0
   -1.5500    0.3830    6.3630 O   0  0  0  0  0  0  0  0  0  0  0  0
   -2.0100    1.7790    2.2650 H   0  0  0  0  0  0  0  0  0  0  0  0
   -1.1560    3.2440    2.1900 H   0  0  0  0  0  0  0  0  0  0  0  0
    0.4950    2.4780    3.6570 H   0  0  0  0  0  0  0  0  0  0  0  0
   -1.2040   -0.0650    3.5910 H   0  0  0  0  0  0  0  0  0  0  0  0
    0.4560    0.1190    4.3780 H   0  0  0  0  0  0  0  0  0  0  0  0
   -1.8240    0.8110    7.2400 H   0  0  0  0  0  0  0  0  0  0  0  0
    0.1270    1.4250    0.7180 N   0  0  0  0  0  0  0  0  0  0  0  0
    0.7400    1.0100   -0.5120 C   0  0  1  0  0  0  0  0  0  0  0  0
    2.2090    0.6650   -0.4210 C   0  0  0  0  0  0  0  0  0  0  0  0
    2.9610    1.9140   -0.0260 C   0  0  0  0  0  0  0  0  0  0  0  0
    4.4110    1.5920    0.1150 C   0  0  0  0  0  0  0  0  0  0  0  0
    4.7820    0.4140   -0.0950 O   0  0  0  0  0  0  0  0  0  0  0  0
   -0.0570    0.1300   -1.3570 C   0  0  0  0  0  0  0  0  0  0  0  0
    0.4480   -0.2630   -2.4400 O   0  0  0  0  0  0  0  0  0  0  0  0
    5.3540    2.5260    0.4640 O   0  0  0  0  0  0  0  0  0  0  0  0
   -0.8000    1.9730    0.6410 H   0  0  0  0  0  0  0  0  0  0  0  0
    0.8190    2.0270   -1.0970 H   0  0  0  0  0  0  0  0  0  0  0  0
    2.4560   -0.1690    0.2270 H   0  0  0  0  0  0  0  0  0  0  0  0
    2.4950    0.3460   -1.4540 H   0  0  0  0  0  0  0  0  0  0  0  0
    2.6010    2.4520    0.8450 H   0  0  0  0  0  0  0  0  0  0  0  0
    2.9050    2.6690   -0.8820 H   0  0  0  0  0  0  0  0  0  0  0  0
    6.3180    2.4370    0.1700 H   0  0  0  0  0  0  0  0  0  0  0  0
   -1.3610   -0.2840   -0.9940 N   0  0  0  0  0  0  0  0  0  0  0  0
   -2.1700   -1.1630   -1.8260 C   0  0  1  0  0  0  0  0  0  0  0  0
   -2.6810   -2.2760   -0.9710 C   0  0  0  0  0  0  0  0  0  0  0  0
   -1.6470   -3.1020   -0.3410 C   0  0  0  0  0  0  0  0  0  0  0  0
   -1.2730   -3.0370    0.9820 C   0  0  0  0  0  0  0  0  0  0  0  0
   -0.3020   -3.9440    1.1860 N   0  0  0  0  0  0  0  0  0  0  0  0
   -0.0160   -4.6040    0.0590 C   0  0  0  0  0  0  0  0  0  0  0  0
    0.8870   -5.6060   -0.2280 C   0  0  0  0  0  0  0  0  0  0  0  0
    0.9640   -6.1070   -1.5030 C   0  0  0  0  0  0  0  0  0  0  0  0
    0.1200   -5.5830   -2.4740 C   0  0  0  0  0  0  0  0  0  0  0  0
   -0.7870   -4.5820   -2.2010 C   0  0  0  0  0  0  0  0  0  0  0  0
   -0.8700   -4.0720   -0.9160 C   0  0  0  0  0  0  0  0  0  0  0  0
   -3.3820   -0.4050   -2.3050 C   0  0  0  0  0  0  0  0  0  0  0  0
   -4.2400   -0.9440   -3.0460 O   0  0  0  0  0  0  0  0  0  0  0  0
   -3.5920    0.9180   -1.9420 O   0  0  0  0  0  0  0  0  0  0  0  0
   -1.7420    0.0640   -0.0890 H   0  0  0  0  0  0  0  0  0  0  0  0
   -1.6330   -1.4530   -2.7260 H   0  0  0  0  0  0  0  0  0  0  0  0
   -3.4120   -2.8990   -1.5670 H   0  0  0  0  0  0  0  0  0  0  0  0
   -3.3410   -1.7950   -0.1890 H   0  0  0  0  0  0  0  0  0  0  0  0
   -1.6630   -2.3900    1.7540 H   0  0  0  0  0  0  0  0  0  0  0  0
    0.1790   -4.1230    2.0970 H   0  0  0  0  0  0  0  0  0  0  0  0
    1.5520   -6.0190    0.5370 H   0  0  0  0  0  0  0  0  0  0  0  0
    1.6780   -6.9020   -1.7410 H   0  0  0  0  0  0  0  0  0  0  0  0
    0.1680   -5.9660   -3.4850 H   0  0  0  0  0  0  0  0  0  0  0  0
   -1.4450   -4.1790   -2.9780 H   0  0  0  0  0  0  0  0  0  0  0  0
  1  2  1  0  0  0  0
  2 11  1  1  0  0  0
  2  3  1  0  0  0  0
  3 13  1  0  0  0  0
  3  4  1  0  0  0  0
  4  5  2  0  0  0  0
  4  8  1  0  0  0  0
  6  7  2  0  0  0  0
  6  2  1  0  0  0  0
  8 14  1  0  0  0  0
  9  1  1  0  0  0  0
 10  1  1  0  0  0  0
 12  3  1  0  0  0  0
 15  6  1  0  0  0  0
 16 25  1  6  0  0  0
 16 17  1  0  0  0  0
 16 15  1  0  0  0  0
 17 18  1  0  0  0  0
 17 26  1  0  0  0  0
 18 19  1  0  0  0  0
 18 28  1  0  0  0  0
 19 23  1  0  0  0  0
 20 19  2  0  0  0  0
 21 31  1  0  0  0  0
 21 16  1  0  0  0  0
 22 21  2  0  0  0  0
 24 15  1  0  0  0  0
 27 17  1  0  0  0  0
 29 18  1  0  0  0  0
 30 23  1  0  0  0  0
 31 46  1  0  0  0  0
 32 47  1  6  0  0  0
 32 31  1  0  0  0  0
 32 33  1  0  0  0  0
 33 34  1  0  0  0  0
 33 49  1  0  0  0  0
 34 35  2  0  0  0  0
 35 36  1  0  0  0  0
 35 50  1  0  0  0  0
 36 51  1  0  0  0  0
 37 36  1  0  0  0  0
 38 37  1  0  0  0  0
 38 52  1  0  0  0  0
 39 38  2  0  0  0  0
 40 41  2  0  0  0  0
 40 39  1  0  0  0  0
 41 42  1  0  0  0  0
 42 34  1  0  0  0  0
 42 37  2  0  0  0  0
 43 45  1  0  0  0  0
 43 32  1  0  0  0  0
 44 43  2  0  0  0  0
 48 33  1  0  0  0  0
 53 39  1  0  0  0  0
 54 40  1  0  0  0  0
 55 41  1  0  0  0  0
M  END
$$$$
