DEY.pdb
 OpenBabel07022418133D

 52 52  0  0  1  0  0  0  0  0999 V2000
    3.3340   -0.8220    5.0830 N   0  0  0  0  0  0  0  0  0  0  0  0
    3.5280   -0.3370    3.7320 C   0  0  1  0  0  0  0  0  0  0  0  0
    4.4900   -1.2020    2.9900 C   0  0  0  0  0  0  0  0  0  0  0  0
    4.0670   -2.6000    2.8690 C   0  0  0  0  0  0  0  0  0  0  0  0
    4.8380   -3.3900    2.2530 O   0  0  0  0  0  0  0  0  0  0  0  0
    2.1940   -0.2640    3.0510 C   0  0  0  0  0  0  0  0  0  0  0  0
    1.1350   -0.6020    3.6680 O   0  0  0  0  0  0  0  0  0  0  0  0
    2.8910   -3.1250    3.3750 O   0  0  0  0  0  0  0  0  0  0  0  0
    4.1800   -1.3790    5.3340 H   0  0  0  0  0  0  0  0  0  0  0  0
    2.5210   -1.4950    5.1400 H   0  0  0  0  0  0  0  0  0  0  0  0
    3.9420    0.6840    3.8140 H   0  0  0  0  0  0  0  0  0  0  0  0
    4.6050   -0.7710    1.9590 H   0  0  0  0  0  0  0  0  0  0  0  0
    5.4580   -1.1690    3.5370 H   0  0  0  0  0  0  0  0  0  0  0  0
    2.5190   -3.9620    2.9320 H   0  0  0  0  0  0  0  0  0  0  0  0
    2.0500    0.1750    1.7190 N   0  0  0  0  0  0  0  0  0  0  0  0
    0.7420    0.2340    1.0930 C   0  0  1  0  0  0  0  0  0  0  0  0
    0.3850    1.6420    0.6860 C   0  0  0  0  0  0  0  0  0  0  0  0
    0.3680    2.5350    1.8750 C   0  0  0  0  0  0  0  0  0  0  0  0
   -0.6090    2.1990    2.9160 C   0  0  0  0  0  0  0  0  0  0  0  0
   -1.4570    1.2730    2.8770 O   0  0  0  0  0  0  0  0  0  0  0  0
    0.7910   -0.6710   -0.1000 C   0  0  0  0  0  0  0  0  0  0  0  0
    1.8540   -1.2830   -0.3470 O   0  0  0  0  0  0  0  0  0  0  0  0
   -0.6530    2.9580    4.1100 O   0  0  0  0  0  0  0  0  0  0  0  0
    2.8690    0.4690    1.1470 H   0  0  0  0  0  0  0  0  0  0  0  0
   -0.0150   -0.1080    1.8200 H   0  0  0  0  0  0  0  0  0  0  0  0
    0.9880    2.0130   -0.1490 H   0  0  0  0  0  0  0  0  0  0  0  0
   -0.6850    1.5790    0.3220 H   0  0  0  0  0  0  0  0  0  0  0  0
    0.1210    3.5680    1.5220 H   0  0  0  0  0  0  0  0  0  0  0  0
    1.3700    2.5100    2.3610 H   0  0  0  0  0  0  0  0  0  0  0  0
   -1.1850    2.6730    4.9040 H   0  0  0  0  0  0  0  0  0  0  0  0
   -6.5470   -0.6930   -1.2590 O   0  0  0  0  0  0  0  0  0  0  0  0
   -5.2690   -1.2140   -1.4100 C   0  0  0  0  0  0  0  0  0  0  0  0
   -4.4320   -1.3820   -0.3130 C   0  0  0  0  0  0  0  0  0  0  0  0
   -3.1610   -1.8930   -0.4190 C   0  0  0  0  0  0  0  0  0  0  0  0
   -2.6890   -2.2580   -1.6620 C   0  0  0  0  0  0  0  0  0  0  0  0
   -1.3270   -2.8200   -1.8630 C   0  0  0  0  0  0  0  0  0  0  0  0
   -0.2980   -1.7340   -2.1230 C   0  0  2  0  0  0  0  0  0  0  0  0
   -0.3040   -0.8710   -0.9630 N   0  0  0  0  0  0  0  0  0  0  0  0
   -0.5900   -0.9690   -3.3420 C   0  0  0  0  0  0  0  0  0  0  0  0
   -0.8060    0.2610   -3.2790 O   0  0  0  0  0  0  0  0  0  0  0  0
   -3.5110   -2.0960   -2.7580 C   0  0  0  0  0  0  0  0  0  0  0  0
   -4.7860   -1.5820   -2.6490 C   0  0  0  0  0  0  0  0  0  0  0  0
   -0.6330   -1.5830   -4.5820 O   0  0  0  0  0  0  0  0  0  0  0  0
   -6.7860    0.1540   -1.7720 H   0  0  0  0  0  0  0  0  0  0  0  0
   -4.8270   -1.0880    0.6450 H   0  0  0  0  0  0  0  0  0  0  0  0
   -2.5070   -2.0220    0.4550 H   0  0  0  0  0  0  0  0  0  0  0  0
   -1.0490   -3.2940   -0.8830 H   0  0  0  0  0  0  0  0  0  0  0  0
   -1.2980   -3.6200   -2.6160 H   0  0  0  0  0  0  0  0  0  0  0  0
    0.6710   -2.2430   -2.2730 H   0  0  0  0  0  0  0  0  0  0  0  0
   -1.1810   -0.3530   -0.7410 H   0  0  0  0  0  0  0  0  0  0  0  0
   -3.1190   -2.3930   -3.7460 H   0  0  0  0  0  0  0  0  0  0  0  0
   -5.4020   -1.4720   -3.5490 H   0  0  0  0  0  0  0  0  0  0  0  0
  1 10  1  0  0  0  0
  1  9  1  0  0  0  0
  2 11  1  1  0  0  0
  2  1  1  0  0  0  0
  3 13  1  0  0  0  0
  3  2  1  0  0  0  0
  4  3  1  0  0  0  0
  4  8  1  0  0  0  0
  5  4  2  0  0  0  0
  6  7  2  0  0  0  0
  6  2  1  0  0  0  0
 12  3  1  0  0  0  0
 14  8  1  0  0  0  0
 15  6  1  0  0  0  0
 16 15  1  0  0  0  0
 16 25  1  1  0  0  0
 17 16  1  0  0  0  0
 17 18  1  0  0  0  0
 18 29  1  0  0  0  0
 18 19  1  0  0  0  0
 19 23  1  0  0  0  0
 20 19  2  0  0  0  0
 21 16  1  0  0  0  0
 22 21  2  0  0  0  0
 23 30  1  0  0  0  0
 24 15  1  0  0  0  0
 26 17  1  0  0  0  0
 27 17  1  0  0  0  0
 28 18  1  0  0  0  0
 32 31  1  0  0  0  0
 32 33  1  0  0  0  0
 33 45  1  0  0  0  0
 34 33  2  0  0  0  0
 34 46  1  0  0  0  0
 35 34  1  0  0  0  0
 36 35  1  0  0  0  0
 36 47  1  0  0  0  0
 37 49  1  6  0  0  0
 37 36  1  0  0  0  0
 37 38  1  0  0  0  0
 38 50  1  0  0  0  0
 38 21  1  0  0  0  0
 39 40  1  0  0  0  0
 39 37  1  0  0  0  0
 41 42  1  0  0  0  0
 41 35  2  0  0  0  0
 42 32  2  0  0  0  0
 43 39  2  0  0  0  0
 44 31  1  0  0  0  0
 48 36  1  0  0  0  0
 51 41  1  0  0  0  0
 52 42  1  0  0  0  0
M  END
$$$$
