DFA.pdb
 OpenBabel07022418153D

 45 45  0  0  1  0  0  0  0  0999 V2000
   -0.3720   -0.5790    3.5920 N   0  0  0  0  0  0  0  0  0  0  0  0
    0.8240   -1.1480    3.0290 C   0  0  1  0  0  0  0  0  0  0  0  0
    0.7780   -2.6550    3.3060 C   0  0  0  0  0  0  0  0  0  0  0  0
    0.7250   -2.8040    4.7680 C   0  0  0  0  0  0  0  0  0  0  0  0
    1.5930   -2.2250    5.4690 O   0  0  0  0  0  0  0  0  0  0  0  0
    1.0250   -0.8520    1.5980 C   0  0  0  0  0  0  0  0  0  0  0  0
    2.0140   -1.3730    1.0350 O   0  0  0  0  0  0  0  0  0  0  0  0
   -0.2500   -3.5540    5.3760 O   0  0  0  0  0  0  0  0  0  0  0  0
   -0.3880    0.4690    3.5220 H   0  0  0  0  0  0  0  0  0  0  0  0
   -1.2450   -1.0450    3.2680 H   0  0  0  0  0  0  0  0  0  0  0  0
    1.6890   -0.7580    3.6350 H   0  0  0  0  0  0  0  0  0  0  0  0
   -0.1440   -3.0790    2.8730 H   0  0  0  0  0  0  0  0  0  0  0  0
    1.6800   -3.1450    2.8540 H   0  0  0  0  0  0  0  0  0  0  0  0
   -0.3400   -3.6990    6.3690 H   0  0  0  0  0  0  0  0  0  0  0  0
    0.1210   -0.0070    0.9020 N   0  0  0  0  0  0  0  0  0  0  0  0
    0.2540    0.3330   -0.4850 C   0  0  1  0  0  0  0  0  0  0  0  0
    1.6430    0.7820   -0.8320 C   0  0  0  0  0  0  0  0  0  0  0  0
    1.9370    2.0080   -0.0430 C   0  0  0  0  0  0  0  0  0  0  0  0
    2.6140    2.0440    1.1420 C   0  0  0  0  0  0  0  0  0  0  0  0
    2.8300    3.2380    1.8410 C   0  0  0  0  0  0  0  0  0  0  0  0
    2.3680    4.4400    1.3630 C   0  0  0  0  0  0  0  0  0  0  0  0
    1.6830    4.4220    0.1690 C   0  0  0  0  0  0  0  0  0  0  0  0
    1.4710    3.2530   -0.5150 C   0  0  0  0  0  0  0  0  0  0  0  0
   -0.3870   -0.5940   -1.4070 C   0  0  0  0  0  0  0  0  0  0  0  0
   -0.3500   -0.4190   -2.6630 O   0  0  0  0  0  0  0  0  0  0  0  0
   -0.6860    0.3740    1.4740 H   0  0  0  0  0  0  0  0  0  0  0  0
   -0.3330    1.3340   -0.5990 H   0  0  0  0  0  0  0  0  0  0  0  0
    1.6010    1.1090   -1.9150 H   0  0  0  0  0  0  0  0  0  0  0  0
    2.4410    0.0650   -0.6850 H   0  0  0  0  0  0  0  0  0  0  0  0
    3.0120    1.1120    1.5470 H   0  0  0  0  0  0  0  0  0  0  0  0
    3.3800    3.2150    2.7880 H   0  0  0  0  0  0  0  0  0  0  0  0
    2.5460    5.3580    1.9200 H   0  0  0  0  0  0  0  0  0  0  0  0
    1.3050    5.3360   -0.2470 H   0  0  0  0  0  0  0  0  0  0  0  0
    0.9300    3.2250   -1.4700 H   0  0  0  0  0  0  0  0  0  0  0  0
   -1.3810   -4.1120   -1.6280 C   0  0  0  0  0  0  0  0  0  0  0  0
   -1.7460   -2.6850   -1.8330 C   0  0  2  0  0  0  0  0  0  0  0  0
   -1.0880   -1.7400   -0.9750 N   0  0  0  0  0  0  0  0  0  0  0  0
   -3.2240   -2.5710   -1.5280 C   0  0  0  0  0  0  0  0  0  0  0  0
   -3.6820   -1.7740   -0.6770 O   0  0  0  0  0  0  0  0  0  0  0  0
   -4.1220   -3.3710   -2.2130 O   0  0  0  0  0  0  0  0  0  0  0  0
   -2.1940   -4.7320   -2.1150 H   0  0  0  0  0  0  0  0  0  0  0  0
   -0.4660   -4.4070   -2.2120 H   0  0  0  0  0  0  0  0  0  0  0  0
   -1.3400   -4.4380   -0.5770 H   0  0  0  0  0  0  0  0  0  0  0  0
   -1.6490   -2.4340   -2.8940 H   0  0  0  0  0  0  0  0  0  0  0  0
   -1.1380   -1.9230    0.0580 H   0  0  0  0  0  0  0  0  0  0  0  0
  2  3  1  0  0  0  0
  2  1  1  0  0  0  0
  2 11  1  1  0  0  0
  3  4  1  0  0  0  0
  4  8  1  0  0  0  0
  4  5  2  0  0  0  0
  6  2  1  0  0  0  0
  7  6  2  0  0  0  0
  8 14  1  0  0  0  0
  9  1  1  0  0  0  0
 10  1  1  0  0  0  0
 12  3  1  0  0  0  0
 13  3  1  0  0  0  0
 15 26  1  0  0  0  0
 15  6  1  0  0  0  0
 16 27  1  6  0  0  0
 16 15  1  0  0  0  0
 17 29  1  0  0  0  0
 17 16  1  0  0  0  0
 17 18  1  0  0  0  0
 18 19  1  0  0  0  0
 19 30  1  0  0  0  0
 19 20  2  0  0  0  0
 20 31  1  0  0  0  0
 21 20  1  0  0  0  0
 21 32  1  0  0  0  0
 22 21  2  0  0  0  0
 23 18  2  0  0  0  0
 23 22  1  0  0  0  0
 24 37  1  0  0  0  0
 24 16  1  0  0  0  0
 25 24  2  0  0  0  0
 28 17  1  0  0  0  0
 33 22  1  0  0  0  0
 34 23  1  0  0  0  0
 35 43  1  0  0  0  0
 36 44  1  6  0  0  0
 36 35  1  0  0  0  0
 36 38  1  0  0  0  0
 36 37  1  0  0  0  0
 37 45  1  0  0  0  0
 38 39  1  0  0  0  0
 40 38  2  0  0  0  0
 41 35  1  0  0  0  0
 42 35  1  0  0  0  0
M  END
$$$$
