DFC.pdb
 OpenBabel07022418153D

 46 46  0  0  1  0  0  0  0  0999 V2000
    3.6360   -4.1560    1.0890 N   0  0  0  0  0  0  0  0  0  0  0  0
    2.2000   -3.8210    0.8730 C   0  0  1  0  0  0  0  0  0  0  0  0
    1.5040   -4.5520    2.0150 C   0  0  0  0  0  0  0  0  0  0  0  0
    0.0490   -4.4200    2.0290 C   0  0  0  0  0  0  0  0  0  0  0  0
   -0.5370   -4.8630    3.0790 O   0  0  0  0  0  0  0  0  0  0  0  0
    2.0290   -2.3670    1.0920 C   0  0  0  0  0  0  0  0  0  0  0  0
    2.8030   -1.8250    1.9550 O   0  0  0  0  0  0  0  0  0  0  0  0
   -0.7650   -3.8890    1.0680 O   0  0  0  0  0  0  0  0  0  0  0  0
    4.0000   -3.5810    1.8570 H   0  0  0  0  0  0  0  0  0  0  0  0
    3.6770   -5.1580    1.3790 H   0  0  0  0  0  0  0  0  0  0  0  0
    1.9230   -4.1710   -0.1040 H   0  0  0  0  0  0  0  0  0  0  0  0
    1.8120   -5.6410    1.9960 H   0  0  0  0  0  0  0  0  0  0  0  0
    1.8990   -4.1920    3.0000 H   0  0  0  0  0  0  0  0  0  0  0  0
   -1.7360   -3.5860    1.2400 H   0  0  0  0  0  0  0  0  0  0  0  0
    1.1250   -1.4990    0.4640 N   0  0  0  0  0  0  0  0  0  0  0  0
    1.0600   -0.0770    0.7680 C   0  0  1  0  0  0  0  0  0  0  0  0
    1.8430    0.7070   -0.2890 C   0  0  0  0  0  0  0  0  0  0  0  0
    1.7530    2.1380    0.0430 C   0  0  0  0  0  0  0  0  0  0  0  0
    0.7930    2.9820   -0.5010 C   0  0  0  0  0  0  0  0  0  0  0  0
    0.7130    4.3170   -0.1780 C   0  0  0  0  0  0  0  0  0  0  0  0
    1.5970    4.8940    0.7160 C   0  0  0  0  0  0  0  0  0  0  0  0
    2.5490    4.0490    1.2520 C   0  0  0  0  0  0  0  0  0  0  0  0
    2.6440    2.7110    0.9410 C   0  0  0  0  0  0  0  0  0  0  0  0
   -0.3280    0.3590    0.9120 C   0  0  0  0  0  0  0  0  0  0  0  0
   -0.6160    1.5520    1.2950 O   0  0  0  0  0  0  0  0  0  0  0  0
    0.4920   -1.9000   -0.2540 H   0  0  0  0  0  0  0  0  0  0  0  0
    1.6140    0.1560    1.7120 H   0  0  0  0  0  0  0  0  0  0  0  0
    2.9080    0.4000   -0.1470 H   0  0  0  0  0  0  0  0  0  0  0  0
    1.5390    0.4530   -1.3050 H   0  0  0  0  0  0  0  0  0  0  0  0
    0.0960    2.5180   -1.2090 H   0  0  0  0  0  0  0  0  0  0  0  0
   -0.0590    4.9530   -0.6270 H   0  0  0  0  0  0  0  0  0  0  0  0
    1.5350    5.9410    0.9710 H   0  0  0  0  0  0  0  0  0  0  0  0
    3.2490    4.4920    1.9560 H   0  0  0  0  0  0  0  0  0  0  0  0
    3.3990    2.0610    1.3720 H   0  0  0  0  0  0  0  0  0  0  0  0
   -1.4840   -0.4390    0.6580 N   0  0  0  0  0  0  0  0  0  0  0  0
   -2.8270    0.0530    0.8200 C   0  0  1  0  0  0  0  0  0  0  0  0
   -3.6360   -0.0430   -0.4410 C   0  0  0  0  0  0  0  0  0  0  0  0
   -3.8090   -1.7200   -1.0700 S   0  0  0  0  0  0  0  0  0  0  0  0
   -3.5310   -0.6500    1.9310 C   0  0  0  0  0  0  0  0  0  0  0  0
   -2.9800   -1.5480    2.6040 O   0  0  0  0  0  0  0  0  0  0  0  0
   -4.8370   -0.2880    2.2180 O   0  0  0  0  0  0  0  0  0  0  0  0
   -1.3660   -1.4000    0.3390 H   0  0  0  0  0  0  0  0  0  0  0  0
   -2.7690    1.1380    1.0800 H   0  0  0  0  0  0  0  0  0  0  0  0
   -4.6850    0.3130   -0.2130 H   0  0  0  0  0  0  0  0  0  0  0  0
   -3.2840    0.6370   -1.2340 H   0  0  0  0  0  0  0  0  0  0  0  0
   -5.1000   -1.9730   -1.5720 H   0  0  0  0  0  0  0  0  0  0  0  0
  1 10  1  0  0  0  0
  1  9  1  0  0  0  0
  2 11  1  6  0  0  0
  2  1  1  0  0  0  0
  2  6  1  0  0  0  0
  2  3  1  0  0  0  0
  3  4  1  0  0  0  0
  3 13  1  0  0  0  0
  4  5  2  0  0  0  0
  6  7  2  0  0  0  0
  8 14  1  0  0  0  0
  8  4  1  0  0  0  0
 12  3  1  0  0  0  0
 15 16  1  0  0  0  0
 15  6  1  0  0  0  0
 16 24  1  0  0  0  0
 16 27  1  1  0  0  0
 17 28  1  0  0  0  0
 17 18  1  0  0  0  0
 17 16  1  0  0  0  0
 18 23  1  0  0  0  0
 19 20  1  0  0  0  0
 19 18  2  0  0  0  0
 20 21  2  0  0  0  0
 21 32  1  0  0  0  0
 21 22  1  0  0  0  0
 22 33  1  0  0  0  0
 23 22  2  0  0  0  0
 23 34  1  0  0  0  0
 24 25  2  0  0  0  0
 26 15  1  0  0  0  0
 29 17  1  0  0  0  0
 30 19  1  0  0  0  0
 31 20  1  0  0  0  0
 35 36  1  0  0  0  0
 35 24  1  0  0  0  0
 36 43  1  1  0  0  0
 36 39  1  0  0  0  0
 37 44  1  0  0  0  0
 37 36  1  0  0  0  0
 38 37  1  0  0  0  0
 39 41  2  0  0  0  0
 39 40  1  0  0  0  0
 42 35  1  0  0  0  0
 45 37  1  0  0  0  0
 46 38  1  0  0  0  0
M  END
$$$$
