DFI.pdb
 OpenBabel07022418153D

 54 54  0  0  1  0  0  0  0  0999 V2000
   -0.9160    2.0530   -1.7710 N   0  0  0  0  0  0  0  0  0  0  0  0
    0.3550    1.4070   -1.8580 C   0  0  1  0  0  0  0  0  0  0  0  0
    1.4720    2.3610   -2.0970 C   0  0  0  0  0  0  0  0  0  0  0  0
    1.2170    3.0630   -3.3750 C   0  0  0  0  0  0  0  0  0  0  0  0
    0.1880    2.8270   -4.0750 O   0  0  0  0  0  0  0  0  0  0  0  0
    0.5520    0.5670   -0.6190 C   0  0  0  0  0  0  0  0  0  0  0  0
   -0.3290    0.5180    0.2670 O   0  0  0  0  0  0  0  0  0  0  0  0
    2.0880    4.0140   -3.8730 O   0  0  0  0  0  0  0  0  0  0  0  0
   -1.7000    1.4060   -1.6570 H   0  0  0  0  0  0  0  0  0  0  0  0
   -0.9450    2.8050   -1.0470 H   0  0  0  0  0  0  0  0  0  0  0  0
    0.3070    0.7250   -2.7570 H   0  0  0  0  0  0  0  0  0  0  0  0
    1.6170    3.0570   -1.2520 H   0  0  0  0  0  0  0  0  0  0  0  0
    2.4100    1.7450   -2.2170 H   0  0  0  0  0  0  0  0  0  0  0  0
    1.7980    4.6800   -4.6060 H   0  0  0  0  0  0  0  0  0  0  0  0
    1.7410   -0.1880   -0.4310 N   0  0  0  0  0  0  0  0  0  0  0  0
    2.0460   -1.0220    0.6830 C   0  0  1  0  0  0  0  0  0  0  0  0
    2.5100   -0.3640    1.9280 C   0  0  0  0  0  0  0  0  0  0  0  0
    1.6090    0.6050    2.5500 C   0  0  0  0  0  0  0  0  0  0  0  0
    1.7500    1.9380    2.2150 C   0  0  0  0  0  0  0  0  0  0  0  0
    0.8980    2.8450    2.8040 C   0  0  0  0  0  0  0  0  0  0  0  0
   -0.0680    2.4720    3.6950 C   0  0  0  0  0  0  0  0  0  0  0  0
   -0.1800    1.1300    4.0050 C   0  0  0  0  0  0  0  0  0  0  0  0
    0.6510    0.1960    3.4390 C   0  0  0  0  0  0  0  0  0  0  0  0
    1.1240   -2.1750    0.8890 C   0  0  0  0  0  0  0  0  0  0  0  0
    1.2850   -2.9260    1.9120 O   0  0  0  0  0  0  0  0  0  0  0  0
    2.4320   -0.0680   -1.2450 H   0  0  0  0  0  0  0  0  0  0  0  0
    3.0060   -1.6030    0.3280 H   0  0  0  0  0  0  0  0  0  0  0  0
    2.8070   -1.1790    2.6590 H   0  0  0  0  0  0  0  0  0  0  0  0
    3.4960    0.1620    1.7520 H   0  0  0  0  0  0  0  0  0  0  0  0
    2.5230    2.2460    1.5020 H   0  0  0  0  0  0  0  0  0  0  0  0
    1.0110    3.9090    2.5380 H   0  0  0  0  0  0  0  0  0  0  0  0
   -0.7150    3.1930    4.1360 H   0  0  0  0  0  0  0  0  0  0  0  0
   -0.9490    0.8450    4.7120 H   0  0  0  0  0  0  0  0  0  0  0  0
    0.5560   -0.8360    3.6860 H   0  0  0  0  0  0  0  0  0  0  0  0
   -2.2160   -3.1070    2.8320 C   0  0  0  0  0  0  0  0  0  0  0  0
   -2.3310   -2.2600    1.5740 C   0  0  0  0  0  0  0  0  0  0  0  0
   -2.2410   -3.1340    0.3570 C   0  0  2  0  0  0  0  0  0  0  0  0
   -3.3030   -4.1850    0.3040 C   0  0  0  0  0  0  0  0  0  0  0  0
   -0.8350   -3.6440    0.2070 C   0  0  2  0  0  0  0  0  0  0  0  0
    0.0640   -2.5220    0.0290 N   0  0  0  0  0  0  0  0  0  0  0  0
   -0.7270   -4.6200   -0.9080 C   0  0  0  0  0  0  0  0  0  0  0  0
    0.0470   -4.4900   -1.8800 O   0  0  0  0  0  0  0  0  0  0  0  0
   -1.5290   -5.7530   -0.8810 O   0  0  0  0  0  0  0  0  0  0  0  0
   -2.6180   -2.5040    3.6780 H   0  0  0  0  0  0  0  0  0  0  0  0
   -1.1730   -3.3690    2.9760 H   0  0  0  0  0  0  0  0  0  0  0  0
   -2.8630   -4.0120    2.6500 H   0  0  0  0  0  0  0  0  0  0  0  0
   -3.2950   -1.7300    1.5910 H   0  0  0  0  0  0  0  0  0  0  0  0
   -1.5210   -1.5050    1.5770 H   0  0  0  0  0  0  0  0  0  0  0  0
   -2.4270   -2.4640   -0.5390 H   0  0  0  0  0  0  0  0  0  0  0  0
   -4.2220   -3.7740    0.7400 H   0  0  0  0  0  0  0  0  0  0  0  0
   -3.5110   -4.4310   -0.7460 H   0  0  0  0  0  0  0  0  0  0  0  0
   -3.0190   -5.1250    0.8180 H   0  0  0  0  0  0  0  0  0  0  0  0
   -0.6020   -4.2210    1.1310 H   0  0  0  0  0  0  0  0  0  0  0  0
   -0.0630   -1.9010   -0.8260 H   0  0  0  0  0  0  0  0  0  0  0  0
  1  9  1  0  0  0  0
  1 10  1  0  0  0  0
  2 11  1  6  0  0  0
  2  1  1  0  0  0  0
  2  6  1  0  0  0  0
  3  2  1  0  0  0  0
  3 12  1  0  0  0  0
  4  3  1  0  0  0  0
  5  4  2  0  0  0  0
  6 15  1  0  0  0  0
  6  7  2  0  0  0  0
  8  4  1  0  0  0  0
 13  3  1  0  0  0  0
 14  8  1  0  0  0  0
 15 16  1  0  0  0  0
 16 27  1  6  0  0  0
 16 24  1  0  0  0  0
 16 17  1  0  0  0  0
 17 18  1  0  0  0  0
 17 28  1  0  0  0  0
 18 23  1  0  0  0  0
 19 18  2  0  0  0  0
 19 20  1  0  0  0  0
 20 21  2  0  0  0  0
 21 22  1  0  0  0  0
 21 32  1  0  0  0  0
 22 33  1  0  0  0  0
 23 34  1  0  0  0  0
 23 22  2  0  0  0  0
 24 25  2  0  0  0  0
 26 15  1  0  0  0  0
 29 17  1  0  0  0  0
 30 19  1  0  0  0  0
 31 20  1  0  0  0  0
 35 45  1  0  0  0  0
 35 44  1  0  0  0  0
 36 48  1  0  0  0  0
 36 47  1  0  0  0  0
 36 35  1  0  0  0  0
 37 49  1  6  0  0  0
 37 36  1  0  0  0  0
 38 37  1  0  0  0  0
 38 50  1  0  0  0  0
 38 52  1  0  0  0  0
 39 37  1  0  0  0  0
 39 53  1  1  0  0  0
 40 39  1  0  0  0  0
 40 24  1  0  0  0  0
 41 43  1  0  0  0  0
 41 39  1  0  0  0  0
 42 41  2  0  0  0  0
 46 35  1  0  0  0  0
 51 38  1  0  0  0  0
 54 40  1  0  0  0  0
M  END
$$$$
