DFL.pdb
 OpenBabel07022418153D

 54 54  0  0  1  0  0  0  0  0999 V2000
    3.1930    1.2560    3.3570 N   0  0  0  0  0  0  0  0  0  0  0  0
    2.6370    0.8280    2.1090 C   0  0  1  0  0  0  0  0  0  0  0  0
    3.1350   -0.5400    1.7140 C   0  0  0  0  0  0  0  0  0  0  0  0
    4.6110   -0.4510    1.5950 C   0  0  0  0  0  0  0  0  0  0  0  0
    5.2460   -1.4860    1.2710 O   0  0  0  0  0  0  0  0  0  0  0  0
    1.1350    0.8840    2.1240 C   0  0  0  0  0  0  0  0  0  0  0  0
    0.5560    1.2720    3.1570 O   0  0  0  0  0  0  0  0  0  0  0  0
    5.3450    0.7050    1.8170 O   0  0  0  0  0  0  0  0  0  0  0  0
    2.5290    1.8780    3.8630 H   0  0  0  0  0  0  0  0  0  0  0  0
    3.4670    0.4300    3.9340 H   0  0  0  0  0  0  0  0  0  0  0  0
    2.9460    1.5250    1.2920 H   0  0  0  0  0  0  0  0  0  0  0  0
    2.7500   -0.7770    0.6950 H   0  0  0  0  0  0  0  0  0  0  0  0
    2.8930   -1.3290    2.4290 H   0  0  0  0  0  0  0  0  0  0  0  0
    6.3220    0.7670    1.5320 H   0  0  0  0  0  0  0  0  0  0  0  0
    0.3510    0.5160    1.0160 N   0  0  0  0  0  0  0  0  0  0  0  0
   -1.0860    0.5540    0.9860 C   0  0  1  0  0  0  0  0  0  0  0  0
   -1.5860    1.5300   -0.0800 C   0  0  0  0  0  0  0  0  0  0  0  0
   -1.1150    2.8970    0.1680 C   0  0  0  0  0  0  0  0  0  0  0  0
    0.0810    3.3340   -0.3670 C   0  0  0  0  0  0  0  0  0  0  0  0
    0.5200    4.6220   -0.1320 C   0  0  0  0  0  0  0  0  0  0  0  0
   -0.2090    5.5110    0.6370 C   0  0  0  0  0  0  0  0  0  0  0  0
   -1.3940    5.0810    1.1690 C   0  0  0  0  0  0  0  0  0  0  0  0
   -1.8320    3.8000    0.9350 C   0  0  0  0  0  0  0  0  0  0  0  0
   -1.6930   -0.7710    0.7100 C   0  0  0  0  0  0  0  0  0  0  0  0
   -2.9520   -0.8170    0.6680 O   0  0  0  0  0  0  0  0  0  0  0  0
    0.8360    0.1910    0.1520 H   0  0  0  0  0  0  0  0  0  0  0  0
   -1.5300    0.9090    1.9400 H   0  0  0  0  0  0  0  0  0  0  0  0
   -2.6720    1.4710   -0.1950 H   0  0  0  0  0  0  0  0  0  0  0  0
   -1.1120    1.1810   -1.0370 H   0  0  0  0  0  0  0  0  0  0  0  0
    0.7010    2.6700   -0.9870 H   0  0  0  0  0  0  0  0  0  0  0  0
    1.4530    4.9930   -0.5380 H   0  0  0  0  0  0  0  0  0  0  0  0
    0.1330    6.5300    0.8270 H   0  0  0  0  0  0  0  0  0  0  0  0
   -2.0210    5.7290    1.7870 H   0  0  0  0  0  0  0  0  0  0  0  0
   -2.7710    3.4830    1.3660 H   0  0  0  0  0  0  0  0  0  0  0  0
   -1.2320   -5.7390   -2.6530 C   0  0  0  0  0  0  0  0  0  0  0  0
   -1.7630   -5.1580   -1.3410 C   0  0  0  0  0  0  0  0  0  0  0  0
   -3.2550   -5.0290   -1.5030 C   0  0  0  0  0  0  0  0  0  0  0  0
   -1.1030   -3.8400   -1.0390 C   0  0  0  0  0  0  0  0  0  0  0  0
   -1.6250   -3.2590    0.2240 C   0  0  2  0  0  0  0  0  0  0  0  0
   -0.9760   -1.9500    0.4970 N   0  0  0  0  0  0  0  0  0  0  0  0
   -1.2850   -4.1360    1.3710 C   0  0  0  0  0  0  0  0  0  0  0  0
   -1.7180   -5.3040    1.5210 O   0  0  0  0  0  0  0  0  0  0  0  0
   -0.4310   -3.6960    2.3900 O   0  0  0  0  0  0  0  0  0  0  0  0
   -1.2320   -4.9580   -3.4580 H   0  0  0  0  0  0  0  0  0  0  0  0
   -1.8980   -6.5490   -3.0150 H   0  0  0  0  0  0  0  0  0  0  0  0
   -0.2120   -6.1160   -2.5670 H   0  0  0  0  0  0  0  0  0  0  0  0
   -1.5700   -5.9500   -0.5960 H   0  0  0  0  0  0  0  0  0  0  0  0
   -3.5260   -4.1940   -2.1800 H   0  0  0  0  0  0  0  0  0  0  0  0
   -3.6590   -6.0010   -1.8180 H   0  0  0  0  0  0  0  0  0  0  0  0
   -3.6780   -4.7940   -0.5070 H   0  0  0  0  0  0  0  0  0  0  0  0
    0.0000   -4.0810   -0.9550 H   0  0  0  0  0  0  0  0  0  0  0  0
   -1.1440   -3.1480   -1.9050 H   0  0  0  0  0  0  0  0  0  0  0  0
   -2.7240   -3.1360    0.2190 H   0  0  0  0  0  0  0  0  0  0  0  0
    0.0620   -1.9120    0.5320 H   0  0  0  0  0  0  0  0  0  0  0  0
  1  9  1  0  0  0  0
  1 10  1  0  0  0  0
  2 11  1  6  0  0  0
  2  6  1  0  0  0  0
  2  1  1  0  0  0  0
  3  2  1  0  0  0  0
  3 13  1  0  0  0  0
  4  3  1  0  0  0  0
  4  8  1  0  0  0  0
  5  4  2  0  0  0  0
  6  7  2  0  0  0  0
 12  3  1  0  0  0  0
 14  8  1  0  0  0  0
 15  6  1  0  0  0  0
 16 15  1  0  0  0  0
 16 27  1  1  0  0  0
 17 18  1  0  0  0  0
 17 16  1  0  0  0  0
 18 23  1  0  0  0  0
 19 20  1  0  0  0  0
 19 18  2  0  0  0  0
 20 21  2  0  0  0  0
 21 32  1  0  0  0  0
 21 22  1  0  0  0  0
 22 33  1  0  0  0  0
 23 22  2  0  0  0  0
 23 34  1  0  0  0  0
 24 16  1  0  0  0  0
 25 24  2  0  0  0  0
 26 15  1  0  0  0  0
 28 17  1  0  0  0  0
 29 17  1  0  0  0  0
 30 19  1  0  0  0  0
 31 20  1  0  0  0  0
 35 46  1  0  0  0  0
 35 36  1  0  0  0  0
 36 38  1  0  0  0  0
 36 47  1  0  0  0  0
 37 36  1  0  0  0  0
 37 50  1  0  0  0  0
 38 51  1  0  0  0  0
 38 39  1  0  0  0  0
 39 53  1  6  0  0  0
 39 40  1  0  0  0  0
 39 41  1  0  0  0  0
 40 54  1  0  0  0  0
 40 24  1  0  0  0  0
 41 42  2  0  0  0  0
 41 43  1  0  0  0  0
 44 35  1  0  0  0  0
 45 35  1  0  0  0  0
 48 37  1  0  0  0  0
 49 37  1  0  0  0  0
 52 38  1  0  0  0  0
M  END
$$$$
