DFN.pdb
 OpenBabel07022418153D

 49 49  0  0  1  0  0  0  0  0999 V2000
   -0.1750    2.3110    0.0200 N   0  0  0  0  0  0  0  0  0  0  0  0
    1.1540    1.9450   -0.3560 C   0  0  1  0  0  0  0  0  0  0  0  0
    2.1420    2.9280    0.1860 C   0  0  0  0  0  0  0  0  0  0  0  0
    1.8320    4.2670   -0.3600 C   0  0  0  0  0  0  0  0  0  0  0  0
    0.8800    4.4440   -1.1340 O   0  0  0  0  0  0  0  0  0  0  0  0
    1.4820    0.5360   -0.0410 C   0  0  0  0  0  0  0  0  0  0  0  0
    2.6300    0.1050   -0.3210 O   0  0  0  0  0  0  0  0  0  0  0  0
    2.6290    5.3340    0.0110 O   0  0  0  0  0  0  0  0  0  0  0  0
   -0.3170    2.2240    1.0540 H   0  0  0  0  0  0  0  0  0  0  0  0
   -0.8850    1.6760   -0.4150 H   0  0  0  0  0  0  0  0  0  0  0  0
    1.2030    2.0220   -1.4820 H   0  0  0  0  0  0  0  0  0  0  0  0
    2.0550    2.9160    1.3110 H   0  0  0  0  0  0  0  0  0  0  0  0
    3.1890    2.6820   -0.0880 H   0  0  0  0  0  0  0  0  0  0  0  0
    2.4610    6.2930   -0.2620 H   0  0  0  0  0  0  0  0  0  0  0  0
    0.5390   -0.3350    0.5660 N   0  0  0  0  0  0  0  0  0  0  0  0
    0.8790   -1.7250    0.8710 C   0  0  1  0  0  0  0  0  0  0  0  0
    0.7850   -1.8910    2.3730 C   0  0  0  0  0  0  0  0  0  0  0  0
    1.7300   -0.9760    3.0820 C   0  0  0  0  0  0  0  0  0  0  0  0
    1.3650    0.2850    3.4630 C   0  0  0  0  0  0  0  0  0  0  0  0
    2.2670    1.0890    4.1120 C   0  0  0  0  0  0  0  0  0  0  0  0
    3.5610    0.6700    4.4050 C   0  0  0  0  0  0  0  0  0  0  0  0
    3.8980   -0.6080    4.0070 C   0  0  0  0  0  0  0  0  0  0  0  0
    3.0000   -1.4250    3.3540 C   0  0  0  0  0  0  0  0  0  0  0  0
   -0.0770   -2.6670    0.2470 C   0  0  0  0  0  0  0  0  0  0  0  0
    0.0930   -3.8900    0.4210 O   0  0  0  0  0  0  0  0  0  0  0  0
   -0.4010    0.0540    0.7850 H   0  0  0  0  0  0  0  0  0  0  0  0
    1.9120   -1.9520    0.5730 H   0  0  0  0  0  0  0  0  0  0  0  0
    0.9030   -2.9290    2.7040 H   0  0  0  0  0  0  0  0  0  0  0  0
   -0.2410   -1.5630    2.6820 H   0  0  0  0  0  0  0  0  0  0  0  0
    0.3660    0.6580    3.2560 H   0  0  0  0  0  0  0  0  0  0  0  0
    2.0080    2.1070    4.4320 H   0  0  0  0  0  0  0  0  0  0  0  0
    4.2690    1.3120    4.9190 H   0  0  0  0  0  0  0  0  0  0  0  0
    4.9050   -0.9570    4.2260 H   0  0  0  0  0  0  0  0  0  0  0  0
    3.3210   -2.4420    3.0560 H   0  0  0  0  0  0  0  0  0  0  0  0
   -5.8660   -3.8780   -0.7780 N   0  0  0  0  0  0  0  0  0  0  0  0
   -4.4660   -4.0060   -1.1040 C   0  0  0  0  0  0  0  0  0  0  0  0
   -4.1920   -4.9940   -1.8200 O   0  0  0  0  0  0  0  0  0  0  0  0
   -3.4650   -3.0640   -0.6350 C   0  0  0  0  0  0  0  0  0  0  0  0
   -2.0710   -3.2600   -1.1200 C   0  0  2  0  0  0  0  0  0  0  0  0
   -1.1730   -2.2520   -0.5370 N   0  0  0  0  0  0  0  0  0  0  0  0
   -1.8900   -3.1130   -2.5840 C   0  0  0  0  0  0  0  0  0  0  0  0
   -2.5210   -3.8610   -3.3540 O   0  0  0  0  0  0  0  0  0  0  0  0
   -1.0480   -2.1820   -3.1750 O   0  0  0  0  0  0  0  0  0  0  0  0
   -6.1830   -3.6630    0.1940 H   0  0  0  0  0  0  0  0  0  0  0  0
   -6.5500   -4.0060   -1.5440 H   0  0  0  0  0  0  0  0  0  0  0  0
   -3.3960   -3.0780    0.4960 H   0  0  0  0  0  0  0  0  0  0  0  0
   -3.8160   -2.0050   -0.8340 H   0  0  0  0  0  0  0  0  0  0  0  0
   -1.7210   -4.2620   -0.8320 H   0  0  0  0  0  0  0  0  0  0  0  0
   -1.3600   -1.2430   -0.7130 H   0  0  0  0  0  0  0  0  0  0  0  0
  1  9  1  0  0  0  0
  2 11  1  6  0  0  0
  2  6  1  0  0  0  0
  2  1  1  0  0  0  0
  2  3  1  0  0  0  0
  3 12  1  0  0  0  0
  4  8  1  0  0  0  0
  4  3  1  0  0  0  0
  5  4  2  0  0  0  0
  6 15  1  0  0  0  0
  7  6  2  0  0  0  0
 10  1  1  0  0  0  0
 13  3  1  0  0  0  0
 14  8  1  0  0  0  0
 15 26  1  0  0  0  0
 15 16  1  0  0  0  0
 16 27  1  6  0  0  0
 16 17  1  0  0  0  0
 17 29  1  0  0  0  0
 17 28  1  0  0  0  0
 17 18  1  0  0  0  0
 18 23  2  0  0  0  0
 18 19  1  0  0  0  0
 19 20  2  0  0  0  0
 20 21  1  0  0  0  0
 20 31  1  0  0  0  0
 21 32  1  0  0  0  0
 22 33  1  0  0  0  0
 22 21  2  0  0  0  0
 23 22  1  0  0  0  0
 24 25  2  0  0  0  0
 24 16  1  0  0  0  0
 30 19  1  0  0  0  0
 34 23  1  0  0  0  0
 35 44  1  0  0  0  0
 36 35  1  0  0  0  0
 36 38  1  0  0  0  0
 37 36  2  0  0  0  0
 38 46  1  0  0  0  0
 39 48  1  1  0  0  0
 39 38  1  0  0  0  0
 39 40  1  0  0  0  0
 40 24  1  0  0  0  0
 41 39  1  0  0  0  0
 42 41  2  0  0  0  0
 43 41  1  0  0  0  0
 45 35  1  0  0  0  0
 47 38  1  0  0  0  0
 49 40  1  0  0  0  0
M  END
$$$$
