DFP.pdb
 OpenBabel07022418153D

 49 50  0  0  1  0  0  0  0  0999 V2000
   -1.3890   -0.8980    4.2060 N   0  0  0  0  0  0  0  0  0  0  0  0
   -1.2660   -0.0440    3.0060 C   0  0  1  0  0  0  0  0  0  0  0  0
   -0.9010    1.3060    3.5170 C   0  0  0  0  0  0  0  0  0  0  0  0
   -0.7420    2.3060    2.4570 C   0  0  0  0  0  0  0  0  0  0  0  0
    0.3580    2.6630    2.0120 O   0  0  0  0  0  0  0  0  0  0  0  0
   -0.2670   -0.6650    2.0920 C   0  0  0  0  0  0  0  0  0  0  0  0
    0.3630   -1.6580    2.5310 O   0  0  0  0  0  0  0  0  0  0  0  0
   -1.9140    2.8800    1.9310 O   0  0  0  0  0  0  0  0  0  0  0  0
   -0.4170   -0.8840    4.6280 H   0  0  0  0  0  0  0  0  0  0  0  0
   -1.4980   -1.8690    3.8250 H   0  0  0  0  0  0  0  0  0  0  0  0
   -2.2660    0.0020    2.5550 H   0  0  0  0  0  0  0  0  0  0  0  0
   -1.7490    1.6550    4.1670 H   0  0  0  0  0  0  0  0  0  0  0  0
   -0.0280    1.2800    4.2130 H   0  0  0  0  0  0  0  0  0  0  0  0
   -1.8830    3.6580    1.3010 H   0  0  0  0  0  0  0  0  0  0  0  0
   -0.0810   -0.1210    0.7980 N   0  0  0  0  0  0  0  0  0  0  0  0
    0.8640   -0.6550   -0.1210 C   0  0  1  0  0  0  0  0  0  0  0  0
    2.1810   -0.9750    0.5450 C   0  0  0  0  0  0  0  0  0  0  0  0
    2.8260    0.2460    1.1220 C   0  0  0  0  0  0  0  0  0  0  0  0
    3.5290    1.0310    0.2240 C   0  0  0  0  0  0  0  0  0  0  0  0
    4.1880    2.1560    0.6130 C   0  0  0  0  0  0  0  0  0  0  0  0
    4.1560    2.5250    1.9280 C   0  0  0  0  0  0  0  0  0  0  0  0
    3.4740    1.7750    2.8330 C   0  0  0  0  0  0  0  0  0  0  0  0
    2.8000    0.6180    2.4230 C   0  0  0  0  0  0  0  0  0  0  0  0
    0.3990   -1.7080   -1.0200 C   0  0  0  0  0  0  0  0  0  0  0  0
    1.3360   -2.2550   -1.7230 O   0  0  0  0  0  0  0  0  0  0  0  0
   -0.6940    0.7200    0.5110 H   0  0  0  0  0  0  0  0  0  0  0  0
    1.2200    0.2550   -0.8030 H   0  0  0  0  0  0  0  0  0  0  0  0
    2.1410   -1.8010    1.2630 H   0  0  0  0  0  0  0  0  0  0  0  0
    2.9220   -1.3380   -0.2560 H   0  0  0  0  0  0  0  0  0  0  0  0
    3.5400    0.7130   -0.8290 H   0  0  0  0  0  0  0  0  0  0  0  0
    4.7360    2.7540   -0.1270 H   0  0  0  0  0  0  0  0  0  0  0  0
    4.6700    3.4100    2.2490 H   0  0  0  0  0  0  0  0  0  0  0  0
    3.4510    2.0780    3.8840 H   0  0  0  0  0  0  0  0  0  0  0  0
    2.2830    0.0390    3.1550 H   0  0  0  0  0  0  0  0  0  0  0  0
   -0.9090   -2.1700   -1.1960 N   0  0  0  0  0  0  0  0  0  0  0  0
   -2.1810   -1.8170   -0.6530 C   0  0  0  0  0  0  0  0  0  0  0  0
   -2.6940   -3.2170   -0.2750 C   0  0  0  0  0  0  0  0  0  0  0  0
   -2.5420   -3.8570   -1.6630 C   0  0  0  0  0  0  0  0  0  0  0  0
   -1.2430   -3.2850   -2.1170 C   0  0  1  0  0  0  0  0  0  0  0  0
   -1.2140   -2.8070   -3.5000 C   0  0  0  0  0  0  0  0  0  0  0  0
   -0.9120   -1.6080   -3.7310 O   0  0  0  0  0  0  0  0  0  0  0  0
   -1.5120   -3.6490   -4.5530 O   0  0  0  0  0  0  0  0  0  0  0  0
   -2.2330   -1.0950    0.1330 H   0  0  0  0  0  0  0  0  0  0  0  0
   -2.8350   -1.5480   -1.5430 H   0  0  0  0  0  0  0  0  0  0  0  0
   -3.7220   -3.2090    0.0740 H   0  0  0  0  0  0  0  0  0  0  0  0
   -1.9640   -3.7220    0.3630 H   0  0  0  0  0  0  0  0  0  0  0  0
   -3.3540   -3.3960   -2.2800 H   0  0  0  0  0  0  0  0  0  0  0  0
   -2.5840   -4.9480   -1.6190 H   0  0  0  0  0  0  0  0  0  0  0  0
   -0.4590   -4.0770   -1.9220 H   0  0  0  0  0  0  0  0  0  0  0  0
  1  9  1  0  0  0  0
  2 11  1  6  0  0  0
  2  3  1  0  0  0  0
  2  1  1  0  0  0  0
  3 12  1  0  0  0  0
  3 13  1  0  0  0  0
  4  3  1  0  0  0  0
  5  4  2  0  0  0  0
  6  7  2  0  0  0  0
  6  2  1  0  0  0  0
  8  4  1  0  0  0  0
 10  1  1  0  0  0  0
 14  8  1  0  0  0  0
 15  6  1  0  0  0  0
 16 27  1  6  0  0  0
 16 17  1  0  0  0  0
 16 15  1  0  0  0  0
 17 18  1  0  0  0  0
 17 28  1  0  0  0  0
 18 23  1  0  0  0  0
 19 20  1  0  0  0  0
 19 18  2  0  0  0  0
 20 21  2  0  0  0  0
 21 32  1  0  0  0  0
 21 22  1  0  0  0  0
 22 33  1  0  0  0  0
 23 22  2  0  0  0  0
 23 34  1  0  0  0  0
 24 16  1  0  0  0  0
 25 24  2  0  0  0  0
 26 15  1  0  0  0  0
 29 17  1  0  0  0  0
 30 19  1  0  0  0  0
 31 20  1  0  0  0  0
 35 24  1  0  0  0  0
 35 36  1  0  0  0  0
 36 37  1  0  0  0  0
 36 43  1  0  0  0  0
 37 45  1  0  0  0  0
 37 46  1  0  0  0  0
 38 48  1  0  0  0  0
 38 37  1  0  0  0  0
 39 49  1  1  0  0  0
 39 38  1  0  0  0  0
 39 35  1  0  0  0  0
 40 39  1  0  0  0  0
 41 40  1  0  0  0  0
 42 40  2  0  0  0  0
 44 36  1  0  0  0  0
 47 38  1  0  0  0  0
M  END
$$$$
