DFQ.pdb
 OpenBabel07022418153D

 52 52  0  0  1  0  0  0  0  0999 V2000
    3.9780   -1.2730    0.7170 N   0  0  0  0  0  0  0  0  0  0  0  0
    3.5090   -0.8250    2.0000 C   0  0  1  0  0  0  0  0  0  0  0  0
    4.0670    0.5860    2.2170 C   0  0  0  0  0  0  0  0  0  0  0  0
    5.5440    0.5810    2.1950 C   0  0  0  0  0  0  0  0  0  0  0  0
    6.1990   -0.4610    2.0200 O   0  0  0  0  0  0  0  0  0  0  0  0
    2.0290   -0.6800    2.0420 C   0  0  0  0  0  0  0  0  0  0  0  0
    1.5260   -0.2910    3.1280 O   0  0  0  0  0  0  0  0  0  0  0  0
    6.2010    1.7780    2.3770 O   0  0  0  0  0  0  0  0  0  0  0  0
    4.2430   -0.5280    0.0640 H   0  0  0  0  0  0  0  0  0  0  0  0
    3.4790   -2.0770    0.3240 H   0  0  0  0  0  0  0  0  0  0  0  0
    3.8830   -1.5230    2.7590 H   0  0  0  0  0  0  0  0  0  0  0  0
    3.6160    1.2640    1.4740 H   0  0  0  0  0  0  0  0  0  0  0  0
    3.7610    0.9440    3.2350 H   0  0  0  0  0  0  0  0  0  0  0  0
    7.1730    1.8590    2.6420 H   0  0  0  0  0  0  0  0  0  0  0  0
    1.1680   -0.9460    0.9660 N   0  0  0  0  0  0  0  0  0  0  0  0
   -0.2530   -0.8170    0.9750 C   0  0  1  0  0  0  0  0  0  0  0  0
   -0.6870    0.3010    0.0220 C   0  0  0  0  0  0  0  0  0  0  0  0
   -0.0740    1.5830    0.4640 C   0  0  0  0  0  0  0  0  0  0  0  0
    1.1560    2.0120    0.0160 C   0  0  0  0  0  0  0  0  0  0  0  0
    1.6910    3.2240    0.4610 C   0  0  0  0  0  0  0  0  0  0  0  0
    1.0110    4.0260    1.3550 C   0  0  0  0  0  0  0  0  0  0  0  0
   -0.2210    3.5940    1.8030 C   0  0  0  0  0  0  0  0  0  0  0  0
   -0.7460    2.3880    1.3570 C   0  0  0  0  0  0  0  0  0  0  0  0
   -0.9750   -2.0590    0.7000 C   0  0  0  0  0  0  0  0  0  0  0  0
   -0.3470   -3.1170    0.4810 O   0  0  0  0  0  0  0  0  0  0  0  0
    1.6220   -1.2720    0.0650 H   0  0  0  0  0  0  0  0  0  0  0  0
   -0.5630   -0.4630    2.0020 H   0  0  0  0  0  0  0  0  0  0  0  0
   -1.8030    0.3600    0.1200 H   0  0  0  0  0  0  0  0  0  0  0  0
   -0.3930    0.0960   -1.0090 H   0  0  0  0  0  0  0  0  0  0  0  0
    1.6890    1.3900   -0.6810 H   0  0  0  0  0  0  0  0  0  0  0  0
    2.6650    3.5550    0.1000 H   0  0  0  0  0  0  0  0  0  0  0  0
    1.4710    4.9560    1.6680 H   0  0  0  0  0  0  0  0  0  0  0  0
   -0.7430    4.2310    2.5030 H   0  0  0  0  0  0  0  0  0  0  0  0
   -1.7200    2.0620    1.7200 H   0  0  0  0  0  0  0  0  0  0  0  0
   -5.5080   -1.6090   -2.8360 N   0  0  0  0  0  0  0  0  0  0  0  0
   -4.9320   -2.5510   -1.9510 C   0  0  0  0  0  0  0  0  0  0  0  0
   -5.6560   -3.0840   -1.0880 O   0  0  0  0  0  0  0  0  0  0  0  0
   -3.5030   -2.8960   -2.0490 C   0  0  0  0  0  0  0  0  0  0  0  0
   -3.0060   -3.8000   -0.9750 C   0  0  0  0  0  0  0  0  0  0  0  0
   -3.1000   -3.2940    0.4150 C   0  0  2  0  0  0  0  0  0  0  0  0
   -2.3840   -2.0850    0.6770 N   0  0  0  0  0  0  0  0  0  0  0  0
   -2.6960   -4.3980    1.3410 C   0  0  0  0  0  0  0  0  0  0  0  0
   -3.2200   -5.5170    1.1760 O   0  0  0  0  0  0  0  0  0  0  0  0
   -1.7810   -4.1820    2.3360 O   0  0  0  0  0  0  0  0  0  0  0  0
   -6.5040   -1.6580   -3.1550 H   0  0  0  0  0  0  0  0  0  0  0  0
   -4.8950   -0.8310   -3.1790 H   0  0  0  0  0  0  0  0  0  0  0  0
   -3.2760   -3.4240   -3.0260 H   0  0  0  0  0  0  0  0  0  0  0  0
   -2.8780   -1.9620   -2.1110 H   0  0  0  0  0  0  0  0  0  0  0  0
   -1.9980   -4.1690   -1.2550 H   0  0  0  0  0  0  0  0  0  0  0  0
   -3.6520   -4.7280   -1.0180 H   0  0  0  0  0  0  0  0  0  0  0  0
   -4.2030   -3.1650    0.6660 H   0  0  0  0  0  0  0  0  0  0  0  0
   -2.9380   -1.1970    0.8550 H   0  0  0  0  0  0  0  0  0  0  0  0
  1  2  1  0  0  0  0
  2  6  1  0  0  0  0
  2  3  1  0  0  0  0
  2 11  1  1  0  0  0
  3 13  1  0  0  0  0
  4  3  1  0  0  0  0
  4  8  1  0  0  0  0
  5  4  2  0  0  0  0
  6  7  2  0  0  0  0
  8 14  1  0  0  0  0
  9  1  1  0  0  0  0
 10  1  1  0  0  0  0
 12  3  1  0  0  0  0
 15 16  1  0  0  0  0
 15  6  1  0  0  0  0
 16 27  1  1  0  0  0
 17 28  1  0  0  0  0
 17 18  1  0  0  0  0
 17 16  1  0  0  0  0
 18 23  1  0  0  0  0
 19 20  1  0  0  0  0
 19 18  2  0  0  0  0
 20 21  2  0  0  0  0
 21 32  1  0  0  0  0
 21 22  1  0  0  0  0
 22 33  1  0  0  0  0
 23 34  1  0  0  0  0
 23 22  2  0  0  0  0
 24 16  1  0  0  0  0
 25 24  2  0  0  0  0
 26 15  1  0  0  0  0
 29 17  1  0  0  0  0
 30 19  1  0  0  0  0
 31 20  1  0  0  0  0
 35 36  1  0  0  0  0
 36 37  2  0  0  0  0
 38 36  1  0  0  0  0
 38 39  1  0  0  0  0
 39 40  1  0  0  0  0
 40 51  1  1  0  0  0
 40 41  1  0  0  0  0
 40 42  1  0  0  0  0
 41 24  1  0  0  0  0
 41 52  1  0  0  0  0
 42 44  1  0  0  0  0
 43 42  2  0  0  0  0
 45 35  1  0  0  0  0
 46 35  1  0  0  0  0
 47 38  1  0  0  0  0
 48 38  1  0  0  0  0
 49 39  1  0  0  0  0
 50 39  1  0  0  0  0
M  END
$$$$
