DFV.pdb
 OpenBabel07022418153D

 51 51  0  0  1  0  0  0  0  0999 V2000
    1.7150    0.0510    3.6090 N   0  0  0  0  0  0  0  0  0  0  0  0
    0.3160    0.2890    3.4170 C   0  0  1  0  0  0  0  0  0  0  0  0
   -0.1760    1.5240    4.0710 C   0  0  0  0  0  0  0  0  0  0  0  0
    0.4450    2.7730    3.6470 C   0  0  0  0  0  0  0  0  0  0  0  0
    1.3530    2.8770    2.8090 O   0  0  0  0  0  0  0  0  0  0  0  0
   -0.1210    0.0580    2.0250 C   0  0  0  0  0  0  0  0  0  0  0  0
    0.7600   -0.3010    1.2080 O   0  0  0  0  0  0  0  0  0  0  0  0
   -0.0060    3.9690    4.2210 O   0  0  0  0  0  0  0  0  0  0  0  0
    1.9680   -0.9490    3.7670 H   0  0  0  0  0  0  0  0  0  0  0  0
    2.1310    0.5870    4.3940 H   0  0  0  0  0  0  0  0  0  0  0  0
   -0.1950   -0.5560    3.9900 H   0  0  0  0  0  0  0  0  0  0  0  0
   -1.2810    1.5980    4.0110 H   0  0  0  0  0  0  0  0  0  0  0  0
    0.0350    1.4080    5.1750 H   0  0  0  0  0  0  0  0  0  0  0  0
    0.6040    4.7760    4.2680 H   0  0  0  0  0  0  0  0  0  0  0  0
   -1.4530    0.2210    1.5990 N   0  0  0  0  0  0  0  0  0  0  0  0
   -1.9300   -0.0000    0.2860 C   0  0  1  0  0  0  0  0  0  0  0  0
   -1.7270    1.1060   -0.7020 C   0  0  0  0  0  0  0  0  0  0  0  0
   -0.3360    1.5050   -0.9460 C   0  0  0  0  0  0  0  0  0  0  0  0
    0.2180    2.5190   -0.1990 C   0  0  0  0  0  0  0  0  0  0  0  0
    1.5150    2.8970   -0.4310 C   0  0  0  0  0  0  0  0  0  0  0  0
    2.2640    2.2690   -1.4060 C   0  0  0  0  0  0  0  0  0  0  0  0
    1.7090    1.2480   -2.1590 C   0  0  0  0  0  0  0  0  0  0  0  0
    0.4160    0.8900   -1.9090 C   0  0  0  0  0  0  0  0  0  0  0  0
   -1.6690   -1.3300   -0.2950 C   0  0  0  0  0  0  0  0  0  0  0  0
   -1.9910   -1.4910   -1.5170 O   0  0  0  0  0  0  0  0  0  0  0  0
   -2.1050    0.5440    2.3900 H   0  0  0  0  0  0  0  0  0  0  0  0
   -3.0980   -0.0230    0.4290 H   0  0  0  0  0  0  0  0  0  0  0  0
   -2.1990    0.8410   -1.6950 H   0  0  0  0  0  0  0  0  0  0  0  0
   -2.2870    2.0390   -0.4000 H   0  0  0  0  0  0  0  0  0  0  0  0
   -0.3770    3.0260    0.5820 H   0  0  0  0  0  0  0  0  0  0  0  0
    1.9750    3.6940    0.1440 H   0  0  0  0  0  0  0  0  0  0  0  0
    3.2940    2.5420   -1.6170 H   0  0  0  0  0  0  0  0  0  0  0  0
    2.3180    0.7560   -2.9330 H   0  0  0  0  0  0  0  0  0  0  0  0
   -0.0090    0.0790   -2.5190 H   0  0  0  0  0  0  0  0  0  0  0  0
    1.2510   -3.0530   -1.2610 C   0  0  0  0  0  0  0  0  0  0  0  0
    0.5530   -4.1110   -0.4350 C   0  0  0  0  0  0  0  0  0  0  0  0
    0.6010   -5.3850   -1.2580 C   0  0  0  0  0  0  0  0  0  0  0  0
   -0.8870   -3.7220   -0.3100 C   0  0  2  0  0  0  0  0  0  0  0  0
   -1.1130   -2.4490    0.3290 N   0  0  0  0  0  0  0  0  0  0  0  0
   -1.6460   -4.8160    0.3510 C   0  0  0  0  0  0  0  0  0  0  0  0
   -1.6100   -6.0090   -0.0420 O   0  0  0  0  0  0  0  0  0  0  0  0
   -2.4540   -4.5730    1.4660 O   0  0  0  0  0  0  0  0  0  0  0  0
    2.2960   -3.3490   -1.5040 H   0  0  0  0  0  0  0  0  0  0  0  0
    1.2230   -2.0540   -0.8340 H   0  0  0  0  0  0  0  0  0  0  0  0
    0.7170   -2.9890   -2.2480 H   0  0  0  0  0  0  0  0  0  0  0  0
    1.0500   -4.3180    0.5110 H   0  0  0  0  0  0  0  0  0  0  0  0
   -0.2850   -5.5200   -1.8990 H   0  0  0  0  0  0  0  0  0  0  0  0
    1.5500   -5.4230   -1.8340 H   0  0  0  0  0  0  0  0  0  0  0  0
    0.6440   -6.2490   -0.5650 H   0  0  0  0  0  0  0  0  0  0  0  0
   -1.2790   -3.6540   -1.3510 H   0  0  0  0  0  0  0  0  0  0  0  0
   -0.8480   -2.3900    1.3350 H   0  0  0  0  0  0  0  0  0  0  0  0
  1  9  1  0  0  0  0
  1 10  1  0  0  0  0
  2  1  1  0  0  0  0
  2 11  1  1  0  0  0
  2  3  1  0  0  0  0
  3 13  1  0  0  0  0
  4  3  1  0  0  0  0
  4  8  1  0  0  0  0
  5  4  2  0  0  0  0
  6  2  1  0  0  0  0
  7  6  2  0  0  0  0
  8 14  1  0  0  0  0
 12  3  1  0  0  0  0
 15  6  1  0  0  0  0
 15 26  1  0  0  0  0
 16 27  1  1  0  0  0
 16 15  1  0  0  0  0
 17 29  1  0  0  0  0
 17 16  1  0  0  0  0
 18 17  1  0  0  0  0
 18 19  1  0  0  0  0
 19 30  1  0  0  0  0
 20 19  2  0  0  0  0
 20 31  1  0  0  0  0
 21 20  1  0  0  0  0
 22 23  1  0  0  0  0
 22 21  2  0  0  0  0
 23 18  2  0  0  0  0
 24 16  1  0  0  0  0
 24 39  1  0  0  0  0
 25 24  2  0  0  0  0
 28 17  1  0  0  0  0
 32 21  1  0  0  0  0
 33 22  1  0  0  0  0
 34 23  1  0  0  0  0
 35 44  1  0  0  0  0
 35 36  1  0  0  0  0
 36 38  1  0  0  0  0
 36 46  1  0  0  0  0
 37 49  1  0  0  0  0
 37 36  1  0  0  0  0
 38 50  1  6  0  0  0
 38 39  1  0  0  0  0
 38 40  1  0  0  0  0
 39 51  1  0  0  0  0
 40 42  1  0  0  0  0
 41 40  2  0  0  0  0
 43 35  1  0  0  0  0
 45 35  1  0  0  0  0
 47 37  1  0  0  0  0
 48 37  1  0  0  0  0
M  END
$$$$
