DFY.pdb
 OpenBabel07022418153D

 56 57  0  0  1  0  0  0  0  0999 V2000
    0.3140    0.4230    4.6040 N   0  0  0  0  0  0  0  0  0  0  0  0
    1.5670    0.0220    3.9930 C   0  0  1  0  0  0  0  0  0  0  0  0
    2.0900   -1.1530    4.8130 C   0  0  0  0  0  0  0  0  0  0  0  0
    2.3300   -0.7460    6.2210 C   0  0  0  0  0  0  0  0  0  0  0  0
    2.9960    0.3060    6.4760 O   0  0  0  0  0  0  0  0  0  0  0  0
    1.5090   -0.2970    2.5790 C   0  0  0  0  0  0  0  0  0  0  0  0
    2.5810   -0.7750    2.0700 O   0  0  0  0  0  0  0  0  0  0  0  0
    1.8470   -1.4760    7.3080 O   0  0  0  0  0  0  0  0  0  0  0  0
   -0.2480    1.0920    4.0760 H   0  0  0  0  0  0  0  0  0  0  0  0
   -0.1670   -0.3120    5.1300 H   0  0  0  0  0  0  0  0  0  0  0  0
    2.2660    0.8900    4.1640 H   0  0  0  0  0  0  0  0  0  0  0  0
    3.0700   -1.4620    4.3790 H   0  0  0  0  0  0  0  0  0  0  0  0
    1.4040   -2.0040    4.7700 H   0  0  0  0  0  0  0  0  0  0  0  0
    2.0610   -1.2600    8.2660 H   0  0  0  0  0  0  0  0  0  0  0  0
    0.3630   -0.1160    1.7290 N   0  0  0  0  0  0  0  0  0  0  0  0
    0.3100   -0.4020    0.3450 C   0  0  1  0  0  0  0  0  0  0  0  0
    1.5080    0.0350   -0.4790 C   0  0  0  0  0  0  0  0  0  0  0  0
    1.6300    1.5090   -0.4020 C   0  0  0  0  0  0  0  0  0  0  0  0
    0.8810    2.3150   -1.2850 C   0  0  0  0  0  0  0  0  0  0  0  0
    0.9340    3.6740   -1.2970 C   0  0  0  0  0  0  0  0  0  0  0  0
    1.7660    4.3230   -0.4000 C   0  0  0  0  0  0  0  0  0  0  0  0
    2.5100    3.5840    0.4730 C   0  0  0  0  0  0  0  0  0  0  0  0
    2.4310    2.1950    0.4590 C   0  0  0  0  0  0  0  0  0  0  0  0
   -0.1210   -1.7780    0.0810 C   0  0  0  0  0  0  0  0  0  0  0  0
   -0.4370   -2.5480    1.0490 O   0  0  0  0  0  0  0  0  0  0  0  0
   -0.4720    0.2600    2.2260 H   0  0  0  0  0  0  0  0  0  0  0  0
   -0.4770    0.3430   -0.0730 H   0  0  0  0  0  0  0  0  0  0  0  0
    2.4460   -0.4980   -0.2230 H   0  0  0  0  0  0  0  0  0  0  0  0
    1.2820   -0.2260   -1.5360 H   0  0  0  0  0  0  0  0  0  0  0  0
    0.2420    1.7790   -1.9840 H   0  0  0  0  0  0  0  0  0  0  0  0
    0.3330    4.2630   -2.0090 H   0  0  0  0  0  0  0  0  0  0  0  0
    1.7850    5.4240   -0.4380 H   0  0  0  0  0  0  0  0  0  0  0  0
    3.1550    4.0890    1.1730 H   0  0  0  0  0  0  0  0  0  0  0  0
    3.0530    1.6630    1.1620 H   0  0  0  0  0  0  0  0  0  0  0  0
   -6.1810   -0.6290   -2.2260 O   0  0  0  0  0  0  0  0  0  0  0  0
   -5.0330   -1.4340   -2.3060 C   0  0  0  0  0  0  0  0  0  0  0  0
   -3.8820   -0.9390   -2.8870 C   0  0  0  0  0  0  0  0  0  0  0  0
   -2.7780   -1.7330   -2.9580 C   0  0  0  0  0  0  0  0  0  0  0  0
   -2.7980   -3.0450   -2.4490 C   0  0  0  0  0  0  0  0  0  0  0  0
   -1.5700   -3.8470   -2.5710 C   0  0  0  0  0  0  0  0  0  0  0  0
   -0.6510   -3.7450   -1.4020 C   0  0  2  0  0  0  0  0  0  0  0  0
   -0.2170   -2.3520   -1.2220 N   0  0  0  0  0  0  0  0  0  0  0  0
    0.5520   -4.6170   -1.5620 C   0  0  0  0  0  0  0  0  0  0  0  0
    0.4180   -5.8380   -1.7350 O   0  0  0  0  0  0  0  0  0  0  0  0
   -3.9730   -3.5000   -1.8760 C   0  0  0  0  0  0  0  0  0  0  0  0
   -5.1050   -2.7110   -1.7930 C   0  0  0  0  0  0  0  0  0  0  0  0
    1.8030   -4.0500   -1.5150 O   0  0  0  0  0  0  0  0  0  0  0  0
   -6.1670    0.3090   -2.6480 H   0  0  0  0  0  0  0  0  0  0  0  0
   -3.8610    0.0900   -3.2830 H   0  0  0  0  0  0  0  0  0  0  0  0
   -1.8690   -1.3630   -3.4070 H   0  0  0  0  0  0  0  0  0  0  0  0
   -1.8420   -4.9140   -2.7330 H   0  0  0  0  0  0  0  0  0  0  0  0
   -1.0040   -3.4600   -3.4530 H   0  0  0  0  0  0  0  0  0  0  0  0
   -1.1790   -4.0690   -0.4790 H   0  0  0  0  0  0  0  0  0  0  0  0
    0.0370   -1.7250   -2.0140 H   0  0  0  0  0  0  0  0  0  0  0  0
   -4.0000   -4.5020   -1.4860 H   0  0  0  0  0  0  0  0  0  0  0  0
   -6.0390   -3.0280   -1.3520 H   0  0  0  0  0  0  0  0  0  0  0  0
  1 10  1  0  0  0  0
  2 11  1  1  0  0  0
  2  1  1  0  0  0  0
  2  3  1  0  0  0  0
  3  4  1  0  0  0  0
  4  5  2  0  0  0  0
  4  8  1  0  0  0  0
  6  2  1  0  0  0  0
  7  6  2  0  0  0  0
  8 14  1  0  0  0  0
  9  1  1  0  0  0  0
 12  3  1  0  0  0  0
 13  3  1  0  0  0  0
 15 26  1  0  0  0  0
 15  6  1  0  0  0  0
 16 27  1  6  0  0  0
 16 15  1  0  0  0  0
 17 18  1  0  0  0  0
 17 28  1  0  0  0  0
 17 16  1  0  0  0  0
 18 23  1  0  0  0  0
 19 18  2  0  0  0  0
 20 19  1  0  0  0  0
 20 21  2  0  0  0  0
 21 22  1  0  0  0  0
 22 33  1  0  0  0  0
 23 22  2  0  0  0  0
 23 34  1  0  0  0  0
 24 16  1  0  0  0  0
 24 25  2  0  0  0  0
 29 17  1  0  0  0  0
 30 19  1  0  0  0  0
 31 20  1  0  0  0  0
 32 21  1  0  0  0  0
 36 35  1  0  0  0  0
 36 46  1  0  0  0  0
 37 36  2  0  0  0  0
 38 37  1  0  0  0  0
 38 39  2  0  0  0  0
 39 45  1  0  0  0  0
 40 39  1  0  0  0  0
 40 41  1  0  0  0  0
 41 42  1  0  0  0  0
 41 53  1  1  0  0  0
 42 24  1  0  0  0  0
 43 47  1  0  0  0  0
 43 41  1  0  0  0  0
 44 43  2  0  0  0  0
 45 46  2  0  0  0  0
 45 55  1  0  0  0  0
 46 56  1  0  0  0  0
 48 35  1  0  0  0  0
 49 37  1  0  0  0  0
 50 38  1  0  0  0  0
 51 40  1  0  0  0  0
 52 40  1  0  0  0  0
 54 42  1  0  0  0  0
M  END
$$$$
