DGF.pdb
 OpenBabel07022418133D

 42 42  0  0  1  0  0  0  0  0999 V2000
   -1.3990   -3.4200    0.1340 N   0  0  0  0  0  0  0  0  0  0  0  0
   -0.1080   -3.2770    0.7960 C   0  0  1  0  0  0  0  0  0  0  0  0
    0.4080   -4.6680    1.0930 C   0  0  0  0  0  0  0  0  0  0  0  0
    1.7170   -4.6010    1.7670 C   0  0  0  0  0  0  0  0  0  0  0  0
    2.8330   -4.5650    1.2090 O   0  0  0  0  0  0  0  0  0  0  0  0
    0.8300   -2.4790   -0.0330 C   0  0  0  0  0  0  0  0  0  0  0  0
    1.9670   -2.2330    0.4520 O   0  0  0  0  0  0  0  0  0  0  0  0
    1.7190   -4.5740    3.1710 O   0  0  0  0  0  0  0  0  0  0  0  0
   -1.3820   -4.2280   -0.5320 H   0  0  0  0  0  0  0  0  0  0  0  0
   -2.1160   -3.6190    0.8900 H   0  0  0  0  0  0  0  0  0  0  0  0
   -0.2770   -2.7220    1.7390 H   0  0  0  0  0  0  0  0  0  0  0  0
    0.4740   -5.2380    0.1240 H   0  0  0  0  0  0  0  0  0  0  0  0
   -0.2880   -5.2270    1.7450 H   0  0  0  0  0  0  0  0  0  0  0  0
    2.5360   -4.1780    3.6410 H   0  0  0  0  0  0  0  0  0  0  0  0
    0.4800   -2.0010   -1.3270 N   0  0  0  0  0  0  0  0  0  0  0  0
    1.3490   -1.2250   -2.1480 C   0  0  0  0  0  0  0  0  0  0  0  0
    1.7420    0.0850   -1.6130 C   0  0  0  0  0  0  0  0  0  0  0  0
    2.5550    0.8140   -2.2860 O   0  0  0  0  0  0  0  0  0  0  0  0
   -0.4710   -2.2440   -1.6770 H   0  0  0  0  0  0  0  0  0  0  0  0
    2.2840   -1.8300   -2.3040 H   0  0  0  0  0  0  0  0  0  0  0  0
    0.9500   -1.0770   -3.1810 H   0  0  0  0  0  0  0  0  0  0  0  0
    1.2630    0.5860   -0.3860 N   0  0  0  0  0  0  0  0  0  0  0  0
    1.6430    1.8640    0.1530 C   0  0  1  0  0  0  0  0  0  0  0  0
    0.4890    2.7820    0.3990 C   0  0  0  0  0  0  0  0  0  0  0  0
   -0.5080    2.2800    1.3400 C   0  0  0  0  0  0  0  0  0  0  0  0
   -1.5540    1.5370    0.8330 C   0  0  0  0  0  0  0  0  0  0  0  0
   -2.5560    1.0080    1.6090 C   0  0  0  0  0  0  0  0  0  0  0  0
   -2.5290    1.2230    2.9700 C   0  0  0  0  0  0  0  0  0  0  0  0
   -1.4830    1.9650    3.4730 C   0  0  0  0  0  0  0  0  0  0  0  0
   -0.4780    2.4960    2.6950 C   0  0  0  0  0  0  0  0  0  0  0  0
    2.3860    1.6820    1.4190 C   0  0  0  0  0  0  0  0  0  0  0  0
    2.5790    0.5180    1.8460 O   0  0  0  0  0  0  0  0  0  0  0  0
    2.8820    2.7370    2.1590 O   0  0  0  0  0  0  0  0  0  0  0  0
    0.5890    0.0320    0.1770 H   0  0  0  0  0  0  0  0  0  0  0  0
    2.3450    2.3260   -0.5670 H   0  0  0  0  0  0  0  0  0  0  0  0
   -0.0030    2.9780   -0.5850 H   0  0  0  0  0  0  0  0  0  0  0  0
    0.8360    3.7720    0.7570 H   0  0  0  0  0  0  0  0  0  0  0  0
   -1.6280    1.3320   -0.2490 H   0  0  0  0  0  0  0  0  0  0  0  0
   -3.3460    0.4350    1.1490 H   0  0  0  0  0  0  0  0  0  0  0  0
   -3.3140    0.8120    3.6010 H   0  0  0  0  0  0  0  0  0  0  0  0
   -1.4640    2.1330    4.5440 H   0  0  0  0  0  0  0  0  0  0  0  0
    0.3370    3.0820    3.1290 H   0  0  0  0  0  0  0  0  0  0  0  0
  1  2  1  0  0  0  0
  1 10  1  0  0  0  0
  2  3  1  0  0  0  0
  2 11  1  1  0  0  0
  3 13  1  0  0  0  0
  3  4  1  0  0  0  0
  4  8  1  0  0  0  0
  5  4  2  0  0  0  0
  6  7  2  0  0  0  0
  6  2  1  0  0  0  0
  8 14  1  0  0  0  0
  9  1  1  0  0  0  0
 12  3  1  0  0  0  0
 15  6  1  0  0  0  0
 16 17  1  0  0  0  0
 16 15  1  0  0  0  0
 17 22  1  0  0  0  0
 18 17  2  0  0  0  0
 19 15  1  0  0  0  0
 20 16  1  0  0  0  0
 21 16  1  0  0  0  0
 22 23  1  0  0  0  0
 22 34  1  0  0  0  0
 23 35  1  6  0  0  0
 23 24  1  0  0  0  0
 23 31  1  0  0  0  0
 24 37  1  0  0  0  0
 24 25  1  0  0  0  0
 25 30  1  0  0  0  0
 26 25  2  0  0  0  0
 26 27  1  0  0  0  0
 27 28  2  0  0  0  0
 28 29  1  0  0  0  0
 28 40  1  0  0  0  0
 29 41  1  0  0  0  0
 30 42  1  0  0  0  0
 30 29  2  0  0  0  0
 31 32  2  0  0  0  0
 31 33  1  0  0  0  0
 36 24  1  0  0  0  0
 38 26  1  0  0  0  0
 39 27  1  0  0  0  0
M  END
$$$$
