DGH.pdb
 OpenBabel07022418133D

 39 39  0  0  1  0  0  0  0  0999 V2000
    4.7000   -1.6890   -1.5640 N   0  0  0  0  0  0  0  0  0  0  0  0
    4.1140   -2.3990   -0.4050 C   0  0  1  0  0  0  0  0  0  0  0  0
    4.8700   -1.8380    0.7890 C   0  0  0  0  0  0  0  0  0  0  0  0
    4.3800   -2.4590    2.0310 C   0  0  0  0  0  0  0  0  0  0  0  0
    3.4730   -1.9100    2.7120 O   0  0  0  0  0  0  0  0  0  0  0  0
    2.7060   -2.0240   -0.2910 C   0  0  0  0  0  0  0  0  0  0  0  0
    2.2880   -1.0320   -0.9690 O   0  0  0  0  0  0  0  0  0  0  0  0
    4.9500   -3.6710    2.4260 O   0  0  0  0  0  0  0  0  0  0  0  0
    4.7120   -0.6540   -1.3540 H   0  0  0  0  0  0  0  0  0  0  0  0
    4.0300   -1.8050   -2.3770 H   0  0  0  0  0  0  0  0  0  0  0  0
    4.3200   -3.4570   -0.5500 H   0  0  0  0  0  0  0  0  0  0  0  0
    5.9690   -2.0740    0.7030 H   0  0  0  0  0  0  0  0  0  0  0  0
    4.8100   -0.7330    0.8190 H   0  0  0  0  0  0  0  0  0  0  0  0
    4.7870   -3.9480    3.3960 H   0  0  0  0  0  0  0  0  0  0  0  0
    1.7520   -2.6770    0.5180 N   0  0  0  0  0  0  0  0  0  0  0  0
    0.4030   -2.1970    0.5380 C   0  0  0  0  0  0  0  0  0  0  0  0
    0.2930   -0.7940    1.0030 C   0  0  0  0  0  0  0  0  0  0  0  0
    1.2610   -0.0900    1.3440 O   0  0  0  0  0  0  0  0  0  0  0  0
    2.0350   -3.4950    1.0760 H   0  0  0  0  0  0  0  0  0  0  0  0
   -0.2080   -2.8450    1.2000 H   0  0  0  0  0  0  0  0  0  0  0  0
   -0.0850   -2.2390   -0.4580 H   0  0  0  0  0  0  0  0  0  0  0  0
   -0.9950   -0.1950    1.0700 N   0  0  0  0  0  0  0  0  0  0  0  0
   -1.2520    1.1370    1.4950 C   0  0  1  0  0  0  0  0  0  0  0  0
   -1.8730    2.0810    0.5700 C   0  0  0  0  0  0  0  0  0  0  0  0
   -3.2080    1.7950    0.0530 C   0  0  0  0  0  0  0  0  0  0  0  0
   -4.1080    0.8060    0.2640 C   0  0  0  0  0  0  0  0  0  0  0  0
   -5.2020    1.0580   -0.4710 N   0  0  0  0  0  0  0  0  0  0  0  0
   -5.0000    2.1940   -1.1420 C   0  0  0  0  0  0  0  0  0  0  0  0
   -3.7960    2.6520   -0.8340 N   0  0  0  0  0  0  0  0  0  0  0  0
   -1.9180    1.0830    2.8320 C   0  0  0  0  0  0  0  0  0  0  0  0
   -2.1310   -0.0430    3.3350 O   0  0  0  0  0  0  0  0  0  0  0  0
   -2.2990    2.2300    3.5130 O   0  0  0  0  0  0  0  0  0  0  0  0
   -1.7930   -0.7900    0.7820 H   0  0  0  0  0  0  0  0  0  0  0  0
   -0.2270    1.5680    1.7450 H   0  0  0  0  0  0  0  0  0  0  0  0
   -1.1330    2.3300   -0.2290 H   0  0  0  0  0  0  0  0  0  0  0  0
   -1.9680    3.0620    1.1320 H   0  0  0  0  0  0  0  0  0  0  0  0
   -3.9720   -0.0360    0.9200 H   0  0  0  0  0  0  0  0  0  0  0  0
   -6.0750    0.4650   -0.5170 H   0  0  0  0  0  0  0  0  0  0  0  0
   -5.6920    2.6830   -1.8310 H   0  0  0  0  0  0  0  0  0  0  0  0
  1  9  1  0  0  0  0
  1  2  1  0  0  0  0
  2 11  1  6  0  0  0
  2  6  1  0  0  0  0
  2  3  1  0  0  0  0
  3 13  1  0  0  0  0
  3  4  1  0  0  0  0
  4  8  1  0  0  0  0
  4  5  2  0  0  0  0
  6 15  1  0  0  0  0
  7  6  2  0  0  0  0
  8 14  1  0  0  0  0
 10  1  1  0  0  0  0
 12  3  1  0  0  0  0
 15 16  1  0  0  0  0
 15 19  1  0  0  0  0
 16 17  1  0  0  0  0
 16 20  1  0  0  0  0
 17 22  1  0  0  0  0
 17 18  2  0  0  0  0
 21 16  1  0  0  0  0
 22 23  1  0  0  0  0
 23 34  1  1  0  0  0
 23 30  1  0  0  0  0
 24 36  1  0  0  0  0
 24 23  1  0  0  0  0
 25 26  2  0  0  0  0
 25 24  1  0  0  0  0
 26 37  1  0  0  0  0
 27 26  1  0  0  0  0
 28 29  2  0  0  0  0
 28 27  1  0  0  0  0
 29 25  1  0  0  0  0
 30 31  2  0  0  0  0
 30 32  1  0  0  0  0
 33 22  1  0  0  0  0
 35 24  1  0  0  0  0
 38 27  1  0  0  0  0
 39 28  1  0  0  0  0
M  END
$$$$
