DGI.pdb
 OpenBabel07022418133D

 41 40  0  0  1  0  0  0  0  0999 V2000
    3.7850   -1.7750    1.9520 N   0  0  0  0  0  0  0  0  0  0  0  0
    2.4290   -1.9560    2.4150 C   0  0  1  0  0  0  0  0  0  0  0  0
    1.8340   -0.6960    3.0100 C   0  0  0  0  0  0  0  0  0  0  0  0
    2.6310   -0.2380    4.1720 C   0  0  0  0  0  0  0  0  0  0  0  0
    3.6520   -0.8680    4.5500 O   0  0  0  0  0  0  0  0  0  0  0  0
    1.5700   -2.4350    1.2930 C   0  0  0  0  0  0  0  0  0  0  0  0
    0.3610   -2.6280    1.5570 O   0  0  0  0  0  0  0  0  0  0  0  0
    2.2580    0.9030    4.8680 O   0  0  0  0  0  0  0  0  0  0  0  0
    4.3840   -2.5780    2.1720 H   0  0  0  0  0  0  0  0  0  0  0  0
    4.2420   -0.9130    2.2910 H   0  0  0  0  0  0  0  0  0  0  0  0
    2.4420   -2.7470    3.2020 H   0  0  0  0  0  0  0  0  0  0  0  0
    0.8060   -0.9430    3.3270 H   0  0  0  0  0  0  0  0  0  0  0  0
    1.7990    0.1090    2.2500 H   0  0  0  0  0  0  0  0  0  0  0  0
    2.3630    0.9370    5.8880 H   0  0  0  0  0  0  0  0  0  0  0  0
    2.0600   -2.6640   -0.0020 N   0  0  0  0  0  0  0  0  0  0  0  0
    1.2800   -3.1100   -1.1100 C   0  0  0  0  0  0  0  0  0  0  0  0
    0.2400   -2.1400   -1.4830 C   0  0  0  0  0  0  0  0  0  0  0  0
   -0.5910   -2.3860   -2.4280 O   0  0  0  0  0  0  0  0  0  0  0  0
    3.0810   -2.4950   -0.1640 H   0  0  0  0  0  0  0  0  0  0  0  0
    0.7430   -4.0360   -0.7690 H   0  0  0  0  0  0  0  0  0  0  0  0
    1.8950   -3.4430   -1.9700 H   0  0  0  0  0  0  0  0  0  0  0  0
   -0.8480    2.1150    0.9920 C   0  0  0  0  0  0  0  0  0  0  0  0
   -1.5060    0.7670    1.0890 C   0  0  0  0  0  0  0  0  0  0  0  0
   -2.0350    0.2350   -0.1990 C   0  0  2  0  0  0  0  0  0  0  0  0
   -2.6620   -1.1170    0.0710 C   0  0  0  0  0  0  0  0  0  0  0  0
   -0.9950    0.0470   -1.2720 C   0  0  2  0  0  0  0  0  0  0  0  0
    0.0430   -0.8750   -0.8760 N   0  0  0  0  0  0  0  0  0  0  0  0
   -0.4850    1.3030   -1.8460 C   0  0  0  0  0  0  0  0  0  0  0  0
   -1.2690    2.2080   -2.2390 O   0  0  0  0  0  0  0  0  0  0  0  0
    0.8570    1.6180   -2.0090 O   0  0  0  0  0  0  0  0  0  0  0  0
    0.1640    2.1090    0.6020 H   0  0  0  0  0  0  0  0  0  0  0  0
   -1.4980    2.8000    0.4310 H   0  0  0  0  0  0  0  0  0  0  0  0
   -0.7870    2.5080    2.0420 H   0  0  0  0  0  0  0  0  0  0  0  0
   -0.8740    0.0400    1.6420 H   0  0  0  0  0  0  0  0  0  0  0  0
   -2.4040    0.9190    1.7560 H   0  0  0  0  0  0  0  0  0  0  0  0
   -2.8580    0.9060   -0.5220 H   0  0  0  0  0  0  0  0  0  0  0  0
   -3.7030   -0.9460    0.4140 H   0  0  0  0  0  0  0  0  0  0  0  0
   -2.1000   -1.6310    0.8680 H   0  0  0  0  0  0  0  0  0  0  0  0
   -2.7480   -1.7220   -0.8580 H   0  0  0  0  0  0  0  0  0  0  0  0
   -1.5290   -0.4670   -2.1020 H   0  0  0  0  0  0  0  0  0  0  0  0
    0.7130   -0.5870   -0.0930 H   0  0  0  0  0  0  0  0  0  0  0  0
  1  9  1  0  0  0  0
  1 10  1  0  0  0  0
  1  2  1  0  0  0  0
  2  3  1  0  0  0  0
  2 11  1  1  0  0  0
  3 12  1  0  0  0  0
  3  4  1  0  0  0  0
  4  5  2  0  0  0  0
  4  8  1  0  0  0  0
  6  7  2  0  0  0  0
  6  2  1  0  0  0  0
  8 14  1  0  0  0  0
 13  3  1  0  0  0  0
 15  6  1  0  0  0  0
 16 20  1  0  0  0  0
 16 15  1  0  0  0  0
 17 16  1  0  0  0  0
 17 27  1  0  0  0  0
 18 17  2  0  0  0  0
 19 15  1  0  0  0  0
 21 16  1  0  0  0  0
 22 23  1  0  0  0  0
 22 33  1  0  0  0  0
 23 34  1  0  0  0  0
 23 35  1  0  0  0  0
 24 36  1  6  0  0  0
 24 25  1  0  0  0  0
 24 23  1  0  0  0  0
 25 37  1  0  0  0  0
 25 38  1  0  0  0  0
 26 40  1  6  0  0  0
 26 27  1  0  0  0  0
 26 24  1  0  0  0  0
 27 41  1  0  0  0  0
 28 26  1  0  0  0  0
 29 28  2  0  0  0  0
 30 28  1  0  0  0  0
 31 22  1  0  0  0  0
 32 22  1  0  0  0  0
 39 25  1  0  0  0  0
M  END
$$$$
