DGM.pdb
 OpenBabel07022418133D

 39 38  0  0  1  0  0  0  0  0999 V2000
    0.9000   -3.3750    2.9830 N   0  0  0  0  0  0  0  0  0  0  0  0
    1.2360   -4.2890    1.9410 C   0  0  1  0  0  0  0  0  0  0  0  0
    0.3520   -5.5100    2.0470 C   0  0  0  0  0  0  0  0  0  0  0  0
    0.5890   -6.1320    3.3750 C   0  0  0  0  0  0  0  0  0  0  0  0
   -0.0450   -7.1840    3.7230 O   0  0  0  0  0  0  0  0  0  0  0  0
    1.1470   -3.6320    0.6360 C   0  0  0  0  0  0  0  0  0  0  0  0
    1.3760   -4.1700   -0.4730 O   0  0  0  0  0  0  0  0  0  0  0  0
    1.4820   -5.6430    4.3110 O   0  0  0  0  0  0  0  0  0  0  0  0
   -0.0960   -3.3970    3.2870 H   0  0  0  0  0  0  0  0  0  0  0  0
    1.5120   -3.3680    3.8040 H   0  0  0  0  0  0  0  0  0  0  0  0
    2.2860   -4.6660    2.0520 H   0  0  0  0  0  0  0  0  0  0  0  0
   -0.7180   -5.2760    1.9770 H   0  0  0  0  0  0  0  0  0  0  0  0
    0.5840   -6.2600    1.2790 H   0  0  0  0  0  0  0  0  0  0  0  0
    1.5600   -5.9760    5.2640 H   0  0  0  0  0  0  0  0  0  0  0  0
    0.7610   -2.2380    0.6040 N   0  0  0  0  0  0  0  0  0  0  0  0
    0.6490   -1.5260   -0.6240 C   0  0  0  0  0  0  0  0  0  0  0  0
    0.2480   -0.1210   -0.4880 C   0  0  0  0  0  0  0  0  0  0  0  0
    0.1290    0.5690   -1.5800 O   0  0  0  0  0  0  0  0  0  0  0  0
    0.5660   -1.7690    1.5050 H   0  0  0  0  0  0  0  0  0  0  0  0
    0.0240   -2.0730   -1.3760 H   0  0  0  0  0  0  0  0  0  0  0  0
    1.7040   -1.5140   -1.0580 H   0  0  0  0  0  0  0  0  0  0  0  0
   -0.1750    4.7850   -2.5570 C   0  0  0  0  0  0  0  0  0  0  0  0
   -0.5690    5.0180   -0.8270 S   0  0  0  0  0  0  0  0  0  0  0  0
    0.5730    4.2820    0.3000 C   0  0  0  0  0  0  0  0  0  0  0  0
    0.7010    2.8260    0.3590 C   0  0  0  0  0  0  0  0  0  0  0  0
   -0.4220    1.9670    0.7510 C   0  0  2  0  0  0  0  0  0  0  0  0
   -0.0160    0.5340    0.7280 N   0  0  0  0  0  0  0  0  0  0  0  0
   -1.6860    2.0440    0.0450 C   0  0  0  0  0  0  0  0  0  0  0  0
   -2.2170    1.0280   -0.5370 O   0  0  0  0  0  0  0  0  0  0  0  0
   -2.4350    3.2020   -0.0650 O   0  0  0  0  0  0  0  0  0  0  0  0
    0.8570    4.4200   -2.7370 H   0  0  0  0  0  0  0  0  0  0  0  0
   -0.8720    3.9950   -2.9570 H   0  0  0  0  0  0  0  0  0  0  0  0
   -0.4240    5.7030   -3.1170 H   0  0  0  0  0  0  0  0  0  0  0  0
    0.3530    4.7070    1.3330 H   0  0  0  0  0  0  0  0  0  0  0  0
    1.6080    4.7040    0.0880 H   0  0  0  0  0  0  0  0  0  0  0  0
    1.1570    2.4770   -0.6300 H   0  0  0  0  0  0  0  0  0  0  0  0
    1.5760    2.6200    1.0640 H   0  0  0  0  0  0  0  0  0  0  0  0
   -0.6690    2.1590    1.8380 H   0  0  0  0  0  0  0  0  0  0  0  0
    0.0660    0.0410    1.6210 H   0  0  0  0  0  0  0  0  0  0  0  0
  1  9  1  0  0  0  0
  1 10  1  0  0  0  0
  2  3  1  0  0  0  0
  2 11  1  1  0  0  0
  2  1  1  0  0  0  0
  3  4  1  0  0  0  0
  4  5  2  0  0  0  0
  4  8  1  0  0  0  0
  6  2  1  0  0  0  0
  7  6  2  0  0  0  0
  8 14  1  0  0  0  0
 12  3  1  0  0  0  0
 13  3  1  0  0  0  0
 15  6  1  0  0  0  0
 15 19  1  0  0  0  0
 16 17  1  0  0  0  0
 16 15  1  0  0  0  0
 17 27  1  0  0  0  0
 18 17  2  0  0  0  0
 20 16  1  0  0  0  0
 21 16  1  0  0  0  0
 22 23  1  0  0  0  0
 23 24  1  0  0  0  0
 24 25  1  0  0  0  0
 24 34  1  0  0  0  0
 25 26  1  0  0  0  0
 25 37  1  0  0  0  0
 26 38  1  1  0  0  0
 27 26  1  0  0  0  0
 27 39  1  0  0  0  0
 28 26  1  0  0  0  0
 29 28  2  0  0  0  0
 30 28  1  0  0  0  0
 31 22  1  0  0  0  0
 32 22  1  0  0  0  0
 33 22  1  0  0  0  0
 35 24  1  0  0  0  0
 36 25  1  0  0  0  0
M  END
$$$$
