DGT.pdb
 OpenBabel07022418133D

 36 35  0  0  1  0  0  0  0  0999 V2000
    1.3020   -4.7210    3.2460 N   0  0  0  0  0  0  0  0  0  0  0  0
    0.7120   -3.5040    2.6880 C   0  0  1  0  0  0  0  0  0  0  0  0
    0.0950   -2.7090    3.8470 C   0  0  0  0  0  0  0  0  0  0  0  0
   -0.5210   -1.4510    3.3930 C   0  0  0  0  0  0  0  0  0  0  0  0
    0.1250   -0.3490    3.4480 O   0  0  0  0  0  0  0  0  0  0  0  0
    1.8140   -2.6890    2.1410 C   0  0  0  0  0  0  0  0  0  0  0  0
    3.0010   -2.9200    2.4310 O   0  0  0  0  0  0  0  0  0  0  0  0
   -1.8090   -1.3670    2.8850 O   0  0  0  0  0  0  0  0  0  0  0  0
    2.0160   -5.1230    2.5970 H   0  0  0  0  0  0  0  0  0  0  0  0
    0.5580   -5.4280    3.4290 H   0  0  0  0  0  0  0  0  0  0  0  0
   -0.0480   -3.7830    1.9650 H   0  0  0  0  0  0  0  0  0  0  0  0
    0.9660   -2.4520    4.5130 H   0  0  0  0  0  0  0  0  0  0  0  0
   -0.6400   -3.3570    4.3700 H   0  0  0  0  0  0  0  0  0  0  0  0
   -2.4420   -0.6070    3.1810 H   0  0  0  0  0  0  0  0  0  0  0  0
    1.4710   -1.6090    1.2490 N   0  0  0  0  0  0  0  0  0  0  0  0
    2.4710   -0.7650    0.6750 C   0  0  0  0  0  0  0  0  0  0  0  0
    1.9840    0.2980   -0.2140 C   0  0  0  0  0  0  0  0  0  0  0  0
    2.8160    1.1070   -0.7780 O   0  0  0  0  0  0  0  0  0  0  0  0
    0.4700   -1.4930    1.0460 H   0  0  0  0  0  0  0  0  0  0  0  0
    3.1350   -0.3290    1.4540 H   0  0  0  0  0  0  0  0  0  0  0  0
    3.1770   -1.4000    0.0560 H   0  0  0  0  0  0  0  0  0  0  0  0
   -1.6760    0.3040   -2.3680 C   0  0  0  0  0  0  0  0  0  0  0  0
   -0.4580    1.1190   -2.6550 C   0  0  1  0  0  0  0  0  0  0  0  0
   -0.7630    2.2280   -3.4480 O   0  0  0  0  0  0  0  0  0  0  0  0
    0.2560    1.6230   -1.4260 C   0  0  2  0  0  0  0  0  0  0  0  0
    0.6200    0.5350   -0.5290 N   0  0  0  0  0  0  0  0  0  0  0  0
   -0.5930    2.5650   -0.6680 C   0  0  0  0  0  0  0  0  0  0  0  0
   -1.0290    3.5830   -1.2450 O   0  0  0  0  0  0  0  0  0  0  0  0
   -0.9260    2.3680    0.6550 O   0  0  0  0  0  0  0  0  0  0  0  0
   -1.7910    0.1830   -1.2750 H   0  0  0  0  0  0  0  0  0  0  0  0
   -2.5750    0.7600   -2.8400 H   0  0  0  0  0  0  0  0  0  0  0  0
   -1.5970   -0.7190   -2.8080 H   0  0  0  0  0  0  0  0  0  0  0  0
    0.2470    0.4960   -3.2470 H   0  0  0  0  0  0  0  0  0  0  0  0
    0.0130    2.8440   -3.4890 H   0  0  0  0  0  0  0  0  0  0  0  0
    1.1470    2.1760   -1.7740 H   0  0  0  0  0  0  0  0  0  0  0  0
   -0.1290   -0.0650   -0.1240 H   0  0  0  0  0  0  0  0  0  0  0  0
  1 10  1  0  0  0  0
  2 11  1  6  0  0  0
  2  1  1  0  0  0  0
  2  3  1  0  0  0  0
  3 13  1  0  0  0  0
  3 12  1  0  0  0  0
  4  5  2  0  0  0  0
  4  3  1  0  0  0  0
  6  7  2  0  0  0  0
  6  2  1  0  0  0  0
  8 14  1  0  0  0  0
  8  4  1  0  0  0  0
  9  1  1  0  0  0  0
 15  6  1  0  0  0  0
 16 15  1  0  0  0  0
 16 20  1  0  0  0  0
 17 16  1  0  0  0  0
 18 17  2  0  0  0  0
 19 15  1  0  0  0  0
 21 16  1  0  0  0  0
 22 30  1  0  0  0  0
 23 33  1  6  0  0  0
 23 22  1  0  0  0  0
 23 25  1  0  0  0  0
 24 23  1  0  0  0  0
 25 35  1  6  0  0  0
 25 27  1  0  0  0  0
 25 26  1  0  0  0  0
 26 17  1  0  0  0  0
 26 36  1  0  0  0  0
 27 29  1  0  0  0  0
 28 27  2  0  0  0  0
 31 22  1  0  0  0  0
 32 22  1  0  0  0  0
 34 24  1  0  0  0  0
M  END
$$$$
