DGV.pdb
 OpenBabel07022418133D

 38 37  0  0  1  0  0  0  0  0999 V2000
    1.7360   -5.0630    2.6450 N   0  0  0  0  0  0  0  0  0  0  0  0
    1.2440   -3.7550    3.1300 C   0  0  1  0  0  0  0  0  0  0  0  0
    1.6940   -3.4900    4.4990 C   0  0  0  0  0  0  0  0  0  0  0  0
    1.1670   -2.2050    5.0480 C   0  0  0  0  0  0  0  0  0  0  0  0
    1.6800   -1.5530    5.9630 O   0  0  0  0  0  0  0  0  0  0  0  0
    1.4180   -2.7310    2.1120 C   0  0  0  0  0  0  0  0  0  0  0  0
    1.0710   -3.0450    0.9120 O   0  0  0  0  0  0  0  0  0  0  0  0
   -0.0060   -1.7150    4.4690 O   0  0  0  0  0  0  0  0  0  0  0  0
    1.5200   -5.7340    3.4170 H   0  0  0  0  0  0  0  0  0  0  0  0
    1.1930   -5.3840    1.8150 H   0  0  0  0  0  0  0  0  0  0  0  0
    0.1230   -3.9390    3.1830 H   0  0  0  0  0  0  0  0  0  0  0  0
    1.2680   -4.2810    5.1850 H   0  0  0  0  0  0  0  0  0  0  0  0
    2.7870   -3.5290    4.6640 H   0  0  0  0  0  0  0  0  0  0  0  0
   -0.2800   -0.7590    4.4610 H   0  0  0  0  0  0  0  0  0  0  0  0
    1.9250   -1.4210    2.2530 N   0  0  0  0  0  0  0  0  0  0  0  0
    2.0240   -0.4970    1.1200 C   0  0  0  0  0  0  0  0  0  0  0  0
    0.6830   -0.2340    0.5410 C   0  0  0  0  0  0  0  0  0  0  0  0
   -0.3010   -0.8040    1.0640 O   0  0  0  0  0  0  0  0  0  0  0  0
    2.2510   -1.1380    3.2010 H   0  0  0  0  0  0  0  0  0  0  0  0
    2.4130    0.4700    1.4950 H   0  0  0  0  0  0  0  0  0  0  0  0
    2.7220   -0.8850    0.3540 H   0  0  0  0  0  0  0  0  0  0  0  0
   -2.5910    2.5220   -1.6660 C   0  0  0  0  0  0  0  0  0  0  0  0
   -1.2280    2.3470   -1.0210 C   0  0  0  0  0  0  0  0  0  0  0  0
   -0.2720    3.2930   -1.6910 C   0  0  0  0  0  0  0  0  0  0  0  0
   -0.8250    0.8950   -1.1380 C   0  0  2  0  0  0  0  0  0  0  0  0
    0.4570    0.6210   -0.5610 N   0  0  0  0  0  0  0  0  0  0  0  0
   -0.8430    0.4380   -2.5400 C   0  0  0  0  0  0  0  0  0  0  0  0
    0.1860   -0.0920   -3.0150 O   0  0  0  0  0  0  0  0  0  0  0  0
   -1.9480    0.5640   -3.3700 O   0  0  0  0  0  0  0  0  0  0  0  0
   -3.2020    1.6080   -1.6490 H   0  0  0  0  0  0  0  0  0  0  0  0
   -3.1620    3.3100   -1.1360 H   0  0  0  0  0  0  0  0  0  0  0  0
   -2.4000    2.7790   -2.7360 H   0  0  0  0  0  0  0  0  0  0  0  0
   -1.3520    2.6430    0.0460 H   0  0  0  0  0  0  0  0  0  0  0  0
   -0.7830    4.3000   -1.6880 H   0  0  0  0  0  0  0  0  0  0  0  0
   -0.0880    3.0380   -2.7450 H   0  0  0  0  0  0  0  0  0  0  0  0
    0.6670    3.4380   -1.1460 H   0  0  0  0  0  0  0  0  0  0  0  0
   -1.6530    0.3300   -0.6110 H   0  0  0  0  0  0  0  0  0  0  0  0
    1.3200    1.0740   -0.9590 H   0  0  0  0  0  0  0  0  0  0  0  0
  1  2  1  0  0  0  0
  1  9  1  0  0  0  0
  2 11  1  1  0  0  0
  2  3  1  0  0  0  0
  3 13  1  0  0  0  0
  3  4  1  0  0  0  0
  3 12  1  0  0  0  0
  4  5  2  0  0  0  0
  6 15  1  0  0  0  0
  6  2  1  0  0  0  0
  7  6  2  0  0  0  0
  8  4  1  0  0  0  0
 10  1  1  0  0  0  0
 14  8  1  0  0  0  0
 15 19  1  0  0  0  0
 16 20  1  0  0  0  0
 16 15  1  0  0  0  0
 17 18  2  0  0  0  0
 17 16  1  0  0  0  0
 21 16  1  0  0  0  0
 22 30  1  0  0  0  0
 22 31  1  0  0  0  0
 22 23  1  0  0  0  0
 23 33  1  0  0  0  0
 24 34  1  0  0  0  0
 24 36  1  0  0  0  0
 24 23  1  0  0  0  0
 25 23  1  0  0  0  0
 25 37  1  1  0  0  0
 25 26  1  0  0  0  0
 26 17  1  0  0  0  0
 27 25  1  0  0  0  0
 28 27  1  0  0  0  0
 29 27  2  0  0  0  0
 32 22  1  0  0  0  0
 35 24  1  0  0  0  0
 38 26  1  0  0  0  0
M  END
$$$$
