DGW.pdb
 OpenBabel07022418133D

 46 47  0  0  1  0  0  0  0  0999 V2000
    1.8490   -2.3740   -1.1830 N   0  0  0  0  0  0  0  0  0  0  0  0
    3.0670   -1.7920   -1.7720 C   0  0  1  0  0  0  0  0  0  0  0  0
    2.5190   -0.9080   -2.9100 C   0  0  0  0  0  0  0  0  0  0  0  0
    1.6320    0.1390   -2.3440 C   0  0  0  0  0  0  0  0  0  0  0  0
    2.1680    1.1220   -1.7760 O   0  0  0  0  0  0  0  0  0  0  0  0
    3.7080   -0.8840   -0.7530 C   0  0  0  0  0  0  0  0  0  0  0  0
    4.8680   -0.4480   -0.8790 O   0  0  0  0  0  0  0  0  0  0  0  0
    0.2510    0.0960   -2.4020 O   0  0  0  0  0  0  0  0  0  0  0  0
    1.3420   -2.9440   -1.8940 H   0  0  0  0  0  0  0  0  0  0  0  0
    2.1970   -3.0760   -0.4810 H   0  0  0  0  0  0  0  0  0  0  0  0
    3.7350   -2.5690   -2.0980 H   0  0  0  0  0  0  0  0  0  0  0  0
    1.8930   -1.5050   -3.6010 H   0  0  0  0  0  0  0  0  0  0  0  0
    3.3790   -0.5260   -3.4690 H   0  0  0  0  0  0  0  0  0  0  0  0
   -0.3340    0.5820   -1.7110 H   0  0  0  0  0  0  0  0  0  0  0  0
    2.9450   -0.5010    0.4080 N   0  0  0  0  0  0  0  0  0  0  0  0
    3.4610    0.3700    1.4120 C   0  0  0  0  0  0  0  0  0  0  0  0
    2.5010    0.6550    2.4870 C   0  0  0  0  0  0  0  0  0  0  0  0
    2.8610    1.4810    3.4110 O   0  0  0  0  0  0  0  0  0  0  0  0
    1.9890   -0.9160    0.4350 H   0  0  0  0  0  0  0  0  0  0  0  0
    3.7860    1.3600    0.9720 H   0  0  0  0  0  0  0  0  0  0  0  0
    4.4120   -0.0600    1.8660 H   0  0  0  0  0  0  0  0  0  0  0  0
    1.2200    0.0780    2.5550 N   0  0  0  0  0  0  0  0  0  0  0  0
    0.3280    0.4420    3.6390 C   0  0  1  0  0  0  0  0  0  0  0  0
   -1.0050    0.7430    3.0270 C   0  0  0  0  0  0  0  0  0  0  0  0
   -1.6200   -0.3510    2.2810 C   0  0  0  0  0  0  0  0  0  0  0  0
   -1.4090   -1.7060    2.2470 C   0  0  0  0  0  0  0  0  0  0  0  0
   -2.2460   -2.3150    1.3900 N   0  0  0  0  0  0  0  0  0  0  0  0
   -3.0330   -1.3530    0.8400 C   0  0  0  0  0  0  0  0  0  0  0  0
   -4.0420   -1.4920   -0.0940 C   0  0  0  0  0  0  0  0  0  0  0  0
   -4.7220   -0.3660   -0.5210 C   0  0  0  0  0  0  0  0  0  0  0  0
   -4.3790    0.8600   -0.0090 C   0  0  0  0  0  0  0  0  0  0  0  0
   -3.3660    0.9600    0.9220 C   0  0  0  0  0  0  0  0  0  0  0  0
   -2.6630   -0.1410    1.3760 C   0  0  0  0  0  0  0  0  0  0  0  0
    0.2090   -0.5160    4.7200 C   0  0  0  0  0  0  0  0  0  0  0  0
    0.8350   -1.5870    4.8940 O   0  0  0  0  0  0  0  0  0  0  0  0
   -0.7370   -0.2280    5.7290 O   0  0  0  0  0  0  0  0  0  0  0  0
    0.8310   -0.6150    1.8820 H   0  0  0  0  0  0  0  0  0  0  0  0
    0.7230    1.4080    4.1150 H   0  0  0  0  0  0  0  0  0  0  0  0
   -1.7030    1.2310    3.7470 H   0  0  0  0  0  0  0  0  0  0  0  0
   -0.8030    1.5590    2.2640 H   0  0  0  0  0  0  0  0  0  0  0  0
   -0.6830   -2.2570    2.8120 H   0  0  0  0  0  0  0  0  0  0  0  0
   -2.3140   -3.3390    1.1550 H   0  0  0  0  0  0  0  0  0  0  0  0
   -4.3170   -2.4560   -0.5030 H   0  0  0  0  0  0  0  0  0  0  0  0
   -5.5150   -0.4950   -1.2570 H   0  0  0  0  0  0  0  0  0  0  0  0
   -4.9190    1.7520   -0.3460 H   0  0  0  0  0  0  0  0  0  0  0  0
   -3.0870    1.9190    1.3330 H   0  0  0  0  0  0  0  0  0  0  0  0
  1 10  1  0  0  0  0
  2 11  1  6  0  0  0
  2  1  1  0  0  0  0
  2  6  1  0  0  0  0
  3  4  1  0  0  0  0
  3  2  1  0  0  0  0
  4  5  2  0  0  0  0
  6 15  1  0  0  0  0
  7  6  2  0  0  0  0
  8  4  1  0  0  0  0
  8 14  1  0  0  0  0
  9  1  1  0  0  0  0
 12  3  1  0  0  0  0
 13  3  1  0  0  0  0
 15 19  1  0  0  0  0
 15 16  1  0  0  0  0
 16 21  1  0  0  0  0
 16 17  1  0  0  0  0
 17 22  1  0  0  0  0
 17 18  2  0  0  0  0
 20 16  1  0  0  0  0
 22 23  1  0  0  0  0
 23 38  1  1  0  0  0
 23 34  1  0  0  0  0
 24 23  1  0  0  0  0
 24 39  1  0  0  0  0
 25 24  1  0  0  0  0
 26 25  2  0  0  0  0
 26 41  1  0  0  0  0
 27 26  1  0  0  0  0
 28 33  1  0  0  0  0
 28 27  1  0  0  0  0
 29 28  2  0  0  0  0
 30 29  1  0  0  0  0
 30 31  2  0  0  0  0
 31 32  1  0  0  0  0
 32 46  1  0  0  0  0
 32 33  2  0  0  0  0
 33 25  1  0  0  0  0
 34 35  2  0  0  0  0
 34 36  1  0  0  0  0
 37 22  1  0  0  0  0
 40 24  1  0  0  0  0
 42 27  1  0  0  0  0
 43 29  1  0  0  0  0
 44 30  1  0  0  0  0
 45 31  1  0  0  0  0
M  END
$$$$
