DHC.pdb
 OpenBabel07022418143D

 43 43  0  0  1  0  0  0  0  0999 V2000
   -0.0960   -2.5990    4.4210 N   0  0  0  0  0  0  0  0  0  0  0  0
    0.8080   -2.2010    3.3800 C   0  0  1  0  0  0  0  0  0  0  0  0
    1.4050   -3.4330    2.7750 C   0  0  0  0  0  0  0  0  0  0  0  0
    2.1410   -4.1980    3.8140 C   0  0  0  0  0  0  0  0  0  0  0  0
    2.7320   -5.2840    3.5590 O   0  0  0  0  0  0  0  0  0  0  0  0
    0.1520   -1.3120    2.4200 C   0  0  0  0  0  0  0  0  0  0  0  0
   -1.0720   -0.9980    2.5940 O   0  0  0  0  0  0  0  0  0  0  0  0
    2.2280   -3.7690    5.1460 O   0  0  0  0  0  0  0  0  0  0  0  0
   -0.2750   -1.9070    5.1520 H   0  0  0  0  0  0  0  0  0  0  0  0
   -0.0560   -3.5830    4.6950 H   0  0  0  0  0  0  0  0  0  0  0  0
    1.6530   -1.6520    3.8880 H   0  0  0  0  0  0  0  0  0  0  0  0
    0.6040   -4.0920    2.3780 H   0  0  0  0  0  0  0  0  0  0  0  0
    2.1130   -3.2360    1.9570 H   0  0  0  0  0  0  0  0  0  0  0  0
    2.4020   -4.4450    5.8920 H   0  0  0  0  0  0  0  0  0  0  0  0
    0.7830   -0.7600    1.2890 N   0  0  0  0  0  0  0  0  0  0  0  0
    0.1870    0.1090    0.3280 C   0  0  1  0  0  0  0  0  0  0  0  0
    0.8420    1.4980    0.3310 C   0  0  0  0  0  0  0  0  0  0  0  0
    0.7080    2.1400    1.6580 C   0  0  0  0  0  0  0  0  0  0  0  0
    1.5980    2.0360    2.7030 C   0  0  0  0  0  0  0  0  0  0  0  0
    1.1390    2.7640    3.7600 N   0  0  0  0  0  0  0  0  0  0  0  0
   -0.0260    3.3140    3.3750 C   0  0  0  0  0  0  0  0  0  0  0  0
   -0.2780    2.9290    2.0970 N   0  0  0  0  0  0  0  0  0  0  0  0
    0.1380   -0.4470   -1.0370 C   0  0  0  0  0  0  0  0  0  0  0  0
    0.5840   -1.5890   -1.3250 O   0  0  0  0  0  0  0  0  0  0  0  0
    1.8020   -1.0230    1.1500 H   0  0  0  0  0  0  0  0  0  0  0  0
   -0.8750    0.2760    0.6410 H   0  0  0  0  0  0  0  0  0  0  0  0
    0.4810    2.1100   -0.4960 H   0  0  0  0  0  0  0  0  0  0  0  0
    1.9320    1.3040    0.1450 H   0  0  0  0  0  0  0  0  0  0  0  0
    2.5280    1.4860    2.7460 H   0  0  0  0  0  0  0  0  0  0  0  0
    1.6190    2.8600    4.6820 H   0  0  0  0  0  0  0  0  0  0  0  0
   -0.6330    3.9500    3.9980 H   0  0  0  0  0  0  0  0  0  0  0  0
   -0.4280    0.3160   -2.0750 N   0  0  0  0  0  0  0  0  0  0  0  0
   -0.5310   -0.1210   -3.4450 C   0  0  1  0  0  0  0  0  0  0  0  0
   -2.0170   -0.3320   -3.7330 C   0  0  0  0  0  0  0  0  0  0  0  0
   -2.6170   -1.6000   -2.5720 S   0  0  0  0  0  0  0  0  0  0  0  0
    0.0920    0.7830   -4.4010 C   0  0  0  0  0  0  0  0  0  0  0  0
    0.6540    1.8310   -4.0220 O   0  0  0  0  0  0  0  0  0  0  0  0
    0.0710    0.4940   -5.7490 O   0  0  0  0  0  0  0  0  0  0  0  0
   -0.8030    1.2650   -1.8530 H   0  0  0  0  0  0  0  0  0  0  0  0
   -0.0770   -1.1510   -3.4830 H   0  0  0  0  0  0  0  0  0  0  0  0
   -2.5890    0.5990   -3.5190 H   0  0  0  0  0  0  0  0  0  0  0  0
   -2.1850   -0.6910   -4.7510 H   0  0  0  0  0  0  0  0  0  0  0  0
   -2.1690   -1.2820   -1.2780 H   0  0  0  0  0  0  0  0  0  0  0  0
  1 10  1  0  0  0  0
  1  9  1  0  0  0  0
  2 11  1  1  0  0  0
  2  1  1  0  0  0  0
  3  2  1  0  0  0  0
  3  4  1  0  0  0  0
  4  8  1  0  0  0  0
  5  4  2  0  0  0  0
  6  7  2  0  0  0  0
  6  2  1  0  0  0  0
  8 14  1  0  0  0  0
 12  3  1  0  0  0  0
 13  3  1  0  0  0  0
 15  6  1  0  0  0  0
 16 17  1  0  0  0  0
 16 26  1  1  0  0  0
 16 15  1  0  0  0  0
 17 18  1  0  0  0  0
 18 22  1  0  0  0  0
 18 19  2  0  0  0  0
 19 29  1  0  0  0  0
 19 20  1  0  0  0  0
 20 30  1  0  0  0  0
 21 20  1  0  0  0  0
 21 31  1  0  0  0  0
 22 21  2  0  0  0  0
 23 16  1  0  0  0  0
 24 23  2  0  0  0  0
 25 15  1  0  0  0  0
 27 17  1  0  0  0  0
 28 17  1  0  0  0  0
 32 39  1  0  0  0  0
 32 23  1  0  0  0  0
 33 40  1  6  0  0  0
 33 32  1  0  0  0  0
 34 41  1  0  0  0  0
 34 33  1  0  0  0  0
 34 35  1  0  0  0  0
 35 43  1  0  0  0  0
 36 37  1  0  0  0  0
 36 33  1  0  0  0  0
 38 36  2  0  0  0  0
 42 34  1  0  0  0  0
M  END
$$$$
