DHH.pdb
 OpenBabel07022418143D

 49 50  0  0  1  0  0  0  0  0999 V2000
    3.9820   -2.4200    3.4630 N   0  0  0  0  0  0  0  0  0  0  0  0
    3.7880   -1.9030    2.1170 C   0  0  1  0  0  0  0  0  0  0  0  0
    4.0660   -3.0130    1.1260 C   0  0  0  0  0  0  0  0  0  0  0  0
    5.4740   -3.4460    1.3300 C   0  0  0  0  0  0  0  0  0  0  0  0
    6.2380   -2.9310    2.1880 O   0  0  0  0  0  0  0  0  0  0  0  0
    2.4130   -1.3870    2.0140 C   0  0  0  0  0  0  0  0  0  0  0  0
    1.6190   -1.4480    2.9880 O   0  0  0  0  0  0  0  0  0  0  0  0
    6.0420   -4.4760    0.5580 O   0  0  0  0  0  0  0  0  0  0  0  0
    3.0500   -2.6400    3.8800 H   0  0  0  0  0  0  0  0  0  0  0  0
    4.4050   -1.6670    4.0700 H   0  0  0  0  0  0  0  0  0  0  0  0
    4.5670   -1.1320    1.9550 H   0  0  0  0  0  0  0  0  0  0  0  0
    3.3780   -3.8730    1.2640 H   0  0  0  0  0  0  0  0  0  0  0  0
    3.9780   -2.5760    0.1120 H   0  0  0  0  0  0  0  0  0  0  0  0
    6.6490   -5.1670    1.0280 H   0  0  0  0  0  0  0  0  0  0  0  0
    1.8880   -0.7900    0.8240 N   0  0  0  0  0  0  0  0  0  0  0  0
    0.5280   -0.2840    0.7300 C   0  0  1  0  0  0  0  0  0  0  0  0
    0.6200    1.2400    0.5490 C   0  0  0  0  0  0  0  0  0  0  0  0
    1.3290    1.7640    1.7540 C   0  0  0  0  0  0  0  0  0  0  0  0
    0.6530    2.1500    2.8980 C   0  0  0  0  0  0  0  0  0  0  0  0
    1.5860    2.5660    3.7750 N   0  0  0  0  0  0  0  0  0  0  0  0
    2.8070    2.4430    3.1940 C   0  0  0  0  0  0  0  0  0  0  0  0
    2.6440    1.9510    1.9550 N   0  0  0  0  0  0  0  0  0  0  0  0
   -0.1720   -0.7860   -0.4690 C   0  0  0  0  0  0  0  0  0  0  0  0
    0.4360   -1.5610   -1.2520 O   0  0  0  0  0  0  0  0  0  0  0  0
    2.5430   -0.7360    0.0140 H   0  0  0  0  0  0  0  0  0  0  0  0
   -0.0300   -0.4250    1.6710 H   0  0  0  0  0  0  0  0  0  0  0  0
   -0.4050    1.6690    0.4810 H   0  0  0  0  0  0  0  0  0  0  0  0
    1.2090    1.5050   -0.3520 H   0  0  0  0  0  0  0  0  0  0  0  0
   -0.4130    2.1240    3.0590 H   0  0  0  0  0  0  0  0  0  0  0  0
    1.4330    2.9290    4.7470 H   0  0  0  0  0  0  0  0  0  0  0  0
    3.7250    2.7040    3.6740 H   0  0  0  0  0  0  0  0  0  0  0  0
   -1.4990   -0.4520   -0.8070 N   0  0  0  0  0  0  0  0  0  0  0  0
   -2.2120   -0.9140   -1.9530 C   0  0  1  0  0  0  0  0  0  0  0  0
   -3.4710   -1.6550   -1.6600 C   0  0  0  0  0  0  0  0  0  0  0  0
   -4.4670   -0.8820   -0.9230 C   0  0  0  0  0  0  0  0  0  0  0  0
   -5.7020   -1.3550   -0.5420 C   0  0  0  0  0  0  0  0  0  0  0  0
   -6.3450   -0.3550    0.1200 N   0  0  0  0  0  0  0  0  0  0  0  0
   -5.5170    0.7170    0.1470 C   0  0  0  0  0  0  0  0  0  0  0  0
   -4.3640    0.3750   -0.5010 N   0  0  0  0  0  0  0  0  0  0  0  0
   -2.5070    0.2500   -2.8440 C   0  0  0  0  0  0  0  0  0  0  0  0
   -2.1550    1.4270   -2.5710 O   0  0  0  0  0  0  0  0  0  0  0  0
   -3.2020    0.0760   -4.0470 O   0  0  0  0  0  0  0  0  0  0  0  0
   -1.9980    0.1950   -0.1490 H   0  0  0  0  0  0  0  0  0  0  0  0
   -1.5590   -1.5920   -2.5570 H   0  0  0  0  0  0  0  0  0  0  0  0
   -3.2440   -2.6440   -1.1850 H   0  0  0  0  0  0  0  0  0  0  0  0
   -3.9250   -1.9250   -2.6560 H   0  0  0  0  0  0  0  0  0  0  0  0
   -6.1470   -2.3270   -0.7040 H   0  0  0  0  0  0  0  0  0  0  0  0
   -7.3020   -0.4350    0.5220 H   0  0  0  0  0  0  0  0  0  0  0  0
   -5.7710    1.6450    0.6070 H   0  0  0  0  0  0  0  0  0  0  0  0
  1  9  1  0  0  0  0
  1 10  1  0  0  0  0
  2 11  1  6  0  0  0
  2  1  1  0  0  0  0
  3 12  1  0  0  0  0
  3  4  1  0  0  0  0
  3  2  1  0  0  0  0
  4  5  2  0  0  0  0
  6  2  1  0  0  0  0
  6  7  2  0  0  0  0
  8 14  1  0  0  0  0
  8  4  1  0  0  0  0
 13  3  1  0  0  0  0
 15  6  1  0  0  0  0
 16 15  1  0  0  0  0
 16 26  1  1  0  0  0
 17 16  1  0  0  0  0
 17 18  1  0  0  0  0
 18 22  1  0  0  0  0
 18 19  2  0  0  0  0
 19 29  1  0  0  0  0
 19 20  1  0  0  0  0
 20 30  1  0  0  0  0
 21 31  1  0  0  0  0
 21 20  1  0  0  0  0
 22 21  2  0  0  0  0
 23 16  1  0  0  0  0
 24 23  2  0  0  0  0
 25 15  1  0  0  0  0
 27 17  1  0  0  0  0
 28 17  1  0  0  0  0
 32 23  1  0  0  0  0
 32 43  1  0  0  0  0
 33 44  1  6  0  0  0
 33 34  1  0  0  0  0
 33 32  1  0  0  0  0
 34 45  1  0  0  0  0
 34 35  1  0  0  0  0
 35 36  2  0  0  0  0
 35 39  1  0  0  0  0
 36 37  1  0  0  0  0
 37 38  1  0  0  0  0
 37 48  1  0  0  0  0
 38 49  1  0  0  0  0
 39 38  2  0  0  0  0
 40 41  1  0  0  0  0
 40 33  1  0  0  0  0
 42 40  2  0  0  0  0
 46 34  1  0  0  0  0
 47 36  1  0  0  0  0
M  END
$$$$
