DHL.pdb
 OpenBabel07022418143D

 51 51  0  0  1  0  0  0  0  0999 V2000
    2.2660   -0.5460    4.2090 N   0  0  0  0  0  0  0  0  0  0  0  0
    0.8770   -0.1950    4.3030 C   0  0  1  0  0  0  0  0  0  0  0  0
    0.5490    0.9250    5.2180 C   0  0  0  0  0  0  0  0  0  0  0  0
    1.1540    2.2210    4.9340 C   0  0  0  0  0  0  0  0  0  0  0  0
    2.3930    2.3640    4.7700 O   0  0  0  0  0  0  0  0  0  0  0  0
    0.2510   -0.0530    2.9640 C   0  0  0  0  0  0  0  0  0  0  0  0
   -0.9520    0.3660    2.8880 O   0  0  0  0  0  0  0  0  0  0  0  0
    0.3840    3.4010    4.8230 O   0  0  0  0  0  0  0  0  0  0  0  0
    2.3270   -1.5090    3.8140 H   0  0  0  0  0  0  0  0  0  0  0  0
    2.7270   -0.5480    5.1200 H   0  0  0  0  0  0  0  0  0  0  0  0
    0.3720   -1.1120    4.7470 H   0  0  0  0  0  0  0  0  0  0  0  0
   -0.5510    1.0800    5.2840 H   0  0  0  0  0  0  0  0  0  0  0  0
    0.8520    0.5920    6.2530 H   0  0  0  0  0  0  0  0  0  0  0  0
    0.8290    4.2710    4.5630 H   0  0  0  0  0  0  0  0  0  0  0  0
    1.0130   -0.3860    1.8200 N   0  0  0  0  0  0  0  0  0  0  0  0
    0.4380   -0.2550    0.5050 C   0  0  1  0  0  0  0  0  0  0  0  0
    1.2500    0.7530   -0.2710 C   0  0  0  0  0  0  0  0  0  0  0  0
    1.1970    2.0260    0.4630 C   0  0  0  0  0  0  0  0  0  0  0  0
    2.0450    2.5040    1.4290 C   0  0  0  0  0  0  0  0  0  0  0  0
    1.6160    3.7300    1.8220 N   0  0  0  0  0  0  0  0  0  0  0  0
    0.5140    4.0130    1.1110 C   0  0  0  0  0  0  0  0  0  0  0  0
    0.2640    2.9730    0.2860 N   0  0  0  0  0  0  0  0  0  0  0  0
    0.3760   -1.5400   -0.2170 C   0  0  0  0  0  0  0  0  0  0  0  0
    0.7830   -2.5820    0.3610 O   0  0  0  0  0  0  0  0  0  0  0  0
    2.0000   -0.7370    1.8680 H   0  0  0  0  0  0  0  0  0  0  0  0
   -0.6070    0.1730    0.5780 H   0  0  0  0  0  0  0  0  0  0  0  0
    2.2860    0.3540   -0.3440 H   0  0  0  0  0  0  0  0  0  0  0  0
    0.8610    0.8310   -1.3140 H   0  0  0  0  0  0  0  0  0  0  0  0
    2.9110    2.0100    1.8260 H   0  0  0  0  0  0  0  0  0  0  0  0
    2.0920    4.3140    2.5500 H   0  0  0  0  0  0  0  0  0  0  0  0
   -0.0770    4.9130    1.1800 H   0  0  0  0  0  0  0  0  0  0  0  0
   -2.3180   -4.3170   -0.6650 C   0  0  0  0  0  0  0  0  0  0  0  0
   -2.5920   -3.1970   -1.6120 C   0  0  0  0  0  0  0  0  0  0  0  0
   -3.9540   -3.3970   -2.2420 C   0  0  0  0  0  0  0  0  0  0  0  0
   -1.5900   -3.1150   -2.7440 C   0  0  0  0  0  0  0  0  0  0  0  0
   -0.1960   -2.8990   -2.2740 C   0  0  2  0  0  0  0  0  0  0  0  0
   -0.1170   -1.6560   -1.5320 N   0  0  0  0  0  0  0  0  0  0  0  0
    0.6940   -2.8480   -3.4670 C   0  0  0  0  0  0  0  0  0  0  0  0
    1.3980   -1.8430   -3.7420 O   0  0  0  0  0  0  0  0  0  0  0  0
    0.7440   -3.9450   -4.2980 O   0  0  0  0  0  0  0  0  0  0  0  0
   -3.2910   -4.7470   -0.3510 H   0  0  0  0  0  0  0  0  0  0  0  0
   -1.6560   -5.0980   -1.0950 H   0  0  0  0  0  0  0  0  0  0  0  0
   -1.8070   -3.9100    0.2290 H   0  0  0  0  0  0  0  0  0  0  0  0
   -2.6590   -2.2120   -1.0720 H   0  0  0  0  0  0  0  0  0  0  0  0
   -4.7080   -3.4120   -1.4200 H   0  0  0  0  0  0  0  0  0  0  0  0
   -3.9820   -4.3290   -2.8460 H   0  0  0  0  0  0  0  0  0  0  0  0
   -4.2170   -2.4880   -2.8400 H   0  0  0  0  0  0  0  0  0  0  0  0
   -1.6730   -4.0960   -3.2970 H   0  0  0  0  0  0  0  0  0  0  0  0
   -1.8980   -2.2900   -3.4150 H   0  0  0  0  0  0  0  0  0  0  0  0
    0.1110   -3.7160   -1.6090 H   0  0  0  0  0  0  0  0  0  0  0  0
   -0.4490   -0.8030   -2.0130 H   0  0  0  0  0  0  0  0  0  0  0  0
  1  2  1  0  0  0  0
  1 10  1  0  0  0  0
  2 11  1  1  0  0  0
  2  3  1  0  0  0  0
  3 12  1  0  0  0  0
  3 13  1  0  0  0  0
  4  3  1  0  0  0  0
  5  4  2  0  0  0  0
  6  2  1  0  0  0  0
  7  6  2  0  0  0  0
  8  4  1  0  0  0  0
  9  1  1  0  0  0  0
 14  8  1  0  0  0  0
 15 25  1  0  0  0  0
 15  6  1  0  0  0  0
 16 26  1  1  0  0  0
 16 15  1  0  0  0  0
 17 18  1  0  0  0  0
 17 16  1  0  0  0  0
 18 19  2  0  0  0  0
 19 20  1  0  0  0  0
 19 29  1  0  0  0  0
 20 30  1  0  0  0  0
 21 31  1  0  0  0  0
 21 20  1  0  0  0  0
 22 18  1  0  0  0  0
 22 21  2  0  0  0  0
 23 24  2  0  0  0  0
 23 16  1  0  0  0  0
 27 17  1  0  0  0  0
 28 17  1  0  0  0  0
 32 41  1  0  0  0  0
 32 43  1  0  0  0  0
 33 44  1  0  0  0  0
 33 32  1  0  0  0  0
 34 33  1  0  0  0  0
 34 45  1  0  0  0  0
 35 36  1  0  0  0  0
 35 33  1  0  0  0  0
 36 50  1  1  0  0  0
 36 37  1  0  0  0  0
 37 23  1  0  0  0  0
 38 36  1  0  0  0  0
 39 38  1  0  0  0  0
 40 38  2  0  0  0  0
 42 32  1  0  0  0  0
 46 34  1  0  0  0  0
 47 34  1  0  0  0  0
 48 35  1  0  0  0  0
 49 35  1  0  0  0  0
 51 37  1  0  0  0  0
M  END
$$$$
