DHM.pdb
 OpenBabel07022418143D

 49 49  0  0  1  0  0  0  0  0999 V2000
    2.6700   -1.1700    3.6750 N   0  0  0  0  0  0  0  0  0  0  0  0
    1.3340   -0.6320    3.9840 C   0  0  1  0  0  0  0  0  0  0  0  0
    1.4770    0.5800    4.8550 C   0  0  0  0  0  0  0  0  0  0  0  0
    0.2230    1.2110    5.2720 C   0  0  0  0  0  0  0  0  0  0  0  0
   -0.9340    0.8110    5.0420 O   0  0  0  0  0  0  0  0  0  0  0  0
    0.6230   -0.3760    2.7000 C   0  0  0  0  0  0  0  0  0  0  0  0
   -0.5630   -0.0130    2.6770 O   0  0  0  0  0  0  0  0  0  0  0  0
    0.3070    2.4060    6.0150 O   0  0  0  0  0  0  0  0  0  0  0  0
    2.4700   -2.1020    3.2060 H   0  0  0  0  0  0  0  0  0  0  0  0
    3.0830   -1.4200    4.5990 H   0  0  0  0  0  0  0  0  0  0  0  0
    0.7900   -1.4140    4.5250 H   0  0  0  0  0  0  0  0  0  0  0  0
    2.1270    1.3450    4.3250 H   0  0  0  0  0  0  0  0  0  0  0  0
    2.0200    0.2290    5.7790 H   0  0  0  0  0  0  0  0  0  0  0  0
   -0.4020    3.1350    5.9300 H   0  0  0  0  0  0  0  0  0  0  0  0
    1.2670   -0.5350    1.4410 N   0  0  0  0  0  0  0  0  0  0  0  0
    0.5440   -0.2780    0.2240 C   0  0  1  0  0  0  0  0  0  0  0  0
    1.2740    0.5330   -0.7670 C   0  0  0  0  0  0  0  0  0  0  0  0
    1.6540    1.8920   -0.3340 C   0  0  0  0  0  0  0  0  0  0  0  0
    1.4260    2.5770    0.8300 C   0  0  0  0  0  0  0  0  0  0  0  0
    1.9790    3.8100    0.7060 N   0  0  0  0  0  0  0  0  0  0  0  0
    2.5460    3.9100   -0.5060 C   0  0  0  0  0  0  0  0  0  0  0  0
    2.3570    2.7530   -1.1510 N   0  0  0  0  0  0  0  0  0  0  0  0
    0.1230   -1.6040   -0.3460 C   0  0  0  0  0  0  0  0  0  0  0  0
    0.4000   -2.6870    0.2240 O   0  0  0  0  0  0  0  0  0  0  0  0
    2.2680   -0.8400    1.4330 H   0  0  0  0  0  0  0  0  0  0  0  0
   -0.4210    0.2340    0.4820 H   0  0  0  0  0  0  0  0  0  0  0  0
    0.6270    0.6790   -1.6850 H   0  0  0  0  0  0  0  0  0  0  0  0
    2.2080   -0.0070   -1.1070 H   0  0  0  0  0  0  0  0  0  0  0  0
    0.8980    2.2090    1.6860 H   0  0  0  0  0  0  0  0  0  0  0  0
    1.9640    4.5600    1.4400 H   0  0  0  0  0  0  0  0  0  0  0  0
    3.0790    4.7750   -0.9290 H   0  0  0  0  0  0  0  0  0  0  0  0
   -2.6980   -3.6830    0.6830 C   0  0  0  0  0  0  0  0  0  0  0  0
   -3.9150   -3.4580   -0.5980 S   0  0  0  0  0  0  0  0  0  0  0  0
   -3.5290   -2.2540   -1.8500 C   0  0  0  0  0  0  0  0  0  0  0  0
   -2.4400   -2.6200   -2.7810 C   0  0  0  0  0  0  0  0  0  0  0  0
   -1.0770   -2.8460   -2.2110 C   0  0  2  0  0  0  0  0  0  0  0  0
   -0.6040   -1.6470   -1.5530 N   0  0  0  0  0  0  0  0  0  0  0  0
   -0.1350   -3.1850   -3.3510 C   0  0  0  0  0  0  0  0  0  0  0  0
   -0.3450   -4.1760   -4.0580 O   0  0  0  0  0  0  0  0  0  0  0  0
    0.9340   -2.3660   -3.5620 O   0  0  0  0  0  0  0  0  0  0  0  0
   -3.1830   -4.0200    1.6520 H   0  0  0  0  0  0  0  0  0  0  0  0
   -2.0000   -4.4850    0.4150 H   0  0  0  0  0  0  0  0  0  0  0  0
   -2.1880   -2.7360    0.9750 H   0  0  0  0  0  0  0  0  0  0  0  0
   -4.4720   -2.0920   -2.4650 H   0  0  0  0  0  0  0  0  0  0  0  0
   -3.3470   -1.2360   -1.3920 H   0  0  0  0  0  0  0  0  0  0  0  0
   -2.7160   -3.5950   -3.3060 H   0  0  0  0  0  0  0  0  0  0  0  0
   -2.3860   -1.8850   -3.6420 H   0  0  0  0  0  0  0  0  0  0  0  0
   -1.0660   -3.7420   -1.5970 H   0  0  0  0  0  0  0  0  0  0  0  0
   -0.8200   -0.7260   -2.0130 H   0  0  0  0  0  0  0  0  0  0  0  0
  1  2  1  0  0  0  0
  1 10  1  0  0  0  0
  2 11  1  1  0  0  0
  2  3  1  0  0  0  0
  3  4  1  0  0  0  0
  3 13  1  0  0  0  0
  4  8  1  0  0  0  0
  5  4  2  0  0  0  0
  6  2  1  0  0  0  0
  7  6  2  0  0  0  0
  9  1  1  0  0  0  0
 12  3  1  0  0  0  0
 14  8  1  0  0  0  0
 15  6  1  0  0  0  0
 16 26  1  1  0  0  0
 16 15  1  0  0  0  0
 17 18  1  0  0  0  0
 17 16  1  0  0  0  0
 18 19  2  0  0  0  0
 19 29  1  0  0  0  0
 20 19  1  0  0  0  0
 20 30  1  0  0  0  0
 21 20  1  0  0  0  0
 22 21  2  0  0  0  0
 22 18  1  0  0  0  0
 23 24  2  0  0  0  0
 23 16  1  0  0  0  0
 25 15  1  0  0  0  0
 27 17  1  0  0  0  0
 28 17  1  0  0  0  0
 31 21  1  0  0  0  0
 32 43  1  0  0  0  0
 32 41  1  0  0  0  0
 33 32  1  0  0  0  0
 34 45  1  0  0  0  0
 34 33  1  0  0  0  0
 35 36  1  0  0  0  0
 35 34  1  0  0  0  0
 36 48  1  1  0  0  0
 36 37  1  0  0  0  0
 37 23  1  0  0  0  0
 38 36  1  0  0  0  0
 39 38  2  0  0  0  0
 40 38  1  0  0  0  0
 42 32  1  0  0  0  0
 44 34  1  0  0  0  0
 46 35  1  0  0  0  0
 47 35  1  0  0  0  0
 49 37  1  0  0  0  0
M  END
$$$$
