DHQ.pdb
 OpenBabel07022418143D

 49 49  0  0  1  0  0  0  0  0999 V2000
   -1.2090    1.0040    3.8730 N   0  0  0  0  0  0  0  0  0  0  0  0
   -0.7840    1.0530    2.5190 C   0  0  1  0  0  0  0  0  0  0  0  0
   -0.1790    2.3490    2.1050 C   0  0  0  0  0  0  0  0  0  0  0  0
    1.0070    2.6500    2.9440 C   0  0  0  0  0  0  0  0  0  0  0  0
    1.3390    1.8680    3.8820 O   0  0  0  0  0  0  0  0  0  0  0  0
    0.1610   -0.0550    2.1410 C   0  0  0  0  0  0  0  0  0  0  0  0
    0.5400   -0.8150    3.0450 O   0  0  0  0  0  0  0  0  0  0  0  0
    1.7170    3.8090    2.6520 O   0  0  0  0  0  0  0  0  0  0  0  0
   -0.6760    0.3390    4.4770 H   0  0  0  0  0  0  0  0  0  0  0  0
   -2.2400    0.8590    3.9940 H   0  0  0  0  0  0  0  0  0  0  0  0
   -1.7130    0.9050    1.8890 H   0  0  0  0  0  0  0  0  0  0  0  0
   -0.9350    3.1720    2.1610 H   0  0  0  0  0  0  0  0  0  0  0  0
    0.1610    2.3440    1.0520 H   0  0  0  0  0  0  0  0  0  0  0  0
    2.3770    4.1730    3.3040 H   0  0  0  0  0  0  0  0  0  0  0  0
    0.5540   -0.1740    0.8080 N   0  0  0  0  0  0  0  0  0  0  0  0
    1.4450   -1.1290    0.2200 C   0  0  1  0  0  0  0  0  0  0  0  0
    2.1210   -2.0370    1.2340 C   0  0  0  0  0  0  0  0  0  0  0  0
    2.9960   -1.2150    2.0970 C   0  0  0  0  0  0  0  0  0  0  0  0
    3.2900    0.1270    2.0150 C   0  0  0  0  0  0  0  0  0  0  0  0
    4.1720    0.5030    2.9590 N   0  0  0  0  0  0  0  0  0  0  0  0
    4.4430   -0.6140    3.6510 C   0  0  0  0  0  0  0  0  0  0  0  0
    3.7480   -1.6480    3.1480 N   0  0  0  0  0  0  0  0  0  0  0  0
    0.9970   -1.7860   -0.9910 C   0  0  0  0  0  0  0  0  0  0  0  0
    1.7400   -2.6220   -1.5550 O   0  0  0  0  0  0  0  0  0  0  0  0
    0.1400    0.5440    0.1270 H   0  0  0  0  0  0  0  0  0  0  0  0
    2.3810   -0.4920   -0.0890 H   0  0  0  0  0  0  0  0  0  0  0  0
    2.7820   -2.7300    0.6760 H   0  0  0  0  0  0  0  0  0  0  0  0
    1.4050   -2.6580    1.7930 H   0  0  0  0  0  0  0  0  0  0  0  0
    2.8880    0.8260    1.3060 H   0  0  0  0  0  0  0  0  0  0  0  0
    4.5430    1.4720    3.0900 H   0  0  0  0  0  0  0  0  0  0  0  0
    5.1410   -0.6030    4.4910 H   0  0  0  0  0  0  0  0  0  0  0  0
   -3.8460   -1.8080    0.4450 N   0  0  0  0  0  0  0  0  0  0  0  0
   -2.7910   -2.4950   -0.2380 C   0  0  0  0  0  0  0  0  0  0  0  0
   -1.7580   -2.7230    0.4340 O   0  0  0  0  0  0  0  0  0  0  0  0
   -2.9720   -2.8840   -1.6300 C   0  0  0  0  0  0  0  0  0  0  0  0
   -1.7710   -3.1610   -2.4370 C   0  0  0  0  0  0  0  0  0  0  0  0
   -0.8170   -2.0660   -2.7170 C   0  0  2  0  0  0  0  0  0  0  0  0
   -0.2750   -1.4890   -1.5400 N   0  0  0  0  0  0  0  0  0  0  0  0
   -1.2990   -1.0800   -3.7050 C   0  0  0  0  0  0  0  0  0  0  0  0
   -1.8020   -1.4630   -4.7930 O   0  0  0  0  0  0  0  0  0  0  0  0
   -1.2330    0.2920   -3.5050 O   0  0  0  0  0  0  0  0  0  0  0  0
   -4.6550   -2.3690    0.7840 H   0  0  0  0  0  0  0  0  0  0  0  0
   -3.8470   -0.7940    0.6170 H   0  0  0  0  0  0  0  0  0  0  0  0
   -3.6760   -2.1540   -2.0940 H   0  0  0  0  0  0  0  0  0  0  0  0
   -3.5760   -3.8460   -1.6090 H   0  0  0  0  0  0  0  0  0  0  0  0
   -1.1890   -3.9650   -1.8960 H   0  0  0  0  0  0  0  0  0  0  0  0
   -2.0200   -3.6480   -3.4140 H   0  0  0  0  0  0  0  0  0  0  0  0
    0.0730   -2.5910   -3.2190 H   0  0  0  0  0  0  0  0  0  0  0  0
   -0.8470   -0.7690   -1.0490 H   0  0  0  0  0  0  0  0  0  0  0  0
  1 10  1  0  0  0  0
  1  9  1  0  0  0  0
  2 11  1  6  0  0  0
  2  1  1  0  0  0  0
  3 12  1  0  0  0  0
  3  2  1  0  0  0  0
  3  4  1  0  0  0  0
  4  5  2  0  0  0  0
  6  2  1  0  0  0  0
  6  7  2  0  0  0  0
  8  4  1  0  0  0  0
  8 14  1  0  0  0  0
 13  3  1  0  0  0  0
 15  6  1  0  0  0  0
 16 26  1  6  0  0  0
 16 15  1  0  0  0  0
 16 17  1  0  0  0  0
 17 28  1  0  0  0  0
 17 18  1  0  0  0  0
 18 22  1  0  0  0  0
 19 18  2  0  0  0  0
 19 20  1  0  0  0  0
 20 30  1  0  0  0  0
 20 21  1  0  0  0  0
 21 31  1  0  0  0  0
 22 21  2  0  0  0  0
 23 16  1  0  0  0  0
 24 23  2  0  0  0  0
 25 15  1  0  0  0  0
 27 17  1  0  0  0  0
 29 19  1  0  0  0  0
 32 43  1  0  0  0  0
 32 42  1  0  0  0  0
 33 34  2  0  0  0  0
 33 32  1  0  0  0  0
 35 45  1  0  0  0  0
 35 33  1  0  0  0  0
 36 46  1  0  0  0  0
 36 35  1  0  0  0  0
 37 48  1  6  0  0  0
 37 36  1  0  0  0  0
 37 38  1  0  0  0  0
 38 49  1  0  0  0  0
 38 23  1  0  0  0  0
 39 41  1  0  0  0  0
 39 37  1  0  0  0  0
 40 39  2  0  0  0  0
 44 35  1  0  0  0  0
 47 36  1  0  0  0  0
M  END
$$$$
