DHS.pdb
 OpenBabel07022418143D

 43 43  0  0  1  0  0  0  0  0999 V2000
   -0.4240   -3.0640    2.3750 N   0  0  0  0  0  0  0  0  0  0  0  0
   -0.3350   -1.6050    2.7220 C   0  0  1  0  0  0  0  0  0  0  0  0
    0.4980   -1.4860    3.9480 C   0  0  0  0  0  0  0  0  0  0  0  0
    0.6170   -0.1140    4.4240 C   0  0  0  0  0  0  0  0  0  0  0  0
    1.5370    0.1970    5.2740 O   0  0  0  0  0  0  0  0  0  0  0  0
    0.3370   -1.0310    1.5340 C   0  0  0  0  0  0  0  0  0  0  0  0
    1.1930   -1.7710    0.9300 O   0  0  0  0  0  0  0  0  0  0  0  0
   -0.1790    0.9490    4.0570 O   0  0  0  0  0  0  0  0  0  0  0  0
   -0.9310   -3.5720    3.1050 H   0  0  0  0  0  0  0  0  0  0  0  0
    0.5000   -3.4230    2.1110 H   0  0  0  0  0  0  0  0  0  0  0  0
   -1.3510   -1.2810    2.9000 H   0  0  0  0  0  0  0  0  0  0  0  0
    0.0520   -2.1240    4.7620 H   0  0  0  0  0  0  0  0  0  0  0  0
    1.5370   -1.8920    3.7710 H   0  0  0  0  0  0  0  0  0  0  0  0
   -0.4310    1.6680    4.7310 H   0  0  0  0  0  0  0  0  0  0  0  0
    0.1160    0.2620    0.9900 N   0  0  0  0  0  0  0  0  0  0  0  0
    0.8140    0.6760   -0.1950 C   0  0  1  0  0  0  0  0  0  0  0  0
    2.1990    1.0810    0.0490 C   0  0  0  0  0  0  0  0  0  0  0  0
    2.2570    2.2340    0.9670 C   0  0  0  0  0  0  0  0  0  0  0  0
    2.4120    2.2160    2.3280 C   0  0  0  0  0  0  0  0  0  0  0  0
    2.4480    3.5070    2.7840 N   0  0  0  0  0  0  0  0  0  0  0  0
    2.3180    4.3010    1.7290 C   0  0  0  0  0  0  0  0  0  0  0  0
    2.2030    3.5460    0.6270 N   0  0  0  0  0  0  0  0  0  0  0  0
    0.5890   -0.2110   -1.3690 C   0  0  0  0  0  0  0  0  0  0  0  0
    1.2940   -0.0610   -2.3930 O   0  0  0  0  0  0  0  0  0  0  0  0
   -0.5830    0.8740    1.4820 H   0  0  0  0  0  0  0  0  0  0  0  0
    0.2540    1.6400   -0.5290 H   0  0  0  0  0  0  0  0  0  0  0  0
    2.7090    1.4330   -0.8970 H   0  0  0  0  0  0  0  0  0  0  0  0
    2.8400    0.2590    0.4570 H   0  0  0  0  0  0  0  0  0  0  0  0
    2.5100    1.3750    2.9900 H   0  0  0  0  0  0  0  0  0  0  0  0
    2.5580    3.7740    3.7860 H   0  0  0  0  0  0  0  0  0  0  0  0
    2.3060    5.3710    1.7390 H   0  0  0  0  0  0  0  0  0  0  0  0
   -0.7280   -4.4280   -2.9660 O   0  0  0  0  0  0  0  0  0  0  0  0
   -0.5170   -3.5030   -1.9630 C   0  0  0  0  0  0  0  0  0  0  0  0
   -0.6610   -2.1010   -2.4490 C   0  0  2  0  0  0  0  0  0  0  0  0
   -0.4120   -1.1960   -1.3080 N   0  0  0  0  0  0  0  0  0  0  0  0
   -2.0250   -1.8540   -2.9950 C   0  0  0  0  0  0  0  0  0  0  0  0
   -2.4460   -2.5170   -3.9760 O   0  0  0  0  0  0  0  0  0  0  0  0
   -2.8610   -0.8970   -2.4450 O   0  0  0  0  0  0  0  0  0  0  0  0
   -1.5930   -4.9230   -2.8370 H   0  0  0  0  0  0  0  0  0  0  0  0
    0.5410   -3.6360   -1.6080 H   0  0  0  0  0  0  0  0  0  0  0  0
   -1.1800   -3.6900   -1.0760 H   0  0  0  0  0  0  0  0  0  0  0  0
    0.0520   -1.8980   -3.2630 H   0  0  0  0  0  0  0  0  0  0  0  0
   -1.0240   -1.3170   -0.4720 H   0  0  0  0  0  0  0  0  0  0  0  0
  1  2  1  0  0  0  0
  1  9  1  0  0  0  0
  2 11  1  1  0  0  0
  2  3  1  0  0  0  0
  3  4  1  0  0  0  0
  3 12  1  0  0  0  0
  4  5  2  0  0  0  0
  6  2  1  0  0  0  0
  7  6  2  0  0  0  0
  8  4  1  0  0  0  0
  8 14  1  0  0  0  0
 10  1  1  0  0  0  0
 13  3  1  0  0  0  0
 15 25  1  0  0  0  0
 15  6  1  0  0  0  0
 16 26  1  6  0  0  0
 16 17  1  0  0  0  0
 16 15  1  0  0  0  0
 17 28  1  0  0  0  0
 17 18  1  0  0  0  0
 18 19  2  0  0  0  0
 19 20  1  0  0  0  0
 19 29  1  0  0  0  0
 20 30  1  0  0  0  0
 21 31  1  0  0  0  0
 21 20  1  0  0  0  0
 22 18  1  0  0  0  0
 22 21  2  0  0  0  0
 23 35  1  0  0  0  0
 23 16  1  0  0  0  0
 24 23  2  0  0  0  0
 27 17  1  0  0  0  0
 32 39  1  0  0  0  0
 32 33  1  0  0  0  0
 33 40  1  0  0  0  0
 33 41  1  0  0  0  0
 34 42  1  6  0  0  0
 34 33  1  0  0  0  0
 34 35  1  0  0  0  0
 35 43  1  0  0  0  0
 36 34  1  0  0  0  0
 36 38  1  0  0  0  0
 37 36  2  0  0  0  0
M  END
$$$$
