DHT.pdb
 OpenBabel07022418143D

 46 46  0  0  1  0  0  0  0  0999 V2000
    3.3060   -0.7260    3.4250 N   0  0  0  0  0  0  0  0  0  0  0  0
    2.6080   -1.2330    2.2840 C   0  0  1  0  0  0  0  0  0  0  0  0
    1.6480   -2.3170    2.7160 C   0  0  0  0  0  0  0  0  0  0  0  0
    2.3680   -3.4390    3.3670 C   0  0  0  0  0  0  0  0  0  0  0  0
    3.6150   -3.3700    3.4790 O   0  0  0  0  0  0  0  0  0  0  0  0
    1.7860   -0.1660    1.6180 C   0  0  0  0  0  0  0  0  0  0  0  0
    1.8200    0.9700    2.1250 O   0  0  0  0  0  0  0  0  0  0  0  0
    1.7180   -4.5540    3.8510 O   0  0  0  0  0  0  0  0  0  0  0  0
    4.2870   -1.0660    3.5120 H   0  0  0  0  0  0  0  0  0  0  0  0
    2.7700   -0.9790    4.2840 H   0  0  0  0  0  0  0  0  0  0  0  0
    3.2980   -1.6990    1.5450 H   0  0  0  0  0  0  0  0  0  0  0  0
    0.9140   -1.9250    3.4750 H   0  0  0  0  0  0  0  0  0  0  0  0
    1.0170   -2.6730    1.8720 H   0  0  0  0  0  0  0  0  0  0  0  0
    2.1390   -5.2200    4.4890 H   0  0  0  0  0  0  0  0  0  0  0  0
    1.0090   -0.4520    0.4610 N   0  0  0  0  0  0  0  0  0  0  0  0
    0.2390    0.5870   -0.1450 C   0  0  1  0  0  0  0  0  0  0  0  0
    0.6480    0.8640   -1.5750 C   0  0  0  0  0  0  0  0  0  0  0  0
    2.0870    1.2860   -1.6540 C   0  0  0  0  0  0  0  0  0  0  0  0
    2.5090    2.5930   -1.5680 C   0  0  0  0  0  0  0  0  0  0  0  0
    3.8460    2.5730   -1.6770 N   0  0  0  0  0  0  0  0  0  0  0  0
    4.2620    1.3060   -1.8250 C   0  0  0  0  0  0  0  0  0  0  0  0
    3.1670    0.5350   -1.8080 N   0  0  0  0  0  0  0  0  0  0  0  0
   -1.2180    0.2920   -0.1500 C   0  0  0  0  0  0  0  0  0  0  0  0
   -1.9770    1.1420   -0.6600 O   0  0  0  0  0  0  0  0  0  0  0  0
    1.0510   -1.4370    0.1180 H   0  0  0  0  0  0  0  0  0  0  0  0
    0.3650    1.5390    0.4090 H   0  0  0  0  0  0  0  0  0  0  0  0
    0.0540    1.7020   -1.9870 H   0  0  0  0  0  0  0  0  0  0  0  0
    0.4780   -0.0080   -2.2190 H   0  0  0  0  0  0  0  0  0  0  0  0
    1.9030    3.4770   -1.4390 H   0  0  0  0  0  0  0  0  0  0  0  0
    4.5180    3.3910   -1.6560 H   0  0  0  0  0  0  0  0  0  0  0  0
    5.3110    0.9860   -1.9380 H   0  0  0  0  0  0  0  0  0  0  0  0
   -3.4330   -0.8460    2.8790 C   0  0  0  0  0  0  0  0  0  0  0  0
   -3.9200   -0.5920    1.4770 C   0  0  1  0  0  0  0  0  0  0  0  0
   -3.9020    0.7820    1.2720 O   0  0  0  0  0  0  0  0  0  0  0  0
   -3.1120   -1.2910    0.4410 C   0  0  2  0  0  0  0  0  0  0  0  0
   -1.7220   -0.9110    0.4050 N   0  0  0  0  0  0  0  0  0  0  0  0
   -3.8010   -1.1360   -0.8810 C   0  0  0  0  0  0  0  0  0  0  0  0
   -3.1220   -0.7800   -1.8620 O   0  0  0  0  0  0  0  0  0  0  0  0
   -5.1480   -1.3740   -1.0370 O   0  0  0  0  0  0  0  0  0  0  0  0
   -2.3650   -0.5940    2.9830 H   0  0  0  0  0  0  0  0  0  0  0  0
   -3.9930   -0.1480    3.5460 H   0  0  0  0  0  0  0  0  0  0  0  0
   -3.6730   -1.8710    3.2390 H   0  0  0  0  0  0  0  0  0  0  0  0
   -4.9610   -0.9580    1.4000 H   0  0  0  0  0  0  0  0  0  0  0  0
   -4.1940    1.2960    2.0620 H   0  0  0  0  0  0  0  0  0  0  0  0
   -3.1060   -2.4070    0.6310 H   0  0  0  0  0  0  0  0  0  0  0  0
   -0.9620   -1.5410    0.8130 H   0  0  0  0  0  0  0  0  0  0  0  0
  1  9  1  0  0  0  0
  1 10  1  0  0  0  0
  2 11  1  6  0  0  0
  2  3  1  0  0  0  0
  2  1  1  0  0  0  0
  3  4  1  0  0  0  0
  3 12  1  0  0  0  0
  4  5  2  0  0  0  0
  4  8  1  0  0  0  0
  6  7  2  0  0  0  0
  6  2  1  0  0  0  0
  8 14  1  0  0  0  0
 13  3  1  0  0  0  0
 15  6  1  0  0  0  0
 16 26  1  1  0  0  0
 16 15  1  0  0  0  0
 17 16  1  0  0  0  0
 18 17  1  0  0  0  0
 18 19  2  0  0  0  0
 19 29  1  0  0  0  0
 20 30  1  0  0  0  0
 20 19  1  0  0  0  0
 21 22  2  0  0  0  0
 21 20  1  0  0  0  0
 22 18  1  0  0  0  0
 23 16  1  0  0  0  0
 23 36  1  0  0  0  0
 24 23  2  0  0  0  0
 25 15  1  0  0  0  0
 27 17  1  0  0  0  0
 28 17  1  0  0  0  0
 31 21  1  0  0  0  0
 32 40  1  0  0  0  0
 32 42  1  0  0  0  0
 32 41  1  0  0  0  0
 33 43  1  6  0  0  0
 33 32  1  0  0  0  0
 34 33  1  0  0  0  0
 34 44  1  0  0  0  0
 35 45  1  1  0  0  0
 35 33  1  0  0  0  0
 36 35  1  0  0  0  0
 36 46  1  0  0  0  0
 37 35  1  0  0  0  0
 38 37  2  0  0  0  0
 39 37  1  0  0  0  0
M  END
$$$$
