DHV.pdb
 OpenBabel07022418143D

 48 48  0  0  1  0  0  0  0  0999 V2000
    1.7820   -2.3170   -0.6230 N   0  0  0  0  0  0  0  0  0  0  0  0
    1.9770   -2.5010    0.7940 C   0  0  1  0  0  0  0  0  0  0  0  0
    3.4280   -2.5380    1.1660 C   0  0  0  0  0  0  0  0  0  0  0  0
    4.1250   -3.6520    0.4770 C   0  0  0  0  0  0  0  0  0  0  0  0
    3.4620   -4.3900   -0.2880 O   0  0  0  0  0  0  0  0  0  0  0  0
    1.2660   -1.4780    1.5900 C   0  0  0  0  0  0  0  0  0  0  0  0
    1.3300   -1.4950    2.8460 O   0  0  0  0  0  0  0  0  0  0  0  0
    5.4600   -3.9190    0.6330 O   0  0  0  0  0  0  0  0  0  0  0  0
    2.7000   -2.0910   -1.0950 H   0  0  0  0  0  0  0  0  0  0  0  0
    1.4500   -3.1920   -1.0870 H   0  0  0  0  0  0  0  0  0  0  0  0
    1.5560   -3.5100    1.0610 H   0  0  0  0  0  0  0  0  0  0  0  0
    3.9470   -1.5750    0.9850 H   0  0  0  0  0  0  0  0  0  0  0  0
    3.4930   -2.7380    2.2630 H   0  0  0  0  0  0  0  0  0  0  0  0
    5.8150   -4.8590    0.6210 H   0  0  0  0  0  0  0  0  0  0  0  0
    0.4820   -0.4290    1.0100 N   0  0  0  0  0  0  0  0  0  0  0  0
   -0.2020    0.5560    1.8000 C   0  0  1  0  0  0  0  0  0  0  0  0
    0.3230    1.9580    1.5860 C   0  0  0  0  0  0  0  0  0  0  0  0
    1.7590    2.0500    1.9400 C   0  0  0  0  0  0  0  0  0  0  0  0
    2.2830    2.3630    3.1810 C   0  0  0  0  0  0  0  0  0  0  0  0
    3.6170    2.3540    3.1360 N   0  0  0  0  0  0  0  0  0  0  0  0
    3.9380    2.0340    1.8630 C   0  0  0  0  0  0  0  0  0  0  0  0
    2.8360    1.8480    1.1310 N   0  0  0  0  0  0  0  0  0  0  0  0
   -1.6680    0.4770    1.5810 C   0  0  0  0  0  0  0  0  0  0  0  0
   -2.4770    1.2340    2.1590 O   0  0  0  0  0  0  0  0  0  0  0  0
    0.4390   -0.4280   -0.0400 H   0  0  0  0  0  0  0  0  0  0  0  0
    0.0170    0.3140    2.8820 H   0  0  0  0  0  0  0  0  0  0  0  0
    0.2410    2.2230    0.5030 H   0  0  0  0  0  0  0  0  0  0  0  0
   -0.2250    2.6290    2.2500 H   0  0  0  0  0  0  0  0  0  0  0  0
    1.7090    2.5880    4.0820 H   0  0  0  0  0  0  0  0  0  0  0  0
    4.2880    2.5480    3.9050 H   0  0  0  0  0  0  0  0  0  0  0  0
    4.9660    1.9460    1.5050 H   0  0  0  0  0  0  0  0  0  0  0  0
   -3.6230    0.9610   -1.5200 C   0  0  0  0  0  0  0  0  0  0  0  0
   -3.9320   -0.4490   -1.0490 C   0  0  0  0  0  0  0  0  0  0  0  0
   -3.3050   -1.4810   -1.9610 C   0  0  0  0  0  0  0  0  0  0  0  0
   -3.5700   -0.6750    0.3800 C   0  0  2  0  0  0  0  0  0  0  0  0
   -2.1810   -0.4830    0.6900 N   0  0  0  0  0  0  0  0  0  0  0  0
   -4.0860   -1.9870    0.8010 C   0  0  0  0  0  0  0  0  0  0  0  0
   -5.2760   -2.2720    0.5870 O   0  0  0  0  0  0  0  0  0  0  0  0
   -3.2680   -2.8950    1.4230 O   0  0  0  0  0  0  0  0  0  0  0  0
   -2.5140    1.0470   -1.6310 H   0  0  0  0  0  0  0  0  0  0  0  0
   -4.0370    1.1540   -2.5310 H   0  0  0  0  0  0  0  0  0  0  0  0
   -4.0490    1.7070   -0.8520 H   0  0  0  0  0  0  0  0  0  0  0  0
   -5.0340   -0.5670   -1.1370 H   0  0  0  0  0  0  0  0  0  0  0  0
   -2.5320   -2.0910   -1.4370 H   0  0  0  0  0  0  0  0  0  0  0  0
   -4.0520   -2.2170   -2.3390 H   0  0  0  0  0  0  0  0  0  0  0  0
   -2.8770   -1.0000   -2.8850 H   0  0  0  0  0  0  0  0  0  0  0  0
   -4.1340    0.0900    0.9940 H   0  0  0  0  0  0  0  0  0  0  0  0
   -1.4980   -1.1120    0.2110 H   0  0  0  0  0  0  0  0  0  0  0  0
  1  2  1  0  0  0  0
  2 11  1  1  0  0  0
  2  3  1  0  0  0  0
  2  6  1  0  0  0  0
  3 13  1  0  0  0  0
  4  8  1  0  0  0  0
  4  3  1  0  0  0  0
  5  4  2  0  0  0  0
  6  7  2  0  0  0  0
  9  1  1  0  0  0  0
 10  1  1  0  0  0  0
 12  3  1  0  0  0  0
 14  8  1  0  0  0  0
 15  6  1  0  0  0  0
 15 16  1  0  0  0  0
 16 26  1  1  0  0  0
 17 16  1  0  0  0  0
 17 18  1  0  0  0  0
 17 28  1  0  0  0  0
 18 19  2  0  0  0  0
 19 29  1  0  0  0  0
 20 19  1  0  0  0  0
 20 30  1  0  0  0  0
 21 20  1  0  0  0  0
 22 21  2  0  0  0  0
 22 18  1  0  0  0  0
 23 16  1  0  0  0  0
 23 24  2  0  0  0  0
 25 15  1  0  0  0  0
 27 17  1  0  0  0  0
 31 21  1  0  0  0  0
 32 33  1  0  0  0  0
 32 42  1  0  0  0  0
 33 35  1  0  0  0  0
 34 44  1  0  0  0  0
 34 33  1  0  0  0  0
 35 36  1  0  0  0  0
 35 37  1  0  0  0  0
 35 47  1  1  0  0  0
 36 23  1  0  0  0  0
 37 39  1  0  0  0  0
 38 37  2  0  0  0  0
 40 32  1  0  0  0  0
 41 32  1  0  0  0  0
 43 33  1  0  0  0  0
 45 34  1  0  0  0  0
 46 34  1  0  0  0  0
 48 36  1  0  0  0  0
M  END
$$$$
