DHY.pdb
 OpenBabel07022418143D

 53 54  0  0  1  0  0  0  0  0999 V2000
   -0.9670    1.3430    2.0530 N   0  0  0  0  0  0  0  0  0  0  0  0
    0.3450    0.8980    2.3920 C   0  0  1  0  0  0  0  0  0  0  0  0
    0.4190   -0.1560    3.4410 C   0  0  0  0  0  0  0  0  0  0  0  0
   -0.1650    0.2660    4.7350 C   0  0  0  0  0  0  0  0  0  0  0  0
   -0.6530    1.4160    4.8500 O   0  0  0  0  0  0  0  0  0  0  0  0
    1.1550    0.4460    1.2120 C   0  0  0  0  0  0  0  0  0  0  0  0
    2.2580   -0.0850    1.4770 O   0  0  0  0  0  0  0  0  0  0  0  0
   -0.1830   -0.5840    5.8200 O   0  0  0  0  0  0  0  0  0  0  0  0
   -1.4050    0.5880    1.4490 H   0  0  0  0  0  0  0  0  0  0  0  0
   -0.8790    2.1690    1.4280 H   0  0  0  0  0  0  0  0  0  0  0  0
    0.8990    1.8140    2.7560 H   0  0  0  0  0  0  0  0  0  0  0  0
    1.4890   -0.4410    3.6070 H   0  0  0  0  0  0  0  0  0  0  0  0
   -0.1070   -1.0630    3.0910 H   0  0  0  0  0  0  0  0  0  0  0  0
   -0.0090   -0.2070    6.7640 H   0  0  0  0  0  0  0  0  0  0  0  0
    0.7210    0.6040   -0.1060 N   0  0  0  0  0  0  0  0  0  0  0  0
    1.4500    0.2210   -1.2680 C   0  0  1  0  0  0  0  0  0  0  0  0
    2.9270    0.4470   -1.1410 C   0  0  0  0  0  0  0  0  0  0  0  0
    3.1790    1.8910   -0.9580 C   0  0  0  0  0  0  0  0  0  0  0  0
    3.3130    2.6620    0.1520 C   0  0  0  0  0  0  0  0  0  0  0  0
    3.5650    3.9660   -0.1870 N   0  0  0  0  0  0  0  0  0  0  0  0
    3.5880    4.0030   -1.5250 C   0  0  0  0  0  0  0  0  0  0  0  0
    3.3590    2.7740   -1.9970 N   0  0  0  0  0  0  0  0  0  0  0  0
    1.0270   -1.0420   -1.8190 C   0  0  0  0  0  0  0  0  0  0  0  0
    1.5850   -1.6150   -2.8120 O   0  0  0  0  0  0  0  0  0  0  0  0
   -0.2580    1.0600   -0.2200 H   0  0  0  0  0  0  0  0  0  0  0  0
    1.1920    1.0120   -2.1090 H   0  0  0  0  0  0  0  0  0  0  0  0
    3.4450   -0.1210   -0.3770 H   0  0  0  0  0  0  0  0  0  0  0  0
    3.3560    0.1360   -2.1550 H   0  0  0  0  0  0  0  0  0  0  0  0
    3.2530    2.3630    1.1840 H   0  0  0  0  0  0  0  0  0  0  0  0
    3.7070    4.7520    0.4840 H   0  0  0  0  0  0  0  0  0  0  0  0
    3.7620    4.8830   -2.1170 H   0  0  0  0  0  0  0  0  0  0  0  0
   -4.7590   -2.7180    2.9430 O   0  0  0  0  0  0  0  0  0  0  0  0
   -3.7850   -3.0540    2.0130 C   0  0  0  0  0  0  0  0  0  0  0  0
   -2.4510   -2.7080    2.2380 C   0  0  0  0  0  0  0  0  0  0  0  0
   -1.4950   -3.0460    1.3100 C   0  0  0  0  0  0  0  0  0  0  0  0
   -1.8450   -3.7370    0.1350 C   0  0  0  0  0  0  0  0  0  0  0  0
   -0.7650   -4.0800   -0.8210 C   0  0  0  0  0  0  0  0  0  0  0  0
   -0.4930   -3.0290   -1.8520 C   0  0  2  0  0  0  0  0  0  0  0  0
   -0.0820   -1.7610   -1.2760 N   0  0  0  0  0  0  0  0  0  0  0  0
   -1.7680   -2.7770   -2.6050 C   0  0  0  0  0  0  0  0  0  0  0  0
   -2.2720   -3.7240   -3.2240 O   0  0  0  0  0  0  0  0  0  0  0  0
   -3.1570   -4.0730   -0.0780 C   0  0  0  0  0  0  0  0  0  0  0  0
   -4.0970   -3.7290    0.8550 C   0  0  0  0  0  0  0  0  0  0  0  0
   -2.3810   -1.5360   -2.6230 O   0  0  0  0  0  0  0  0  0  0  0  0
   -4.6400   -3.0150    3.8840 H   0  0  0  0  0  0  0  0  0  0  0  0
   -2.2000   -2.1750    3.1530 H   0  0  0  0  0  0  0  0  0  0  0  0
   -0.4610   -2.7790    1.4880 H   0  0  0  0  0  0  0  0  0  0  0  0
    0.1790   -4.2270   -0.2320 H   0  0  0  0  0  0  0  0  0  0  0  0
   -1.0110   -5.0670   -1.2770 H   0  0  0  0  0  0  0  0  0  0  0  0
    0.2280   -3.3620   -2.6230 H   0  0  0  0  0  0  0  0  0  0  0  0
   -0.6210   -1.4010   -0.4620 H   0  0  0  0  0  0  0  0  0  0  0  0
   -3.4420   -4.6000   -0.9560 H   0  0  0  0  0  0  0  0  0  0  0  0
   -5.1600   -3.9810    0.7210 H   0  0  0  0  0  0  0  0  0  0  0  0
  1  2  1  0  0  0  0
  2 11  1  1  0  0  0
  2  3  1  0  0  0  0
  3 12  1  0  0  0  0
  3  4  1  0  0  0  0
  4  5  2  0  0  0  0
  4  8  1  0  0  0  0
  6  7  2  0  0  0  0
  6  2  1  0  0  0  0
  8 14  1  0  0  0  0
  9  1  1  0  0  0  0
 10  1  1  0  0  0  0
 13  3  1  0  0  0  0
 15  6  1  0  0  0  0
 16 26  1  6  0  0  0
 16 17  1  0  0  0  0
 16 15  1  0  0  0  0
 17 18  1  0  0  0  0
 17 27  1  0  0  0  0
 18 19  2  0  0  0  0
 19 29  1  0  0  0  0
 20 19  1  0  0  0  0
 20 30  1  0  0  0  0
 21 20  1  0  0  0  0
 22 21  2  0  0  0  0
 22 18  1  0  0  0  0
 23 39  1  0  0  0  0
 23 16  1  0  0  0  0
 24 23  2  0  0  0  0
 25 15  1  0  0  0  0
 28 17  1  0  0  0  0
 31 21  1  0  0  0  0
 32 45  1  0  0  0  0
 33 34  1  0  0  0  0
 33 32  1  0  0  0  0
 34 46  1  0  0  0  0
 35 47  1  0  0  0  0
 35 34  2  0  0  0  0
 36 35  1  0  0  0  0
 37 48  1  0  0  0  0
 37 36  1  0  0  0  0
 38 50  1  6  0  0  0
 38 39  1  0  0  0  0
 38 37  1  0  0  0  0
 39 51  1  0  0  0  0
 40 38  1  0  0  0  0
 41 40  2  0  0  0  0
 42 36  2  0  0  0  0
 42 43  1  0  0  0  0
 43 33  2  0  0  0  0
 44 40  1  0  0  0  0
 49 37  1  0  0  0  0
 52 42  1  0  0  0  0
 53 43  1  0  0  0  0
M  END
$$$$
