DIA.pdb
 OpenBabel07022418143D

 44 43  0  0  1  0  0  0  0  0999 V2000
    2.4450   -2.4010    4.5120 N   0  0  0  0  0  0  0  0  0  0  0  0
    2.2620   -2.4090    3.0720 C   0  0  1  0  0  0  0  0  0  0  0  0
    1.6490   -3.7150    2.6410 C   0  0  0  0  0  0  0  0  0  0  0  0
    2.5440   -4.8220    3.0270 C   0  0  0  0  0  0  0  0  0  0  0  0
    2.2110   -6.0060    2.7540 O   0  0  0  0  0  0  0  0  0  0  0  0
    1.4300   -1.2420    2.7140 C   0  0  0  0  0  0  0  0  0  0  0  0
    1.0000   -0.4320    3.5810 O   0  0  0  0  0  0  0  0  0  0  0  0
    3.7550   -4.6510    3.6830 O   0  0  0  0  0  0  0  0  0  0  0  0
    1.9450   -1.6310    4.9860 H   0  0  0  0  0  0  0  0  0  0  0  0
    2.2940   -3.3290    4.9410 H   0  0  0  0  0  0  0  0  0  0  0  0
    3.2860   -2.3610    2.6310 H   0  0  0  0  0  0  0  0  0  0  0  0
    0.6610   -3.8870    3.1060 H   0  0  0  0  0  0  0  0  0  0  0  0
    1.6050   -3.7010    1.5300 H   0  0  0  0  0  0  0  0  0  0  0  0
    4.1520   -5.3270    4.3230 H   0  0  0  0  0  0  0  0  0  0  0  0
    2.0490    1.7040   -1.9980 C   0  0  0  0  0  0  0  0  0  0  0  0
    1.4320    0.5620   -1.1910 C   0  0  0  0  0  0  0  0  0  0  0  0
    0.9660    1.1720    0.1120 C   0  0  2  0  0  0  0  0  0  0  0  0
    2.1820    1.7580    0.7970 C   0  0  0  0  0  0  0  0  0  0  0  0
    0.2520    0.1730    0.9940 C   0  0  2  0  0  0  0  0  0  0  0  0
    1.0540   -0.9490    1.3600 N   0  0  0  0  0  0  0  0  0  0  0  0
   -1.0640   -0.2170    0.4100 C   0  0  0  0  0  0  0  0  0  0  0  0
   -1.4000   -1.4250    0.2690 O   0  0  0  0  0  0  0  0  0  0  0  0
    1.6040    2.6850   -1.7150 H   0  0  0  0  0  0  0  0  0  0  0  0
    1.8570    1.5780   -3.0840 H   0  0  0  0  0  0  0  0  0  0  0  0
    3.1330    1.7780   -1.8540 H   0  0  0  0  0  0  0  0  0  0  0  0
    0.6460    0.0480   -1.7400 H   0  0  0  0  0  0  0  0  0  0  0  0
    2.2590   -0.1570   -1.0190 H   0  0  0  0  0  0  0  0  0  0  0  0
    0.2690    2.0150   -0.0670 H   0  0  0  0  0  0  0  0  0  0  0  0
    1.8820    2.3980    1.6480 H   0  0  0  0  0  0  0  0  0  0  0  0
    2.9340    0.9870    1.0690 H   0  0  0  0  0  0  0  0  0  0  0  0
    2.6400    2.4600    0.0450 H   0  0  0  0  0  0  0  0  0  0  0  0
    0.0070    0.7230    1.9390 H   0  0  0  0  0  0  0  0  0  0  0  0
    1.4200   -1.6340    0.6450 H   0  0  0  0  0  0  0  0  0  0  0  0
   -4.4510    0.8130    0.2690 C   0  0  0  0  0  0  0  0  0  0  0  0
   -3.2880    0.3550   -0.5850 C   0  0  2  0  0  0  0  0  0  0  0  0
   -2.0150    0.7450   -0.0210 N   0  0  0  0  0  0  0  0  0  0  0  0
   -3.4330    0.7950   -1.9920 C   0  0  0  0  0  0  0  0  0  0  0  0
   -2.5630    1.4260   -2.6140 O   0  0  0  0  0  0  0  0  0  0  0  0
   -4.6160    0.4760   -2.6400 O   0  0  0  0  0  0  0  0  0  0  0  0
   -4.4400    0.2380    1.2110 H   0  0  0  0  0  0  0  0  0  0  0  0
   -4.4740    1.9010    0.4070 H   0  0  0  0  0  0  0  0  0  0  0  0
   -5.3750    0.5290   -0.2750 H   0  0  0  0  0  0  0  0  0  0  0  0
   -3.3190   -0.7530   -0.5900 H   0  0  0  0  0  0  0  0  0  0  0  0
   -1.8070    1.7800    0.0650 H   0  0  0  0  0  0  0  0  0  0  0  0
  1 10  1  0  0  0  0
  1  9  1  0  0  0  0
  2 11  1  6  0  0  0
  2  1  1  0  0  0  0
  3  4  1  0  0  0  0
  3  2  1  0  0  0  0
  3 12  1  0  0  0  0
  4  8  1  0  0  0  0
  5  4  2  0  0  0  0
  6  2  1  0  0  0  0
  6  7  2  0  0  0  0
  8 14  1  0  0  0  0
 13  3  1  0  0  0  0
 15 25  1  0  0  0  0
 15 23  1  0  0  0  0
 15 16  1  0  0  0  0
 16 27  1  0  0  0  0
 16 17  1  0  0  0  0
 17 28  1  6  0  0  0
 17 18  1  0  0  0  0
 17 19  1  0  0  0  0
 18 30  1  0  0  0  0
 18 29  1  0  0  0  0
 19 20  1  0  0  0  0
 19 32  1  1  0  0  0
 20  6  1  0  0  0  0
 21 19  1  0  0  0  0
 22 21  2  0  0  0  0
 24 15  1  0  0  0  0
 26 16  1  0  0  0  0
 31 18  1  0  0  0  0
 33 20  1  0  0  0  0
 34 41  1  0  0  0  0
 34 40  1  0  0  0  0
 35 43  1  6  0  0  0
 35 36  1  0  0  0  0
 35 34  1  0  0  0  0
 36 44  1  0  0  0  0
 36 21  1  0  0  0  0
 37 35  1  0  0  0  0
 38 37  1  0  0  0  0
 39 37  2  0  0  0  0
 42 34  1  0  0  0  0
M  END
$$$$
