DIC.pdb
 OpenBabel07022418143D

 45 44  0  0  1  0  0  0  0  0999 V2000
    3.9020   -1.8040    1.1070 N   0  0  0  0  0  0  0  0  0  0  0  0
    3.2370   -2.0630    2.4120 C   0  0  1  0  0  0  0  0  0  0  0  0
    4.0520   -1.4230    3.4830 C   0  0  0  0  0  0  0  0  0  0  0  0
    3.4840   -1.6490    4.8150 C   0  0  0  0  0  0  0  0  0  0  0  0
    3.9110   -1.0230    5.8320 O   0  0  0  0  0  0  0  0  0  0  0  0
    1.8670   -1.5180    2.2550 C   0  0  0  0  0  0  0  0  0  0  0  0
    1.0010   -1.5900    3.1590 O   0  0  0  0  0  0  0  0  0  0  0  0
    2.4640   -2.5530    5.0210 O   0  0  0  0  0  0  0  0  0  0  0  0
    4.8960   -2.0690    1.1910 H   0  0  0  0  0  0  0  0  0  0  0  0
    3.4390   -2.5090    0.4590 H   0  0  0  0  0  0  0  0  0  0  0  0
    3.2860   -3.1580    2.5370 H   0  0  0  0  0  0  0  0  0  0  0  0
    4.2730   -0.3510    3.2820 H   0  0  0  0  0  0  0  0  0  0  0  0
    5.0530   -1.9510    3.4610 H   0  0  0  0  0  0  0  0  0  0  0  0
    1.8180   -2.4970    5.7990 H   0  0  0  0  0  0  0  0  0  0  0  0
    0.5990    1.3320   -1.6110 C   0  0  0  0  0  0  0  0  0  0  0  0
    0.9200    1.7980   -0.2120 C   0  0  0  0  0  0  0  0  0  0  0  0
    0.0920    1.1770    0.8470 C   0  0  2  0  0  0  0  0  0  0  0  0
    0.4580    1.6760    2.2260 C   0  0  0  0  0  0  0  0  0  0  0  0
    0.0930   -0.3260    0.8750 C   0  0  2  0  0  0  0  0  0  0  0  0
    1.4200   -0.8680    1.0660 N   0  0  0  0  0  0  0  0  0  0  0  0
   -0.6810   -0.9900   -0.1620 C   0  0  0  0  0  0  0  0  0  0  0  0
   -0.2320   -1.9460   -0.8840 O   0  0  0  0  0  0  0  0  0  0  0  0
   -0.4560    1.2460   -1.8250 H   0  0  0  0  0  0  0  0  0  0  0  0
    1.0890    0.3510   -1.7740 H   0  0  0  0  0  0  0  0  0  0  0  0
    1.0190    2.0990   -2.3030 H   0  0  0  0  0  0  0  0  0  0  0  0
    2.0120    1.7790   -0.0070 H   0  0  0  0  0  0  0  0  0  0  0  0
    0.6650    2.9020   -0.2060 H   0  0  0  0  0  0  0  0  0  0  0  0
   -0.9720    1.5140    0.6770 H   0  0  0  0  0  0  0  0  0  0  0  0
    1.5110    1.4470    2.4840 H   0  0  0  0  0  0  0  0  0  0  0  0
   -0.2080    1.2000    2.9800 H   0  0  0  0  0  0  0  0  0  0  0  0
    0.3050    2.7760    2.3000 H   0  0  0  0  0  0  0  0  0  0  0  0
   -0.4410   -0.5650    1.8500 H   0  0  0  0  0  0  0  0  0  0  0  0
    2.1100   -0.7850    0.2880 H   0  0  0  0  0  0  0  0  0  0  0  0
   -2.0260   -0.6310   -0.4690 N   0  0  0  0  0  0  0  0  0  0  0  0
   -2.7930   -1.2910   -1.4940 C   0  0  1  0  0  0  0  0  0  0  0  0
   -4.0000   -1.9700   -0.8510 C   0  0  0  0  0  0  0  0  0  0  0  0
   -5.0380   -0.7400   -0.0220 S   0  0  0  0  0  0  0  0  0  0  0  0
   -3.3470   -0.2830   -2.4240 C   0  0  0  0  0  0  0  0  0  0  0  0
   -3.1300    0.9210   -2.2280 O   0  0  0  0  0  0  0  0  0  0  0  0
   -4.1080   -0.6870   -3.5140 O   0  0  0  0  0  0  0  0  0  0  0  0
   -2.4920    0.1540    0.0740 H   0  0  0  0  0  0  0  0  0  0  0  0
   -2.1700   -2.0310   -2.0080 H   0  0  0  0  0  0  0  0  0  0  0  0
   -3.7260   -2.7720   -0.1650 H   0  0  0  0  0  0  0  0  0  0  0  0
   -4.5910   -2.4200   -1.6810 H   0  0  0  0  0  0  0  0  0  0  0  0
   -5.0550   -0.9280    1.3530 H   0  0  0  0  0  0  0  0  0  0  0  0
  1  9  1  0  0  0  0
  1  2  1  0  0  0  0
  2 11  1  1  0  0  0
  2  3  1  0  0  0  0
  3  4  1  0  0  0  0
  4  8  1  0  0  0  0
  4  5  2  0  0  0  0
  6  2  1  0  0  0  0
  6  7  2  0  0  0  0
  8 14  1  0  0  0  0
 10  1  1  0  0  0  0
 12  3  1  0  0  0  0
 13  3  1  0  0  0  0
 15 16  1  0  0  0  0
 16 27  1  0  0  0  0
 16 26  1  0  0  0  0
 16 17  1  0  0  0  0
 17 28  1  6  0  0  0
 17 19  1  0  0  0  0
 17 18  1  0  0  0  0
 18 31  1  0  0  0  0
 18 29  1  0  0  0  0
 18 30  1  0  0  0  0
 19 20  1  0  0  0  0
 19 32  1  1  0  0  0
 20  6  1  0  0  0  0
 21 19  1  0  0  0  0
 22 21  2  0  0  0  0
 23 15  1  0  0  0  0
 24 15  1  0  0  0  0
 25 15  1  0  0  0  0
 33 20  1  0  0  0  0
 34 21  1  0  0  0  0
 34 41  1  0  0  0  0
 35 42  1  6  0  0  0
 35 36  1  0  0  0  0
 35 34  1  0  0  0  0
 36 43  1  0  0  0  0
 36 37  1  0  0  0  0
 37 45  1  0  0  0  0
 38 39  1  0  0  0  0
 38 35  1  0  0  0  0
 40 38  2  0  0  0  0
 44 36  1  0  0  0  0
M  END
$$$$
