DID.pdb
 OpenBabel07022418143D

 47 46  0  0  1  0  0  0  0  0999 V2000
    3.1090   -3.1970    3.6170 N   0  0  0  0  0  0  0  0  0  0  0  0
    2.4660   -3.1420    2.3250 C   0  0  1  0  0  0  0  0  0  0  0  0
    1.3670   -4.1570    2.2390 C   0  0  0  0  0  0  0  0  0  0  0  0
    1.9540   -5.5030    2.4410 C   0  0  0  0  0  0  0  0  0  0  0  0
    3.1760   -5.6300    2.6370 O   0  0  0  0  0  0  0  0  0  0  0  0
    2.0590   -1.7770    2.0320 C   0  0  0  0  0  0  0  0  0  0  0  0
    2.2940   -0.8730    2.8730 O   0  0  0  0  0  0  0  0  0  0  0  0
    1.1920   -6.6760    2.4250 O   0  0  0  0  0  0  0  0  0  0  0  0
    2.5350   -3.7020    4.3170 H   0  0  0  0  0  0  0  0  0  0  0  0
    4.0830   -3.5660    3.5710 H   0  0  0  0  0  0  0  0  0  0  0  0
    3.2460   -3.4310    1.5660 H   0  0  0  0  0  0  0  0  0  0  0  0
    0.8710   -4.1680    1.2490 H   0  0  0  0  0  0  0  0  0  0  0  0
    0.5870   -4.0290    3.0090 H   0  0  0  0  0  0  0  0  0  0  0  0
    1.3790   -7.4500    3.0430 H   0  0  0  0  0  0  0  0  0  0  0  0
    0.6890    2.1220   -2.0680 C   0  0  0  0  0  0  0  0  0  0  0  0
    1.7090    1.8130   -1.0690 C   0  0  0  0  0  0  0  0  0  0  0  0
    1.8500    0.4400   -0.5480 C   0  0  2  0  0  0  0  0  0  0  0  0
    2.1430   -0.6270   -1.5770 C   0  0  0  0  0  0  0  0  0  0  0  0
    1.0030    0.0130    0.5720 C   0  0  2  0  0  0  0  0  0  0  0  0
    1.4090   -1.3990    0.8450 N   0  0  0  0  0  0  0  0  0  0  0  0
   -0.4180    0.0390    0.5700 C   0  0  0  0  0  0  0  0  0  0  0  0
   -1.0300   -1.0890    0.7020 O   0  0  0  0  0  0  0  0  0  0  0  0
    0.0070    1.3130   -2.3630 H   0  0  0  0  0  0  0  0  0  0  0  0
    1.1510    2.4510   -3.0530 H   0  0  0  0  0  0  0  0  0  0  0  0
    0.0510    2.9870   -1.7870 H   0  0  0  0  0  0  0  0  0  0  0  0
    2.6900    2.2570   -1.4290 H   0  0  0  0  0  0  0  0  0  0  0  0
    1.4990    2.4500   -0.1510 H   0  0  0  0  0  0  0  0  0  0  0  0
    2.8900    0.5080   -0.0370 H   0  0  0  0  0  0  0  0  0  0  0  0
    2.9240   -1.3550   -1.2650 H   0  0  0  0  0  0  0  0  0  0  0  0
    1.2370   -1.2860   -1.7330 H   0  0  0  0  0  0  0  0  0  0  0  0
    2.5190   -0.2070   -2.5310 H   0  0  0  0  0  0  0  0  0  0  0  0
    1.3400    0.5930    1.4940 H   0  0  0  0  0  0  0  0  0  0  0  0
    1.2060   -2.1160    0.1410 H   0  0  0  0  0  0  0  0  0  0  0  0
   -1.2870    1.1320    0.4470 N   0  0  0  0  0  0  0  0  0  0  0  0
   -2.7510    0.9930    0.4790 C   0  0  1  0  0  0  0  0  0  0  0  0
   -3.3070    1.6710    1.6910 C   0  0  0  0  0  0  0  0  0  0  0  0
   -4.7510    1.5070    1.7970 C   0  0  0  0  0  0  0  0  0  0  0  0
   -5.3780    0.7330    1.0600 O   0  0  0  0  0  0  0  0  0  0  0  0
   -3.2980    1.5340   -0.7680 C   0  0  0  0  0  0  0  0  0  0  0  0
   -2.5050    2.0480   -1.6230 O   0  0  0  0  0  0  0  0  0  0  0  0
   -5.5280    2.2140    2.7380 O   0  0  0  0  0  0  0  0  0  0  0  0
   -4.6280    1.5460   -1.1340 O   0  0  0  0  0  0  0  0  0  0  0  0
   -0.8730    2.0490    0.3360 H   0  0  0  0  0  0  0  0  0  0  0  0
   -2.9600   -0.0790    0.5450 H   0  0  0  0  0  0  0  0  0  0  0  0
   -2.9690    2.7280    1.7890 H   0  0  0  0  0  0  0  0  0  0  0  0
   -2.8730    1.1810    2.6180 H   0  0  0  0  0  0  0  0  0  0  0  0
   -6.2970    1.7460    3.2360 H   0  0  0  0  0  0  0  0  0  0  0  0
  1  9  1  0  0  0  0
  2 11  1  6  0  0  0
  2  1  1  0  0  0  0
  3  2  1  0  0  0  0
  3  4  1  0  0  0  0
  3 13  1  0  0  0  0
  4  5  2  0  0  0  0
  6  2  1  0  0  0  0
  6  7  2  0  0  0  0
  8  4  1  0  0  0  0
  8 14  1  0  0  0  0
 10  1  1  0  0  0  0
 12  3  1  0  0  0  0
 15 25  1  0  0  0  0
 15 16  1  0  0  0  0
 16 17  1  0  0  0  0
 16 27  1  0  0  0  0
 17 28  1  1  0  0  0
 17 19  1  0  0  0  0
 18 29  1  0  0  0  0
 18 17  1  0  0  0  0
 19 20  1  0  0  0  0
 19 32  1  1  0  0  0
 20  6  1  0  0  0  0
 21 19  1  0  0  0  0
 21 22  2  0  0  0  0
 23 15  1  0  0  0  0
 24 15  1  0  0  0  0
 26 16  1  0  0  0  0
 30 18  1  0  0  0  0
 31 18  1  0  0  0  0
 33 20  1  0  0  0  0
 34 35  1  0  0  0  0
 34 21  1  0  0  0  0
 35 44  1  1  0  0  0
 35 36  1  0  0  0  0
 36 45  1  0  0  0  0
 36 37  1  0  0  0  0
 36 46  1  0  0  0  0
 37 41  1  0  0  0  0
 38 37  2  0  0  0  0
 39 35  1  0  0  0  0
 40 39  2  0  0  0  0
 41 47  1  0  0  0  0
 42 39  1  0  0  0  0
 43 34  1  0  0  0  0
M  END
$$$$
