DII.pdb
 OpenBabel07022418143D

 53 52  0  0  1  0  0  0  0  0999 V2000
    0.0920   -0.3550    4.3700 N   0  0  0  0  0  0  0  0  0  0  0  0
    1.0460   -1.1040    3.5920 C   0  0  1  0  0  0  0  0  0  0  0  0
    0.6670   -2.5690    3.6160 C   0  0  0  0  0  0  0  0  0  0  0  0
    0.6830   -3.0250    5.0290 C   0  0  0  0  0  0  0  0  0  0  0  0
    0.9730   -2.2630    5.9850 O   0  0  0  0  0  0  0  0  0  0  0  0
    1.0510   -0.6220    2.1910 C   0  0  0  0  0  0  0  0  0  0  0  0
    1.7950   -1.1110    1.3100 O   0  0  0  0  0  0  0  0  0  0  0  0
    0.3710   -4.3470    5.3660 O   0  0  0  0  0  0  0  0  0  0  0  0
    0.4150   -0.0960    5.3100 H   0  0  0  0  0  0  0  0  0  0  0  0
   -0.8280   -0.8100    4.3140 H   0  0  0  0  0  0  0  0  0  0  0  0
    2.0330   -1.0200    4.0690 H   0  0  0  0  0  0  0  0  0  0  0  0
    1.4120   -3.1310    3.0330 H   0  0  0  0  0  0  0  0  0  0  0  0
   -0.3300   -2.7180    3.1490 H   0  0  0  0  0  0  0  0  0  0  0  0
   -0.0630   -4.4930    6.2610 H   0  0  0  0  0  0  0  0  0  0  0  0
    1.8890    3.8860   -1.1880 C   0  0  0  0  0  0  0  0  0  0  0  0
    1.0500    2.6020   -1.1290 C   0  0  0  0  0  0  0  0  0  0  0  0
    1.1050    2.0030    0.2630 C   0  0  2  0  0  0  0  0  0  0  0  0
    2.5250    1.6630    0.6380 C   0  0  0  0  0  0  0  0  0  0  0  0
    0.0860    0.9810    0.5170 C   0  0  2  0  0  0  0  0  0  0  0  0
    0.1720    0.4390    1.8400 N   0  0  0  0  0  0  0  0  0  0  0  0
   -0.1190   -0.0450   -0.5350 C   0  0  0  0  0  0  0  0  0  0  0  0
    0.0370    0.1590   -1.7460 O   0  0  0  0  0  0  0  0  0  0  0  0
    2.9600    3.6810   -1.2110 H   0  0  0  0  0  0  0  0  0  0  0  0
    1.6270    4.4030   -2.1440 H   0  0  0  0  0  0  0  0  0  0  0  0
    1.5500    4.5440   -0.3740 H   0  0  0  0  0  0  0  0  0  0  0  0
    0.0420    2.8710   -1.4380 H   0  0  0  0  0  0  0  0  0  0  0  0
    1.5730    1.9040   -1.8140 H   0  0  0  0  0  0  0  0  0  0  0  0
    0.8510    2.8870    0.9380 H   0  0  0  0  0  0  0  0  0  0  0  0
    2.9450    0.9200   -0.0680 H   0  0  0  0  0  0  0  0  0  0  0  0
    2.6500    1.4290    1.6990 H   0  0  0  0  0  0  0  0  0  0  0  0
    3.1960    2.5700    0.4830 H   0  0  0  0  0  0  0  0  0  0  0  0
   -0.9220    1.5790    0.5470 H   0  0  0  0  0  0  0  0  0  0  0  0
   -0.4520    0.8550    2.6040 H   0  0  0  0  0  0  0  0  0  0  0  0
   -3.2500   -1.4440    0.2600 C   0  0  0  0  0  0  0  0  0  0  0  0
   -3.1830   -2.2580   -0.9720 C   0  0  0  0  0  0  0  0  0  0  0  0
   -2.0110   -2.1510   -1.8660 C   0  0  2  0  0  0  0  0  0  0  0  0
   -2.1480   -3.0620   -3.0860 C   0  0  0  0  0  0  0  0  0  0  0  0
   -0.7180   -2.3850   -1.1590 C   0  0  2  0  0  0  0  0  0  0  0  0
   -0.5310   -1.3660   -0.1520 N   0  0  0  0  0  0  0  0  0  0  0  0
    0.4510   -2.5700   -2.0420 C   0  0  0  0  0  0  0  0  0  0  0  0
    1.4950   -1.9260   -1.8550 O   0  0  0  0  0  0  0  0  0  0  0  0
    0.3780   -3.4670   -3.0830 O   0  0  0  0  0  0  0  0  0  0  0  0
   -2.9830   -2.0010    1.1880 H   0  0  0  0  0  0  0  0  0  0  0  0
   -2.7400   -0.4850    0.2320 H   0  0  0  0  0  0  0  0  0  0  0  0
   -4.3460   -1.1570    0.4800 H   0  0  0  0  0  0  0  0  0  0  0  0
   -3.3970   -3.3460   -0.6950 H   0  0  0  0  0  0  0  0  0  0  0  0
   -4.1180   -2.0170   -1.5900 H   0  0  0  0  0  0  0  0  0  0  0  0
   -1.9720   -1.0720   -2.2160 H   0  0  0  0  0  0  0  0  0  0  0  0
   -3.2300   -3.0030   -3.3690 H   0  0  0  0  0  0  0  0  0  0  0  0
   -1.6010   -2.5610   -3.9090 H   0  0  0  0  0  0  0  0  0  0  0  0
   -1.8540   -4.0890   -2.8860 H   0  0  0  0  0  0  0  0  0  0  0  0
   -0.8910   -3.3840   -0.5940 H   0  0  0  0  0  0  0  0  0  0  0  0
   -0.7180   -1.6270    0.8370 H   0  0  0  0  0  0  0  0  0  0  0  0
  1  9  1  0  0  0  0
  2  3  1  0  0  0  0
  2 11  1  1  0  0  0
  2  1  1  0  0  0  0
  3  4  1  0  0  0  0
  4  8  1  0  0  0  0
  4  5  2  0  0  0  0
  6  2  1  0  0  0  0
  7  6  2  0  0  0  0
  8 14  1  0  0  0  0
 10  1  1  0  0  0  0
 12  3  1  0  0  0  0
 13  3  1  0  0  0  0
 15 16  1  0  0  0  0
 15 25  1  0  0  0  0
 16 17  1  0  0  0  0
 17 19  1  0  0  0  0
 17 18  1  0  0  0  0
 17 28  1  1  0  0  0
 18 30  1  0  0  0  0
 19 32  1  1  0  0  0
 19 20  1  0  0  0  0
 20  6  1  0  0  0  0
 20 33  1  0  0  0  0
 21 39  1  0  0  0  0
 21 19  1  0  0  0  0
 22 21  2  0  0  0  0
 23 15  1  0  0  0  0
 24 15  1  0  0  0  0
 26 16  1  0  0  0  0
 27 16  1  0  0  0  0
 29 18  1  0  0  0  0
 31 18  1  0  0  0  0
 34 45  1  0  0  0  0
 34 43  1  0  0  0  0
 35 46  1  0  0  0  0
 35 34  1  0  0  0  0
 36 48  1  6  0  0  0
 36 38  1  0  0  0  0
 36 35  1  0  0  0  0
 37 51  1  0  0  0  0
 37 36  1  0  0  0  0
 38 52  1  1  0  0  0
 38 39  1  0  0  0  0
 39 53  1  0  0  0  0
 40 41  1  0  0  0  0
 40 38  1  0  0  0  0
 42 40  2  0  0  0  0
 44 34  1  0  0  0  0
 47 35  1  0  0  0  0
 49 37  1  0  0  0  0
 50 37  1  0  0  0  0
M  END
$$$$
