DIK.pdb
 OpenBabel07022418143D

 55 54  0  0  1  0  0  0  0  0999 V2000
    2.1600   -3.0970    4.0890 N   0  0  0  0  0  0  0  0  0  0  0  0
    0.7670   -2.8500    4.2960 C   0  0  1  0  0  0  0  0  0  0  0  0
    0.4430   -2.3480    5.6870 C   0  0  0  0  0  0  0  0  0  0  0  0
    1.1460   -1.0710    5.9710 C   0  0  0  0  0  0  0  0  0  0  0  0
    1.8880   -0.5580    5.1040 O   0  0  0  0  0  0  0  0  0  0  0  0
    0.1700   -2.0020    3.2310 C   0  0  0  0  0  0  0  0  0  0  0  0
   -1.0490   -1.6940    3.2760 O   0  0  0  0  0  0  0  0  0  0  0  0
    0.9900   -0.4360    7.1920 O   0  0  0  0  0  0  0  0  0  0  0  0
    2.2650   -3.8510    3.3840 H   0  0  0  0  0  0  0  0  0  0  0  0
    2.6700   -3.3070    4.9660 H   0  0  0  0  0  0  0  0  0  0  0  0
    0.2450   -3.8450    4.2100 H   0  0  0  0  0  0  0  0  0  0  0  0
    0.7840   -3.1280    6.3960 H   0  0  0  0  0  0  0  0  0  0  0  0
   -0.6500   -2.2540    5.7770 H   0  0  0  0  0  0  0  0  0  0  0  0
    1.0360    0.5650    7.2500 H   0  0  0  0  0  0  0  0  0  0  0  0
    2.7760    2.2310    0.7180 C   0  0  0  0  0  0  0  0  0  0  0  0
    2.3790    0.7530    0.8190 C   0  0  0  0  0  0  0  0  0  0  0  0
    0.9070    0.7150    1.0580 C   0  0  2  0  0  0  0  0  0  0  0  0
    0.5670    1.4380    2.3350 C   0  0  0  0  0  0  0  0  0  0  0  0
    0.3310   -0.6730    1.0860 C   0  0  2  0  0  0  0  0  0  0  0  0
    0.9110   -1.4990    2.1260 N   0  0  0  0  0  0  0  0  0  0  0  0
    0.3880   -1.3300   -0.2260 C   0  0  0  0  0  0  0  0  0  0  0  0
    0.8960   -2.4680   -0.3200 O   0  0  0  0  0  0  0  0  0  0  0  0
    3.5770    2.3570   -0.0400 H   0  0  0  0  0  0  0  0  0  0  0  0
    1.9070    2.8250    0.3220 H   0  0  0  0  0  0  0  0  0  0  0  0
    3.0240    2.6560    1.6950 H   0  0  0  0  0  0  0  0  0  0  0  0
    2.7050    0.1750   -0.0480 H   0  0  0  0  0  0  0  0  0  0  0  0
    2.9190    0.3750    1.7220 H   0  0  0  0  0  0  0  0  0  0  0  0
    0.3740    1.2580    0.2370 H   0  0  0  0  0  0  0  0  0  0  0  0
    0.5430    2.5390    2.1020 H   0  0  0  0  0  0  0  0  0  0  0  0
   -0.4830    1.1380    2.6130 H   0  0  0  0  0  0  0  0  0  0  0  0
    1.2860    1.2740    3.1450 H   0  0  0  0  0  0  0  0  0  0  0  0
   -0.7560   -0.5500    1.3710 H   0  0  0  0  0  0  0  0  0  0  0  0
    1.9260   -1.7260    2.0420 H   0  0  0  0  0  0  0  0  0  0  0  0
   -0.1150   -0.7340   -1.4340 N   0  0  0  0  0  0  0  0  0  0  0  0
   -0.0010   -1.4680   -2.6300 C   0  0  1  0  0  0  0  0  0  0  0  0
   -1.1900   -2.2890   -2.9690 C   0  0  0  0  0  0  0  0  0  0  0  0
   -2.4510   -1.5640   -3.1970 C   0  0  0  0  0  0  0  0  0  0  0  0
   -3.0680   -0.7750   -2.1030 C   0  0  0  0  0  0  0  0  0  0  0  0
   -4.4020   -0.2300   -2.6800 C   0  0  0  0  0  0  0  0  0  0  0  0
   -4.1730    0.5950   -3.8260 N   0  0  0  0  0  0  0  0  0  0  0  0
    0.3680   -0.6680   -3.8220 C   0  0  0  0  0  0  0  0  0  0  0  0
    0.5650    0.5700   -3.7820 O   0  0  0  0  0  0  0  0  0  0  0  0
    0.5150   -1.2600   -5.0660 O   0  0  0  0  0  0  0  0  0  0  0  0
   -0.4860    0.2220   -1.2980 H   0  0  0  0  0  0  0  0  0  0  0  0
    0.8410   -2.2460   -2.5500 H   0  0  0  0  0  0  0  0  0  0  0  0
   -0.9650   -2.8900   -3.9090 H   0  0  0  0  0  0  0  0  0  0  0  0
   -1.3670   -3.0930   -2.1830 H   0  0  0  0  0  0  0  0  0  0  0  0
   -3.2810   -2.2880   -3.5360 H   0  0  0  0  0  0  0  0  0  0  0  0
   -2.3780   -0.8570   -4.0890 H   0  0  0  0  0  0  0  0  0  0  0  0
   -2.5330    0.1570   -1.8540 H   0  0  0  0  0  0  0  0  0  0  0  0
   -3.3550   -1.3700   -1.2230 H   0  0  0  0  0  0  0  0  0  0  0  0
   -5.0760   -1.0580   -2.9460 H   0  0  0  0  0  0  0  0  0  0  0  0
   -4.9110    0.3810   -1.9080 H   0  0  0  0  0  0  0  0  0  0  0  0
   -4.5050    0.1850   -4.7100 H   0  0  0  0  0  0  0  0  0  0  0  0
   -3.2390    1.0200   -3.8440 H   0  0  0  0  0  0  0  0  0  0  0  0
  1  2  1  0  0  0  0
  1 10  1  0  0  0  0
  2 11  1  6  0  0  0
  2  3  1  0  0  0  0
  3 13  1  0  0  0  0
  3  4  1  0  0  0  0
  3 12  1  0  0  0  0
  4  8  1  0  0  0  0
  5  4  2  0  0  0  0
  6  7  2  0  0  0  0
  6  2  1  0  0  0  0
  8 14  1  0  0  0  0
  9  1  1  0  0  0  0
 15 16  1  0  0  0  0
 15 25  1  0  0  0  0
 16 17  1  0  0  0  0
 16 27  1  0  0  0  0
 17 28  1  6  0  0  0
 17 19  1  0  0  0  0
 17 18  1  0  0  0  0
 18 30  1  0  0  0  0
 18 31  1  0  0  0  0
 19 32  1  1  0  0  0
 19 20  1  0  0  0  0
 20  6  1  0  0  0  0
 21 19  1  0  0  0  0
 22 21  2  0  0  0  0
 23 15  1  0  0  0  0
 24 15  1  0  0  0  0
 26 16  1  0  0  0  0
 29 18  1  0  0  0  0
 33 20  1  0  0  0  0
 34 44  1  0  0  0  0
 34 21  1  0  0  0  0
 35 45  1  1  0  0  0
 35 34  1  0  0  0  0
 36 35  1  0  0  0  0
 36 47  1  0  0  0  0
 37 36  1  0  0  0  0
 37 38  1  0  0  0  0
 38 50  1  0  0  0  0
 38 51  1  0  0  0  0
 39 38  1  0  0  0  0
 39 53  1  0  0  0  0
 40 39  1  0  0  0  0
 41 42  1  0  0  0  0
 41 35  1  0  0  0  0
 43 41  2  0  0  0  0
 46 36  1  0  0  0  0
 48 37  1  0  0  0  0
 49 37  1  0  0  0  0
 52 39  1  0  0  0  0
 54 40  1  0  0  0  0
 55 40  1  0  0  0  0
M  END
$$$$
