DIL.pdb
 OpenBabel07022418143D

 53 52  0  0  1  0  0  0  0  0999 V2000
    2.6460   -3.4710    2.9890 N   0  0  0  0  0  0  0  0  0  0  0  0
    2.6930   -2.1120    3.4250 C   0  0  1  0  0  0  0  0  0  0  0  0
    4.0840   -1.7430    3.8360 C   0  0  0  0  0  0  0  0  0  0  0  0
    4.4710   -2.6580    4.9560 C   0  0  0  0  0  0  0  0  0  0  0  0
    5.6070   -2.5790    5.5120 O   0  0  0  0  0  0  0  0  0  0  0  0
    2.0970   -1.1620    2.4530 C   0  0  0  0  0  0  0  0  0  0  0  0
    2.0740    0.0700    2.7140 O   0  0  0  0  0  0  0  0  0  0  0  0
    3.6190   -3.6360    5.4470 O   0  0  0  0  0  0  0  0  0  0  0  0
    1.7520   -3.9500    3.1820 H   0  0  0  0  0  0  0  0  0  0  0  0
    3.0280   -3.6410    2.0470 H   0  0  0  0  0  0  0  0  0  0  0  0
    2.0540   -2.0440    4.3520 H   0  0  0  0  0  0  0  0  0  0  0  0
    4.0350   -0.7230    4.2870 H   0  0  0  0  0  0  0  0  0  0  0  0
    4.8100   -1.7320    3.0250 H   0  0  0  0  0  0  0  0  0  0  0  0
    3.9470   -4.5070    5.8430 H   0  0  0  0  0  0  0  0  0  0  0  0
    3.9720   -0.2390   -1.9840 C   0  0  0  0  0  0  0  0  0  0  0  0
    3.1990   -0.2030   -0.6840 C   0  0  0  0  0  0  0  0  0  0  0  0
    1.7400   -0.5920   -1.0080 C   0  0  2  0  0  0  0  0  0  0  0  0
    1.2390    0.4360   -1.9960 C   0  0  0  0  0  0  0  0  0  0  0  0
    0.9460   -0.5870    0.2600 C   0  0  2  0  0  0  0  0  0  0  0  0
    1.5360   -1.5530    1.2160 N   0  0  0  0  0  0  0  0  0  0  0  0
   -0.4680   -0.9100    0.1680 C   0  0  0  0  0  0  0  0  0  0  0  0
   -0.8750   -1.9560    0.7950 O   0  0  0  0  0  0  0  0  0  0  0  0
    4.2360    0.7820   -2.3410 H   0  0  0  0  0  0  0  0  0  0  0  0
    4.9240   -0.8010   -1.9010 H   0  0  0  0  0  0  0  0  0  0  0  0
    3.3880   -0.7470   -2.7970 H   0  0  0  0  0  0  0  0  0  0  0  0
    3.5620   -1.0180    0.0030 H   0  0  0  0  0  0  0  0  0  0  0  0
    3.2520    0.7580   -0.1740 H   0  0  0  0  0  0  0  0  0  0  0  0
    1.8110   -1.5380   -1.5340 H   0  0  0  0  0  0  0  0  0  0  0  0
    0.4030    0.0490   -2.5760 H   0  0  0  0  0  0  0  0  0  0  0  0
    2.0760    0.8080   -2.6460 H   0  0  0  0  0  0  0  0  0  0  0  0
    0.9270    1.3290   -1.4200 H   0  0  0  0  0  0  0  0  0  0  0  0
    1.0470    0.4180    0.7170 H   0  0  0  0  0  0  0  0  0  0  0  0
    1.5190   -2.5470    0.9330 H   0  0  0  0  0  0  0  0  0  0  0  0
   -5.5930    1.6210    0.9940 C   0  0  0  0  0  0  0  0  0  0  0  0
   -5.0640    0.3530    0.2380 C   0  0  0  0  0  0  0  0  0  0  0  0
   -5.7430    0.4220   -1.1330 C   0  0  0  0  0  0  0  0  0  0  0  0
   -3.6070    0.4730    0.0870 C   0  0  0  0  0  0  0  0  0  0  0  0
   -2.9050   -0.6810   -0.5320 C   0  0  2  0  0  0  0  0  0  0  0  0
   -1.4740   -0.2300   -0.5190 N   0  0  0  0  0  0  0  0  0  0  0  0
   -3.1950   -0.9100   -1.9330 C   0  0  0  0  0  0  0  0  0  0  0  0
   -2.4070   -0.4110   -2.8170 O   0  0  0  0  0  0  0  0  0  0  0  0
   -4.2450   -1.6310   -2.4850 O   0  0  0  0  0  0  0  0  0  0  0  0
   -5.5940    2.4780    0.3030 H   0  0  0  0  0  0  0  0  0  0  0  0
   -4.9220    1.8010    1.8460 H   0  0  0  0  0  0  0  0  0  0  0  0
   -6.5840    1.3240    1.3610 H   0  0  0  0  0  0  0  0  0  0  0  0
   -5.4270   -0.5180    0.7690 H   0  0  0  0  0  0  0  0  0  0  0  0
   -6.5220    1.2370   -1.0500 H   0  0  0  0  0  0  0  0  0  0  0  0
   -5.0590    0.7680   -1.9160 H   0  0  0  0  0  0  0  0  0  0  0  0
   -6.2630   -0.5160   -1.3270 H   0  0  0  0  0  0  0  0  0  0  0  0
   -3.3550    1.4430   -0.4540 H   0  0  0  0  0  0  0  0  0  0  0  0
   -3.1910    0.6950    1.1240 H   0  0  0  0  0  0  0  0  0  0  0  0
   -2.9760   -1.6080    0.0810 H   0  0  0  0  0  0  0  0  0  0  0  0
   -1.2740    0.6100   -1.0350 H   0  0  0  0  0  0  0  0  0  0  0  0
  1  9  1  0  0  0  0
  1  2  1  0  0  0  0
  2  3  1  0  0  0  0
  2 11  1  1  0  0  0
  3 12  1  0  0  0  0
  3  4  1  0  0  0  0
  4  8  1  0  0  0  0
  4  5  2  0  0  0  0
  6  7  2  0  0  0  0
  6  2  1  0  0  0  0
  8 14  1  0  0  0  0
 10  1  1  0  0  0  0
 13  3  1  0  0  0  0
 15 24  1  0  0  0  0
 15 16  1  0  0  0  0
 16 27  1  0  0  0  0
 16 26  1  0  0  0  0
 17 28  1  6  0  0  0
 17 16  1  0  0  0  0
 17 19  1  0  0  0  0
 18 31  1  0  0  0  0
 18 17  1  0  0  0  0
 19 32  1  1  0  0  0
 19 20  1  0  0  0  0
 20  6  1  0  0  0  0
 21 19  1  0  0  0  0
 21 22  2  0  0  0  0
 23 15  1  0  0  0  0
 25 15  1  0  0  0  0
 29 18  1  0  0  0  0
 30 18  1  0  0  0  0
 33 20  1  0  0  0  0
 34 45  1  0  0  0  0
 34 44  1  0  0  0  0
 35 46  1  0  0  0  0
 35 34  1  0  0  0  0
 36 47  1  0  0  0  0
 36 35  1  0  0  0  0
 37 35  1  0  0  0  0
 37 51  1  0  0  0  0
 38 39  1  0  0  0  0
 38 52  1  1  0  0  0
 38 37  1  0  0  0  0
 39 21  1  0  0  0  0
 40 38  1  0  0  0  0
 41 40  2  0  0  0  0
 42 40  1  0  0  0  0
 43 34  1  0  0  0  0
 48 36  1  0  0  0  0
 49 36  1  0  0  0  0
 50 37  1  0  0  0  0
 53 39  1  0  0  0  0
M  END
$$$$
