DIQ.pdb
 OpenBabel07022418143D

 51 50  0  0  1  0  0  0  0  0999 V2000
    2.6280    0.8610    4.4210 N   0  0  0  0  0  0  0  0  0  0  0  0
    1.9280   -0.0830    3.5840 C   0  0  1  0  0  0  0  0  0  0  0  0
    0.4370   -0.0650    3.8170 C   0  0  0  0  0  0  0  0  0  0  0  0
   -0.1130    1.2600    3.5340 C   0  0  0  0  0  0  0  0  0  0  0  0
    0.6380    2.1820    3.1550 O   0  0  0  0  0  0  0  0  0  0  0  0
    2.2360    0.1210    2.1410 C   0  0  0  0  0  0  0  0  0  0  0  0
    3.0370    1.0550    1.8070 O   0  0  0  0  0  0  0  0  0  0  0  0
   -1.4630    1.4970    3.6830 O   0  0  0  0  0  0  0  0  0  0  0  0
    3.5100    1.2240    3.9750 H   0  0  0  0  0  0  0  0  0  0  0  0
    2.8820    0.5040    5.3500 H   0  0  0  0  0  0  0  0  0  0  0  0
    2.3030   -1.0980    3.8430 H   0  0  0  0  0  0  0  0  0  0  0  0
   -0.0090   -0.8600    3.1970 H   0  0  0  0  0  0  0  0  0  0  0  0
    0.2450   -0.3430    4.8720 H   0  0  0  0  0  0  0  0  0  0  0  0
   -1.9020    2.4040    3.4740 H   0  0  0  0  0  0  0  0  0  0  0  0
    1.9840   -2.2430   -3.1380 C   0  0  0  0  0  0  0  0  0  0  0  0
    2.9870   -1.9890   -2.0890 C   0  0  0  0  0  0  0  0  0  0  0  0
    2.5600   -1.8060   -0.6990 C   0  0  2  0  0  0  0  0  0  0  0  0
    1.8020   -3.0070   -0.1440 C   0  0  0  0  0  0  0  0  0  0  0  0
    1.9200   -0.5450   -0.2650 C   0  0  2  0  0  0  0  0  0  0  0  0
    1.6330   -0.7250    1.1770 N   0  0  0  0  0  0  0  0  0  0  0  0
    0.6400   -0.2030   -0.9320 C   0  0  0  0  0  0  0  0  0  0  0  0
    0.6350    0.0670   -2.1570 O   0  0  0  0  0  0  0  0  0  0  0  0
    1.9210   -1.4900   -3.9540 H   0  0  0  0  0  0  0  0  0  0  0  0
    0.9720   -2.5530   -2.7510 H   0  0  0  0  0  0  0  0  0  0  0  0
    2.3020   -3.1780   -3.7040 H   0  0  0  0  0  0  0  0  0  0  0  0
    3.6250   -1.1220   -2.4540 H   0  0  0  0  0  0  0  0  0  0  0  0
    3.7370   -2.8370   -2.0950 H   0  0  0  0  0  0  0  0  0  0  0  0
    3.5390   -1.8490   -0.0860 H   0  0  0  0  0  0  0  0  0  0  0  0
    2.0080   -3.1660    0.9210 H   0  0  0  0  0  0  0  0  0  0  0  0
    0.7220   -2.9430   -0.3770 H   0  0  0  0  0  0  0  0  0  0  0  0
    2.1790   -3.9040   -0.6900 H   0  0  0  0  0  0  0  0  0  0  0  0
    2.6270    0.3120   -0.3000 H   0  0  0  0  0  0  0  0  0  0  0  0
    0.9910   -1.4640    1.5260 H   0  0  0  0  0  0  0  0  0  0  0  0
   -4.1590   -1.6260    2.4280 N   0  0  0  0  0  0  0  0  0  0  0  0
   -3.9360   -0.9560    1.1600 C   0  0  0  0  0  0  0  0  0  0  0  0
   -4.4280    0.1740    1.0790 O   0  0  0  0  0  0  0  0  0  0  0  0
   -3.1870   -1.6590    0.1560 C   0  0  0  0  0  0  0  0  0  0  0  0
   -2.7430   -0.9940   -1.0770 C   0  0  0  0  0  0  0  0  0  0  0  0
   -1.8030    0.1750   -0.9470 C   0  0  2  0  0  0  0  0  0  0  0  0
   -0.6020   -0.1600   -0.2600 N   0  0  0  0  0  0  0  0  0  0  0  0
   -2.4990    1.3800   -0.5530 C   0  0  0  0  0  0  0  0  0  0  0  0
   -2.2110    2.1480    0.3970 O   0  0  0  0  0  0  0  0  0  0  0  0
   -3.6250    1.7390   -1.3220 O   0  0  0  0  0  0  0  0  0  0  0  0
   -3.8180   -1.0890    3.2620 H   0  0  0  0  0  0  0  0  0  0  0  0
   -4.6100   -2.5440    2.4980 H   0  0  0  0  0  0  0  0  0  0  0  0
   -2.3130   -2.2410    0.6140 H   0  0  0  0  0  0  0  0  0  0  0  0
   -3.8450   -2.5350   -0.1870 H   0  0  0  0  0  0  0  0  0  0  0  0
   -3.6030   -0.6180   -1.6900 H   0  0  0  0  0  0  0  0  0  0  0  0
   -2.1720   -1.7690   -1.6820 H   0  0  0  0  0  0  0  0  0  0  0  0
   -1.5270    0.3780   -2.0640 H   0  0  0  0  0  0  0  0  0  0  0  0
   -0.6380   -0.3770    0.7530 H   0  0  0  0  0  0  0  0  0  0  0  0
  1 10  1  0  0  0  0
  2  3  1  0  0  0  0
  2 11  1  1  0  0  0
  2  1  1  0  0  0  0
  3 13  1  0  0  0  0
  4  8  1  0  0  0  0
  4  3  1  0  0  0  0
  5  4  2  0  0  0  0
  6  2  1  0  0  0  0
  7  6  2  0  0  0  0
  9  1  1  0  0  0  0
 12  3  1  0  0  0  0
 14  8  1  0  0  0  0
 15 24  1  0  0  0  0
 15 16  1  0  0  0  0
 16 17  1  0  0  0  0
 17 19  1  0  0  0  0
 17 18  1  0  0  0  0
 17 28  1  1  0  0  0
 18 29  1  0  0  0  0
 19 32  1  6  0  0  0
 19 20  1  0  0  0  0
 20 33  1  0  0  0  0
 20  6  1  0  0  0  0
 21 19  1  0  0  0  0
 21 40  1  0  0  0  0
 22 21  2  0  0  0  0
 23 15  1  0  0  0  0
 25 15  1  0  0  0  0
 26 16  1  0  0  0  0
 27 16  1  0  0  0  0
 30 18  1  0  0  0  0
 31 18  1  0  0  0  0
 34 45  1  0  0  0  0
 34 44  1  0  0  0  0
 35 34  1  0  0  0  0
 36 35  2  0  0  0  0
 37 46  1  0  0  0  0
 37 35  1  0  0  0  0
 38 39  1  0  0  0  0
 38 37  1  0  0  0  0
 39 50  1  6  0  0  0
 39 41  1  0  0  0  0
 39 40  1  0  0  0  0
 40 51  1  0  0  0  0
 41 42  1  0  0  0  0
 43 41  2  0  0  0  0
 47 37  1  0  0  0  0
 48 38  1  0  0  0  0
 49 38  1  0  0  0  0
M  END
$$$$
