DIS.pdb
 OpenBabel07022418143D

 45 44  0  0  1  0  0  0  0  0999 V2000
    1.9270   -4.1060    1.0780 N   0  0  0  0  0  0  0  0  0  0  0  0
    2.6110   -3.0590    1.8460 C   0  0  1  0  0  0  0  0  0  0  0  0
    4.0530   -3.1320    1.5070 C   0  0  0  0  0  0  0  0  0  0  0  0
    4.8480   -2.1420    2.2560 C   0  0  0  0  0  0  0  0  0  0  0  0
    6.0490   -1.8790    1.8990 O   0  0  0  0  0  0  0  0  0  0  0  0
    1.9640   -1.7480    1.5740 C   0  0  0  0  0  0  0  0  0  0  0  0
    2.3790   -0.6670    2.0350 O   0  0  0  0  0  0  0  0  0  0  0  0
    4.4010   -1.4420    3.3570 O   0  0  0  0  0  0  0  0  0  0  0  0
    2.5780   -4.9430    1.1440 H   0  0  0  0  0  0  0  0  0  0  0  0
    1.0660   -4.3830    1.5990 H   0  0  0  0  0  0  0  0  0  0  0  0
    2.4620   -3.2970    2.9100 H   0  0  0  0  0  0  0  0  0  0  0  0
    4.4450   -4.1560    1.7200 H   0  0  0  0  0  0  0  0  0  0  0  0
    4.1550   -2.9400    0.4130 H   0  0  0  0  0  0  0  0  0  0  0  0
    5.0150   -0.8530    3.8920 H   0  0  0  0  0  0  0  0  0  0  0  0
    1.3680   -0.0070   -3.1460 C   0  0  0  0  0  0  0  0  0  0  0  0
    1.4790   -0.1170   -1.6310 C   0  0  0  0  0  0  0  0  0  0  0  0
    0.0960   -0.1220   -1.0010 C   0  0  2  0  0  0  0  0  0  0  0  0
   -0.5840    1.1640   -1.3660 C   0  0  0  0  0  0  0  0  0  0  0  0
    0.1490   -0.3410    0.4710 C   0  0  2  0  0  0  0  0  0  0  0  0
    0.7980   -1.6460    0.7480 N   0  0  0  0  0  0  0  0  0  0  0  0
   -1.1410   -0.2700    1.1750 C   0  0  0  0  0  0  0  0  0  0  0  0
   -1.5670   -1.3600    1.7090 O   0  0  0  0  0  0  0  0  0  0  0  0
    2.0890   -0.6850   -3.6350 H   0  0  0  0  0  0  0  0  0  0  0  0
    1.3830    1.0260   -3.5110 H   0  0  0  0  0  0  0  0  0  0  0  0
    0.3390   -0.4100   -3.3900 H   0  0  0  0  0  0  0  0  0  0  0  0
    2.0440   -1.0160   -1.3890 H   0  0  0  0  0  0  0  0  0  0  0  0
    2.0810    0.7600   -1.3010 H   0  0  0  0  0  0  0  0  0  0  0  0
   -0.4590   -0.9300   -1.5440 H   0  0  0  0  0  0  0  0  0  0  0  0
   -1.6750    1.1380   -1.2600 H   0  0  0  0  0  0  0  0  0  0  0  0
   -0.1780    1.9920   -0.7620 H   0  0  0  0  0  0  0  0  0  0  0  0
   -0.3210    1.4480   -2.4420 H   0  0  0  0  0  0  0  0  0  0  0  0
    0.8180    0.4090    0.9190 H   0  0  0  0  0  0  0  0  0  0  0  0
    0.4260   -2.5260    0.3510 H   0  0  0  0  0  0  0  0  0  0  0  0
   -4.3340    1.5960    3.9820 O   0  0  0  0  0  0  0  0  0  0  0  0
   -3.1300    1.6650    3.2570 C   0  0  0  0  0  0  0  0  0  0  0  0
   -3.2360    0.7450    2.0790 C   0  0  2  0  0  0  0  0  0  0  0  0
   -1.9730    0.8330    1.3480 N   0  0  0  0  0  0  0  0  0  0  0  0
   -4.3920    1.0930    1.1950 C   0  0  0  0  0  0  0  0  0  0  0  0
   -5.5470    1.0950    1.6340 O   0  0  0  0  0  0  0  0  0  0  0  0
   -4.1580    1.4150   -0.1280 O   0  0  0  0  0  0  0  0  0  0  0  0
   -4.1910    1.9410    4.8950 H   0  0  0  0  0  0  0  0  0  0  0  0
   -3.0260    2.7350    2.9500 H   0  0  0  0  0  0  0  0  0  0  0  0
   -2.2580    1.3800    3.8520 H   0  0  0  0  0  0  0  0  0  0  0  0
   -3.3930   -0.2840    2.4550 H   0  0  0  0  0  0  0  0  0  0  0  0
   -1.7130    1.7420    0.9810 H   0  0  0  0  0  0  0  0  0  0  0  0
  1  9  1  0  0  0  0
  1 10  1  0  0  0  0
  1  2  1  0  0  0  0
  2 11  1  1  0  0  0
  3 12  1  0  0  0  0
  3  2  1  0  0  0  0
  3  4  1  0  0  0  0
  4  8  1  0  0  0  0
  5  4  2  0  0  0  0
  6  2  1  0  0  0  0
  6  7  2  0  0  0  0
  8 14  1  0  0  0  0
 13  3  1  0  0  0  0
 15 16  1  0  0  0  0
 16 26  1  0  0  0  0
 16 27  1  0  0  0  0
 16 17  1  0  0  0  0
 17 28  1  6  0  0  0
 17 19  1  0  0  0  0
 18 29  1  0  0  0  0
 18 17  1  0  0  0  0
 18 30  1  0  0  0  0
 19 20  1  0  0  0  0
 19 32  1  1  0  0  0
 19 21  1  0  0  0  0
 20  6  1  0  0  0  0
 21 37  1  0  0  0  0
 21 22  2  0  0  0  0
 23 15  1  0  0  0  0
 24 15  1  0  0  0  0
 25 15  1  0  0  0  0
 31 18  1  0  0  0  0
 33 20  1  0  0  0  0
 34 41  1  0  0  0  0
 35 43  1  0  0  0  0
 35 34  1  0  0  0  0
 36 44  1  1  0  0  0
 36 35  1  0  0  0  0
 37 36  1  0  0  0  0
 38 39  1  0  0  0  0
 38 36  1  0  0  0  0
 40 38  2  0  0  0  0
 42 35  1  0  0  0  0
 45 37  1  0  0  0  0
M  END
$$$$
