DIT.pdb
 OpenBabel07022418143D

 48 47  0  0  1  0  0  0  0  0999 V2000
    3.1200   -4.1560    2.1690 N   0  0  0  0  0  0  0  0  0  0  0  0
    2.5430   -2.9060    2.6410 C   0  0  1  0  0  0  0  0  0  0  0  0
    3.5550   -2.0720    3.3530 C   0  0  0  0  0  0  0  0  0  0  0  0
    3.0320   -0.7860    3.8430 C   0  0  0  0  0  0  0  0  0  0  0  0
    3.1690    0.2880    3.1660 O   0  0  0  0  0  0  0  0  0  0  0  0
    1.8600   -2.1710    1.5100 C   0  0  0  0  0  0  0  0  0  0  0  0
    2.1440   -2.5760    0.3800 O   0  0  0  0  0  0  0  0  0  0  0  0
    2.3820   -0.7080    5.0430 O   0  0  0  0  0  0  0  0  0  0  0  0
    3.2770   -4.7730    2.9970 H   0  0  0  0  0  0  0  0  0  0  0  0
    2.3510   -4.6410    1.6200 H   0  0  0  0  0  0  0  0  0  0  0  0
    1.7360   -3.1710    3.3500 H   0  0  0  0  0  0  0  0  0  0  0  0
    4.4810   -1.9460    2.7520 H   0  0  0  0  0  0  0  0  0  0  0  0
    3.8610   -2.6530    4.2600 H   0  0  0  0  0  0  0  0  0  0  0  0
    1.8700    0.1460    5.2920 H   0  0  0  0  0  0  0  0  0  0  0  0
    3.1360    0.5160   -1.6040 C   0  0  0  0  0  0  0  0  0  0  0  0
    2.4070    0.4050   -0.2820 C   0  0  0  0  0  0  0  0  0  0  0  0
    1.0630   -0.2440   -0.5530 C   0  0  2  0  0  0  0  0  0  0  0  0
    0.3570    0.7180   -1.5180 C   0  0  0  0  0  0  0  0  0  0  0  0
    0.2740   -0.3190    0.7230 C   0  0  2  0  0  0  0  0  0  0  0  0
    0.9790   -1.1220    1.7310 N   0  0  0  0  0  0  0  0  0  0  0  0
   -1.0900   -0.7820    0.5740 C   0  0  0  0  0  0  0  0  0  0  0  0
   -1.3850   -1.9070    1.1280 O   0  0  0  0  0  0  0  0  0  0  0  0
    2.7010   -0.1990   -2.3240 H   0  0  0  0  0  0  0  0  0  0  0  0
    3.0720    1.5260   -2.0600 H   0  0  0  0  0  0  0  0  0  0  0  0
    4.2310    0.3010   -1.4570 H   0  0  0  0  0  0  0  0  0  0  0  0
    2.2640    1.4290    0.1590 H   0  0  0  0  0  0  0  0  0  0  0  0
    3.0420   -0.1310    0.4210 H   0  0  0  0  0  0  0  0  0  0  0  0
    1.2410   -1.1920   -1.0640 H   0  0  0  0  0  0  0  0  0  0  0  0
    0.0510    1.6560   -1.0330 H   0  0  0  0  0  0  0  0  0  0  0  0
   -0.4150    0.2250   -2.1210 H   0  0  0  0  0  0  0  0  0  0  0  0
    1.1220    1.0620   -2.2980 H   0  0  0  0  0  0  0  0  0  0  0  0
    0.3010    0.7280    1.1250 H   0  0  0  0  0  0  0  0  0  0  0  0
    0.7890   -0.8860    2.7570 H   0  0  0  0  0  0  0  0  0  0  0  0
   -3.9610    0.5640    1.8880 C   0  0  0  0  0  0  0  0  0  0  0  0
   -4.3810    0.3450    0.4700 C   0  0  1  0  0  0  0  0  0  0  0  0
   -4.2370    1.5220   -0.2380 O   0  0  0  0  0  0  0  0  0  0  0  0
   -3.4820   -0.7070   -0.1920 C   0  0  2  0  0  0  0  0  0  0  0  0
   -2.1310   -0.1540   -0.0950 N   0  0  0  0  0  0  0  0  0  0  0  0
   -3.8680   -0.7420   -1.6160 C   0  0  0  0  0  0  0  0  0  0  0  0
   -3.0650   -0.3280   -2.4790 O   0  0  0  0  0  0  0  0  0  0  0  0
   -5.1130   -1.2280   -2.0310 O   0  0  0  0  0  0  0  0  0  0  0  0
   -4.2060   -0.3580    2.4740 H   0  0  0  0  0  0  0  0  0  0  0  0
   -2.9000    0.8060    1.9770 H   0  0  0  0  0  0  0  0  0  0  0  0
   -4.5840    1.4040    2.2900 H   0  0  0  0  0  0  0  0  0  0  0  0
   -5.4390    0.0040    0.4740 H   0  0  0  0  0  0  0  0  0  0  0  0
   -4.7160    1.4340   -1.0880 H   0  0  0  0  0  0  0  0  0  0  0  0
   -3.5850   -1.6750    0.2950 H   0  0  0  0  0  0  0  0  0  0  0  0
   -2.0050    0.7570   -0.5450 H   0  0  0  0  0  0  0  0  0  0  0  0
  1  2  1  0  0  0  0
  1  9  1  0  0  0  0
  2 11  1  1  0  0  0
  2  3  1  0  0  0  0
  3  4  1  0  0  0  0
  3 13  1  0  0  0  0
  4  8  1  0  0  0  0
  5  4  2  0  0  0  0
  6 20  1  0  0  0  0
  6  2  1  0  0  0  0
  7  6  2  0  0  0  0
  8 14  1  0  0  0  0
 10  1  1  0  0  0  0
 12  3  1  0  0  0  0
 15 25  1  0  0  0  0
 15 16  1  0  0  0  0
 16 26  1  0  0  0  0
 16 27  1  0  0  0  0
 17 28  1  6  0  0  0
 17 16  1  0  0  0  0
 17 19  1  0  0  0  0
 18 29  1  0  0  0  0
 18 17  1  0  0  0  0
 19 32  1  1  0  0  0
 19 20  1  0  0  0  0
 20 33  1  0  0  0  0
 21 19  1  0  0  0  0
 21 22  2  0  0  0  0
 23 15  1  0  0  0  0
 24 15  1  0  0  0  0
 30 18  1  0  0  0  0
 31 18  1  0  0  0  0
 34 43  1  0  0  0  0
 34 44  1  0  0  0  0
 34 42  1  0  0  0  0
 35 45  1  6  0  0  0
 35 34  1  0  0  0  0
 36 35  1  0  0  0  0
 37 38  1  0  0  0  0
 37 47  1  1  0  0  0
 37 35  1  0  0  0  0
 38 21  1  0  0  0  0
 39 37  1  0  0  0  0
 40 39  2  0  0  0  0
 41 39  1  0  0  0  0
 46 36  1  0  0  0  0
 48 38  1  0  0  0  0
M  END
$$$$
