DIW.pdb
 OpenBabel07022418143D

 58 59  0  0  1  0  0  0  0  0999 V2000
    0.3120   -5.0550    1.0740 N   0  0  0  0  0  0  0  0  0  0  0  0
    0.5580   -5.1980   -0.3480 C   0  0  1  0  0  0  0  0  0  0  0  0
   -0.4380   -6.2090   -0.8830 C   0  0  0  0  0  0  0  0  0  0  0  0
   -0.2180   -7.4850   -0.1700 C   0  0  0  0  0  0  0  0  0  0  0  0
    0.6750   -7.5750    0.7040 O   0  0  0  0  0  0  0  0  0  0  0  0
    0.4330   -3.8810   -0.9880 C   0  0  0  0  0  0  0  0  0  0  0  0
    0.5860   -3.7080   -2.2330 O   0  0  0  0  0  0  0  0  0  0  0  0
   -0.9870   -8.5870   -0.4550 O   0  0  0  0  0  0  0  0  0  0  0  0
    1.0400   -5.4550    1.6700 H   0  0  0  0  0  0  0  0  0  0  0  0
   -0.6650   -5.3140    1.3170 H   0  0  0  0  0  0  0  0  0  0  0  0
    1.6010   -5.5920   -0.4290 H   0  0  0  0  0  0  0  0  0  0  0  0
   -0.3500   -6.3220   -1.9830 H   0  0  0  0  0  0  0  0  0  0  0  0
   -1.4790   -5.8950   -0.6610 H   0  0  0  0  0  0  0  0  0  0  0  0
   -0.8980   -9.4990   -0.0090 H   0  0  0  0  0  0  0  0  0  0  0  0
   -3.4770   -0.1880    0.3910 C   0  0  0  0  0  0  0  0  0  0  0  0
   -2.0860   -0.7920    0.6360 C   0  0  0  0  0  0  0  0  0  0  0  0
   -1.3930   -0.8550   -0.6760 C   0  0  2  0  0  0  0  0  0  0  0  0
   -2.2630   -1.7490   -1.5780 C   0  0  0  0  0  0  0  0  0  0  0  0
   -0.0220   -1.3890   -0.7120 C   0  0  2  0  0  0  0  0  0  0  0  0
    0.1320   -2.7450   -0.2120 N   0  0  0  0  0  0  0  0  0  0  0  0
    1.1070   -0.5110   -0.4130 C   0  0  0  0  0  0  0  0  0  0  0  0
    2.1430   -1.0640    0.1150 O   0  0  0  0  0  0  0  0  0  0  0  0
   -4.2230   -0.9780    0.2220 H   0  0  0  0  0  0  0  0  0  0  0  0
   -3.7240    0.4960    1.2190 H   0  0  0  0  0  0  0  0  0  0  0  0
   -3.4690    0.4230   -0.5380 H   0  0  0  0  0  0  0  0  0  0  0  0
   -2.3170   -1.8390    1.0120 H   0  0  0  0  0  0  0  0  0  0  0  0
   -1.6020   -0.2770    1.4480 H   0  0  0  0  0  0  0  0  0  0  0  0
   -1.3730    0.1850   -1.1120 H   0  0  0  0  0  0  0  0  0  0  0  0
   -3.0900   -1.0960   -1.9530 H   0  0  0  0  0  0  0  0  0  0  0  0
   -2.6710   -2.6090   -1.0090 H   0  0  0  0  0  0  0  0  0  0  0  0
   -1.6640   -2.1600   -2.4130 H   0  0  0  0  0  0  0  0  0  0  0  0
    0.1400   -1.5770   -1.8710 H   0  0  0  0  0  0  0  0  0  0  0  0
    0.0090   -2.9120    0.8380 H   0  0  0  0  0  0  0  0  0  0  0  0
    1.2100    0.8780   -0.6390 N   0  0  0  0  0  0  0  0  0  0  0  0
    2.3260    1.7040   -0.4050 C   0  0  1  0  0  0  0  0  0  0  0  0
    2.6550    2.2620    0.9080 C   0  0  0  0  0  0  0  0  0  0  0  0
    1.6750    3.1400    1.5380 C   0  0  0  0  0  0  0  0  0  0  0  0
    1.7090    4.5230    1.4150 C   0  0  0  0  0  0  0  0  0  0  0  0
    0.6630    5.0040    2.0930 N   0  0  0  0  0  0  0  0  0  0  0  0
   -0.0370    3.9810    2.6450 C   0  0  0  0  0  0  0  0  0  0  0  0
   -1.1600    3.9290    3.4340 C   0  0  0  0  0  0  0  0  0  0  0  0
   -1.6600    2.7380    3.8820 C   0  0  0  0  0  0  0  0  0  0  0  0
   -1.0470    1.5510    3.5520 C   0  0  0  0  0  0  0  0  0  0  0  0
    0.1000    1.5860    2.7470 C   0  0  0  0  0  0  0  0  0  0  0  0
    0.5890    2.7940    2.3040 C   0  0  0  0  0  0  0  0  0  0  0  0
    3.5970    1.0960   -0.9780 C   0  0  0  0  0  0  0  0  0  0  0  0
    4.6610    1.7160   -0.7560 O   0  0  0  0  0  0  0  0  0  0  0  0
    3.6210   -0.0660   -1.7080 O   0  0  0  0  0  0  0  0  0  0  0  0
    0.3160    1.3150   -1.0330 H   0  0  0  0  0  0  0  0  0  0  0  0
    2.1960    2.5850   -1.1550 H   0  0  0  0  0  0  0  0  0  0  0  0
    3.6160    2.8600    0.7830 H   0  0  0  0  0  0  0  0  0  0  0  0
    2.9840    1.4370    1.6120 H   0  0  0  0  0  0  0  0  0  0  0  0
    2.4390    5.1130    0.8750 H   0  0  0  0  0  0  0  0  0  0  0  0
    0.4070    6.0220    2.1910 H   0  0  0  0  0  0  0  0  0  0  0  0
   -1.6170    4.8910    3.6760 H   0  0  0  0  0  0  0  0  0  0  0  0
   -2.5310    2.7130    4.4930 H   0  0  0  0  0  0  0  0  0  0  0  0
   -1.4140    0.5830    3.8900 H   0  0  0  0  0  0  0  0  0  0  0  0
    0.5910    0.6630    2.4820 H   0  0  0  0  0  0  0  0  0  0  0  0
  1 10  1  0  0  0  0
  1  9  1  0  0  0  0
  2 11  1  6  0  0  0
  2  1  1  0  0  0  0
  3 13  1  0  0  0  0
  3  2  1  0  0  0  0
  3  4  1  0  0  0  0
  4  5  2  0  0  0  0
  6  2  1  0  0  0  0
  6 20  1  0  0  0  0
  7  6  2  0  0  0  0
  8  4  1  0  0  0  0
  8 14  1  0  0  0  0
 12  3  1  0  0  0  0
 15 16  1  0  0  0  0
 15 24  1  0  0  0  0
 16 26  1  0  0  0  0
 16 27  1  0  0  0  0
 17 28  1  6  0  0  0
 17 16  1  0  0  0  0
 18 30  1  0  0  0  0
 18 17  1  0  0  0  0
 19 32  1  6  0  0  0
 19 17  1  0  0  0  0
 19 21  1  0  0  0  0
 19 20  1  0  0  0  0
 20 33  1  0  0  0  0
 21 22  2  0  0  0  0
 23 15  1  0  0  0  0
 25 15  1  0  0  0  0
 29 18  1  0  0  0  0
 31 18  1  0  0  0  0
 34 21  1  0  0  0  0
 34 35  1  0  0  0  0
 35 50  1  6  0  0  0
 35 36  1  0  0  0  0
 36 37  1  0  0  0  0
 36 52  1  0  0  0  0
 37 45  1  0  0  0  0
 38 37  2  0  0  0  0
 38 39  1  0  0  0  0
 39 54  1  0  0  0  0
 39 40  1  0  0  0  0
 40 41  1  0  0  0  0
 41 55  1  0  0  0  0
 41 42  2  0  0  0  0
 42 56  1  0  0  0  0
 43 42  1  0  0  0  0
 43 57  1  0  0  0  0
 44 43  2  0  0  0  0
 45 40  2  0  0  0  0
 45 44  1  0  0  0  0
 46 47  1  0  0  0  0
 46 35  1  0  0  0  0
 48 46  2  0  0  0  0
 49 34  1  0  0  0  0
 51 36  1  0  0  0  0
 53 38  1  0  0  0  0
 58 44  1  0  0  0  0
M  END
$$$$
