DKC.pdb
 OpenBabel07022418143D

 47 46  0  0  1  0  0  0  0  0999 V2000
   -2.7660   -2.9820    2.8260 N   0  0  0  0  0  0  0  0  0  0  0  0
   -2.0420   -1.7400    2.6400 C   0  0  1  0  0  0  0  0  0  0  0  0
   -0.5970   -1.9500    3.0580 C   0  0  0  0  0  0  0  0  0  0  0  0
   -0.5270   -2.3520    4.4850 C   0  0  0  0  0  0  0  0  0  0  0  0
   -1.5310   -2.4940    5.2270 O   0  0  0  0  0  0  0  0  0  0  0  0
   -2.1630   -1.2700    1.2580 C   0  0  0  0  0  0  0  0  0  0  0  0
   -2.8040   -1.8610    0.3590 O   0  0  0  0  0  0  0  0  0  0  0  0
    0.7210   -2.5880    5.0420 O   0  0  0  0  0  0  0  0  0  0  0  0
   -2.1540   -3.7950    2.6130 H   0  0  0  0  0  0  0  0  0  0  0  0
   -3.6630   -2.9810    2.3300 H   0  0  0  0  0  0  0  0  0  0  0  0
   -2.4680   -1.0060    3.3490 H   0  0  0  0  0  0  0  0  0  0  0  0
    0.0310   -1.0820    2.8500 H   0  0  0  0  0  0  0  0  0  0  0  0
   -0.2160   -2.8050    2.4480 H   0  0  0  0  0  0  0  0  0  0  0  0
    0.9360   -2.4200    6.0150 H   0  0  0  0  0  0  0  0  0  0  0  0
   -1.5080   -0.0380    0.8720 N   0  0  0  0  0  0  0  0  0  0  0  0
   -1.5980    0.4590   -0.4600 C   0  0  1  0  0  0  0  0  0  0  0  0
   -1.6010    1.9180   -0.5780 C   0  0  0  0  0  0  0  0  0  0  0  0
   -0.5260    2.8320   -0.2870 C   0  0  0  0  0  0  0  0  0  0  0  0
    0.2760    2.9120    0.9370 C   0  0  0  0  0  0  0  0  0  0  0  0
    1.3010    1.8400    1.1180 C   0  0  0  0  0  0  0  0  0  0  0  0
    2.0130    1.9950    2.3990 N   0  0  0  0  0  0  0  0  0  0  0  0
   -0.5350   -0.1680   -1.3380 C   0  0  0  0  0  0  0  0  0  0  0  0
   -0.4680    0.2020   -2.5350 O   0  0  0  0  0  0  0  0  0  0  0  0
   -1.0200    0.4620    1.6260 H   0  0  0  0  0  0  0  0  0  0  0  0
   -2.5640    0.0130   -0.8770 H   0  0  0  0  0  0  0  0  0  0  0  0
   -2.0470    2.1770   -1.6430 H   0  0  0  0  0  0  0  0  0  0  0  0
   -2.5250    2.3380    0.0270 H   0  0  0  0  0  0  0  0  0  0  0  0
   -0.9930    3.9060   -0.3850 H   0  0  0  0  0  0  0  0  0  0  0  0
    0.2020    2.9090   -1.1970 H   0  0  0  0  0  0  0  0  0  0  0  0
    0.8410    3.8980    0.9490 H   0  0  0  0  0  0  0  0  0  0  0  0
   -0.4230    2.9510    1.8360 H   0  0  0  0  0  0  0  0  0  0  0  0
    1.0310    0.8320    0.9350 H   0  0  0  0  0  0  0  0  0  0  0  0
    2.1380    2.1540    0.3660 H   0  0  0  0  0  0  0  0  0  0  0  0
    1.5490    1.4420    3.1530 H   0  0  0  0  0  0  0  0  0  0  0  0
    2.9920    1.6540    2.3310 H   0  0  0  0  0  0  0  0  0  0  0  0
    0.3760   -1.1430   -0.8790 N   0  0  0  0  0  0  0  0  0  0  0  0
    1.3840   -1.7300   -1.7390 C   0  0  1  0  0  0  0  0  0  0  0  0
    2.7670   -1.4630   -1.1540 C   0  0  0  0  0  0  0  0  0  0  0  0
    4.0680   -2.1650   -2.1720 S   0  0  0  0  0  0  0  0  0  0  0  0
    1.2270   -3.2170   -1.7550 C   0  0  0  0  0  0  0  0  0  0  0  0
    2.0290   -3.8830   -2.4590 O   0  0  0  0  0  0  0  0  0  0  0  0
    0.2480   -3.8640   -1.0360 O   0  0  0  0  0  0  0  0  0  0  0  0
    0.3080   -1.4410    0.1190 H   0  0  0  0  0  0  0  0  0  0  0  0
    1.3090   -1.2980   -2.7580 H   0  0  0  0  0  0  0  0  0  0  0  0
    2.8260   -1.8080   -0.1090 H   0  0  0  0  0  0  0  0  0  0  0  0
    2.8870   -0.3440   -1.1050 H   0  0  0  0  0  0  0  0  0  0  0  0
    4.2480   -3.5150   -1.7590 H   0  0  0  0  0  0  0  0  0  0  0  0
  2  1  1  0  0  0  0
  2  3  1  0  0  0  0
  2 11  1  1  0  0  0
  3  4  1  0  0  0  0
  4  8  1  0  0  0  0
  4  5  2  0  0  0  0
  6  2  1  0  0  0  0
  7  6  2  0  0  0  0
  8 14  1  0  0  0  0
  9  1  1  0  0  0  0
 10  1  1  0  0  0  0
 12  3  1  0  0  0  0
 13  3  1  0  0  0  0
 15  6  1  0  0  0  0
 15 24  1  0  0  0  0
 16 25  1  6  0  0  0
 16 15  1  0  0  0  0
 17 16  1  0  0  0  0
 17 18  1  0  0  0  0
 17 27  1  0  0  0  0
 18 19  1  0  0  0  0
 19 30  1  0  0  0  0
 19 20  1  0  0  0  0
 19 31  1  0  0  0  0
 20 21  1  0  0  0  0
 21 34  1  0  0  0  0
 22 36  1  0  0  0  0
 22 16  1  0  0  0  0
 23 22  2  0  0  0  0
 26 17  1  0  0  0  0
 28 18  1  0  0  0  0
 29 18  1  0  0  0  0
 32 20  1  0  0  0  0
 33 20  1  0  0  0  0
 35 21  1  0  0  0  0
 36 43  1  0  0  0  0
 37 44  1  6  0  0  0
 37 38  1  0  0  0  0
 37 36  1  0  0  0  0
 38 46  1  0  0  0  0
 38 45  1  0  0  0  0
 39 47  1  0  0  0  0
 39 38  1  0  0  0  0
 40 37  1  0  0  0  0
 40 42  1  0  0  0  0
 41 40  2  0  0  0  0
M  END
$$$$
