DKG.pdb
 OpenBabel07022418143D

 43 42  0  0  1  0  0  0  0  0999 V2000
    3.2970   -4.1800    1.2690 N   0  0  0  0  0  0  0  0  0  0  0  0
    2.1990   -3.6980    0.4890 C   0  0  1  0  0  0  0  0  0  0  0  0
    0.9240   -4.4640    0.7260 C   0  0  0  0  0  0  0  0  0  0  0  0
    0.4820   -4.3990    2.1400 C   0  0  0  0  0  0  0  0  0  0  0  0
    1.0850   -3.7860    3.0380 O   0  0  0  0  0  0  0  0  0  0  0  0
    1.9820   -2.2260    0.7100 C   0  0  0  0  0  0  0  0  0  0  0  0
    2.7180   -1.5700    1.4980 O   0  0  0  0  0  0  0  0  0  0  0  0
   -0.6860   -5.0730    2.4670 O   0  0  0  0  0  0  0  0  0  0  0  0
    3.9480   -3.4340    1.5900 H   0  0  0  0  0  0  0  0  0  0  0  0
    3.8210   -4.9610    0.7940 H   0  0  0  0  0  0  0  0  0  0  0  0
    2.4540   -3.8100   -0.5840 H   0  0  0  0  0  0  0  0  0  0  0  0
    0.1370   -4.0390    0.0730 H   0  0  0  0  0  0  0  0  0  0  0  0
    1.1420   -5.5290    0.5100 H   0  0  0  0  0  0  0  0  0  0  0  0
   -0.8900   -5.3110    3.4390 H   0  0  0  0  0  0  0  0  0  0  0  0
    0.9520   -1.5170    0.0480 N   0  0  0  0  0  0  0  0  0  0  0  0
    0.7810   -0.0730    0.2990 C   0  0  1  0  0  0  0  0  0  0  0  0
    0.9840    0.7130   -0.9450 C   0  0  0  0  0  0  0  0  0  0  0  0
    0.8090    2.1770   -0.6980 C   0  0  0  0  0  0  0  0  0  0  0  0
    1.7570    2.7550    0.3270 C   0  0  0  0  0  0  0  0  0  0  0  0
    1.5190    4.2460    0.5050 C   0  0  0  0  0  0  0  0  0  0  0  0
    0.2380    4.5960    0.9350 N   0  0  0  0  0  0  0  0  0  0  0  0
   -0.5340    0.0730    0.9450 C   0  0  0  0  0  0  0  0  0  0  0  0
   -0.9940    1.1760    1.3350 O   0  0  0  0  0  0  0  0  0  0  0  0
    0.3050   -1.9680   -0.6100 H   0  0  0  0  0  0  0  0  0  0  0  0
    1.5660    0.2590    1.0400 H   0  0  0  0  0  0  0  0  0  0  0  0
    0.3140    0.4130   -1.7770 H   0  0  0  0  0  0  0  0  0  0  0  0
    2.0470    0.5230   -1.2640 H   0  0  0  0  0  0  0  0  0  0  0  0
    0.9890    2.7690   -1.6510 H   0  0  0  0  0  0  0  0  0  0  0  0
   -0.2430    2.4040   -0.4290 H   0  0  0  0  0  0  0  0  0  0  0  0
    2.8060    2.6360   -0.0090 H   0  0  0  0  0  0  0  0  0  0  0  0
    1.6570    2.2290    1.2940 H   0  0  0  0  0  0  0  0  0  0  0  0
    2.2680    4.5740    1.2830 H   0  0  0  0  0  0  0  0  0  0  0  0
    1.7960    4.8060   -0.4110 H   0  0  0  0  0  0  0  0  0  0  0  0
   -0.0340    4.4100    1.8970 H   0  0  0  0  0  0  0  0  0  0  0  0
   -0.4680    4.8560    0.2650 H   0  0  0  0  0  0  0  0  0  0  0  0
   -1.3910   -1.0500    1.1760 N   0  0  0  0  0  0  0  0  0  0  0  0
   -2.6840   -0.9090    1.8090 C   0  0  0  0  0  0  0  0  0  0  0  0
   -3.5560   -0.0130    1.0150 C   0  0  0  0  0  0  0  0  0  0  0  0
   -4.7240    0.2620    1.3780 O   0  0  0  0  0  0  0  0  0  0  0  0
   -3.0550    0.5270   -0.1560 O   0  0  0  0  0  0  0  0  0  0  0  0
   -1.1010   -2.0230    0.8880 H   0  0  0  0  0  0  0  0  0  0  0  0
   -3.2050   -1.8810    1.9070 H   0  0  0  0  0  0  0  0  0  0  0  0
   -2.5640   -0.5360    2.8530 H   0  0  0  0  0  0  0  0  0  0  0  0
  1  9  1  0  0  0  0
  2 11  1  6  0  0  0
  2  6  1  0  0  0  0
  2  3  1  0  0  0  0
  2  1  1  0  0  0  0
  3  4  1  0  0  0  0
  4  8  1  0  0  0  0
  4  5  2  0  0  0  0
  6  7  2  0  0  0  0
  8 14  1  0  0  0  0
 10  1  1  0  0  0  0
 12  3  1  0  0  0  0
 13  3  1  0  0  0  0
 15 16  1  0  0  0  0
 15  6  1  0  0  0  0
 16 22  1  0  0  0  0
 16 25  1  1  0  0  0
 17 18  1  0  0  0  0
 17 16  1  0  0  0  0
 18 29  1  0  0  0  0
 18 19  1  0  0  0  0
 19 20  1  0  0  0  0
 19 31  1  0  0  0  0
 20 21  1  0  0  0  0
 20 32  1  0  0  0  0
 21 34  1  0  0  0  0
 22 36  1  0  0  0  0
 22 23  2  0  0  0  0
 24 15  1  0  0  0  0
 26 17  1  0  0  0  0
 27 17  1  0  0  0  0
 28 18  1  0  0  0  0
 30 19  1  0  0  0  0
 33 20  1  0  0  0  0
 35 21  1  0  0  0  0
 36 37  1  0  0  0  0
 37 42  1  0  0  0  0
 37 43  1  0  0  0  0
 38 39  1  0  0  0  0
 38 37  1  0  0  0  0
 40 38  2  0  0  0  0
 41 36  1  0  0  0  0
M  END
$$$$
