DKH.pdb
 OpenBabel07022418153D

 53 53  0  0  1  0  0  0  0  0999 V2000
    2.3000   -1.9700    3.3460 N   0  0  0  0  0  0  0  0  0  0  0  0
    0.8670   -1.9610    3.4730 C   0  0  1  0  0  0  0  0  0  0  0  0
    0.5070   -1.0850    4.6530 C   0  0  0  0  0  0  0  0  0  0  0  0
    1.0900   -1.5730    5.9110 C   0  0  0  0  0  0  0  0  0  0  0  0
    1.8000   -2.6080    5.9370 O   0  0  0  0  0  0  0  0  0  0  0  0
    0.1990   -1.3760    2.2800 C   0  0  0  0  0  0  0  0  0  0  0  0
   -1.0560   -1.3210    2.2890 O   0  0  0  0  0  0  0  0  0  0  0  0
    0.8770   -0.9080    7.1070 O   0  0  0  0  0  0  0  0  0  0  0  0
    2.7360   -2.8290    3.7560 H   0  0  0  0  0  0  0  0  0  0  0  0
    2.7680   -1.1020    3.6260 H   0  0  0  0  0  0  0  0  0  0  0  0
    0.5430   -3.0150    3.6430 H   0  0  0  0  0  0  0  0  0  0  0  0
    0.9480   -0.0710    4.4270 H   0  0  0  0  0  0  0  0  0  0  0  0
   -0.5870   -0.9180    4.7110 H   0  0  0  0  0  0  0  0  0  0  0  0
    0.9330   -1.4760    7.9610 H   0  0  0  0  0  0  0  0  0  0  0  0
    0.8940   -0.8910    1.1620 N   0  0  0  0  0  0  0  0  0  0  0  0
    0.2720   -0.3120   -0.0220 C   0  0  1  0  0  0  0  0  0  0  0  0
    0.7810    1.0640   -0.2920 C   0  0  0  0  0  0  0  0  0  0  0  0
    0.5260    2.0370    0.8330 C   0  0  0  0  0  0  0  0  0  0  0  0
   -0.9260    2.2090    1.1290 C   0  0  0  0  0  0  0  0  0  0  0  0
   -1.2060    3.1710    2.2420 C   0  0  0  0  0  0  0  0  0  0  0  0
   -0.6190    2.7920    3.4940 N   0  0  0  0  0  0  0  0  0  0  0  0
    0.5070   -1.2250   -1.1910 C   0  0  0  0  0  0  0  0  0  0  0  0
    1.1530   -2.2960   -1.0550 O   0  0  0  0  0  0  0  0  0  0  0  0
    1.9390   -0.9470    1.1740 H   0  0  0  0  0  0  0  0  0  0  0  0
   -0.8220   -0.2730    0.0970 H   0  0  0  0  0  0  0  0  0  0  0  0
    0.1840    1.4580   -1.1670 H   0  0  0  0  0  0  0  0  0  0  0  0
    1.8290    1.0870   -0.6400 H   0  0  0  0  0  0  0  0  0  0  0  0
    0.9230    3.0400    0.4990 H   0  0  0  0  0  0  0  0  0  0  0  0
    1.0980    1.7940    1.7420 H   0  0  0  0  0  0  0  0  0  0  0  0
   -1.4690    2.6080    0.2250 H   0  0  0  0  0  0  0  0  0  0  0  0
   -1.3810    1.2290    1.3440 H   0  0  0  0  0  0  0  0  0  0  0  0
   -0.9360    4.2010    2.0010 H   0  0  0  0  0  0  0  0  0  0  0  0
   -2.3210    3.1680    2.3960 H   0  0  0  0  0  0  0  0  0  0  0  0
    0.4160    2.6950    3.4510 H   0  0  0  0  0  0  0  0  0  0  0  0
   -1.0890    1.9940    3.9610 H   0  0  0  0  0  0  0  0  0  0  0  0
    0.0170   -0.9210   -2.4790 N   0  0  0  0  0  0  0  0  0  0  0  0
    0.2010   -1.7410   -3.6390 C   0  0  1  0  0  0  0  0  0  0  0  0
   -1.1770   -2.2880   -4.0190 C   0  0  0  0  0  0  0  0  0  0  0  0
   -1.7270   -3.0860   -2.9000 C   0  0  0  0  0  0  0  0  0  0  0  0
   -2.5090   -2.7020   -1.8330 C   0  0  0  0  0  0  0  0  0  0  0  0
   -2.7690   -3.7930   -1.0580 N   0  0  0  0  0  0  0  0  0  0  0  0
   -2.1570   -4.8370   -1.6350 C   0  0  0  0  0  0  0  0  0  0  0  0
   -1.5340   -4.4060   -2.7390 N   0  0  0  0  0  0  0  0  0  0  0  0
    0.8420   -1.0620   -4.7580 C   0  0  0  0  0  0  0  0  0  0  0  0
    1.0560   -1.6760   -5.8280 O   0  0  0  0  0  0  0  0  0  0  0  0
    1.2240    0.2620   -4.6660 O   0  0  0  0  0  0  0  0  0  0  0  0
   -0.5210   -0.0300   -2.5930 H   0  0  0  0  0  0  0  0  0  0  0  0
    0.7930   -2.6360   -3.3150 H   0  0  0  0  0  0  0  0  0  0  0  0
   -1.1200   -2.8680   -4.9650 H   0  0  0  0  0  0  0  0  0  0  0  0
   -1.8820   -1.4420   -4.2050 H   0  0  0  0  0  0  0  0  0  0  0  0
   -2.8580   -1.6810   -1.6520 H   0  0  0  0  0  0  0  0  0  0  0  0
   -3.3480   -3.7800   -0.1750 H   0  0  0  0  0  0  0  0  0  0  0  0
   -2.1710   -5.8460   -1.2640 H   0  0  0  0  0  0  0  0  0  0  0  0
  1  2  1  0  0  0  0
  1 10  1  0  0  0  0
  1  9  1  0  0  0  0
  2 11  1  1  0  0  0
  2  3  1  0  0  0  0
  3 13  1  0  0  0  0
  3  4  1  0  0  0  0
  4  5  2  0  0  0  0
  4  8  1  0  0  0  0
  6  7  2  0  0  0  0
  6  2  1  0  0  0  0
  8 14  1  0  0  0  0
 12  3  1  0  0  0  0
 15 24  1  0  0  0  0
 15  6  1  0  0  0  0
 16 25  1  1  0  0  0
 16 15  1  0  0  0  0
 17 16  1  0  0  0  0
 17 18  1  0  0  0  0
 18 19  1  0  0  0  0
 18 29  1  0  0  0  0
 19 31  1  0  0  0  0
 19 20  1  0  0  0  0
 20 33  1  0  0  0  0
 20 21  1  0  0  0  0
 21 35  1  0  0  0  0
 22 23  2  0  0  0  0
 22 16  1  0  0  0  0
 26 17  1  0  0  0  0
 27 17  1  0  0  0  0
 28 18  1  0  0  0  0
 30 19  1  0  0  0  0
 32 20  1  0  0  0  0
 34 21  1  0  0  0  0
 36 22  1  0  0  0  0
 37 48  1  1  0  0  0
 37 36  1  0  0  0  0
 38 37  1  0  0  0  0
 38 39  1  0  0  0  0
 39 43  1  0  0  0  0
 39 40  2  0  0  0  0
 40 51  1  0  0  0  0
 40 41  1  0  0  0  0
 41 52  1  0  0  0  0
 42 53  1  0  0  0  0
 42 41  1  0  0  0  0
 43 42  2  0  0  0  0
 44 46  1  0  0  0  0
 44 37  1  0  0  0  0
 45 44  2  0  0  0  0
 47 36  1  0  0  0  0
 49 38  1  0  0  0  0
 50 38  1  0  0  0  0
M  END
$$$$
