DKI.pdb
 OpenBabel07022418153D

 55 54  0  0  1  0  0  0  0  0999 V2000
    0.7860   -2.4830    2.7790 N   0  0  0  0  0  0  0  0  0  0  0  0
    0.0790   -1.4140    3.4270 C   0  0  1  0  0  0  0  0  0  0  0  0
    0.8430   -0.8750    4.6220 C   0  0  0  0  0  0  0  0  0  0  0  0
    1.0650   -1.9470    5.6360 C   0  0  0  0  0  0  0  0  0  0  0  0
    0.6270   -3.0880    5.4040 O   0  0  0  0  0  0  0  0  0  0  0  0
   -0.2560   -0.3110    2.5040 C   0  0  0  0  0  0  0  0  0  0  0  0
   -0.8750    0.6820    2.9550 O   0  0  0  0  0  0  0  0  0  0  0  0
    1.7360   -1.7220    6.8170 O   0  0  0  0  0  0  0  0  0  0  0  0
    1.8090   -2.3640    2.7510 H   0  0  0  0  0  0  0  0  0  0  0  0
    0.4510   -3.4000    3.0950 H   0  0  0  0  0  0  0  0  0  0  0  0
   -0.8650   -1.8580    3.8580 H   0  0  0  0  0  0  0  0  0  0  0  0
    1.8220   -0.4330    4.3090 H   0  0  0  0  0  0  0  0  0  0  0  0
    0.1900   -0.1150    5.1030 H   0  0  0  0  0  0  0  0  0  0  0  0
    1.7910   -2.3420    7.5930 H   0  0  0  0  0  0  0  0  0  0  0  0
    0.0790   -0.2990    1.1230 N   0  0  0  0  0  0  0  0  0  0  0  0
   -0.2680    0.8030    0.2480 C   0  0  1  0  0  0  0  0  0  0  0  0
    0.9850    1.4060   -0.3610 C   0  0  0  0  0  0  0  0  0  0  0  0
    1.8790    1.9130    0.7490 C   0  0  0  0  0  0  0  0  0  0  0  0
    3.1520    2.5280    0.1880 C   0  0  0  0  0  0  0  0  0  0  0  0
    4.0390    3.0320    1.2990 C   0  0  0  0  0  0  0  0  0  0  0  0
    3.2640    4.0400    2.0260 N   0  0  0  0  0  0  0  0  0  0  0  0
   -1.1950    0.3290   -0.8310 C   0  0  0  0  0  0  0  0  0  0  0  0
   -1.6310    1.1150   -1.7100 O   0  0  0  0  0  0  0  0  0  0  0  0
    0.5930   -1.1170    0.7330 H   0  0  0  0  0  0  0  0  0  0  0  0
   -0.8070    1.5820    0.8180 H   0  0  0  0  0  0  0  0  0  0  0  0
    1.5290    0.5940   -0.9050 H   0  0  0  0  0  0  0  0  0  0  0  0
    0.7550    2.1810   -1.0980 H   0  0  0  0  0  0  0  0  0  0  0  0
    2.1840    1.0730    1.3920 H   0  0  0  0  0  0  0  0  0  0  0  0
    1.3290    2.6530    1.3640 H   0  0  0  0  0  0  0  0  0  0  0  0
    2.8320    3.4350   -0.3960 H   0  0  0  0  0  0  0  0  0  0  0  0
    3.6530    1.8630   -0.5210 H   0  0  0  0  0  0  0  0  0  0  0  0
    4.2040    2.2060    2.0490 H   0  0  0  0  0  0  0  0  0  0  0  0
    4.9760    3.4560    0.9410 H   0  0  0  0  0  0  0  0  0  0  0  0
    3.4720    3.9990    3.0610 H   0  0  0  0  0  0  0  0  0  0  0  0
    3.3870    4.9750    1.6260 H   0  0  0  0  0  0  0  0  0  0  0  0
   -3.3190   -4.2060   -3.5650 C   0  0  0  0  0  0  0  0  0  0  0  0
   -2.3560   -3.1140   -3.9340 C   0  0  0  0  0  0  0  0  0  0  0  0
   -1.7300   -2.4390   -2.7690 C   0  0  2  0  0  0  0  0  0  0  0  0
   -0.9720   -3.4000   -1.8800 C   0  0  0  0  0  0  0  0  0  0  0  0
   -2.5310   -1.5030   -1.9590 C   0  0  2  0  0  0  0  0  0  0  0  0
   -1.6110   -1.0210   -0.8940 N   0  0  0  0  0  0  0  0  0  0  0  0
   -3.7370   -1.9690   -1.3120 C   0  0  0  0  0  0  0  0  0  0  0  0
   -3.7840   -1.9950   -0.0290 O   0  0  0  0  0  0  0  0  0  0  0  0
   -4.9090   -2.4100   -1.9050 O   0  0  0  0  0  0  0  0  0  0  0  0
   -2.9600   -5.1550   -4.0770 H   0  0  0  0  0  0  0  0  0  0  0  0
   -4.3470   -4.0580   -3.9510 H   0  0  0  0  0  0  0  0  0  0  0  0
   -3.2460   -4.4430   -2.4940 H   0  0  0  0  0  0  0  0  0  0  0  0
   -1.5220   -3.5940   -4.5280 H   0  0  0  0  0  0  0  0  0  0  0  0
   -2.8020   -2.4020   -4.6670 H   0  0  0  0  0  0  0  0  0  0  0  0
   -0.8710   -1.7700   -3.1830 H   0  0  0  0  0  0  0  0  0  0  0  0
   -0.1480   -2.8750   -1.3820 H   0  0  0  0  0  0  0  0  0  0  0  0
   -1.7080   -3.8320   -1.1740 H   0  0  0  0  0  0  0  0  0  0  0  0
   -0.5670   -4.2710   -2.4710 H   0  0  0  0  0  0  0  0  0  0  0  0
   -2.7890   -0.6160   -2.6130 H   0  0  0  0  0  0  0  0  0  0  0  0
   -1.2560   -1.6770   -0.1700 H   0  0  0  0  0  0  0  0  0  0  0  0
  1 10  1  0  0  0  0
  1  2  1  0  0  0  0
  2 11  1  1  0  0  0
  2  3  1  0  0  0  0
  3 13  1  0  0  0  0
  3  4  1  0  0  0  0
  4  8  1  0  0  0  0
  5  4  2  0  0  0  0
  6  7  2  0  0  0  0
  6  2  1  0  0  0  0
  8 14  1  0  0  0  0
  9  1  1  0  0  0  0
 12  3  1  0  0  0  0
 15  6  1  0  0  0  0
 16 25  1  1  0  0  0
 16 15  1  0  0  0  0
 17 16  1  0  0  0  0
 17 18  1  0  0  0  0
 18 29  1  0  0  0  0
 18 28  1  0  0  0  0
 19 18  1  0  0  0  0
 19 20  1  0  0  0  0
 20 21  1  0  0  0  0
 20 32  1  0  0  0  0
 21 34  1  0  0  0  0
 22 16  1  0  0  0  0
 23 22  2  0  0  0  0
 24 15  1  0  0  0  0
 26 17  1  0  0  0  0
 27 17  1  0  0  0  0
 30 19  1  0  0  0  0
 31 19  1  0  0  0  0
 33 20  1  0  0  0  0
 35 21  1  0  0  0  0
 36 47  1  0  0  0  0
 37 36  1  0  0  0  0
 37 38  1  0  0  0  0
 38 50  1  6  0  0  0
 38 40  1  0  0  0  0
 38 39  1  0  0  0  0
 39 51  1  0  0  0  0
 39 52  1  0  0  0  0
 40 54  1  6  0  0  0
 40 42  1  0  0  0  0
 40 41  1  0  0  0  0
 41 22  1  0  0  0  0
 41 55  1  0  0  0  0
 42 43  1  0  0  0  0
 44 42  2  0  0  0  0
 45 36  1  0  0  0  0
 46 36  1  0  0  0  0
 48 37  1  0  0  0  0
 49 37  1  0  0  0  0
 53 39  1  0  0  0  0
M  END
$$$$
