DKK.pdb
 OpenBabel07022418153D

 57 56  0  0  1  0  0  0  0  0999 V2000
   -0.8980    1.7640    4.7600 N   0  0  0  0  0  0  0  0  0  0  0  0
   -1.4370    0.7580    3.8100 C   0  0  1  0  0  0  0  0  0  0  0  0
   -2.7490    1.3770    3.3740 C   0  0  0  0  0  0  0  0  0  0  0  0
   -3.5210    0.6270    2.4030 C   0  0  0  0  0  0  0  0  0  0  0  0
   -3.0320    0.5060    1.2370 O   0  0  0  0  0  0  0  0  0  0  0  0
   -0.4670    0.5860    2.7060 C   0  0  0  0  0  0  0  0  0  0  0  0
    0.2610    1.5520    2.4290 O   0  0  0  0  0  0  0  0  0  0  0  0
   -4.7410    0.0450    2.6710 O   0  0  0  0  0  0  0  0  0  0  0  0
   -0.0420    2.1560    4.3190 H   0  0  0  0  0  0  0  0  0  0  0  0
   -0.5570    1.2740    5.6410 H   0  0  0  0  0  0  0  0  0  0  0  0
   -1.6220   -0.1460    4.3840 H   0  0  0  0  0  0  0  0  0  0  0  0
   -3.3530    1.4580    4.3220 H   0  0  0  0  0  0  0  0  0  0  0  0
   -2.5880    2.4300    3.0590 H   0  0  0  0  0  0  0  0  0  0  0  0
   -5.4220    0.0620    1.8990 H   0  0  0  0  0  0  0  0  0  0  0  0
   -0.3070   -0.6100    1.9450 N   0  0  0  0  0  0  0  0  0  0  0  0
    0.6090   -0.8160    0.8830 C   0  0  1  0  0  0  0  0  0  0  0  0
    1.7730   -1.7130    1.2480 C   0  0  0  0  0  0  0  0  0  0  0  0
    2.6520   -1.2630    2.3320 C   0  0  0  0  0  0  0  0  0  0  0  0
    3.3800    0.0160    2.1220 C   0  0  0  0  0  0  0  0  0  0  0  0
    4.2490    0.3730    3.3240 C   0  0  0  0  0  0  0  0  0  0  0  0
    3.4240    0.5130    4.5050 N   0  0  0  0  0  0  0  0  0  0  0  0
    0.0070   -1.4020   -0.3670 C   0  0  0  0  0  0  0  0  0  0  0  0
    0.7210   -1.5050   -1.4100 O   0  0  0  0  0  0  0  0  0  0  0  0
   -0.9440   -1.3990    2.2270 H   0  0  0  0  0  0  0  0  0  0  0  0
    1.0820    0.1350    0.5700 H   0  0  0  0  0  0  0  0  0  0  0  0
    2.3600   -1.8420    0.3120 H   0  0  0  0  0  0  0  0  0  0  0  0
    1.4310   -2.7600    1.5030 H   0  0  0  0  0  0  0  0  0  0  0  0
    2.1680   -1.2130    3.3380 H   0  0  0  0  0  0  0  0  0  0  0  0
    3.4500   -2.0540    2.4710 H   0  0  0  0  0  0  0  0  0  0  0  0
    4.1300   -0.1060    1.2770 H   0  0  0  0  0  0  0  0  0  0  0  0
    2.8140    0.8960    1.8650 H   0  0  0  0  0  0  0  0  0  0  0  0
    5.0280   -0.3730    3.5230 H   0  0  0  0  0  0  0  0  0  0  0  0
    4.7470    1.3560    3.1710 H   0  0  0  0  0  0  0  0  0  0  0  0
    3.3090    1.4920    4.8120 H   0  0  0  0  0  0  0  0  0  0  0  0
    3.5820   -0.1840    5.2350 H   0  0  0  0  0  0  0  0  0  0  0  0
   -1.3280   -1.8570   -0.4560 N   0  0  0  0  0  0  0  0  0  0  0  0
   -1.9990   -2.4040   -1.5950 C   0  0  1  0  0  0  0  0  0  0  0  0
   -1.3220   -2.1450   -2.9330 C   0  0  0  0  0  0  0  0  0  0  0  0
   -1.3000   -0.6740   -3.2130 C   0  0  0  0  0  0  0  0  0  0  0  0
   -0.6380   -0.2610   -4.4780 C   0  0  0  0  0  0  0  0  0  0  0  0
    0.7940   -0.5880   -4.6490 C   0  0  0  0  0  0  0  0  0  0  0  0
    1.1400   -1.9700   -4.6270 N   0  0  0  0  0  0  0  0  0  0  0  0
   -2.3680   -3.7940   -1.3930 C   0  0  0  0  0  0  0  0  0  0  0  0
   -2.9660   -4.3980   -2.3400 O   0  0  0  0  0  0  0  0  0  0  0  0
   -2.1350   -4.5560   -0.2550 O   0  0  0  0  0  0  0  0  0  0  0  0
   -1.8660   -1.7740    0.4690 H   0  0  0  0  0  0  0  0  0  0  0  0
   -2.9980   -1.8070   -1.7170 H   0  0  0  0  0  0  0  0  0  0  0  0
   -2.0100   -2.6090   -3.7030 H   0  0  0  0  0  0  0  0  0  0  0  0
   -0.3870   -2.6820   -3.0430 H   0  0  0  0  0  0  0  0  0  0  0  0
   -1.1020   -0.0080   -2.3780 H   0  0  0  0  0  0  0  0  0  0  0  0
   -2.4260   -0.4380   -3.4250 H   0  0  0  0  0  0  0  0  0  0  0  0
   -1.1870   -0.6140   -5.3800 H   0  0  0  0  0  0  0  0  0  0  0  0
   -0.7320    0.8640   -4.5240 H   0  0  0  0  0  0  0  0  0  0  0  0
    1.0880   -0.1980   -5.6710 H   0  0  0  0  0  0  0  0  0  0  0  0
    1.4680   -0.0250   -3.9610 H   0  0  0  0  0  0  0  0  0  0  0  0
    1.1310   -2.4270   -5.5500 H   0  0  0  0  0  0  0  0  0  0  0  0
    1.9740   -2.2070   -4.0490 H   0  0  0  0  0  0  0  0  0  0  0  0
  1 10  1  0  0  0  0
  2 11  1  1  0  0  0
  2  1  1  0  0  0  0
  3  2  1  0  0  0  0
  3 12  1  0  0  0  0
  4  8  1  0  0  0  0
  4  3  1  0  0  0  0
  5  4  2  0  0  0  0
  6  2  1  0  0  0  0
  7  6  2  0  0  0  0
  9  1  1  0  0  0  0
 13  3  1  0  0  0  0
 14  8  1  0  0  0  0
 15 24  1  0  0  0  0
 15  6  1  0  0  0  0
 16 25  1  6  0  0  0
 16 17  1  0  0  0  0
 16 15  1  0  0  0  0
 17 27  1  0  0  0  0
 17 18  1  0  0  0  0
 18 29  1  0  0  0  0
 18 28  1  0  0  0  0
 19 18  1  0  0  0  0
 19 20  1  0  0  0  0
 20 32  1  0  0  0  0
 20 21  1  0  0  0  0
 21 34  1  0  0  0  0
 21 35  1  0  0  0  0
 22 16  1  0  0  0  0
 23 22  2  0  0  0  0
 26 17  1  0  0  0  0
 30 19  1  0  0  0  0
 31 19  1  0  0  0  0
 33 20  1  0  0  0  0
 36 22  1  0  0  0  0
 36 46  1  0  0  0  0
 37 47  1  6  0  0  0
 37 43  1  0  0  0  0
 37 36  1  0  0  0  0
 38 37  1  0  0  0  0
 39 38  1  0  0  0  0
 39 50  1  0  0  0  0
 40 39  1  0  0  0  0
 41 42  1  0  0  0  0
 41 40  1  0  0  0  0
 41 55  1  0  0  0  0
 42 57  1  0  0  0  0
 43 45  1  0  0  0  0
 44 43  2  0  0  0  0
 48 38  1  0  0  0  0
 49 38  1  0  0  0  0
 51 39  1  0  0  0  0
 52 40  1  0  0  0  0
 53 40  1  0  0  0  0
 54 41  1  0  0  0  0
 56 42  1  0  0  0  0
M  END
$$$$
