DKN.pdb
 OpenBabel07022418143D

 50 49  0  0  1  0  0  0  0  0999 V2000
    1.1570   -2.1640    4.3100 N   0  0  0  0  0  0  0  0  0  0  0  0
    1.1260   -2.1630    2.8660 C   0  0  1  0  0  0  0  0  0  0  0  0
    0.1250   -3.2090    2.4430 C   0  0  0  0  0  0  0  0  0  0  0  0
   -1.2120   -2.8690    2.9990 C   0  0  0  0  0  0  0  0  0  0  0  0
   -1.3770   -1.8370    3.6930 O   0  0  0  0  0  0  0  0  0  0  0  0
    0.6690   -0.8360    2.3880 C   0  0  0  0  0  0  0  0  0  0  0  0
    0.3580    0.0880    3.2120 O   0  0  0  0  0  0  0  0  0  0  0  0
   -2.3220   -3.6760    2.7720 O   0  0  0  0  0  0  0  0  0  0  0  0
    1.0430   -1.2240    4.7260 H   0  0  0  0  0  0  0  0  0  0  0  0
    0.4760   -2.8090    4.7420 H   0  0  0  0  0  0  0  0  0  0  0  0
    2.1310   -2.4250    2.4730 H   0  0  0  0  0  0  0  0  0  0  0  0
    0.0130   -3.1230    1.3240 H   0  0  0  0  0  0  0  0  0  0  0  0
    0.4460   -4.2310    2.6870 H   0  0  0  0  0  0  0  0  0  0  0  0
   -2.9910   -3.8460    3.5300 H   0  0  0  0  0  0  0  0  0  0  0  0
    0.5460   -0.4930    1.0130 N   0  0  0  0  0  0  0  0  0  0  0  0
    0.1030    0.8060    0.5660 C   0  0  1  0  0  0  0  0  0  0  0  0
    1.1910    1.5260   -0.2140 C   0  0  0  0  0  0  0  0  0  0  0  0
    2.4200    1.7210    0.6570 C   0  0  0  0  0  0  0  0  0  0  0  0
    3.5200    2.4280   -0.0720 C   0  0  0  0  0  0  0  0  0  0  0  0
    4.6910    2.5700    0.8820 C   0  0  0  0  0  0  0  0  0  0  0  0
    4.3540    3.3240    2.0580 N   0  0  0  0  0  0  0  0  0  0  0  0
   -1.1220    0.6400   -0.2480 C   0  0  0  0  0  0  0  0  0  0  0  0
   -1.7220    1.6190   -0.7820 O   0  0  0  0  0  0  0  0  0  0  0  0
    0.7970   -1.2440    0.3330 H   0  0  0  0  0  0  0  0  0  0  0  0
   -0.1440    1.4820    1.4100 H   0  0  0  0  0  0  0  0  0  0  0  0
    1.4940    0.9390   -1.1020 H   0  0  0  0  0  0  0  0  0  0  0  0
    0.8330    2.5210   -0.5450 H   0  0  0  0  0  0  0  0  0  0  0  0
    2.7380    0.7890    1.1410 H   0  0  0  0  0  0  0  0  0  0  0  0
    2.0930    2.4010    1.4980 H   0  0  0  0  0  0  0  0  0  0  0  0
    3.1610    3.3910   -0.4340 H   0  0  0  0  0  0  0  0  0  0  0  0
    3.8650    1.7610   -0.8930 H   0  0  0  0  0  0  0  0  0  0  0  0
    5.0480    1.5820    1.1890 H   0  0  0  0  0  0  0  0  0  0  0  0
    5.5490    3.0980    0.3950 H   0  0  0  0  0  0  0  0  0  0  0  0
    4.5340    2.8180    2.9520 H   0  0  0  0  0  0  0  0  0  0  0  0
    3.4590    3.8240    2.0170 H   0  0  0  0  0  0  0  0  0  0  0  0
   -2.0570   -4.1260   -2.9850 N   0  0  0  0  0  0  0  0  0  0  0  0
   -2.2800   -3.1350   -1.9880 C   0  0  0  0  0  0  0  0  0  0  0  0
   -2.1160   -3.4450   -0.7840 O   0  0  0  0  0  0  0  0  0  0  0  0
   -2.6980   -1.7790   -2.4240 C   0  0  0  0  0  0  0  0  0  0  0  0
   -2.8830   -0.8410   -1.2650 C   0  0  2  0  0  0  0  0  0  0  0  0
   -1.6970   -0.6430   -0.4790 N   0  0  0  0  0  0  0  0  0  0  0  0
   -3.9470   -1.3880   -0.4050 C   0  0  0  0  0  0  0  0  0  0  0  0
   -5.0700   -1.6450   -0.8820 O   0  0  0  0  0  0  0  0  0  0  0  0
   -3.7020   -1.6150    0.9270 O   0  0  0  0  0  0  0  0  0  0  0  0
   -1.9940   -5.1290   -2.7390 H   0  0  0  0  0  0  0  0  0  0  0  0
   -1.9530   -3.8680   -3.9890 H   0  0  0  0  0  0  0  0  0  0  0  0
   -1.9620   -1.4280   -3.1620 H   0  0  0  0  0  0  0  0  0  0  0  0
   -3.6670   -1.8950   -2.9450 H   0  0  0  0  0  0  0  0  0  0  0  0
   -3.2390    0.1540   -1.6700 H   0  0  0  0  0  0  0  0  0  0  0  0
   -1.1980   -1.4440   -0.0340 H   0  0  0  0  0  0  0  0  0  0  0  0
  1  9  1  0  0  0  0
  1 10  1  0  0  0  0
  2 11  1  6  0  0  0
  2  1  1  0  0  0  0
  3 13  1  0  0  0  0
  3  2  1  0  0  0  0
  3  4  1  0  0  0  0
  4  5  2  0  0  0  0
  6  2  1  0  0  0  0
  6  7  2  0  0  0  0
  8  4  1  0  0  0  0
  8 14  1  0  0  0  0
 12  3  1  0  0  0  0
 15  6  1  0  0  0  0
 16 15  1  0  0  0  0
 16 25  1  1  0  0  0
 17 16  1  0  0  0  0
 17 18  1  0  0  0  0
 18 28  1  0  0  0  0
 18 29  1  0  0  0  0
 19 18  1  0  0  0  0
 19 20  1  0  0  0  0
 20 32  1  0  0  0  0
 20 21  1  0  0  0  0
 21 34  1  0  0  0  0
 22 16  1  0  0  0  0
 23 22  2  0  0  0  0
 24 15  1  0  0  0  0
 26 17  1  0  0  0  0
 27 17  1  0  0  0  0
 30 19  1  0  0  0  0
 31 19  1  0  0  0  0
 33 20  1  0  0  0  0
 35 21  1  0  0  0  0
 36 45  1  0  0  0  0
 36 37  1  0  0  0  0
 37 38  2  0  0  0  0
 39 37  1  0  0  0  0
 39 40  1  0  0  0  0
 40 49  1  6  0  0  0
 40 41  1  0  0  0  0
 40 42  1  0  0  0  0
 41 22  1  0  0  0  0
 41 50  1  0  0  0  0
 42 44  1  0  0  0  0
 43 42  2  0  0  0  0
 46 36  1  0  0  0  0
 47 39  1  0  0  0  0
 48 39  1  0  0  0  0
M  END
$$$$
