DKR.pdb
 OpenBabel07022418143D

 59 58  0  0  1  0  0  0  0  0999 V2000
   -2.1580    2.3210    2.8310 N   0  0  0  0  0  0  0  0  0  0  0  0
   -1.1890    1.4090    3.4860 C   0  0  1  0  0  0  0  0  0  0  0  0
   -1.9960    0.3560    4.1560 C   0  0  0  0  0  0  0  0  0  0  0  0
   -1.1810   -0.6110    4.8810 C   0  0  0  0  0  0  0  0  0  0  0  0
   -1.7230   -1.6870    5.2960 O   0  0  0  0  0  0  0  0  0  0  0  0
   -0.2850    0.8600    2.4150 C   0  0  0  0  0  0  0  0  0  0  0  0
    0.6190    0.0940    2.7290 O   0  0  0  0  0  0  0  0  0  0  0  0
    0.1530   -0.4610    5.1680 O   0  0  0  0  0  0  0  0  0  0  0  0
   -2.7020    2.7440    3.6140 H   0  0  0  0  0  0  0  0  0  0  0  0
   -2.7780    1.7310    2.2340 H   0  0  0  0  0  0  0  0  0  0  0  0
   -0.5980    1.9610    4.2300 H   0  0  0  0  0  0  0  0  0  0  0  0
   -2.6200   -0.1330    3.3670 H   0  0  0  0  0  0  0  0  0  0  0  0
   -2.6930    0.8960    4.8630 H   0  0  0  0  0  0  0  0  0  0  0  0
    0.5160   -0.6960    6.0940 H   0  0  0  0  0  0  0  0  0  0  0  0
   -0.4810    1.2280    1.0650 N   0  0  0  0  0  0  0  0  0  0  0  0
    0.3270    0.7440    0.0090 C   0  0  1  0  0  0  0  0  0  0  0  0
    1.7000    1.2540   -0.1330 C   0  0  0  0  0  0  0  0  0  0  0  0
    1.8230    2.7190   -0.3490 C   0  0  0  0  0  0  0  0  0  0  0  0
    1.3390    3.6210    0.7160 C   0  0  0  0  0  0  0  0  0  0  0  0
    2.0880    3.4320    2.0350 C   0  0  0  0  0  0  0  0  0  0  0  0
    1.5050    4.3650    2.9810 N   0  0  0  0  0  0  0  0  0  0  0  0
    0.2620   -0.7680    0.0630 C   0  0  0  0  0  0  0  0  0  0  0  0
   -0.4450   -1.3710    0.9080 O   0  0  0  0  0  0  0  0  0  0  0  0
   -1.2680    1.8780    0.8650 H   0  0  0  0  0  0  0  0  0  0  0  0
   -0.1860    0.9720   -0.9970 H   0  0  0  0  0  0  0  0  0  0  0  0
    2.3810    0.9930    0.7080 H   0  0  0  0  0  0  0  0  0  0  0  0
    2.1600    0.7510   -1.0290 H   0  0  0  0  0  0  0  0  0  0  0  0
    1.3540    3.0380   -1.3220 H   0  0  0  0  0  0  0  0  0  0  0  0
    2.9190    2.9660   -0.5050 H   0  0  0  0  0  0  0  0  0  0  0  0
    1.5740    4.6780    0.3680 H   0  0  0  0  0  0  0  0  0  0  0  0
    0.2810    3.6390    0.9420 H   0  0  0  0  0  0  0  0  0  0  0  0
    3.1340    3.8210    1.8500 H   0  0  0  0  0  0  0  0  0  0  0  0
    2.1140    2.3980    2.3620 H   0  0  0  0  0  0  0  0  0  0  0  0
    0.5390    4.6720    2.6570 H   0  0  0  0  0  0  0  0  0  0  0  0
    1.4390    3.9900    3.9330 H   0  0  0  0  0  0  0  0  0  0  0  0
   -2.0870   -6.9460   -3.0090 N   0  0  0  0  0  0  0  0  0  0  0  0
   -2.3290   -5.5460   -2.9670 C   0  0  0  0  0  0  0  0  0  0  0  0
   -2.8290   -4.8800   -3.9570 N   0  0  0  0  0  0  0  0  0  0  0  0
   -1.9950   -4.8680   -1.7680 N   0  0  0  0  0  0  0  0  0  0  0  0
   -1.9390   -3.4170   -1.7960 C   0  0  0  0  0  0  0  0  0  0  0  0
   -0.7740   -3.0260   -2.6450 C   0  0  0  0  0  0  0  0  0  0  0  0
    0.5460   -3.5210   -2.1640 C   0  0  0  0  0  0  0  0  0  0  0  0
    0.9410   -3.0420   -0.7950 C   0  0  2  0  0  0  0  0  0  0  0  0
    0.9990   -1.5830   -0.8390 N   0  0  0  0  0  0  0  0  0  0  0  0
    2.2750   -3.6140   -0.4710 C   0  0  0  0  0  0  0  0  0  0  0  0
    3.2950   -2.9080   -0.2680 O   0  0  0  0  0  0  0  0  0  0  0  0
    2.3930   -4.9790   -0.3900 O   0  0  0  0  0  0  0  0  0  0  0  0
   -2.6380   -7.5670   -2.3900 H   0  0  0  0  0  0  0  0  0  0  0  0
   -1.3650   -7.3340   -3.6540 H   0  0  0  0  0  0  0  0  0  0  0  0
   -3.0920   -5.3110   -4.8560 H   0  0  0  0  0  0  0  0  0  0  0  0
   -1.7900   -5.3610   -0.8780 H   0  0  0  0  0  0  0  0  0  0  0  0
   -1.8730   -3.0030   -0.7700 H   0  0  0  0  0  0  0  0  0  0  0  0
   -2.8530   -2.9670   -2.2700 H   0  0  0  0  0  0  0  0  0  0  0  0
   -0.9360   -3.4510   -3.6630 H   0  0  0  0  0  0  0  0  0  0  0  0
   -0.8110   -1.9250   -2.7710 H   0  0  0  0  0  0  0  0  0  0  0  0
    0.4710   -4.6410   -2.1000 H   0  0  0  0  0  0  0  0  0  0  0  0
    1.3080   -3.2830   -2.9350 H   0  0  0  0  0  0  0  0  0  0  0  0
    0.2400   -3.4250   -0.0610 H   0  0  0  0  0  0  0  0  0  0  0  0
    1.5890   -1.0950   -1.5460 H   0  0  0  0  0  0  0  0  0  0  0  0
  1  2  1  0  0  0  0
  1  9  1  0  0  0  0
  2  3  1  0  0  0  0
  2 11  1  1  0  0  0
  3 13  1  0  0  0  0
  3  4  1  0  0  0  0
  4  8  1  0  0  0  0
  4  5  2  0  0  0  0
  6  7  2  0  0  0  0
  6  2  1  0  0  0  0
  8 14  1  0  0  0  0
 10  1  1  0  0  0  0
 12  3  1  0  0  0  0
 15  6  1  0  0  0  0
 16 25  1  6  0  0  0
 16 22  1  0  0  0  0
 16 15  1  0  0  0  0
 17 16  1  0  0  0  0
 17 26  1  0  0  0  0
 18 17  1  0  0  0  0
 18 19  1  0  0  0  0
 19 31  1  0  0  0  0
 19 20  1  0  0  0  0
 20 33  1  0  0  0  0
 20 21  1  0  0  0  0
 21 35  1  0  0  0  0
 22 23  2  0  0  0  0
 24 15  1  0  0  0  0
 27 17  1  0  0  0  0
 28 18  1  0  0  0  0
 29 18  1  0  0  0  0
 30 19  1  0  0  0  0
 32 20  1  0  0  0  0
 34 21  1  0  0  0  0
 36 37  1  0  0  0  0
 36 48  1  0  0  0  0
 37 39  1  0  0  0  0
 38 37  2  0  0  0  0
 39 51  1  0  0  0  0
 40 39  1  0  0  0  0
 40 52  1  0  0  0  0
 41 42  1  0  0  0  0
 41 40  1  0  0  0  0
 42 56  1  0  0  0  0
 42 43  1  0  0  0  0
 43 45  1  0  0  0  0
 43 58  1  1  0  0  0
 44 43  1  0  0  0  0
 44 22  1  0  0  0  0
 45 47  2  0  0  0  0
 45 46  1  0  0  0  0
 49 36  1  0  0  0  0
 50 38  1  0  0  0  0
 53 40  1  0  0  0  0
 54 41  1  0  0  0  0
 55 41  1  0  0  0  0
 57 42  1  0  0  0  0
 59 44  1  0  0  0  0
M  END
$$$$
