DKY.pdb
 OpenBabel07022418153D

 57 57  0  0  1  0  0  0  0  0999 V2000
    4.0730   -1.4650    3.3810 N   0  0  0  0  0  0  0  0  0  0  0  0
    3.2230   -1.6530    2.2490 C   0  0  1  0  0  0  0  0  0  0  0  0
    2.3770   -2.9180    2.3560 C   0  0  0  0  0  0  0  0  0  0  0  0
    1.5090   -2.8990    3.5410 C   0  0  0  0  0  0  0  0  0  0  0  0
    0.7100   -3.8500    3.7660 O   0  0  0  0  0  0  0  0  0  0  0  0
    2.3980   -0.4420    1.9950 C   0  0  0  0  0  0  0  0  0  0  0  0
    2.4560    0.5230    2.8020 O   0  0  0  0  0  0  0  0  0  0  0  0
    1.5370   -1.8460    4.4640 O   0  0  0  0  0  0  0  0  0  0  0  0
    4.3310   -2.3540    3.8850 H   0  0  0  0  0  0  0  0  0  0  0  0
    4.9320   -0.8920    3.1700 H   0  0  0  0  0  0  0  0  0  0  0  0
    3.8680   -1.8370    1.3640 H   0  0  0  0  0  0  0  0  0  0  0  0
    3.0670   -3.7850    2.3240 H   0  0  0  0  0  0  0  0  0  0  0  0
    1.7340   -2.9510    1.4200 H   0  0  0  0  0  0  0  0  0  0  0  0
    1.3000   -2.0320    5.4220 H   0  0  0  0  0  0  0  0  0  0  0  0
    1.5620   -0.3440    0.8740 N   0  0  0  0  0  0  0  0  0  0  0  0
    0.7350    0.8620    0.5870 C   0  0  1  0  0  0  0  0  0  0  0  0
    1.3810    1.6730   -0.4370 C   0  0  0  0  0  0  0  0  0  0  0  0
    0.8980    2.9440   -0.9750 C   0  0  0  0  0  0  0  0  0  0  0  0
   -0.2890    3.1160   -1.8010 C   0  0  0  0  0  0  0  0  0  0  0  0
   -0.3680    4.6620   -2.0660 C   0  0  0  0  0  0  0  0  0  0  0  0
   -1.5080    4.9270   -2.8960 N   0  0  0  0  0  0  0  0  0  0  0  0
   -0.6710    0.4970    0.5900 C   0  0  0  0  0  0  0  0  0  0  0  0
   -1.6450    1.1940    0.2190 O   0  0  0  0  0  0  0  0  0  0  0  0
    1.5070   -1.1440    0.2100 H   0  0  0  0  0  0  0  0  0  0  0  0
    0.8730    1.4670    1.5630 H   0  0  0  0  0  0  0  0  0  0  0  0
    2.4270    1.9380    0.0020 H   0  0  0  0  0  0  0  0  0  0  0  0
    1.7300    0.9970   -1.3210 H   0  0  0  0  0  0  0  0  0  0  0  0
    0.9240    3.7040   -0.1110 H   0  0  0  0  0  0  0  0  0  0  0  0
    1.7810    3.3590   -1.6050 H   0  0  0  0  0  0  0  0  0  0  0  0
   -1.2630    2.8060   -1.5450 H   0  0  0  0  0  0  0  0  0  0  0  0
   -0.1270    2.7450   -2.8730 H   0  0  0  0  0  0  0  0  0  0  0  0
    0.5940    4.8950   -2.5480 H   0  0  0  0  0  0  0  0  0  0  0  0
   -0.4390    5.0840   -1.0540 H   0  0  0  0  0  0  0  0  0  0  0  0
   -2.3250    5.3230   -2.3780 H   0  0  0  0  0  0  0  0  0  0  0  0
   -1.8110    4.0640   -3.3700 H   0  0  0  0  0  0  0  0  0  0  0  0
   -0.3170   -5.6960   -3.1430 O   0  0  0  0  0  0  0  0  0  0  0  0
   -0.8850   -4.9500   -2.1080 C   0  0  0  0  0  0  0  0  0  0  0  0
   -2.1150   -4.3460   -2.3060 C   0  0  0  0  0  0  0  0  0  0  0  0
   -2.7220   -3.5920   -1.3010 C   0  0  0  0  0  0  0  0  0  0  0  0
   -2.1260   -3.4170   -0.0770 C   0  0  0  0  0  0  0  0  0  0  0  0
   -2.7300   -2.6560    1.0490 C   0  0  0  0  0  0  0  0  0  0  0  0
   -2.4740   -1.1990    1.0380 C   0  0  2  0  0  0  0  0  0  0  0  0
   -1.0900   -0.8260    1.0630 N   0  0  0  0  0  0  0  0  0  0  0  0
   -3.2170   -0.5470    2.1920 C   0  0  0  0  0  0  0  0  0  0  0  0
   -4.4310   -0.7040    2.3700 O   0  0  0  0  0  0  0  0  0  0  0  0
   -0.8890   -4.0280    0.1080 C   0  0  0  0  0  0  0  0  0  0  0  0
   -0.2720   -4.7800   -0.8880 C   0  0  0  0  0  0  0  0  0  0  0  0
   -2.5070    0.2660    3.0950 O   0  0  0  0  0  0  0  0  0  0  0  0
    0.5380   -6.2140   -2.9130 H   0  0  0  0  0  0  0  0  0  0  0  0
   -2.5980   -4.4750   -3.2540 H   0  0  0  0  0  0  0  0  0  0  0  0
   -3.6900   -3.1210   -1.4520 H   0  0  0  0  0  0  0  0  0  0  0  0
   -3.8420   -2.8170    0.9800 H   0  0  0  0  0  0  0  0  0  0  0  0
   -2.4240   -3.1740    1.9810 H   0  0  0  0  0  0  0  0  0  0  0  0
   -2.9630   -0.7230    0.1530 H   0  0  0  0  0  0  0  0  0  0  0  0
   -0.3240   -1.4540    1.4040 H   0  0  0  0  0  0  0  0  0  0  0  0
   -0.4300   -3.8820    1.0790 H   0  0  0  0  0  0  0  0  0  0  0  0
    0.6920   -5.2490   -0.7090 H   0  0  0  0  0  0  0  0  0  0  0  0
  1  9  1  0  0  0  0
  2 11  1  6  0  0  0
  2  3  1  0  0  0  0
  2  1  1  0  0  0  0
  3  4  1  0  0  0  0
  4  5  2  0  0  0  0
  4  8  1  0  0  0  0
  6  2  1  0  0  0  0
  6  7  2  0  0  0  0
  8 14  1  0  0  0  0
 10  1  1  0  0  0  0
 12  3  1  0  0  0  0
 13  3  1  0  0  0  0
 15  6  1  0  0  0  0
 16 22  1  0  0  0  0
 16 15  1  0  0  0  0
 16 25  1  1  0  0  0
 17 26  1  0  0  0  0
 17 16  1  0  0  0  0
 18 17  1  0  0  0  0
 18 28  1  0  0  0  0
 19 30  1  0  0  0  0
 19 18  1  0  0  0  0
 20 19  1  0  0  0  0
 20 33  1  0  0  0  0
 21 34  1  0  0  0  0
 21 20  1  0  0  0  0
 22 43  1  0  0  0  0
 23 22  2  0  0  0  0
 24 15  1  0  0  0  0
 27 17  1  0  0  0  0
 29 18  1  0  0  0  0
 31 19  1  0  0  0  0
 32 20  1  0  0  0  0
 35 21  1  0  0  0  0
 36 49  1  0  0  0  0
 36 37  1  0  0  0  0
 37 47  1  0  0  0  0
 38 37  2  0  0  0  0
 38 39  1  0  0  0  0
 39 40  2  0  0  0  0
 40 46  1  0  0  0  0
 40 41  1  0  0  0  0
 41 53  1  0  0  0  0
 42 54  1  6  0  0  0
 42 41  1  0  0  0  0
 42 43  1  0  0  0  0
 42 44  1  0  0  0  0
 43 55  1  0  0  0  0
 44 45  2  0  0  0  0
 44 48  1  0  0  0  0
 46 56  1  0  0  0  0
 47 57  1  0  0  0  0
 47 46  2  0  0  0  0
 50 38  1  0  0  0  0
 51 39  1  0  0  0  0
 52 41  1  0  0  0  0
M  END
$$$$
