DLA.pdb
 OpenBabel07022418143D

 44 43  0  0  1  0  0  0  0  0999 V2000
    2.8500   -1.7820    4.6640 N   0  0  0  0  0  0  0  0  0  0  0  0
    2.8140   -2.0270    3.2390 C   0  0  1  0  0  0  0  0  0  0  0  0
    2.2060   -3.3960    3.0250 C   0  0  0  0  0  0  0  0  0  0  0  0
    3.0540   -4.3930    3.7100 C   0  0  0  0  0  0  0  0  0  0  0  0
    4.0740   -4.0230    4.3250 O   0  0  0  0  0  0  0  0  0  0  0  0
    1.9260   -1.0150    2.6170 C   0  0  0  0  0  0  0  0  0  0  0  0
    1.3860   -0.1670    3.3680 O   0  0  0  0  0  0  0  0  0  0  0  0
    2.7080   -5.7260    3.6620 O   0  0  0  0  0  0  0  0  0  0  0  0
    2.2720   -0.9500    4.9230 H   0  0  0  0  0  0  0  0  0  0  0  0
    2.4600   -2.5820    5.2100 H   0  0  0  0  0  0  0  0  0  0  0  0
    3.8490   -1.9680    2.8670 H   0  0  0  0  0  0  0  0  0  0  0  0
    1.1670   -3.4410    3.4140 H   0  0  0  0  0  0  0  0  0  0  0  0
    2.1780   -3.5670    1.9200 H   0  0  0  0  0  0  0  0  0  0  0  0
    3.3800   -6.4790    3.8600 H   0  0  0  0  0  0  0  0  0  0  0  0
    0.1220    1.8150   -1.9790 C   0  0  0  0  0  0  0  0  0  0  0  0
    1.1160    2.1110   -0.8840 C   0  0  0  0  0  0  0  0  0  0  0  0
    0.6540    3.2820   -0.0330 C   0  0  0  0  0  0  0  0  0  0  0  0
    1.5980    0.9640   -0.1410 C   0  0  0  0  0  0  0  0  0  0  0  0
    0.7630    0.0800    0.6740 C   0  0  2  0  0  0  0  0  0  0  0  0
    1.6630   -0.9610    1.2320 N   0  0  0  0  0  0  0  0  0  0  0  0
   -0.4310   -0.5510    0.1330 C   0  0  0  0  0  0  0  0  0  0  0  0
   -0.4000   -1.8160   -0.0770 O   0  0  0  0  0  0  0  0  0  0  0  0
   -0.8580    2.2840   -1.8010 H   0  0  0  0  0  0  0  0  0  0  0  0
    0.1060    0.7240   -2.1560 H   0  0  0  0  0  0  0  0  0  0  0  0
    0.4670    2.2970   -2.9500 H   0  0  0  0  0  0  0  0  0  0  0  0
    2.0220    2.5500   -1.4240 H   0  0  0  0  0  0  0  0  0  0  0  0
    0.0060    3.9120   -0.6840 H   0  0  0  0  0  0  0  0  0  0  0  0
    0.0750    2.9910    0.8370 H   0  0  0  0  0  0  0  0  0  0  0  0
    1.5070    3.9110    0.2990 H   0  0  0  0  0  0  0  0  0  0  0  0
    2.2690    0.3800   -0.8670 H   0  0  0  0  0  0  0  0  0  0  0  0
    2.4050    1.3530    0.5810 H   0  0  0  0  0  0  0  0  0  0  0  0
    0.4460    0.6760    1.5820 H   0  0  0  0  0  0  0  0  0  0  0  0
    2.1150   -1.6660    0.6270 H   0  0  0  0  0  0  0  0  0  0  0  0
   -3.9100   -0.5740    0.3190 C   0  0  0  0  0  0  0  0  0  0  0  0
   -2.7960   -0.6830   -0.7250 C   0  0  2  0  0  0  0  0  0  0  0  0
   -1.6670    0.0430   -0.1970 N   0  0  0  0  0  0  0  0  0  0  0  0
   -3.3330   -0.1930   -1.9910 C   0  0  0  0  0  0  0  0  0  0  0  0
   -2.9270    0.7690   -2.6560 O   0  0  0  0  0  0  0  0  0  0  0  0
   -4.4420   -0.8800   -2.5370 O   0  0  0  0  0  0  0  0  0  0  0  0
   -3.5220   -0.7190    1.3470 H   0  0  0  0  0  0  0  0  0  0  0  0
   -4.3620    0.4420    0.2970 H   0  0  0  0  0  0  0  0  0  0  0  0
   -4.7180   -1.2950    0.1210 H   0  0  0  0  0  0  0  0  0  0  0  0
   -2.5950   -1.7670   -0.8390 H   0  0  0  0  0  0  0  0  0  0  0  0
   -1.7840    1.0580   -0.0330 H   0  0  0  0  0  0  0  0  0  0  0  0
  1  9  1  0  0  0  0
  1 10  1  0  0  0  0
  2 11  1  6  0  0  0
  2  1  1  0  0  0  0
  3  2  1  0  0  0  0
  3 12  1  0  0  0  0
  3  4  1  0  0  0  0
  4  5  2  0  0  0  0
  6  2  1  0  0  0  0
  6  7  2  0  0  0  0
  8  4  1  0  0  0  0
  8 14  1  0  0  0  0
 13  3  1  0  0  0  0
 15 23  1  0  0  0  0
 15 16  1  0  0  0  0
 16 18  1  0  0  0  0
 16 17  1  0  0  0  0
 17 29  1  0  0  0  0
 17 28  1  0  0  0  0
 18 31  1  0  0  0  0
 18 19  1  0  0  0  0
 19 20  1  0  0  0  0
 19 32  1  1  0  0  0
 20  6  1  0  0  0  0
 21 19  1  0  0  0  0
 22 21  2  0  0  0  0
 24 15  1  0  0  0  0
 25 15  1  0  0  0  0
 26 16  1  0  0  0  0
 27 17  1  0  0  0  0
 30 18  1  0  0  0  0
 33 20  1  0  0  0  0
 34 40  1  0  0  0  0
 35 43  1  6  0  0  0
 35 36  1  0  0  0  0
 35 34  1  0  0  0  0
 36 44  1  0  0  0  0
 36 21  1  0  0  0  0
 37 35  1  0  0  0  0
 38 37  2  0  0  0  0
 39 37  1  0  0  0  0
 41 34  1  0  0  0  0
 42 34  1  0  0  0  0
M  END
$$$$
