DLC.pdb
 OpenBabel07022418143D

 45 44  0  0  1  0  0  0  0  0999 V2000
    0.9860   -3.5860    2.3570 N   0  0  0  0  0  0  0  0  0  0  0  0
    1.5100   -2.2600    2.5520 C   0  0  1  0  0  0  0  0  0  0  0  0
    3.0160   -2.3250    2.4130 C   0  0  0  0  0  0  0  0  0  0  0  0
    3.5330   -3.2450    3.4350 C   0  0  0  0  0  0  0  0  0  0  0  0
    4.7650   -3.4430    3.4930 O   0  0  0  0  0  0  0  0  0  0  0  0
    0.9120   -1.3370    1.5460 C   0  0  0  0  0  0  0  0  0  0  0  0
    0.1030   -1.7760    0.7270 O   0  0  0  0  0  0  0  0  0  0  0  0
    2.7090   -3.9050    4.3400 O   0  0  0  0  0  0  0  0  0  0  0  0
    0.3870   -3.9050    3.1640 H   0  0  0  0  0  0  0  0  0  0  0  0
    1.7110   -4.2890    2.1450 H   0  0  0  0  0  0  0  0  0  0  0  0
    1.2230   -1.8870    3.5500 H   0  0  0  0  0  0  0  0  0  0  0  0
    3.4780   -1.3200    2.4810 H   0  0  0  0  0  0  0  0  0  0  0  0
    3.2940   -2.7250    1.4170 H   0  0  0  0  0  0  0  0  0  0  0  0
    3.1130   -4.3040    5.1940 H   0  0  0  0  0  0  0  0  0  0  0  0
    0.4770   -0.4270   -2.1960 C   0  0  0  0  0  0  0  0  0  0  0  0
    1.6970    0.1790   -1.5910 C   0  0  0  0  0  0  0  0  0  0  0  0
    2.4940    0.7670   -2.7750 C   0  0  0  0  0  0  0  0  0  0  0  0
    1.5220    1.2710   -0.6280 C   0  0  0  0  0  0  0  0  0  0  0  0
    0.7640    1.0330    0.6260 C   0  0  2  0  0  0  0  0  0  0  0  0
    1.2480    0.0410    1.5030 N   0  0  0  0  0  0  0  0  0  0  0  0
   -0.6910    1.1950    0.4770 C   0  0  0  0  0  0  0  0  0  0  0  0
   -1.0780    1.9770   -0.4290 O   0  0  0  0  0  0  0  0  0  0  0  0
   -0.4170   -0.3960   -1.5460 H   0  0  0  0  0  0  0  0  0  0  0  0
    0.6390   -1.5350   -2.3670 H   0  0  0  0  0  0  0  0  0  0  0  0
    0.2600   -0.0480   -3.2210 H   0  0  0  0  0  0  0  0  0  0  0  0
    2.3520   -0.6520   -1.2460 H   0  0  0  0  0  0  0  0  0  0  0  0
    2.0540    1.7100   -3.1190 H   0  0  0  0  0  0  0  0  0  0  0  0
    3.5360    0.8910   -2.3880 H   0  0  0  0  0  0  0  0  0  0  0  0
    2.5570    0.0220   -3.5950 H   0  0  0  0  0  0  0  0  0  0  0  0
    1.0250    2.1290   -1.1730 H   0  0  0  0  0  0  0  0  0  0  0  0
    2.5320    1.7010   -0.3730 H   0  0  0  0  0  0  0  0  0  0  0  0
    0.9850    2.0260    1.2230 H   0  0  0  0  0  0  0  0  0  0  0  0
    1.9700    0.3120    2.2480 H   0  0  0  0  0  0  0  0  0  0  0  0
   -1.6750    0.5560    1.2600 N   0  0  0  0  0  0  0  0  0  0  0  0
   -3.0830    0.8240    0.9770 C   0  0  1  0  0  0  0  0  0  0  0  0
   -3.8650   -0.4110    0.6510 C   0  0  0  0  0  0  0  0  0  0  0  0
   -3.1910   -1.2450   -0.8100 S   0  0  0  0  0  0  0  0  0  0  0  0
   -3.6610    1.5610    2.1370 C   0  0  0  0  0  0  0  0  0  0  0  0
   -2.9510    1.8460    3.1340 O   0  0  0  0  0  0  0  0  0  0  0  0
   -4.9890    1.9410    2.1300 O   0  0  0  0  0  0  0  0  0  0  0  0
   -1.4200   -0.0910    2.0500 H   0  0  0  0  0  0  0  0  0  0  0  0
   -3.1740    1.5130    0.1170 H   0  0  0  0  0  0  0  0  0  0  0  0
   -3.8560   -1.0740    1.5420 H   0  0  0  0  0  0  0  0  0  0  0  0
   -4.8900   -0.0820    0.3840 H   0  0  0  0  0  0  0  0  0  0  0  0
   -3.6160   -2.5740   -0.9000 H   0  0  0  0  0  0  0  0  0  0  0  0
  1  2  1  0  0  0  0
  1  9  1  0  0  0  0
  2 11  1  1  0  0  0
  3 12  1  0  0  0  0
  3  2  1  0  0  0  0
  3  4  1  0  0  0  0
  4  5  2  0  0  0  0
  4  8  1  0  0  0  0
  6  2  1  0  0  0  0
  7  6  2  0  0  0  0
  8 14  1  0  0  0  0
 10  1  1  0  0  0  0
 13  3  1  0  0  0  0
 15 16  1  0  0  0  0
 15 23  1  0  0  0  0
 16 26  1  0  0  0  0
 16 18  1  0  0  0  0
 17 28  1  0  0  0  0
 17 16  1  0  0  0  0
 18 31  1  0  0  0  0
 18 19  1  0  0  0  0
 19 32  1  1  0  0  0
 19 20  1  0  0  0  0
 20  6  1  0  0  0  0
 20 33  1  0  0  0  0
 21 19  1  0  0  0  0
 21 34  1  0  0  0  0
 22 21  2  0  0  0  0
 24 15  1  0  0  0  0
 25 15  1  0  0  0  0
 27 17  1  0  0  0  0
 29 17  1  0  0  0  0
 30 18  1  0  0  0  0
 34 41  1  0  0  0  0
 35 42  1  6  0  0  0
 35 34  1  0  0  0  0
 35 38  1  0  0  0  0
 36 35  1  0  0  0  0
 36 43  1  0  0  0  0
 37 36  1  0  0  0  0
 38 39  1  0  0  0  0
 40 38  2  0  0  0  0
 44 36  1  0  0  0  0
 45 37  1  0  0  0  0
M  END
$$$$
