DLF.pdb
 OpenBabel07022418143D

 54 54  0  0  1  0  0  0  0  0999 V2000
   -1.1840   -0.1840    4.7510 N   0  0  0  0  0  0  0  0  0  0  0  0
    0.0510    0.4860    4.2650 C   0  0  1  0  0  0  0  0  0  0  0  0
    1.2450   -0.3100    4.6130 C   0  0  0  0  0  0  0  0  0  0  0  0
    2.5000    0.3950    4.1990 C   0  0  0  0  0  0  0  0  0  0  0  0
    3.5900   -0.2570    4.1870 O   0  0  0  0  0  0  0  0  0  0  0  0
   -0.1990    0.5810    2.7970 C   0  0  0  0  0  0  0  0  0  0  0  0
   -1.3980    0.9850    2.5150 O   0  0  0  0  0  0  0  0  0  0  0  0
    2.4710    1.7310    3.8400 O   0  0  0  0  0  0  0  0  0  0  0  0
   -1.2930   -1.0260    4.1350 H   0  0  0  0  0  0  0  0  0  0  0  0
   -1.0950   -0.4290    5.7510 H   0  0  0  0  0  0  0  0  0  0  0  0
    0.0550    1.5070    4.7220 H   0  0  0  0  0  0  0  0  0  0  0  0
    1.1770   -1.2740    4.0280 H   0  0  0  0  0  0  0  0  0  0  0  0
    1.2430   -0.5630    5.6860 H   0  0  0  0  0  0  0  0  0  0  0  0
    3.3160    2.3120    3.9510 H   0  0  0  0  0  0  0  0  0  0  0  0
    2.8460   -0.3310   -1.3190 C   0  0  0  0  0  0  0  0  0  0  0  0
    2.5600    1.0020   -0.6710 C   0  0  0  0  0  0  0  0  0  0  0  0
    3.4980    1.1630    0.4750 C   0  0  0  0  0  0  0  0  0  0  0  0
    1.1410    1.2870   -0.4370 C   0  0  0  0  0  0  0  0  0  0  0  0
    0.3120    0.4300    0.4080 C   0  0  2  0  0  0  0  0  0  0  0  0
    0.7180    0.2780    1.7880 N   0  0  0  0  0  0  0  0  0  0  0  0
    0.0030   -0.9120   -0.1430 C   0  0  0  0  0  0  0  0  0  0  0  0
    0.0930   -1.9130    0.5800 O   0  0  0  0  0  0  0  0  0  0  0  0
    3.9530   -0.5400   -1.2250 H   0  0  0  0  0  0  0  0  0  0  0  0
    2.6420   -0.3050   -2.3990 H   0  0  0  0  0  0  0  0  0  0  0  0
    2.3570   -1.1670   -0.7800 H   0  0  0  0  0  0  0  0  0  0  0  0
    2.8850    1.7650   -1.4500 H   0  0  0  0  0  0  0  0  0  0  0  0
    3.2080    1.9250    1.2000 H   0  0  0  0  0  0  0  0  0  0  0  0
    4.4930    1.5040    0.0600 H   0  0  0  0  0  0  0  0  0  0  0  0
    3.7740    0.1730    0.9460 H   0  0  0  0  0  0  0  0  0  0  0  0
    1.0600    2.3400   -0.0560 H   0  0  0  0  0  0  0  0  0  0  0  0
    0.6410    1.3400   -1.4460 H   0  0  0  0  0  0  0  0  0  0  0  0
   -0.7010    0.9420    0.4490 H   0  0  0  0  0  0  0  0  0  0  0  0
    1.6630   -0.0670    2.0470 H   0  0  0  0  0  0  0  0  0  0  0  0
   -0.4090   -1.1430   -1.5030 N   0  0  0  0  0  0  0  0  0  0  0  0
   -0.7010   -2.5060   -1.9500 C   0  0  1  0  0  0  0  0  0  0  0  0
   -2.1370   -2.5740   -2.4340 C   0  0  0  0  0  0  0  0  0  0  0  0
   -3.0400   -2.1910   -1.3300 C   0  0  0  0  0  0  0  0  0  0  0  0
   -3.3940   -0.8490   -1.2180 C   0  0  0  0  0  0  0  0  0  0  0  0
   -4.2510   -0.4400   -0.1920 C   0  0  0  0  0  0  0  0  0  0  0  0
   -4.7510   -1.3410    0.7120 C   0  0  0  0  0  0  0  0  0  0  0  0
   -4.4010   -2.6630    0.6020 C   0  0  0  0  0  0  0  0  0  0  0  0
   -3.5430   -3.0900   -0.4220 C   0  0  0  0  0  0  0  0  0  0  0  0
    0.1780   -2.9430   -3.0600 C   0  0  0  0  0  0  0  0  0  0  0  0
    1.0490   -2.2050   -3.5640 O   0  0  0  0  0  0  0  0  0  0  0  0
    0.0330   -4.2280   -3.5650 O   0  0  0  0  0  0  0  0  0  0  0  0
   -0.4870   -0.3210   -2.1350 H   0  0  0  0  0  0  0  0  0  0  0  0
   -0.5770   -3.1900   -1.0930 H   0  0  0  0  0  0  0  0  0  0  0  0
   -2.3270   -3.6290   -2.7390 H   0  0  0  0  0  0  0  0  0  0  0  0
   -2.2280   -1.8770   -3.2970 H   0  0  0  0  0  0  0  0  0  0  0  0
   -2.9980   -0.1430   -1.9310 H   0  0  0  0  0  0  0  0  0  0  0  0
   -4.5450    0.6060   -0.0820 H   0  0  0  0  0  0  0  0  0  0  0  0
   -5.4240   -0.9900    1.5050 H   0  0  0  0  0  0  0  0  0  0  0  0
   -4.7690   -3.4030    1.2890 H   0  0  0  0  0  0  0  0  0  0  0  0
   -3.2770   -4.1500   -0.4880 H   0  0  0  0  0  0  0  0  0  0  0  0
  1 10  1  0  0  0  0
  2  3  1  0  0  0  0
  2 11  1  1  0  0  0
  2  1  1  0  0  0  0
  3 13  1  0  0  0  0
  4  3  1  0  0  0  0
  5  4  2  0  0  0  0
  6  2  1  0  0  0  0
  7  6  2  0  0  0  0
  8 14  1  0  0  0  0
  8  4  1  0  0  0  0
  9  1  1  0  0  0  0
 12  3  1  0  0  0  0
 15 23  1  0  0  0  0
 15 25  1  0  0  0  0
 15 16  1  0  0  0  0
 16 18  1  0  0  0  0
 16 17  1  0  0  0  0
 17 29  1  0  0  0  0
 17 27  1  0  0  0  0
 18 30  1  0  0  0  0
 18 19  1  0  0  0  0
 19 32  1  1  0  0  0
 19 20  1  0  0  0  0
 20 33  1  0  0  0  0
 20  6  1  0  0  0  0
 21 19  1  0  0  0  0
 21 22  2  0  0  0  0
 24 15  1  0  0  0  0
 26 16  1  0  0  0  0
 28 17  1  0  0  0  0
 31 18  1  0  0  0  0
 34 21  1  0  0  0  0
 35 34  1  0  0  0  0
 35 47  1  1  0  0  0
 36 35  1  0  0  0  0
 36 37  1  0  0  0  0
 37 38  2  0  0  0  0
 37 42  1  0  0  0  0
 38 39  1  0  0  0  0
 39 51  1  0  0  0  0
 39 40  2  0  0  0  0
 40 52  1  0  0  0  0
 41 40  1  0  0  0  0
 41 53  1  0  0  0  0
 42 41  2  0  0  0  0
 43 35  1  0  0  0  0
 44 43  1  0  0  0  0
 45 43  2  0  0  0  0
 46 34  1  0  0  0  0
 48 36  1  0  0  0  0
 49 36  1  0  0  0  0
 50 38  1  0  0  0  0
 54 42  1  0  0  0  0
M  END
$$$$
