DLK.pdb
 OpenBabel07022418143D

 55 54  0  0  1  0  0  0  0  0999 V2000
   -1.4910   -2.0300    3.3240 N   0  0  0  0  0  0  0  0  0  0  0  0
   -1.8500   -0.6640    3.5590 C   0  0  1  0  0  0  0  0  0  0  0  0
   -1.6650   -0.2540    4.9840 C   0  0  0  0  0  0  0  0  0  0  0  0
   -0.2880   -0.3710    5.4800 C   0  0  0  0  0  0  0  0  0  0  0  0
    0.6850   -0.7720    4.7980 O   0  0  0  0  0  0  0  0  0  0  0  0
   -1.1960    0.2720    2.6050 C   0  0  0  0  0  0  0  0  0  0  0  0
   -1.3840    1.5150    2.6880 O   0  0  0  0  0  0  0  0  0  0  0  0
   -0.0140   -0.0150    6.8120 O   0  0  0  0  0  0  0  0  0  0  0  0
   -1.7340   -2.5630    4.2140 H   0  0  0  0  0  0  0  0  0  0  0  0
   -0.4490   -2.1160    3.2650 H   0  0  0  0  0  0  0  0  0  0  0  0
   -2.9550   -0.5780    3.3540 H   0  0  0  0  0  0  0  0  0  0  0  0
   -2.3290   -0.8850    5.6090 H   0  0  0  0  0  0  0  0  0  0  0  0
   -2.0290    0.7990    5.0700 H   0  0  0  0  0  0  0  0  0  0  0  0
    0.8240    0.5350    7.0500 H   0  0  0  0  0  0  0  0  0  0  0  0
    4.0170    1.4990   -0.0100 C   0  0  0  0  0  0  0  0  0  0  0  0
    2.4930    1.5960   -0.1740 C   0  0  0  0  0  0  0  0  0  0  0  0
    2.0610    3.0140   -0.0150 C   0  0  0  0  0  0  0  0  0  0  0  0
    1.8050    0.6490    0.7580 C   0  0  0  0  0  0  0  0  0  0  0  0
    0.3140    0.7550    0.6220 C   0  0  2  0  0  0  0  0  0  0  0  0
   -0.3380   -0.1730    1.5640 N   0  0  0  0  0  0  0  0  0  0  0  0
   -0.1130    0.4730   -0.7450 C   0  0  0  0  0  0  0  0  0  0  0  0
    0.2180    1.1180   -1.7600 O   0  0  0  0  0  0  0  0  0  0  0  0
    4.3830    0.5750   -0.4540 H   0  0  0  0  0  0  0  0  0  0  0  0
    4.4190    2.3480   -0.6140 H   0  0  0  0  0  0  0  0  0  0  0  0
    4.2540    1.6540    1.0550 H   0  0  0  0  0  0  0  0  0  0  0  0
    2.3190    1.2790   -1.2160 H   0  0  0  0  0  0  0  0  0  0  0  0
    1.4050    3.3990   -0.8200 H   0  0  0  0  0  0  0  0  0  0  0  0
    2.9750    3.6700   -0.0330 H   0  0  0  0  0  0  0  0  0  0  0  0
    1.5720    3.1510    0.9860 H   0  0  0  0  0  0  0  0  0  0  0  0
    2.1690   -0.3810    0.4650 H   0  0  0  0  0  0  0  0  0  0  0  0
    2.1250    0.8380    1.8280 H   0  0  0  0  0  0  0  0  0  0  0  0
    0.0180    1.7740    0.9640 H   0  0  0  0  0  0  0  0  0  0  0  0
   -0.1660   -1.1960    1.4680 H   0  0  0  0  0  0  0  0  0  0  0  0
   -1.0090   -0.6440   -1.0440 N   0  0  0  0  0  0  0  0  0  0  0  0
   -1.4270   -0.9280   -2.3630 C   0  0  1  0  0  0  0  0  0  0  0  0
   -1.0880   -2.2180   -2.9930 C   0  0  0  0  0  0  0  0  0  0  0  0
   -1.5540   -3.4850   -2.4250 C   0  0  0  0  0  0  0  0  0  0  0  0
   -1.1120   -3.9270   -1.0850 C   0  0  0  0  0  0  0  0  0  0  0  0
    0.3840   -4.1430   -0.9470 C   0  0  0  0  0  0  0  0  0  0  0  0
    1.0980   -2.9290   -1.2300 N   0  0  0  0  0  0  0  0  0  0  0  0
   -2.9170   -0.7140   -2.5030 C   0  0  0  0  0  0  0  0  0  0  0  0
   -3.5330   -0.3360   -1.4870 O   0  0  0  0  0  0  0  0  0  0  0  0
   -3.5440   -0.9290   -3.6920 O   0  0  0  0  0  0  0  0  0  0  0  0
   -1.3020   -1.1720   -0.2120 H   0  0  0  0  0  0  0  0  0  0  0  0
   -1.0180   -0.1320   -3.0950 H   0  0  0  0  0  0  0  0  0  0  0  0
    0.0200   -2.2220   -3.2270 H   0  0  0  0  0  0  0  0  0  0  0  0
   -1.5320   -2.1660   -4.0500 H   0  0  0  0  0  0  0  0  0  0  0  0
   -2.6820   -3.5050   -2.4520 H   0  0  0  0  0  0  0  0  0  0  0  0
   -1.2630   -4.3030   -3.1550 H   0  0  0  0  0  0  0  0  0  0  0  0
   -1.5190   -3.4110   -0.2160 H   0  0  0  0  0  0  0  0  0  0  0  0
   -1.5550   -4.9990   -0.9830 H   0  0  0  0  0  0  0  0  0  0  0  0
    0.5580   -4.4070    0.1350 H   0  0  0  0  0  0  0  0  0  0  0  0
    0.7340   -4.9620   -1.6110 H   0  0  0  0  0  0  0  0  0  0  0  0
    2.0000   -3.1210   -1.7550 H   0  0  0  0  0  0  0  0  0  0  0  0
    1.3190   -2.4500   -0.3480 H   0  0  0  0  0  0  0  0  0  0  0  0
  1  2  1  0  0  0  0
  1  9  1  0  0  0  0
  2 11  1  6  0  0  0
  2  3  1  0  0  0  0
  3 13  1  0  0  0  0
  3  4  1  0  0  0  0
  3 12  1  0  0  0  0
  4  8  1  0  0  0  0
  5  4  2  0  0  0  0
  6  7  2  0  0  0  0
  6  2  1  0  0  0  0
  8 14  1  0  0  0  0
 10  1  1  0  0  0  0
 15 25  1  0  0  0  0
 16 17  1  0  0  0  0
 16 15  1  0  0  0  0
 16 18  1  0  0  0  0
 17 29  1  0  0  0  0
 18 31  1  0  0  0  0
 19 18  1  0  0  0  0
 19 32  1  1  0  0  0
 19 20  1  0  0  0  0
 20  6  1  0  0  0  0
 21 19  1  0  0  0  0
 22 21  2  0  0  0  0
 23 15  1  0  0  0  0
 24 15  1  0  0  0  0
 26 16  1  0  0  0  0
 27 17  1  0  0  0  0
 28 17  1  0  0  0  0
 30 18  1  0  0  0  0
 33 20  1  0  0  0  0
 34 21  1  0  0  0  0
 34 44  1  0  0  0  0
 35 45  1  6  0  0  0
 35 34  1  0  0  0  0
 36 37  1  0  0  0  0
 36 35  1  0  0  0  0
 37 38  1  0  0  0  0
 38 51  1  0  0  0  0
 38 39  1  0  0  0  0
 38 50  1  0  0  0  0
 39 52  1  0  0  0  0
 40 39  1  0  0  0  0
 40 55  1  0  0  0  0
 41 35  1  0  0  0  0
 41 42  1  0  0  0  0
 43 41  2  0  0  0  0
 46 36  1  0  0  0  0
 47 36  1  0  0  0  0
 48 37  1  0  0  0  0
 49 37  1  0  0  0  0
 53 39  1  0  0  0  0
 54 40  1  0  0  0  0
M  END
$$$$
