DLS.pdb
 OpenBabel07022418143D

 45 44  0  0  1  0  0  0  0  0999 V2000
    4.2890   -3.8140    0.8540 N   0  0  0  0  0  0  0  0  0  0  0  0
    3.0660   -3.4140    1.5490 C   0  0  1  0  0  0  0  0  0  0  0  0
    3.3640   -3.0780    2.9760 C   0  0  0  0  0  0  0  0  0  0  0  0
    2.1980   -2.6560    3.7650 C   0  0  0  0  0  0  0  0  0  0  0  0
    1.9870   -1.4280    3.9210 O   0  0  0  0  0  0  0  0  0  0  0  0
    2.3930   -2.3090    0.8320 C   0  0  0  0  0  0  0  0  0  0  0  0
    3.0040   -1.6690   -0.0960 O   0  0  0  0  0  0  0  0  0  0  0  0
    1.2930   -3.5300    4.3630 O   0  0  0  0  0  0  0  0  0  0  0  0
    4.2570   -4.7810    0.5110 H   0  0  0  0  0  0  0  0  0  0  0  0
    4.5950   -3.1080    0.1650 H   0  0  0  0  0  0  0  0  0  0  0  0
    2.4040   -4.2990    1.5280 H   0  0  0  0  0  0  0  0  0  0  0  0
    3.8150   -3.9710    3.4770 H   0  0  0  0  0  0  0  0  0  0  0  0
    4.1110   -2.2320    2.9750 H   0  0  0  0  0  0  0  0  0  0  0  0
    0.6360   -3.1670    5.0690 H   0  0  0  0  0  0  0  0  0  0  0  0
   -2.0490   -1.4180   -2.5340 C   0  0  0  0  0  0  0  0  0  0  0  0
   -1.1720   -0.5600   -1.6270 C   0  0  0  0  0  0  0  0  0  0  0  0
   -0.2930    0.2530   -2.5190 C   0  0  0  0  0  0  0  0  0  0  0  0
   -0.4370   -1.4620   -0.6860 C   0  0  0  0  0  0  0  0  0  0  0  0
    0.4920   -0.7450    0.2790 C   0  0  2  0  0  0  0  0  0  0  0  0
    1.0730   -1.8570    1.0670 N   0  0  0  0  0  0  0  0  0  0  0  0
   -0.1780    0.1720    1.1960 C   0  0  0  0  0  0  0  0  0  0  0  0
   -0.3210   -0.1510    2.4260 O   0  0  0  0  0  0  0  0  0  0  0  0
   -1.6420   -2.4440   -2.6480 H   0  0  0  0  0  0  0  0  0  0  0  0
   -2.1520   -0.9210   -3.5220 H   0  0  0  0  0  0  0  0  0  0  0  0
   -3.0650   -1.5190   -2.1100 H   0  0  0  0  0  0  0  0  0  0  0  0
   -1.8820    0.1040   -1.0950 H   0  0  0  0  0  0  0  0  0  0  0  0
    0.4910    0.7680   -1.9340 H   0  0  0  0  0  0  0  0  0  0  0  0
   -0.9380    1.0220   -3.0120 H   0  0  0  0  0  0  0  0  0  0  0  0
    0.1960   -0.3550   -3.3170 H   0  0  0  0  0  0  0  0  0  0  0  0
    0.2380   -2.1050   -1.3190 H   0  0  0  0  0  0  0  0  0  0  0  0
   -1.1710   -2.1070   -0.1660 H   0  0  0  0  0  0  0  0  0  0  0  0
    1.2530   -0.2720   -0.3470 H   0  0  0  0  0  0  0  0  0  0  0  0
    0.5100   -2.3170    1.7990 H   0  0  0  0  0  0  0  0  0  0  0  0
   -1.3710    4.3270    3.0130 O   0  0  0  0  0  0  0  0  0  0  0  0
   -0.6490    3.6140    2.0400 C   0  0  0  0  0  0  0  0  0  0  0  0
   -1.3640    2.2890    1.8700 C   0  0  2  0  0  0  0  0  0  0  0  0
   -0.7180    1.4490    0.8900 N   0  0  0  0  0  0  0  0  0  0  0  0
   -2.7690    2.4910    1.4480 C   0  0  0  0  0  0  0  0  0  0  0  0
   -3.5750    3.1970    2.1440 O   0  0  0  0  0  0  0  0  0  0  0  0
   -3.3220    1.9530    0.2980 O   0  0  0  0  0  0  0  0  0  0  0  0
   -1.1110    4.0440    3.9370 H   0  0  0  0  0  0  0  0  0  0  0  0
   -0.6510    4.1840    1.0950 H   0  0  0  0  0  0  0  0  0  0  0  0
    0.3720    3.4170    2.3730 H   0  0  0  0  0  0  0  0  0  0  0  0
   -1.3960    1.8220    2.8760 H   0  0  0  0  0  0  0  0  0  0  0  0
   -0.6300    1.7900   -0.0860 H   0  0  0  0  0  0  0  0  0  0  0  0
  1  2  1  0  0  0  0
  2 11  1  6  0  0  0
  2  3  1  0  0  0  0
  3 12  1  0  0  0  0
  3  4  1  0  0  0  0
  4  5  2  0  0  0  0
  4  8  1  0  0  0  0
  6 20  1  0  0  0  0
  6  2  1  0  0  0  0
  7  6  2  0  0  0  0
  8 14  1  0  0  0  0
  9  1  1  0  0  0  0
 10  1  1  0  0  0  0
 13  3  1  0  0  0  0
 15 25  1  0  0  0  0
 15 16  1  0  0  0  0
 16 26  1  0  0  0  0
 16 18  1  0  0  0  0
 17 27  1  0  0  0  0
 17 16  1  0  0  0  0
 18 31  1  0  0  0  0
 18 19  1  0  0  0  0
 19 32  1  6  0  0  0
 19 20  1  0  0  0  0
 19 21  1  0  0  0  0
 20 33  1  0  0  0  0
 21 22  2  0  0  0  0
 23 15  1  0  0  0  0
 24 15  1  0  0  0  0
 28 17  1  0  0  0  0
 29 17  1  0  0  0  0
 30 18  1  0  0  0  0
 34 41  1  0  0  0  0
 35 43  1  0  0  0  0
 35 34  1  0  0  0  0
 36 35  1  0  0  0  0
 36 44  1  1  0  0  0
 37 21  1  0  0  0  0
 37 36  1  0  0  0  0
 38 36  1  0  0  0  0
 38 39  1  0  0  0  0
 40 38  2  0  0  0  0
 42 35  1  0  0  0  0
 45 37  1  0  0  0  0
M  END
$$$$
