DLV.pdb
 OpenBabel07022418143D

 50 49  0  0  1  0  0  0  0  0999 V2000
    3.7960   -3.5280    2.9170 N   0  0  0  0  0  0  0  0  0  0  0  0
    2.3880   -3.2410    2.5390 C   0  0  1  0  0  0  0  0  0  0  0  0
    1.5480   -3.3220    3.7610 C   0  0  0  0  0  0  0  0  0  0  0  0
    0.1110   -3.0610    3.5920 C   0  0  0  0  0  0  0  0  0  0  0  0
   -0.3850   -1.9400    3.8930 O   0  0  0  0  0  0  0  0  0  0  0  0
    2.3630   -2.0100    1.7690 C   0  0  0  0  0  0  0  0  0  0  0  0
    3.3720   -1.2370    1.8130 O   0  0  0  0  0  0  0  0  0  0  0  0
   -0.7230   -4.0320    3.1030 O   0  0  0  0  0  0  0  0  0  0  0  0
    3.7620   -4.3820    3.5150 H   0  0  0  0  0  0  0  0  0  0  0  0
    4.2590   -3.8050    2.0230 H   0  0  0  0  0  0  0  0  0  0  0  0
    2.1140   -4.1100    1.8800 H   0  0  0  0  0  0  0  0  0  0  0  0
    2.0140   -2.6540    4.5240 H   0  0  0  0  0  0  0  0  0  0  0  0
    1.6110   -4.4000    4.1100 H   0  0  0  0  0  0  0  0  0  0  0  0
   -1.7320   -3.9070    3.2430 H   0  0  0  0  0  0  0  0  0  0  0  0
    2.8120    1.6680   -1.7930 C   0  0  0  0  0  0  0  0  0  0  0  0
    1.8080    0.6210   -2.1260 C   0  0  0  0  0  0  0  0  0  0  0  0
    2.1930    0.1160   -3.5340 C   0  0  0  0  0  0  0  0  0  0  0  0
    1.7170   -0.5540   -1.2690 C   0  0  0  0  0  0  0  0  0  0  0  0
    1.3810   -0.3130    0.1940 C   0  0  2  0  0  0  0  0  0  0  0  0
    1.3210   -1.5290    0.9290 N   0  0  0  0  0  0  0  0  0  0  0  0
    0.1360    0.4500    0.3310 C   0  0  0  0  0  0  0  0  0  0  0  0
    0.0110    1.6180   -0.1980 O   0  0  0  0  0  0  0  0  0  0  0  0
    2.4610    2.6880   -2.0850 H   0  0  0  0  0  0  0  0  0  0  0  0
    3.1020    1.7320   -0.7440 H   0  0  0  0  0  0  0  0  0  0  0  0
    3.7740    1.5340   -2.3670 H   0  0  0  0  0  0  0  0  0  0  0  0
    0.8320    1.1210   -2.3010 H   0  0  0  0  0  0  0  0  0  0  0  0
    3.2790   -0.1180   -3.5270 H   0  0  0  0  0  0  0  0  0  0  0  0
    2.0220    0.8810   -4.2930 H   0  0  0  0  0  0  0  0  0  0  0  0
    1.6600   -0.8410   -3.7480 H   0  0  0  0  0  0  0  0  0  0  0  0
    0.9140   -1.2200   -1.6530 H   0  0  0  0  0  0  0  0  0  0  0  0
    2.7150   -1.0750   -1.2500 H   0  0  0  0  0  0  0  0  0  0  0  0
    2.2890    0.2220    0.6090 H   0  0  0  0  0  0  0  0  0  0  0  0
    0.4700   -2.1220    0.8530 H   0  0  0  0  0  0  0  0  0  0  0  0
   -3.3590   -0.4460   -0.7160 C   0  0  0  0  0  0  0  0  0  0  0  0
   -3.4320    0.0870    0.6990 C   0  0  0  0  0  0  0  0  0  0  0  0
   -4.6070    1.0360    0.7550 C   0  0  0  0  0  0  0  0  0  0  0  0
   -2.2000    0.8390    1.0990 C   0  0  2  0  0  0  0  0  0  0  0  0
   -1.0020   -0.0140    1.0290 N   0  0  0  0  0  0  0  0  0  0  0  0
   -2.3650    1.2570    2.5060 C   0  0  0  0  0  0  0  0  0  0  0  0
   -1.5350    0.8660    3.3550 O   0  0  0  0  0  0  0  0  0  0  0  0
   -3.3940    2.0690    2.9620 O   0  0  0  0  0  0  0  0  0  0  0  0
   -4.2350   -1.1070   -0.8880 H   0  0  0  0  0  0  0  0  0  0  0  0
   -3.4270    0.3640   -1.4680 H   0  0  0  0  0  0  0  0  0  0  0  0
   -2.4600   -1.0960   -0.8610 H   0  0  0  0  0  0  0  0  0  0  0  0
   -3.5490   -0.7660    1.3950 H   0  0  0  0  0  0  0  0  0  0  0  0
   -5.0980    1.0400    1.7480 H   0  0  0  0  0  0  0  0  0  0  0  0
   -4.2170    2.0600    0.5850 H   0  0  0  0  0  0  0  0  0  0  0  0
   -5.3340    0.7500   -0.0470 H   0  0  0  0  0  0  0  0  0  0  0  0
   -2.0510    1.7670    0.5150 H   0  0  0  0  0  0  0  0  0  0  0  0
   -1.0080   -0.9540    1.4900 H   0  0  0  0  0  0  0  0  0  0  0  0
  1  9  1  0  0  0  0
  2 11  1  6  0  0  0
  2  1  1  0  0  0  0
  2  3  1  0  0  0  0
  3 13  1  0  0  0  0
  3 12  1  0  0  0  0
  4  3  1  0  0  0  0
  4  5  2  0  0  0  0
  6  7  2  0  0  0  0
  6  2  1  0  0  0  0
  8 14  1  0  0  0  0
  8  4  1  0  0  0  0
 10  1  1  0  0  0  0
 15 24  1  0  0  0  0
 16 15  1  0  0  0  0
 16 18  1  0  0  0  0
 17 27  1  0  0  0  0
 17 16  1  0  0  0  0
 18 31  1  0  0  0  0
 18 19  1  0  0  0  0
 19 21  1  0  0  0  0
 19 32  1  1  0  0  0
 19 20  1  0  0  0  0
 20  6  1  0  0  0  0
 21 38  1  0  0  0  0
 22 21  2  0  0  0  0
 23 15  1  0  0  0  0
 25 15  1  0  0  0  0
 26 16  1  0  0  0  0
 28 17  1  0  0  0  0
 29 17  1  0  0  0  0
 30 18  1  0  0  0  0
 33 20  1  0  0  0  0
 34 35  1  0  0  0  0
 35 36  1  0  0  0  0
 35 37  1  0  0  0  0
 35 45  1  0  0  0  0
 36 46  1  0  0  0  0
 37 49  1  6  0  0  0
 37 39  1  0  0  0  0
 38 37  1  0  0  0  0
 38 50  1  0  0  0  0
 39 41  2  0  0  0  0
 39 40  1  0  0  0  0
 42 34  1  0  0  0  0
 43 34  1  0  0  0  0
 44 34  1  0  0  0  0
 47 36  1  0  0  0  0
 48 36  1  0  0  0  0
M  END
$$$$
