DLY.pdb
 OpenBabel07022418143D

 55 55  0  0  1  0  0  0  0  0999 V2000
    0.3280   -0.4560    3.3870 N   0  0  0  0  0  0  0  0  0  0  0  0
   -0.2840    0.8490    3.4460 C   0  0  1  0  0  0  0  0  0  0  0  0
    0.2960    1.6450    4.5920 C   0  0  0  0  0  0  0  0  0  0  0  0
    1.7330    1.8710    4.5050 C   0  0  0  0  0  0  0  0  0  0  0  0
    2.4570    1.4690    3.5650 O   0  0  0  0  0  0  0  0  0  0  0  0
   -0.1820    1.5530    2.1480 C   0  0  0  0  0  0  0  0  0  0  0  0
   -0.5800    2.7540    2.0020 O   0  0  0  0  0  0  0  0  0  0  0  0
    2.3840    2.5770    5.5130 O   0  0  0  0  0  0  0  0  0  0  0  0
    0.2130   -0.9840    4.2650 H   0  0  0  0  0  0  0  0  0  0  0  0
    1.3080   -0.4850    3.1050 H   0  0  0  0  0  0  0  0  0  0  0  0
   -1.3740    0.6290    3.6890 H   0  0  0  0  0  0  0  0  0  0  0  0
    0.0670    1.0690    5.5360 H   0  0  0  0  0  0  0  0  0  0  0  0
   -0.2860    2.6030    4.7310 H   0  0  0  0  0  0  0  0  0  0  0  0
    3.1870    3.1860    5.3250 H   0  0  0  0  0  0  0  0  0  0  0  0
    3.0720   -0.3870    0.2760 C   0  0  0  0  0  0  0  0  0  0  0  0
    2.7600    0.4390   -0.9350 C   0  0  0  0  0  0  0  0  0  0  0  0
    2.3350   -0.5000   -2.0350 C   0  0  0  0  0  0  0  0  0  0  0  0
    1.8980    1.6130   -0.7440 C   0  0  0  0  0  0  0  0  0  0  0  0
    0.5200    1.4330   -0.2320 C   0  0  2  0  0  0  0  0  0  0  0  0
    0.3810    0.8440    1.0470 N   0  0  0  0  0  0  0  0  0  0  0  0
   -0.2800    0.7670   -1.2970 C   0  0  0  0  0  0  0  0  0  0  0  0
   -0.2110    1.2290   -2.4660 O   0  0  0  0  0  0  0  0  0  0  0  0
    4.1440   -0.7730    0.2430 H   0  0  0  0  0  0  0  0  0  0  0  0
    2.4910   -1.3560    0.2960 H   0  0  0  0  0  0  0  0  0  0  0  0
    3.0270    0.1590    1.2310 H   0  0  0  0  0  0  0  0  0  0  0  0
    3.7650    0.8340   -1.2870 H   0  0  0  0  0  0  0  0  0  0  0  0
    2.2320    0.0410   -2.9990 H   0  0  0  0  0  0  0  0  0  0  0  0
    3.2050   -1.2040   -2.1920 H   0  0  0  0  0  0  0  0  0  0  0  0
    1.4810   -1.1250   -1.7910 H   0  0  0  0  0  0  0  0  0  0  0  0
    2.4580    2.3760   -0.1230 H   0  0  0  0  0  0  0  0  0  0  0  0
    1.7880    2.1580   -1.7330 H   0  0  0  0  0  0  0  0  0  0  0  0
    0.0750    2.4770   -0.1670 H   0  0  0  0  0  0  0  0  0  0  0  0
    0.6840   -0.1380    1.2040 H   0  0  0  0  0  0  0  0  0  0  0  0
   -2.2660   -5.7470    2.1080 O   0  0  0  0  0  0  0  0  0  0  0  0
   -2.0720   -4.9180    0.9910 C   0  0  0  0  0  0  0  0  0  0  0  0
   -3.0560   -4.7420    0.0430 C   0  0  0  0  0  0  0  0  0  0  0  0
   -2.8610   -3.9190   -1.0640 C   0  0  0  0  0  0  0  0  0  0  0  0
   -1.6640   -3.2620   -1.2270 C   0  0  0  0  0  0  0  0  0  0  0  0
   -1.4530   -2.3850   -2.4030 C   0  0  0  0  0  0  0  0  0  0  0  0
   -1.8570   -0.9500   -2.1490 C   0  0  2  0  0  0  0  0  0  0  0  0
   -1.1120   -0.3590   -1.0650 N   0  0  0  0  0  0  0  0  0  0  0  0
   -3.3220   -0.8510   -1.9020 C   0  0  0  0  0  0  0  0  0  0  0  0
   -3.7930   -0.3150   -0.8540 O   0  0  0  0  0  0  0  0  0  0  0  0
   -0.6590   -3.4320   -0.2750 C   0  0  0  0  0  0  0  0  0  0  0  0
   -0.8900   -4.2490    0.8000 C   0  0  0  0  0  0  0  0  0  0  0  0
   -4.2340   -1.3440   -2.8170 O   0  0  0  0  0  0  0  0  0  0  0  0
   -3.2430   -5.8780    2.4060 H   0  0  0  0  0  0  0  0  0  0  0  0
   -4.0100   -5.2670    0.1750 H   0  0  0  0  0  0  0  0  0  0  0  0
   -3.6650   -3.8170   -1.7790 H   0  0  0  0  0  0  0  0  0  0  0  0
   -0.4250   -2.4470   -2.8040 H   0  0  0  0  0  0  0  0  0  0  0  0
   -2.1240   -2.7590   -3.2150 H   0  0  0  0  0  0  0  0  0  0  0  0
   -1.6390   -0.3830   -3.0660 H   0  0  0  0  0  0  0  0  0  0  0  0
   -1.1760   -0.7550   -0.0810 H   0  0  0  0  0  0  0  0  0  0  0  0
    0.2820   -2.8970   -0.4300 H   0  0  0  0  0  0  0  0  0  0  0  0
   -0.0830   -4.3680    1.5390 H   0  0  0  0  0  0  0  0  0  0  0  0
  1  2  1  0  0  0  0
  1  9  1  0  0  0  0
  2 11  1  1  0  0  0
  2  3  1  0  0  0  0
  3 13  1  0  0  0  0
  3 12  1  0  0  0  0
  4  3  1  0  0  0  0
  4  8  1  0  0  0  0
  5  4  2  0  0  0  0
  6  2  1  0  0  0  0
  7  6  2  0  0  0  0
 10  1  1  0  0  0  0
 14  8  1  0  0  0  0
 15 24  1  0  0  0  0
 15 25  1  0  0  0  0
 16 18  1  0  0  0  0
 16 15  1  0  0  0  0
 17 29  1  0  0  0  0
 17 16  1  0  0  0  0
 18 19  1  0  0  0  0
 18 30  1  0  0  0  0
 19 32  1  1  0  0  0
 19 20  1  0  0  0  0
 20 33  1  0  0  0  0
 20  6  1  0  0  0  0
 21 41  1  0  0  0  0
 21 19  1  0  0  0  0
 22 21  2  0  0  0  0
 23 15  1  0  0  0  0
 26 16  1  0  0  0  0
 27 17  1  0  0  0  0
 28 17  1  0  0  0  0
 31 18  1  0  0  0  0
 34 47  1  0  0  0  0
 35 34  1  0  0  0  0
 36 48  1  0  0  0  0
 36 35  2  0  0  0  0
 37 36  1  0  0  0  0
 38 37  2  0  0  0  0
 38 44  1  0  0  0  0
 39 40  1  0  0  0  0
 39 38  1  0  0  0  0
 40 52  1  6  0  0  0
 40 42  1  0  0  0  0
 40 41  1  0  0  0  0
 41 53  1  0  0  0  0
 42 43  1  0  0  0  0
 44 45  2  0  0  0  0
 45 35  1  0  0  0  0
 45 55  1  0  0  0  0
 46 42  2  0  0  0  0
 49 37  1  0  0  0  0
 50 39  1  0  0  0  0
 51 39  1  0  0  0  0
 54 44  1  0  0  0  0
M  END
$$$$
