DMA.pdb
 OpenBabel07022418153D

 42 41  0  0  1  0  0  0  0  0999 V2000
    0.2320   -3.7780    1.5260 N   0  0  0  0  0  0  0  0  0  0  0  0
    1.6350   -3.5590    1.6670 C   0  0  1  0  0  0  0  0  0  0  0  0
    2.3570   -4.5470    0.7660 C   0  0  0  0  0  0  0  0  0  0  0  0
    1.9640   -5.9030    1.2300 C   0  0  0  0  0  0  0  0  0  0  0  0
    1.1880   -6.0990    2.1960 O   0  0  0  0  0  0  0  0  0  0  0  0
    1.9610   -2.1510    1.3120 C   0  0  0  0  0  0  0  0  0  0  0  0
    3.1400   -1.7040    1.5040 O   0  0  0  0  0  0  0  0  0  0  0  0
    2.4450   -7.0690    0.6030 O   0  0  0  0  0  0  0  0  0  0  0  0
   -0.1300   -3.8130    0.5700 H   0  0  0  0  0  0  0  0  0  0  0  0
   -0.3660   -3.1490    2.0990 H   0  0  0  0  0  0  0  0  0  0  0  0
    1.9460   -3.7930    2.7150 H   0  0  0  0  0  0  0  0  0  0  0  0
    2.1230   -4.4050   -0.2950 H   0  0  0  0  0  0  0  0  0  0  0  0
    3.4610   -4.4570    0.9440 H   0  0  0  0  0  0  0  0  0  0  0  0
    1.9410   -7.9450    0.6760 H   0  0  0  0  0  0  0  0  0  0  0  0
    0.7780    4.1380   -2.4650 C   0  0  0  0  0  0  0  0  0  0  0  0
    0.3140    2.6300   -1.5900 S   0  0  0  0  0  0  0  0  0  0  0  0
    1.6270    1.4060   -1.7420 C   0  0  0  0  0  0  0  0  0  0  0  0
    1.3610    0.1320   -1.0690 C   0  0  0  0  0  0  0  0  0  0  0  0
    1.2160    0.0730    0.4020 C   0  0  2  0  0  0  0  0  0  0  0  0
    0.9520   -1.3230    0.7630 N   0  0  0  0  0  0  0  0  0  0  0  0
    0.3170    0.9920    1.0730 C   0  0  0  0  0  0  0  0  0  0  0  0
    0.4910    2.2230    1.0150 O   0  0  0  0  0  0  0  0  0  0  0  0
   -0.0370    4.8850   -2.4610 H   0  0  0  0  0  0  0  0  0  0  0  0
    0.9920    3.8480   -3.5150 H   0  0  0  0  0  0  0  0  0  0  0  0
    1.6930    4.6120   -2.0280 H   0  0  0  0  0  0  0  0  0  0  0  0
    2.6280    1.8490   -1.4980 H   0  0  0  0  0  0  0  0  0  0  0  0
    1.7170    1.2110   -2.8600 H   0  0  0  0  0  0  0  0  0  0  0  0
    0.5310   -0.3760   -1.6230 H   0  0  0  0  0  0  0  0  0  0  0  0
    2.2500   -0.5520   -1.3070 H   0  0  0  0  0  0  0  0  0  0  0  0
    2.2590    0.2750    0.8110 H   0  0  0  0  0  0  0  0  0  0  0  0
    0.0100   -1.7300    0.6150 H   0  0  0  0  0  0  0  0  0  0  0  0
   -3.1430    1.3650    1.9900 C   0  0  0  0  0  0  0  0  0  0  0  0
   -1.7250    1.4620    2.5020 C   0  0  2  0  0  0  0  0  0  0  0  0
   -0.8290    0.5690    1.8450 N   0  0  0  0  0  0  0  0  0  0  0  0
   -1.7590    1.3680    3.9710 C   0  0  0  0  0  0  0  0  0  0  0  0
   -1.0980    0.6000    4.6750 O   0  0  0  0  0  0  0  0  0  0  0  0
   -2.6430    2.2540    4.6080 O   0  0  0  0  0  0  0  0  0  0  0  0
   -3.3730    2.1810    1.2740 H   0  0  0  0  0  0  0  0  0  0  0  0
   -3.8840    1.3910    2.8110 H   0  0  0  0  0  0  0  0  0  0  0  0
   -3.2830    0.3750    1.4700 H   0  0  0  0  0  0  0  0  0  0  0  0
   -1.3770    2.5100    2.2740 H   0  0  0  0  0  0  0  0  0  0  0  0
   -0.9470   -0.4790    1.8840 H   0  0  0  0  0  0  0  0  0  0  0  0
  1  2  1  0  0  0  0
  1 10  1  0  0  0  0
  2 11  1  1  0  0  0
  3 13  1  0  0  0  0
  3  4  1  0  0  0  0
  3  2  1  0  0  0  0
  4  5  2  0  0  0  0
  6  7  2  0  0  0  0
  6  2  1  0  0  0  0
  8 14  1  0  0  0  0
  8  4  1  0  0  0  0
  9  1  1  0  0  0  0
 12  3  1  0  0  0  0
 15 23  1  0  0  0  0
 15 25  1  0  0  0  0
 15 16  1  0  0  0  0
 17 16  1  0  0  0  0
 17 26  1  0  0  0  0
 17 18  1  0  0  0  0
 18 19  1  0  0  0  0
 19 20  1  0  0  0  0
 19 30  1  1  0  0  0
 19 21  1  0  0  0  0
 20  6  1  0  0  0  0
 21 34  1  0  0  0  0
 22 21  2  0  0  0  0
 24 15  1  0  0  0  0
 27 17  1  0  0  0  0
 28 18  1  0  0  0  0
 29 18  1  0  0  0  0
 31 20  1  0  0  0  0
 32 33  1  0  0  0  0
 32 39  1  0  0  0  0
 33 41  1  6  0  0  0
 33 35  1  0  0  0  0
 34 42  1  0  0  0  0
 34 33  1  0  0  0  0
 35 37  2  0  0  0  0
 35 36  1  0  0  0  0
 38 32  1  0  0  0  0
 40 32  1  0  0  0  0
M  END
$$$$
