DMK.pdb
 OpenBabel07022418153D

 53 52  0  0  1  0  0  0  0  0999 V2000
    3.8880   -0.5100    4.3000 N   0  0  0  0  0  0  0  0  0  0  0  0
    3.1880   -1.7470    4.0350 C   0  0  1  0  0  0  0  0  0  0  0  0
    2.2650   -2.1160    5.1750 C   0  0  0  0  0  0  0  0  0  0  0  0
    1.2420   -1.0910    5.4240 C   0  0  0  0  0  0  0  0  0  0  0  0
    1.1950   -0.0590    4.7390 O   0  0  0  0  0  0  0  0  0  0  0  0
    2.4530   -1.6910    2.7380 C   0  0  0  0  0  0  0  0  0  0  0  0
    1.7720   -2.6540    2.3130 O   0  0  0  0  0  0  0  0  0  0  0  0
    0.3160   -1.2820    6.4370 O   0  0  0  0  0  0  0  0  0  0  0  0
    4.7920   -0.5560    3.7530 H   0  0  0  0  0  0  0  0  0  0  0  0
    4.1870   -0.5440    5.3150 H   0  0  0  0  0  0  0  0  0  0  0  0
    3.9440   -2.5530    3.9480 H   0  0  0  0  0  0  0  0  0  0  0  0
    1.8400   -3.1040    4.9660 H   0  0  0  0  0  0  0  0  0  0  0  0
    2.9070   -2.1810    6.0880 H   0  0  0  0  0  0  0  0  0  0  0  0
   -0.0930   -0.4690    6.8950 H   0  0  0  0  0  0  0  0  0  0  0  0
    2.8990    1.3310   -2.6850 C   0  0  0  0  0  0  0  0  0  0  0  0
    3.7530    0.9800   -1.1360 S   0  0  0  0  0  0  0  0  0  0  0  0
    3.7250   -0.8080   -0.7460 C   0  0  0  0  0  0  0  0  0  0  0  0
    2.2800   -1.2170   -0.4700 C   0  0  0  0  0  0  0  0  0  0  0  0
    1.7980   -0.4290    0.6700 C   0  0  2  0  0  0  0  0  0  0  0  0
    2.4750   -0.5450    1.8990 N   0  0  0  0  0  0  0  0  0  0  0  0
    0.3250   -0.6820    0.8600 C   0  0  0  0  0  0  0  0  0  0  0  0
   -0.0860   -0.9110    2.0020 O   0  0  0  0  0  0  0  0  0  0  0  0
    1.8510    1.6600   -2.5440 H   0  0  0  0  0  0  0  0  0  0  0  0
    2.9560    0.4750   -3.4020 H   0  0  0  0  0  0  0  0  0  0  0  0
    3.4340    2.1760   -3.1770 H   0  0  0  0  0  0  0  0  0  0  0  0
    4.2990   -0.9170    0.1970 H   0  0  0  0  0  0  0  0  0  0  0  0
    4.1830   -1.4000   -1.5390 H   0  0  0  0  0  0  0  0  0  0  0  0
    1.7340   -0.8940   -1.3820 H   0  0  0  0  0  0  0  0  0  0  0  0
    2.1590   -2.2990   -0.4090 H   0  0  0  0  0  0  0  0  0  0  0  0
    1.8070    0.6660    0.3640 H   0  0  0  0  0  0  0  0  0  0  0  0
    3.0490    0.2860    2.2250 H   0  0  0  0  0  0  0  0  0  0  0  0
   -0.5300   -0.6510   -0.2460 N   0  0  0  0  0  0  0  0  0  0  0  0
   -2.0220   -0.9070   -0.0560 C   0  0  1  0  0  0  0  0  0  0  0  0
   -2.6390    0.3620   -0.5080 C   0  0  0  0  0  0  0  0  0  0  0  0
   -4.0740    0.5910   -0.4420 C   0  0  0  0  0  0  0  0  0  0  0  0
   -5.0190   -0.2680   -1.1810 C   0  0  0  0  0  0  0  0  0  0  0  0
   -4.7800   -0.3400   -2.6720 C   0  0  0  0  0  0  0  0  0  0  0  0
   -5.8150   -1.2340   -3.2000 N   0  0  0  0  0  0  0  0  0  0  0  0
   -2.2330   -2.1000   -0.8850 C   0  0  0  0  0  0  0  0  0  0  0  0
   -3.2990   -2.7310   -0.8960 O   0  0  0  0  0  0  0  0  0  0  0  0
   -1.2340   -2.6230   -1.7390 O   0  0  0  0  0  0  0  0  0  0  0  0
   -0.2090   -0.4600   -1.2030 H   0  0  0  0  0  0  0  0  0  0  0  0
   -2.2150   -1.0670    1.0080 H   0  0  0  0  0  0  0  0  0  0  0  0
   -2.1390    1.2420    0.0460 H   0  0  0  0  0  0  0  0  0  0  0  0
   -2.2500    0.5870   -1.5760 H   0  0  0  0  0  0  0  0  0  0  0  0
   -4.4220    0.6010    0.6480 H   0  0  0  0  0  0  0  0  0  0  0  0
   -4.2910    1.6830   -0.7430 H   0  0  0  0  0  0  0  0  0  0  0  0
   -6.0330    0.3240   -1.1100 H   0  0  0  0  0  0  0  0  0  0  0  0
   -5.2850   -1.2360   -0.7800 H   0  0  0  0  0  0  0  0  0  0  0  0
   -4.9370    0.6430   -3.1670 H   0  0  0  0  0  0  0  0  0  0  0  0
   -3.8050   -0.7880   -2.9300 H   0  0  0  0  0  0  0  0  0  0  0  0
   -5.4030   -1.9330   -3.8470 H   0  0  0  0  0  0  0  0  0  0  0  0
   -6.5710   -0.6900   -3.6660 H   0  0  0  0  0  0  0  0  0  0  0  0
  1 10  1  0  0  0  0
  2 11  1  6  0  0  0
  2  1  1  0  0  0  0
  2  3  1  0  0  0  0
  3  4  1  0  0  0  0
  3 13  1  0  0  0  0
  4  8  1  0  0  0  0
  5  4  2  0  0  0  0
  6  2  1  0  0  0  0
  7  6  2  0  0  0  0
  8 14  1  0  0  0  0
  9  1  1  0  0  0  0
 12  3  1  0  0  0  0
 15 23  1  0  0  0  0
 15 16  1  0  0  0  0
 16 17  1  0  0  0  0
 17 18  1  0  0  0  0
 17 26  1  0  0  0  0
 18 29  1  0  0  0  0
 18 19  1  0  0  0  0
 19 30  1  6  0  0  0
 19 21  1  0  0  0  0
 19 20  1  0  0  0  0
 20 31  1  0  0  0  0
 20  6  1  0  0  0  0
 21 22  2  0  0  0  0
 24 15  1  0  0  0  0
 25 15  1  0  0  0  0
 27 17  1  0  0  0  0
 28 18  1  0  0  0  0
 32 33  1  0  0  0  0
 32 21  1  0  0  0  0
 33 43  1  1  0  0  0
 34 35  1  0  0  0  0
 34 33  1  0  0  0  0
 34 44  1  0  0  0  0
 35 46  1  0  0  0  0
 36 48  1  0  0  0  0
 36 49  1  0  0  0  0
 36 35  1  0  0  0  0
 37 36  1  0  0  0  0
 38 37  1  0  0  0  0
 39 33  1  0  0  0  0
 40 39  1  0  0  0  0
 41 39  2  0  0  0  0
 42 32  1  0  0  0  0
 45 34  1  0  0  0  0
 47 35  1  0  0  0  0
 50 37  1  0  0  0  0
 51 37  1  0  0  0  0
 52 38  1  0  0  0  0
 53 38  1  0  0  0  0
M  END
$$$$
