DMN.pdb
 OpenBabel07022418153D

 46 45  0  0  1  0  0  0  0  0999 V2000
    2.0680   -2.5850    1.0840 N   0  0  0  0  0  0  0  0  0  0  0  0
    1.5590   -2.3330    2.4450 C   0  0  1  0  0  0  0  0  0  0  0  0
    2.7290   -2.4490    3.3840 C   0  0  0  0  0  0  0  0  0  0  0  0
    2.3000   -2.2590    4.7730 C   0  0  0  0  0  0  0  0  0  0  0  0
    1.1310   -2.1300    5.1940 O   0  0  0  0  0  0  0  0  0  0  0  0
    0.9730   -0.9650    2.4790 C   0  0  0  0  0  0  0  0  0  0  0  0
    0.4120   -0.4780    3.4740 O   0  0  0  0  0  0  0  0  0  0  0  0
    3.2970   -2.2110    5.7760 O   0  0  0  0  0  0  0  0  0  0  0  0
    2.8970   -1.9830    0.8860 H   0  0  0  0  0  0  0  0  0  0  0  0
    2.2810   -3.6040    0.9710 H   0  0  0  0  0  0  0  0  0  0  0  0
    0.8520   -3.1400    2.6680 H   0  0  0  0  0  0  0  0  0  0  0  0
    3.2210   -3.4460    3.3090 H   0  0  0  0  0  0  0  0  0  0  0  0
    3.4550   -1.6320    3.1600 H   0  0  0  0  0  0  0  0  0  0  0  0
    3.0850   -1.8420    6.6940 H   0  0  0  0  0  0  0  0  0  0  0  0
    0.7080    1.2970   -2.2180 C   0  0  0  0  0  0  0  0  0  0  0  0
    1.5090    2.7720   -1.6290 S   0  0  0  0  0  0  0  0  0  0  0  0
    2.2640    2.5260   -0.0320 C   0  0  0  0  0  0  0  0  0  0  0  0
    1.3940    2.3480    1.1320 C   0  0  0  0  0  0  0  0  0  0  0  0
    0.4780    1.2250    1.2900 C   0  0  2  0  0  0  0  0  0  0  0  0
    1.0300   -0.1080    1.3150 N   0  0  0  0  0  0  0  0  0  0  0  0
   -0.8040    1.2380    0.5590 C   0  0  0  0  0  0  0  0  0  0  0  0
   -1.3540    2.2910    0.1460 O   0  0  0  0  0  0  0  0  0  0  0  0
    1.0860    1.1080   -3.2760 H   0  0  0  0  0  0  0  0  0  0  0  0
   -0.4100    1.4390   -2.2800 H   0  0  0  0  0  0  0  0  0  0  0  0
    0.9740    0.4460   -1.5740 H   0  0  0  0  0  0  0  0  0  0  0  0
    3.0810    1.7390   -0.0800 H   0  0  0  0  0  0  0  0  0  0  0  0
    2.8810    3.4700    0.1640 H   0  0  0  0  0  0  0  0  0  0  0  0
    0.7770    3.3170    1.2140 H   0  0  0  0  0  0  0  0  0  0  0  0
    2.0740    2.4040    2.0600 H   0  0  0  0  0  0  0  0  0  0  0  0
    0.0600    1.3990    2.4030 H   0  0  0  0  0  0  0  0  0  0  0  0
    1.5090   -0.5390    0.4970 H   0  0  0  0  0  0  0  0  0  0  0  0
   -2.0270   -3.3900   -2.2920 N   0  0  0  0  0  0  0  0  0  0  0  0
   -1.9390   -2.0640   -1.7600 C   0  0  0  0  0  0  0  0  0  0  0  0
   -0.9730   -1.3740   -2.1220 O   0  0  0  0  0  0  0  0  0  0  0  0
   -2.9410   -1.5360   -0.8280 C   0  0  0  0  0  0  0  0  0  0  0  0
   -2.6960   -0.1430   -0.3570 C   0  0  2  0  0  0  0  0  0  0  0  0
   -1.4380   -0.0420    0.3320 N   0  0  0  0  0  0  0  0  0  0  0  0
   -3.7730    0.1170    0.6970 C   0  0  0  0  0  0  0  0  0  0  0  0
   -4.9910    0.0930    0.3900 O   0  0  0  0  0  0  0  0  0  0  0  0
   -3.3490    0.3730    1.9790 O   0  0  0  0  0  0  0  0  0  0  0  0
   -2.1070   -4.2360   -1.6780 H   0  0  0  0  0  0  0  0  0  0  0  0
   -2.0100   -3.5050   -3.3090 H   0  0  0  0  0  0  0  0  0  0  0  0
   -3.9680   -1.6300   -1.2660 H   0  0  0  0  0  0  0  0  0  0  0  0
   -2.9140   -2.2120    0.0690 H   0  0  0  0  0  0  0  0  0  0  0  0
   -2.8210    0.6410   -1.1350 H   0  0  0  0  0  0  0  0  0  0  0  0
   -0.9780   -0.9020    0.6720 H   0  0  0  0  0  0  0  0  0  0  0  0
  1  2  1  0  0  0  0
  2  6  1  0  0  0  0
  2 11  1  1  0  0  0
  2  3  1  0  0  0  0
  3  4  1  0  0  0  0
  4  5  2  0  0  0  0
  4  8  1  0  0  0  0
  6  7  2  0  0  0  0
  8 14  1  0  0  0  0
  9  1  1  0  0  0  0
 10  1  1  0  0  0  0
 12  3  1  0  0  0  0
 13  3  1  0  0  0  0
 15 16  1  0  0  0  0
 15 25  1  0  0  0  0
 16 17  1  0  0  0  0
 17 27  1  0  0  0  0
 17 18  1  0  0  0  0
 18 28  1  0  0  0  0
 18 19  1  0  0  0  0
 18 29  1  0  0  0  0
 19 20  1  0  0  0  0
 19 30  1  1  0  0  0
 20  6  1  0  0  0  0
 21 19  1  0  0  0  0
 22 21  2  0  0  0  0
 23 15  1  0  0  0  0
 24 15  1  0  0  0  0
 26 17  1  0  0  0  0
 31 20  1  0  0  0  0
 32 33  1  0  0  0  0
 32 41  1  0  0  0  0
 33 35  1  0  0  0  0
 34 33  2  0  0  0  0
 35 36  1  0  0  0  0
 35 44  1  0  0  0  0
 36 45  1  6  0  0  0
 36 37  1  0  0  0  0
 36 38  1  0  0  0  0
 37 21  1  0  0  0  0
 37 46  1  0  0  0  0
 38 40  1  0  0  0  0
 39 38  2  0  0  0  0
 42 32  1  0  0  0  0
 43 35  1  0  0  0  0
M  END
$$$$
