DMV.pdb
 OpenBabel07022418153D

 48 47  0  0  1  0  0  0  0  0999 V2000
    3.8150   -2.2090    3.9580 N   0  0  0  0  0  0  0  0  0  0  0  0
    2.4480   -2.2370    3.3580 C   0  0  1  0  0  0  0  0  0  0  0  0
    1.5440   -2.2330    4.5480 C   0  0  0  0  0  0  0  0  0  0  0  0
    0.1150   -2.2400    4.3070 C   0  0  0  0  0  0  0  0  0  0  0  0
   -0.3830   -1.3400    3.5760 O   0  0  0  0  0  0  0  0  0  0  0  0
    2.3720   -1.0960    2.4620 C   0  0  0  0  0  0  0  0  0  0  0  0
    3.1420   -0.0900    2.6060 O   0  0  0  0  0  0  0  0  0  0  0  0
   -0.7550   -3.1860    4.8370 O   0  0  0  0  0  0  0  0  0  0  0  0
    3.8460   -2.9390    4.6910 H   0  0  0  0  0  0  0  0  0  0  0  0
    4.5300   -2.3410    3.1990 H   0  0  0  0  0  0  0  0  0  0  0  0
    2.3940   -3.2300    2.8700 H   0  0  0  0  0  0  0  0  0  0  0  0
    1.8390   -1.3960    5.2180 H   0  0  0  0  0  0  0  0  0  0  0  0
    1.7890   -3.1820    5.1140 H   0  0  0  0  0  0  0  0  0  0  0  0
   -1.7520   -2.9990    4.7620 H   0  0  0  0  0  0  0  0  0  0  0  0
    2.5460   -0.6610   -4.1320 C   0  0  0  0  0  0  0  0  0  0  0  0
    3.3360    0.6340   -3.1820 S   0  0  0  0  0  0  0  0  0  0  0  0
    2.3130    1.0780   -1.7040 C   0  0  0  0  0  0  0  0  0  0  0  0
    2.2610   -0.0880   -0.7650 C   0  0  0  0  0  0  0  0  0  0  0  0
    1.4620    0.2180    0.5020 C   0  0  2  0  0  0  0  0  0  0  0  0
    1.4650   -0.9660    1.3510 N   0  0  0  0  0  0  0  0  0  0  0  0
    0.1310    0.7610    0.2300 C   0  0  0  0  0  0  0  0  0  0  0  0
    0.0180    1.8880   -0.3210 O   0  0  0  0  0  0  0  0  0  0  0  0
    2.6650   -1.6220   -3.5550 H   0  0  0  0  0  0  0  0  0  0  0  0
    1.4830   -0.4990   -4.3590 H   0  0  0  0  0  0  0  0  0  0  0  0
    3.1460   -0.8130   -5.0530 H   0  0  0  0  0  0  0  0  0  0  0  0
    1.3200    1.4310   -2.0600 H   0  0  0  0  0  0  0  0  0  0  0  0
    2.8270    1.9580   -1.2700 H   0  0  0  0  0  0  0  0  0  0  0  0
    1.8120   -0.9380   -1.3200 H   0  0  0  0  0  0  0  0  0  0  0  0
    3.2950   -0.3090   -0.4030 H   0  0  0  0  0  0  0  0  0  0  0  0
    2.0670    0.9880    1.0160 H   0  0  0  0  0  0  0  0  0  0  0  0
    0.8240   -1.7600    1.1830 H   0  0  0  0  0  0  0  0  0  0  0  0
   -3.2530   -1.4950   -0.3390 C   0  0  0  0  0  0  0  0  0  0  0  0
   -3.0220   -0.1100   -0.8480 C   0  0  0  0  0  0  0  0  0  0  0  0
   -4.3270    0.4930   -1.2690 C   0  0  0  0  0  0  0  0  0  0  0  0
   -2.3320    0.7000    0.2500 C   0  0  2  0  0  0  0  0  0  0  0  0
   -1.0890    0.0650    0.5620 N   0  0  0  0  0  0  0  0  0  0  0  0
   -3.1960    0.8370    1.4400 C   0  0  0  0  0  0  0  0  0  0  0  0
   -4.3270    1.3750    1.3860 O   0  0  0  0  0  0  0  0  0  0  0  0
   -2.8080    0.3740    2.7090 O   0  0  0  0  0  0  0  0  0  0  0  0
   -2.2740   -1.9730   -0.0950 H   0  0  0  0  0  0  0  0  0  0  0  0
   -3.7010   -2.1570   -1.1340 H   0  0  0  0  0  0  0  0  0  0  0  0
   -3.8520   -1.4950    0.5820 H   0  0  0  0  0  0  0  0  0  0  0  0
   -2.3390   -0.0950   -1.7140 H   0  0  0  0  0  0  0  0  0  0  0  0
   -4.5040    0.4560   -2.3650 H   0  0  0  0  0  0  0  0  0  0  0  0
   -4.4490    1.5410   -0.9400 H   0  0  0  0  0  0  0  0  0  0  0  0
   -5.1860   -0.0890   -0.8210 H   0  0  0  0  0  0  0  0  0  0  0  0
   -2.1630    1.7150   -0.1860 H   0  0  0  0  0  0  0  0  0  0  0  0
   -0.9940   -0.8670    1.0070 H   0  0  0  0  0  0  0  0  0  0  0  0
  1  9  1  0  0  0  0
  2 11  1  6  0  0  0
  2  1  1  0  0  0  0
  2  3  1  0  0  0  0
  3 13  1  0  0  0  0
  3 12  1  0  0  0  0
  4  3  1  0  0  0  0
  4  8  1  0  0  0  0
  5  4  2  0  0  0  0
  6  7  2  0  0  0  0
  6  2  1  0  0  0  0
 10  1  1  0  0  0  0
 14  8  1  0  0  0  0
 15 23  1  0  0  0  0
 15 16  1  0  0  0  0
 16 17  1  0  0  0  0
 17 27  1  0  0  0  0
 17 18  1  0  0  0  0
 18 29  1  0  0  0  0
 18 19  1  0  0  0  0
 19 30  1  1  0  0  0
 19 20  1  0  0  0  0
 20  6  1  0  0  0  0
 21 19  1  0  0  0  0
 21 36  1  0  0  0  0
 22 21  2  0  0  0  0
 24 15  1  0  0  0  0
 25 15  1  0  0  0  0
 26 17  1  0  0  0  0
 28 18  1  0  0  0  0
 31 20  1  0  0  0  0
 32 40  1  0  0  0  0
 32 42  1  0  0  0  0
 33 32  1  0  0  0  0
 33 35  1  0  0  0  0
 34 45  1  0  0  0  0
 34 33  1  0  0  0  0
 34 46  1  0  0  0  0
 35 47  1  6  0  0  0
 35 36  1  0  0  0  0
 35 37  1  0  0  0  0
 36 48  1  0  0  0  0
 37 39  1  0  0  0  0
 38 37  2  0  0  0  0
 41 32  1  0  0  0  0
 43 33  1  0  0  0  0
 44 34  1  0  0  0  0
M  END
$$$$
