DNC.pdb
 OpenBabel07022418123D

 40 39  0  0  1  0  0  0  0  0999 V2000
    2.6990   -2.1350    1.7200 N   0  0  0  0  0  0  0  0  0  0  0  0
    3.0500   -0.7870    2.1960 C   0  0  1  0  0  0  0  0  0  0  0  0
    4.4560   -0.4630    1.7790 C   0  0  0  0  0  0  0  0  0  0  0  0
    4.9180    0.8410    2.2650 C   0  0  0  0  0  0  0  0  0  0  0  0
    4.2950    1.5310    3.0980 O   0  0  0  0  0  0  0  0  0  0  0  0
    2.1260    0.1920    1.5900 C   0  0  0  0  0  0  0  0  0  0  0  0
    2.1370    1.3670    1.9630 O   0  0  0  0  0  0  0  0  0  0  0  0
    6.1340    1.3990    1.7990 O   0  0  0  0  0  0  0  0  0  0  0  0
    3.5370   -2.7600    1.9230 H   0  0  0  0  0  0  0  0  0  0  0  0
    1.9220   -2.5390    2.2520 H   0  0  0  0  0  0  0  0  0  0  0  0
    2.9690   -0.7560    3.2760 H   0  0  0  0  0  0  0  0  0  0  0  0
    4.4510   -0.3880    0.6500 H   0  0  0  0  0  0  0  0  0  0  0  0
    5.1710   -1.2770    2.0820 H   0  0  0  0  0  0  0  0  0  0  0  0
    6.6720    1.9500    2.4630 H   0  0  0  0  0  0  0  0  0  0  0  0
   -0.8700   -0.1640   -3.2370 N   0  0  0  0  0  0  0  0  0  0  0  0
    0.1330   -0.2230   -2.2360 C   0  0  0  0  0  0  0  0  0  0  0  0
    0.7440   -1.2910   -1.9940 O   0  0  0  0  0  0  0  0  0  0  0  0
    0.4520    0.9890   -1.4740 C   0  0  0  0  0  0  0  0  0  0  0  0
    0.3360    0.7990    0.0190 C   0  0  2  0  0  0  0  0  0  0  0  0
    1.1940   -0.2090    0.5530 N   0  0  0  0  0  0  0  0  0  0  0  0
   -1.0770    0.3840    0.3580 C   0  0  0  0  0  0  0  0  0  0  0  0
   -1.9780    1.1870   -0.0220 O   0  0  0  0  0  0  0  0  0  0  0  0
   -1.5410   -0.9680   -3.2840 H   0  0  0  0  0  0  0  0  0  0  0  0
   -0.9610    0.6230   -3.9060 H   0  0  0  0  0  0  0  0  0  0  0  0
   -0.1820    1.8570   -1.7420 H   0  0  0  0  0  0  0  0  0  0  0  0
    1.4980    1.2960   -1.6880 H   0  0  0  0  0  0  0  0  0  0  0  0
    0.5220    1.7540    0.5280 H   0  0  0  0  0  0  0  0  0  0  0  0
    1.2150   -1.2160    0.2650 H   0  0  0  0  0  0  0  0  0  0  0  0
   -1.3740   -0.8140    1.0470 N   0  0  0  0  0  0  0  0  0  0  0  0
   -2.7420   -1.1590    1.3370 C   0  0  1  0  0  0  0  0  0  0  0  0
   -3.1350   -2.4010    0.5360 C   0  0  0  0  0  0  0  0  0  0  0  0
   -4.8420   -2.7770    0.9370 S   0  0  0  0  0  0  0  0  0  0  0  0
   -2.9080   -1.4290    2.7810 C   0  0  0  0  0  0  0  0  0  0  0  0
   -1.9220   -1.3300    3.5620 O   0  0  0  0  0  0  0  0  0  0  0  0
   -4.1260   -1.7910    3.3010 O   0  0  0  0  0  0  0  0  0  0  0  0
   -0.6180   -1.4540    1.3510 H   0  0  0  0  0  0  0  0  0  0  0  0
   -3.3920   -0.3450    0.9620 H   0  0  0  0  0  0  0  0  0  0  0  0
   -2.4540   -3.2490    0.8190 H   0  0  0  0  0  0  0  0  0  0  0  0
   -2.9890   -2.1800   -0.5270 H   0  0  0  0  0  0  0  0  0  0  0  0
   -5.5690   -1.5710    0.9980 H   0  0  0  0  0  0  0  0  0  0  0  0
  1  9  1  0  0  0  0
  1  2  1  0  0  0  0
  1 10  1  0  0  0  0
  2 11  1  1  0  0  0
  3 13  1  0  0  0  0
  3  2  1  0  0  0  0
  3  4  1  0  0  0  0
  4  5  2  0  0  0  0
  6  7  2  0  0  0  0
  6  2  1  0  0  0  0
  8  4  1  0  0  0  0
  8 14  1  0  0  0  0
 12  3  1  0  0  0  0
 15 16  1  0  0  0  0
 16 17  2  0  0  0  0
 16 18  1  0  0  0  0
 18 19  1  0  0  0  0
 19 21  1  0  0  0  0
 19 27  1  1  0  0  0
 19 20  1  0  0  0  0
 20  6  1  0  0  0  0
 21 29  1  0  0  0  0
 22 21  2  0  0  0  0
 23 15  1  0  0  0  0
 24 15  1  0  0  0  0
 25 18  1  0  0  0  0
 26 18  1  0  0  0  0
 28 20  1  0  0  0  0
 29 30  1  0  0  0  0
 29 36  1  0  0  0  0
 30 37  1  6  0  0  0
 30 33  1  0  0  0  0
 31 38  1  0  0  0  0
 31 32  1  0  0  0  0
 31 30  1  0  0  0  0
 32 40  1  0  0  0  0
 33 35  2  0  0  0  0
 33 34  1  0  0  0  0
 39 31  1  0  0  0  0
M  END
$$$$
