DNF.pdb
 OpenBabel07022418133D

 49 49  0  0  1  0  0  0  0  0999 V2000
   -4.0530   -0.0790    3.0020 N   0  0  0  0  0  0  0  0  0  0  0  0
   -2.8250    0.6620    2.9280 C   0  0  1  0  0  0  0  0  0  0  0  0
   -1.9230    0.3470    4.0930 C   0  0  0  0  0  0  0  0  0  0  0  0
   -1.5850   -1.0840    4.1210 C   0  0  0  0  0  0  0  0  0  0  0  0
   -2.0400   -1.8480    3.2450 O   0  0  0  0  0  0  0  0  0  0  0  0
   -2.1460    0.3600    1.6230 C   0  0  0  0  0  0  0  0  0  0  0  0
   -2.6770   -0.4380    0.8080 O   0  0  0  0  0  0  0  0  0  0  0  0
   -0.7720   -1.5840    5.1020 O   0  0  0  0  0  0  0  0  0  0  0  0
   -4.3620   -0.2890    2.0090 H   0  0  0  0  0  0  0  0  0  0  0  0
   -4.8050    0.4940    3.4320 H   0  0  0  0  0  0  0  0  0  0  0  0
   -3.0770    1.7450    3.0050 H   0  0  0  0  0  0  0  0  0  0  0  0
   -2.4810    0.6260    5.0130 H   0  0  0  0  0  0  0  0  0  0  0  0
   -1.0150    1.0000    4.0250 H   0  0  0  0  0  0  0  0  0  0  0  0
   -0.4040   -2.5310    5.1170 H   0  0  0  0  0  0  0  0  0  0  0  0
   -1.1430    3.8520   -1.8510 N   0  0  0  0  0  0  0  0  0  0  0  0
   -1.2020    2.6560   -1.1110 C   0  0  0  0  0  0  0  0  0  0  0  0
   -2.3030    2.1940   -0.7650 O   0  0  0  0  0  0  0  0  0  0  0  0
    0.0410    1.9590   -0.7500 C   0  0  0  0  0  0  0  0  0  0  0  0
   -0.2100    0.7030    0.0360 C   0  0  2  0  0  0  0  0  0  0  0  0
   -0.9050    0.9570    1.2770 N   0  0  0  0  0  0  0  0  0  0  0  0
    1.0660   -0.0400    0.2990 C   0  0  0  0  0  0  0  0  0  0  0  0
    1.4450   -0.3790    1.4330 O   0  0  0  0  0  0  0  0  0  0  0  0
   -0.9530    4.7640   -1.3980 H   0  0  0  0  0  0  0  0  0  0  0  0
   -1.2940    3.8100   -2.8790 H   0  0  0  0  0  0  0  0  0  0  0  0
    0.6230    2.6660   -0.0880 H   0  0  0  0  0  0  0  0  0  0  0  0
    0.6920    1.7920   -1.6270 H   0  0  0  0  0  0  0  0  0  0  0  0
   -0.8330    0.0200   -0.5740 H   0  0  0  0  0  0  0  0  0  0  0  0
   -0.5070    1.6210    2.0070 H   0  0  0  0  0  0  0  0  0  0  0  0
    1.8780   -0.3710   -0.8070 N   0  0  0  0  0  0  0  0  0  0  0  0
    3.1240   -1.0780   -0.7270 C   0  0  1  0  0  0  0  0  0  0  0  0
    2.8820   -2.4480   -1.3750 C   0  0  0  0  0  0  0  0  0  0  0  0
    1.8100   -3.1480   -0.6190 C   0  0  0  0  0  0  0  0  0  0  0  0
    0.4680   -2.9910   -0.9830 C   0  0  0  0  0  0  0  0  0  0  0  0
   -0.5170   -3.6470   -0.2730 C   0  0  0  0  0  0  0  0  0  0  0  0
   -0.2360   -4.4680    0.8010 C   0  0  0  0  0  0  0  0  0  0  0  0
    1.0980   -4.6290    1.1690 C   0  0  0  0  0  0  0  0  0  0  0  0
    2.0830   -3.9690    0.4540 C   0  0  0  0  0  0  0  0  0  0  0  0
    4.2520   -0.3770   -1.3240 C   0  0  0  0  0  0  0  0  0  0  0  0
    5.3920   -0.8950   -1.3140 O   0  0  0  0  0  0  0  0  0  0  0  0
    4.1220    0.8660   -1.9160 O   0  0  0  0  0  0  0  0  0  0  0  0
    1.5610   -0.0850   -1.7720 H   0  0  0  0  0  0  0  0  0  0  0  0
    3.2970   -1.3050    0.3640 H   0  0  0  0  0  0  0  0  0  0  0  0
    2.5130   -2.2940   -2.4100 H   0  0  0  0  0  0  0  0  0  0  0  0
    3.8160   -3.0450   -1.3630 H   0  0  0  0  0  0  0  0  0  0  0  0
    0.2490   -2.3480   -1.8250 H   0  0  0  0  0  0  0  0  0  0  0  0
   -1.5570   -3.5000   -0.5870 H   0  0  0  0  0  0  0  0  0  0  0  0
   -1.0160   -4.9820    1.3570 H   0  0  0  0  0  0  0  0  0  0  0  0
    1.3060   -5.2750    2.0130 H   0  0  0  0  0  0  0  0  0  0  0  0
    3.1140   -4.1280    0.7820 H   0  0  0  0  0  0  0  0  0  0  0  0
  1 10  1  0  0  0  0
  2  1  1  0  0  0  0
  2 11  1  1  0  0  0
  2  3  1  0  0  0  0
  3  4  1  0  0  0  0
  3 12  1  0  0  0  0
  4  8  1  0  0  0  0
  5  4  2  0  0  0  0
  6  2  1  0  0  0  0
  7  6  2  0  0  0  0
  8 14  1  0  0  0  0
  9  1  1  0  0  0  0
 13  3  1  0  0  0  0
 15 23  1  0  0  0  0
 15 16  1  0  0  0  0
 16 17  2  0  0  0  0
 16 18  1  0  0  0  0
 18 25  1  0  0  0  0
 18 19  1  0  0  0  0
 19 27  1  6  0  0  0
 19 21  1  0  0  0  0
 19 20  1  0  0  0  0
 20  6  1  0  0  0  0
 20 28  1  0  0  0  0
 21 22  2  0  0  0  0
 24 15  1  0  0  0  0
 26 18  1  0  0  0  0
 29 30  1  0  0  0  0
 29 21  1  0  0  0  0
 30 42  1  1  0  0  0
 31 44  1  0  0  0  0
 31 30  1  0  0  0  0
 31 32  1  0  0  0  0
 32 37  1  0  0  0  0
 33 32  2  0  0  0  0
 33 34  1  0  0  0  0
 34 35  2  0  0  0  0
 35 36  1  0  0  0  0
 35 47  1  0  0  0  0
 36 48  1  0  0  0  0
 37 49  1  0  0  0  0
 37 36  2  0  0  0  0
 38 39  1  0  0  0  0
 38 30  1  0  0  0  0
 40 38  2  0  0  0  0
 41 29  1  0  0  0  0
 43 31  1  0  0  0  0
 45 33  1  0  0  0  0
 46 34  1  0  0  0  0
M  END
$$$$
