DNK.pdb
 OpenBabel07022418133D

 50 49  0  0  1  0  0  0  0  0999 V2000
    3.4250    0.5290    4.4360 N   0  0  0  0  0  0  0  0  0  0  0  0
    2.8740   -0.6440    3.7450 C   0  0  1  0  0  0  0  0  0  0  0  0
    1.6020   -1.0890    4.4350 C   0  0  0  0  0  0  0  0  0  0  0  0
    0.5810   -0.0110    4.4310 C   0  0  0  0  0  0  0  0  0  0  0  0
    0.8470    1.0810    3.8880 O   0  0  0  0  0  0  0  0  0  0  0  0
    2.6260   -0.2710    2.3400 C   0  0  0  0  0  0  0  0  0  0  0  0
    2.7680    0.9000    1.9090 O   0  0  0  0  0  0  0  0  0  0  0  0
   -0.6750   -0.1600    5.0100 O   0  0  0  0  0  0  0  0  0  0  0  0
    4.2410    0.8450    3.8400 H   0  0  0  0  0  0  0  0  0  0  0  0
    3.8560    0.1580    5.3150 H   0  0  0  0  0  0  0  0  0  0  0  0
    3.6280   -1.4480    3.8340 H   0  0  0  0  0  0  0  0  0  0  0  0
    1.8710   -1.3830    5.4630 H   0  0  0  0  0  0  0  0  0  0  0  0
    1.1820   -1.9660    3.9180 H   0  0  0  0  0  0  0  0  0  0  0  0
   -1.0140    0.5470    5.6480 H   0  0  0  0  0  0  0  0  0  0  0  0
    2.7620    0.3070   -2.6370 N   0  0  0  0  0  0  0  0  0  0  0  0
    2.5980   -1.0620   -2.2880 C   0  0  0  0  0  0  0  0  0  0  0  0
    2.1430   -1.8610   -3.1220 O   0  0  0  0  0  0  0  0  0  0  0  0
    2.9780   -1.5210   -0.9030 C   0  0  0  0  0  0  0  0  0  0  0  0
    1.9650   -0.9050    0.0430 C   0  0  2  0  0  0  0  0  0  0  0  0
    2.2080   -1.2720    1.4090 N   0  0  0  0  0  0  0  0  0  0  0  0
    0.6160   -1.3440   -0.3560 C   0  0  0  0  0  0  0  0  0  0  0  0
    0.2430   -1.0950   -1.5300 O   0  0  0  0  0  0  0  0  0  0  0  0
    3.4200    0.9310   -2.1170 H   0  0  0  0  0  0  0  0  0  0  0  0
    2.2210    0.7190   -3.4320 H   0  0  0  0  0  0  0  0  0  0  0  0
    2.9070   -2.6260   -0.8820 H   0  0  0  0  0  0  0  0  0  0  0  0
    4.0010   -1.1550   -0.7290 H   0  0  0  0  0  0  0  0  0  0  0  0
    2.0250    0.2090   -0.0710 H   0  0  0  0  0  0  0  0  0  0  0  0
    2.0850   -2.2560    1.7230 H   0  0  0  0  0  0  0  0  0  0  0  0
   -0.2940   -2.0290    0.4940 N   0  0  0  0  0  0  0  0  0  0  0  0
   -1.5980   -2.4850    0.1480 C   0  0  1  0  0  0  0  0  0  0  0  0
   -2.7060   -1.5420    0.4550 C   0  0  0  0  0  0  0  0  0  0  0  0
   -2.5860   -0.2130   -0.2390 C   0  0  0  0  0  0  0  0  0  0  0  0
   -3.7350    0.7090    0.0840 C   0  0  0  0  0  0  0  0  0  0  0  0
   -3.5290    2.0340   -0.6460 C   0  0  0  0  0  0  0  0  0  0  0  0
   -3.4540    1.8550   -2.0820 N   0  0  0  0  0  0  0  0  0  0  0  0
   -1.7200   -3.1510   -1.1660 C   0  0  0  0  0  0  0  0  0  0  0  0
   -2.8500   -3.4810   -1.5750 O   0  0  0  0  0  0  0  0  0  0  0  0
   -0.6220   -3.4090   -1.9270 O   0  0  0  0  0  0  0  0  0  0  0  0
    0.0850   -2.1910    1.4790 H   0  0  0  0  0  0  0  0  0  0  0  0
   -1.7700   -3.3830    0.8660 H   0  0  0  0  0  0  0  0  0  0  0  0
   -2.7370   -1.3940    1.5530 H   0  0  0  0  0  0  0  0  0  0  0  0
   -3.7020   -1.9540    0.1780 H   0  0  0  0  0  0  0  0  0  0  0  0
   -1.6750    0.2980    0.2050 H   0  0  0  0  0  0  0  0  0  0  0  0
   -2.3970   -0.2510   -1.3070 H   0  0  0  0  0  0  0  0  0  0  0  0
   -3.7230    0.9940    1.1790 H   0  0  0  0  0  0  0  0  0  0  0  0
   -4.7230    0.2980   -0.1030 H   0  0  0  0  0  0  0  0  0  0  0  0
   -2.6290    2.5670   -0.2840 H   0  0  0  0  0  0  0  0  0  0  0  0
   -4.4680    2.6250   -0.4220 H   0  0  0  0  0  0  0  0  0  0  0  0
   -2.4750    1.9490   -2.4360 H   0  0  0  0  0  0  0  0  0  0  0  0
   -3.8190    0.8980   -2.3130 H   0  0  0  0  0  0  0  0  0  0  0  0
  1 10  1  0  0  0  0
  2 11  1  1  0  0  0
  2  3  1  0  0  0  0
  2  1  1  0  0  0  0
  3 12  1  0  0  0  0
  4  3  1  0  0  0  0
  4  8  1  0  0  0  0
  5  4  2  0  0  0  0
  6  2  1  0  0  0  0
  7  6  2  0  0  0  0
  8 14  1  0  0  0  0
  9  1  1  0  0  0  0
 13  3  1  0  0  0  0
 15 16  1  0  0  0  0
 15 23  1  0  0  0  0
 16 18  1  0  0  0  0
 17 16  2  0  0  0  0
 18 25  1  0  0  0  0
 18 26  1  0  0  0  0
 18 19  1  0  0  0  0
 19 27  1  6  0  0  0
 19 20  1  0  0  0  0
 20 28  1  0  0  0  0
 20  6  1  0  0  0  0
 21 19  1  0  0  0  0
 21 29  1  0  0  0  0
 22 21  2  0  0  0  0
 24 15  1  0  0  0  0
 29 39  1  0  0  0  0
 30 31  1  0  0  0  0
 30 29  1  0  0  0  0
 30 40  1  1  0  0  0
 31 41  1  0  0  0  0
 32 33  1  0  0  0  0
 32 43  1  0  0  0  0
 32 31  1  0  0  0  0
 33 45  1  0  0  0  0
 34 48  1  0  0  0  0
 34 47  1  0  0  0  0
 34 33  1  0  0  0  0
 35 34  1  0  0  0  0
 36 30  1  0  0  0  0
 37 36  1  0  0  0  0
 38 36  2  0  0  0  0
 42 31  1  0  0  0  0
 44 32  1  0  0  0  0
 46 33  1  0  0  0  0
 49 35  1  0  0  0  0
 50 35  1  0  0  0  0
M  END
$$$$
