DNN.pdb
 OpenBabel07022418123D

 43 42  0  0  1  0  0  0  0  0999 V2000
    1.0700   -1.2840    3.3800 N   0  0  0  0  0  0  0  0  0  0  0  0
    2.2750   -0.6490    2.9520 C   0  0  1  0  0  0  0  0  0  0  0  0
    3.4380   -1.5620    3.3560 C   0  0  0  0  0  0  0  0  0  0  0  0
    3.4450   -1.7420    4.8120 C   0  0  0  0  0  0  0  0  0  0  0  0
    2.6080   -1.2120    5.6060 O   0  0  0  0  0  0  0  0  0  0  0  0
    2.2850   -0.4760    1.4560 C   0  0  0  0  0  0  0  0  0  0  0  0
    3.2700    0.0660    0.9000 O   0  0  0  0  0  0  0  0  0  0  0  0
    4.4160   -2.5370    5.3910 O   0  0  0  0  0  0  0  0  0  0  0  0
    1.1950   -2.3090    3.4630 H   0  0  0  0  0  0  0  0  0  0  0  0
    0.6250   -0.8340    4.1960 H   0  0  0  0  0  0  0  0  0  0  0  0
    2.4010    0.3230    3.4290 H   0  0  0  0  0  0  0  0  0  0  0  0
    4.3880   -1.1310    3.0290 H   0  0  0  0  0  0  0  0  0  0  0  0
    3.3360   -2.5590    2.8870 H   0  0  0  0  0  0  0  0  0  0  0  0
    4.2500   -3.1280    6.2050 H   0  0  0  0  0  0  0  0  0  0  0  0
    1.1370   -2.9890   -3.8380 N   0  0  0  0  0  0  0  0  0  0  0  0
    1.3430   -1.8330   -2.9780 C   0  0  0  0  0  0  0  0  0  0  0  0
    1.6240   -0.7710   -3.5770 O   0  0  0  0  0  0  0  0  0  0  0  0
    1.2080   -2.0010   -1.5230 C   0  0  0  0  0  0  0  0  0  0  0  0
    1.2990   -0.7030   -0.8080 C   0  0  2  0  0  0  0  0  0  0  0  0
    1.2090   -0.9100    0.6520 N   0  0  0  0  0  0  0  0  0  0  0  0
    0.2050    0.2690   -1.1850 C   0  0  0  0  0  0  0  0  0  0  0  0
    0.0120    0.6790   -2.3470 O   0  0  0  0  0  0  0  0  0  0  0  0
    1.7980   -3.1280   -4.6260 H   0  0  0  0  0  0  0  0  0  0  0  0
    0.3600   -3.6260   -3.6470 H   0  0  0  0  0  0  0  0  0  0  0  0
    0.2380   -2.5210   -1.3350 H   0  0  0  0  0  0  0  0  0  0  0  0
    2.0190   -2.6690   -1.1620 H   0  0  0  0  0  0  0  0  0  0  0  0
    2.2570   -0.2220   -1.0080 H   0  0  0  0  0  0  0  0  0  0  0  0
    0.3750   -1.3660    1.0870 H   0  0  0  0  0  0  0  0  0  0  0  0
   -3.2290   -0.7450    1.3980 N   0  0  0  0  0  0  0  0  0  0  0  0
   -3.3740    0.6360    1.1070 C   0  0  0  0  0  0  0  0  0  0  0  0
   -3.7110    1.3890    2.0510 O   0  0  0  0  0  0  0  0  0  0  0  0
   -3.1240    1.1010   -0.2590 C   0  0  0  0  0  0  0  0  0  0  0  0
   -1.7600    1.7100   -0.4650 C   0  0  2  0  0  0  0  0  0  0  0  0
   -0.6920    0.7790   -0.1750 N   0  0  0  0  0  0  0  0  0  0  0  0
   -1.5820    3.0020    0.2300 C   0  0  0  0  0  0  0  0  0  0  0  0
   -0.5810    3.1640    0.9580 O   0  0  0  0  0  0  0  0  0  0  0  0
   -2.4950    4.0130    0.0850 O   0  0  0  0  0  0  0  0  0  0  0  0
   -2.3940   -1.0710    1.9280 H   0  0  0  0  0  0  0  0  0  0  0  0
   -3.9500   -1.4300    1.0870 H   0  0  0  0  0  0  0  0  0  0  0  0
   -3.8700    1.9210   -0.4670 H   0  0  0  0  0  0  0  0  0  0  0  0
   -3.2910    0.3490   -1.0360 H   0  0  0  0  0  0  0  0  0  0  0  0
   -1.7230    1.9490   -1.5720 H   0  0  0  0  0  0  0  0  0  0  0  0
   -0.5190    0.4300    0.7850 H   0  0  0  0  0  0  0  0  0  0  0  0
  1  9  1  0  0  0  0
  1 10  1  0  0  0  0
  2  3  1  0  0  0  0
  2  1  1  0  0  0  0
  2 11  1  1  0  0  0
  3  4  1  0  0  0  0
  4  8  1  0  0  0  0
  4  5  2  0  0  0  0
  6  2  1  0  0  0  0
  7  6  2  0  0  0  0
  8 14  1  0  0  0  0
 12  3  1  0  0  0  0
 13  3  1  0  0  0  0
 15 24  1  0  0  0  0
 15 16  1  0  0  0  0
 16 18  1  0  0  0  0
 17 16  2  0  0  0  0
 18 25  1  0  0  0  0
 18 26  1  0  0  0  0
 18 19  1  0  0  0  0
 19 27  1  6  0  0  0
 19 20  1  0  0  0  0
 20 28  1  0  0  0  0
 20  6  1  0  0  0  0
 21 19  1  0  0  0  0
 21 34  1  0  0  0  0
 22 21  2  0  0  0  0
 23 15  1  0  0  0  0
 29 38  1  0  0  0  0
 30 29  1  0  0  0  0
 30 31  2  0  0  0  0
 32 30  1  0  0  0  0
 33 42  1  6  0  0  0
 33 32  1  0  0  0  0
 33 34  1  0  0  0  0
 33 35  1  0  0  0  0
 34 43  1  0  0  0  0
 35 36  1  0  0  0  0
 37 35  2  0  0  0  0
 39 29  1  0  0  0  0
 40 32  1  0  0  0  0
 41 32  1  0  0  0  0
M  END
$$$$
