DNQ.pdb
 OpenBabel07022418123D

 46 45  0  0  1  0  0  0  0  0999 V2000
    2.5430    0.1030    5.1630 N   0  0  0  0  0  0  0  0  0  0  0  0
    2.0010   -0.9260    4.3300 C   0  0  1  0  0  0  0  0  0  0  0  0
    0.6770   -1.4180    4.8790 C   0  0  0  0  0  0  0  0  0  0  0  0
   -0.3200   -0.3260    4.9600 C   0  0  0  0  0  0  0  0  0  0  0  0
   -0.0680    0.8510    4.6170 O   0  0  0  0  0  0  0  0  0  0  0  0
    1.9270   -0.5500    2.9070 C   0  0  0  0  0  0  0  0  0  0  0  0
    2.2870    0.6260    2.5620 O   0  0  0  0  0  0  0  0  0  0  0  0
   -1.5820   -0.6200    5.4320 O   0  0  0  0  0  0  0  0  0  0  0  0
    3.5480    0.2490    4.9220 H   0  0  0  0  0  0  0  0  0  0  0  0
    2.5270   -0.2560    6.1480 H   0  0  0  0  0  0  0  0  0  0  0  0
    2.6990   -1.7970    4.3920 H   0  0  0  0  0  0  0  0  0  0  0  0
    0.2760   -2.2300    4.2380 H   0  0  0  0  0  0  0  0  0  0  0  0
    0.8170   -1.8310    5.8940 H   0  0  0  0  0  0  0  0  0  0  0  0
   -2.2390    0.1010    5.7600 H   0  0  0  0  0  0  0  0  0  0  0  0
    2.9970   -0.1490   -2.1220 N   0  0  0  0  0  0  0  0  0  0  0  0
    2.4340   -1.3980   -1.7250 C   0  0  0  0  0  0  0  0  0  0  0  0
    1.9440   -2.1260   -2.6320 O   0  0  0  0  0  0  0  0  0  0  0  0
    2.4510   -1.7740   -0.3070 C   0  0  0  0  0  0  0  0  0  0  0  0
    1.4160   -1.0140    0.4630 C   0  0  2  0  0  0  0  0  0  0  0  0
    1.4770   -1.4230    1.8840 N   0  0  0  0  0  0  0  0  0  0  0  0
    0.0520   -1.1630   -0.0440 C   0  0  0  0  0  0  0  0  0  0  0  0
   -0.8430   -1.7580    0.6700 O   0  0  0  0  0  0  0  0  0  0  0  0
    2.7300    0.2970   -3.0390 H   0  0  0  0  0  0  0  0  0  0  0  0
    3.6840    0.3820   -1.5450 H   0  0  0  0  0  0  0  0  0  0  0  0
    3.4580   -1.4260    0.0810 H   0  0  0  0  0  0  0  0  0  0  0  0
    2.3620   -2.8760   -0.1760 H   0  0  0  0  0  0  0  0  0  0  0  0
    1.7120    0.0510    0.4500 H   0  0  0  0  0  0  0  0  0  0  0  0
    1.1850   -2.3780    2.1820 H   0  0  0  0  0  0  0  0  0  0  0  0
   -1.3430    1.8810    1.5160 N   0  0  0  0  0  0  0  0  0  0  0  0
   -1.4740    1.6430    0.0950 C   0  0  0  0  0  0  0  0  0  0  0  0
   -0.4490    1.9390   -0.5720 O   0  0  0  0  0  0  0  0  0  0  0  0
   -2.7040    1.1100   -0.4740 C   0  0  0  0  0  0  0  0  0  0  0  0
   -2.5980    0.3650   -1.7500 C   0  0  0  0  0  0  0  0  0  0  0  0
   -1.8130   -0.9040   -1.6860 C   0  0  2  0  0  0  0  0  0  0  0  0
   -0.4480   -0.7030   -1.2950 N   0  0  0  0  0  0  0  0  0  0  0  0
   -1.9710   -1.6250   -2.9800 C   0  0  0  0  0  0  0  0  0  0  0  0
   -0.9500   -1.9770   -3.6020 O   0  0  0  0  0  0  0  0  0  0  0  0
   -3.2250   -1.9050   -3.4900 O   0  0  0  0  0  0  0  0  0  0  0  0
   -1.3330    1.1300    2.2050 H   0  0  0  0  0  0  0  0  0  0  0  0
   -1.2570    2.8700    1.8070 H   0  0  0  0  0  0  0  0  0  0  0  0
   -3.1390    0.3760    0.2800 H   0  0  0  0  0  0  0  0  0  0  0  0
   -3.5010    1.9060   -0.5860 H   0  0  0  0  0  0  0  0  0  0  0  0
   -2.2000    1.0270   -2.5650 H   0  0  0  0  0  0  0  0  0  0  0  0
   -3.6530    0.1390   -2.0920 H   0  0  0  0  0  0  0  0  0  0  0  0
   -2.3460   -1.5670   -0.9270 H   0  0  0  0  0  0  0  0  0  0  0  0
    0.2260   -0.2100   -1.9360 H   0  0  0  0  0  0  0  0  0  0  0  0
  1 10  1  0  0  0  0
  2 11  1  1  0  0  0
  2  3  1  0  0  0  0
  2  1  1  0  0  0  0
  3  4  1  0  0  0  0
  3 13  1  0  0  0  0
  4  8  1  0  0  0  0
  5  4  2  0  0  0  0
  6  2  1  0  0  0  0
  7  6  2  0  0  0  0
  8 14  1  0  0  0  0
  9  1  1  0  0  0  0
 12  3  1  0  0  0  0
 15 16  1  0  0  0  0
 15 24  1  0  0  0  0
 16 18  1  0  0  0  0
 17 16  2  0  0  0  0
 18 26  1  0  0  0  0
 18 25  1  0  0  0  0
 18 19  1  0  0  0  0
 19 27  1  6  0  0  0
 19 20  1  0  0  0  0
 20 28  1  0  0  0  0
 20  6  1  0  0  0  0
 21 19  1  0  0  0  0
 21 22  2  0  0  0  0
 23 15  1  0  0  0  0
 29 40  1  0  0  0  0
 29 39  1  0  0  0  0
 30 29  1  0  0  0  0
 31 30  2  0  0  0  0
 32 30  1  0  0  0  0
 32 41  1  0  0  0  0
 33 34  1  0  0  0  0
 33 32  1  0  0  0  0
 34 35  1  0  0  0  0
 34 45  1  1  0  0  0
 35 21  1  0  0  0  0
 36 34  1  0  0  0  0
 37 36  2  0  0  0  0
 38 36  1  0  0  0  0
 42 32  1  0  0  0  0
 43 33  1  0  0  0  0
 44 33  1  0  0  0  0
 46 35  1  0  0  0  0
M  END
$$$$
