DNT.pdb
 OpenBabel07022418133D

 43 42  0  0  1  0  0  0  0  0999 V2000
    3.9700   -3.5970   -1.1740 N   0  0  0  0  0  0  0  0  0  0  0  0
    3.5320   -2.9430    0.0510 C   0  0  1  0  0  0  0  0  0  0  0  0
    4.7420   -2.3620    0.7260 C   0  0  0  0  0  0  0  0  0  0  0  0
    4.4980   -1.6560    1.9840 C   0  0  0  0  0  0  0  0  0  0  0  0
    4.1660   -0.4400    2.0700 O   0  0  0  0  0  0  0  0  0  0  0  0
    2.4980   -1.9320   -0.3040 C   0  0  0  0  0  0  0  0  0  0  0  0
    2.3880   -1.6260   -1.5120 O   0  0  0  0  0  0  0  0  0  0  0  0
    4.6180   -2.2980    3.2320 O   0  0  0  0  0  0  0  0  0  0  0  0
    4.4350   -4.5090   -0.9850 H   0  0  0  0  0  0  0  0  0  0  0  0
    3.0920   -3.8310   -1.7180 H   0  0  0  0  0  0  0  0  0  0  0  0
    3.0880   -3.7020    0.7140 H   0  0  0  0  0  0  0  0  0  0  0  0
    5.3490   -1.7290    0.0480 H   0  0  0  0  0  0  0  0  0  0  0  0
    5.3980   -3.2440    0.9720 H   0  0  0  0  0  0  0  0  0  0  0  0
    4.8320   -1.7770    4.0830 H   0  0  0  0  0  0  0  0  0  0  0  0
    1.9520    1.3290   -2.6270 N   0  0  0  0  0  0  0  0  0  0  0  0
    1.7630    0.8940   -1.2880 C   0  0  0  0  0  0  0  0  0  0  0  0
    2.6840    1.1120   -0.4280 O   0  0  0  0  0  0  0  0  0  0  0  0
    0.4930    0.1950   -0.9300 C   0  0  0  0  0  0  0  0  0  0  0  0
    0.6510   -0.3290    0.4830 C   0  0  2  0  0  0  0  0  0  0  0  0
    1.6620   -1.3300    0.6580 N   0  0  0  0  0  0  0  0  0  0  0  0
   -0.5980   -0.5920    1.1900 C   0  0  0  0  0  0  0  0  0  0  0  0
   -0.7000   -1.6550    1.8560 O   0  0  0  0  0  0  0  0  0  0  0  0
    1.5760    0.7760   -3.4510 H   0  0  0  0  0  0  0  0  0  0  0  0
    2.4620    2.2030   -2.8830 H   0  0  0  0  0  0  0  0  0  0  0  0
    0.2450   -0.6160   -1.6340 H   0  0  0  0  0  0  0  0  0  0  0  0
   -0.2950    0.9460   -0.9230 H   0  0  0  0  0  0  0  0  0  0  0  0
    1.1330    0.6030    0.9990 H   0  0  0  0  0  0  0  0  0  0  0  0
    1.8400   -1.7230    1.6530 H   0  0  0  0  0  0  0  0  0  0  0  0
   -3.3850    2.3950    2.4330 C   0  0  0  0  0  0  0  0  0  0  0  0
   -3.2490    1.0030    2.9680 C   0  0  1  0  0  0  0  0  0  0  0  0
   -4.4370    0.6860    3.6370 O   0  0  0  0  0  0  0  0  0  0  0  0
   -2.9470   -0.0290    1.9010 C   0  0  2  0  0  0  0  0  0  0  0  0
   -1.7280    0.2660    1.1900 N   0  0  0  0  0  0  0  0  0  0  0  0
   -4.0780   -0.0750    0.9590 C   0  0  0  0  0  0  0  0  0  0  0  0
   -5.2290   -0.3240    1.3610 O   0  0  0  0  0  0  0  0  0  0  0  0
   -3.8600    0.1580   -0.3790 O   0  0  0  0  0  0  0  0  0  0  0  0
   -4.4700    2.7070    2.3710 H   0  0  0  0  0  0  0  0  0  0  0  0
   -2.9700    2.4730    1.4100 H   0  0  0  0  0  0  0  0  0  0  0  0
   -2.9100    3.1350    3.1130 H   0  0  0  0  0  0  0  0  0  0  0  0
   -2.4530    0.9890    3.7570 H   0  0  0  0  0  0  0  0  0  0  0  0
   -5.2280    1.0930    3.2190 H   0  0  0  0  0  0  0  0  0  0  0  0
   -2.9040   -1.0170    2.4160 H   0  0  0  0  0  0  0  0  0  0  0  0
   -1.6350    1.1450    0.6370 H   0  0  0  0  0  0  0  0  0  0  0  0
  1  9  1  0  0  0  0
  1  2  1  0  0  0  0
  2 11  1  1  0  0  0
  2  3  1  0  0  0  0
  3 13  1  0  0  0  0
  3  4  1  0  0  0  0
  4  5  2  0  0  0  0
  4  8  1  0  0  0  0
  6  2  1  0  0  0  0
  6 20  1  0  0  0  0
  7  6  2  0  0  0  0
  8 14  1  0  0  0  0
 10  1  1  0  0  0  0
 12  3  1  0  0  0  0
 15 16  1  0  0  0  0
 16 18  1  0  0  0  0
 16 17  2  0  0  0  0
 18 26  1  0  0  0  0
 18 19  1  0  0  0  0
 19 20  1  0  0  0  0
 19 27  1  1  0  0  0
 19 21  1  0  0  0  0
 20 28  1  0  0  0  0
 21 22  2  0  0  0  0
 23 15  1  0  0  0  0
 24 15  1  0  0  0  0
 25 18  1  0  0  0  0
 29 30  1  0  0  0  0
 29 39  1  0  0  0  0
 30 31  1  0  0  0  0
 30 40  1  1  0  0  0
 32 42  1  1  0  0  0
 32 30  1  0  0  0  0
 33 21  1  0  0  0  0
 33 32  1  0  0  0  0
 34 35  1  0  0  0  0
 34 32  1  0  0  0  0
 36 34  2  0  0  0  0
 37 29  1  0  0  0  0
 38 29  1  0  0  0  0
 41 31  1  0  0  0  0
 43 33  1  0  0  0  0
M  END
$$$$
