DPF.pdb
 OpenBabel07022418153D

 49 50  0  0  1  0  0  0  0  0999 V2000
    1.5040    1.6760    3.8260 N   0  0  0  0  0  0  0  0  0  0  0  0
    0.9690    0.6510    4.6760 C   0  0  1  0  0  0  0  0  0  0  0  0
   -0.4030    1.0570    5.2250 C   0  0  0  0  0  0  0  0  0  0  0  0
   -1.3520    1.3090    4.1090 C   0  0  0  0  0  0  0  0  0  0  0  0
   -2.5570    1.5290    4.3760 O   0  0  0  0  0  0  0  0  0  0  0  0
    1.0110   -0.7120    4.1450 C   0  0  0  0  0  0  0  0  0  0  0  0
    0.4820   -1.6010    4.9080 O   0  0  0  0  0  0  0  0  0  0  0  0
   -0.9070    1.3010    2.7900 O   0  0  0  0  0  0  0  0  0  0  0  0
    2.4910    1.8770    4.0840 H   0  0  0  0  0  0  0  0  0  0  0  0
    0.9440    2.5460    3.9950 H   0  0  0  0  0  0  0  0  0  0  0  0
    1.6240    0.7060    5.6220 H   0  0  0  0  0  0  0  0  0  0  0  0
   -0.7720    0.3170    5.9320 H   0  0  0  0  0  0  0  0  0  0  0  0
   -0.2460    2.0190    5.7450 H   0  0  0  0  0  0  0  0  0  0  0  0
   -1.2470    2.0760    2.1940 H   0  0  0  0  0  0  0  0  0  0  0  0
    1.5560   -1.1540    2.9290 N   0  0  0  0  0  0  0  0  0  0  0  0
    1.5810   -2.5880    2.5630 C   0  0  0  0  0  0  0  0  0  0  0  0
    2.9450   -2.7870    1.9850 C   0  0  0  0  0  0  0  0  0  0  0  0
    3.3730   -1.4110    1.5520 C   0  0  0  0  0  0  0  0  0  0  0  0
    2.1890   -0.4730    1.8300 C   0  0  1  0  0  0  0  0  0  0  0  0
    1.4020   -0.2500    0.6310 C   0  0  0  0  0  0  0  0  0  0  0  0
    2.0420    0.3180   -0.3400 O   0  0  0  0  0  0  0  0  0  0  0  0
    0.8280   -2.7350    1.7970 H   0  0  0  0  0  0  0  0  0  0  0  0
    1.3960   -3.2160    3.4610 H   0  0  0  0  0  0  0  0  0  0  0  0
    3.6610   -3.2440    2.6950 H   0  0  0  0  0  0  0  0  0  0  0  0
    2.8690   -3.4090    1.0520 H   0  0  0  0  0  0  0  0  0  0  0  0
    4.2550   -1.1340    2.1700 H   0  0  0  0  0  0  0  0  0  0  0  0
    3.6820   -1.3690    0.5080 H   0  0  0  0  0  0  0  0  0  0  0  0
    2.6500    0.4740    2.1570 H   0  0  0  0  0  0  0  0  0  0  0  0
    0.0650   -0.5520    0.3520 N   0  0  0  0  0  0  0  0  0  0  0  0
   -0.4980   -0.2400   -0.9620 C   0  0  1  0  0  0  0  0  0  0  0  0
   -0.5670   -1.6080   -1.6520 C   0  0  0  0  0  0  0  0  0  0  0  0
   -1.1140   -1.5360   -3.0200 C   0  0  0  0  0  0  0  0  0  0  0  0
   -2.4600   -1.6760   -3.2680 C   0  0  0  0  0  0  0  0  0  0  0  0
   -2.9850   -1.6070   -4.5570 C   0  0  0  0  0  0  0  0  0  0  0  0
   -2.1570   -1.3950   -5.6300 C   0  0  0  0  0  0  0  0  0  0  0  0
   -0.8140   -1.2530   -5.3990 C   0  0  0  0  0  0  0  0  0  0  0  0
   -0.3010   -1.3220   -4.1260 C   0  0  0  0  0  0  0  0  0  0  0  0
   -1.8150    0.3500   -0.8590 C   0  0  0  0  0  0  0  0  0  0  0  0
   -2.3890    0.7280   -1.9240 O   0  0  0  0  0  0  0  0  0  0  0  0
   -2.4950    0.5300    0.3180 O   0  0  0  0  0  0  0  0  0  0  0  0
   -0.5100   -0.9860    1.0990 H   0  0  0  0  0  0  0  0  0  0  0  0
    0.2040    0.4190   -1.5240 H   0  0  0  0  0  0  0  0  0  0  0  0
   -1.2240   -2.2260   -0.9910 H   0  0  0  0  0  0  0  0  0  0  0  0
    0.4750   -1.9820   -1.6720 H   0  0  0  0  0  0  0  0  0  0  0  0
   -3.1600   -1.8470   -2.4620 H   0  0  0  0  0  0  0  0  0  0  0  0
   -4.0430   -1.7170   -4.7540 H   0  0  0  0  0  0  0  0  0  0  0  0
   -2.5770   -1.3410   -6.6410 H   0  0  0  0  0  0  0  0  0  0  0  0
   -0.1570   -1.0860   -6.2270 H   0  0  0  0  0  0  0  0  0  0  0  0
    0.7610   -1.2110   -3.9360 H   0  0  0  0  0  0  0  0  0  0  0  0
  1 10  1  0  0  0  0
  1  9  1  0  0  0  0
  1  2  1  0  0  0  0
  2  3  1  0  0  0  0
  2 11  1  1  0  0  0
  3 13  1  0  0  0  0
  3 12  1  0  0  0  0
  4  5  2  0  0  0  0
  4  3  1  0  0  0  0
  6  2  1  0  0  0  0
  6  7  2  0  0  0  0
  8  4  1  0  0  0  0
 14  8  1  0  0  0  0
 15  6  1  0  0  0  0
 16 15  1  0  0  0  0
 16 23  1  0  0  0  0
 17 16  1  0  0  0  0
 17 24  1  0  0  0  0
 18 19  1  0  0  0  0
 18 17  1  0  0  0  0
 18 26  1  0  0  0  0
 19 28  1  1  0  0  0
 19 15  1  0  0  0  0
 20 19  1  0  0  0  0
 21 20  2  0  0  0  0
 22 16  1  0  0  0  0
 25 17  1  0  0  0  0
 27 18  1  0  0  0  0
 29 20  1  0  0  0  0
 29 41  1  0  0  0  0
 30 42  1  6  0  0  0
 30 38  1  0  0  0  0
 30 29  1  0  0  0  0
 31 43  1  0  0  0  0
 31 30  1  0  0  0  0
 32 31  1  0  0  0  0
 33 32  1  0  0  0  0
 33 45  1  0  0  0  0
 34 33  2  0  0  0  0
 35 36  2  0  0  0  0
 35 34  1  0  0  0  0
 36 37  1  0  0  0  0
 37 49  1  0  0  0  0
 37 32  2  0  0  0  0
 38 40  1  0  0  0  0
 39 38  2  0  0  0  0
 44 31  1  0  0  0  0
 46 34  1  0  0  0  0
 47 35  1  0  0  0  0
 48 36  1  0  0  0  0
M  END
$$$$
