DPI.pdb
 OpenBabel07022418153D

 48 48  0  0  1  0  0  0  0  0999 V2000
    1.0090   -3.5660    1.7150 N   0  0  0  0  0  0  0  0  0  0  0  0
    1.7160   -2.3800    2.1230 C   0  0  1  0  0  0  0  0  0  0  0  0
    3.1540   -2.7820    2.4300 C   0  0  0  0  0  0  0  0  0  0  0  0
    3.9790   -1.6560    2.8590 C   0  0  0  0  0  0  0  0  0  0  0  0
    4.5930   -0.8960    2.0970 O   0  0  0  0  0  0  0  0  0  0  0  0
    1.7320   -1.3230    1.0970 C   0  0  0  0  0  0  0  0  0  0  0  0
    2.1710   -0.1680    1.4720 O   0  0  0  0  0  0  0  0  0  0  0  0
    4.0870   -1.4130    4.2340 O   0  0  0  0  0  0  0  0  0  0  0  0
    1.5770   -4.4260    1.8470 H   0  0  0  0  0  0  0  0  0  0  0  0
    0.0970   -3.6870    2.2370 H   0  0  0  0  0  0  0  0  0  0  0  0
    1.3070   -2.0190    3.0950 H   0  0  0  0  0  0  0  0  0  0  0  0
    3.5720   -3.1850    1.4720 H   0  0  0  0  0  0  0  0  0  0  0  0
    3.1190   -3.6260    3.1470 H   0  0  0  0  0  0  0  0  0  0  0  0
    4.5180   -0.5720    4.5870 H   0  0  0  0  0  0  0  0  0  0  0  0
    1.3230   -1.4330   -0.2370 N   0  0  0  0  0  0  0  0  0  0  0  0
    0.8300   -2.5840   -0.9350 C   0  0  0  0  0  0  0  0  0  0  0  0
    1.4490   -2.3590   -2.3310 C   0  0  0  0  0  0  0  0  0  0  0  0
    1.0820   -0.9130   -2.5550 C   0  0  0  0  0  0  0  0  0  0  0  0
    1.3200   -0.3200   -1.1900 C   0  0  1  0  0  0  0  0  0  0  0  0
    0.3230    0.7060   -0.8320 C   0  0  0  0  0  0  0  0  0  0  0  0
    0.2630    1.7410   -1.5390 O   0  0  0  0  0  0  0  0  0  0  0  0
   -0.2820   -2.5210   -1.1180 H   0  0  0  0  0  0  0  0  0  0  0  0
    1.1240   -3.5580   -0.5500 H   0  0  0  0  0  0  0  0  0  0  0  0
    1.0480   -3.0480   -3.0680 H   0  0  0  0  0  0  0  0  0  0  0  0
    2.5460   -2.4400   -2.1630 H   0  0  0  0  0  0  0  0  0  0  0  0
    0.0310   -0.8760   -2.8670 H   0  0  0  0  0  0  0  0  0  0  0  0
    1.7770   -0.5060   -3.3290 H   0  0  0  0  0  0  0  0  0  0  0  0
    2.3190    0.1750   -1.2260 H   0  0  0  0  0  0  0  0  0  0  0  0
   -3.1510    0.0590    2.6780 C   0  0  0  0  0  0  0  0  0  0  0  0
   -3.3970   -0.0120    1.2040 C   0  0  0  0  0  0  0  0  0  0  0  0
   -2.9500    1.1830    0.4230 C   0  0  2  0  0  0  0  0  0  0  0  0
   -3.3030    0.8970   -1.0300 C   0  0  0  0  0  0  0  0  0  0  0  0
   -1.5470    1.6150    0.5990 C   0  0  2  0  0  0  0  0  0  0  0  0
   -0.5740    0.5990    0.2600 N   0  0  0  0  0  0  0  0  0  0  0  0
   -1.3180    2.2280    1.9140 C   0  0  0  0  0  0  0  0  0  0  0  0
   -2.0720    3.1250    2.3460 O   0  0  0  0  0  0  0  0  0  0  0  0
   -0.2590    1.8220    2.6970 O   0  0  0  0  0  0  0  0  0  0  0  0
   -3.7380   -0.7530    3.2210 H   0  0  0  0  0  0  0  0  0  0  0  0
   -2.0900   -0.1590    2.8730 H   0  0  0  0  0  0  0  0  0  0  0  0
   -3.5240    0.9950    3.1330 H   0  0  0  0  0  0  0  0  0  0  0  0
   -3.0240   -0.9690    0.7670 H   0  0  0  0  0  0  0  0  0  0  0  0
   -4.5200   -0.0800    1.0610 H   0  0  0  0  0  0  0  0  0  0  0  0
   -3.6520    2.0200    0.7160 H   0  0  0  0  0  0  0  0  0  0  0  0
   -2.6390    0.1720   -1.5010 H   0  0  0  0  0  0  0  0  0  0  0  0
   -3.4460    1.8340   -1.6090 H   0  0  0  0  0  0  0  0  0  0  0  0
   -4.3240    0.4220   -0.9940 H   0  0  0  0  0  0  0  0  0  0  0  0
   -1.3670    2.4140   -0.2140 H   0  0  0  0  0  0  0  0  0  0  0  0
   -0.4820   -0.2940    0.8170 H   0  0  0  0  0  0  0  0  0  0  0  0
  1  9  1  0  0  0  0
  1  2  1  0  0  0  0
  1 10  1  0  0  0  0
  2  3  1  0  0  0  0
  2 11  1  1  0  0  0
  3  4  1  0  0  0  0
  3 13  1  0  0  0  0
  4  8  1  0  0  0  0
  5  4  2  0  0  0  0
  6  7  2  0  0  0  0
  6  2  1  0  0  0  0
  8 14  1  0  0  0  0
 12  3  1  0  0  0  0
 15  6  1  0  0  0  0
 16 23  1  0  0  0  0
 16 15  1  0  0  0  0
 17 25  1  0  0  0  0
 17 16  1  0  0  0  0
 18 17  1  0  0  0  0
 18 19  1  0  0  0  0
 19 28  1  1  0  0  0
 19 20  1  0  0  0  0
 19 15  1  0  0  0  0
 20 34  1  0  0  0  0
 21 20  2  0  0  0  0
 22 16  1  0  0  0  0
 24 17  1  0  0  0  0
 26 18  1  0  0  0  0
 27 18  1  0  0  0  0
 29 39  1  0  0  0  0
 29 40  1  0  0  0  0
 29 38  1  0  0  0  0
 30 29  1  0  0  0  0
 31 33  1  0  0  0  0
 31 43  1  1  0  0  0
 31 30  1  0  0  0  0
 32 46  1  0  0  0  0
 32 31  1  0  0  0  0
 33 47  1  6  0  0  0
 33 35  1  0  0  0  0
 34 33  1  0  0  0  0
 34 48  1  0  0  0  0
 35 36  2  0  0  0  0
 35 37  1  0  0  0  0
 41 30  1  0  0  0  0
 42 30  1  0  0  0  0
 44 32  1  0  0  0  0
 45 32  1  0  0  0  0
M  END
$$$$
