DPK.pdb
 OpenBabel07022418153D

 50 50  0  0  1  0  0  0  0  0999 V2000
    2.8150   -2.8920    2.8890 N   0  0  0  0  0  0  0  0  0  0  0  0
    2.2300   -1.5230    2.9110 C   0  0  1  0  0  0  0  0  0  0  0  0
    3.1000   -0.8100    3.9420 C   0  0  0  0  0  0  0  0  0  0  0  0
    2.7740    0.5770    4.1880 C   0  0  0  0  0  0  0  0  0  0  0  0
    3.1140    1.4710    3.3750 O   0  0  0  0  0  0  0  0  0  0  0  0
    2.4880   -0.9000    1.6080 C   0  0  0  0  0  0  0  0  0  0  0  0
    3.5150   -1.3560    0.9920 O   0  0  0  0  0  0  0  0  0  0  0  0
    2.0810    0.9700    5.3180 O   0  0  0  0  0  0  0  0  0  0  0  0
    2.7090   -3.2190    3.8840 H   0  0  0  0  0  0  0  0  0  0  0  0
    3.8340   -2.8190    2.7100 H   0  0  0  0  0  0  0  0  0  0  0  0
    1.1990   -1.6490    3.2050 H   0  0  0  0  0  0  0  0  0  0  0  0
    4.1710   -0.8840    3.6620 H   0  0  0  0  0  0  0  0  0  0  0  0
    3.0460   -1.3540    4.9310 H   0  0  0  0  0  0  0  0  0  0  0  0
    1.6430    1.9060    5.3300 H   0  0  0  0  0  0  0  0  0  0  0  0
    1.6930    0.1400    1.0090 N   0  0  0  0  0  0  0  0  0  0  0  0
    2.0460    0.7180   -0.2740 C   0  0  0  0  0  0  0  0  0  0  0  0
    1.6640    2.1800   -0.1580 C   0  0  0  0  0  0  0  0  0  0  0  0
    0.4290    2.0790    0.6740 C   0  0  0  0  0  0  0  0  0  0  0  0
    0.4940    0.7740    1.4190 C   0  0  1  0  0  0  0  0  0  0  0  0
   -0.7270   -0.0300    1.1910 C   0  0  0  0  0  0  0  0  0  0  0  0
   -1.8250    0.4330    1.5260 O   0  0  0  0  0  0  0  0  0  0  0  0
    1.5530    0.2190   -1.1180 H   0  0  0  0  0  0  0  0  0  0  0  0
    3.1450    0.6600   -0.3810 H   0  0  0  0  0  0  0  0  0  0  0  0
    1.4650    2.5710   -1.1810 H   0  0  0  0  0  0  0  0  0  0  0  0
    2.4480    2.7510    0.3780 H   0  0  0  0  0  0  0  0  0  0  0  0
    0.2370    2.9590    1.3270 H   0  0  0  0  0  0  0  0  0  0  0  0
   -0.4210    1.9680   -0.0710 H   0  0  0  0  0  0  0  0  0  0  0  0
    0.5470    1.0500    2.5140 H   0  0  0  0  0  0  0  0  0  0  0  0
   -0.6460   -1.3020    0.6020 N   0  0  0  0  0  0  0  0  0  0  0  0
   -1.8280   -2.1310    0.3550 C   0  0  1  0  0  0  0  0  0  0  0  0
   -1.6790   -2.7260   -0.9870 C   0  0  0  0  0  0  0  0  0  0  0  0
   -1.5240   -1.9050   -2.1820 C   0  0  0  0  0  0  0  0  0  0  0  0
   -2.5260   -0.9470   -2.6490 C   0  0  0  0  0  0  0  0  0  0  0  0
   -2.8160    0.1870   -1.7210 C   0  0  0  0  0  0  0  0  0  0  0  0
   -3.8180    1.1020   -2.3470 N   0  0  0  0  0  0  0  0  0  0  0  0
   -1.6930   -3.3210    1.3210 C   0  0  0  0  0  0  0  0  0  0  0  0
   -0.6970   -3.3910    2.0750 O   0  0  0  0  0  0  0  0  0  0  0  0
   -2.6540   -4.2920    1.3520 O   0  0  0  0  0  0  0  0  0  0  0  0
    0.2560   -1.7540    0.2990 H   0  0  0  0  0  0  0  0  0  0  0  0
   -2.7690   -1.6930    0.6410 H   0  0  0  0  0  0  0  0  0  0  0  0
   -2.5240   -3.4800   -1.1910 H   0  0  0  0  0  0  0  0  0  0  0  0
   -0.7840   -3.4470   -0.9610 H   0  0  0  0  0  0  0  0  0  0  0  0
   -1.3020   -2.6470   -3.0410 H   0  0  0  0  0  0  0  0  0  0  0  0
   -0.4800   -1.4050   -2.1200 H   0  0  0  0  0  0  0  0  0  0  0  0
   -3.4670   -1.4250   -3.0310 H   0  0  0  0  0  0  0  0  0  0  0  0
   -2.1180   -0.4590   -3.6010 H   0  0  0  0  0  0  0  0  0  0  0  0
   -3.2560   -0.0960   -0.7530 H   0  0  0  0  0  0  0  0  0  0  0  0
   -1.9370    0.8320   -1.5460 H   0  0  0  0  0  0  0  0  0  0  0  0
   -4.6830    0.5420   -2.5410 H   0  0  0  0  0  0  0  0  0  0  0  0
   -3.4030    1.4440   -3.2360 H   0  0  0  0  0  0  0  0  0  0  0  0
  1  2  1  0  0  0  0
  1  9  1  0  0  0  0
  2 11  1  1  0  0  0
  2  3  1  0  0  0  0
  3  4  1  0  0  0  0
  3 13  1  0  0  0  0
  4  8  1  0  0  0  0
  5  4  2  0  0  0  0
  6  2  1  0  0  0  0
  7  6  2  0  0  0  0
  8 14  1  0  0  0  0
 10  1  1  0  0  0  0
 12  3  1  0  0  0  0
 15 19  1  0  0  0  0
 15  6  1  0  0  0  0
 16 17  1  0  0  0  0
 16 15  1  0  0  0  0
 17 25  1  0  0  0  0
 17 18  1  0  0  0  0
 18 26  1  0  0  0  0
 18 19  1  0  0  0  0
 19 28  1  1  0  0  0
 20 19  1  0  0  0  0
 20 21  2  0  0  0  0
 22 16  1  0  0  0  0
 23 16  1  0  0  0  0
 24 17  1  0  0  0  0
 27 18  1  0  0  0  0
 29 20  1  0  0  0  0
 30 29  1  0  0  0  0
 30 40  1  1  0  0  0
 30 36  1  0  0  0  0
 31 42  1  0  0  0  0
 31 30  1  0  0  0  0
 32 44  1  0  0  0  0
 32 31  1  0  0  0  0
 33 32  1  0  0  0  0
 33 34  1  0  0  0  0
 34 48  1  0  0  0  0
 34 47  1  0  0  0  0
 35 34  1  0  0  0  0
 36 38  2  0  0  0  0
 36 37  1  0  0  0  0
 39 29  1  0  0  0  0
 41 31  1  0  0  0  0
 43 32  1  0  0  0  0
 45 33  1  0  0  0  0
 46 33  1  0  0  0  0
 49 35  1  0  0  0  0
 50 35  1  0  0  0  0
M  END
$$$$
