DPN.pdb
 OpenBabel07022418153D

 43 43  0  0  1  0  0  0  0  0999 V2000
   -1.6050   -2.9430    2.5540 N   0  0  0  0  0  0  0  0  0  0  0  0
   -1.4570   -1.4580    2.7520 C   0  0  1  0  0  0  0  0  0  0  0  0
   -0.8190   -1.3810    4.1110 C   0  0  0  0  0  0  0  0  0  0  0  0
   -0.5070   -0.0910    4.6550 C   0  0  0  0  0  0  0  0  0  0  0  0
   -0.0880   -0.0470    5.8630 O   0  0  0  0  0  0  0  0  0  0  0  0
   -0.6500   -0.9230    1.6540 C   0  0  0  0  0  0  0  0  0  0  0  0
    0.4040   -1.5630    1.3740 O   0  0  0  0  0  0  0  0  0  0  0  0
   -0.6160    1.1010    4.0000 O   0  0  0  0  0  0  0  0  0  0  0  0
   -0.7050   -3.3640    2.8250 H   0  0  0  0  0  0  0  0  0  0  0  0
   -1.9520   -3.1510    1.6160 H   0  0  0  0  0  0  0  0  0  0  0  0
   -2.4840   -1.0950    2.8070 H   0  0  0  0  0  0  0  0  0  0  0  0
    0.1330   -2.0000    4.0510 H   0  0  0  0  0  0  0  0  0  0  0  0
   -1.4780   -1.9900    4.8060 H   0  0  0  0  0  0  0  0  0  0  0  0
   -0.5860    1.9680    4.5480 H   0  0  0  0  0  0  0  0  0  0  0  0
   -1.0020    0.2190    0.9340 N   0  0  0  0  0  0  0  0  0  0  0  0
   -2.2250    1.0180    1.2580 C   0  0  0  0  0  0  0  0  0  0  0  0
   -1.6550    2.4260    1.2190 C   0  0  0  0  0  0  0  0  0  0  0  0
   -0.2830    2.3190    0.5320 C   0  0  0  0  0  0  0  0  0  0  0  0
   -0.4850    0.9730   -0.1670 C   0  0  1  0  0  0  0  0  0  0  0  0
    0.6150    0.5290   -0.9610 C   0  0  0  0  0  0  0  0  0  0  0  0
    1.4180    1.4630   -1.3810 O   0  0  0  0  0  0  0  0  0  0  0  0
   -2.6540    0.7610    2.2130 H   0  0  0  0  0  0  0  0  0  0  0  0
   -2.9210    0.8270    0.4320 H   0  0  0  0  0  0  0  0  0  0  0  0
   -2.3220    2.9960    0.5350 H   0  0  0  0  0  0  0  0  0  0  0  0
   -1.5930    2.8990    2.2030 H   0  0  0  0  0  0  0  0  0  0  0  0
    0.5300    2.2960    1.2750 H   0  0  0  0  0  0  0  0  0  0  0  0
   -0.1560    3.1430   -0.1880 H   0  0  0  0  0  0  0  0  0  0  0  0
   -1.4090    1.1900   -0.8260 H   0  0  0  0  0  0  0  0  0  0  0  0
    3.5410   -1.3840    1.1840 N   0  0  0  0  0  0  0  0  0  0  0  0
    3.5810   -1.0140   -0.1870 C   0  0  0  0  0  0  0  0  0  0  0  0
    4.0280    0.1470   -0.5040 O   0  0  0  0  0  0  0  0  0  0  0  0
    3.1490   -1.8520   -1.3170 C   0  0  0  0  0  0  0  0  0  0  0  0
    2.1360   -1.0840   -2.1740 C   0  0  2  0  0  0  0  0  0  0  0  0
    0.9620   -0.7550   -1.3620 N   0  0  0  0  0  0  0  0  0  0  0  0
    1.7570   -1.8530   -3.3770 C   0  0  0  0  0  0  0  0  0  0  0  0
    0.5570   -2.1330   -3.5740 O   0  0  0  0  0  0  0  0  0  0  0  0
    2.7240   -2.2540   -4.2660 O   0  0  0  0  0  0  0  0  0  0  0  0
    3.0360   -0.7630    1.8640 H   0  0  0  0  0  0  0  0  0  0  0  0
    4.0120   -2.2630    1.4800 H   0  0  0  0  0  0  0  0  0  0  0  0
    4.0620   -1.9560   -1.9780 H   0  0  0  0  0  0  0  0  0  0  0  0
    2.7940   -2.8490   -1.0360 H   0  0  0  0  0  0  0  0  0  0  0  0
    2.6820   -0.1750   -2.5060 H   0  0  0  0  0  0  0  0  0  0  0  0
    0.3570   -1.5690   -1.1260 H   0  0  0  0  0  0  0  0  0  0  0  0
  1  2  1  0  0  0  0
  1  9  1  0  0  0  0
  2 11  1  1  0  0  0
  2  3  1  0  0  0  0
  3  4  1  0  0  0  0
  3 13  1  0  0  0  0
  4  5  2  0  0  0  0
  6  2  1  0  0  0  0
  7  6  2  0  0  0  0
  8 14  1  0  0  0  0
  8  4  1  0  0  0  0
 10  1  1  0  0  0  0
 12  3  1  0  0  0  0
 15 16  1  0  0  0  0
 15  6  1  0  0  0  0
 16 22  1  0  0  0  0
 17 16  1  0  0  0  0
 17 25  1  0  0  0  0
 18 17  1  0  0  0  0
 18 26  1  0  0  0  0
 19 28  1  6  0  0  0
 19 18  1  0  0  0  0
 19 15  1  0  0  0  0
 20 19  1  0  0  0  0
 21 20  2  0  0  0  0
 23 16  1  0  0  0  0
 24 17  1  0  0  0  0
 27 18  1  0  0  0  0
 29 39  1  0  0  0  0
 29 38  1  0  0  0  0
 30 29  1  0  0  0  0
 31 30  2  0  0  0  0
 32 41  1  0  0  0  0
 32 30  1  0  0  0  0
 33 42  1  6  0  0  0
 33 34  1  0  0  0  0
 33 32  1  0  0  0  0
 34 43  1  0  0  0  0
 34 20  1  0  0  0  0
 35 33  1  0  0  0  0
 36 35  1  0  0  0  0
 37 35  2  0  0  0  0
 40 32  1  0  0  0  0
M  END
$$$$
