DPT.pdb
 OpenBabel07022418153D

 43 43  0  0  1  0  0  0  0  0999 V2000
    1.5160   -3.8090   -1.2920 N   0  0  0  0  0  0  0  0  0  0  0  0
    1.7000   -3.6450    0.1330 C   0  0  1  0  0  0  0  0  0  0  0  0
    3.1280   -4.0720    0.4690 C   0  0  0  0  0  0  0  0  0  0  0  0
    3.3740   -3.9270    1.9070 C   0  0  0  0  0  0  0  0  0  0  0  0
    3.7630   -2.8260    2.3720 O   0  0  0  0  0  0  0  0  0  0  0  0
    1.4590   -2.2360    0.5100 C   0  0  0  0  0  0  0  0  0  0  0  0
    1.3930   -1.9390    1.7380 O   0  0  0  0  0  0  0  0  0  0  0  0
    3.1680   -5.0360    2.7460 O   0  0  0  0  0  0  0  0  0  0  0  0
    2.3600   -4.2080   -1.7470 H   0  0  0  0  0  0  0  0  0  0  0  0
    0.7110   -4.4710   -1.4580 H   0  0  0  0  0  0  0  0  0  0  0  0
    1.0060   -4.3060    0.7120 H   0  0  0  0  0  0  0  0  0  0  0  0
    3.8330   -3.4490   -0.1360 H   0  0  0  0  0  0  0  0  0  0  0  0
    3.2170   -5.1350    0.1340 H   0  0  0  0  0  0  0  0  0  0  0  0
    2.9660   -4.8040    3.7300 H   0  0  0  0  0  0  0  0  0  0  0  0
    1.3000   -1.2200   -0.4720 N   0  0  0  0  0  0  0  0  0  0  0  0
    1.3700   -1.3160   -1.8940 C   0  0  0  0  0  0  0  0  0  0  0  0
    1.4430    0.0720   -2.4580 C   0  0  0  0  0  0  0  0  0  0  0  0
    1.0230    0.9800   -1.3460 C   0  0  0  0  0  0  0  0  0  0  0  0
    1.0090    0.1540   -0.1230 C   0  0  1  0  0  0  0  0  0  0  0  0
   -0.2280    0.1960    0.6560 C   0  0  0  0  0  0  0  0  0  0  0  0
   -0.8360   -0.8800    0.8610 O   0  0  0  0  0  0  0  0  0  0  0  0
    2.2820   -1.8570   -2.2390 H   0  0  0  0  0  0  0  0  0  0  0  0
    0.4820   -1.8700   -2.3030 H   0  0  0  0  0  0  0  0  0  0  0  0
    2.4880    0.2700   -2.7960 H   0  0  0  0  0  0  0  0  0  0  0  0
    0.7650    0.1340   -3.3350 H   0  0  0  0  0  0  0  0  0  0  0  0
    0.0840    1.5260   -1.5570 H   0  0  0  0  0  0  0  0  0  0  0  0
    1.8050    1.7700   -1.2500 H   0  0  0  0  0  0  0  0  0  0  0  0
    1.8480    0.4650    0.5760 H   0  0  0  0  0  0  0  0  0  0  0  0
   -1.2850    3.2980    3.5050 C   0  0  0  0  0  0  0  0  0  0  0  0
   -1.8510    1.9260    3.3730 C   0  0  1  0  0  0  0  0  0  0  0  0
   -3.1250    1.9340    3.9450 O   0  0  0  0  0  0  0  0  0  0  0  0
   -2.0010    1.4460    1.9670 C   0  0  2  0  0  0  0  0  0  0  0  0
   -0.8050    1.3660    1.2070 N   0  0  0  0  0  0  0  0  0  0  0  0
   -3.0200    2.2470    1.2630 C   0  0  0  0  0  0  0  0  0  0  0  0
   -4.1370    2.4260    1.7830 O   0  0  0  0  0  0  0  0  0  0  0  0
   -2.7490    2.8010    0.0340 O   0  0  0  0  0  0  0  0  0  0  0  0
   -0.1960    3.1730    3.7820 H   0  0  0  0  0  0  0  0  0  0  0  0
   -1.3890    3.9170    2.5940 H   0  0  0  0  0  0  0  0  0  0  0  0
   -1.7220    3.8960    4.3340 H   0  0  0  0  0  0  0  0  0  0  0  0
   -1.2670    1.1590    3.9560 H   0  0  0  0  0  0  0  0  0  0  0  0
   -3.3690    1.1000    4.3800 H   0  0  0  0  0  0  0  0  0  0  0  0
   -2.4150    0.3960    2.0410 H   0  0  0  0  0  0  0  0  0  0  0  0
   -0.2950    2.2590    1.0330 H   0  0  0  0  0  0  0  0  0  0  0  0
  1  2  1  0  0  0  0
  2  3  1  0  0  0  0
  2  6  1  0  0  0  0
  2 11  1  1  0  0  0
  3  4  1  0  0  0  0
  4  5  2  0  0  0  0
  4  8  1  0  0  0  0
  6  7  2  0  0  0  0
  8 14  1  0  0  0  0
  9  1  1  0  0  0  0
 10  1  1  0  0  0  0
 12  3  1  0  0  0  0
 13  3  1  0  0  0  0
 15 19  1  0  0  0  0
 15  6  1  0  0  0  0
 16 15  1  0  0  0  0
 17 16  1  0  0  0  0
 17 18  1  0  0  0  0
 18 27  1  0  0  0  0
 18 19  1  0  0  0  0
 19 28  1  1  0  0  0
 19 20  1  0  0  0  0
 20 21  2  0  0  0  0
 20 33  1  0  0  0  0
 22 16  1  0  0  0  0
 23 16  1  0  0  0  0
 24 17  1  0  0  0  0
 25 17  1  0  0  0  0
 26 18  1  0  0  0  0
 29 37  1  0  0  0  0
 29 39  1  0  0  0  0
 30 29  1  0  0  0  0
 30 31  1  0  0  0  0
 30 40  1  1  0  0  0
 31 41  1  0  0  0  0
 32 42  1  1  0  0  0
 32 30  1  0  0  0  0
 33 32  1  0  0  0  0
 34 35  1  0  0  0  0
 34 32  1  0  0  0  0
 36 34  2  0  0  0  0
 38 29  1  0  0  0  0
 43 33  1  0  0  0  0
M  END
$$$$
