DPY.pdb
 OpenBabel07022418153D

 50 51  0  0  1  0  0  0  0  0999 V2000
    3.6920   -0.3070   -1.9480 N   0  0  0  0  0  0  0  0  0  0  0  0
    3.2750    0.5260   -0.7660 C   0  0  1  0  0  0  0  0  0  0  0  0
    2.8450    1.8140   -1.4580 C   0  0  0  0  0  0  0  0  0  0  0  0
    2.3620    2.8810   -0.6260 C   0  0  0  0  0  0  0  0  0  0  0  0
    2.2570    2.8100    0.6040 O   0  0  0  0  0  0  0  0  0  0  0  0
    2.1660   -0.1710   -0.0970 C   0  0  0  0  0  0  0  0  0  0  0  0
    1.2570   -0.6940   -0.7720 O   0  0  0  0  0  0  0  0  0  0  0  0
    1.9740    4.0930   -1.2050 O   0  0  0  0  0  0  0  0  0  0  0  0
    3.9210   -1.2660   -1.6050 H   0  0  0  0  0  0  0  0  0  0  0  0
    2.8290   -0.3050   -2.5450 H   0  0  0  0  0  0  0  0  0  0  0  0
    4.1910    0.6360   -0.1660 H   0  0  0  0  0  0  0  0  0  0  0  0
    3.7520    2.1010   -2.0790 H   0  0  0  0  0  0  0  0  0  0  0  0
    2.1140    1.4760   -2.2400 H   0  0  0  0  0  0  0  0  0  0  0  0
    1.9880    4.9630   -0.6670 H   0  0  0  0  0  0  0  0  0  0  0  0
    2.0790   -0.2840    1.3340 N   0  0  0  0  0  0  0  0  0  0  0  0
    3.1100    0.2070    2.2150 C   0  0  0  0  0  0  0  0  0  0  0  0
    2.2790    0.7460    3.3850 C   0  0  0  0  0  0  0  0  0  0  0  0
    1.2850   -0.4250    3.5310 C   0  0  0  0  0  0  0  0  0  0  0  0
    1.0400   -0.8700    2.1090 C   0  0  1  0  0  0  0  0  0  0  0  0
   -0.3380   -0.4790    1.6920 C   0  0  0  0  0  0  0  0  0  0  0  0
   -0.4440    0.4000    0.8060 O   0  0  0  0  0  0  0  0  0  0  0  0
    3.6670   -0.6990    2.6110 H   0  0  0  0  0  0  0  0  0  0  0  0
    3.7910    0.9390    1.7940 H   0  0  0  0  0  0  0  0  0  0  0  0
    1.7200    1.6050    3.0060 H   0  0  0  0  0  0  0  0  0  0  0  0
    2.8670    0.9030    4.2860 H   0  0  0  0  0  0  0  0  0  0  0  0
    1.7620   -1.2310    4.1520 H   0  0  0  0  0  0  0  0  0  0  0  0
    0.3470   -0.0880    4.0120 H   0  0  0  0  0  0  0  0  0  0  0  0
    1.1400   -1.9930    2.1250 H   0  0  0  0  0  0  0  0  0  0  0  0
   -1.1310   -4.4230   -3.0440 O   0  0  0  0  0  0  0  0  0  0  0  0
   -1.7550   -3.7590   -2.0050 C   0  0  0  0  0  0  0  0  0  0  0  0
   -2.6090   -2.6960   -2.2000 C   0  0  0  0  0  0  0  0  0  0  0  0
   -3.2170   -2.0540   -1.1490 C   0  0  0  0  0  0  0  0  0  0  0  0
   -2.9840   -2.4610    0.1420 C   0  0  0  0  0  0  0  0  0  0  0  0
   -3.6190   -1.7950    1.2950 C   0  0  0  0  0  0  0  0  0  0  0  0
   -2.7840   -0.6530    1.8260 C   0  0  2  0  0  0  0  0  0  0  0  0
   -1.4910   -1.0700    2.2680 N   0  0  0  0  0  0  0  0  0  0  0  0
   -3.5170   -0.0580    2.9740 C   0  0  0  0  0  0  0  0  0  0  0  0
   -4.6850    0.3630    2.7520 O   0  0  0  0  0  0  0  0  0  0  0  0
   -2.1310   -3.5240    0.3480 C   0  0  0  0  0  0  0  0  0  0  0  0
   -1.5280   -4.1620   -0.6920 C   0  0  0  0  0  0  0  0  0  0  0  0
   -2.9870    0.0510    4.2470 O   0  0  0  0  0  0  0  0  0  0  0  0
   -0.7810   -3.9480   -3.8740 H   0  0  0  0  0  0  0  0  0  0  0  0
   -2.7710   -2.3980   -3.2460 H   0  0  0  0  0  0  0  0  0  0  0  0
   -3.8750   -1.2290   -1.3600 H   0  0  0  0  0  0  0  0  0  0  0  0
   -4.5810   -1.3710    0.9540 H   0  0  0  0  0  0  0  0  0  0  0  0
   -3.7970   -2.5290    2.1050 H   0  0  0  0  0  0  0  0  0  0  0  0
   -2.7140    0.1310    1.0430 H   0  0  0  0  0  0  0  0  0  0  0  0
   -1.3580   -1.7950    3.0000 H   0  0  0  0  0  0  0  0  0  0  0  0
   -1.9120   -3.8880    1.3650 H   0  0  0  0  0  0  0  0  0  0  0  0
   -0.8570   -4.9960   -0.5510 H   0  0  0  0  0  0  0  0  0  0  0  0
  1  9  1  0  0  0  0
  1  2  1  0  0  0  0
  2 11  1  1  0  0  0
  2  6  1  0  0  0  0
  3  2  1  0  0  0  0
  3  4  1  0  0  0  0
  4  5  2  0  0  0  0
  6 15  1  0  0  0  0
  7  6  2  0  0  0  0
  8 14  1  0  0  0  0
  8  4  1  0  0  0  0
 10  1  1  0  0  0  0
 12  3  1  0  0  0  0
 13  3  1  0  0  0  0
 15 19  1  0  0  0  0
 15 16  1  0  0  0  0
 16 22  1  0  0  0  0
 16 17  1  0  0  0  0
 17 18  1  0  0  0  0
 17 25  1  0  0  0  0
 18 27  1  0  0  0  0
 18 26  1  0  0  0  0
 19 28  1  6  0  0  0
 19 18  1  0  0  0  0
 20 19  1  0  0  0  0
 20 36  1  0  0  0  0
 21 20  2  0  0  0  0
 23 16  1  0  0  0  0
 24 17  1  0  0  0  0
 29 30  1  0  0  0  0
 30 40  1  0  0  0  0
 31 30  2  0  0  0  0
 31 32  1  0  0  0  0
 32 33  2  0  0  0  0
 33 39  1  0  0  0  0
 33 34  1  0  0  0  0
 34 35  1  0  0  0  0
 34 46  1  0  0  0  0
 35 47  1  6  0  0  0
 35 36  1  0  0  0  0
 35 37  1  0  0  0  0
 36 48  1  0  0  0  0
 37 41  1  0  0  0  0
 38 37  2  0  0  0  0
 39 49  1  0  0  0  0
 40 50  1  0  0  0  0
 40 39  2  0  0  0  0
 42 29  1  0  0  0  0
 43 31  1  0  0  0  0
 44 32  1  0  0  0  0
 45 34  1  0  0  0  0
M  END
$$$$
