DQC.pdb
 OpenBabel07022418143D

 43 42  0  0  1  0  0  0  0  0999 V2000
    3.2940   -2.5770    3.8710 N   0  0  0  0  0  0  0  0  0  0  0  0
    2.0530   -2.0240    3.3050 C   0  0  1  0  0  0  0  0  0  0  0  0
    1.4310   -1.2520    4.4610 C   0  0  0  0  0  0  0  0  0  0  0  0
    0.1690   -0.5930    4.1110 C   0  0  0  0  0  0  0  0  0  0  0  0
    0.2170    0.4730    3.4050 O   0  0  0  0  0  0  0  0  0  0  0  0
    2.4180   -1.1610    2.1780 C   0  0  0  0  0  0  0  0  0  0  0  0
    3.6000   -0.6870    2.0480 O   0  0  0  0  0  0  0  0  0  0  0  0
   -1.0990   -1.0110    4.4720 O   0  0  0  0  0  0  0  0  0  0  0  0
    3.0410   -3.4400    4.4110 H   0  0  0  0  0  0  0  0  0  0  0  0
    3.8650   -2.8630    3.0570 H   0  0  0  0  0  0  0  0  0  0  0  0
    1.4040   -2.8780    3.0580 H   0  0  0  0  0  0  0  0  0  0  0  0
    2.1770   -0.5270    4.8500 H   0  0  0  0  0  0  0  0  0  0  0  0
    1.1920   -2.0290    5.2460 H   0  0  0  0  0  0  0  0  0  0  0  0
   -1.8670   -0.3550    4.6940 H   0  0  0  0  0  0  0  0  0  0  0  0
    0.7250   -3.5140   -3.3700 N   0  0  0  0  0  0  0  0  0  0  0  0
    1.4670   -2.4390   -2.8420 C   0  0  0  0  0  0  0  0  0  0  0  0
    2.5350   -2.0940   -3.4410 O   0  0  0  0  0  0  0  0  0  0  0  0
    1.0590   -1.6820   -1.6100 C   0  0  0  0  0  0  0  0  0  0  0  0
    2.1650   -0.7470   -1.1960 C   0  0  0  0  0  0  0  0  0  0  0  0
    1.7820    0.0390    0.0540 C   0  0  2  0  0  0  0  0  0  0  0  0
    1.5000   -0.7940    1.1620 N   0  0  0  0  0  0  0  0  0  0  0  0
    0.7010    0.9440   -0.3840 C   0  0  0  0  0  0  0  0  0  0  0  0
    0.9270    1.7580   -1.3480 O   0  0  0  0  0  0  0  0  0  0  0  0
    0.1240   -4.1320   -2.7860 H   0  0  0  0  0  0  0  0  0  0  0  0
    0.7740   -3.7080   -4.3900 H   0  0  0  0  0  0  0  0  0  0  0  0
    0.1580   -1.0620   -1.8040 H   0  0  0  0  0  0  0  0  0  0  0  0
    0.8320   -2.4450   -0.8470 H   0  0  0  0  0  0  0  0  0  0  0  0
    2.2500    0.0070   -2.0080 H   0  0  0  0  0  0  0  0  0  0  0  0
    3.1540   -1.2170   -1.1050 H   0  0  0  0  0  0  0  0  0  0  0  0
    2.7280    0.6080    0.3080 H   0  0  0  0  0  0  0  0  0  0  0  0
    0.5160   -1.1840    1.2420 H   0  0  0  0  0  0  0  0  0  0  0  0
   -0.5970    1.0260    0.1450 N   0  0  0  0  0  0  0  0  0  0  0  0
   -1.6130    1.9450   -0.3370 C   0  0  1  0  0  0  0  0  0  0  0  0
   -2.7640    1.0590   -0.8090 C   0  0  0  0  0  0  0  0  0  0  0  0
   -3.3490    0.0840    0.5810 S   0  0  0  0  0  0  0  0  0  0  0  0
   -2.1310    2.8410    0.7070 C   0  0  0  0  0  0  0  0  0  0  0  0
   -1.6970    2.7880    1.8690 O   0  0  0  0  0  0  0  0  0  0  0  0
   -3.1110    3.7520    0.3910 O   0  0  0  0  0  0  0  0  0  0  0  0
   -0.8490    0.3870    0.9190 H   0  0  0  0  0  0  0  0  0  0  0  0
   -1.2560    2.5290   -1.2120 H   0  0  0  0  0  0  0  0  0  0  0  0
   -3.5980    1.6650   -1.2110 H   0  0  0  0  0  0  0  0  0  0  0  0
   -2.3660    0.3570   -1.5730 H   0  0  0  0  0  0  0  0  0  0  0  0
   -3.3980    0.8050    1.7650 H   0  0  0  0  0  0  0  0  0  0  0  0
  1  9  1  0  0  0  0
  2 11  1  6  0  0  0
  2  1  1  0  0  0  0
  2  3  1  0  0  0  0
  3 12  1  0  0  0  0
  3 13  1  0  0  0  0
  4  3  1  0  0  0  0
  4  8  1  0  0  0  0
  5  4  2  0  0  0  0
  6  2  1  0  0  0  0
  7  6  2  0  0  0  0
  8 14  1  0  0  0  0
 10  1  1  0  0  0  0
 15 16  1  0  0  0  0
 15 24  1  0  0  0  0
 16 18  1  0  0  0  0
 17 16  2  0  0  0  0
 18 19  1  0  0  0  0
 18 27  1  0  0  0  0
 19 29  1  0  0  0  0
 19 20  1  0  0  0  0
 20 30  1  1  0  0  0
 20 21  1  0  0  0  0
 21 31  1  0  0  0  0
 21  6  1  0  0  0  0
 22 20  1  0  0  0  0
 22 32  1  0  0  0  0
 23 22  2  0  0  0  0
 25 15  1  0  0  0  0
 26 18  1  0  0  0  0
 28 19  1  0  0  0  0
 32 39  1  0  0  0  0
 33 40  1  6  0  0  0
 33 32  1  0  0  0  0
 33 36  1  0  0  0  0
 34 33  1  0  0  0  0
 34 35  1  0  0  0  0
 35 43  1  0  0  0  0
 36 37  1  0  0  0  0
 38 36  2  0  0  0  0
 41 34  1  0  0  0  0
 42 34  1  0  0  0  0
M  END
$$$$
