DQH.pdb
 OpenBabel07022418143D

 49 49  0  0  1  0  0  0  0  0999 V2000
    4.0910   -1.5230    4.6040 N   0  0  0  0  0  0  0  0  0  0  0  0
    3.5880   -1.6310    3.2490 C   0  0  1  0  0  0  0  0  0  0  0  0
    2.7610   -2.9180    3.1450 C   0  0  0  0  0  0  0  0  0  0  0  0
    1.6440   -2.8280    4.1280 C   0  0  0  0  0  0  0  0  0  0  0  0
    1.8920   -3.1380    5.3400 O   0  0  0  0  0  0  0  0  0  0  0  0
    2.6780   -0.5080    2.9520 C   0  0  0  0  0  0  0  0  0  0  0  0
    2.3490    0.2750    3.8830 O   0  0  0  0  0  0  0  0  0  0  0  0
    0.3640   -2.4330    3.8140 O   0  0  0  0  0  0  0  0  0  0  0  0
    4.1660   -2.4790    4.9820 H   0  0  0  0  0  0  0  0  0  0  0  0
    3.5260   -0.8760    5.1970 H   0  0  0  0  0  0  0  0  0  0  0  0
    4.4540   -1.7060    2.5750 H   0  0  0  0  0  0  0  0  0  0  0  0
    3.3940   -3.8050    3.3510 H   0  0  0  0  0  0  0  0  0  0  0  0
    2.3090   -2.9830    2.1380 H   0  0  0  0  0  0  0  0  0  0  0  0
   -0.2470   -2.0770    4.5320 H   0  0  0  0  0  0  0  0  0  0  0  0
   -0.5670    3.9170   -0.9210 N   0  0  0  0  0  0  0  0  0  0  0  0
    0.5030    2.9960   -0.7450 C   0  0  0  0  0  0  0  0  0  0  0  0
    0.6570    2.0180   -1.5310 O   0  0  0  0  0  0  0  0  0  0  0  0
    1.4390    3.1970    0.3640 C   0  0  0  0  0  0  0  0  0  0  0  0
    2.0760    1.9400    0.7850 C   0  0  0  0  0  0  0  0  0  0  0  0
    1.2310    0.8960    1.4220 C   0  0  2  0  0  0  0  0  0  0  0  0
    2.1400   -0.2410    1.6780 N   0  0  0  0  0  0  0  0  0  0  0  0
   -0.0170    0.5100    0.8090 C   0  0  0  0  0  0  0  0  0  0  0  0
   -1.0170    1.3160    0.7640 O   0  0  0  0  0  0  0  0  0  0  0  0
   -0.7160    4.7010   -0.2600 H   0  0  0  0  0  0  0  0  0  0  0  0
   -1.2050    3.7830   -1.7400 H   0  0  0  0  0  0  0  0  0  0  0  0
    0.9750    3.7250    1.2290 H   0  0  0  0  0  0  0  0  0  0  0  0
    2.2500    3.8980   -0.0010 H   0  0  0  0  0  0  0  0  0  0  0  0
    2.8550    2.2100    1.5720 H   0  0  0  0  0  0  0  0  0  0  0  0
    2.7290    1.5090   -0.0350 H   0  0  0  0  0  0  0  0  0  0  0  0
    1.0000    1.2790    2.4550 H   0  0  0  0  0  0  0  0  0  0  0  0
    2.3750   -0.8460    0.8810 H   0  0  0  0  0  0  0  0  0  0  0  0
   -0.2850   -0.7500    0.2040 N   0  0  0  0  0  0  0  0  0  0  0  0
   -1.5810   -1.0730   -0.4080 C   0  0  1  0  0  0  0  0  0  0  0  0
   -1.4210   -1.5050   -1.8150 C   0  0  0  0  0  0  0  0  0  0  0  0
   -2.7270   -1.7590   -2.4510 C   0  0  0  0  0  0  0  0  0  0  0  0
   -2.9160   -2.2180   -3.7730 C   0  0  0  0  0  0  0  0  0  0  0  0
   -4.2160   -2.3480   -4.0440 N   0  0  0  0  0  0  0  0  0  0  0  0
   -4.8860   -1.9850   -2.9280 C   0  0  0  0  0  0  0  0  0  0  0  0
   -3.9840   -1.6400   -2.0010 N   0  0  0  0  0  0  0  0  0  0  0  0
   -2.0490   -2.2810    0.3720 C   0  0  0  0  0  0  0  0  0  0  0  0
   -1.3420   -2.8000    1.2830 O   0  0  0  0  0  0  0  0  0  0  0  0
   -3.2750   -2.8190    0.0750 O   0  0  0  0  0  0  0  0  0  0  0  0
    0.4760   -1.4470    0.2080 H   0  0  0  0  0  0  0  0  0  0  0  0
   -2.3310   -0.3060   -0.3100 H   0  0  0  0  0  0  0  0  0  0  0  0
   -0.8850   -0.7790   -2.4600 H   0  0  0  0  0  0  0  0  0  0  0  0
   -0.8810   -2.5000   -1.8370 H   0  0  0  0  0  0  0  0  0  0  0  0
   -2.0960   -2.4220   -4.4390 H   0  0  0  0  0  0  0  0  0  0  0  0
   -4.6860   -2.6650   -4.9260 H   0  0  0  0  0  0  0  0  0  0  0  0
   -5.9610   -1.9870   -2.8430 H   0  0  0  0  0  0  0  0  0  0  0  0
  1  9  1  0  0  0  0
  1 10  1  0  0  0  0
  2 11  1  6  0  0  0
  2  1  1  0  0  0  0
  3  2  1  0  0  0  0
  3 12  1  0  0  0  0
  3  4  1  0  0  0  0
  4  5  2  0  0  0  0
  6  2  1  0  0  0  0
  6  7  2  0  0  0  0
  8  4  1  0  0  0  0
  8 14  1  0  0  0  0
 13  3  1  0  0  0  0
 15 16  1  0  0  0  0
 15 24  1  0  0  0  0
 16 18  1  0  0  0  0
 17 16  2  0  0  0  0
 18 19  1  0  0  0  0
 18 26  1  0  0  0  0
 19 20  1  0  0  0  0
 19 28  1  0  0  0  0
 20 21  1  0  0  0  0
 20 30  1  1  0  0  0
 21  6  1  0  0  0  0
 22 20  1  0  0  0  0
 23 22  2  0  0  0  0
 25 15  1  0  0  0  0
 27 18  1  0  0  0  0
 29 19  1  0  0  0  0
 31 21  1  0  0  0  0
 32 43  1  0  0  0  0
 32 22  1  0  0  0  0
 33 44  1  1  0  0  0
 33 32  1  0  0  0  0
 33 40  1  0  0  0  0
 34 33  1  0  0  0  0
 35 39  1  0  0  0  0
 35 34  1  0  0  0  0
 36 35  2  0  0  0  0
 37 36  1  0  0  0  0
 37 38  1  0  0  0  0
 38 49  1  0  0  0  0
 38 39  2  0  0  0  0
 40 41  1  0  0  0  0
 42 40  2  0  0  0  0
 45 34  1  0  0  0  0
 46 34  1  0  0  0  0
 47 36  1  0  0  0  0
 48 37  1  0  0  0  0
M  END
$$$$
