DQL.pdb
 OpenBabel07022418143D

 51 50  0  0  1  0  0  0  0  0999 V2000
    0.7570   -2.7750    3.6270 N   0  0  0  0  0  0  0  0  0  0  0  0
   -0.2930   -1.8080    3.6210 C   0  0  1  0  0  0  0  0  0  0  0  0
   -0.2590   -0.9300    4.8440 C   0  0  0  0  0  0  0  0  0  0  0  0
    0.9910   -0.1760    4.9780 C   0  0  0  0  0  0  0  0  0  0  0  0
    1.8980   -0.2970    4.1270 O   0  0  0  0  0  0  0  0  0  0  0  0
   -0.2380   -0.9440    2.4060 C   0  0  0  0  0  0  0  0  0  0  0  0
    0.6610   -1.1520    1.5970 O   0  0  0  0  0  0  0  0  0  0  0  0
    1.1720    0.6730    6.0470 O   0  0  0  0  0  0  0  0  0  0  0  0
    0.4420   -3.5980    3.0670 H   0  0  0  0  0  0  0  0  0  0  0  0
    0.9650   -3.1160    4.5910 H   0  0  0  0  0  0  0  0  0  0  0  0
   -1.3070   -2.2820    3.6020 H   0  0  0  0  0  0  0  0  0  0  0  0
   -0.3580   -1.5820    5.7340 H   0  0  0  0  0  0  0  0  0  0  0  0
   -1.1550   -0.2690    4.8330 H   0  0  0  0  0  0  0  0  0  0  0  0
    2.0430    1.1510    6.2290 H   0  0  0  0  0  0  0  0  0  0  0  0
    3.3420    1.4480    0.6260 N   0  0  0  0  0  0  0  0  0  0  0  0
    1.9130    1.5300    0.3950 C   0  0  0  0  0  0  0  0  0  0  0  0
    1.5710    1.0350   -0.7000 O   0  0  0  0  0  0  0  0  0  0  0  0
    1.0370    2.1370    1.3750 C   0  0  0  0  0  0  0  0  0  0  0  0
   -0.4050    2.1810    1.1730 C   0  0  0  0  0  0  0  0  0  0  0  0
   -1.2310    0.9700    1.0490 C   0  0  2  0  0  0  0  0  0  0  0  0
   -1.1860    0.0860    2.1850 N   0  0  0  0  0  0  0  0  0  0  0  0
   -1.3900    0.3600   -0.2710 C   0  0  0  0  0  0  0  0  0  0  0  0
   -1.3870    1.1530   -1.2580 O   0  0  0  0  0  0  0  0  0  0  0  0
    4.0090    1.6960   -0.1210 H   0  0  0  0  0  0  0  0  0  0  0  0
    3.6600    1.1380    1.5510 H   0  0  0  0  0  0  0  0  0  0  0  0
    1.3780    3.2250    1.4480 H   0  0  0  0  0  0  0  0  0  0  0  0
    1.3390    1.7820    2.4180 H   0  0  0  0  0  0  0  0  0  0  0  0
   -0.6160    2.8990    0.3150 H   0  0  0  0  0  0  0  0  0  0  0  0
   -0.8280    2.7790    2.0500 H   0  0  0  0  0  0  0  0  0  0  0  0
   -2.3240    1.4150    1.1770 H   0  0  0  0  0  0  0  0  0  0  0  0
   -1.9000    0.1520    2.9800 H   0  0  0  0  0  0  0  0  0  0  0  0
    1.0900   -1.3530   -3.3240 C   0  0  0  0  0  0  0  0  0  0  0  0
    0.5710   -2.4900   -2.4720 C   0  0  0  0  0  0  0  0  0  0  0  0
    1.3080   -2.6450   -1.1700 C   0  0  0  0  0  0  0  0  0  0  0  0
   -0.8960   -2.5790   -2.4060 C   0  0  0  0  0  0  0  0  0  0  0  0
   -1.7090   -1.4880   -1.8960 C   0  0  2  0  0  0  0  0  0  0  0  0
   -1.5530   -1.0150   -0.5700 N   0  0  0  0  0  0  0  0  0  0  0  0
   -3.1790   -1.7840   -2.0990 C   0  0  0  0  0  0  0  0  0  0  0  0
   -3.9680   -1.5850   -1.1540 O   0  0  0  0  0  0  0  0  0  0  0  0
   -3.6910   -2.2670   -3.2900 O   0  0  0  0  0  0  0  0  0  0  0  0
    2.1340   -1.1640   -2.9930 H   0  0  0  0  0  0  0  0  0  0  0  0
    1.1520   -1.6160   -4.4000 H   0  0  0  0  0  0  0  0  0  0  0  0
    0.4490   -0.4500   -3.2650 H   0  0  0  0  0  0  0  0  0  0  0  0
    0.8880   -3.4160   -3.0680 H   0  0  0  0  0  0  0  0  0  0  0  0
    1.7720   -1.6870   -0.8600 H   0  0  0  0  0  0  0  0  0  0  0  0
    0.6760   -3.0690   -0.3660 H   0  0  0  0  0  0  0  0  0  0  0  0
    2.1820   -3.3570   -1.2400 H   0  0  0  0  0  0  0  0  0  0  0  0
   -1.2630   -2.9070   -3.4270 H   0  0  0  0  0  0  0  0  0  0  0  0
   -1.1310   -3.4970   -1.7810 H   0  0  0  0  0  0  0  0  0  0  0  0
   -1.5500   -0.5930   -2.5790 H   0  0  0  0  0  0  0  0  0  0  0  0
   -1.5690   -1.7070    0.2290 H   0  0  0  0  0  0  0  0  0  0  0  0
  1 10  1  0  0  0  0
  2 11  1  6  0  0  0
  2  1  1  0  0  0  0
  2  3  1  0  0  0  0
  3  4  1  0  0  0  0
  3 12  1  0  0  0  0
  4  8  1  0  0  0  0
  5  4  2  0  0  0  0
  6  2  1  0  0  0  0
  7  6  2  0  0  0  0
  8 14  1  0  0  0  0
  9  1  1  0  0  0  0
 13  3  1  0  0  0  0
 15 25  1  0  0  0  0
 16 15  1  0  0  0  0
 16 18  1  0  0  0  0
 17 16  2  0  0  0  0
 18 26  1  0  0  0  0
 18 27  1  0  0  0  0
 19 18  1  0  0  0  0
 19 29  1  0  0  0  0
 20 19  1  0  0  0  0
 20 30  1  1  0  0  0
 20 21  1  0  0  0  0
 21  6  1  0  0  0  0
 21 31  1  0  0  0  0
 22 20  1  0  0  0  0
 23 22  2  0  0  0  0
 24 15  1  0  0  0  0
 28 19  1  0  0  0  0
 32 43  1  0  0  0  0
 32 41  1  0  0  0  0
 32 33  1  0  0  0  0
 33 35  1  0  0  0  0
 33 34  1  0  0  0  0
 34 45  1  0  0  0  0
 34 46  1  0  0  0  0
 35 36  1  0  0  0  0
 35 49  1  0  0  0  0
 36 50  1  6  0  0  0
 36 37  1  0  0  0  0
 37 22  1  0  0  0  0
 37 51  1  0  0  0  0
 38 36  1  0  0  0  0
 38 39  1  0  0  0  0
 40 38  2  0  0  0  0
 42 32  1  0  0  0  0
 44 33  1  0  0  0  0
 47 34  1  0  0  0  0
 48 35  1  0  0  0  0
M  END
$$$$
