DQW.pdb
 OpenBabel07022418143D

 56 57  0  0  1  0  0  0  0  0999 V2000
    4.4000    3.1590   -0.5920 N   0  0  0  0  0  0  0  0  0  0  0  0
    3.0690    2.6870   -0.9930 C   0  0  1  0  0  0  0  0  0  0  0  0
    3.2140    1.4350   -1.8560 C   0  0  0  0  0  0  0  0  0  0  0  0
    3.9030    0.3560   -1.0930 C   0  0  0  0  0  0  0  0  0  0  0  0
    4.2570    0.5790    0.0900 O   0  0  0  0  0  0  0  0  0  0  0  0
    2.2500    2.4060    0.2100 C   0  0  0  0  0  0  0  0  0  0  0  0
    2.7540    2.5610    1.3540 O   0  0  0  0  0  0  0  0  0  0  0  0
    4.1380   -0.8550   -1.6960 O   0  0  0  0  0  0  0  0  0  0  0  0
    4.5310    3.0820    0.4280 H   0  0  0  0  0  0  0  0  0  0  0  0
    5.0940    2.6550   -1.1680 H   0  0  0  0  0  0  0  0  0  0  0  0
    2.6350    3.4750   -1.6260 H   0  0  0  0  0  0  0  0  0  0  0  0
    2.2060    1.1110   -2.1560 H   0  0  0  0  0  0  0  0  0  0  0  0
    3.7700    1.7240   -2.7730 H   0  0  0  0  0  0  0  0  0  0  0  0
    4.7180   -1.5320   -1.2200 H   0  0  0  0  0  0  0  0  0  0  0  0
   -2.0070    2.4350    5.0620 N   0  0  0  0  0  0  0  0  0  0  0  0
   -1.3140    2.6690    3.8360 C   0  0  0  0  0  0  0  0  0  0  0  0
   -0.1560    3.1040    3.9010 O   0  0  0  0  0  0  0  0  0  0  0  0
   -1.9660    2.4000    2.5500 C   0  0  0  0  0  0  0  0  0  0  0  0
   -1.0680    2.5730    1.3640 C   0  0  0  0  0  0  0  0  0  0  0  0
    0.1330    1.6960    1.3240 C   0  0  2  0  0  0  0  0  0  0  0  0
    0.9180    1.9680    0.1240 N   0  0  0  0  0  0  0  0  0  0  0  0
   -0.2690    0.2730    1.3850 C   0  0  0  0  0  0  0  0  0  0  0  0
   -0.9280   -0.2390    2.3230 O   0  0  0  0  0  0  0  0  0  0  0  0
   -1.8230    3.0230    5.8890 H   0  0  0  0  0  0  0  0  0  0  0  0
   -2.6890    1.6750    5.1070 H   0  0  0  0  0  0  0  0  0  0  0  0
   -2.4790    1.4150    2.5870 H   0  0  0  0  0  0  0  0  0  0  0  0
   -2.8100    3.1370    2.4670 H   0  0  0  0  0  0  0  0  0  0  0  0
   -1.6650    2.3510    0.4320 H   0  0  0  0  0  0  0  0  0  0  0  0
   -0.7450    3.6530    1.3490 H   0  0  0  0  0  0  0  0  0  0  0  0
    0.7660    1.8810    2.2120 H   0  0  0  0  0  0  0  0  0  0  0  0
    0.4600    1.8270   -0.7870 H   0  0  0  0  0  0  0  0  0  0  0  0
    0.1250   -0.5670    0.3010 N   0  0  0  0  0  0  0  0  0  0  0  0
   -0.2010   -1.9760    0.2310 C   0  0  1  0  0  0  0  0  0  0  0  0
   -1.0420   -2.2220   -0.9930 C   0  0  0  0  0  0  0  0  0  0  0  0
   -1.4410   -3.6110   -1.1820 C   0  0  0  0  0  0  0  0  0  0  0  0
   -0.8990   -4.4890   -2.0940 C   0  0  0  0  0  0  0  0  0  0  0  0
   -1.5300   -5.6690   -1.9640 N   0  0  0  0  0  0  0  0  0  0  0  0
   -2.4590   -5.5480   -0.9880 C   0  0  0  0  0  0  0  0  0  0  0  0
   -3.3820   -6.4360   -0.4430 C   0  0  0  0  0  0  0  0  0  0  0  0
   -4.2240   -6.0260    0.5690 C   0  0  0  0  0  0  0  0  0  0  0  0
   -4.1860   -4.7420    1.0750 C   0  0  0  0  0  0  0  0  0  0  0  0
   -3.2850   -3.8600    0.5500 C   0  0  0  0  0  0  0  0  0  0  0  0
   -2.4430   -4.2710   -0.4630 C   0  0  0  0  0  0  0  0  0  0  0  0
    1.0570   -2.7390    0.2350 C   0  0  0  0  0  0  0  0  0  0  0  0
    2.1530   -2.1560    0.2960 O   0  0  0  0  0  0  0  0  0  0  0  0
    1.0340   -4.1150    0.1710 O   0  0  0  0  0  0  0  0  0  0  0  0
    0.6740   -0.1750   -0.4930 H   0  0  0  0  0  0  0  0  0  0  0  0
   -0.8040   -2.1890    1.1650 H   0  0  0  0  0  0  0  0  0  0  0  0
   -0.4500   -1.8890   -1.8690 H   0  0  0  0  0  0  0  0  0  0  0  0
   -1.9320   -1.5550   -0.9400 H   0  0  0  0  0  0  0  0  0  0  0  0
   -0.0990   -4.3170   -2.8190 H   0  0  0  0  0  0  0  0  0  0  0  0
   -1.3620   -6.5460   -2.5020 H   0  0  0  0  0  0  0  0  0  0  0  0
   -3.4270   -7.4460   -0.8270 H   0  0  0  0  0  0  0  0  0  0  0  0
   -4.9380   -6.7390    0.9790 H   0  0  0  0  0  0  0  0  0  0  0  0
   -4.8310   -4.4000    1.8610 H   0  0  0  0  0  0  0  0  0  0  0  0
   -3.1840   -2.8310    0.8840 H   0  0  0  0  0  0  0  0  0  0  0  0
  1  9  1  0  0  0  0
  2 11  1  6  0  0  0
  2  1  1  0  0  0  0
  2  6  1  0  0  0  0
  3  4  1  0  0  0  0
  3  2  1  0  0  0  0
  4  5  2  0  0  0  0
  6  7  2  0  0  0  0
  8 14  1  0  0  0  0
  8  4  1  0  0  0  0
 10  1  1  0  0  0  0
 12  3  1  0  0  0  0
 13  3  1  0  0  0  0
 15 25  1  0  0  0  0
 15 24  1  0  0  0  0
 16 17  2  0  0  0  0
 16 15  1  0  0  0  0
 18 26  1  0  0  0  0
 18 16  1  0  0  0  0
 19 18  1  0  0  0  0
 20 19  1  0  0  0  0
 20 22  1  0  0  0  0
 20 30  1  1  0  0  0
 21  6  1  0  0  0  0
 21 20  1  0  0  0  0
 22 23  2  0  0  0  0
 27 18  1  0  0  0  0
 28 19  1  0  0  0  0
 29 19  1  0  0  0  0
 31 21  1  0  0  0  0
 32 22  1  0  0  0  0
 33 44  1  0  0  0  0
 33 32  1  0  0  0  0
 33 48  1  1  0  0  0
 34 50  1  0  0  0  0
 34 33  1  0  0  0  0
 35 34  1  0  0  0  0
 35 43  1  0  0  0  0
 36 37  1  0  0  0  0
 36 35  2  0  0  0  0
 37 38  1  0  0  0  0
 38 43  2  0  0  0  0
 38 39  1  0  0  0  0
 39 40  2  0  0  0  0
 40 54  1  0  0  0  0
 40 41  1  0  0  0  0
 41 55  1  0  0  0  0
 42 56  1  0  0  0  0
 42 41  2  0  0  0  0
 43 42  1  0  0  0  0
 44 45  1  0  0  0  0
 46 44  2  0  0  0  0
 47 32  1  0  0  0  0
 49 34  1  0  0  0  0
 51 36  1  0  0  0  0
 52 37  1  0  0  0  0
 53 39  1  0  0  0  0
M  END
$$$$
