DQY.pdb
 OpenBabel07022418143D

 53 53  0  0  1  0  0  0  0  0999 V2000
   -3.3280   -3.5960   -0.7900 N   0  0  0  0  0  0  0  0  0  0  0  0
   -2.0260   -2.9870   -0.8100 C   0  0  1  0  0  0  0  0  0  0  0  0
   -1.8710   -2.2940   -2.1450 C   0  0  0  0  0  0  0  0  0  0  0  0
   -2.9160   -1.2730   -2.3030 C   0  0  0  0  0  0  0  0  0  0  0  0
   -3.7570   -1.0810   -1.3940 O   0  0  0  0  0  0  0  0  0  0  0  0
   -1.8420   -2.0070    0.2870 C   0  0  0  0  0  0  0  0  0  0  0  0
   -2.8050   -1.8040    1.0910 O   0  0  0  0  0  0  0  0  0  0  0  0
   -3.0380   -0.4750   -3.4380 O   0  0  0  0  0  0  0  0  0  0  0  0
   -3.2460   -4.6520   -0.7460 H   0  0  0  0  0  0  0  0  0  0  0  0
   -3.8920   -3.4040   -1.6480 H   0  0  0  0  0  0  0  0  0  0  0  0
   -1.2490   -3.7960   -0.7110 H   0  0  0  0  0  0  0  0  0  0  0  0
   -2.0610   -3.0790   -2.9310 H   0  0  0  0  0  0  0  0  0  0  0  0
   -0.8520   -1.9290   -2.3210 H   0  0  0  0  0  0  0  0  0  0  0  0
   -3.9430   -0.0490   -3.6470 H   0  0  0  0  0  0  0  0  0  0  0  0
   -0.1710    1.4740    5.4740 N   0  0  0  0  0  0  0  0  0  0  0  0
   -0.2030    0.4710    4.4510 C   0  0  0  0  0  0  0  0  0  0  0  0
   -1.2680   -0.1860    4.3850 O   0  0  0  0  0  0  0  0  0  0  0  0
    0.9310    0.2330    3.5500 C   0  0  0  0  0  0  0  0  0  0  0  0
    0.6780   -0.7460    2.4470 C   0  0  0  0  0  0  0  0  0  0  0  0
   -0.4210   -0.3210    1.5510 C   0  0  2  0  0  0  0  0  0  0  0  0
   -0.6520   -1.2950    0.4810 N   0  0  0  0  0  0  0  0  0  0  0  0
   -0.2080    0.9750    0.9070 C   0  0  0  0  0  0  0  0  0  0  0  0
   -0.0240    2.0130    1.6080 O   0  0  0  0  0  0  0  0  0  0  0  0
   -0.9780    2.1190    5.5860 H   0  0  0  0  0  0  0  0  0  0  0  0
    0.6390    1.5820    6.1170 H   0  0  0  0  0  0  0  0  0  0  0  0
    1.3510    1.2110    3.2070 H   0  0  0  0  0  0  0  0  0  0  0  0
    1.7590   -0.1660    4.2270 H   0  0  0  0  0  0  0  0  0  0  0  0
    1.6530   -0.8700    1.9120 H   0  0  0  0  0  0  0  0  0  0  0  0
    0.4890   -1.7280    2.9340 H   0  0  0  0  0  0  0  0  0  0  0  0
   -1.3760   -0.3070    2.1160 H   0  0  0  0  0  0  0  0  0  0  0  0
    0.1480   -1.4430   -0.1630 H   0  0  0  0  0  0  0  0  0  0  0  0
    1.4440   -1.4670   -5.9580 O   0  0  0  0  0  0  0  0  0  0  0  0
    1.4170   -0.5320   -4.9460 C   0  0  0  0  0  0  0  0  0  0  0  0
    0.9610    0.7530   -5.2460 C   0  0  0  0  0  0  0  0  0  0  0  0
    0.9310    1.6960   -4.2380 C   0  0  0  0  0  0  0  0  0  0  0  0
    1.3300    1.4310   -2.9450 C   0  0  0  0  0  0  0  0  0  0  0  0
    1.3140    2.3990   -1.8490 C   0  0  0  0  0  0  0  0  0  0  0  0
    0.0180    2.4190   -1.0720 C   0  0  2  0  0  0  0  0  0  0  0  0
   -0.1990    1.1150   -0.5070 N   0  0  0  0  0  0  0  0  0  0  0  0
   -1.1130    2.9100   -1.8630 C   0  0  0  0  0  0  0  0  0  0  0  0
   -1.0470    4.0330   -2.4130 O   0  0  0  0  0  0  0  0  0  0  0  0
    1.7740    0.1510   -2.6840 C   0  0  0  0  0  0  0  0  0  0  0  0
    1.8190   -0.8130   -3.6560 C   0  0  0  0  0  0  0  0  0  0  0  0
   -2.2630    2.1630   -2.0220 O   0  0  0  0  0  0  0  0  0  0  0  0
    2.3210   -1.8290   -6.3040 H   0  0  0  0  0  0  0  0  0  0  0  0
    0.6470    0.9620   -6.2640 H   0  0  0  0  0  0  0  0  0  0  0  0
    0.5840    2.6820   -4.4600 H   0  0  0  0  0  0  0  0  0  0  0  0
    2.1190    2.1380   -1.1330 H   0  0  0  0  0  0  0  0  0  0  0  0
    1.5350    3.4360   -2.2020 H   0  0  0  0  0  0  0  0  0  0  0  0
    0.1760    3.1390   -0.2460 H   0  0  0  0  0  0  0  0  0  0  0  0
   -0.3520    0.2700   -1.1420 H   0  0  0  0  0  0  0  0  0  0  0  0
    2.1070   -0.1300   -1.6790 H   0  0  0  0  0  0  0  0  0  0  0  0
    2.1650   -1.8320   -3.4810 H   0  0  0  0  0  0  0  0  0  0  0  0
  1  9  1  0  0  0  0
  2  1  1  0  0  0  0
  2 11  1  1  0  0  0
  2  6  1  0  0  0  0
  3  2  1  0  0  0  0
  4  3  1  0  0  0  0
  4  5  2  0  0  0  0
  6 21  1  0  0  0  0
  6  7  2  0  0  0  0
  8  4  1  0  0  0  0
 10  1  1  0  0  0  0
 12  3  1  0  0  0  0
 13  3  1  0  0  0  0
 14  8  1  0  0  0  0
 15 24  1  0  0  0  0
 15 25  1  0  0  0  0
 16 15  1  0  0  0  0
 17 16  2  0  0  0  0
 18 27  1  0  0  0  0
 18 16  1  0  0  0  0
 19 29  1  0  0  0  0
 19 18  1  0  0  0  0
 20 30  1  1  0  0  0
 20 19  1  0  0  0  0
 21 20  1  0  0  0  0
 22 20  1  0  0  0  0
 22 23  2  0  0  0  0
 26 18  1  0  0  0  0
 28 19  1  0  0  0  0
 31 21  1  0  0  0  0
 32 33  1  0  0  0  0
 33 43  1  0  0  0  0
 34 33  2  0  0  0  0
 34 35  1  0  0  0  0
 35 36  2  0  0  0  0
 36 42  1  0  0  0  0
 36 37  1  0  0  0  0
 37 48  1  0  0  0  0
 37 38  1  0  0  0  0
 38 39  1  0  0  0  0
 38 50  1  1  0  0  0
 39 22  1  0  0  0  0
 40 38  1  0  0  0  0
 41 40  2  0  0  0  0
 42 52  1  0  0  0  0
 43 53  1  0  0  0  0
 43 42  2  0  0  0  0
 44 40  1  0  0  0  0
 45 32  1  0  0  0  0
 46 34  1  0  0  0  0
 47 35  1  0  0  0  0
 49 37  1  0  0  0  0
 51 39  1  0  0  0  0
M  END
$$$$
