DRC.pdb
 OpenBabel07022418123D

 49 48  0  0  1  0  0  0  0  0999 V2000
    2.5790   -3.2990    4.1610 N   0  0  0  0  0  0  0  0  0  0  0  0
    2.0980   -3.2620    2.7930 C   0  0  1  0  0  0  0  0  0  0  0  0
    0.9780   -4.2830    2.5900 C   0  0  0  0  0  0  0  0  0  0  0  0
   -0.1420   -3.9830    3.4950 C   0  0  0  0  0  0  0  0  0  0  0  0
   -0.0610   -3.0010    4.2680 O   0  0  0  0  0  0  0  0  0  0  0  0
    1.6170   -1.9180    2.4620 C   0  0  0  0  0  0  0  0  0  0  0  0
    1.5960   -0.9920    3.2930 O   0  0  0  0  0  0  0  0  0  0  0  0
   -1.3070   -4.7320    3.5500 O   0  0  0  0  0  0  0  0  0  0  0  0
    3.6050   -3.1360    4.2310 H   0  0  0  0  0  0  0  0  0  0  0  0
    2.2780   -4.1790    4.6360 H   0  0  0  0  0  0  0  0  0  0  0  0
    2.9290   -3.5780    2.1430 H   0  0  0  0  0  0  0  0  0  0  0  0
    0.6180   -4.1760    1.5460 H   0  0  0  0  0  0  0  0  0  0  0  0
    1.3850   -5.3050    2.7180 H   0  0  0  0  0  0  0  0  0  0  0  0
   -2.1580   -4.2450    3.8160 H   0  0  0  0  0  0  0  0  0  0  0  0
    1.6180    5.5170   -2.0150 N   0  0  0  0  0  0  0  0  0  0  0  0
    1.9810    4.6150   -0.9770 C   0  0  0  0  0  0  0  0  0  0  0  0
    3.2430    4.3630   -0.7600 N   0  0  0  0  0  0  0  0  0  0  0  0
    1.0090    3.9650   -0.1530 N   0  0  0  0  0  0  0  0  0  0  0  0
    1.3010    2.6840    0.4900 C   0  0  0  0  0  0  0  0  0  0  0  0
    1.3980    1.6640   -0.6230 C   0  0  0  0  0  0  0  0  0  0  0  0
    1.6950    0.2850   -0.1450 C   0  0  0  0  0  0  0  0  0  0  0  0
    0.6620   -0.2800    0.8010 C   0  0  2  0  0  0  0  0  0  0  0  0
    1.1470   -1.6240    1.1430 N   0  0  0  0  0  0  0  0  0  0  0  0
   -0.6810   -0.3670    0.2230 C   0  0  0  0  0  0  0  0  0  0  0  0
   -1.2760    0.6830   -0.1270 O   0  0  0  0  0  0  0  0  0  0  0  0
    1.9510    5.2890   -2.9790 H   0  0  0  0  0  0  0  0  0  0  0  0
    1.0530    6.3750   -1.8810 H   0  0  0  0  0  0  0  0  0  0  0  0
    3.9810    4.8060   -1.3280 H   0  0  0  0  0  0  0  0  0  0  0  0
    0.1000    4.4620   -0.0470 H   0  0  0  0  0  0  0  0  0  0  0  0
    0.4940    2.4720    1.2030 H   0  0  0  0  0  0  0  0  0  0  0  0
    2.2400    2.7910    1.0480 H   0  0  0  0  0  0  0  0  0  0  0  0
    2.2540    1.9850   -1.2610 H   0  0  0  0  0  0  0  0  0  0  0  0
    0.5120    1.6530   -1.2640 H   0  0  0  0  0  0  0  0  0  0  0  0
    1.8020   -0.3770   -1.0060 H   0  0  0  0  0  0  0  0  0  0  0  0
    2.6830    0.2540    0.3880 H   0  0  0  0  0  0  0  0  0  0  0  0
    0.7120    0.3270    1.7160 H   0  0  0  0  0  0  0  0  0  0  0  0
    1.1310   -2.3290    0.3970 H   0  0  0  0  0  0  0  0  0  0  0  0
   -1.3750   -1.5910    0.0240 N   0  0  0  0  0  0  0  0  0  0  0  0
   -2.7080   -1.6450   -0.5540 C   0  0  1  0  0  0  0  0  0  0  0  0
   -2.7030   -2.3640   -1.8860 C   0  0  0  0  0  0  0  0  0  0  0  0
   -4.3800   -2.4100   -2.5750 S   0  0  0  0  0  0  0  0  0  0  0  0
   -3.6420   -2.2640    0.3890 C   0  0  0  0  0  0  0  0  0  0  0  0
   -3.2580   -2.6650    1.5290 O   0  0  0  0  0  0  0  0  0  0  0  0
   -4.9860   -2.4100    0.0070 O   0  0  0  0  0  0  0  0  0  0  0  0
   -0.8920   -2.4850    0.3120 H   0  0  0  0  0  0  0  0  0  0  0  0
   -3.0290   -0.6000   -0.7780 H   0  0  0  0  0  0  0  0  0  0  0  0
   -2.3550   -3.4150   -1.8070 H   0  0  0  0  0  0  0  0  0  0  0  0
   -2.0710   -1.8400   -2.6310 H   0  0  0  0  0  0  0  0  0  0  0  0
   -5.0800   -1.2850   -2.0830 H   0  0  0  0  0  0  0  0  0  0  0  0
  1  9  1  0  0  0  0
  1 10  1  0  0  0  0
  2 11  1  6  0  0  0
  2  1  1  0  0  0  0
  3 13  1  0  0  0  0
  3  2  1  0  0  0  0
  3  4  1  0  0  0  0
  4  8  1  0  0  0  0
  4  5  2  0  0  0  0
  6  2  1  0  0  0  0
  6  7  2  0  0  0  0
  8 14  1  0  0  0  0
 12  3  1  0  0  0  0
 15 27  1  0  0  0  0
 15 16  1  0  0  0  0
 16 17  2  0  0  0  0
 16 18  1  0  0  0  0
 18 29  1  0  0  0  0
 18 19  1  0  0  0  0
 19 31  1  0  0  0  0
 19 30  1  0  0  0  0
 20 21  1  0  0  0  0
 20 19  1  0  0  0  0
 21 35  1  0  0  0  0
 21 22  1  0  0  0  0
 22 23  1  0  0  0  0
 22 36  1  1  0  0  0
 23  6  1  0  0  0  0
 24 22  1  0  0  0  0
 25 24  2  0  0  0  0
 26 15  1  0  0  0  0
 28 17  1  0  0  0  0
 32 20  1  0  0  0  0
 33 20  1  0  0  0  0
 34 21  1  0  0  0  0
 37 23  1  0  0  0  0
 38 24  1  0  0  0  0
 38 45  1  0  0  0  0
 39 46  1  6  0  0  0
 39 38  1  0  0  0  0
 39 42  1  0  0  0  0
 40 47  1  0  0  0  0
 40 39  1  0  0  0  0
 41 49  1  0  0  0  0
 41 40  1  0  0  0  0
 42 43  1  0  0  0  0
 44 42  2  0  0  0  0
 48 40  1  0  0  0  0
M  END
$$$$
