DRD.pdb
 OpenBabel07022418123D

 51 50  0  0  1  0  0  0  0  0999 V2000
    0.8110   -2.0810    2.9420 N   0  0  0  0  0  0  0  0  0  0  0  0
    0.0310   -1.2010    3.8390 C   0  0  1  0  0  0  0  0  0  0  0  0
    0.9870   -0.6610    4.8440 C   0  0  0  0  0  0  0  0  0  0  0  0
    0.4140    0.2360    5.8530 C   0  0  0  0  0  0  0  0  0  0  0  0
    1.2190    0.8030    6.6490 O   0  0  0  0  0  0  0  0  0  0  0  0
   -0.5180   -0.0660    3.0370 C   0  0  0  0  0  0  0  0  0  0  0  0
   -1.2670    0.8050    3.4920 O   0  0  0  0  0  0  0  0  0  0  0  0
   -0.9160    0.5330    6.0350 O   0  0  0  0  0  0  0  0  0  0  0  0
    0.2100   -2.5140    2.2240 H   0  0  0  0  0  0  0  0  0  0  0  0
    1.6630   -1.6170    2.6020 H   0  0  0  0  0  0  0  0  0  0  0  0
   -0.7300   -1.8050    4.3300 H   0  0  0  0  0  0  0  0  0  0  0  0
    1.8160   -0.1330    4.3120 H   0  0  0  0  0  0  0  0  0  0  0  0
    1.4560   -1.5120    5.3830 H   0  0  0  0  0  0  0  0  0  0  0  0
   -1.2290    1.4740    6.2310 H   0  0  0  0  0  0  0  0  0  0  0  0
    4.4850   -0.8030   -2.1190 N   0  0  0  0  0  0  0  0  0  0  0  0
    3.1020   -0.6590   -1.8300 C   0  0  0  0  0  0  0  0  0  0  0  0
    2.5230   -1.4770   -1.0180 N   0  0  0  0  0  0  0  0  0  0  0  0
    2.3540    0.3880   -2.4360 N   0  0  0  0  0  0  0  0  0  0  0  0
    1.1600    0.8410   -1.7420 C   0  0  0  0  0  0  0  0  0  0  0  0
    1.5300    1.5430   -0.4560 C   0  0  0  0  0  0  0  0  0  0  0  0
    0.3700    2.0510    0.3140 C   0  0  0  0  0  0  0  0  0  0  0  0
   -0.6390    1.0900    0.7850 C   0  0  2  0  0  0  0  0  0  0  0  0
   -0.1820    0.0570    1.6590 N   0  0  0  0  0  0  0  0  0  0  0  0
   -1.5190    0.5000   -0.2370 C   0  0  0  0  0  0  0  0  0  0  0  0
   -2.0660    1.1500   -1.1550 O   0  0  0  0  0  0  0  0  0  0  0  0
    5.1820   -0.2220   -1.5900 H   0  0  0  0  0  0  0  0  0  0  0  0
    4.7990   -1.4760   -2.8450 H   0  0  0  0  0  0  0  0  0  0  0  0
    3.0070   -2.2560   -0.5450 H   0  0  0  0  0  0  0  0  0  0  0  0
    2.6420    0.8170   -3.3380 H   0  0  0  0  0  0  0  0  0  0  0  0
    0.6530    1.5890   -2.3850 H   0  0  0  0  0  0  0  0  0  0  0  0
    0.4380    0.0120   -1.6000 H   0  0  0  0  0  0  0  0  0  0  0  0
    2.2360    0.9280    0.1470 H   0  0  0  0  0  0  0  0  0  0  0  0
    2.1630    2.4230   -0.7830 H   0  0  0  0  0  0  0  0  0  0  0  0
    0.6520    2.7120    1.1620 H   0  0  0  0  0  0  0  0  0  0  0  0
   -0.1770    2.7610   -0.3830 H   0  0  0  0  0  0  0  0  0  0  0  0
   -1.3370    1.7180    1.4450 H   0  0  0  0  0  0  0  0  0  0  0  0
    0.4490   -0.6640    1.2450 H   0  0  0  0  0  0  0  0  0  0  0  0
   -1.7850   -0.8950   -0.2110 N   0  0  0  0  0  0  0  0  0  0  0  0
   -2.6280   -1.5620   -1.1640 C   0  0  1  0  0  0  0  0  0  0  0  0
   -1.9980   -2.5830   -2.0230 C   0  0  0  0  0  0  0  0  0  0  0  0
   -1.4140   -3.6970   -1.2640 C   0  0  0  0  0  0  0  0  0  0  0  0
   -1.5070   -3.7370   -0.0250 O   0  0  0  0  0  0  0  0  0  0  0  0
   -3.8200   -2.0920   -0.4650 C   0  0  0  0  0  0  0  0  0  0  0  0
   -4.7290   -2.7260   -1.0850 O   0  0  0  0  0  0  0  0  0  0  0  0
   -0.7550   -4.7130   -1.9240 O   0  0  0  0  0  0  0  0  0  0  0  0
   -4.0220   -1.9320    0.9120 O   0  0  0  0  0  0  0  0  0  0  0  0
   -1.3610   -1.5100    0.5350 H   0  0  0  0  0  0  0  0  0  0  0  0
   -3.0220   -0.7430   -1.8430 H   0  0  0  0  0  0  0  0  0  0  0  0
   -2.8300   -3.0500   -2.6330 H   0  0  0  0  0  0  0  0  0  0  0  0
   -1.3120   -2.1750   -2.7950 H   0  0  0  0  0  0  0  0  0  0  0  0
   -0.3470   -5.5170   -1.4660 H   0  0  0  0  0  0  0  0  0  0  0  0
  1  2  1  0  0  0  0
  2 11  1  1  0  0  0
  2  3  1  0  0  0  0
  3 13  1  0  0  0  0
  3  4  1  0  0  0  0
  4  8  1  0  0  0  0
  4  5  2  0  0  0  0
  6  7  2  0  0  0  0
  6  2  1  0  0  0  0
  8 14  1  0  0  0  0
  9  1  1  0  0  0  0
 10  1  1  0  0  0  0
 12  3  1  0  0  0  0
 15 16  1  0  0  0  0
 15 26  1  0  0  0  0
 16 17  2  0  0  0  0
 17 28  1  0  0  0  0
 18 16  1  0  0  0  0
 18 19  1  0  0  0  0
 19 31  1  0  0  0  0
 19 20  1  0  0  0  0
 20 32  1  0  0  0  0
 20 21  1  0  0  0  0
 21 22  1  0  0  0  0
 21 34  1  0  0  0  0
 22 36  1  1  0  0  0
 22 23  1  0  0  0  0
 23  6  1  0  0  0  0
 24 38  1  0  0  0  0
 24 22  1  0  0  0  0
 25 24  2  0  0  0  0
 27 15  1  0  0  0  0
 29 18  1  0  0  0  0
 30 19  1  0  0  0  0
 33 20  1  0  0  0  0
 35 21  1  0  0  0  0
 37 23  1  0  0  0  0
 38 47  1  0  0  0  0
 39 48  1  6  0  0  0
 39 43  1  0  0  0  0
 39 38  1  0  0  0  0
 40 41  1  0  0  0  0
 40 39  1  0  0  0  0
 41 42  2  0  0  0  0
 43 46  1  0  0  0  0
 44 43  2  0  0  0  0
 45 51  1  0  0  0  0
 45 41  1  0  0  0  0
 49 40  1  0  0  0  0
 50 40  1  0  0  0  0
M  END
$$$$
