DRF.pdb
 OpenBabel07022418123D

 58 58  0  0  1  0  0  0  0  0999 V2000
    2.0360   -2.0730    1.8920 N   0  0  0  0  0  0  0  0  0  0  0  0
    2.2920   -0.7940    2.5140 C   0  0  1  0  0  0  0  0  0  0  0  0
    3.7690   -0.4860    2.4260 C   0  0  0  0  0  0  0  0  0  0  0  0
    4.4790   -1.5750    3.1420 C   0  0  0  0  0  0  0  0  0  0  0  0
    4.5770   -1.5520    4.3920 O   0  0  0  0  0  0  0  0  0  0  0  0
    1.4760    0.2890    1.8800 C   0  0  0  0  0  0  0  0  0  0  0  0
    1.5900    1.4710    2.2850 O   0  0  0  0  0  0  0  0  0  0  0  0
    5.0490   -2.6390    2.4630 O   0  0  0  0  0  0  0  0  0  0  0  0
    2.1400   -2.0930    0.8740 H   0  0  0  0  0  0  0  0  0  0  0  0
    1.2000   -2.5410    2.2810 H   0  0  0  0  0  0  0  0  0  0  0  0
    1.9430   -0.8770    3.5630 H   0  0  0  0  0  0  0  0  0  0  0  0
    4.0310    0.4540    2.9540 H   0  0  0  0  0  0  0  0  0  0  0  0
    4.1030   -0.4970    1.3850 H   0  0  0  0  0  0  0  0  0  0  0  0
    5.1430   -3.5670    2.8680 H   0  0  0  0  0  0  0  0  0  0  0  0
    3.6750    2.0490   -2.5120 N   0  0  0  0  0  0  0  0  0  0  0  0
    2.4880    1.6150   -3.1670 C   0  0  0  0  0  0  0  0  0  0  0  0
    2.3040    0.3450   -3.4620 N   0  0  0  0  0  0  0  0  0  0  0  0
    1.4410    2.4990   -3.5440 N   0  0  0  0  0  0  0  0  0  0  0  0
    0.0390    2.2220   -3.4540 C   0  0  0  0  0  0  0  0  0  0  0  0
   -0.4340    2.2090   -2.0360 C   0  0  0  0  0  0  0  0  0  0  0  0
    0.2390    1.1770   -1.2330 C   0  0  0  0  0  0  0  0  0  0  0  0
   -0.2320    1.1030    0.2060 C   0  0  2  0  0  0  0  0  0  0  0  0
    0.5560    0.0310    0.8150 N   0  0  0  0  0  0  0  0  0  0  0  0
   -1.6450    0.7780    0.3720 C   0  0  0  0  0  0  0  0  0  0  0  0
   -2.6000    1.5130   -0.0330 O   0  0  0  0  0  0  0  0  0  0  0  0
    4.1470    2.9530   -2.7290 H   0  0  0  0  0  0  0  0  0  0  0  0
    4.1350    1.4600   -1.7660 H   0  0  0  0  0  0  0  0  0  0  0  0
    3.0150   -0.3690   -3.2250 H   0  0  0  0  0  0  0  0  0  0  0  0
    1.7760    3.4420   -3.9180 H   0  0  0  0  0  0  0  0  0  0  0  0
   -0.5580    2.9260   -4.0910 H   0  0  0  0  0  0  0  0  0  0  0  0
   -0.1080    1.2280   -3.9550 H   0  0  0  0  0  0  0  0  0  0  0  0
   -1.5510    2.1890   -1.9670 H   0  0  0  0  0  0  0  0  0  0  0  0
   -0.1920    3.2500   -1.6400 H   0  0  0  0  0  0  0  0  0  0  0  0
    1.3270    1.4680   -1.1260 H   0  0  0  0  0  0  0  0  0  0  0  0
    0.2270    0.1580   -1.6360 H   0  0  0  0  0  0  0  0  0  0  0  0
    0.0570    2.0360    0.7010 H   0  0  0  0  0  0  0  0  0  0  0  0
    0.4880   -0.9640    0.5050 H   0  0  0  0  0  0  0  0  0  0  0  0
   -2.0740   -0.4200    1.0170 N   0  0  0  0  0  0  0  0  0  0  0  0
   -3.4740   -0.7540    1.1870 C   0  0  1  0  0  0  0  0  0  0  0  0
   -3.8380   -2.0290    0.4630 C   0  0  0  0  0  0  0  0  0  0  0  0
   -3.0720   -3.2090    0.9270 C   0  0  0  0  0  0  0  0  0  0  0  0
   -3.4920   -4.0580    1.9320 C   0  0  0  0  0  0  0  0  0  0  0  0
   -2.7310   -5.1460    2.3300 C   0  0  0  0  0  0  0  0  0  0  0  0
   -1.5290   -5.4180    1.7360 C   0  0  0  0  0  0  0  0  0  0  0  0
   -1.0920   -4.5840    0.7310 C   0  0  0  0  0  0  0  0  0  0  0  0
   -1.8510   -3.4980    0.3340 C   0  0  0  0  0  0  0  0  0  0  0  0
   -3.7890   -0.9470    2.6200 C   0  0  0  0  0  0  0  0  0  0  0  0
   -4.9180   -1.2240    3.0440 O   0  0  0  0  0  0  0  0  0  0  0  0
   -2.7610   -0.8100    3.5390 O   0  0  0  0  0  0  0  0  0  0  0  0
   -1.3400   -1.0620    1.3730 H   0  0  0  0  0  0  0  0  0  0  0  0
   -4.1410    0.0280    0.7750 H   0  0  0  0  0  0  0  0  0  0  0  0
   -3.7900   -1.9310   -0.6340 H   0  0  0  0  0  0  0  0  0  0  0  0
   -4.9200   -2.2240    0.6990 H   0  0  0  0  0  0  0  0  0  0  0  0
   -4.4450   -3.8420    2.4000 H   0  0  0  0  0  0  0  0  0  0  0  0
   -3.0740   -5.8040    3.1220 H   0  0  0  0  0  0  0  0  0  0  0  0
   -0.9510   -6.2870    2.0730 H   0  0  0  0  0  0  0  0  0  0  0  0
   -0.1450   -4.7940    0.2600 H   0  0  0  0  0  0  0  0  0  0  0  0
   -1.5170   -2.8380   -0.4530 H   0  0  0  0  0  0  0  0  0  0  0  0
  1 10  1  0  0  0  0
  1  2  1  0  0  0  0
  2 11  1  1  0  0  0
  3  2  1  0  0  0  0
  3 12  1  0  0  0  0
  3  4  1  0  0  0  0
  4  5  2  0  0  0  0
  6  7  2  0  0  0  0
  6  2  1  0  0  0  0
  8 14  1  0  0  0  0
  8  4  1  0  0  0  0
  9  1  1  0  0  0  0
 13  3  1  0  0  0  0
 15 27  1  0  0  0  0
 16 15  1  0  0  0  0
 17 28  1  0  0  0  0
 17 16  2  0  0  0  0
 18 19  1  0  0  0  0
 18 16  1  0  0  0  0
 19 20  1  0  0  0  0
 20 32  1  0  0  0  0
 20 33  1  0  0  0  0
 20 21  1  0  0  0  0
 21 34  1  0  0  0  0
 21 22  1  0  0  0  0
 22 24  1  0  0  0  0
 22 36  1  1  0  0  0
 22 23  1  0  0  0  0
 23  6  1  0  0  0  0
 24 38  1  0  0  0  0
 25 24  2  0  0  0  0
 26 15  1  0  0  0  0
 29 18  1  0  0  0  0
 30 19  1  0  0  0  0
 31 19  1  0  0  0  0
 35 21  1  0  0  0  0
 37 23  1  0  0  0  0
 38 39  1  0  0  0  0
 38 50  1  0  0  0  0
 39 51  1  6  0  0  0
 39 47  1  0  0  0  0
 40 53  1  0  0  0  0
 40 41  1  0  0  0  0
 40 39  1  0  0  0  0
 41 42  1  0  0  0  0
 42 43  2  0  0  0  0
 42 54  1  0  0  0  0
 43 55  1  0  0  0  0
 44 56  1  0  0  0  0
 44 43  1  0  0  0  0
 45 44  2  0  0  0  0
 46 45  1  0  0  0  0
 46 41  2  0  0  0  0
 47 48  2  0  0  0  0
 47 49  1  0  0  0  0
 52 40  1  0  0  0  0
 57 45  1  0  0  0  0
 58 46  1  0  0  0  0
M  END
$$$$
