DRI.pdb
 OpenBabel07022418123D

 57 56  0  0  1  0  0  0  0  0999 V2000
    1.7590   -1.0310    4.5300 N   0  0  0  0  0  0  0  0  0  0  0  0
    0.4490   -0.4920    4.9040 C   0  0  1  0  0  0  0  0  0  0  0  0
    0.7150    0.7290    5.7160 C   0  0  0  0  0  0  0  0  0  0  0  0
   -0.4590    1.4340    6.2230 C   0  0  0  0  0  0  0  0  0  0  0  0
   -1.6010    0.9890    6.0240 O   0  0  0  0  0  0  0  0  0  0  0  0
   -0.2920   -0.1980    3.6310 C   0  0  0  0  0  0  0  0  0  0  0  0
   -1.4490    0.2290    3.5780 O   0  0  0  0  0  0  0  0  0  0  0  0
   -0.3630    2.6250    6.9450 O   0  0  0  0  0  0  0  0  0  0  0  0
    2.2020   -1.5640    5.2850 H   0  0  0  0  0  0  0  0  0  0  0  0
    2.3720   -0.2530    4.1630 H   0  0  0  0  0  0  0  0  0  0  0  0
   -0.0450   -1.2480    5.5270 H   0  0  0  0  0  0  0  0  0  0  0  0
    1.3000    0.3870    6.6150 H   0  0  0  0  0  0  0  0  0  0  0  0
    1.3970    1.4510    5.2120 H   0  0  0  0  0  0  0  0  0  0  0  0
   -1.0740    3.3450    6.7980 H   0  0  0  0  0  0  0  0  0  0  0  0
    5.2260   -0.3190   -2.4290 N   0  0  0  0  0  0  0  0  0  0  0  0
    3.9140    0.1780   -2.1780 C   0  0  0  0  0  0  0  0  0  0  0  0
    2.9230   -0.4050   -2.7420 N   0  0  0  0  0  0  0  0  0  0  0  0
    3.6530    1.2800   -1.3380 N   0  0  0  0  0  0  0  0  0  0  0  0
    2.2940    1.6570   -1.0050 C   0  0  0  0  0  0  0  0  0  0  0  0
    1.7040    0.5970   -0.1430 C   0  0  0  0  0  0  0  0  0  0  0  0
    0.2920    0.8990    0.2620 C   0  0  0  0  0  0  0  0  0  0  0  0
   -0.3190   -0.1460    1.1220 C   0  0  2  0  0  0  0  0  0  0  0  0
    0.3300   -0.4060    2.3570 N   0  0  0  0  0  0  0  0  0  0  0  0
   -0.4950   -1.4220    0.4000 C   0  0  0  0  0  0  0  0  0  0  0  0
   -0.0620   -2.4830    0.9020 O   0  0  0  0  0  0  0  0  0  0  0  0
    6.0350    0.2960   -2.6640 H   0  0  0  0  0  0  0  0  0  0  0  0
    5.3460   -1.3600   -2.3640 H   0  0  0  0  0  0  0  0  0  0  0  0
    3.0800   -1.2130   -3.3610 H   0  0  0  0  0  0  0  0  0  0  0  0
    4.4890    1.8200   -0.9630 H   0  0  0  0  0  0  0  0  0  0  0  0
    2.3200    2.6380   -0.4950 H   0  0  0  0  0  0  0  0  0  0  0  0
    1.7630    1.7890   -1.9740 H   0  0  0  0  0  0  0  0  0  0  0  0
    2.3870    0.4360    0.7110 H   0  0  0  0  0  0  0  0  0  0  0  0
    1.6910   -0.3570   -0.7080 H   0  0  0  0  0  0  0  0  0  0  0  0
    0.1730    1.9060    0.7220 H   0  0  0  0  0  0  0  0  0  0  0  0
   -0.2950    0.9480   -0.6780 H   0  0  0  0  0  0  0  0  0  0  0  0
   -1.3610    0.2180    1.3690 H   0  0  0  0  0  0  0  0  0  0  0  0
    1.3070   -0.7660    2.3270 H   0  0  0  0  0  0  0  0  0  0  0  0
   -3.9660   -0.9310   -1.8150 C   0  0  0  0  0  0  0  0  0  0  0  0
   -3.5940   -2.1880   -2.5130 C   0  0  0  0  0  0  0  0  0  0  0  0
   -2.7500   -3.1480   -1.7390 C   0  0  2  0  0  0  0  0  0  0  0  0
   -3.4360   -3.5870   -0.4900 C   0  0  0  0  0  0  0  0  0  0  0  0
   -1.3160   -2.7370   -1.5590 C   0  0  2  0  0  0  0  0  0  0  0  0
   -1.1490   -1.4800   -0.8590 N   0  0  0  0  0  0  0  0  0  0  0  0
   -0.5580   -2.7630   -2.8280 C   0  0  0  0  0  0  0  0  0  0  0  0
    0.1170   -1.7680   -3.1620 O   0  0  0  0  0  0  0  0  0  0  0  0
   -0.5740   -3.8600   -3.6610 O   0  0  0  0  0  0  0  0  0  0  0  0
   -3.7920   -0.9770   -0.7040 H   0  0  0  0  0  0  0  0  0  0  0  0
   -3.5670   -0.0040   -2.2730 H   0  0  0  0  0  0  0  0  0  0  0  0
   -5.0840   -0.8000   -1.8900 H   0  0  0  0  0  0  0  0  0  0  0  0
   -3.1430   -1.9990   -3.5140 H   0  0  0  0  0  0  0  0  0  0  0  0
   -4.5430   -2.7500   -2.7550 H   0  0  0  0  0  0  0  0  0  0  0  0
   -2.7090   -4.0800   -2.3880 H   0  0  0  0  0  0  0  0  0  0  0  0
   -2.7640   -4.3050    0.0670 H   0  0  0  0  0  0  0  0  0  0  0  0
   -4.3380   -4.1770   -0.7230 H   0  0  0  0  0  0  0  0  0  0  0  0
   -3.6590   -2.7850    0.2260 H   0  0  0  0  0  0  0  0  0  0  0  0
   -0.8260   -3.5300   -0.9170 H   0  0  0  0  0  0  0  0  0  0  0  0
   -1.4950   -0.5700   -1.2360 H   0  0  0  0  0  0  0  0  0  0  0  0
  1  2  1  0  0  0  0
  1  9  1  0  0  0  0
  2 11  1  1  0  0  0
  2  3  1  0  0  0  0
  3  4  1  0  0  0  0
  3 12  1  0  0  0  0
  4  8  1  0  0  0  0
  5  4  2  0  0  0  0
  6  2  1  0  0  0  0
  7  6  2  0  0  0  0
 10  1  1  0  0  0  0
 13  3  1  0  0  0  0
 14  8  1  0  0  0  0
 15 27  1  0  0  0  0
 15 16  1  0  0  0  0
 16 18  1  0  0  0  0
 17 16  2  0  0  0  0
 18 19  1  0  0  0  0
 18 29  1  0  0  0  0
 19 30  1  0  0  0  0
 19 20  1  0  0  0  0
 20 21  1  0  0  0  0
 20 32  1  0  0  0  0
 21 34  1  0  0  0  0
 21 22  1  0  0  0  0
 22 36  1  1  0  0  0
 22 23  1  0  0  0  0
 23  6  1  0  0  0  0
 24 25  2  0  0  0  0
 24 22  1  0  0  0  0
 26 15  1  0  0  0  0
 28 17  1  0  0  0  0
 31 19  1  0  0  0  0
 33 20  1  0  0  0  0
 35 21  1  0  0  0  0
 37 23  1  0  0  0  0
 38 47  1  0  0  0  0
 39 38  1  0  0  0  0
 39 40  1  0  0  0  0
 40 52  1  6  0  0  0
 40 42  1  0  0  0  0
 40 41  1  0  0  0  0
 41 53  1  0  0  0  0
 41 55  1  0  0  0  0
 42 56  1  1  0  0  0
 42 43  1  0  0  0  0
 43 24  1  0  0  0  0
 44 42  1  0  0  0  0
 45 44  1  0  0  0  0
 46 44  2  0  0  0  0
 48 38  1  0  0  0  0
 49 38  1  0  0  0  0
 50 39  1  0  0  0  0
 51 39  1  0  0  0  0
 54 41  1  0  0  0  0
 57 43  1  0  0  0  0
M  END
$$$$
