DRL.pdb
 OpenBabel07022418123D

 57 56  0  0  1  0  0  0  0  0999 V2000
    0.2850   -2.6650    3.7050 N   0  0  0  0  0  0  0  0  0  0  0  0
   -0.8830   -1.8910    4.0660 C   0  0  1  0  0  0  0  0  0  0  0  0
   -0.5090   -1.0810    5.3190 C   0  0  0  0  0  0  0  0  0  0  0  0
   -1.6290   -0.2410    5.7930 C   0  0  0  0  0  0  0  0  0  0  0  0
   -2.7670   -0.7520    6.0140 O   0  0  0  0  0  0  0  0  0  0  0  0
   -1.1100   -0.8710    3.0080 C   0  0  0  0  0  0  0  0  0  0  0  0
   -2.1130   -0.0980    3.0240 O   0  0  0  0  0  0  0  0  0  0  0  0
   -1.5160    1.1380    6.0230 O   0  0  0  0  0  0  0  0  0  0  0  0
    0.1400   -3.2570    2.8550 H   0  0  0  0  0  0  0  0  0  0  0  0
    0.6470   -3.2340    4.5240 H   0  0  0  0  0  0  0  0  0  0  0  0
   -1.7620   -2.5330    4.2340 H   0  0  0  0  0  0  0  0  0  0  0  0
    0.3210   -0.4170    5.0170 H   0  0  0  0  0  0  0  0  0  0  0  0
   -0.1330   -1.7760    6.0880 H   0  0  0  0  0  0  0  0  0  0  0  0
   -1.9980    1.6140    6.7900 H   0  0  0  0  0  0  0  0  0  0  0  0
    2.2990    2.8970   -2.6400 N   0  0  0  0  0  0  0  0  0  0  0  0
    3.1050    2.2650   -1.6580 C   0  0  0  0  0  0  0  0  0  0  0  0
    3.9850    1.3790   -2.0070 N   0  0  0  0  0  0  0  0  0  0  0  0
    2.9810    2.5730   -0.2790 N   0  0  0  0  0  0  0  0  0  0  0  0
    3.2510    1.6060    0.7680 C   0  0  0  0  0  0  0  0  0  0  0  0
    2.1930    0.5180    0.7150 C   0  0  0  0  0  0  0  0  0  0  0  0
    0.8640    1.1780    0.9010 C   0  0  0  0  0  0  0  0  0  0  0  0
   -0.3010    0.2050    0.8870 C   0  0  2  0  0  0  0  0  0  0  0  0
   -0.1750   -0.7530    1.9460 N   0  0  0  0  0  0  0  0  0  0  0  0
   -0.3330   -0.5090   -0.4130 C   0  0  0  0  0  0  0  0  0  0  0  0
   -0.3960    0.1590   -1.4880 O   0  0  0  0  0  0  0  0  0  0  0  0
    2.6010    3.7680   -3.1330 H   0  0  0  0  0  0  0  0  0  0  0  0
    1.3800    2.5150   -2.9100 H   0  0  0  0  0  0  0  0  0  0  0  0
    4.0830    1.1440   -3.0330 H   0  0  0  0  0  0  0  0  0  0  0  0
    2.6760    3.5640   -0.0430 H   0  0  0  0  0  0  0  0  0  0  0  0
    4.2470    1.1600    0.6780 H   0  0  0  0  0  0  0  0  0  0  0  0
    3.2140    2.1440    1.7410 H   0  0  0  0  0  0  0  0  0  0  0  0
    2.3750   -0.2420    1.4940 H   0  0  0  0  0  0  0  0  0  0  0  0
    2.3120    0.0400   -0.2730 H   0  0  0  0  0  0  0  0  0  0  0  0
    0.8650    1.6790    1.9020 H   0  0  0  0  0  0  0  0  0  0  0  0
    0.6530    1.9560    0.1240 H   0  0  0  0  0  0  0  0  0  0  0  0
   -1.2280    0.8150    1.0280 H   0  0  0  0  0  0  0  0  0  0  0  0
    0.6480   -1.3930    1.9410 H   0  0  0  0  0  0  0  0  0  0  0  0
   -3.2040   -3.6120   -2.0380 C   0  0  0  0  0  0  0  0  0  0  0  0
   -2.7260   -2.2120   -2.3970 C   0  0  0  0  0  0  0  0  0  0  0  0
   -3.2280   -1.2860   -1.3580 C   0  0  0  0  0  0  0  0  0  0  0  0
   -1.2970   -2.2190   -2.7360 C   0  0  0  0  0  0  0  0  0  0  0  0
   -0.3330   -2.6770   -1.6750 C   0  0  2  0  0  0  0  0  0  0  0  0
   -0.2970   -1.9100   -0.4800 N   0  0  0  0  0  0  0  0  0  0  0  0
    1.0080   -2.7870   -2.2620 C   0  0  0  0  0  0  0  0  0  0  0  0
    1.1610   -3.4330   -3.3600 O   0  0  0  0  0  0  0  0  0  0  0  0
    2.1750   -2.2540   -1.7500 O   0  0  0  0  0  0  0  0  0  0  0  0
   -4.1490   -3.8840   -2.5560 H   0  0  0  0  0  0  0  0  0  0  0  0
   -3.3980   -3.6700   -0.9330 H   0  0  0  0  0  0  0  0  0  0  0  0
   -2.4170   -4.3200   -2.2910 H   0  0  0  0  0  0  0  0  0  0  0  0
   -3.2950   -1.9570   -3.3440 H   0  0  0  0  0  0  0  0  0  0  0  0
   -3.1070   -0.2040   -1.5670 H   0  0  0  0  0  0  0  0  0  0  0  0
   -2.9880   -1.5760   -0.3100 H   0  0  0  0  0  0  0  0  0  0  0  0
   -4.3620   -1.4100   -1.3740 H   0  0  0  0  0  0  0  0  0  0  0  0
   -1.1720   -2.9810   -3.5660 H   0  0  0  0  0  0  0  0  0  0  0  0
   -1.0010   -1.2600   -3.2250 H   0  0  0  0  0  0  0  0  0  0  0  0
   -0.6720   -3.7290   -1.4300 H   0  0  0  0  0  0  0  0  0  0  0  0
   -0.2380   -2.4210    0.4430 H   0  0  0  0  0  0  0  0  0  0  0  0
  1  2  1  0  0  0  0
  1 10  1  0  0  0  0
  2 11  1  1  0  0  0
  2  3  1  0  0  0  0
  3  4  1  0  0  0  0
  3 13  1  0  0  0  0
  4  5  2  0  0  0  0
  4  8  1  0  0  0  0
  6  7  2  0  0  0  0
  6  2  1  0  0  0  0
  8 14  1  0  0  0  0
  9  1  1  0  0  0  0
 12  3  1  0  0  0  0
 15 16  1  0  0  0  0
 16 18  1  0  0  0  0
 17 16  2  0  0  0  0
 18 29  1  0  0  0  0
 18 19  1  0  0  0  0
 19 31  1  0  0  0  0
 20 19  1  0  0  0  0
 20 21  1  0  0  0  0
 20 32  1  0  0  0  0
 21 34  1  0  0  0  0
 22 21  1  0  0  0  0
 22 36  1  1  0  0  0
 22 23  1  0  0  0  0
 23  6  1  0  0  0  0
 24 22  1  0  0  0  0
 25 24  2  0  0  0  0
 26 15  1  0  0  0  0
 27 15  1  0  0  0  0
 28 17  1  0  0  0  0
 30 19  1  0  0  0  0
 33 20  1  0  0  0  0
 35 21  1  0  0  0  0
 37 23  1  0  0  0  0
 38 48  1  0  0  0  0
 39 38  1  0  0  0  0
 39 40  1  0  0  0  0
 40 52  1  0  0  0  0
 41 39  1  0  0  0  0
 41 42  1  0  0  0  0
 42 56  1  1  0  0  0
 42 43  1  0  0  0  0
 43 24  1  0  0  0  0
 43 57  1  0  0  0  0
 44 46  1  0  0  0  0
 44 42  1  0  0  0  0
 45 44  2  0  0  0  0
 47 38  1  0  0  0  0
 49 38  1  0  0  0  0
 50 39  1  0  0  0  0
 51 40  1  0  0  0  0
 53 40  1  0  0  0  0
 54 41  1  0  0  0  0
 55 41  1  0  0  0  0
M  END
$$$$
