DRM.pdb
 OpenBabel07022418123D

 55 54  0  0  1  0  0  0  0  0999 V2000
    0.6290   -1.9610    4.4140 N   0  0  0  0  0  0  0  0  0  0  0  0
   -0.6630   -1.3680    4.5350 C   0  0  1  0  0  0  0  0  0  0  0  0
   -0.7300   -0.2910    5.5890 C   0  0  0  0  0  0  0  0  0  0  0  0
   -0.3880   -0.7950    6.9390 C   0  0  0  0  0  0  0  0  0  0  0  0
   -0.0750   -1.9850    7.1900 O   0  0  0  0  0  0  0  0  0  0  0  0
   -1.1170   -0.7610    3.2630 C   0  0  0  0  0  0  0  0  0  0  0  0
   -2.2400   -0.2020    3.2340 O   0  0  0  0  0  0  0  0  0  0  0  0
   -0.4220    0.1200    7.9820 O   0  0  0  0  0  0  0  0  0  0  0  0
    1.3300   -1.2510    4.1130 H   0  0  0  0  0  0  0  0  0  0  0  0
    0.6010   -2.6970    3.6780 H   0  0  0  0  0  0  0  0  0  0  0  0
   -1.3840   -2.1950    4.7780 H   0  0  0  0  0  0  0  0  0  0  0  0
   -1.6920    0.2150    5.5220 H   0  0  0  0  0  0  0  0  0  0  0  0
    0.0610    0.4560    5.3160 H   0  0  0  0  0  0  0  0  0  0  0  0
   -0.1180   -0.0880    8.9250 H   0  0  0  0  0  0  0  0  0  0  0  0
    5.6760    0.6100   -1.7610 N   0  0  0  0  0  0  0  0  0  0  0  0
    4.2700    0.7350   -1.5690 C   0  0  0  0  0  0  0  0  0  0  0  0
    3.4400    0.1230   -2.3240 N   0  0  0  0  0  0  0  0  0  0  0  0
    3.7670    1.5500   -0.5230 N   0  0  0  0  0  0  0  0  0  0  0  0
    2.3660    1.7520   -0.3040 C   0  0  0  0  0  0  0  0  0  0  0  0
    1.6490    0.4830    0.1740 C   0  0  0  0  0  0  0  0  0  0  0  0
    0.2160    0.8430    0.3670 C   0  0  0  0  0  0  0  0  0  0  0  0
   -0.6740   -0.2450    0.8380 C   0  0  2  0  0  0  0  0  0  0  0  0
   -0.2990   -0.8130    2.1080 N   0  0  0  0  0  0  0  0  0  0  0  0
   -0.9150   -1.2710   -0.2010 C   0  0  0  0  0  0  0  0  0  0  0  0
   -0.7900   -2.4910    0.0540 O   0  0  0  0  0  0  0  0  0  0  0  0
    6.3500    0.9150   -1.0370 H   0  0  0  0  0  0  0  0  0  0  0  0
    6.0180    0.2040   -2.6500 H   0  0  0  0  0  0  0  0  0  0  0  0
    3.8080   -0.4790   -3.0960 H   0  0  0  0  0  0  0  0  0  0  0  0
    4.4710    2.0210    0.1150 H   0  0  0  0  0  0  0  0  0  0  0  0
    2.2190    2.5820    0.4270 H   0  0  0  0  0  0  0  0  0  0  0  0
    1.9100    2.1170   -1.2580 H   0  0  0  0  0  0  0  0  0  0  0  0
    2.1300    0.2320    1.1640 H   0  0  0  0  0  0  0  0  0  0  0  0
    1.8560   -0.2890   -0.5590 H   0  0  0  0  0  0  0  0  0  0  0  0
    0.1950    1.7260    1.0710 H   0  0  0  0  0  0  0  0  0  0  0  0
   -0.1720    1.2590   -0.5850 H   0  0  0  0  0  0  0  0  0  0  0  0
   -1.6920    0.2270    1.0000 H   0  0  0  0  0  0  0  0  0  0  0  0
    0.6190   -1.2920    2.2090 H   0  0  0  0  0  0  0  0  0  0  0  0
   -3.9770   -3.2140   -0.5590 C   0  0  0  0  0  0  0  0  0  0  0  0
   -4.7190   -2.5500   -2.0260 S   0  0  0  0  0  0  0  0  0  0  0  0
   -3.9540   -1.1420   -2.7740 C   0  0  0  0  0  0  0  0  0  0  0  0
   -2.6350   -1.3760   -3.4340 C   0  0  0  0  0  0  0  0  0  0  0  0
   -1.5500   -1.8270   -2.5380 C   0  0  2  0  0  0  0  0  0  0  0  0
   -1.2930   -0.8400   -1.4930 N   0  0  0  0  0  0  0  0  0  0  0  0
   -0.2730   -1.9580   -3.3700 C   0  0  0  0  0  0  0  0  0  0  0  0
    0.7230   -1.2720   -3.0670 O   0  0  0  0  0  0  0  0  0  0  0  0
   -0.2340   -2.8230   -4.4350 O   0  0  0  0  0  0  0  0  0  0  0  0
   -4.7630   -3.7260    0.0870 H   0  0  0  0  0  0  0  0  0  0  0  0
   -3.4990   -2.4640    0.0960 H   0  0  0  0  0  0  0  0  0  0  0  0
   -3.2290   -3.9950   -0.7860 H   0  0  0  0  0  0  0  0  0  0  0  0
   -4.6560   -0.7510   -3.5790 H   0  0  0  0  0  0  0  0  0  0  0  0
   -3.8930   -0.2600   -2.0690 H   0  0  0  0  0  0  0  0  0  0  0  0
   -2.7770   -2.1940   -4.2170 H   0  0  0  0  0  0  0  0  0  0  0  0
   -2.3550   -0.4250   -3.9840 H   0  0  0  0  0  0  0  0  0  0  0  0
   -1.7200   -2.8290   -2.1400 H   0  0  0  0  0  0  0  0  0  0  0  0
   -1.4070    0.1580   -1.7650 H   0  0  0  0  0  0  0  0  0  0  0  0
  1  2  1  0  0  0  0
  2 11  1  1  0  0  0
  2  3  1  0  0  0  0
  3  4  1  0  0  0  0
  4  5  2  0  0  0  0
  4  8  1  0  0  0  0
  6  2  1  0  0  0  0
  7  6  2  0  0  0  0
  8 14  1  0  0  0  0
  9  1  1  0  0  0  0
 10  1  1  0  0  0  0
 12  3  1  0  0  0  0
 13  3  1  0  0  0  0
 15 16  1  0  0  0  0
 15 26  1  0  0  0  0
 16 18  1  0  0  0  0
 17 16  2  0  0  0  0
 18 19  1  0  0  0  0
 18 29  1  0  0  0  0
 19 20  1  0  0  0  0
 19 30  1  0  0  0  0
 20 21  1  0  0  0  0
 20 32  1  0  0  0  0
 21 22  1  0  0  0  0
 21 34  1  0  0  0  0
 22 36  1  1  0  0  0
 22 23  1  0  0  0  0
 23 37  1  0  0  0  0
 23  6  1  0  0  0  0
 24 25  2  0  0  0  0
 24 22  1  0  0  0  0
 27 15  1  0  0  0  0
 28 17  1  0  0  0  0
 31 19  1  0  0  0  0
 33 20  1  0  0  0  0
 35 21  1  0  0  0  0
 38 47  1  0  0  0  0
 38 48  1  0  0  0  0
 39 38  1  0  0  0  0
 40 51  1  0  0  0  0
 40 39  1  0  0  0  0
 41 40  1  0  0  0  0
 41 42  1  0  0  0  0
 42 54  1  1  0  0  0
 42 43  1  0  0  0  0
 43 24  1  0  0  0  0
 44 45  1  0  0  0  0
 44 42  1  0  0  0  0
 46 44  2  0  0  0  0
 49 38  1  0  0  0  0
 50 40  1  0  0  0  0
 52 41  1  0  0  0  0
 53 41  1  0  0  0  0
 55 43  1  0  0  0  0
M  END
$$$$
