DRN.pdb
 OpenBabel07022418123D

 52 51  0  0  1  0  0  0  0  0999 V2000
    2.0380   -2.5770    1.9290 N   0  0  0  0  0  0  0  0  0  0  0  0
    1.4660   -2.0020    3.1010 C   0  0  1  0  0  0  0  0  0  0  0  0
    2.4900   -1.1240    3.8090 C   0  0  0  0  0  0  0  0  0  0  0  0
    3.6860   -1.8810    4.2230 C   0  0  0  0  0  0  0  0  0  0  0  0
    3.8350   -3.0950    4.0180 O   0  0  0  0  0  0  0  0  0  0  0  0
    0.2960   -1.1270    2.8450 C   0  0  0  0  0  0  0  0  0  0  0  0
   -0.2710   -0.6240    3.8500 O   0  0  0  0  0  0  0  0  0  0  0  0
    4.6900   -1.1840    4.8760 O   0  0  0  0  0  0  0  0  0  0  0  0
    2.8860   -2.1180    1.5680 H   0  0  0  0  0  0  0  0  0  0  0  0
    2.0730   -3.6180    1.9300 H   0  0  0  0  0  0  0  0  0  0  0  0
    1.2200   -2.8270    3.8100 H   0  0  0  0  0  0  0  0  0  0  0  0
    2.0230   -0.6050    4.6680 H   0  0  0  0  0  0  0  0  0  0  0  0
    2.8480   -0.3500    3.0810 H   0  0  0  0  0  0  0  0  0  0  0  0
    5.3590   -1.6130    5.5020 H   0  0  0  0  0  0  0  0  0  0  0  0
    2.6880    1.2320   -1.4840 N   0  0  0  0  0  0  0  0  0  0  0  0
    2.4130    2.1740   -0.4580 C   0  0  0  0  0  0  0  0  0  0  0  0
    3.2680    2.3650    0.4850 N   0  0  0  0  0  0  0  0  0  0  0  0
    1.2010    2.9140   -0.4570 N   0  0  0  0  0  0  0  0  0  0  0  0
    0.5810    3.2980    0.7940 C   0  0  0  0  0  0  0  0  0  0  0  0
    0.0840    2.0320    1.4540 C   0  0  0  0  0  0  0  0  0  0  0  0
   -0.9200    1.3050    0.6160 C   0  0  0  0  0  0  0  0  0  0  0  0
   -1.3670    0.0360    1.3520 C   0  0  2  0  0  0  0  0  0  0  0  0
   -0.2230   -0.8190    1.5780 N   0  0  0  0  0  0  0  0  0  0  0  0
   -2.4210   -0.5850    0.5440 C   0  0  0  0  0  0  0  0  0  0  0  0
   -3.4670    0.0830    0.3250 O   0  0  0  0  0  0  0  0  0  0  0  0
    3.6210    1.2750   -1.9460 H   0  0  0  0  0  0  0  0  0  0  0  0
    1.9910    0.5130   -1.7800 H   0  0  0  0  0  0  0  0  0  0  0  0
    4.1590    1.8390    0.5070 H   0  0  0  0  0  0  0  0  0  0  0  0
    0.7470    3.1840   -1.3350 H   0  0  0  0  0  0  0  0  0  0  0  0
   -0.2400    4.0310    0.6130 H   0  0  0  0  0  0  0  0  0  0  0  0
    1.3010    3.8090    1.4730 H   0  0  0  0  0  0  0  0  0  0  0  0
   -0.3830    2.2420    2.4380 H   0  0  0  0  0  0  0  0  0  0  0  0
    0.9630    1.3760    1.6060 H   0  0  0  0  0  0  0  0  0  0  0  0
   -1.8090    1.9320    0.4910 H   0  0  0  0  0  0  0  0  0  0  0  0
   -0.4660    0.9630   -0.3400 H   0  0  0  0  0  0  0  0  0  0  0  0
   -1.8140    0.3990    2.2980 H   0  0  0  0  0  0  0  0  0  0  0  0
    0.2460   -1.2320    0.7410 H   0  0  0  0  0  0  0  0  0  0  0  0
   -2.1250   -1.9150   -4.3630 N   0  0  0  0  0  0  0  0  0  0  0  0
   -2.5350   -1.7660   -3.0160 C   0  0  0  0  0  0  0  0  0  0  0  0
   -2.5310   -0.6140   -2.5310 O   0  0  0  0  0  0  0  0  0  0  0  0
   -2.9610   -2.9130   -2.1820 C   0  0  0  0  0  0  0  0  0  0  0  0
   -3.3640   -2.5150   -0.8030 C   0  0  2  0  0  0  0  0  0  0  0  0
   -2.3700   -1.8750   -0.0170 N   0  0  0  0  0  0  0  0  0  0  0  0
   -3.8830   -3.7590   -0.1330 C   0  0  0  0  0  0  0  0  0  0  0  0
   -3.4570   -4.1380    0.9820 O   0  0  0  0  0  0  0  0  0  0  0  0
   -4.8630   -4.4960   -0.7810 O   0  0  0  0  0  0  0  0  0  0  0  0
   -2.9140   -1.8890   -5.0760 H   0  0  0  0  0  0  0  0  0  0  0  0
   -1.1360   -2.0430   -4.6710 H   0  0  0  0  0  0  0  0  0  0  0  0
   -2.2410   -3.7590   -2.2070 H   0  0  0  0  0  0  0  0  0  0  0  0
   -3.8880   -3.3200   -2.6770 H   0  0  0  0  0  0  0  0  0  0  0  0
   -4.2300   -1.8140   -0.9020 H   0  0  0  0  0  0  0  0  0  0  0  0
   -1.4860   -2.4320    0.1720 H   0  0  0  0  0  0  0  0  0  0  0  0
  1 10  1  0  0  0  0
  1  2  1  0  0  0  0
  2  3  1  0  0  0  0
  2 11  1  1  0  0  0
  3  4  1  0  0  0  0
  3 12  1  0  0  0  0
  4  8  1  0  0  0  0
  5  4  2  0  0  0  0
  6  2  1  0  0  0  0
  6  7  2  0  0  0  0
  8 14  1  0  0  0  0
  9  1  1  0  0  0  0
 13  3  1  0  0  0  0
 15 16  1  0  0  0  0
 16 18  1  0  0  0  0
 16 17  2  0  0  0  0
 17 28  1  0  0  0  0
 18 19  1  0  0  0  0
 19 20  1  0  0  0  0
 19 31  1  0  0  0  0
 20 33  1  0  0  0  0
 20 32  1  0  0  0  0
 21 22  1  0  0  0  0
 21 20  1  0  0  0  0
 22 23  1  0  0  0  0
 22 36  1  1  0  0  0
 23  6  1  0  0  0  0
 24 22  1  0  0  0  0
 25 24  2  0  0  0  0
 26 15  1  0  0  0  0
 27 15  1  0  0  0  0
 29 18  1  0  0  0  0
 30 19  1  0  0  0  0
 34 21  1  0  0  0  0
 35 21  1  0  0  0  0
 37 23  1  0  0  0  0
 38 39  1  0  0  0  0
 39 40  2  0  0  0  0
 39 41  1  0  0  0  0
 41 42  1  0  0  0  0
 42 51  1  6  0  0  0
 42 44  1  0  0  0  0
 42 43  1  0  0  0  0
 43 52  1  0  0  0  0
 43 24  1  0  0  0  0
 44 45  1  0  0  0  0
 46 44  2  0  0  0  0
 47 38  1  0  0  0  0
 48 38  1  0  0  0  0
 49 41  1  0  0  0  0
 50 41  1  0  0  0  0
M  END
$$$$
