DRQ.pdb
 OpenBabel07022418123D

 55 54  0  0  1  0  0  0  0  0999 V2000
   -2.4680   -1.9300    5.0050 N   0  0  0  0  0  0  0  0  0  0  0  0
   -1.4930   -1.0150    4.4500 C   0  0  1  0  0  0  0  0  0  0  0  0
   -0.0750   -1.4760    4.6670 C   0  0  0  0  0  0  0  0  0  0  0  0
    0.1600   -2.7980    4.0380 C   0  0  0  0  0  0  0  0  0  0  0  0
   -0.7430   -3.4120    3.4280 O   0  0  0  0  0  0  0  0  0  0  0  0
   -1.8440   -0.7140    3.0680 C   0  0  0  0  0  0  0  0  0  0  0  0
   -2.9130   -1.1650    2.5530 O   0  0  0  0  0  0  0  0  0  0  0  0
    1.4440   -3.3530    4.1480 O   0  0  0  0  0  0  0  0  0  0  0  0
   -3.1740   -2.2280    4.3010 H   0  0  0  0  0  0  0  0  0  0  0  0
   -2.0240   -2.8310    5.3330 H   0  0  0  0  0  0  0  0  0  0  0  0
   -1.6590   -0.0540    5.0310 H   0  0  0  0  0  0  0  0  0  0  0  0
    0.6710   -0.7260    4.3920 H   0  0  0  0  0  0  0  0  0  0  0  0
    0.0350   -1.6250    5.7750 H   0  0  0  0  0  0  0  0  0  0  0  0
    1.8040   -3.9200    3.3750 H   0  0  0  0  0  0  0  0  0  0  0  0
    3.4470   -0.4320   -0.0670 N   0  0  0  0  0  0  0  0  0  0  0  0
    3.0130    0.8930   -0.2550 C   0  0  0  0  0  0  0  0  0  0  0  0
    3.5770    1.7070   -1.0500 N   0  0  0  0  0  0  0  0  0  0  0  0
    1.8750    1.3410    0.4910 N   0  0  0  0  0  0  0  0  0  0  0  0
    1.1870    2.5560    0.1690 C   0  0  0  0  0  0  0  0  0  0  0  0
   -0.0930    2.7880    0.8930 C   0  0  0  0  0  0  0  0  0  0  0  0
   -1.2330    1.9000    0.6480 C   0  0  0  0  0  0  0  0  0  0  0  0
   -1.2070    0.4640    0.9320 C   0  0  2  0  0  0  0  0  0  0  0  0
   -0.9590    0.1050    2.2930 N   0  0  0  0  0  0  0  0  0  0  0  0
   -0.5040   -0.4000   -0.0550 C   0  0  0  0  0  0  0  0  0  0  0  0
    0.2160   -1.3540    0.3420 O   0  0  0  0  0  0  0  0  0  0  0  0
    4.0620   -0.8980   -0.7770 H   0  0  0  0  0  0  0  0  0  0  0  0
    3.1920   -1.0110    0.7600 H   0  0  0  0  0  0  0  0  0  0  0  0
    4.3900    1.3870   -1.5850 H   0  0  0  0  0  0  0  0  0  0  0  0
    1.5710    0.7790    1.3110 H   0  0  0  0  0  0  0  0  0  0  0  0
    1.0410    2.6040   -0.9460 H   0  0  0  0  0  0  0  0  0  0  0  0
    1.9320    3.3840    0.4230 H   0  0  0  0  0  0  0  0  0  0  0  0
   -0.3700    3.8780    0.6640 H   0  0  0  0  0  0  0  0  0  0  0  0
    0.1870    2.8640    1.9850 H   0  0  0  0  0  0  0  0  0  0  0  0
   -2.1320    2.4100    1.1610 H   0  0  0  0  0  0  0  0  0  0  0  0
   -1.5290    2.0820   -0.4520 H   0  0  0  0  0  0  0  0  0  0  0  0
   -2.3330    0.1380    0.7940 H   0  0  0  0  0  0  0  0  0  0  0  0
   -0.1170    0.4360    2.7930 H   0  0  0  0  0  0  0  0  0  0  0  0
   -2.3340   -4.6270   -1.1400 N   0  0  0  0  0  0  0  0  0  0  0  0
   -1.3880   -3.7720   -1.8000 C   0  0  0  0  0  0  0  0  0  0  0  0
   -0.1680   -4.0020   -1.6270 O   0  0  0  0  0  0  0  0  0  0  0  0
   -1.8530   -2.6680   -2.6480 C   0  0  0  0  0  0  0  0  0  0  0  0
   -0.8010   -1.8400   -3.2820 C   0  0  0  0  0  0  0  0  0  0  0  0
    0.1300   -1.1320   -2.3550 C   0  0  2  0  0  0  0  0  0  0  0  0
   -0.5950   -0.2180   -1.4610 N   0  0  0  0  0  0  0  0  0  0  0  0
    1.1340   -0.3880   -3.1690 C   0  0  0  0  0  0  0  0  0  0  0  0
    1.2650    0.8440   -3.0170 O   0  0  0  0  0  0  0  0  0  0  0  0
    1.9270   -1.0400   -4.0930 O   0  0  0  0  0  0  0  0  0  0  0  0
   -2.2250   -4.8430   -0.1350 H   0  0  0  0  0  0  0  0  0  0  0  0
   -3.1350   -5.0330   -1.6690 H   0  0  0  0  0  0  0  0  0  0  0  0
   -2.4970   -1.9880   -2.0470 H   0  0  0  0  0  0  0  0  0  0  0  0
   -2.5240   -3.0910   -3.4220 H   0  0  0  0  0  0  0  0  0  0  0  0
   -1.3330   -1.0520   -3.8910 H   0  0  0  0  0  0  0  0  0  0  0  0
   -0.2190   -2.4140   -4.0310 H   0  0  0  0  0  0  0  0  0  0  0  0
    0.7130   -1.8630   -1.7630 H   0  0  0  0  0  0  0  0  0  0  0  0
   -1.1600    0.5430   -1.8460 H   0  0  0  0  0  0  0  0  0  0  0  0
  1 10  1  0  0  0  0
  2  3  1  0  0  0  0
  2  1  1  0  0  0  0
  2 11  1  1  0  0  0
  3 13  1  0  0  0  0
  4  8  1  0  0  0  0
  4  3  1  0  0  0  0
  5  4  2  0  0  0  0
  6  2  1  0  0  0  0
  7  6  2  0  0  0  0
  9  1  1  0  0  0  0
 12  3  1  0  0  0  0
 14  8  1  0  0  0  0
 15 27  1  0  0  0  0
 16 15  1  0  0  0  0
 16 18  1  0  0  0  0
 17 16  2  0  0  0  0
 18 29  1  0  0  0  0
 19 31  1  0  0  0  0
 19 18  1  0  0  0  0
 19 20  1  0  0  0  0
 20 33  1  0  0  0  0
 21 20  1  0  0  0  0
 21 22  1  0  0  0  0
 21 34  1  0  0  0  0
 22 36  1  6  0  0  0
 22 23  1  0  0  0  0
 23 37  1  0  0  0  0
 23  6  1  0  0  0  0
 24 25  2  0  0  0  0
 24 22  1  0  0  0  0
 26 15  1  0  0  0  0
 28 17  1  0  0  0  0
 30 19  1  0  0  0  0
 32 20  1  0  0  0  0
 35 21  1  0  0  0  0
 38 48  1  0  0  0  0
 39 40  2  0  0  0  0
 39 38  1  0  0  0  0
 41 50  1  0  0  0  0
 41 39  1  0  0  0  0
 42 41  1  0  0  0  0
 42 43  1  0  0  0  0
 43 54  1  1  0  0  0
 43 44  1  0  0  0  0
 44 24  1  0  0  0  0
 45 46  1  0  0  0  0
 45 43  1  0  0  0  0
 47 45  2  0  0  0  0
 49 38  1  0  0  0  0
 51 41  1  0  0  0  0
 52 42  1  0  0  0  0
 53 42  1  0  0  0  0
 55 44  1  0  0  0  0
M  END
$$$$
