DRS.pdb
 OpenBabel07022418123D

 49 48  0  0  1  0  0  0  0  0999 V2000
    3.4210   -3.0040    2.1070 N   0  0  0  0  0  0  0  0  0  0  0  0
    2.0590   -2.5730    2.3700 C   0  0  1  0  0  0  0  0  0  0  0  0
    1.9790   -1.9270    3.7390 C   0  0  0  0  0  0  0  0  0  0  0  0
    2.8670   -0.7500    3.8430 C   0  0  0  0  0  0  0  0  0  0  0  0
    3.6030   -0.3220    2.9200 O   0  0  0  0  0  0  0  0  0  0  0  0
    1.5350   -1.6920    1.2880 C   0  0  0  0  0  0  0  0  0  0  0  0
    2.2360   -1.3290    0.3210 O   0  0  0  0  0  0  0  0  0  0  0  0
    2.9020   -0.0560    5.0440 O   0  0  0  0  0  0  0  0  0  0  0  0
    3.3830   -3.8640    1.5240 H   0  0  0  0  0  0  0  0  0  0  0  0
    3.9330   -2.2780    1.5550 H   0  0  0  0  0  0  0  0  0  0  0  0
    1.4480   -3.5110    2.4390 H   0  0  0  0  0  0  0  0  0  0  0  0
    0.9330   -1.5360    3.8410 H   0  0  0  0  0  0  0  0  0  0  0  0
    2.1400   -2.6670    4.5310 H   0  0  0  0  0  0  0  0  0  0  0  0
    3.7530    0.4420    5.3390 H   0  0  0  0  0  0  0  0  0  0  0  0
   -0.7230    4.6360   -1.3270 N   0  0  0  0  0  0  0  0  0  0  0  0
   -0.1350    4.2460   -0.0960 C   0  0  0  0  0  0  0  0  0  0  0  0
    0.9440    4.8960    0.2690 N   0  0  0  0  0  0  0  0  0  0  0  0
   -0.6750    3.2120    0.7060 N   0  0  0  0  0  0  0  0  0  0  0  0
    0.1880    2.3960    1.5090 C   0  0  0  0  0  0  0  0  0  0  0  0
    1.0880    1.4940    0.6800 C   0  0  0  0  0  0  0  0  0  0  0  0
    0.3590    0.5540   -0.2060 C   0  0  0  0  0  0  0  0  0  0  0  0
   -0.5490   -0.4320    0.5260 C   0  0  2  0  0  0  0  0  0  0  0  0
    0.2050   -1.2710    1.3830 N   0  0  0  0  0  0  0  0  0  0  0  0
   -1.4560   -1.0850   -0.4000 C   0  0  0  0  0  0  0  0  0  0  0  0
   -2.1640   -0.3980   -1.1720 O   0  0  0  0  0  0  0  0  0  0  0  0
   -1.1280    3.9390   -1.9840 H   0  0  0  0  0  0  0  0  0  0  0  0
   -0.7580    5.6630   -1.5950 H   0  0  0  0  0  0  0  0  0  0  0  0
    1.3580    5.6480   -0.2880 H   0  0  0  0  0  0  0  0  0  0  0  0
   -1.7020    3.0670    0.6950 H   0  0  0  0  0  0  0  0  0  0  0  0
   -0.3160    1.8030    2.2920 H   0  0  0  0  0  0  0  0  0  0  0  0
    0.9180    3.0400    2.0930 H   0  0  0  0  0  0  0  0  0  0  0  0
    1.7550    0.9770    1.3710 H   0  0  0  0  0  0  0  0  0  0  0  0
    1.7160    2.1430    0.0330 H   0  0  0  0  0  0  0  0  0  0  0  0
   -0.3820    1.1950   -0.8040 H   0  0  0  0  0  0  0  0  0  0  0  0
    1.0330    0.0990   -0.9250 H   0  0  0  0  0  0  0  0  0  0  0  0
   -1.0980    0.2910    1.2470 H   0  0  0  0  0  0  0  0  0  0  0  0
   -0.3610   -1.6340    2.2360 H   0  0  0  0  0  0  0  0  0  0  0  0
   -0.8630   -2.9600   -3.0620 O   0  0  0  0  0  0  0  0  0  0  0  0
   -1.6120   -3.9400   -2.3860 C   0  0  0  0  0  0  0  0  0  0  0  0
   -2.4460   -3.2020   -1.3560 C   0  0  2  0  0  0  0  0  0  0  0  0
   -1.5540   -2.4950   -0.4460 N   0  0  0  0  0  0  0  0  0  0  0  0
   -3.3710   -4.0910   -0.6540 C   0  0  0  0  0  0  0  0  0  0  0  0
   -4.2130   -4.7740   -1.2890 O   0  0  0  0  0  0  0  0  0  0  0  0
   -3.4080   -4.2630    0.7400 O   0  0  0  0  0  0  0  0  0  0  0  0
   -1.3390   -2.5660   -3.8210 H   0  0  0  0  0  0  0  0  0  0  0  0
   -2.2970   -4.3650   -3.1410 H   0  0  0  0  0  0  0  0  0  0  0  0
   -0.9510   -4.6970   -1.9480 H   0  0  0  0  0  0  0  0  0  0  0  0
   -3.0300   -2.4510   -1.9270 H   0  0  0  0  0  0  0  0  0  0  0  0
   -0.9440   -3.0330    0.2190 H   0  0  0  0  0  0  0  0  0  0  0  0
  1  2  1  0  0  0  0
  2 11  1  1  0  0  0
  2  3  1  0  0  0  0
  3 12  1  0  0  0  0
  3  4  1  0  0  0  0
  3 13  1  0  0  0  0
  4  8  1  0  0  0  0
  5  4  2  0  0  0  0
  6 23  1  0  0  0  0
  6  2  1  0  0  0  0
  7  6  2  0  0  0  0
  8 14  1  0  0  0  0
  9  1  1  0  0  0  0
 10  1  1  0  0  0  0
 15 16  1  0  0  0  0
 16 17  2  0  0  0  0
 16 18  1  0  0  0  0
 18 19  1  0  0  0  0
 19 31  1  0  0  0  0
 19 30  1  0  0  0  0
 20 32  1  0  0  0  0
 20 19  1  0  0  0  0
 21 22  1  0  0  0  0
 21 20  1  0  0  0  0
 22 36  1  1  0  0  0
 22 23  1  0  0  0  0
 23 37  1  0  0  0  0
 24 22  1  0  0  0  0
 25 24  2  0  0  0  0
 26 15  1  0  0  0  0
 27 15  1  0  0  0  0
 28 17  1  0  0  0  0
 29 18  1  0  0  0  0
 33 20  1  0  0  0  0
 34 21  1  0  0  0  0
 35 21  1  0  0  0  0
 38 39  1  0  0  0  0
 39 47  1  0  0  0  0
 39 40  1  0  0  0  0
 40 48  1  6  0  0  0
 40 42  1  0  0  0  0
 40 41  1  0  0  0  0
 41 24  1  0  0  0  0
 41 49  1  0  0  0  0
 42 44  1  0  0  0  0
 43 42  2  0  0  0  0
 45 38  1  0  0  0  0
 46 39  1  0  0  0  0
M  END
$$$$
