DRW.pdb
 OpenBabel07022418123D

 62 63  0  0  1  0  0  0  0  0999 V2000
    4.5290   -2.9080    2.8950 N   0  0  0  0  0  0  0  0  0  0  0  0
    3.9580   -1.6630    3.3310 C   0  0  1  0  0  0  0  0  0  0  0  0
    4.7480   -0.4550    2.9400 C   0  0  0  0  0  0  0  0  0  0  0  0
    4.9240   -0.2520    1.4970 C   0  0  0  0  0  0  0  0  0  0  0  0
    5.6080    0.7610    1.1170 O   0  0  0  0  0  0  0  0  0  0  0  0
    2.5740   -1.5710    2.7600 C   0  0  0  0  0  0  0  0  0  0  0  0
    2.0640   -2.5960    2.1770 O   0  0  0  0  0  0  0  0  0  0  0  0
    4.4310   -1.0370    0.4860 O   0  0  0  0  0  0  0  0  0  0  0  0
    4.5550   -3.0110    1.8620 H   0  0  0  0  0  0  0  0  0  0  0  0
    4.0980   -3.7230    3.3660 H   0  0  0  0  0  0  0  0  0  0  0  0
    3.9010   -1.6690    4.4440 H   0  0  0  0  0  0  0  0  0  0  0  0
    5.7350   -0.4100    3.4600 H   0  0  0  0  0  0  0  0  0  0  0  0
    4.1810    0.4440    3.3210 H   0  0  0  0  0  0  0  0  0  0  0  0
    4.6980   -0.9390   -0.4940 H   0  0  0  0  0  0  0  0  0  0  0  0
   -0.7030    3.3700   -0.1340 N   0  0  0  0  0  0  0  0  0  0  0  0
   -0.9800    2.8600    1.1850 C   0  0  0  0  0  0  0  0  0  0  0  0
   -0.0950    3.0580    2.0790 N   0  0  0  0  0  0  0  0  0  0  0  0
   -2.1960    2.1790    1.4590 N   0  0  0  0  0  0  0  0  0  0  0  0
   -2.4770    1.5640    2.6710 C   0  0  0  0  0  0  0  0  0  0  0  0
   -1.9230    0.3110    3.1780 C   0  0  0  0  0  0  0  0  0  0  0  0
   -0.5160    0.0350    3.3080 C   0  0  0  0  0  0  0  0  0  0  0  0
    0.4040   -0.3540    2.2520 C   0  0  2  0  0  0  0  0  0  0  0  0
    1.7680   -0.4130    2.8160 N   0  0  0  0  0  0  0  0  0  0  0  0
    0.3530    0.0500    0.8800 C   0  0  0  0  0  0  0  0  0  0  0  0
    1.3110    0.6780    0.2920 O   0  0  0  0  0  0  0  0  0  0  0  0
    0.2710    3.3400   -0.5030 H   0  0  0  0  0  0  0  0  0  0  0  0
   -1.4640    3.7660   -0.7210 H   0  0  0  0  0  0  0  0  0  0  0  0
    0.8020    3.5550    1.9280 H   0  0  0  0  0  0  0  0  0  0  0  0
   -2.8980    2.1790    0.6570 H   0  0  0  0  0  0  0  0  0  0  0  0
   -3.6390    1.3980    2.7130 H   0  0  0  0  0  0  0  0  0  0  0  0
   -2.3530    2.3390    3.5460 H   0  0  0  0  0  0  0  0  0  0  0  0
   -2.3780    0.1830    4.2420 H   0  0  0  0  0  0  0  0  0  0  0  0
   -2.4790   -0.5210    2.6040 H   0  0  0  0  0  0  0  0  0  0  0  0
   -0.3420   -0.7560    4.1580 H   0  0  0  0  0  0  0  0  0  0  0  0
   -0.0470    0.9440    3.8500 H   0  0  0  0  0  0  0  0  0  0  0  0
    0.1980   -1.5310    2.1510 H   0  0  0  0  0  0  0  0  0  0  0  0
    2.1670    0.4390    3.2820 H   0  0  0  0  0  0  0  0  0  0  0  0
   -0.7570   -0.2150    0.0130 N   0  0  0  0  0  0  0  0  0  0  0  0
   -0.7540    0.1930   -1.3810 C   0  0  1  0  0  0  0  0  0  0  0  0
   -0.2010   -0.9860   -2.2140 C   0  0  0  0  0  0  0  0  0  0  0  0
   -0.9610   -2.2150   -2.0630 C   0  0  0  0  0  0  0  0  0  0  0  0
   -0.6580   -3.2300   -1.1360 C   0  0  0  0  0  0  0  0  0  0  0  0
   -1.5710   -4.2030   -1.2050 N   0  0  0  0  0  0  0  0  0  0  0  0
   -2.4780   -3.8600   -2.1610 C   0  0  0  0  0  0  0  0  0  0  0  0
   -3.6060   -4.5250   -2.6250 C   0  0  0  0  0  0  0  0  0  0  0  0
   -4.3720   -3.9730   -3.6300 C   0  0  0  0  0  0  0  0  0  0  0  0
   -3.9930   -2.7490   -4.1600 C   0  0  0  0  0  0  0  0  0  0  0  0
   -2.8880   -2.0930   -3.7070 C   0  0  0  0  0  0  0  0  0  0  0  0
   -2.1170   -2.6490   -2.6930 C   0  0  0  0  0  0  0  0  0  0  0  0
   -2.0320    0.5950   -1.9310 C   0  0  0  0  0  0  0  0  0  0  0  0
   -2.1580    1.1850   -3.0590 O   0  0  0  0  0  0  0  0  0  0  0  0
   -3.2540    0.3730   -1.2830 O   0  0  0  0  0  0  0  0  0  0  0  0
   -1.6010   -0.7100    0.3610 H   0  0  0  0  0  0  0  0  0  0  0  0
   -0.0180    1.0330   -1.4640 H   0  0  0  0  0  0  0  0  0  0  0  0
    0.8340   -1.1340   -1.8420 H   0  0  0  0  0  0  0  0  0  0  0  0
   -0.1270   -0.6940   -3.2780 H   0  0  0  0  0  0  0  0  0  0  0  0
    0.1930   -3.1880   -0.4870 H   0  0  0  0  0  0  0  0  0  0  0  0
   -1.6030   -5.0950   -0.6290 H   0  0  0  0  0  0  0  0  0  0  0  0
   -3.8530   -5.4850   -2.1670 H   0  0  0  0  0  0  0  0  0  0  0  0
   -5.2470   -4.5240   -3.9650 H   0  0  0  0  0  0  0  0  0  0  0  0
   -4.6330   -2.3370   -4.9640 H   0  0  0  0  0  0  0  0  0  0  0  0
   -2.6100   -1.1580   -4.1520 H   0  0  0  0  0  0  0  0  0  0  0  0
  1  2  1  0  0  0  0
  1 10  1  0  0  0  0
  2 11  1  1  0  0  0
  3 13  1  0  0  0  0
  3  2  1  0  0  0  0
  3 12  1  0  0  0  0
  4  3  1  0  0  0  0
  5  4  2  0  0  0  0
  6 23  1  0  0  0  0
  6  2  1  0  0  0  0
  7  6  2  0  0  0  0
  8  4  1  0  0  0  0
  9  1  1  0  0  0  0
 14  8  1  0  0  0  0
 15 16  1  0  0  0  0
 16 18  1  0  0  0  0
 16 17  2  0  0  0  0
 18 19  1  0  0  0  0
 19 30  1  0  0  0  0
 19 20  1  0  0  0  0
 19 31  1  0  0  0  0
 20 21  1  0  0  0  0
 20 32  1  0  0  0  0
 21 35  1  0  0  0  0
 21 34  1  0  0  0  0
 22 36  1  6  0  0  0
 22 23  1  0  0  0  0
 22 21  1  0  0  0  0
 23 37  1  0  0  0  0
 24 22  1  0  0  0  0
 25 24  2  0  0  0  0
 26 15  1  0  0  0  0
 27 15  1  0  0  0  0
 28 17  1  0  0  0  0
 29 18  1  0  0  0  0
 33 20  1  0  0  0  0
 38 53  1  0  0  0  0
 38 24  1  0  0  0  0
 39 54  1  6  0  0  0
 39 38  1  0  0  0  0
 40 41  1  0  0  0  0
 40 55  1  0  0  0  0
 40 39  1  0  0  0  0
 41 42  2  0  0  0  0
 42 57  1  0  0  0  0
 43 42  1  0  0  0  0
 43 58  1  0  0  0  0
 44 43  1  0  0  0  0
 45 59  1  0  0  0  0
 45 44  1  0  0  0  0
 46 45  2  0  0  0  0
 47 48  2  0  0  0  0
 47 46  1  0  0  0  0
 48 49  1  0  0  0  0
 49 44  2  0  0  0  0
 49 41  1  0  0  0  0
 50 39  1  0  0  0  0
 50 52  1  0  0  0  0
 51 50  2  0  0  0  0
 56 40  1  0  0  0  0
 60 46  1  0  0  0  0
 61 47  1  0  0  0  0
 62 48  1  0  0  0  0
M  END
$$$$
