DSC.pdb
 OpenBabel07022418153D

 37 36  0  0  1  0  0  0  0  0999 V2000
   -0.4020   -1.9610    2.6470 N   0  0  0  0  0  0  0  0  0  0  0  0
    1.0300   -1.9180    2.6920 C   0  0  1  0  0  0  0  0  0  0  0  0
    1.5620   -3.2830    3.0850 C   0  0  0  0  0  0  0  0  0  0  0  0
    1.0100   -3.6060    4.4190 C   0  0  0  0  0  0  0  0  0  0  0  0
    1.5290   -3.1250    5.4460 O   0  0  0  0  0  0  0  0  0  0  0  0
    1.5530   -1.4960    1.3860 C   0  0  0  0  0  0  0  0  0  0  0  0
    2.7740   -1.3760    1.1570 O   0  0  0  0  0  0  0  0  0  0  0  0
   -0.0730   -4.4350    4.5250 O   0  0  0  0  0  0  0  0  0  0  0  0
   -0.7610   -2.7570    2.0680 H   0  0  0  0  0  0  0  0  0  0  0  0
   -0.8350   -1.0540    2.4370 H   0  0  0  0  0  0  0  0  0  0  0  0
    1.3270   -1.1510    3.4350 H   0  0  0  0  0  0  0  0  0  0  0  0
    1.2660   -4.0590    2.3750 H   0  0  0  0  0  0  0  0  0  0  0  0
    2.6720   -3.2870    3.1340 H   0  0  0  0  0  0  0  0  0  0  0  0
   -0.6550   -4.5130    5.3610 H   0  0  0  0  0  0  0  0  0  0  0  0
    1.2860   -2.9720   -1.8320 O   0  0  0  0  0  0  0  0  0  0  0  0
    0.7150   -1.7180   -2.0880 C   0  0  0  0  0  0  0  0  0  0  0  0
    1.1030   -0.7870   -0.9790 C   0  0  2  0  0  0  0  0  0  0  0  0
    0.6700   -1.2030    0.3190 N   0  0  0  0  0  0  0  0  0  0  0  0
    0.5820    0.5830   -1.2480 C   0  0  0  0  0  0  0  0  0  0  0  0
    0.8200    1.1930   -2.3320 O   0  0  0  0  0  0  0  0  0  0  0  0
    2.2360   -2.9180   -1.6420 H   0  0  0  0  0  0  0  0  0  0  0  0
   -0.3530   -1.7710   -2.2830 H   0  0  0  0  0  0  0  0  0  0  0  0
    1.2060   -1.3430   -3.0120 H   0  0  0  0  0  0  0  0  0  0  0  0
    2.2190   -0.7500   -0.9590 H   0  0  0  0  0  0  0  0  0  0  0  0
   -0.3770   -1.2910    0.4650 H   0  0  0  0  0  0  0  0  0  0  0  0
   -0.2160    1.3010   -0.3100 N   0  0  0  0  0  0  0  0  0  0  0  0
   -0.7210    2.6150   -0.5580 C   0  0  1  0  0  0  0  0  0  0  0  0
   -2.2480    2.5390   -0.7050 C   0  0  0  0  0  0  0  0  0  0  0  0
   -2.6700    1.4430   -2.0960 S   0  0  0  0  0  0  0  0  0  0  0  0
   -0.3790    3.6070    0.4460 C   0  0  0  0  0  0  0  0  0  0  0  0
   -0.7650    4.7910    0.3330 O   0  0  0  0  0  0  0  0  0  0  0  0
    0.3790    3.2820    1.5540 O   0  0  0  0  0  0  0  0  0  0  0  0
   -0.4300    0.8330    0.5850 H   0  0  0  0  0  0  0  0  0  0  0  0
   -0.3630    2.9160   -1.5850 H   0  0  0  0  0  0  0  0  0  0  0  0
   -2.7260    2.2450    0.2300 H   0  0  0  0  0  0  0  0  0  0  0  0
   -2.5690    3.5710   -0.9820 H   0  0  0  0  0  0  0  0  0  0  0  0
   -2.2010    0.1550   -1.7770 H   0  0  0  0  0  0  0  0  0  0  0  0
  1  2  1  0  0  0  0
  2  3  1  0  0  0  0
  2 11  1  1  0  0  0
  3 13  1  0  0  0  0
  3  4  1  0  0  0  0
  4  8  1  0  0  0  0
  4  5  2  0  0  0  0
  6  2  1  0  0  0  0
  7  6  2  0  0  0  0
  8 14  1  0  0  0  0
  9  1  1  0  0  0  0
 10  1  1  0  0  0  0
 12  3  1  0  0  0  0
 15 21  1  0  0  0  0
 16 15  1  0  0  0  0
 16 17  1  0  0  0  0
 17 24  1  1  0  0  0
 17 18  1  0  0  0  0
 18 25  1  0  0  0  0
 18  6  1  0  0  0  0
 19 17  1  0  0  0  0
 19 26  1  0  0  0  0
 20 19  2  0  0  0  0
 22 16  1  0  0  0  0
 23 16  1  0  0  0  0
 26 33  1  0  0  0  0
 27 34  1  6  0  0  0
 27 26  1  0  0  0  0
 27 30  1  0  0  0  0
 28 27  1  0  0  0  0
 28 35  1  0  0  0  0
 29 37  1  0  0  0  0
 29 28  1  0  0  0  0
 30 32  1  0  0  0  0
 31 30  2  0  0  0  0
 36 28  1  0  0  0  0
M  END
$$$$
