DSD.pdb
 OpenBabel07022418153D

 39 38  0  0  1  0  0  0  0  0999 V2000
    0.5310   -1.7140    3.1470 N   0  0  0  0  0  0  0  0  0  0  0  0
    1.9020   -1.3690    2.7920 C   0  0  1  0  0  0  0  0  0  0  0  0
    2.7350   -2.5970    3.0780 C   0  0  0  0  0  0  0  0  0  0  0  0
    4.1360   -2.3340    2.7500 C   0  0  0  0  0  0  0  0  0  0  0  0
    4.6270   -2.5660    1.6130 O   0  0  0  0  0  0  0  0  0  0  0  0
    2.0240   -1.0390    1.3640 C   0  0  0  0  0  0  0  0  0  0  0  0
    3.0780   -0.6480    0.8170 O   0  0  0  0  0  0  0  0  0  0  0  0
    4.9390   -1.7970    3.7730 O   0  0  0  0  0  0  0  0  0  0  0  0
    0.5610   -2.0520    4.1510 H   0  0  0  0  0  0  0  0  0  0  0  0
   -0.0920   -0.8760    3.1680 H   0  0  0  0  0  0  0  0  0  0  0  0
    2.2400   -0.5110    3.4010 H   0  0  0  0  0  0  0  0  0  0  0  0
    2.6570   -2.8900    4.1560 H   0  0  0  0  0  0  0  0  0  0  0  0
    2.3710   -3.4670    2.5050 H   0  0  0  0  0  0  0  0  0  0  0  0
    5.8000   -1.3190    3.4700 H   0  0  0  0  0  0  0  0  0  0  0  0
    0.6750   -1.9460   -2.9970 O   0  0  0  0  0  0  0  0  0  0  0  0
    0.6310   -2.1150   -1.6300 C   0  0  0  0  0  0  0  0  0  0  0  0
    0.9560   -0.8550   -0.8690 C   0  0  2  0  0  0  0  0  0  0  0  0
    0.8740   -1.1710    0.5420 N   0  0  0  0  0  0  0  0  0  0  0  0
   -0.0040    0.2390   -1.1390 C   0  0  0  0  0  0  0  0  0  0  0  0
   -0.1440    0.7060   -2.3030 O   0  0  0  0  0  0  0  0  0  0  0  0
    1.5150   -2.2980   -3.3860 H   0  0  0  0  0  0  0  0  0  0  0  0
   -0.3360   -2.5470   -1.3050 H   0  0  0  0  0  0  0  0  0  0  0  0
    1.4060   -2.8630   -1.3580 H   0  0  0  0  0  0  0  0  0  0  0  0
    1.9860   -0.5520   -1.1620 H   0  0  0  0  0  0  0  0  0  0  0  0
   -0.0510   -1.4920    0.9040 H   0  0  0  0  0  0  0  0  0  0  0  0
   -0.7940    0.7950   -0.1040 N   0  0  0  0  0  0  0  0  0  0  0  0
   -1.7500    1.8590   -0.2900 C   0  0  1  0  0  0  0  0  0  0  0  0
   -3.0900    1.4050    0.2380 C   0  0  0  0  0  0  0  0  0  0  0  0
   -3.5710    0.1970   -0.4740 C   0  0  0  0  0  0  0  0  0  0  0  0
   -2.9000   -0.3300   -1.3900 O   0  0  0  0  0  0  0  0  0  0  0  0
   -1.3620    3.0350    0.5520 C   0  0  0  0  0  0  0  0  0  0  0  0
   -2.0230    4.0990    0.5780 O   0  0  0  0  0  0  0  0  0  0  0  0
   -4.7910   -0.3960   -0.1460 O   0  0  0  0  0  0  0  0  0  0  0  0
   -0.2270    2.9500    1.3370 O   0  0  0  0  0  0  0  0  0  0  0  0
   -0.6960    0.4300    0.8680 H   0  0  0  0  0  0  0  0  0  0  0  0
   -1.8510    2.1540   -1.3560 H   0  0  0  0  0  0  0  0  0  0  0  0
   -3.8510    2.2230    0.1860 H   0  0  0  0  0  0  0  0  0  0  0  0
   -3.0110    1.1420    1.3230 H   0  0  0  0  0  0  0  0  0  0  0  0
   -5.2150   -1.1050   -0.7240 H   0  0  0  0  0  0  0  0  0  0  0  0
  1 10  1  0  0  0  0
  1  9  1  0  0  0  0
  2  3  1  0  0  0  0
  2  1  1  0  0  0  0
  2 11  1  1  0  0  0
  3 12  1  0  0  0  0
  4  3  1  0  0  0  0
  4  8  1  0  0  0  0
  5  4  2  0  0  0  0
  6  2  1  0  0  0  0
  7  6  2  0  0  0  0
 13  3  1  0  0  0  0
 14  8  1  0  0  0  0
 15 16  1  0  0  0  0
 16 23  1  0  0  0  0
 16 22  1  0  0  0  0
 16 17  1  0  0  0  0
 17 24  1  6  0  0  0
 17 18  1  0  0  0  0
 18 25  1  0  0  0  0
 18  6  1  0  0  0  0
 19 17  1  0  0  0  0
 19 26  1  0  0  0  0
 20 19  2  0  0  0  0
 21 15  1  0  0  0  0
 26 35  1  0  0  0  0
 27 36  1  6  0  0  0
 27 26  1  0  0  0  0
 27 28  1  0  0  0  0
 27 31  1  0  0  0  0
 28 38  1  0  0  0  0
 29 33  1  0  0  0  0
 29 28  1  0  0  0  0
 30 29  2  0  0  0  0
 31 32  2  0  0  0  0
 31 34  1  0  0  0  0
 37 28  1  0  0  0  0
 39 33  1  0  0  0  0
M  END
$$$$
