DSE.pdb
 OpenBabel07022418153D

 42 41  0  0  1  0  0  0  0  0999 V2000
    3.7240   -3.5290    0.6420 N   0  0  0  0  0  0  0  0  0  0  0  0
    3.6240   -2.2280    1.2800 C   0  0  1  0  0  0  0  0  0  0  0  0
    5.0000   -1.6590    1.3120 C   0  0  0  0  0  0  0  0  0  0  0  0
    5.1190   -0.3260    1.9180 C   0  0  0  0  0  0  0  0  0  0  0  0
    5.2730    0.6790    1.1970 O   0  0  0  0  0  0  0  0  0  0  0  0
    2.6100   -1.4170    0.5950 C   0  0  0  0  0  0  0  0  0  0  0  0
    2.1280   -1.9160   -0.4600 O   0  0  0  0  0  0  0  0  0  0  0  0
    5.0610   -0.1940    3.2860 O   0  0  0  0  0  0  0  0  0  0  0  0
    2.9100   -4.1500    0.8880 H   0  0  0  0  0  0  0  0  0  0  0  0
    4.6440   -3.9670    0.7640 H   0  0  0  0  0  0  0  0  0  0  0  0
    3.2900   -2.3310    2.3420 H   0  0  0  0  0  0  0  0  0  0  0  0
    5.5080   -1.6940    0.3150 H   0  0  0  0  0  0  0  0  0  0  0  0
    5.6190   -2.3470    1.9640 H   0  0  0  0  0  0  0  0  0  0  0  0
    4.8610    0.7020    3.7420 H   0  0  0  0  0  0  0  0  0  0  0  0
    0.4090    1.5270   -1.7140 O   0  0  0  0  0  0  0  0  0  0  0  0
    1.3220    0.6840   -1.0620 C   0  0  0  0  0  0  0  0  0  0  0  0
    1.1830    0.6870    0.4070 C   0  0  2  0  0  0  0  0  0  0  0  0
    2.1630   -0.1550    1.0360 N   0  0  0  0  0  0  0  0  0  0  0  0
   -0.1360    0.4010    0.9710 C   0  0  0  0  0  0  0  0  0  0  0  0
   -0.1660   -0.4870    1.8950 O   0  0  0  0  0  0  0  0  0  0  0  0
   -0.2710    0.9620   -2.1990 H   0  0  0  0  0  0  0  0  0  0  0  0
    1.3110   -0.2760   -1.5920 H   0  0  0  0  0  0  0  0  0  0  0  0
    2.3280    1.1430   -1.2880 H   0  0  0  0  0  0  0  0  0  0  0  0
    1.4670    1.7570    0.7040 H   0  0  0  0  0  0  0  0  0  0  0  0
    2.6350    0.1790    1.9550 H   0  0  0  0  0  0  0  0  0  0  0  0
   -1.3460    0.9920    0.6030 N   0  0  0  0  0  0  0  0  0  0  0  0
   -2.6560    0.7000    1.1340 C   0  0  1  0  0  0  0  0  0  0  0  0
   -2.8360   -0.7020    1.6570 C   0  0  0  0  0  0  0  0  0  0  0  0
   -2.6900   -1.7930    0.6670 C   0  0  0  0  0  0  0  0  0  0  0  0
   -3.6790   -1.8040   -0.4330 C   0  0  0  0  0  0  0  0  0  0  0  0
   -4.6090   -0.9920   -0.5100 O   0  0  0  0  0  0  0  0  0  0  0  0
   -3.1600    1.7330    2.0510 C   0  0  0  0  0  0  0  0  0  0  0  0
   -2.4980    2.7640    2.3310 O   0  0  0  0  0  0  0  0  0  0  0  0
   -3.5550   -2.7710   -1.4190 O   0  0  0  0  0  0  0  0  0  0  0  0
   -4.4100    1.6300    2.6660 O   0  0  0  0  0  0  0  0  0  0  0  0
   -1.2510    1.7350   -0.1500 H   0  0  0  0  0  0  0  0  0  0  0  0
   -3.3370    0.7140    0.2200 H   0  0  0  0  0  0  0  0  0  0  0  0
   -2.2930   -0.8680    2.6020 H   0  0  0  0  0  0  0  0  0  0  0  0
   -3.9310   -0.7320    1.9840 H   0  0  0  0  0  0  0  0  0  0  0  0
   -1.6500   -1.7700    0.2330 H   0  0  0  0  0  0  0  0  0  0  0  0
   -2.7110   -2.8120    1.1700 H   0  0  0  0  0  0  0  0  0  0  0  0
   -4.2910   -2.8160   -2.1240 H   0  0  0  0  0  0  0  0  0  0  0  0
  1 10  1  0  0  0  0
  1  9  1  0  0  0  0
  1  2  1  0  0  0  0
  2  3  1  0  0  0  0
  2 11  1  1  0  0  0
  3  4  1  0  0  0  0
  3 13  1  0  0  0  0
  4  8  1  0  0  0  0
  5  4  2  0  0  0  0
  6 18  1  0  0  0  0
  6  2  1  0  0  0  0
  7  6  2  0  0  0  0
  8 14  1  0  0  0  0
 12  3  1  0  0  0  0
 15 16  1  0  0  0  0
 16 17  1  0  0  0  0
 17 24  1  1  0  0  0
 17 19  1  0  0  0  0
 17 18  1  0  0  0  0
 18 25  1  0  0  0  0
 19 20  2  0  0  0  0
 21 15  1  0  0  0  0
 22 16  1  0  0  0  0
 23 16  1  0  0  0  0
 26 19  1  0  0  0  0
 26 27  1  0  0  0  0
 27 37  1  6  0  0  0
 27 28  1  0  0  0  0
 27 32  1  0  0  0  0
 28 39  1  0  0  0  0
 28 38  1  0  0  0  0
 29 41  1  0  0  0  0
 29 28  1  0  0  0  0
 30 29  1  0  0  0  0
 31 30  2  0  0  0  0
 32 33  2  0  0  0  0
 32 35  1  0  0  0  0
 34 30  1  0  0  0  0
 36 26  1  0  0  0  0
 40 29  1  0  0  0  0
 42 34  1  0  0  0  0
M  END
$$$$
