DSF.pdb
 OpenBabel07022418153D

 46 46  0  0  1  0  0  0  0  0999 V2000
    5.5370   -3.0000    2.2020 N   0  0  0  0  0  0  0  0  0  0  0  0
    4.0740   -2.8440    2.4360 C   0  0  1  0  0  0  0  0  0  0  0  0
    3.9920   -2.1170    3.7360 C   0  0  0  0  0  0  0  0  0  0  0  0
    2.6990   -1.8000    4.2850 C   0  0  0  0  0  0  0  0  0  0  0  0
    1.6180   -2.1160    3.7660 O   0  0  0  0  0  0  0  0  0  0  0  0
    3.5660   -2.1180    1.2660 C   0  0  0  0  0  0  0  0  0  0  0  0
    4.3990   -1.3320    0.6720 O   0  0  0  0  0  0  0  0  0  0  0  0
    2.6210   -1.0840    5.4930 O   0  0  0  0  0  0  0  0  0  0  0  0
    5.6850   -3.3300    1.2140 H   0  0  0  0  0  0  0  0  0  0  0  0
    5.9620   -3.6330    2.8890 H   0  0  0  0  0  0  0  0  0  0  0  0
    3.6380   -3.8290    2.5070 H   0  0  0  0  0  0  0  0  0  0  0  0
    4.5090   -2.7930    4.4880 H   0  0  0  0  0  0  0  0  0  0  0  0
    4.6640   -1.2040    3.7480 H   0  0  0  0  0  0  0  0  0  0  0  0
    1.7800   -0.5400    5.6330 H   0  0  0  0  0  0  0  0  0  0  0  0
    1.0680   -1.7410   -2.6400 O   0  0  0  0  0  0  0  0  0  0  0  0
    1.4550   -2.4160   -1.5090 C   0  0  0  0  0  0  0  0  0  0  0  0
    1.8530   -1.4670   -0.3860 C   0  0  2  0  0  0  0  0  0  0  0  0
    2.2570   -2.2480    0.7890 N   0  0  0  0  0  0  0  0  0  0  0  0
    0.6650   -0.6180   -0.0510 C   0  0  0  0  0  0  0  0  0  0  0  0
    0.1830   -0.7430    1.1010 O   0  0  0  0  0  0  0  0  0  0  0  0
    0.3340   -2.1640   -3.1310 H   0  0  0  0  0  0  0  0  0  0  0  0
    0.6160   -3.0510   -1.1680 H   0  0  0  0  0  0  0  0  0  0  0  0
    2.3310   -3.0790   -1.6690 H   0  0  0  0  0  0  0  0  0  0  0  0
    2.7190   -0.8540   -0.6810 H   0  0  0  0  0  0  0  0  0  0  0  0
    1.5930   -2.9000    1.2540 H   0  0  0  0  0  0  0  0  0  0  0  0
    0.0920    0.2830   -0.9520 N   0  0  0  0  0  0  0  0  0  0  0  0
   -1.0630    1.1080   -0.6180 C   0  0  1  0  0  0  0  0  0  0  0  0
   -2.2210    0.1950   -0.4220 C   0  0  0  0  0  0  0  0  0  0  0  0
   -3.4590    0.9210   -0.0750 C   0  0  0  0  0  0  0  0  0  0  0  0
   -4.2670    1.4170   -1.0790 C   0  0  0  0  0  0  0  0  0  0  0  0
   -5.4300    2.0750   -0.7330 C   0  0  0  0  0  0  0  0  0  0  0  0
   -5.8200    2.2570    0.5860 C   0  0  0  0  0  0  0  0  0  0  0  0
   -5.0050    1.7570    1.5810 C   0  0  0  0  0  0  0  0  0  0  0  0
   -3.8260    1.0910    1.2290 C   0  0  0  0  0  0  0  0  0  0  0  0
   -0.7560    1.9040    0.5740 C   0  0  0  0  0  0  0  0  0  0  0  0
    0.3420    1.8220    1.1700 O   0  0  0  0  0  0  0  0  0  0  0  0
   -1.7230    2.7900    1.0620 O   0  0  0  0  0  0  0  0  0  0  0  0
    0.5150    0.3720   -1.9080 H   0  0  0  0  0  0  0  0  0  0  0  0
   -1.2390    1.8430   -1.4430 H   0  0  0  0  0  0  0  0  0  0  0  0
   -2.0150   -0.5470    0.4010 H   0  0  0  0  0  0  0  0  0  0  0  0
   -2.4240   -0.4280   -1.3440 H   0  0  0  0  0  0  0  0  0  0  0  0
   -3.9630    1.2750   -2.1150 H   0  0  0  0  0  0  0  0  0  0  0  0
   -6.0750    2.4700   -1.4990 H   0  0  0  0  0  0  0  0  0  0  0  0
   -6.7410    2.7800    0.8220 H   0  0  0  0  0  0  0  0  0  0  0  0
   -5.2920    1.8890    2.6270 H   0  0  0  0  0  0  0  0  0  0  0  0
   -3.1920    0.6970    2.0110 H   0  0  0  0  0  0  0  0  0  0  0  0
  1  2  1  0  0  0  0
  1 10  1  0  0  0  0
  2 11  1  1  0  0  0
  2  3  1  0  0  0  0
  3 13  1  0  0  0  0
  3  4  1  0  0  0  0
  3 12  1  0  0  0  0
  4  8  1  0  0  0  0
  5  4  2  0  0  0  0
  6  2  1  0  0  0  0
  7  6  2  0  0  0  0
  8 14  1  0  0  0  0
  9  1  1  0  0  0  0
 15 16  1  0  0  0  0
 16 22  1  0  0  0  0
 16 17  1  0  0  0  0
 17 24  1  6  0  0  0
 17 19  1  0  0  0  0
 17 18  1  0  0  0  0
 18 25  1  0  0  0  0
 18  6  1  0  0  0  0
 19 20  2  0  0  0  0
 21 15  1  0  0  0  0
 23 16  1  0  0  0  0
 26 27  1  0  0  0  0
 26 19  1  0  0  0  0
 27 39  1  6  0  0  0
 27 28  1  0  0  0  0
 27 35  1  0  0  0  0
 28 29  1  0  0  0  0
 28 40  1  0  0  0  0
 29 34  1  0  0  0  0
 30 31  1  0  0  0  0
 30 29  2  0  0  0  0
 31 32  2  0  0  0  0
 32 44  1  0  0  0  0
 32 33  1  0  0  0  0
 33 45  1  0  0  0  0
 34 33  2  0  0  0  0
 34 46  1  0  0  0  0
 35 37  2  0  0  0  0
 35 36  1  0  0  0  0
 38 26  1  0  0  0  0
 41 28  1  0  0  0  0
 42 30  1  0  0  0  0
 43 31  1  0  0  0  0
M  END
$$$$
