DSH.pdb
 OpenBabel07022418153D

 43 43  0  0  1  0  0  0  0  0999 V2000
    1.8240    0.8670    4.9100 N   0  0  0  0  0  0  0  0  0  0  0  0
    1.7290   -0.0260    3.8000 C   0  0  1  0  0  0  0  0  0  0  0  0
    0.3550   -0.6200    3.6340 C   0  0  0  0  0  0  0  0  0  0  0  0
   -0.6910    0.3840    3.4180 C   0  0  0  0  0  0  0  0  0  0  0  0
   -0.4580    1.5970    3.3760 O   0  0  0  0  0  0  0  0  0  0  0  0
    2.2480    0.5720    2.5530 C   0  0  0  0  0  0  0  0  0  0  0  0
    2.6940    1.7460    2.6050 O   0  0  0  0  0  0  0  0  0  0  0  0
   -1.9960   -0.0570    3.2540 O   0  0  0  0  0  0  0  0  0  0  0  0
    1.3720    0.4630    5.7430 H   0  0  0  0  0  0  0  0  0  0  0  0
    1.5510    1.8460    4.7070 H   0  0  0  0  0  0  0  0  0  0  0  0
    2.4110   -0.8990    4.0290 H   0  0  0  0  0  0  0  0  0  0  0  0
    0.1160   -1.1540    4.5840 H   0  0  0  0  0  0  0  0  0  0  0  0
    0.3890   -1.3690    2.8360 H   0  0  0  0  0  0  0  0  0  0  0  0
   -2.7810    0.5800    3.4520 H   0  0  0  0  0  0  0  0  0  0  0  0
    4.3710    0.4010   -1.6220 O   0  0  0  0  0  0  0  0  0  0  0  0
    3.9890   -0.2490   -0.4450 C   0  0  0  0  0  0  0  0  0  0  0  0
    2.7760    0.4780    0.0890 C   0  0  2  0  0  0  0  0  0  0  0  0
    2.2760   -0.0900    1.3060 N   0  0  0  0  0  0  0  0  0  0  0  0
    1.7630    0.4940   -0.9930 C   0  0  0  0  0  0  0  0  0  0  0  0
    2.0850    0.9690   -2.1090 O   0  0  0  0  0  0  0  0  0  0  0  0
    4.3510    1.3720   -1.5420 H   0  0  0  0  0  0  0  0  0  0  0  0
    4.8340   -0.2030    0.2490 H   0  0  0  0  0  0  0  0  0  0  0  0
    3.7220   -1.2930   -0.7450 H   0  0  0  0  0  0  0  0  0  0  0  0
    3.1260    1.5190    0.3300 H   0  0  0  0  0  0  0  0  0  0  0  0
    1.9040   -1.0830    1.2420 H   0  0  0  0  0  0  0  0  0  0  0  0
    0.4410   -0.0040   -0.8270 N   0  0  0  0  0  0  0  0  0  0  0  0
   -0.5470    0.0040   -1.8620 C   0  0  1  0  0  0  0  0  0  0  0  0
   -0.9370   -1.4040   -2.1950 C   0  0  0  0  0  0  0  0  0  0  0  0
   -1.5030   -2.1180   -1.0450 C   0  0  0  0  0  0  0  0  0  0  0  0
   -1.9340   -3.4460   -1.1180 C   0  0  0  0  0  0  0  0  0  0  0  0
   -2.3870   -3.7750    0.0920 N   0  0  0  0  0  0  0  0  0  0  0  0
   -2.2590   -2.7220    0.9110 C   0  0  0  0  0  0  0  0  0  0  0  0
   -1.7210   -1.7250    0.2050 N   0  0  0  0  0  0  0  0  0  0  0  0
   -1.7370    0.8250   -1.4810 C   0  0  0  0  0  0  0  0  0  0  0  0
   -2.6890    0.9250   -2.2940 O   0  0  0  0  0  0  0  0  0  0  0  0
   -1.8360    1.4790   -0.2750 O   0  0  0  0  0  0  0  0  0  0  0  0
    0.2170   -0.3860    0.1080 H   0  0  0  0  0  0  0  0  0  0  0  0
   -0.1480    0.4630   -2.8130 H   0  0  0  0  0  0  0  0  0  0  0  0
    0.0100   -1.9380   -2.4750 H   0  0  0  0  0  0  0  0  0  0  0  0
   -1.5810   -1.4700   -3.1000 H   0  0  0  0  0  0  0  0  0  0  0  0
   -1.8950   -4.0620   -2.0040 H   0  0  0  0  0  0  0  0  0  0  0  0
   -2.7880   -4.7090    0.3890 H   0  0  0  0  0  0  0  0  0  0  0  0
   -2.5270   -2.6370    1.9670 H   0  0  0  0  0  0  0  0  0  0  0  0
  1  9  1  0  0  0  0
  2 11  1  1  0  0  0
  2  1  1  0  0  0  0
  3  2  1  0  0  0  0
  3 12  1  0  0  0  0
  4  3  1  0  0  0  0
  5  4  2  0  0  0  0
  6  7  2  0  0  0  0
  6  2  1  0  0  0  0
  8  4  1  0  0  0  0
  8 14  1  0  0  0  0
 10  1  1  0  0  0  0
 13  3  1  0  0  0  0
 15 21  1  0  0  0  0
 15 16  1  0  0  0  0
 16 17  1  0  0  0  0
 16 22  1  0  0  0  0
 17 24  1  1  0  0  0
 17 18  1  0  0  0  0
 18  6  1  0  0  0  0
 19 26  1  0  0  0  0
 19 17  1  0  0  0  0
 20 19  2  0  0  0  0
 23 16  1  0  0  0  0
 25 18  1  0  0  0  0
 26 37  1  0  0  0  0
 27 38  1  6  0  0  0
 27 34  1  0  0  0  0
 27 26  1  0  0  0  0
 28 27  1  0  0  0  0
 28 29  1  0  0  0  0
 29 33  1  0  0  0  0
 30 29  2  0  0  0  0
 30 31  1  0  0  0  0
 31 42  1  0  0  0  0
 31 32  1  0  0  0  0
 32 43  1  0  0  0  0
 33 32  2  0  0  0  0
 34 36  1  0  0  0  0
 35 34  2  0  0  0  0
 39 28  1  0  0  0  0
 40 28  1  0  0  0  0
 41 30  1  0  0  0  0
M  END
$$$$
