DSI.pdb
 OpenBabel07022418153D

 45 44  0  0  1  0  0  0  0  0999 V2000
    3.6190   -3.3270   -0.0500 N   0  0  0  0  0  0  0  0  0  0  0  0
    2.4360   -2.8870    0.6670 C   0  0  1  0  0  0  0  0  0  0  0  0
    2.8270   -1.7200    1.5220 C   0  0  0  0  0  0  0  0  0  0  0  0
    3.8830   -2.1640    2.4690 C   0  0  0  0  0  0  0  0  0  0  0  0
    4.3670   -1.3460    3.2900 O   0  0  0  0  0  0  0  0  0  0  0  0
    1.3830   -2.6100   -0.3020 C   0  0  0  0  0  0  0  0  0  0  0  0
    1.5650   -2.7580   -1.5460 O   0  0  0  0  0  0  0  0  0  0  0  0
    4.3570   -3.4640    2.4790 O   0  0  0  0  0  0  0  0  0  0  0  0
    3.6880   -2.8810   -0.9920 H   0  0  0  0  0  0  0  0  0  0  0  0
    3.7260   -4.3570   -0.0760 H   0  0  0  0  0  0  0  0  0  0  0  0
    2.1770   -3.7270    1.3700 H   0  0  0  0  0  0  0  0  0  0  0  0
    2.0090   -1.3040    2.1170 H   0  0  0  0  0  0  0  0  0  0  0  0
    3.2820   -0.9300    0.8830 H   0  0  0  0  0  0  0  0  0  0  0  0
    4.6830   -3.8770    3.3620 H   0  0  0  0  0  0  0  0  0  0  0  0
   -1.8800   -4.0550   -0.8740 O   0  0  0  0  0  0  0  0  0  0  0  0
   -2.2010   -2.7200   -0.7050 C   0  0  0  0  0  0  0  0  0  0  0  0
   -0.9700   -1.8780   -0.8660 C   0  0  2  0  0  0  0  0  0  0  0  0
    0.0740   -2.1560    0.0490 N   0  0  0  0  0  0  0  0  0  0  0  0
   -1.3030   -0.4300   -0.8350 C   0  0  0  0  0  0  0  0  0  0  0  0
   -2.2000    0.0190   -1.5720 O   0  0  0  0  0  0  0  0  0  0  0  0
   -1.0860   -4.0860   -1.4750 H   0  0  0  0  0  0  0  0  0  0  0  0
   -2.7470   -2.5200    0.2360 H   0  0  0  0  0  0  0  0  0  0  0  0
   -2.8960   -2.4480   -1.5280 H   0  0  0  0  0  0  0  0  0  0  0  0
   -0.5790   -2.0800   -1.9020 H   0  0  0  0  0  0  0  0  0  0  0  0
   -0.0960   -2.0270    1.0750 H   0  0  0  0  0  0  0  0  0  0  0  0
   -0.5730    0.7400    3.0520 C   0  0  0  0  0  0  0  0  0  0  0  0
   -0.7060    2.1510    2.5900 C   0  0  0  0  0  0  0  0  0  0  0  0
   -1.5290    2.3670    1.3670 C   0  0  2  0  0  0  0  0  0  0  0  0
   -2.9510    1.8880    1.5270 C   0  0  0  0  0  0  0  0  0  0  0  0
   -0.9200    1.8960    0.0800 C   0  0  2  0  0  0  0  0  0  0  0  0
   -0.6270    0.4980    0.0230 N   0  0  0  0  0  0  0  0  0  0  0  0
    0.2080    2.7450   -0.3650 C   0  0  0  0  0  0  0  0  0  0  0  0
    0.0590    3.9840   -0.3560 O   0  0  0  0  0  0  0  0  0  0  0  0
    1.4190    2.2430   -0.7910 O   0  0  0  0  0  0  0  0  0  0  0  0
   -0.7970    0.6340    4.1590 H   0  0  0  0  0  0  0  0  0  0  0  0
    0.4480    0.3150    2.9560 H   0  0  0  0  0  0  0  0  0  0  0  0
   -1.2640    0.0230    2.5480 H   0  0  0  0  0  0  0  0  0  0  0  0
   -1.1240    2.7460    3.4510 H   0  0  0  0  0  0  0  0  0  0  0  0
    0.3300    2.5530    2.4750 H   0  0  0  0  0  0  0  0  0  0  0  0
   -1.6370    3.5010    1.2880 H   0  0  0  0  0  0  0  0  0  0  0  0
   -3.3410    2.1810    2.5040 H   0  0  0  0  0  0  0  0  0  0  0  0
   -3.5730    2.4330    0.7600 H   0  0  0  0  0  0  0  0  0  0  0  0
   -3.0680    0.8130    1.2920 H   0  0  0  0  0  0  0  0  0  0  0  0
   -1.7140    2.0610   -0.7210 H   0  0  0  0  0  0  0  0  0  0  0  0
    0.1190    0.0700    0.6140 H   0  0  0  0  0  0  0  0  0  0  0  0
  1  2  1  0  0  0  0
  2 11  1  1  0  0  0
  2  3  1  0  0  0  0
  3 12  1  0  0  0  0
  3  4  1  0  0  0  0
  4  8  1  0  0  0  0
  4  5  2  0  0  0  0
  6 18  1  0  0  0  0
  6  2  1  0  0  0  0
  7  6  2  0  0  0  0
  8 14  1  0  0  0  0
  9  1  1  0  0  0  0
 10  1  1  0  0  0  0
 13  3  1  0  0  0  0
 15 16  1  0  0  0  0
 16 22  1  0  0  0  0
 17 24  1  6  0  0  0
 17 19  1  0  0  0  0
 17 16  1  0  0  0  0
 17 18  1  0  0  0  0
 18 25  1  0  0  0  0
 19 31  1  0  0  0  0
 20 19  2  0  0  0  0
 21 15  1  0  0  0  0
 23 16  1  0  0  0  0
 26 35  1  0  0  0  0
 27 26  1  0  0  0  0
 27 38  1  0  0  0  0
 28 40  1  6  0  0  0
 28 29  1  0  0  0  0
 28 27  1  0  0  0  0
 29 41  1  0  0  0  0
 30 44  1  6  0  0  0
 30 28  1  0  0  0  0
 31 30  1  0  0  0  0
 31 45  1  0  0  0  0
 32 33  1  0  0  0  0
 32 30  1  0  0  0  0
 34 32  2  0  0  0  0
 36 26  1  0  0  0  0
 37 26  1  0  0  0  0
 39 27  1  0  0  0  0
 42 29  1  0  0  0  0
 43 29  1  0  0  0  0
M  END
$$$$
