DSN.pdb
 OpenBabel07022418153D

 40 39  0  0  1  0  0  0  0  0999 V2000
    4.0570   -3.2220   -0.4840 N   0  0  0  0  0  0  0  0  0  0  0  0
    3.0530   -2.5880    0.4500 C   0  0  1  0  0  0  0  0  0  0  0  0
    3.8530   -1.6180    1.2600 C   0  0  0  0  0  0  0  0  0  0  0  0
    3.0610   -0.9090    2.2620 C   0  0  0  0  0  0  0  0  0  0  0  0
    1.8720   -1.0760    2.5440 O   0  0  0  0  0  0  0  0  0  0  0  0
    2.0830   -1.9760   -0.4780 C   0  0  0  0  0  0  0  0  0  0  0  0
    2.4490   -1.5990   -1.6540 O   0  0  0  0  0  0  0  0  0  0  0  0
    3.7310    0.0970    3.0110 O   0  0  0  0  0  0  0  0  0  0  0  0
    4.5390   -3.9990    0.0480 H   0  0  0  0  0  0  0  0  0  0  0  0
    3.4760   -3.7310   -1.2070 H   0  0  0  0  0  0  0  0  0  0  0  0
    2.6930   -3.3990    1.0690 H   0  0  0  0  0  0  0  0  0  0  0  0
    4.4350   -0.9130    0.6050 H   0  0  0  0  0  0  0  0  0  0  0  0
    4.6130   -2.2290    1.8310 H   0  0  0  0  0  0  0  0  0  0  0  0
    3.2360    0.7660    3.5540 H   0  0  0  0  0  0  0  0  0  0  0  0
   -1.9370   -1.3940   -2.6920 O   0  0  0  0  0  0  0  0  0  0  0  0
   -1.1600   -2.1120   -1.7820 C   0  0  0  0  0  0  0  0  0  0  0  0
   -0.1650   -1.1300   -1.1980 C   0  0  2  0  0  0  0  0  0  0  0  0
    0.7100   -1.7370   -0.2310 N   0  0  0  0  0  0  0  0  0  0  0  0
   -0.9630    0.0000   -0.6790 C   0  0  0  0  0  0  0  0  0  0  0  0
   -1.7440    0.6420   -1.4670 O   0  0  0  0  0  0  0  0  0  0  0  0
   -2.9070   -1.4800   -2.5270 H   0  0  0  0  0  0  0  0  0  0  0  0
   -1.8510   -2.5350   -1.0380 H   0  0  0  0  0  0  0  0  0  0  0  0
   -0.5980   -2.8610   -2.3630 H   0  0  0  0  0  0  0  0  0  0  0  0
    0.4500   -0.7990   -2.0570 H   0  0  0  0  0  0  0  0  0  0  0  0
    0.2820   -2.0170    0.6730 H   0  0  0  0  0  0  0  0  0  0  0  0
   -1.0490    0.2310    3.5790 N   0  0  0  0  0  0  0  0  0  0  0  0
   -2.4170    0.4450    3.2580 C   0  0  0  0  0  0  0  0  0  0  0  0
   -3.2540   -0.0000    4.0830 O   0  0  0  0  0  0  0  0  0  0  0  0
   -2.8520    1.1380    2.0480 C   0  0  0  0  0  0  0  0  0  0  0  0
   -1.7520    1.5830    1.1290 C   0  0  2  0  0  0  0  0  0  0  0  0
   -0.9520    0.4630    0.6520 N   0  0  0  0  0  0  0  0  0  0  0  0
   -0.9140    2.6690    1.6640 C   0  0  0  0  0  0  0  0  0  0  0  0
   -1.3950    3.7270    2.1350 O   0  0  0  0  0  0  0  0  0  0  0  0
    0.4640    2.5310    1.6530 O   0  0  0  0  0  0  0  0  0  0  0  0
   -0.4380    1.0420    3.7770 H   0  0  0  0  0  0  0  0  0  0  0  0
   -0.6200   -0.7240    3.6270 H   0  0  0  0  0  0  0  0  0  0  0  0
   -3.5560    0.5190    1.4240 H   0  0  0  0  0  0  0  0  0  0  0  0
   -3.4550    2.0340    2.3320 H   0  0  0  0  0  0  0  0  0  0  0  0
   -2.2790    1.9740    0.2050 H   0  0  0  0  0  0  0  0  0  0  0  0
   -0.3320   -0.0280    1.3300 H   0  0  0  0  0  0  0  0  0  0  0  0
  1  9  1  0  0  0  0
  1  2  1  0  0  0  0
  2 11  1  1  0  0  0
  2  3  1  0  0  0  0
  3 13  1  0  0  0  0
  3  4  1  0  0  0  0
  4  5  2  0  0  0  0
  4  8  1  0  0  0  0
  6 18  1  0  0  0  0
  6  2  1  0  0  0  0
  7  6  2  0  0  0  0
  8 14  1  0  0  0  0
 10  1  1  0  0  0  0
 12  3  1  0  0  0  0
 15 21  1  0  0  0  0
 15 16  1  0  0  0  0
 16 17  1  0  0  0  0
 16 22  1  0  0  0  0
 17 24  1  6  0  0  0
 17 19  1  0  0  0  0
 17 18  1  0  0  0  0
 18 25  1  0  0  0  0
 19 31  1  0  0  0  0
 20 19  2  0  0  0  0
 23 16  1  0  0  0  0
 26 36  1  0  0  0  0
 26 35  1  0  0  0  0
 27 26  1  0  0  0  0
 27 28  2  0  0  0  0
 29 38  1  0  0  0  0
 29 27  1  0  0  0  0
 30 39  1  6  0  0  0
 30 32  1  0  0  0  0
 30 29  1  0  0  0  0
 31 30  1  0  0  0  0
 31 40  1  0  0  0  0
 32 33  1  0  0  0  0
 34 32  2  0  0  0  0
 37 29  1  0  0  0  0
M  END
$$$$
