DSS.pdb
 OpenBabel07022418163D

 37 36  0  0  1  0  0  0  0  0999 V2000
    1.5910   -4.7670    1.9670 N   0  0  0  0  0  0  0  0  0  0  0  0
    0.5720   -3.7340    1.9390 C   0  0  1  0  0  0  0  0  0  0  0  0
    0.4970   -3.0230    3.2540 C   0  0  0  0  0  0  0  0  0  0  0  0
    0.1620   -4.0030    4.3180 C   0  0  0  0  0  0  0  0  0  0  0  0
   -0.0160   -5.2210    4.0750 O   0  0  0  0  0  0  0  0  0  0  0  0
    0.7150   -2.8480    0.7770 C   0  0  0  0  0  0  0  0  0  0  0  0
    1.6510   -3.0610   -0.0300 O   0  0  0  0  0  0  0  0  0  0  0  0
    0.0370   -3.5810    5.6310 O   0  0  0  0  0  0  0  0  0  0  0  0
    2.3340   -4.5640    2.6650 H   0  0  0  0  0  0  0  0  0  0  0  0
    1.2020   -5.7200    2.0600 H   0  0  0  0  0  0  0  0  0  0  0  0
   -0.4030   -4.2770    1.8040 H   0  0  0  0  0  0  0  0  0  0  0  0
   -0.2300   -2.2210    3.3010 H   0  0  0  0  0  0  0  0  0  0  0  0
    1.5090   -2.6010    3.4690 H   0  0  0  0  0  0  0  0  0  0  0  0
   -0.2230   -4.1740    6.3910 H   0  0  0  0  0  0  0  0  0  0  0  0
   -2.3590   -0.3330   -0.5180 O   0  0  0  0  0  0  0  0  0  0  0  0
   -1.3500   -0.7820   -1.3710 C   0  0  0  0  0  0  0  0  0  0  0  0
   -0.0700   -0.8730   -0.5810 C   0  0  2  0  0  0  0  0  0  0  0  0
   -0.1500   -1.7760    0.5310 N   0  0  0  0  0  0  0  0  0  0  0  0
    0.2000    0.4820   -0.0220 C   0  0  0  0  0  0  0  0  0  0  0  0
    0.3210    0.6980    1.2120 O   0  0  0  0  0  0  0  0  0  0  0  0
   -3.0330   -1.0210   -0.3210 H   0  0  0  0  0  0  0  0  0  0  0  0
   -1.1800   -0.1290   -2.2310 H   0  0  0  0  0  0  0  0  0  0  0  0
   -1.6710   -1.7890   -1.7260 H   0  0  0  0  0  0  0  0  0  0  0  0
    0.7680   -1.1240   -1.2340 H   0  0  0  0  0  0  0  0  0  0  0  0
   -0.9220   -1.6500    1.2520 H   0  0  0  0  0  0  0  0  0  0  0  0
    2.1660    4.7510   -0.5650 O   0  0  0  0  0  0  0  0  0  0  0  0
    1.8840    3.4700   -1.0050 C   0  0  0  0  0  0  0  0  0  0  0  0
    0.5980    2.9510   -0.3960 C   0  0  2  0  0  0  0  0  0  0  0  0
    0.3370    1.6180   -0.8760 N   0  0  0  0  0  0  0  0  0  0  0  0
   -0.5430    3.8550   -0.7860 C   0  0  0  0  0  0  0  0  0  0  0  0
   -0.5350    5.0730   -0.4730 O   0  0  0  0  0  0  0  0  0  0  0  0
   -1.6380    3.3870   -1.4990 O   0  0  0  0  0  0  0  0  0  0  0  0
    2.3920    4.6960    0.3970 H   0  0  0  0  0  0  0  0  0  0  0  0
    2.7020    2.8030   -0.6690 H   0  0  0  0  0  0  0  0  0  0  0  0
    1.8140    3.4210   -2.1210 H   0  0  0  0  0  0  0  0  0  0  0  0
    0.6840    3.0200    0.6870 H   0  0  0  0  0  0  0  0  0  0  0  0
    0.2390    1.4460   -1.8950 H   0  0  0  0  0  0  0  0  0  0  0  0
  1 10  1  0  0  0  0
  1  9  1  0  0  0  0
  2 11  1  6  0  0  0
  2  1  1  0  0  0  0
  2  3  1  0  0  0  0
  3 12  1  0  0  0  0
  3 13  1  0  0  0  0
  3  4  1  0  0  0  0
  4  8  1  0  0  0  0
  5  4  2  0  0  0  0
  6  2  1  0  0  0  0
  7  6  2  0  0  0  0
  8 14  1  0  0  0  0
 15 21  1  0  0  0  0
 16 17  1  0  0  0  0
 16 15  1  0  0  0  0
 17 24  1  6  0  0  0
 17 19  1  0  0  0  0
 17 18  1  0  0  0  0
 18  6  1  0  0  0  0
 18 25  1  0  0  0  0
 19 20  2  0  0  0  0
 22 16  1  0  0  0  0
 23 16  1  0  0  0  0
 26 33  1  0  0  0  0
 27 34  1  0  0  0  0
 27 26  1  0  0  0  0
 27 28  1  0  0  0  0
 28 36  1  1  0  0  0
 29 28  1  0  0  0  0
 29 19  1  0  0  0  0
 30 31  1  0  0  0  0
 30 28  1  0  0  0  0
 32 30  2  0  0  0  0
 35 27  1  0  0  0  0
 37 29  1  0  0  0  0
M  END
$$$$
