DSV.pdb
 OpenBabel07022418163D

 42 41  0  0  1  0  0  0  0  0999 V2000
    0.9060   -3.8190    2.0830 N   0  0  0  0  0  0  0  0  0  0  0  0
    1.9740   -3.3450    1.2600 C   0  0  1  0  0  0  0  0  0  0  0  0
    2.6530   -4.5300    0.6060 C   0  0  0  0  0  0  0  0  0  0  0  0
    3.2290   -5.4820    1.5810 C   0  0  0  0  0  0  0  0  0  0  0  0
    3.7810   -6.5310    1.1570 O   0  0  0  0  0  0  0  0  0  0  0  0
    1.6070   -2.3730    0.2280 C   0  0  0  0  0  0  0  0  0  0  0  0
    2.5520   -1.9930   -0.5440 O   0  0  0  0  0  0  0  0  0  0  0  0
    3.1970   -5.2870    2.9510 O   0  0  0  0  0  0  0  0  0  0  0  0
   -0.0480   -3.6970    1.6960 H   0  0  0  0  0  0  0  0  0  0  0  0
    1.0470   -4.8400    2.2570 H   0  0  0  0  0  0  0  0  0  0  0  0
    2.7370   -2.9180    1.9830 H   0  0  0  0  0  0  0  0  0  0  0  0
    3.4320   -4.1560   -0.1160 H   0  0  0  0  0  0  0  0  0  0  0  0
    1.9400   -5.1130   -0.0260 H   0  0  0  0  0  0  0  0  0  0  0  0
    3.9700   -5.5870    3.5090 H   0  0  0  0  0  0  0  0  0  0  0  0
   -1.3450   -0.3780   -2.9420 O   0  0  0  0  0  0  0  0  0  0  0  0
   -1.0860   -1.3180   -1.9460 C   0  0  0  0  0  0  0  0  0  0  0  0
    0.0560   -0.8500   -1.0640 C   0  0  2  0  0  0  0  0  0  0  0  0
    0.3470   -1.8080   -0.0190 N   0  0  0  0  0  0  0  0  0  0  0  0
   -0.3920    0.4230   -0.3820 C   0  0  0  0  0  0  0  0  0  0  0  0
   -0.7200    1.4200   -1.0680 O   0  0  0  0  0  0  0  0  0  0  0  0
   -2.2720   -0.0380   -2.8970 H   0  0  0  0  0  0  0  0  0  0  0  0
   -0.8370   -2.2690   -2.4570 H   0  0  0  0  0  0  0  0  0  0  0  0
   -1.9980   -1.5200   -1.3330 H   0  0  0  0  0  0  0  0  0  0  0  0
    0.9030   -0.6080   -1.7020 H   0  0  0  0  0  0  0  0  0  0  0  0
   -0.4470   -2.0890    0.5830 H   0  0  0  0  0  0  0  0  0  0  0  0
    1.0090    3.1280    1.0290 C   0  0  0  0  0  0  0  0  0  0  0  0
    0.2390    2.5620    2.1950 C   0  0  0  0  0  0  0  0  0  0  0  0
   -0.2600    3.7330    3.0100 C   0  0  0  0  0  0  0  0  0  0  0  0
   -0.8740    1.6650    1.7860 C   0  0  2  0  0  0  0  0  0  0  0  0
   -0.4520    0.5210    1.0280 N   0  0  0  0  0  0  0  0  0  0  0  0
   -2.0670    2.3690    1.2430 C   0  0  0  0  0  0  0  0  0  0  0  0
   -2.4570    3.4700    1.7610 O   0  0  0  0  0  0  0  0  0  0  0  0
   -2.8010    1.8900    0.1870 O   0  0  0  0  0  0  0  0  0  0  0  0
    0.4360    3.8770    0.4750 H   0  0  0  0  0  0  0  0  0  0  0  0
    1.8920    3.6690    1.4690 H   0  0  0  0  0  0  0  0  0  0  0  0
    1.4460    2.3380    0.3830 H   0  0  0  0  0  0  0  0  0  0  0  0
    0.9470    2.0040    2.8520 H   0  0  0  0  0  0  0  0  0  0  0  0
    0.5860    4.0870    3.6490 H   0  0  0  0  0  0  0  0  0  0  0  0
   -1.0930    3.4320    3.6750 H   0  0  0  0  0  0  0  0  0  0  0  0
   -0.5160    4.6200    2.3730 H   0  0  0  0  0  0  0  0  0  0  0  0
   -1.3120    1.2140    2.7580 H   0  0  0  0  0  0  0  0  0  0  0  0
   -0.1430   -0.3550    1.5770 H   0  0  0  0  0  0  0  0  0  0  0  0
  1 10  1  0  0  0  0
  2 11  1  1  0  0  0
  2  1  1  0  0  0  0
  3  2  1  0  0  0  0
  3  4  1  0  0  0  0
  4  8  1  0  0  0  0
  5  4  2  0  0  0  0
  6  2  1  0  0  0  0
  7  6  2  0  0  0  0
  8 14  1  0  0  0  0
  9  1  1  0  0  0  0
 12  3  1  0  0  0  0
 13  3  1  0  0  0  0
 15 21  1  0  0  0  0
 15 16  1  0  0  0  0
 16 23  1  0  0  0  0
 16 17  1  0  0  0  0
 17 24  1  6  0  0  0
 17 19  1  0  0  0  0
 17 18  1  0  0  0  0
 18  6  1  0  0  0  0
 18 25  1  0  0  0  0
 19 30  1  0  0  0  0
 20 19  2  0  0  0  0
 22 16  1  0  0  0  0
 26 35  1  0  0  0  0
 26 27  1  0  0  0  0
 27 37  1  0  0  0  0
 27 28  1  0  0  0  0
 28 38  1  0  0  0  0
 28 39  1  0  0  0  0
 29 27  1  0  0  0  0
 29 41  1  1  0  0  0
 30 42  1  0  0  0  0
 30 29  1  0  0  0  0
 31 32  1  0  0  0  0
 31 29  1  0  0  0  0
 33 31  2  0  0  0  0
 34 26  1  0  0  0  0
 36 26  1  0  0  0  0
 40 28  1  0  0  0  0
M  END
$$$$
