DTC.pdb
 OpenBabel07022418163D

 40 39  0  0  1  0  0  0  0  0999 V2000
    2.9980   -2.7290    2.4500 N   0  0  0  0  0  0  0  0  0  0  0  0
    3.2740   -2.6570    1.0240 C   0  0  1  0  0  0  0  0  0  0  0  0
    3.2350   -4.0670    0.4810 C   0  0  0  0  0  0  0  0  0  0  0  0
    4.2590   -4.8640    1.1750 C   0  0  0  0  0  0  0  0  0  0  0  0
    4.9810   -4.3300    2.0430 O   0  0  0  0  0  0  0  0  0  0  0  0
    2.1580   -1.8850    0.3700 C   0  0  0  0  0  0  0  0  0  0  0  0
    2.2240   -1.6340   -0.8590 O   0  0  0  0  0  0  0  0  0  0  0  0
    4.4400   -6.2020    0.8830 O   0  0  0  0  0  0  0  0  0  0  0  0
    2.0920   -3.2290    2.5750 H   0  0  0  0  0  0  0  0  0  0  0  0
    2.8550   -1.7520    2.7800 H   0  0  0  0  0  0  0  0  0  0  0  0
    4.2200   -2.1960    0.7630 H   0  0  0  0  0  0  0  0  0  0  0  0
    2.2430   -4.5450    0.6320 H   0  0  0  0  0  0  0  0  0  0  0  0
    3.4270   -4.1030   -0.6190 H   0  0  0  0  0  0  0  0  0  0  0  0
    4.9520   -6.8520    1.4680 H   0  0  0  0  0  0  0  0  0  0  0  0
   -2.3220   -0.8540   -0.4830 C   0  0  0  0  0  0  0  0  0  0  0  0
   -1.3140   -1.4890    0.4530 C   0  0  1  0  0  0  0  0  0  0  0  0
   -1.0680   -2.7580   -0.1440 O   0  0  0  0  0  0  0  0  0  0  0  0
   -0.0370   -0.6820    0.4010 C   0  0  2  0  0  0  0  0  0  0  0  0
    1.0330   -1.4280    1.0750 N   0  0  0  0  0  0  0  0  0  0  0  0
   -0.2160    0.6250    1.0480 C   0  0  0  0  0  0  0  0  0  0  0  0
    0.4620    0.8150    2.1300 O   0  0  0  0  0  0  0  0  0  0  0  0
   -1.8700   -0.3240   -1.3330 H   0  0  0  0  0  0  0  0  0  0  0  0
   -2.9660   -1.6570   -0.9590 H   0  0  0  0  0  0  0  0  0  0  0  0
   -3.0210   -0.1630    0.0270 H   0  0  0  0  0  0  0  0  0  0  0  0
   -1.7700   -1.6040    1.4230 H   0  0  0  0  0  0  0  0  0  0  0  0
   -1.9190   -3.0990   -0.5210 H   0  0  0  0  0  0  0  0  0  0  0  0
    0.2380   -0.5450   -0.6450 H   0  0  0  0  0  0  0  0  0  0  0  0
    0.9510   -1.6170    2.0840 H   0  0  0  0  0  0  0  0  0  0  0  0
   -1.0180    1.6950    0.6540 N   0  0  0  0  0  0  0  0  0  0  0  0
   -1.0630    2.9250    1.4410 C   0  0  1  0  0  0  0  0  0  0  0  0
   -0.6630    4.0740    0.5660 C   0  0  0  0  0  0  0  0  0  0  0  0
   -1.7910    4.2410   -0.8620 S   0  0  0  0  0  0  0  0  0  0  0  0
   -2.4660    3.1440    1.9070 C   0  0  0  0  0  0  0  0  0  0  0  0
   -3.3690    2.3250    1.6100 O   0  0  0  0  0  0  0  0  0  0  0  0
   -2.7950    4.2460    2.6680 O   0  0  0  0  0  0  0  0  0  0  0  0
   -1.5770    1.6460   -0.1970 H   0  0  0  0  0  0  0  0  0  0  0  0
   -0.3750    2.8750    2.3050 H   0  0  0  0  0  0  0  0  0  0  0  0
   -0.6670    4.9970    1.1620 H   0  0  0  0  0  0  0  0  0  0  0  0
    0.3400    3.8720    0.1460 H   0  0  0  0  0  0  0  0  0  0  0  0
   -1.0980    4.5460   -2.0290 H   0  0  0  0  0  0  0  0  0  0  0  0
  1  9  1  0  0  0  0
  1 10  1  0  0  0  0
  2 11  1  6  0  0  0
  2  1  1  0  0  0  0
  3 12  1  0  0  0  0
  3  2  1  0  0  0  0
  3  4  1  0  0  0  0
  4  5  2  0  0  0  0
  6  2  1  0  0  0  0
  6 19  1  0  0  0  0
  7  6  2  0  0  0  0
  8  4  1  0  0  0  0
  8 14  1  0  0  0  0
 13  3  1  0  0  0  0
 15 24  1  0  0  0  0
 15 16  1  0  0  0  0
 16 25  1  1  0  0  0
 17 16  1  0  0  0  0
 18 27  1  6  0  0  0
 18 16  1  0  0  0  0
 18 20  1  0  0  0  0
 18 19  1  0  0  0  0
 19 28  1  0  0  0  0
 20 21  2  0  0  0  0
 22 15  1  0  0  0  0
 23 15  1  0  0  0  0
 26 17  1  0  0  0  0
 29 20  1  0  0  0  0
 29 30  1  0  0  0  0
 30 33  1  0  0  0  0
 30 37  1  1  0  0  0
 31 38  1  0  0  0  0
 31 30  1  0  0  0  0
 32 31  1  0  0  0  0
 33 35  1  0  0  0  0
 34 33  2  0  0  0  0
 36 29  1  0  0  0  0
 39 31  1  0  0  0  0
 40 32  1  0  0  0  0
M  END
$$$$
