DTE.pdb
 OpenBabel07022418163D

 45 44  0  0  1  0  0  0  0  0999 V2000
    1.8120   -2.2500    3.0150 N   0  0  0  0  0  0  0  0  0  0  0  0
    2.8580   -1.8580    2.1280 C   0  0  1  0  0  0  0  0  0  0  0  0
    3.8560   -2.9830    1.8860 C   0  0  0  0  0  0  0  0  0  0  0  0
    4.4760   -3.3900    3.1900 C   0  0  0  0  0  0  0  0  0  0  0  0
    4.1450   -2.8180    4.2580 O   0  0  0  0  0  0  0  0  0  0  0  0
    2.3920   -1.3500    0.8350 C   0  0  0  0  0  0  0  0  0  0  0  0
    3.2540   -0.9830   -0.0050 O   0  0  0  0  0  0  0  0  0  0  0  0
    5.4210   -4.3970    3.2600 O   0  0  0  0  0  0  0  0  0  0  0  0
    1.9780   -1.9830    4.0010 H   0  0  0  0  0  0  0  0  0  0  0  0
    1.4780   -3.2180    2.8850 H   0  0  0  0  0  0  0  0  0  0  0  0
    3.4390   -1.0380    2.6170 H   0  0  0  0  0  0  0  0  0  0  0  0
    4.6950   -2.6320    1.2530 H   0  0  0  0  0  0  0  0  0  0  0  0
    3.3980   -3.8560    1.4010 H   0  0  0  0  0  0  0  0  0  0  0  0
    5.5900   -4.8200    4.1630 H   0  0  0  0  0  0  0  0  0  0  0  0
   -0.3890   -1.1000   -3.0130 C   0  0  0  0  0  0  0  0  0  0  0  0
   -0.1410   -1.7070   -1.6480 C   0  0  1  0  0  0  0  0  0  0  0  0
    0.5750   -2.8900   -1.8660 O   0  0  0  0  0  0  0  0  0  0  0  0
    0.6710   -0.7300   -0.8300 C   0  0  2  0  0  0  0  0  0  0  0  0
    1.0330   -1.2400    0.4580 N   0  0  0  0  0  0  0  0  0  0  0  0
   -0.1390    0.5260   -0.7140 C   0  0  0  0  0  0  0  0  0  0  0  0
   -0.5390    1.1060   -1.7440 O   0  0  0  0  0  0  0  0  0  0  0  0
   -0.4320   -1.9020   -3.8060 H   0  0  0  0  0  0  0  0  0  0  0  0
   -1.3990   -0.6110   -3.0750 H   0  0  0  0  0  0  0  0  0  0  0  0
    0.3910   -0.4070   -3.3320 H   0  0  0  0  0  0  0  0  0  0  0  0
   -1.1050   -1.8620   -1.1660 H   0  0  0  0  0  0  0  0  0  0  0  0
    1.5250   -2.6310   -1.9080 H   0  0  0  0  0  0  0  0  0  0  0  0
    1.5710   -0.4640   -1.4210 H   0  0  0  0  0  0  0  0  0  0  0  0
    0.2910   -1.5340    1.1280 H   0  0  0  0  0  0  0  0  0  0  0  0
   -0.4790    1.1000    0.5380 N   0  0  0  0  0  0  0  0  0  0  0  0
   -1.2490    2.2980    0.6890 C   0  0  1  0  0  0  0  0  0  0  0  0
   -2.5530    1.9060    1.3920 C   0  0  0  0  0  0  0  0  0  0  0  0
   -3.3160    0.8940    0.5670 C   0  0  0  0  0  0  0  0  0  0  0  0
   -4.5590    0.5520    1.2890 C   0  0  0  0  0  0  0  0  0  0  0  0
   -4.8340    1.0760    2.3980 O   0  0  0  0  0  0  0  0  0  0  0  0
   -0.5340    3.3410    1.4720 C   0  0  0  0  0  0  0  0  0  0  0  0
   -1.0500    4.4630    1.7110 O   0  0  0  0  0  0  0  0  0  0  0  0
   -5.4770   -0.3700    0.7640 O   0  0  0  0  0  0  0  0  0  0  0  0
    0.7410    3.1140    1.9730 O   0  0  0  0  0  0  0  0  0  0  0  0
   -0.1470    0.6200    1.3970 H   0  0  0  0  0  0  0  0  0  0  0  0
   -1.5610    2.7460   -0.2750 H   0  0  0  0  0  0  0  0  0  0  0  0
   -3.1290    2.8250    1.5590 H   0  0  0  0  0  0  0  0  0  0  0  0
   -2.3650    1.4480    2.3780 H   0  0  0  0  0  0  0  0  0  0  0  0
   -2.7440   -0.0250    0.3940 H   0  0  0  0  0  0  0  0  0  0  0  0
   -3.5530    1.3010   -0.4530 H   0  0  0  0  0  0  0  0  0  0  0  0
   -6.0700   -0.9340    1.3330 H   0  0  0  0  0  0  0  0  0  0  0  0
  1  9  1  0  0  0  0
  2 11  1  1  0  0  0
  2  1  1  0  0  0  0
  3  2  1  0  0  0  0
  3  4  1  0  0  0  0
  4  8  1  0  0  0  0
  4  5  2  0  0  0  0
  6  2  1  0  0  0  0
  7  6  2  0  0  0  0
  8 14  1  0  0  0  0
 10  1  1  0  0  0  0
 12  3  1  0  0  0  0
 13  3  1  0  0  0  0
 15 16  1  0  0  0  0
 16 25  1  1  0  0  0
 16 18  1  0  0  0  0
 17 16  1  0  0  0  0
 18 27  1  6  0  0  0
 18 20  1  0  0  0  0
 18 19  1  0  0  0  0
 19  6  1  0  0  0  0
 19 28  1  0  0  0  0
 20 29  1  0  0  0  0
 21 20  2  0  0  0  0
 22 15  1  0  0  0  0
 23 15  1  0  0  0  0
 24 15  1  0  0  0  0
 26 17  1  0  0  0  0
 29 30  1  0  0  0  0
 29 39  1  0  0  0  0
 30 40  1  6  0  0  0
 30 31  1  0  0  0  0
 30 35  1  0  0  0  0
 31 41  1  0  0  0  0
 31 42  1  0  0  0  0
 32 33  1  0  0  0  0
 32 31  1  0  0  0  0
 33 34  2  0  0  0  0
 35 36  2  0  0  0  0
 35 38  1  0  0  0  0
 37 33  1  0  0  0  0
 37 45  1  0  0  0  0
 43 32  1  0  0  0  0
 44 32  1  0  0  0  0
M  END
$$$$
