DTK.pdb
 OpenBabel07022418163D

 50 49  0  0  1  0  0  0  0  0999 V2000
    2.4970   -3.1400    2.5290 N   0  0  0  0  0  0  0  0  0  0  0  0
    3.5550   -2.4260    1.8390 C   0  0  1  0  0  0  0  0  0  0  0  0
    4.6590   -3.3930    1.4610 C   0  0  0  0  0  0  0  0  0  0  0  0
    4.1210   -4.4520    0.5660 C   0  0  0  0  0  0  0  0  0  0  0  0
    2.9160   -4.4830    0.2170 O   0  0  0  0  0  0  0  0  0  0  0  0
    3.0700   -1.6820    0.6740 C   0  0  0  0  0  0  0  0  0  0  0  0
    3.8900   -1.0220   -0.0080 O   0  0  0  0  0  0  0  0  0  0  0  0
    4.9610   -5.4480    0.0910 O   0  0  0  0  0  0  0  0  0  0  0  0
    2.9890   -3.8410    3.1580 H   0  0  0  0  0  0  0  0  0  0  0  0
    1.9980   -2.5010    3.2150 H   0  0  0  0  0  0  0  0  0  0  0  0
    4.0020   -1.7220    2.5920 H   0  0  0  0  0  0  0  0  0  0  0  0
    5.0820   -3.8960    2.3530 H   0  0  0  0  0  0  0  0  0  0  0  0
    5.4770   -2.8130    0.9890 H   0  0  0  0  0  0  0  0  0  0  0  0
    4.6250   -6.4150   -0.0300 H   0  0  0  0  0  0  0  0  0  0  0  0
    0.3030   -0.8960   -3.1320 C   0  0  0  0  0  0  0  0  0  0  0  0
    0.6250   -1.7830   -1.9450 C   0  0  1  0  0  0  0  0  0  0  0  0
    1.5540   -2.7190   -2.4020 O   0  0  0  0  0  0  0  0  0  0  0  0
    1.2530   -0.9170   -0.8950 C   0  0  2  0  0  0  0  0  0  0  0  0
    1.7190   -1.6530    0.2540 N   0  0  0  0  0  0  0  0  0  0  0  0
    0.2670    0.0840   -0.4030 C   0  0  0  0  0  0  0  0  0  0  0  0
   -0.3170    0.8880   -1.1920 O   0  0  0  0  0  0  0  0  0  0  0  0
   -0.7250   -0.4830   -3.0700 H   0  0  0  0  0  0  0  0  0  0  0  0
    0.3110   -1.5490   -4.0300 H   0  0  0  0  0  0  0  0  0  0  0  0
    1.0680   -0.1110   -3.2980 H   0  0  0  0  0  0  0  0  0  0  0  0
   -0.3220   -2.2440   -1.6300 H   0  0  0  0  0  0  0  0  0  0  0  0
    2.4540   -2.3080   -2.4180 H   0  0  0  0  0  0  0  0  0  0  0  0
    2.1110   -0.3990   -1.3640 H   0  0  0  0  0  0  0  0  0  0  0  0
    1.0080   -2.1870    0.7930 H   0  0  0  0  0  0  0  0  0  0  0  0
   -0.0870    0.2110    0.9720 N   0  0  0  0  0  0  0  0  0  0  0  0
   -1.0570    1.1970    1.4470 C   0  0  1  0  0  0  0  0  0  0  0  0
   -2.2520    0.4730    2.0260 C   0  0  0  0  0  0  0  0  0  0  0  0
   -3.3100    1.3630    2.5420 C   0  0  0  0  0  0  0  0  0  0  0  0
   -3.9100    2.2940    1.5370 C   0  0  0  0  0  0  0  0  0  0  0  0
   -4.5580    1.6250    0.3770 C   0  0  0  0  0  0  0  0  0  0  0  0
   -5.6400    0.7500    0.7080 N   0  0  0  0  0  0  0  0  0  0  0  0
   -0.3900    2.1100    2.3730 C   0  0  0  0  0  0  0  0  0  0  0  0
    0.8370    1.9770    2.6570 O   0  0  0  0  0  0  0  0  0  0  0  0
   -1.0390    3.1670    2.9960 O   0  0  0  0  0  0  0  0  0  0  0  0
    0.3750   -0.4390    1.6720 H   0  0  0  0  0  0  0  0  0  0  0  0
   -1.3850    1.7600    0.5330 H   0  0  0  0  0  0  0  0  0  0  0  0
   -1.8570   -0.1230    2.8920 H   0  0  0  0  0  0  0  0  0  0  0  0
   -2.5780   -0.2660    1.2820 H   0  0  0  0  0  0  0  0  0  0  0  0
   -2.9610    1.9200    3.4260 H   0  0  0  0  0  0  0  0  0  0  0  0
   -4.1530    0.7160    2.9170 H   0  0  0  0  0  0  0  0  0  0  0  0
   -3.0980    2.9420    1.1470 H   0  0  0  0  0  0  0  0  0  0  0  0
   -4.6450    2.9760    2.0110 H   0  0  0  0  0  0  0  0  0  0  0  0
   -3.7990    1.1070   -0.2800 H   0  0  0  0  0  0  0  0  0  0  0  0
   -4.9740    2.4290   -0.2800 H   0  0  0  0  0  0  0  0  0  0  0  0
   -5.3670   -0.1900    1.0190 H   0  0  0  0  0  0  0  0  0  0  0  0
   -6.4230    0.7700    0.0200 H   0  0  0  0  0  0  0  0  0  0  0  0
  1  9  1  0  0  0  0
  1 10  1  0  0  0  0
  2  1  1  0  0  0  0
  2 11  1  1  0  0  0
  3  2  1  0  0  0  0
  3 12  1  0  0  0  0
  4  3  1  0  0  0  0
  5  4  2  0  0  0  0
  6  2  1  0  0  0  0
  7  6  2  0  0  0  0
  8  4  1  0  0  0  0
 13  3  1  0  0  0  0
 14  8  1  0  0  0  0
 15 22  1  0  0  0  0
 15 16  1  0  0  0  0
 16 25  1  1  0  0  0
 16 18  1  0  0  0  0
 17 16  1  0  0  0  0
 18 27  1  6  0  0  0
 18 20  1  0  0  0  0
 18 19  1  0  0  0  0
 19  6  1  0  0  0  0
 19 28  1  0  0  0  0
 20 29  1  0  0  0  0
 21 20  2  0  0  0  0
 23 15  1  0  0  0  0
 24 15  1  0  0  0  0
 26 17  1  0  0  0  0
 29 30  1  0  0  0  0
 29 39  1  0  0  0  0
 30 40  1  6  0  0  0
 30 31  1  0  0  0  0
 30 36  1  0  0  0  0
 31 32  1  0  0  0  0
 31 41  1  0  0  0  0
 32 44  1  0  0  0  0
 32 43  1  0  0  0  0
 33 46  1  0  0  0  0
 33 32  1  0  0  0  0
 34 35  1  0  0  0  0
 34 33  1  0  0  0  0
 35 49  1  0  0  0  0
 36 37  2  0  0  0  0
 36 38  1  0  0  0  0
 42 31  1  0  0  0  0
 45 33  1  0  0  0  0
 47 34  1  0  0  0  0
 48 34  1  0  0  0  0
 50 35  1  0  0  0  0
M  END
$$$$
