DTM.pdb
 OpenBabel07022418163D

 46 45  0  0  1  0  0  0  0  0999 V2000
    4.1990   -3.3580   -0.5830 N   0  0  0  0  0  0  0  0  0  0  0  0
    3.0140   -3.4170    0.3290 C   0  0  1  0  0  0  0  0  0  0  0  0
    3.5530   -3.3680    1.7410 C   0  0  0  0  0  0  0  0  0  0  0  0
    2.5340   -3.4030    2.7870 C   0  0  0  0  0  0  0  0  0  0  0  0
    1.5710   -2.6260    2.8950 O   0  0  0  0  0  0  0  0  0  0  0  0
    2.1600   -2.3130   -0.0750 C   0  0  0  0  0  0  0  0  0  0  0  0
    2.6900   -1.3130   -0.6880 O   0  0  0  0  0  0  0  0  0  0  0  0
    2.6330   -4.4020    3.7750 O   0  0  0  0  0  0  0  0  0  0  0  0
    4.5920   -4.3230   -0.6830 H   0  0  0  0  0  0  0  0  0  0  0  0
    3.9120   -3.0280   -1.5270 H   0  0  0  0  0  0  0  0  0  0  0  0
    2.5980   -4.4260    0.1660 H   0  0  0  0  0  0  0  0  0  0  0  0
    4.2860   -2.5360    1.8660 H   0  0  0  0  0  0  0  0  0  0  0  0
    4.1970   -4.2980    1.8340 H   0  0  0  0  0  0  0  0  0  0  0  0
    2.1320   -4.3180    4.6580 H   0  0  0  0  0  0  0  0  0  0  0  0
   -1.5780   -0.2360   -2.0590 C   0  0  0  0  0  0  0  0  0  0  0  0
   -0.9030   -1.4570   -1.4870 C   0  0  1  0  0  0  0  0  0  0  0  0
   -0.1100   -1.9620   -2.5280 O   0  0  0  0  0  0  0  0  0  0  0  0
   -0.0090   -1.0210   -0.3390 C   0  0  2  0  0  0  0  0  0  0  0  0
    0.7720   -2.1750    0.1100 N   0  0  0  0  0  0  0  0  0  0  0  0
   -0.8360   -0.5780    0.7850 C   0  0  0  0  0  0  0  0  0  0  0  0
   -0.9660   -1.3640    1.7920 O   0  0  0  0  0  0  0  0  0  0  0  0
   -2.4970   -0.0510   -1.4560 H   0  0  0  0  0  0  0  0  0  0  0  0
   -0.9330    0.6470   -2.1200 H   0  0  0  0  0  0  0  0  0  0  0  0
   -1.9640   -0.5020   -3.1060 H   0  0  0  0  0  0  0  0  0  0  0  0
   -1.6950   -2.1590   -1.1820 H   0  0  0  0  0  0  0  0  0  0  0  0
   -0.4260   -1.6490   -3.3870 H   0  0  0  0  0  0  0  0  0  0  0  0
    0.6500   -0.2360   -0.7070 H   0  0  0  0  0  0  0  0  0  0  0  0
    0.2480   -2.9300    0.5840 H   0  0  0  0  0  0  0  0  0  0  0  0
    1.3710    2.9380    1.4300 C   0  0  0  0  0  0  0  0  0  0  0  0
   -0.3150    3.4110    0.9140 S   0  0  0  0  0  0  0  0  0  0  0  0
   -1.4460    3.3710    2.2940 C   0  0  0  0  0  0  0  0  0  0  0  0
   -1.7110    2.0380    2.8880 C   0  0  0  0  0  0  0  0  0  0  0  0
   -2.3160    1.0060    2.0040 C   0  0  2  0  0  0  0  0  0  0  0  0
   -1.5130    0.6780    0.8440 N   0  0  0  0  0  0  0  0  0  0  0  0
   -3.7130    1.3450    1.6170 C   0  0  0  0  0  0  0  0  0  0  0  0
   -3.9970    1.3190    0.3870 O   0  0  0  0  0  0  0  0  0  0  0  0
   -4.7080    1.6820    2.4980 O   0  0  0  0  0  0  0  0  0  0  0  0
    1.5620    3.3750    2.4460 H   0  0  0  0  0  0  0  0  0  0  0  0
    1.5060    1.8540    1.4880 H   0  0  0  0  0  0  0  0  0  0  0  0
    2.1420    3.3820    0.7430 H   0  0  0  0  0  0  0  0  0  0  0  0
   -2.4140    3.8520    1.9630 H   0  0  0  0  0  0  0  0  0  0  0  0
   -1.0790    4.0540    3.1060 H   0  0  0  0  0  0  0  0  0  0  0  0
   -2.3830    2.1500    3.7820 H   0  0  0  0  0  0  0  0  0  0  0  0
   -0.7500    1.5940    3.2780 H   0  0  0  0  0  0  0  0  0  0  0  0
   -2.3730    0.0670    2.6320 H   0  0  0  0  0  0  0  0  0  0  0  0
   -1.4010    1.3280    0.0570 H   0  0  0  0  0  0  0  0  0  0  0  0
  1  2  1  0  0  0  0
  2 11  1  6  0  0  0
  2  3  1  0  0  0  0
  3 13  1  0  0  0  0
  3 12  1  0  0  0  0
  3  4  1  0  0  0  0
  4  5  2  0  0  0  0
  4  8  1  0  0  0  0
  6 19  1  0  0  0  0
  6  2  1  0  0  0  0
  7  6  2  0  0  0  0
  8 14  1  0  0  0  0
  9  1  1  0  0  0  0
 10  1  1  0  0  0  0
 15 16  1  0  0  0  0
 15 22  1  0  0  0  0
 16 25  1  1  0  0  0
 16 18  1  0  0  0  0
 17 16  1  0  0  0  0
 18 27  1  6  0  0  0
 18 19  1  0  0  0  0
 18 20  1  0  0  0  0
 19 28  1  0  0  0  0
 20 34  1  0  0  0  0
 20 21  2  0  0  0  0
 23 15  1  0  0  0  0
 24 15  1  0  0  0  0
 26 17  1  0  0  0  0
 29 39  1  0  0  0  0
 29 38  1  0  0  0  0
 30 29  1  0  0  0  0
 30 31  1  0  0  0  0
 31 32  1  0  0  0  0
 31 42  1  0  0  0  0
 32 44  1  0  0  0  0
 32 43  1  0  0  0  0
 33 45  1  1  0  0  0
 33 32  1  0  0  0  0
 34 33  1  0  0  0  0
 35 33  1  0  0  0  0
 35 37  1  0  0  0  0
 36 35  2  0  0  0  0
 40 29  1  0  0  0  0
 41 31  1  0  0  0  0
 46 34  1  0  0  0  0
M  END
$$$$
