DTQ.pdb
 OpenBabel07022418163D

 46 45  0  0  1  0  0  0  0  0999 V2000
    0.1410   -1.5710    4.9090 N   0  0  0  0  0  0  0  0  0  0  0  0
    1.4810   -1.4470    4.4050 C   0  0  1  0  0  0  0  0  0  0  0  0
    2.2440   -2.7300    4.6910 C   0  0  0  0  0  0  0  0  0  0  0  0
    2.3120   -3.0110    6.1430 C   0  0  0  0  0  0  0  0  0  0  0  0
    3.1220   -2.4140    6.9100 O   0  0  0  0  0  0  0  0  0  0  0  0
    1.4750   -1.2670    2.9270 C   0  0  0  0  0  0  0  0  0  0  0  0
    2.5640   -1.1420    2.3340 O   0  0  0  0  0  0  0  0  0  0  0  0
    1.4640   -3.9680    6.7200 O   0  0  0  0  0  0  0  0  0  0  0  0
    0.2020   -1.4970    5.9620 H   0  0  0  0  0  0  0  0  0  0  0  0
   -0.2790   -2.5070    4.7270 H   0  0  0  0  0  0  0  0  0  0  0  0
    1.9960   -0.6120    4.8840 H   0  0  0  0  0  0  0  0  0  0  0  0
    3.2780   -2.6720    4.3020 H   0  0  0  0  0  0  0  0  0  0  0  0
    1.7540   -3.6010    4.2090 H   0  0  0  0  0  0  0  0  0  0  0  0
    1.6860   -4.3590    7.6310 H   0  0  0  0  0  0  0  0  0  0  0  0
   -1.8060   -2.5200    0.6690 C   0  0  0  0  0  0  0  0  0  0  0  0
   -0.3920   -2.2930    0.1230 C   0  0  1  0  0  0  0  0  0  0  0  0
   -0.4100   -2.1580   -1.2560 O   0  0  0  0  0  0  0  0  0  0  0  0
    0.2260   -1.0660    0.7730 C   0  0  2  0  0  0  0  0  0  0  0  0
    0.2400   -1.2430    2.2320 N   0  0  0  0  0  0  0  0  0  0  0  0
   -0.6200    0.1230    0.5190 C   0  0  0  0  0  0  0  0  0  0  0  0
   -1.2240    0.7450    1.4650 O   0  0  0  0  0  0  0  0  0  0  0  0
   -1.8270   -3.3580    1.3880 H   0  0  0  0  0  0  0  0  0  0  0  0
   -2.4980   -2.7370   -0.1610 H   0  0  0  0  0  0  0  0  0  0  0  0
   -2.0930   -1.6040    1.2230 H   0  0  0  0  0  0  0  0  0  0  0  0
    0.1710   -3.2090    0.3570 H   0  0  0  0  0  0  0  0  0  0  0  0
    0.5140   -2.2720   -1.5900 H   0  0  0  0  0  0  0  0  0  0  0  0
    1.2630   -0.9670    0.4020 H   0  0  0  0  0  0  0  0  0  0  0  0
   -0.6450   -1.3520    2.7690 H   0  0  0  0  0  0  0  0  0  0  0  0
    1.8790    1.1870   -3.3870 N   0  0  0  0  0  0  0  0  0  0  0  0
    1.2740    1.8760   -2.2990 C   0  0  0  0  0  0  0  0  0  0  0  0
    1.6930    1.6690   -1.1160 O   0  0  0  0  0  0  0  0  0  0  0  0
    0.1770    2.8350   -2.4890 C   0  0  0  0  0  0  0  0  0  0  0  0
   -0.7740    2.9830   -1.3690 C   0  0  0  0  0  0  0  0  0  0  0  0
   -1.5830    1.7440   -1.1130 C   0  0  2  0  0  0  0  0  0  0  0  0
   -0.7840    0.6140   -0.8130 N   0  0  0  0  0  0  0  0  0  0  0  0
   -2.4910    1.5360   -2.2760 C   0  0  0  0  0  0  0  0  0  0  0  0
   -3.2610    2.4490   -2.6650 O   0  0  0  0  0  0  0  0  0  0  0  0
   -2.5430    0.3460   -2.9890 O   0  0  0  0  0  0  0  0  0  0  0  0
    2.7320    1.5510   -3.8610 H   0  0  0  0  0  0  0  0  0  0  0  0
    1.4830    0.2900   -3.7440 H   0  0  0  0  0  0  0  0  0  0  0  0
   -0.3390    2.5340   -3.4520 H   0  0  0  0  0  0  0  0  0  0  0  0
    0.6520    3.8190   -2.7680 H   0  0  0  0  0  0  0  0  0  0  0  0
   -1.5090    3.7920   -1.6690 H   0  0  0  0  0  0  0  0  0  0  0  0
   -0.3120    3.3860   -0.4390 H   0  0  0  0  0  0  0  0  0  0  0  0
   -2.2430    2.0160   -0.2300 H   0  0  0  0  0  0  0  0  0  0  0  0
   -0.3140    0.1010   -1.5890 H   0  0  0  0  0  0  0  0  0  0  0  0
  1  9  1  0  0  0  0
  2  3  1  0  0  0  0
  2 11  1  1  0  0  0
  2  1  1  0  0  0  0
  3  4  1  0  0  0  0
  4  8  1  0  0  0  0
  4  5  2  0  0  0  0
  6  2  1  0  0  0  0
  7  6  2  0  0  0  0
  8 14  1  0  0  0  0
 10  1  1  0  0  0  0
 12  3  1  0  0  0  0
 13  3  1  0  0  0  0
 15 24  1  0  0  0  0
 15 22  1  0  0  0  0
 16 25  1  1  0  0  0
 16 15  1  0  0  0  0
 16 18  1  0  0  0  0
 17 16  1  0  0  0  0
 18 27  1  6  0  0  0
 18 19  1  0  0  0  0
 19 28  1  0  0  0  0
 19  6  1  0  0  0  0
 20 18  1  0  0  0  0
 20 21  2  0  0  0  0
 23 15  1  0  0  0  0
 26 17  1  0  0  0  0
 29 30  1  0  0  0  0
 30 31  2  0  0  0  0
 32 30  1  0  0  0  0
 32 33  1  0  0  0  0
 33 34  1  0  0  0  0
 33 44  1  0  0  0  0
 34 35  1  0  0  0  0
 34 45  1  1  0  0  0
 35 20  1  0  0  0  0
 36 34  1  0  0  0  0
 37 36  1  0  0  0  0
 38 36  2  0  0  0  0
 39 29  1  0  0  0  0
 40 29  1  0  0  0  0
 41 32  1  0  0  0  0
 42 32  1  0  0  0  0
 43 33  1  0  0  0  0
 46 35  1  0  0  0  0
M  END
$$$$
