DTR.pdb
 OpenBabel07022418163D

 52 51  0  0  1  0  0  0  0  0999 V2000
    2.7550   -0.3720    5.0930 N   0  0  0  0  0  0  0  0  0  0  0  0
    2.8310   -0.5220    3.6760 C   0  0  1  0  0  0  0  0  0  0  0  0
    2.2970   -1.8690    3.1980 C   0  0  0  0  0  0  0  0  0  0  0  0
    0.8750   -1.9290    3.6330 C   0  0  0  0  0  0  0  0  0  0  0  0
    0.6610   -1.7110    4.8560 O   0  0  0  0  0  0  0  0  0  0  0  0
    2.1160    0.5610    2.9280 C   0  0  0  0  0  0  0  0  0  0  0  0
    1.4630    1.4720    3.4940 O   0  0  0  0  0  0  0  0  0  0  0  0
   -0.1150   -2.2100    2.7110 O   0  0  0  0  0  0  0  0  0  0  0  0
    3.5590    0.2310    5.4390 H   0  0  0  0  0  0  0  0  0  0  0  0
    2.9410   -1.3090    5.5200 H   0  0  0  0  0  0  0  0  0  0  0  0
    3.9000   -0.4750    3.3270 H   0  0  0  0  0  0  0  0  0  0  0  0
    2.4370   -2.0030    2.1130 H   0  0  0  0  0  0  0  0  0  0  0  0
    2.8480   -2.6820    3.7200 H   0  0  0  0  0  0  0  0  0  0  0  0
   -1.0650   -1.9470    2.9300 H   0  0  0  0  0  0  0  0  0  0  0  0
    3.4440    1.6100   -0.9250 C   0  0  0  0  0  0  0  0  0  0  0  0
    2.4980    2.4070   -0.0550 C   0  0  1  0  0  0  0  0  0  0  0  0
    1.7650    3.3210   -0.8160 O   0  0  0  0  0  0  0  0  0  0  0  0
    1.5070    1.5620    0.6950 C   0  0  2  0  0  0  0  0  0  0  0  0
    2.1610    0.5780    1.5170 N   0  0  0  0  0  0  0  0  0  0  0  0
    0.5130    0.9260   -0.2260 C   0  0  0  0  0  0  0  0  0  0  0  0
   -0.1680    1.6380   -1.0000 O   0  0  0  0  0  0  0  0  0  0  0  0
    3.0180    1.4160   -1.9150 H   0  0  0  0  0  0  0  0  0  0  0  0
    4.3790    2.2110   -1.1330 H   0  0  0  0  0  0  0  0  0  0  0  0
    3.7970    0.7020   -0.3990 H   0  0  0  0  0  0  0  0  0  0  0  0
    3.1220    2.9430    0.6900 H   0  0  0  0  0  0  0  0  0  0  0  0
    2.3370    3.9300   -1.3440 H   0  0  0  0  0  0  0  0  0  0  0  0
    0.9310    2.2690    1.3330 H   0  0  0  0  0  0  0  0  0  0  0  0
    2.7040   -0.1800    1.0450 H   0  0  0  0  0  0  0  0  0  0  0  0
   -5.1790   -4.2120   -0.6280 N   0  0  0  0  0  0  0  0  0  0  0  0
   -4.8130   -3.0060    0.0290 C   0  0  0  0  0  0  0  0  0  0  0  0
   -5.1200   -2.7870    1.2870 N   0  0  0  0  0  0  0  0  0  0  0  0
   -4.0920   -1.9680   -0.6120 N   0  0  0  0  0  0  0  0  0  0  0  0
   -3.4330   -0.9180    0.1080 C   0  0  0  0  0  0  0  0  0  0  0  0
   -2.7630    0.0480   -0.8600 C   0  0  0  0  0  0  0  0  0  0  0  0
   -1.7440   -0.5920   -1.7170 C   0  0  0  0  0  0  0  0  0  0  0  0
   -0.5830   -1.2460   -1.0280 C   0  0  2  0  0  0  0  0  0  0  0  0
    0.3020   -0.4670   -0.2670 N   0  0  0  0  0  0  0  0  0  0  0  0
    0.1220   -2.1750   -1.9050 C   0  0  0  0  0  0  0  0  0  0  0  0
    1.3740   -2.2340   -1.9120 O   0  0  0  0  0  0  0  0  0  0  0  0
   -0.5840   -3.0110   -2.7460 O   0  0  0  0  0  0  0  0  0  0  0  0
   -5.0960   -5.1240   -0.1250 H   0  0  0  0  0  0  0  0  0  0  0  0
   -5.5410   -4.2550   -1.6140 H   0  0  0  0  0  0  0  0  0  0  0  0
   -5.6410   -3.5020    1.8190 H   0  0  0  0  0  0  0  0  0  0  0  0
   -4.0600   -2.0030   -1.6520 H   0  0  0  0  0  0  0  0  0  0  0  0
   -4.2580   -0.3180    0.5890 H   0  0  0  0  0  0  0  0  0  0  0  0
   -2.7770   -1.2280    0.9150 H   0  0  0  0  0  0  0  0  0  0  0  0
   -2.4910    0.9150   -0.2570 H   0  0  0  0  0  0  0  0  0  0  0  0
   -3.6460    0.4310   -1.4720 H   0  0  0  0  0  0  0  0  0  0  0  0
   -1.3320    0.1130   -2.5000 H   0  0  0  0  0  0  0  0  0  0  0  0
   -2.2440   -1.3830   -2.3160 H   0  0  0  0  0  0  0  0  0  0  0  0
   -1.0740   -1.9500   -0.2110 H   0  0  0  0  0  0  0  0  0  0  0  0
    0.9440   -1.0080    0.4030 H   0  0  0  0  0  0  0  0  0  0  0  0
  1  9  1  0  0  0  0
  1 10  1  0  0  0  0
  2 11  1  6  0  0  0
  2  1  1  0  0  0  0
  3  4  1  0  0  0  0
  3  2  1  0  0  0  0
  3 13  1  0  0  0  0
  4  5  2  0  0  0  0
  6  7  2  0  0  0  0
  6  2  1  0  0  0  0
  8 14  1  0  0  0  0
  8  4  1  0  0  0  0
 12  3  1  0  0  0  0
 15 24  1  0  0  0  0
 15 16  1  0  0  0  0
 16 25  1  1  0  0  0
 16 18  1  0  0  0  0
 17 16  1  0  0  0  0
 18 27  1  1  0  0  0
 18 19  1  0  0  0  0
 19  6  1  0  0  0  0
 20 18  1  0  0  0  0
 21 20  2  0  0  0  0
 22 15  1  0  0  0  0
 23 15  1  0  0  0  0
 26 17  1  0  0  0  0
 28 19  1  0  0  0  0
 29 41  1  0  0  0  0
 29 30  1  0  0  0  0
 30 31  2  0  0  0  0
 31 43  1  0  0  0  0
 32 30  1  0  0  0  0
 32 33  1  0  0  0  0
 33 45  1  0  0  0  0
 33 46  1  0  0  0  0
 34 47  1  0  0  0  0
 34 33  1  0  0  0  0
 35 36  1  0  0  0  0
 35 34  1  0  0  0  0
 36 37  1  0  0  0  0
 36 51  1  1  0  0  0
 37 20  1  0  0  0  0
 37 52  1  0  0  0  0
 38 36  1  0  0  0  0
 39 38  1  0  0  0  0
 40 38  2  0  0  0  0
 42 29  1  0  0  0  0
 44 32  1  0  0  0  0
 48 34  1  0  0  0  0
 49 35  1  0  0  0  0
 50 35  1  0  0  0  0
M  END
$$$$
