DTV.pdb
 OpenBabel07022418163D

 45 44  0  0  1  0  0  0  0  0999 V2000
    0.5360   -3.2680   -0.3480 N   0  0  0  0  0  0  0  0  0  0  0  0
    1.4120   -3.4390    0.8300 C   0  0  1  0  0  0  0  0  0  0  0  0
    2.6760   -4.1380    0.4510 C   0  0  0  0  0  0  0  0  0  0  0  0
    3.5320   -4.3010    1.6440 C   0  0  0  0  0  0  0  0  0  0  0  0
    4.4140   -3.4950    1.9780 O   0  0  0  0  0  0  0  0  0  0  0  0
    1.7430   -2.0870    1.3800 C   0  0  0  0  0  0  0  0  0  0  0  0
    2.4150   -1.9270    2.4260 O   0  0  0  0  0  0  0  0  0  0  0  0
    3.3150   -5.4380    2.4280 O   0  0  0  0  0  0  0  0  0  0  0  0
    0.1900   -4.2410   -0.5510 H   0  0  0  0  0  0  0  0  0  0  0  0
   -0.2940   -2.7410    0.0040 H   0  0  0  0  0  0  0  0  0  0  0  0
    0.8780   -4.0610    1.5760 H   0  0  0  0  0  0  0  0  0  0  0  0
    3.2150   -3.5700   -0.3390 H   0  0  0  0  0  0  0  0  0  0  0  0
    2.4020   -5.1600    0.0660 H   0  0  0  0  0  0  0  0  0  0  0  0
    3.9150   -5.6650    3.2170 H   0  0  0  0  0  0  0  0  0  0  0  0
    1.9300    1.2300   -1.1270 C   0  0  0  0  0  0  0  0  0  0  0  0
    2.4810    1.1740    0.2560 C   0  0  1  0  0  0  0  0  0  0  0  0
    2.7880    2.4470    0.6950 O   0  0  0  0  0  0  0  0  0  0  0  0
    1.6050    0.4320    1.2340 C   0  0  2  0  0  0  0  0  0  0  0  0
    1.3080   -0.8920    0.7390 N   0  0  0  0  0  0  0  0  0  0  0  0
    0.3540    1.1400    1.5360 C   0  0  0  0  0  0  0  0  0  0  0  0
    0.3720    2.3130    1.9780 O   0  0  0  0  0  0  0  0  0  0  0  0
    2.6540    0.7980   -1.8780 H   0  0  0  0  0  0  0  0  0  0  0  0
    1.8230    2.3060   -1.4560 H   0  0  0  0  0  0  0  0  0  0  0  0
    0.9800    0.6970   -1.2750 H   0  0  0  0  0  0  0  0  0  0  0  0
    3.4520    0.6090    0.2210 H   0  0  0  0  0  0  0  0  0  0  0  0
    3.7300    2.6900    0.5830 H   0  0  0  0  0  0  0  0  0  0  0  0
    2.2130    0.2890    2.1590 H   0  0  0  0  0  0  0  0  0  0  0  0
    0.7470   -0.9730   -0.1310 H   0  0  0  0  0  0  0  0  0  0  0  0
   -2.1990    2.2800   -0.5700 C   0  0  0  0  0  0  0  0  0  0  0  0
   -3.0050    1.4360    0.4090 C   0  0  0  0  0  0  0  0  0  0  0  0
   -3.5080    0.1770   -0.2090 C   0  0  0  0  0  0  0  0  0  0  0  0
   -2.1540    1.2190    1.6370 C   0  0  2  0  0  0  0  0  0  0  0  0
   -0.9190    0.5370    1.3440 N   0  0  0  0  0  0  0  0  0  0  0  0
   -2.9070    0.5620    2.7370 C   0  0  0  0  0  0  0  0  0  0  0  0
   -4.0130    0.9950    3.1490 O   0  0  0  0  0  0  0  0  0  0  0  0
   -2.4190   -0.5750    3.3690 O   0  0  0  0  0  0  0  0  0  0  0  0
   -1.2920    1.7620   -0.9090 H   0  0  0  0  0  0  0  0  0  0  0  0
   -2.8090    2.5670   -1.4570 H   0  0  0  0  0  0  0  0  0  0  0  0
   -1.9530    3.2420   -0.0470 H   0  0  0  0  0  0  0  0  0  0  0  0
   -3.8820    2.0560    0.6870 H   0  0  0  0  0  0  0  0  0  0  0  0
   -2.9640   -0.7380    0.1320 H   0  0  0  0  0  0  0  0  0  0  0  0
   -4.5860   -0.0310    0.0010 H   0  0  0  0  0  0  0  0  0  0  0  0
   -3.4570    0.2740   -1.3310 H   0  0  0  0  0  0  0  0  0  0  0  0
   -1.8840    2.2340    2.0120 H   0  0  0  0  0  0  0  0  0  0  0  0
   -0.8950   -0.4560    0.9690 H   0  0  0  0  0  0  0  0  0  0  0  0
  1 10  1  0  0  0  0
  1  2  1  0  0  0  0
  2  6  1  0  0  0  0
  2 11  1  1  0  0  0
  3  2  1  0  0  0  0
  3  4  1  0  0  0  0
  4  5  2  0  0  0  0
  4  8  1  0  0  0  0
  6  7  2  0  0  0  0
  8 14  1  0  0  0  0
  9  1  1  0  0  0  0
 12  3  1  0  0  0  0
 13  3  1  0  0  0  0
 15 16  1  0  0  0  0
 16 25  1  6  0  0  0
 16 17  1  0  0  0  0
 16 18  1  0  0  0  0
 18 20  1  0  0  0  0
 18 27  1  1  0  0  0
 19 18  1  0  0  0  0
 19  6  1  0  0  0  0
 20 21  2  0  0  0  0
 22 15  1  0  0  0  0
 23 15  1  0  0  0  0
 24 15  1  0  0  0  0
 26 17  1  0  0  0  0
 28 19  1  0  0  0  0
 29 39  1  0  0  0  0
 29 30  1  0  0  0  0
 30 40  1  0  0  0  0
 30 32  1  0  0  0  0
 31 42  1  0  0  0  0
 31 41  1  0  0  0  0
 31 30  1  0  0  0  0
 32 44  1  1  0  0  0
 32 34  1  0  0  0  0
 33 20  1  0  0  0  0
 33 32  1  0  0  0  0
 34 35  2  0  0  0  0
 34 36  1  0  0  0  0
 37 29  1  0  0  0  0
 38 29  1  0  0  0  0
 43 31  1  0  0  0  0
 45 33  1  0  0  0  0
M  END
$$$$
