DTW.pdb
 OpenBabel07022418163D

 53 54  0  0  1  0  0  0  0  0999 V2000
    2.0140   -2.4120    0.2610 N   0  0  0  0  0  0  0  0  0  0  0  0
    3.0480   -1.7770    1.1270 C   0  0  1  0  0  0  0  0  0  0  0  0
    4.3850   -1.9470    0.4430 C   0  0  0  0  0  0  0  0  0  0  0  0
    5.4900   -1.3940    1.2410 C   0  0  0  0  0  0  0  0  0  0  0  0
    5.3690   -0.9370    2.3980 O   0  0  0  0  0  0  0  0  0  0  0  0
    2.7290   -0.3220    1.1640 C   0  0  0  0  0  0  0  0  0  0  0  0
    3.3490    0.4470    1.8840 O   0  0  0  0  0  0  0  0  0  0  0  0
    6.7870   -1.3510    0.7190 O   0  0  0  0  0  0  0  0  0  0  0  0
    1.9990   -3.4160    0.6130 H   0  0  0  0  0  0  0  0  0  0  0  0
    2.4030   -2.4470   -0.7070 H   0  0  0  0  0  0  0  0  0  0  0  0
    3.0850   -2.2640    2.0940 H   0  0  0  0  0  0  0  0  0  0  0  0
    4.3220   -1.3670   -0.5030 H   0  0  0  0  0  0  0  0  0  0  0  0
    4.5750   -3.0360    0.2140 H   0  0  0  0  0  0  0  0  0  0  0  0
    7.4340   -0.6040    0.8630 H   0  0  0  0  0  0  0  0  0  0  0  0
    2.9290    2.5580   -1.3270 C   0  0  0  0  0  0  0  0  0  0  0  0
    1.4790    2.2630   -1.0010 C   0  0  1  0  0  0  0  0  0  0  0  0
    0.8070    1.6810   -2.0640 O   0  0  0  0  0  0  0  0  0  0  0  0
    1.2910    1.5680    0.3030 C   0  0  2  0  0  0  0  0  0  0  0  0
    1.7050    0.2100    0.3710 N   0  0  0  0  0  0  0  0  0  0  0  0
   -0.1420    1.7220    0.6800 C   0  0  0  0  0  0  0  0  0  0  0  0
   -0.6740    2.8870    0.7100 O   0  0  0  0  0  0  0  0  0  0  0  0
    3.4900    2.8900   -0.4290 H   0  0  0  0  0  0  0  0  0  0  0  0
    3.0270    3.3790   -2.0690 H   0  0  0  0  0  0  0  0  0  0  0  0
    3.4360    1.6760   -1.8190 H   0  0  0  0  0  0  0  0  0  0  0  0
    0.9910    3.2640   -0.8720 H   0  0  0  0  0  0  0  0  0  0  0  0
    1.4710    1.1350   -2.5550 H   0  0  0  0  0  0  0  0  0  0  0  0
    1.8710    2.1400    1.0560 H   0  0  0  0  0  0  0  0  0  0  0  0
    1.1760   -0.4510   -0.2410 H   0  0  0  0  0  0  0  0  0  0  0  0
   -0.9960    0.6400    1.0210 N   0  0  0  0  0  0  0  0  0  0  0  0
   -2.3950    0.8190    1.3870 C   0  0  1  0  0  0  0  0  0  0  0  0
   -3.3260    0.3630    0.3190 C   0  0  0  0  0  0  0  0  0  0  0  0
   -3.2480   -1.0150   -0.1120 C   0  0  0  0  0  0  0  0  0  0  0  0
   -2.5550   -1.4140   -1.2520 C   0  0  0  0  0  0  0  0  0  0  0  0
   -2.6420   -2.7430   -1.3790 N   0  0  0  0  0  0  0  0  0  0  0  0
   -3.3810   -3.2460   -0.3480 C   0  0  0  0  0  0  0  0  0  0  0  0
   -3.7740   -4.5200   -0.0120 C   0  0  0  0  0  0  0  0  0  0  0  0
   -4.5440   -4.8090    1.0930 C   0  0  0  0  0  0  0  0  0  0  0  0
   -4.9030   -3.7120    1.8570 C   0  0  0  0  0  0  0  0  0  0  0  0
   -4.5310   -2.4310    1.5540 C   0  0  0  0  0  0  0  0  0  0  0  0
   -3.7540   -2.1770    0.4330 C   0  0  0  0  0  0  0  0  0  0  0  0
   -2.7050    0.3930    2.7610 C   0  0  0  0  0  0  0  0  0  0  0  0
   -3.8330    0.5670    3.2840 O   0  0  0  0  0  0  0  0  0  0  0  0
   -1.7560   -0.2400    3.5840 O   0  0  0  0  0  0  0  0  0  0  0  0
   -0.5420   -0.3210    0.9910 H   0  0  0  0  0  0  0  0  0  0  0  0
   -2.5290    1.9550    1.4140 H   0  0  0  0  0  0  0  0  0  0  0  0
   -4.3690    0.5560    0.7220 H   0  0  0  0  0  0  0  0  0  0  0  0
   -3.2750    1.0950   -0.5440 H   0  0  0  0  0  0  0  0  0  0  0  0
   -2.0130   -0.7600   -1.9540 H   0  0  0  0  0  0  0  0  0  0  0  0
   -2.2430   -3.3760   -2.1160 H   0  0  0  0  0  0  0  0  0  0  0  0
   -3.4820   -5.3810   -0.6280 H   0  0  0  0  0  0  0  0  0  0  0  0
   -4.8560   -5.8200    1.3590 H   0  0  0  0  0  0  0  0  0  0  0  0
   -5.5190   -3.9440    2.7380 H   0  0  0  0  0  0  0  0  0  0  0  0
   -4.8330   -1.6030    2.1590 H   0  0  0  0  0  0  0  0  0  0  0  0
  1  9  1  0  0  0  0
  1  2  1  0  0  0  0
  2  6  1  0  0  0  0
  2 11  1  1  0  0  0
  3  2  1  0  0  0  0
  3  4  1  0  0  0  0
  4  5  2  0  0  0  0
  6  7  2  0  0  0  0
  8 14  1  0  0  0  0
  8  4  1  0  0  0  0
 10  1  1  0  0  0  0
 12  3  1  0  0  0  0
 13  3  1  0  0  0  0
 15 16  1  0  0  0  0
 15 22  1  0  0  0  0
 16 25  1  1  0  0  0
 16 18  1  0  0  0  0
 17 16  1  0  0  0  0
 18 19  1  0  0  0  0
 18 20  1  0  0  0  0
 18 27  1  1  0  0  0
 19  6  1  0  0  0  0
 20 21  2  0  0  0  0
 20 29  1  0  0  0  0
 23 15  1  0  0  0  0
 24 15  1  0  0  0  0
 26 17  1  0  0  0  0
 28 19  1  0  0  0  0
 29 30  1  0  0  0  0
 30 45  1  1  0  0  0
 30 41  1  0  0  0  0
 31 46  1  0  0  0  0
 31 30  1  0  0  0  0
 32 31  1  0  0  0  0
 32 40  1  0  0  0  0
 33 32  2  0  0  0  0
 34 33  1  0  0  0  0
 34 35  1  0  0  0  0
 35 36  2  0  0  0  0
 35 40  1  0  0  0  0
 36 37  1  0  0  0  0
 37 51  1  0  0  0  0
 37 38  2  0  0  0  0
 38 52  1  0  0  0  0
 39 38  1  0  0  0  0
 39 53  1  0  0  0  0
 40 39  2  0  0  0  0
 41 42  2  0  0  0  0
 41 43  1  0  0  0  0
 44 29  1  0  0  0  0
 47 31  1  0  0  0  0
 48 33  1  0  0  0  0
 49 34  1  0  0  0  0
 50 36  1  0  0  0  0
M  END
$$$$
