DVE.pdb
 OpenBabel07022418163D

 47 46  0  0  1  0  0  0  0  0999 V2000
    4.5430   -3.4760    0.2050 N   0  0  0  0  0  0  0  0  0  0  0  0
    3.0830   -3.1490    0.0680 C   0  0  1  0  0  0  0  0  0  0  0  0
    2.3810   -4.2430    0.8100 C   0  0  0  0  0  0  0  0  0  0  0  0
    0.9210   -4.1230    0.8090 C   0  0  0  0  0  0  0  0  0  0  0  0
    0.4100   -3.1690    1.4400 O   0  0  0  0  0  0  0  0  0  0  0  0
    2.9330   -1.8020    0.6160 C   0  0  0  0  0  0  0  0  0  0  0  0
    3.7990   -1.3010    1.4240 O   0  0  0  0  0  0  0  0  0  0  0  0
    0.0770   -5.0020    0.1500 O   0  0  0  0  0  0  0  0  0  0  0  0
    4.5790   -4.5220    0.0410 H   0  0  0  0  0  0  0  0  0  0  0  0
    5.0350   -3.0470   -0.6290 H   0  0  0  0  0  0  0  0  0  0  0  0
    2.8820   -3.2580   -1.0070 H   0  0  0  0  0  0  0  0  0  0  0  0
    2.6230   -5.1920    0.2470 H   0  0  0  0  0  0  0  0  0  0  0  0
    2.7430   -4.3600    1.8530 H   0  0  0  0  0  0  0  0  0  0  0  0
   -0.8910   -5.0430    0.4920 H   0  0  0  0  0  0  0  0  0  0  0  0
    2.2500    2.8130    0.7400 C   0  0  0  0  0  0  0  0  0  0  0  0
    2.3930    1.4920    0.0150 C   0  0  0  0  0  0  0  0  0  0  0  0
    1.6320    1.6530   -1.2680 C   0  0  0  0  0  0  0  0  0  0  0  0
    1.8030    0.4240    0.9200 C   0  0  2  0  0  0  0  0  0  0  0  0
    1.8750   -0.8850    0.3520 N   0  0  0  0  0  0  0  0  0  0  0  0
    0.4420    0.7310    1.3210 C   0  0  0  0  0  0  0  0  0  0  0  0
    0.2750    1.8120    1.9940 O   0  0  0  0  0  0  0  0  0  0  0  0
    3.0010    3.5510    0.3180 H   0  0  0  0  0  0  0  0  0  0  0  0
    2.3950    2.7340    1.8390 H   0  0  0  0  0  0  0  0  0  0  0  0
    1.2680    3.2530    0.4910 H   0  0  0  0  0  0  0  0  0  0  0  0
    3.4590    1.3110   -0.0750 H   0  0  0  0  0  0  0  0  0  0  0  0
    1.5220    0.7120   -1.8390 H   0  0  0  0  0  0  0  0  0  0  0  0
    2.2190    2.3390   -1.9120 H   0  0  0  0  0  0  0  0  0  0  0  0
    0.6770    2.1590   -1.0660 H   0  0  0  0  0  0  0  0  0  0  0  0
    2.5200    0.4220    1.7760 H   0  0  0  0  0  0  0  0  0  0  0  0
    1.1210   -1.1760   -0.2910 H   0  0  0  0  0  0  0  0  0  0  0  0
   -0.7210   -0.0050    1.0610 N   0  0  0  0  0  0  0  0  0  0  0  0
   -2.0650    0.3950    1.5060 C   0  0  1  0  0  0  0  0  0  0  0  0
   -2.8810    0.8710    0.3830 C   0  0  0  0  0  0  0  0  0  0  0  0
   -4.2790    1.2240    0.7260 C   0  0  0  0  0  0  0  0  0  0  0  0
   -5.1650    0.0670    1.0400 C   0  0  0  0  0  0  0  0  0  0  0  0
   -4.7810   -1.0900    0.6520 O   0  0  0  0  0  0  0  0  0  0  0  0
   -2.6480   -0.6150    2.3360 C   0  0  0  0  0  0  0  0  0  0  0  0
   -2.1810   -1.8110    2.3040 O   0  0  0  0  0  0  0  0  0  0  0  0
   -6.3610    0.1520    1.7130 O   0  0  0  0  0  0  0  0  0  0  0  0
   -3.7070   -0.3960    3.2150 O   0  0  0  0  0  0  0  0  0  0  0  0
   -0.6920   -0.8870    0.5200 H   0  0  0  0  0  0  0  0  0  0  0  0
   -1.8360    1.3230    2.1600 H   0  0  0  0  0  0  0  0  0  0  0  0
   -2.4470    1.7480   -0.1600 H   0  0  0  0  0  0  0  0  0  0  0  0
   -2.9480    0.0880   -0.4330 H   0  0  0  0  0  0  0  0  0  0  0  0
   -4.7630    1.8790   -0.0570 H   0  0  0  0  0  0  0  0  0  0  0  0
   -4.3450    1.8760    1.6510 H   0  0  0  0  0  0  0  0  0  0  0  0
   -7.1430   -0.4710    1.5460 H   0  0  0  0  0  0  0  0  0  0  0  0
  2 11  1  6  0  0  0
  2  1  1  0  0  0  0
  2  6  1  0  0  0  0
  2  3  1  0  0  0  0
  3 13  1  0  0  0  0
  4  3  1  0  0  0  0
  4  5  2  0  0  0  0
  6  7  2  0  0  0  0
  8 14  1  0  0  0  0
  8  4  1  0  0  0  0
  9  1  1  0  0  0  0
 10  1  1  0  0  0  0
 12  3  1  0  0  0  0
 15 23  1  0  0  0  0
 16 15  1  0  0  0  0
 16 18  1  0  0  0  0
 17 28  1  0  0  0  0
 17 16  1  0  0  0  0
 18 20  1  0  0  0  0
 18 29  1  1  0  0  0
 19  6  1  0  0  0  0
 19 18  1  0  0  0  0
 20 21  2  0  0  0  0
 22 15  1  0  0  0  0
 24 15  1  0  0  0  0
 25 16  1  0  0  0  0
 26 17  1  0  0  0  0
 27 17  1  0  0  0  0
 30 19  1  0  0  0  0
 31 20  1  0  0  0  0
 31 32  1  0  0  0  0
 32 42  1  1  0  0  0
 32 37  1  0  0  0  0
 33 34  1  0  0  0  0
 33 32  1  0  0  0  0
 34 35  1  0  0  0  0
 34 46  1  0  0  0  0
 35 39  1  0  0  0  0
 36 35  2  0  0  0  0
 37 40  1  0  0  0  0
 38 37  2  0  0  0  0
 41 31  1  0  0  0  0
 43 33  1  0  0  0  0
 44 33  1  0  0  0  0
 45 34  1  0  0  0  0
 47 39  1  0  0  0  0
M  END
$$$$
