DVH.pdb
 OpenBabel07022418163D

 48 48  0  0  1  0  0  0  0  0999 V2000
    4.1400   -3.1060    2.5710 N   0  0  0  0  0  0  0  0  0  0  0  0
    3.3500   -2.6760    1.4620 C   0  0  1  0  0  0  0  0  0  0  0  0
    2.1100   -3.5390    1.4020 C   0  0  0  0  0  0  0  0  0  0  0  0
    1.3740   -3.3570    2.6900 C   0  0  0  0  0  0  0  0  0  0  0  0
    1.7870   -2.6000    3.5940 O   0  0  0  0  0  0  0  0  0  0  0  0
    2.9620   -1.2580    1.5260 C   0  0  0  0  0  0  0  0  0  0  0  0
    3.3570   -0.5940    2.5270 O   0  0  0  0  0  0  0  0  0  0  0  0
    0.1690   -4.0460    2.9260 O   0  0  0  0  0  0  0  0  0  0  0  0
    5.0650   -3.4630    2.2110 H   0  0  0  0  0  0  0  0  0  0  0  0
    3.7190   -3.9220    3.0950 H   0  0  0  0  0  0  0  0  0  0  0  0
    3.8830   -2.8300    0.4970 H   0  0  0  0  0  0  0  0  0  0  0  0
    1.4590   -3.0980    0.5960 H   0  0  0  0  0  0  0  0  0  0  0  0
    2.3400   -4.5980    1.2000 H   0  0  0  0  0  0  0  0  0  0  0  0
   -0.1960   -4.0830    3.8820 H   0  0  0  0  0  0  0  0  0  0  0  0
    1.8920    1.2500   -1.7840 C   0  0  0  0  0  0  0  0  0  0  0  0
    2.4130    1.6330   -0.4190 C   0  0  0  0  0  0  0  0  0  0  0  0
    1.9950    3.0610   -0.1500 C   0  0  0  0  0  0  0  0  0  0  0  0
    1.8580    0.7760    0.6880 C   0  0  2  0  0  0  0  0  0  0  0  0
    2.1790   -0.6180    0.5280 N   0  0  0  0  0  0  0  0  0  0  0  0
    0.3840    0.8990    0.7850 C   0  0  0  0  0  0  0  0  0  0  0  0
   -0.1550    2.0330    0.9340 O   0  0  0  0  0  0  0  0  0  0  0  0
    2.3360    0.2840   -2.1260 H   0  0  0  0  0  0  0  0  0  0  0  0
    0.7960    1.2500   -1.8290 H   0  0  0  0  0  0  0  0  0  0  0  0
    2.2470    2.0380   -2.4880 H   0  0  0  0  0  0  0  0  0  0  0  0
    3.5200    1.5900   -0.4420 H   0  0  0  0  0  0  0  0  0  0  0  0
    1.8470    3.2180    0.9520 H   0  0  0  0  0  0  0  0  0  0  0  0
    1.0310    3.2300   -0.6710 H   0  0  0  0  0  0  0  0  0  0  0  0
    2.7480    3.7870   -0.5460 H   0  0  0  0  0  0  0  0  0  0  0  0
    2.3040    1.1320    1.6340 H   0  0  0  0  0  0  0  0  0  0  0  0
    1.8620   -1.1860   -0.2940 H   0  0  0  0  0  0  0  0  0  0  0  0
   -0.4690   -0.2270    0.7150 N   0  0  0  0  0  0  0  0  0  0  0  0
   -1.9560   -0.0770    0.8150 C   0  0  1  0  0  0  0  0  0  0  0  0
   -2.5290   -0.7770   -0.3590 C   0  0  0  0  0  0  0  0  0  0  0  0
   -3.9900   -0.6360   -0.4530 C   0  0  0  0  0  0  0  0  0  0  0  0
   -4.8540    0.1270    0.2640 C   0  0  0  0  0  0  0  0  0  0  0  0
   -6.0930   -0.0530   -0.2640 N   0  0  0  0  0  0  0  0  0  0  0  0
   -5.9800   -0.9130   -1.2870 C   0  0  0  0  0  0  0  0  0  0  0  0
   -4.7090   -1.2770   -1.4150 N   0  0  0  0  0  0  0  0  0  0  0  0
   -2.3040   -0.7740    2.1010 C   0  0  0  0  0  0  0  0  0  0  0  0
   -3.4620   -0.9110    2.5080 O   0  0  0  0  0  0  0  0  0  0  0  0
   -1.2950   -1.3160    2.9240 O   0  0  0  0  0  0  0  0  0  0  0  0
   -0.0510   -1.1730    0.5930 H   0  0  0  0  0  0  0  0  0  0  0  0
   -2.1690    0.9720    0.9250 H   0  0  0  0  0  0  0  0  0  0  0  0
   -2.0810   -0.3560   -1.3100 H   0  0  0  0  0  0  0  0  0  0  0  0
   -2.2180   -1.8530   -0.3450 H   0  0  0  0  0  0  0  0  0  0  0  0
   -4.7020    0.8030    1.0870 H   0  0  0  0  0  0  0  0  0  0  0  0
   -6.9600    0.3940    0.0680 H   0  0  0  0  0  0  0  0  0  0  0  0
   -6.7980   -1.2640   -1.9190 H   0  0  0  0  0  0  0  0  0  0  0  0
  1 10  1  0  0  0  0
  2 11  1  6  0  0  0
  2  6  1  0  0  0  0
  2  1  1  0  0  0  0
  3  2  1  0  0  0  0
  3  4  1  0  0  0  0
  4  8  1  0  0  0  0
  4  5  2  0  0  0  0
  6  7  2  0  0  0  0
  8 14  1  0  0  0  0
  9  1  1  0  0  0  0
 12  3  1  0  0  0  0
 13  3  1  0  0  0  0
 15 16  1  0  0  0  0
 16 17  1  0  0  0  0
 16 18  1  0  0  0  0
 17 26  1  0  0  0  0
 18 20  1  0  0  0  0
 18 29  1  1  0  0  0
 19 18  1  0  0  0  0
 19  6  1  0  0  0  0
 20 21  2  0  0  0  0
 22 15  1  0  0  0  0
 23 15  1  0  0  0  0
 24 15  1  0  0  0  0
 25 16  1  0  0  0  0
 27 17  1  0  0  0  0
 28 17  1  0  0  0  0
 30 19  1  0  0  0  0
 31 20  1  0  0  0  0
 31 32  1  0  0  0  0
 32 43  1  1  0  0  0
 32 39  1  0  0  0  0
 33 45  1  0  0  0  0
 33 32  1  0  0  0  0
 34 33  1  0  0  0  0
 34 35  2  0  0  0  0
 35 46  1  0  0  0  0
 36 47  1  0  0  0  0
 36 35  1  0  0  0  0
 37 36  1  0  0  0  0
 38 37  2  0  0  0  0
 38 34  1  0  0  0  0
 39 40  2  0  0  0  0
 39 41  1  0  0  0  0
 42 31  1  0  0  0  0
 44 33  1  0  0  0  0
 48 37  1  0  0  0  0
M  END
$$$$
