DVL.pdb
 OpenBabel07022418163D

 50 49  0  0  1  0  0  0  0  0999 V2000
   -0.1820   -4.0880    0.3190 N   0  0  0  0  0  0  0  0  0  0  0  0
   -1.6110   -4.1120    0.5720 C   0  0  1  0  0  0  0  0  0  0  0  0
   -1.8510   -5.2510    1.5520 C   0  0  0  0  0  0  0  0  0  0  0  0
   -1.1290   -5.0620    2.8140 C   0  0  0  0  0  0  0  0  0  0  0  0
   -1.5830   -4.2670    3.6730 O   0  0  0  0  0  0  0  0  0  0  0  0
   -2.0270   -2.8460    1.2350 C   0  0  0  0  0  0  0  0  0  0  0  0
   -3.2040   -2.5940    1.5590 O   0  0  0  0  0  0  0  0  0  0  0  0
    0.0500   -5.7280    3.1120 O   0  0  0  0  0  0  0  0  0  0  0  0
    0.1280   -5.0910    0.1980 H   0  0  0  0  0  0  0  0  0  0  0  0
    0.0730   -3.5870   -0.5440 H   0  0  0  0  0  0  0  0  0  0  0  0
   -2.1260   -4.3090   -0.3660 H   0  0  0  0  0  0  0  0  0  0  0  0
   -1.4910   -6.1990    1.0810 H   0  0  0  0  0  0  0  0  0  0  0  0
   -2.9200   -5.3940    1.7600 H   0  0  0  0  0  0  0  0  0  0  0  0
    0.8110   -5.2190    3.5820 H   0  0  0  0  0  0  0  0  0  0  0  0
    0.7620   -0.5450    3.4720 C   0  0  0  0  0  0  0  0  0  0  0  0
   -0.7350   -0.4790    3.5200 C   0  0  0  0  0  0  0  0  0  0  0  0
   -1.1320    0.8180    4.1910 C   0  0  0  0  0  0  0  0  0  0  0  0
   -1.3790   -0.6060    2.1620 C   0  0  2  0  0  0  0  0  0  0  0  0
   -1.0510   -1.8600    1.5220 N   0  0  0  0  0  0  0  0  0  0  0  0
   -0.9780    0.5190    1.2610 C   0  0  0  0  0  0  0  0  0  0  0  0
   -1.1550    1.7190    1.5840 O   0  0  0  0  0  0  0  0  0  0  0  0
    1.2440    0.4140    3.2640 H   0  0  0  0  0  0  0  0  0  0  0  0
    1.1240   -1.3790    2.8170 H   0  0  0  0  0  0  0  0  0  0  0  0
    1.0990   -0.8440    4.5080 H   0  0  0  0  0  0  0  0  0  0  0  0
   -1.0810   -1.3080    4.1690 H   0  0  0  0  0  0  0  0  0  0  0  0
   -0.3750    1.6220    4.0530 H   0  0  0  0  0  0  0  0  0  0  0  0
   -2.0850    1.2230    3.7480 H   0  0  0  0  0  0  0  0  0  0  0  0
   -1.2720    0.6490    5.2890 H   0  0  0  0  0  0  0  0  0  0  0  0
   -2.4820   -0.6100    2.3420 H   0  0  0  0  0  0  0  0  0  0  0  0
   -0.0480   -2.0750    1.2450 H   0  0  0  0  0  0  0  0  0  0  0  0
    3.7400    2.0540   -1.3710 C   0  0  0  0  0  0  0  0  0  0  0  0
    2.2380    2.3900   -1.6620 C   0  0  0  0  0  0  0  0  0  0  0  0
    2.1400    2.1200   -3.1690 C   0  0  0  0  0  0  0  0  0  0  0  0
    1.4900    1.3750   -0.8780 C   0  0  0  0  0  0  0  0  0  0  0  0
    0.0010    1.4180   -0.8550 C   0  0  2  0  0  0  0  0  0  0  0  0
   -0.3820    0.2530    0.0070 N   0  0  0  0  0  0  0  0  0  0  0  0
   -0.7280    1.3840   -2.0980 C   0  0  0  0  0  0  0  0  0  0  0  0
   -1.4180    0.3780   -2.4920 O   0  0  0  0  0  0  0  0  0  0  0  0
   -0.7450    2.4540   -2.9710 O   0  0  0  0  0  0  0  0  0  0  0  0
    4.3840    2.7570   -1.9050 H   0  0  0  0  0  0  0  0  0  0  0  0
    3.9000    1.9690   -0.2970 H   0  0  0  0  0  0  0  0  0  0  0  0
    3.8810    1.0390   -1.8240 H   0  0  0  0  0  0  0  0  0  0  0  0
    2.0340    3.4290   -1.4150 H   0  0  0  0  0  0  0  0  0  0  0  0
    1.7220    3.0130   -3.6720 H   0  0  0  0  0  0  0  0  0  0  0  0
    3.1950    2.0360   -3.5640 H   0  0  0  0  0  0  0  0  0  0  0  0
    1.5650    1.2340   -3.4190 H   0  0  0  0  0  0  0  0  0  0  0  0
    1.8590    0.3630   -1.2700 H   0  0  0  0  0  0  0  0  0  0  0  0
    1.9190    1.3720    0.1650 H   0  0  0  0  0  0  0  0  0  0  0  0
   -0.2750    2.3680   -0.3040 H   0  0  0  0  0  0  0  0  0  0  0  0
   -0.1930   -0.7060   -0.3540 H   0  0  0  0  0  0  0  0  0  0  0  0
  1  2  1  0  0  0  0
  2 11  1  6  0  0  0
  2  6  1  0  0  0  0
  2  3  1  0  0  0  0
  3 13  1  0  0  0  0
  3  4  1  0  0  0  0
  4  8  1  0  0  0  0
  4  5  2  0  0  0  0
  6 19  1  0  0  0  0
  6  7  2  0  0  0  0
  8 14  1  0  0  0  0
  9  1  1  0  0  0  0
 10  1  1  0  0  0  0
 12  3  1  0  0  0  0
 15 16  1  0  0  0  0
 15 24  1  0  0  0  0
 16 25  1  0  0  0  0
 16 17  1  0  0  0  0
 17 28  1  0  0  0  0
 18 29  1  1  0  0  0
 18 16  1  0  0  0  0
 19 18  1  0  0  0  0
 20 21  2  0  0  0  0
 20 18  1  0  0  0  0
 22 15  1  0  0  0  0
 23 15  1  0  0  0  0
 26 17  1  0  0  0  0
 27 17  1  0  0  0  0
 30 19  1  0  0  0  0
 31 41  1  0  0  0  0
 32 43  1  0  0  0  0
 32 31  1  0  0  0  0
 32 34  1  0  0  0  0
 33 32  1  0  0  0  0
 34 35  1  0  0  0  0
 34 48  1  0  0  0  0
 35 49  1  1  0  0  0
 35 36  1  0  0  0  0
 36 20  1  0  0  0  0
 37 35  1  0  0  0  0
 38 37  1  0  0  0  0
 39 37  2  0  0  0  0
 40 31  1  0  0  0  0
 42 31  1  0  0  0  0
 44 33  1  0  0  0  0
 45 33  1  0  0  0  0
 46 33  1  0  0  0  0
 47 34  1  0  0  0  0
 50 36  1  0  0  0  0
M  END
$$$$
