DVM.pdb
 OpenBabel07022418163D

 48 47  0  0  1  0  0  0  0  0999 V2000
    3.8260   -3.0760    0.3500 N   0  0  0  0  0  0  0  0  0  0  0  0
    2.4050   -2.9310    0.1550 C   0  0  1  0  0  0  0  0  0  0  0  0
    1.6020   -3.2280    1.3700 C   0  0  0  0  0  0  0  0  0  0  0  0
    1.8890   -2.3870    2.5450 C   0  0  0  0  0  0  0  0  0  0  0  0
    1.2690   -2.6960    3.6040 O   0  0  0  0  0  0  0  0  0  0  0  0
    2.0620   -1.6790   -0.5460 C   0  0  0  0  0  0  0  0  0  0  0  0
    2.9780   -0.9330   -0.9530 O   0  0  0  0  0  0  0  0  0  0  0  0
    2.7500   -1.3230    2.5830 O   0  0  0  0  0  0  0  0  0  0  0  0
    4.0460   -3.8240    1.0370 H   0  0  0  0  0  0  0  0  0  0  0  0
    4.2210   -2.1440    0.6390 H   0  0  0  0  0  0  0  0  0  0  0  0
    2.1440   -3.7490   -0.5980 H   0  0  0  0  0  0  0  0  0  0  0  0
    1.7760   -4.2920    1.6960 H   0  0  0  0  0  0  0  0  0  0  0  0
    0.4980   -3.1550    1.1800 H   0  0  0  0  0  0  0  0  0  0  0  0
    3.1820   -0.9800    3.4340 H   0  0  0  0  0  0  0  0  0  0  0  0
   -1.6970   -1.2470   -2.2630 C   0  0  0  0  0  0  0  0  0  0  0  0
   -0.4800   -0.4570   -2.7090 C   0  0  0  0  0  0  0  0  0  0  0  0
    0.4090   -1.2780   -3.6200 C   0  0  0  0  0  0  0  0  0  0  0  0
    0.3110   -0.0970   -1.4650 C   0  0  2  0  0  0  0  0  0  0  0  0
    0.7180   -1.2940   -0.7760 N   0  0  0  0  0  0  0  0  0  0  0  0
   -0.5000    0.8370   -0.6470 C   0  0  0  0  0  0  0  0  0  0  0  0
   -0.9650    1.9100   -1.1450 O   0  0  0  0  0  0  0  0  0  0  0  0
   -1.7860   -1.2520   -1.1600 H   0  0  0  0  0  0  0  0  0  0  0  0
   -2.6250   -0.8280   -2.7410 H   0  0  0  0  0  0  0  0  0  0  0  0
   -1.5790   -2.2730   -2.6380 H   0  0  0  0  0  0  0  0  0  0  0  0
   -0.7950    0.4840   -3.1930 H   0  0  0  0  0  0  0  0  0  0  0  0
    0.0640   -2.3190   -3.5890 H   0  0  0  0  0  0  0  0  0  0  0  0
    1.4790   -1.1690   -3.2870 H   0  0  0  0  0  0  0  0  0  0  0  0
    0.3470   -0.8340   -4.6340 H   0  0  0  0  0  0  0  0  0  0  0  0
    1.2790    0.3950   -1.7840 H   0  0  0  0  0  0  0  0  0  0  0  0
   -0.0240   -1.9530   -0.4020 H   0  0  0  0  0  0  0  0  0  0  0  0
   -0.2150    0.0330    4.4770 C   0  0  0  0  0  0  0  0  0  0  0  0
   -1.9630   -0.1410    4.4560 S   0  0  0  0  0  0  0  0  0  0  0  0
   -2.8040   -0.2520    2.9110 C   0  0  0  0  0  0  0  0  0  0  0  0
   -2.8600    0.9430    2.0400 C   0  0  0  0  0  0  0  0  0  0  0  0
   -1.6140    1.5340    1.5230 C   0  0  2  0  0  0  0  0  0  0  0  0
   -0.8210    0.6310    0.7180 N   0  0  0  0  0  0  0  0  0  0  0  0
   -0.8280    2.3750    2.4400 C   0  0  0  0  0  0  0  0  0  0  0  0
    0.4200    2.3610    2.4150 O   0  0  0  0  0  0  0  0  0  0  0  0
   -1.4710    3.1920    3.3420 O   0  0  0  0  0  0  0  0  0  0  0  0
    0.0710    1.0480    4.8230 H   0  0  0  0  0  0  0  0  0  0  0  0
    0.3060   -0.1290    3.5130 H   0  0  0  0  0  0  0  0  0  0  0  0
    0.3190   -0.6540    5.1910 H   0  0  0  0  0  0  0  0  0  0  0  0
   -3.8950   -0.4840    3.1570 H   0  0  0  0  0  0  0  0  0  0  0  0
   -2.5330   -1.1940    2.3220 H   0  0  0  0  0  0  0  0  0  0  0  0
   -3.4620    1.7300    2.5660 H   0  0  0  0  0  0  0  0  0  0  0  0
   -3.5070    0.6840    1.1540 H   0  0  0  0  0  0  0  0  0  0  0  0
   -1.9900    2.3280    0.7460 H   0  0  0  0  0  0  0  0  0  0  0  0
   -0.4600   -0.2310    1.1660 H   0  0  0  0  0  0  0  0  0  0  0  0
  1 10  1  0  0  0  0
  1  9  1  0  0  0  0
  2 11  1  6  0  0  0
  2  1  1  0  0  0  0
  2  3  1  0  0  0  0
  3 12  1  0  0  0  0
  3  4  1  0  0  0  0
  4  8  1  0  0  0  0
  4  5  2  0  0  0  0
  6  2  1  0  0  0  0
  7  6  2  0  0  0  0
  8 14  1  0  0  0  0
 13  3  1  0  0  0  0
 15 22  1  0  0  0  0
 16 15  1  0  0  0  0
 16 18  1  0  0  0  0
 17 26  1  0  0  0  0
 17 27  1  0  0  0  0
 17 16  1  0  0  0  0
 18 29  1  6  0  0  0
 18 19  1  0  0  0  0
 18 20  1  0  0  0  0
 19  6  1  0  0  0  0
 19 30  1  0  0  0  0
 20 36  1  0  0  0  0
 21 20  2  0  0  0  0
 23 15  1  0  0  0  0
 24 15  1  0  0  0  0
 25 16  1  0  0  0  0
 28 17  1  0  0  0  0
 31 40  1  0  0  0  0
 31 42  1  0  0  0  0
 32 31  1  0  0  0  0
 33 43  1  0  0  0  0
 33 32  1  0  0  0  0
 34 45  1  0  0  0  0
 34 33  1  0  0  0  0
 35 47  1  6  0  0  0
 35 34  1  0  0  0  0
 35 37  1  0  0  0  0
 36 48  1  0  0  0  0
 36 35  1  0  0  0  0
 37 39  1  0  0  0  0
 38 37  2  0  0  0  0
 41 31  1  0  0  0  0
 44 33  1  0  0  0  0
 46 34  1  0  0  0  0
M  END
$$$$
