DVQ.pdb
 OpenBabel07022418163D

 48 47  0  0  1  0  0  0  0  0999 V2000
   -0.4640    2.0920    0.3800 N   0  0  0  0  0  0  0  0  0  0  0  0
    0.8330    2.4570    0.9230 C   0  0  1  0  0  0  0  0  0  0  0  0
    0.6460    2.9500    2.3230 C   0  0  0  0  0  0  0  0  0  0  0  0
    1.9980    3.3440    2.8420 C   0  0  0  0  0  0  0  0  0  0  0  0
    2.7540    2.5220    3.3710 O   0  0  0  0  0  0  0  0  0  0  0  0
    1.6800    1.1730    0.9950 C   0  0  0  0  0  0  0  0  0  0  0  0
    2.9110    1.2500    0.9220 O   0  0  0  0  0  0  0  0  0  0  0  0
    2.3940    4.6740    2.7110 O   0  0  0  0  0  0  0  0  0  0  0  0
   -1.1470    1.7420    1.0640 H   0  0  0  0  0  0  0  0  0  0  0  0
   -0.7890    2.7810   -0.3010 H   0  0  0  0  0  0  0  0  0  0  0  0
    1.3210    3.1580    0.2510 H   0  0  0  0  0  0  0  0  0  0  0  0
   -0.0370    3.7780    2.4430 H   0  0  0  0  0  0  0  0  0  0  0  0
    0.3320    2.1220    3.0170 H   0  0  0  0  0  0  0  0  0  0  0  0
    2.9480    5.1030    3.4490 H   0  0  0  0  0  0  0  0  0  0  0  0
    2.7230   -3.3070    2.0790 C   0  0  0  0  0  0  0  0  0  0  0  0
    2.4470   -1.8040    2.2180 C   0  0  0  0  0  0  0  0  0  0  0  0
    3.8650   -1.2310    1.8890 C   0  0  0  0  0  0  0  0  0  0  0  0
    1.4950   -1.3590    1.1670 C   0  0  2  0  0  0  0  0  0  0  0  0
    0.9930   -0.0410    1.1390 N   0  0  0  0  0  0  0  0  0  0  0  0
    0.5060   -2.3630    0.6890 C   0  0  0  0  0  0  0  0  0  0  0  0
    0.7150   -3.6160    0.8060 O   0  0  0  0  0  0  0  0  0  0  0  0
    1.9920   -3.8870    2.6350 H   0  0  0  0  0  0  0  0  0  0  0  0
    3.7240   -3.5350    2.5870 H   0  0  0  0  0  0  0  0  0  0  0  0
    2.8730   -3.5430    1.0210 H   0  0  0  0  0  0  0  0  0  0  0  0
    2.2000   -1.5950    3.2430 H   0  0  0  0  0  0  0  0  0  0  0  0
    4.5500   -2.1540    1.8150 H   0  0  0  0  0  0  0  0  0  0  0  0
    4.2690   -0.6100    2.6530 H   0  0  0  0  0  0  0  0  0  0  0  0
    3.8580   -0.9040    0.8360 H   0  0  0  0  0  0  0  0  0  0  0  0
    2.2480   -1.3240    0.2300 H   0  0  0  0  0  0  0  0  0  0  0  0
   -0.1030    0.0780    1.2640 H   0  0  0  0  0  0  0  0  0  0  0  0
   -4.1320    0.4490   -1.7070 N   0  0  0  0  0  0  0  0  0  0  0  0
   -3.8630   -0.9320   -1.4540 C   0  0  0  0  0  0  0  0  0  0  0  0
   -3.8350   -1.6660   -2.4610 O   0  0  0  0  0  0  0  0  0  0  0  0
   -3.6450   -1.4000   -0.1080 C   0  0  0  0  0  0  0  0  0  0  0  0
   -3.0660   -2.7330    0.1520 C   0  0  0  0  0  0  0  0  0  0  0  0
   -1.6940   -2.9960   -0.3990 C   0  0  2  0  0  0  0  0  0  0  0  0
   -0.7210   -2.0170    0.0710 N   0  0  0  0  0  0  0  0  0  0  0  0
   -1.6380   -3.2950   -1.8140 C   0  0  0  0  0  0  0  0  0  0  0  0
   -0.8870   -2.6560   -2.5860 O   0  0  0  0  0  0  0  0  0  0  0  0
   -2.4020   -4.2930   -2.3860 O   0  0  0  0  0  0  0  0  0  0  0  0
   -3.6920    0.9590   -2.5030 H   0  0  0  0  0  0  0  0  0  0  0  0
   -4.7750    0.9900   -1.0900 H   0  0  0  0  0  0  0  0  0  0  0  0
   -3.0340   -0.6540    0.4860 H   0  0  0  0  0  0  0  0  0  0  0  0
   -4.6320   -1.3820    0.4790 H   0  0  0  0  0  0  0  0  0  0  0  0
   -3.0670   -2.9800    1.2250 H   0  0  0  0  0  0  0  0  0  0  0  0
   -3.7320   -3.5040   -0.3340 H   0  0  0  0  0  0  0  0  0  0  0  0
   -1.3630   -3.9640    0.1280 H   0  0  0  0  0  0  0  0  0  0  0  0
   -0.9400   -1.0120   -0.0750 H   0  0  0  0  0  0  0  0  0  0  0  0
  1  2  1  0  0  0  0
  1  9  1  0  0  0  0
  2 11  1  6  0  0  0
  2  6  1  0  0  0  0
  2  3  1  0  0  0  0
  3 12  1  0  0  0  0
  3  4  1  0  0  0  0
  3 13  1  0  0  0  0
  4  5  2  0  0  0  0
  6 19  1  0  0  0  0
  7  6  2  0  0  0  0
  8  4  1  0  0  0  0
  8 14  1  0  0  0  0
 10  1  1  0  0  0  0
 15 16  1  0  0  0  0
 15 23  1  0  0  0  0
 15 22  1  0  0  0  0
 16 25  1  0  0  0  0
 17 16  1  0  0  0  0
 17 27  1  0  0  0  0
 18 29  1  6  0  0  0
 18 16  1  0  0  0  0
 19 18  1  0  0  0  0
 19 30  1  0  0  0  0
 20 21  2  0  0  0  0
 20 18  1  0  0  0  0
 24 15  1  0  0  0  0
 26 17  1  0  0  0  0
 28 17  1  0  0  0  0
 31 32  1  0  0  0  0
 31 42  1  0  0  0  0
 32 34  1  0  0  0  0
 33 32  2  0  0  0  0
 34 35  1  0  0  0  0
 34 44  1  0  0  0  0
 34 43  1  0  0  0  0
 35 45  1  0  0  0  0
 36 37  1  0  0  0  0
 36 47  1  1  0  0  0
 36 35  1  0  0  0  0
 37 20  1  0  0  0  0
 38 36  1  0  0  0  0
 39 38  2  0  0  0  0
 40 38  1  0  0  0  0
 41 31  1  0  0  0  0
 46 35  1  0  0  0  0
 48 37  1  0  0  0  0
M  END
$$$$
