DVV.pdb
 OpenBabel07022418163D

 47 46  0  0  1  0  0  0  0  0999 V2000
    0.5010   -5.2690    2.0150 N   0  0  0  0  0  0  0  0  0  0  0  0
    0.9620   -3.8690    1.9790 C   0  0  1  0  0  0  0  0  0  0  0  0
    2.0980   -3.7770    1.0420 C   0  0  0  0  0  0  0  0  0  0  0  0
    2.6860   -2.4370    0.9070 C   0  0  0  0  0  0  0  0  0  0  0  0
    2.5620   -1.7880   -0.1550 O   0  0  0  0  0  0  0  0  0  0  0  0
   -0.1640   -2.9570    1.8390 C   0  0  0  0  0  0  0  0  0  0  0  0
   -1.3280   -3.5060    1.7960 O   0  0  0  0  0  0  0  0  0  0  0  0
    3.3930   -1.8640    1.9530 O   0  0  0  0  0  0  0  0  0  0  0  0
    0.0170   -5.4590    2.9170 H   0  0  0  0  0  0  0  0  0  0  0  0
   -0.0410   -5.4990    1.1720 H   0  0  0  0  0  0  0  0  0  0  0  0
    1.3930   -3.6990    3.0200 H   0  0  0  0  0  0  0  0  0  0  0  0
    2.9270   -4.4320    1.4610 H   0  0  0  0  0  0  0  0  0  0  0  0
    1.8910   -4.2440    0.0420 H   0  0  0  0  0  0  0  0  0  0  0  0
    3.4750   -0.8520    1.9680 H   0  0  0  0  0  0  0  0  0  0  0  0
   -2.5790    1.0160    2.9180 C   0  0  0  0  0  0  0  0  0  0  0  0
   -1.3760    0.1320    2.8970 C   0  0  0  0  0  0  0  0  0  0  0  0
   -1.3320   -0.7320    4.1540 C   0  0  0  0  0  0  0  0  0  0  0  0
   -1.3370   -0.7500    1.6420 C   0  0  2  0  0  0  0  0  0  0  0  0
   -0.1400   -1.5430    1.7500 N   0  0  0  0  0  0  0  0  0  0  0  0
   -1.4250    0.1320    0.4680 C   0  0  0  0  0  0  0  0  0  0  0  0
   -2.4590    0.8880    0.3340 O   0  0  0  0  0  0  0  0  0  0  0  0
   -2.7580    1.3320    3.9850 H   0  0  0  0  0  0  0  0  0  0  0  0
   -3.4800    0.5520    2.5050 H   0  0  0  0  0  0  0  0  0  0  0  0
   -2.3640    1.9820    2.3950 H   0  0  0  0  0  0  0  0  0  0  0  0
   -0.4190    0.6900    2.8860 H   0  0  0  0  0  0  0  0  0  0  0  0
   -2.2100   -1.3740    4.1600 H   0  0  0  0  0  0  0  0  0  0  0  0
   -1.3930    0.0020    5.0030 H   0  0  0  0  0  0  0  0  0  0  0  0
   -0.3690   -1.2570    4.2490 H   0  0  0  0  0  0  0  0  0  0  0  0
   -2.2370   -1.4210    1.7040 H   0  0  0  0  0  0  0  0  0  0  0  0
    0.7780   -1.0680    1.7690 H   0  0  0  0  0  0  0  0  0  0  0  0
    0.5200    2.9730   -0.4510 C   0  0  0  0  0  0  0  0  0  0  0  0
    0.5120    2.1410   -1.7130 C   0  0  0  0  0  0  0  0  0  0  0  0
    1.7980    1.3280   -1.7090 C   0  0  0  0  0  0  0  0  0  0  0  0
   -0.6200    1.1420   -1.6940 C   0  0  2  0  0  0  0  0  0  0  0  0
   -0.4790    0.2520   -0.5600 N   0  0  0  0  0  0  0  0  0  0  0  0
   -0.7270    0.3970   -2.9710 C   0  0  0  0  0  0  0  0  0  0  0  0
   -0.6730   -0.8630   -2.9120 O   0  0  0  0  0  0  0  0  0  0  0  0
   -0.8780    0.9760   -4.1980 O   0  0  0  0  0  0  0  0  0  0  0  0
   -0.3540    2.6560    0.1660 H   0  0  0  0  0  0  0  0  0  0  0  0
    0.4670    4.0580   -0.6820 H   0  0  0  0  0  0  0  0  0  0  0  0
    1.4220    2.7730    0.1850 H   0  0  0  0  0  0  0  0  0  0  0  0
    0.4640    2.8100   -2.5960 H   0  0  0  0  0  0  0  0  0  0  0  0
    2.0250    1.1080   -0.6460 H   0  0  0  0  0  0  0  0  0  0  0  0
    1.6940    0.4040   -2.3150 H   0  0  0  0  0  0  0  0  0  0  0  0
    2.6420    1.9550   -2.0860 H   0  0  0  0  0  0  0  0  0  0  0  0
   -1.5620    1.7100   -1.5690 H   0  0  0  0  0  0  0  0  0  0  0  0
    0.3710   -0.3390   -0.5000 H   0  0  0  0  0  0  0  0  0  0  0  0
  1  9  1  0  0  0  0
  2  1  1  0  0  0  0
  2 11  1  1  0  0  0
  3 12  1  0  0  0  0
  3  2  1  0  0  0  0
  4  3  1  0  0  0  0
  4  8  1  0  0  0  0
  5  4  2  0  0  0  0
  6  2  1  0  0  0  0
  7  6  2  0  0  0  0
  8 14  1  0  0  0  0
 10  1  1  0  0  0  0
 13  3  1  0  0  0  0
 15 22  1  0  0  0  0
 16 15  1  0  0  0  0
 16 17  1  0  0  0  0
 17 26  1  0  0  0  0
 17 28  1  0  0  0  0
 17 27  1  0  0  0  0
 18 29  1  1  0  0  0
 18 19  1  0  0  0  0
 18 16  1  0  0  0  0
 19 30  1  0  0  0  0
 19  6  1  0  0  0  0
 20 18  1  0  0  0  0
 21 20  2  0  0  0  0
 23 15  1  0  0  0  0
 24 15  1  0  0  0  0
 25 16  1  0  0  0  0
 31 39  1  0  0  0  0
 31 41  1  0  0  0  0
 32 33  1  0  0  0  0
 32 34  1  0  0  0  0
 32 31  1  0  0  0  0
 33 43  1  0  0  0  0
 34 46  1  1  0  0  0
 34 35  1  0  0  0  0
 35 47  1  0  0  0  0
 35 20  1  0  0  0  0
 36 37  1  0  0  0  0
 36 34  1  0  0  0  0
 38 36  2  0  0  0  0
 40 31  1  0  0  0  0
 42 32  1  0  0  0  0
 44 33  1  0  0  0  0
 45 33  1  0  0  0  0
M  END
$$$$
