DWD.pdb
 OpenBabel07022418163D

 52 53  0  0  1  0  0  0  0  0999 V2000
    3.8130    0.8660    0.1900 N   0  0  0  0  0  0  0  0  0  0  0  0
    4.1990   -0.5180    0.2820 C   0  0  1  0  0  0  0  0  0  0  0  0
    5.3520   -0.6810    1.2230 C   0  0  0  0  0  0  0  0  0  0  0  0
    5.0940   -0.2470    2.5970 C   0  0  0  0  0  0  0  0  0  0  0  0
    5.1540    0.9740    2.8820 O   0  0  0  0  0  0  0  0  0  0  0  0
    3.0370   -1.3880    0.6320 C   0  0  0  0  0  0  0  0  0  0  0  0
    3.1530   -2.6100    0.8850 O   0  0  0  0  0  0  0  0  0  0  0  0
    4.7760   -1.1220    3.6380 O   0  0  0  0  0  0  0  0  0  0  0  0
    4.6700    1.3950   -0.1340 H   0  0  0  0  0  0  0  0  0  0  0  0
    3.5730    1.2620    1.1360 H   0  0  0  0  0  0  0  0  0  0  0  0
    4.5450   -0.8170   -0.7420 H   0  0  0  0  0  0  0  0  0  0  0  0
    5.7700   -1.7030    1.1380 H   0  0  0  0  0  0  0  0  0  0  0  0
    6.1720   -0.0210    0.8060 H   0  0  0  0  0  0  0  0  0  0  0  0
    5.1540   -0.9990    4.5690 H   0  0  0  0  0  0  0  0  0  0  0  0
    1.7560   -0.7910    0.6730 N   0  0  0  0  0  0  0  0  0  0  0  0
    0.5310   -1.4820    0.9950 C   0  0  1  0  0  0  0  0  0  0  0  0
   -0.1100   -0.9690    2.2350 C   0  0  0  0  0  0  0  0  0  0  0  0
   -0.4430    0.4410    2.2820 C   0  0  0  0  0  0  0  0  0  0  0  0
    0.3350    1.3930    2.9400 C   0  0  0  0  0  0  0  0  0  0  0  0
   -0.2260    2.5960    2.7880 N   0  0  0  0  0  0  0  0  0  0  0  0
   -1.3490    2.4980    2.0570 C   0  0  0  0  0  0  0  0  0  0  0  0
   -2.2490    3.4600    1.6530 C   0  0  0  0  0  0  0  0  0  0  0  0
   -3.3390    3.0900    0.9020 C   0  0  0  0  0  0  0  0  0  0  0  0
   -3.4840    1.7590    0.5840 C   0  0  0  0  0  0  0  0  0  0  0  0
   -2.5880    0.8210    0.9900 C   0  0  0  0  0  0  0  0  0  0  0  0
   -1.4750    1.1470    1.7470 C   0  0  0  0  0  0  0  0  0  0  0  0
   -0.4070   -1.6930   -0.0850 C   0  0  0  0  0  0  0  0  0  0  0  0
   -0.1930   -1.0820   -1.1840 O   0  0  0  0  0  0  0  0  0  0  0  0
    1.6830    0.2250    0.4550 H   0  0  0  0  0  0  0  0  0  0  0  0
    0.8900   -2.5380    1.2750 H   0  0  0  0  0  0  0  0  0  0  0  0
   -1.0180   -1.6290    2.4060 H   0  0  0  0  0  0  0  0  0  0  0  0
    0.5620   -1.2740    3.0950 H   0  0  0  0  0  0  0  0  0  0  0  0
    1.2380    1.1300    3.4690 H   0  0  0  0  0  0  0  0  0  0  0  0
    0.2040    3.4660    3.2090 H   0  0  0  0  0  0  0  0  0  0  0  0
   -2.1320    4.5110    1.9050 H   0  0  0  0  0  0  0  0  0  0  0  0
   -4.0830    3.8170    0.5570 H   0  0  0  0  0  0  0  0  0  0  0  0
   -4.3330    1.4210   -0.0090 H   0  0  0  0  0  0  0  0  0  0  0  0
   -2.7140   -0.2030    0.7430 H   0  0  0  0  0  0  0  0  0  0  0  0
   -1.5490   -2.5530    0.0220 N   0  0  0  0  0  0  0  0  0  0  0  0
   -2.3940   -2.6660   -1.1660 C   0  0  1  0  0  0  0  0  0  0  0  0
   -2.1560   -4.0360   -1.8110 C   0  0  0  0  0  0  0  0  0  0  0  0
   -2.9800   -4.1280   -3.0250 C   0  0  0  0  0  0  0  0  0  0  0  0
   -3.2730   -5.2270   -3.5740 O   0  0  0  0  0  0  0  0  0  0  0  0
   -3.7830   -2.6010   -0.7050 C   0  0  0  0  0  0  0  0  0  0  0  0
   -4.0550   -2.5290    0.5270 O   0  0  0  0  0  0  0  0  0  0  0  0
   -3.4680   -2.9810   -3.6170 O   0  0  0  0  0  0  0  0  0  0  0  0
   -4.9050   -2.6120   -1.5460 O   0  0  0  0  0  0  0  0  0  0  0  0
   -1.7470   -3.0550    0.8960 H   0  0  0  0  0  0  0  0  0  0  0  0
   -2.1730   -1.8910   -1.8920 H   0  0  0  0  0  0  0  0  0  0  0  0
   -2.5240   -4.8290   -1.1030 H   0  0  0  0  0  0  0  0  0  0  0  0
   -1.0870   -4.2240   -1.9940 H   0  0  0  0  0  0  0  0  0  0  0  0
   -4.1460   -2.9700   -4.3580 H   0  0  0  0  0  0  0  0  0  0  0  0
  1  2  1  0  0  0  0
  1 10  1  0  0  0  0
  2 11  1  6  0  0  0
  2  6  1  0  0  0  0
  2  3  1  0  0  0  0
  3  4  1  0  0  0  0
  4  5  2  0  0  0  0
  4  8  1  0  0  0  0
  6 15  1  0  0  0  0
  6  7  2  0  0  0  0
  8 14  1  0  0  0  0
  9  1  1  0  0  0  0
 12  3  1  0  0  0  0
 13  3  1  0  0  0  0
 15 16  1  0  0  0  0
 16 30  1  1  0  0  0
 16 17  1  0  0  0  0
 17 18  1  0  0  0  0
 17 31  1  0  0  0  0
 17 32  1  0  0  0  0
 18 19  2  0  0  0  0
 19 33  1  0  0  0  0
 20 19  1  0  0  0  0
 20 34  1  0  0  0  0
 21 20  1  0  0  0  0
 22 35  1  0  0  0  0
 22 21  2  0  0  0  0
 23 22  1  0  0  0  0
 24 23  2  0  0  0  0
 24 25  1  0  0  0  0
 25 26  2  0  0  0  0
 26 21  1  0  0  0  0
 26 18  1  0  0  0  0
 27 39  1  0  0  0  0
 27 16  1  0  0  0  0
 28 27  2  0  0  0  0
 29 15  1  0  0  0  0
 36 23  1  0  0  0  0
 37 24  1  0  0  0  0
 38 25  1  0  0  0  0
 39 48  1  0  0  0  0
 40 49  1  6  0  0  0
 40 44  1  0  0  0  0
 40 39  1  0  0  0  0
 41 40  1  0  0  0  0
 41 50  1  0  0  0  0
 42 41  1  0  0  0  0
 43 42  2  0  0  0  0
 44 45  1  0  0  0  0
 46 42  1  0  0  0  0
 47 44  2  0  0  0  0
 51 41  1  0  0  0  0
 52 46  1  0  0  0  0
M  END
$$$$
