DWE.pdb
 OpenBabel07022418163D

 55 56  0  0  1  0  0  0  0  0999 V2000
    4.1730   -0.3050    2.3390 N   0  0  0  0  0  0  0  0  0  0  0  0
    3.1060   -0.7150    3.1970 C   0  0  1  0  0  0  0  0  0  0  0  0
    2.9450    0.2360    4.3460 C   0  0  0  0  0  0  0  0  0  0  0  0
    2.6390    1.6200    3.9700 C   0  0  0  0  0  0  0  0  0  0  0  0
    3.3060    2.3170    3.1700 O   0  0  0  0  0  0  0  0  0  0  0  0
    1.8500   -0.8380    2.4040 C   0  0  0  0  0  0  0  0  0  0  0  0
    0.7400   -1.1310    2.9550 O   0  0  0  0  0  0  0  0  0  0  0  0
    1.5010    2.2320    4.5430 O   0  0  0  0  0  0  0  0  0  0  0  0
    3.9950    0.5310    1.7580 H   0  0  0  0  0  0  0  0  0  0  0  0
    4.6010   -1.0950    1.8020 H   0  0  0  0  0  0  0  0  0  0  0  0
    3.4120   -1.7290    3.5940 H   0  0  0  0  0  0  0  0  0  0  0  0
    2.1350   -0.1650    4.9920 H   0  0  0  0  0  0  0  0  0  0  0  0
    3.8630    0.2410    4.9890 H   0  0  0  0  0  0  0  0  0  0  0  0
    1.3390    3.2120    4.5610 H   0  0  0  0  0  0  0  0  0  0  0  0
    1.7850   -0.6480    1.0070 N   0  0  0  0  0  0  0  0  0  0  0  0
    0.6080   -0.7600    0.2050 C   0  0  1  0  0  0  0  0  0  0  0  0
    0.3580    0.5690   -0.4680 C   0  0  0  0  0  0  0  0  0  0  0  0
    0.1610    1.6470    0.5310 C   0  0  0  0  0  0  0  0  0  0  0  0
    1.0120    2.6540    0.9120 C   0  0  0  0  0  0  0  0  0  0  0  0
    0.4040    3.3980    1.8360 N   0  0  0  0  0  0  0  0  0  0  0  0
   -0.8420    2.9240    2.0970 C   0  0  0  0  0  0  0  0  0  0  0  0
   -1.8330    3.3560    2.9690 C   0  0  0  0  0  0  0  0  0  0  0  0
   -3.0240    2.6640    3.0250 C   0  0  0  0  0  0  0  0  0  0  0  0
   -3.1920    1.5550    2.2040 C   0  0  0  0  0  0  0  0  0  0  0  0
   -2.2030    1.1340    1.3420 C   0  0  0  0  0  0  0  0  0  0  0  0
   -0.9970    1.8280    1.2820 C   0  0  0  0  0  0  0  0  0  0  0  0
    0.5810   -1.8850   -0.7200 C   0  0  0  0  0  0  0  0  0  0  0  0
    1.5520   -2.6700   -0.7880 O   0  0  0  0  0  0  0  0  0  0  0  0
    2.6700   -0.4030    0.5110 H   0  0  0  0  0  0  0  0  0  0  0  0
   -0.2630   -0.9270    0.9120 H   0  0  0  0  0  0  0  0  0  0  0  0
   -0.5690    0.5330   -1.0800 H   0  0  0  0  0  0  0  0  0  0  0  0
    1.2650    0.8090   -1.0660 H   0  0  0  0  0  0  0  0  0  0  0  0
    2.0040    2.8070    0.5210 H   0  0  0  0  0  0  0  0  0  0  0  0
    0.8270    4.2410    2.3050 H   0  0  0  0  0  0  0  0  0  0  0  0
   -1.6650    4.2260    3.5910 H   0  0  0  0  0  0  0  0  0  0  0  0
   -3.8220    2.9800    3.7000 H   0  0  0  0  0  0  0  0  0  0  0  0
   -4.1330    0.9930    2.2340 H   0  0  0  0  0  0  0  0  0  0  0  0
   -2.3020    0.2790    0.6940 H   0  0  0  0  0  0  0  0  0  0  0  0
   -0.5270   -2.1020   -1.5440 N   0  0  0  0  0  0  0  0  0  0  0  0
   -0.6640   -3.1840   -2.5060 C   0  0  1  0  0  0  0  0  0  0  0  0
   -1.8600   -4.0290   -2.2310 C   0  0  0  0  0  0  0  0  0  0  0  0
   -2.0770   -5.1780   -3.1690 C   0  0  0  0  0  0  0  0  0  0  0  0
   -3.3070   -5.9620   -2.7600 C   0  0  0  0  0  0  0  0  0  0  0  0
   -3.9510   -5.5640   -1.7770 O   0  0  0  0  0  0  0  0  0  0  0  0
   -0.7710   -2.5650   -3.8330 C   0  0  0  0  0  0  0  0  0  0  0  0
   -0.7920   -1.3160   -3.9370 O   0  0  0  0  0  0  0  0  0  0  0  0
   -3.7030   -7.0770   -3.4500 O   0  0  0  0  0  0  0  0  0  0  0  0
   -0.8480   -3.2870   -4.9980 O   0  0  0  0  0  0  0  0  0  0  0  0
   -1.3370   -1.4360   -1.4760 H   0  0  0  0  0  0  0  0  0  0  0  0
    0.2830   -3.7590   -2.4430 H   0  0  0  0  0  0  0  0  0  0  0  0
   -2.8030   -3.4520   -2.1900 H   0  0  0  0  0  0  0  0  0  0  0  0
   -1.7030   -4.4830   -1.2070 H   0  0  0  0  0  0  0  0  0  0  0  0
   -1.2350   -5.9270   -3.1200 H   0  0  0  0  0  0  0  0  0  0  0  0
   -2.1920   -4.9130   -4.2260 H   0  0  0  0  0  0  0  0  0  0  0  0
   -4.6770   -7.3610   -3.4930 H   0  0  0  0  0  0  0  0  0  0  0  0
  1  2  1  0  0  0  0
  2 11  1  1  0  0  0
  2  3  1  0  0  0  0
  3 13  1  0  0  0  0
  3 12  1  0  0  0  0
  4  3  1  0  0  0  0
  4  8  1  0  0  0  0
  5  4  2  0  0  0  0
  6  7  2  0  0  0  0
  6  2  1  0  0  0  0
  8 14  1  0  0  0  0
  9  1  1  0  0  0  0
 10  1  1  0  0  0  0
 15  6  1  0  0  0  0
 16 30  1  1  0  0  0
 16 15  1  0  0  0  0
 17 16  1  0  0  0  0
 17 18  1  0  0  0  0
 18 19  2  0  0  0  0
 18 26  1  0  0  0  0
 19 20  1  0  0  0  0
 20 21  1  0  0  0  0
 20 34  1  0  0  0  0
 21 22  1  0  0  0  0
 22 23  2  0  0  0  0
 22 35  1  0  0  0  0
 23 36  1  0  0  0  0
 24 37  1  0  0  0  0
 24 23  1  0  0  0  0
 25 24  2  0  0  0  0
 26 25  1  0  0  0  0
 26 21  2  0  0  0  0
 27 16  1  0  0  0  0
 28 27  2  0  0  0  0
 29 15  1  0  0  0  0
 31 17  1  0  0  0  0
 32 17  1  0  0  0  0
 33 19  1  0  0  0  0
 38 25  1  0  0  0  0
 39 49  1  0  0  0  0
 39 27  1  0  0  0  0
 40 50  1  1  0  0  0
 40 41  1  0  0  0  0
 40 39  1  0  0  0  0
 41 51  1  0  0  0  0
 41 52  1  0  0  0  0
 42 53  1  0  0  0  0
 42 43  1  0  0  0  0
 42 41  1  0  0  0  0
 43 44  2  0  0  0  0
 45 40  1  0  0  0  0
 46 45  1  0  0  0  0
 47 43  1  0  0  0  0
 48 45  2  0  0  0  0
 54 42  1  0  0  0  0
 55 47  1  0  0  0  0
M  END
$$$$
