DWF.pdb
 OpenBabel07022418163D

 59 61  0  0  1  0  0  0  0  0999 V2000
    4.1090    0.7770    1.3810 N   0  0  0  0  0  0  0  0  0  0  0  0
    3.2680    0.0530    2.2900 C   0  0  1  0  0  0  0  0  0  0  0  0
    3.2090    0.6070    3.6730 C   0  0  0  0  0  0  0  0  0  0  0  0
    2.7200    1.9780    3.7940 C   0  0  0  0  0  0  0  0  0  0  0  0
    2.3640    2.7190    2.8460 O   0  0  0  0  0  0  0  0  0  0  0  0
    1.9290   -0.2670    1.7070 C   0  0  0  0  0  0  0  0  0  0  0  0
    1.0660   -0.8720    2.3950 O   0  0  0  0  0  0  0  0  0  0  0  0
    2.6350    2.5220    5.0700 O   0  0  0  0  0  0  0  0  0  0  0  0
    4.2560    1.7540    1.7790 H   0  0  0  0  0  0  0  0  0  0  0  0
    5.0710    0.3810    1.2860 H   0  0  0  0  0  0  0  0  0  0  0  0
    3.7820   -0.9580    2.4060 H   0  0  0  0  0  0  0  0  0  0  0  0
    2.4920   -0.0480    4.2450 H   0  0  0  0  0  0  0  0  0  0  0  0
    4.1910    0.4740    4.1630 H   0  0  0  0  0  0  0  0  0  0  0  0
    2.0960    3.3640    5.2450 H   0  0  0  0  0  0  0  0  0  0  0  0
    1.5460    0.0740    0.3810 N   0  0  0  0  0  0  0  0  0  0  0  0
    0.2730   -0.2280   -0.1970 C   0  0  1  0  0  0  0  0  0  0  0  0
   -0.4830    1.0150   -0.5820 C   0  0  0  0  0  0  0  0  0  0  0  0
   -0.7690    1.9230    0.5480 C   0  0  0  0  0  0  0  0  0  0  0  0
   -0.1990    3.1150    0.9190 C   0  0  0  0  0  0  0  0  0  0  0  0
   -0.7950    3.5930    2.0330 N   0  0  0  0  0  0  0  0  0  0  0  0
   -1.7710    2.7150    2.4120 C   0  0  0  0  0  0  0  0  0  0  0  0
   -2.6720    2.6990    3.4530 C   0  0  0  0  0  0  0  0  0  0  0  0
   -3.5610    1.6540    3.5850 C   0  0  0  0  0  0  0  0  0  0  0  0
   -3.5820    0.6030    2.6930 C   0  0  0  0  0  0  0  0  0  0  0  0
   -2.6640    0.6460    1.6570 C   0  0  0  0  0  0  0  0  0  0  0  0
   -1.7640    1.6790    1.5020 C   0  0  0  0  0  0  0  0  0  0  0  0
    0.3660   -1.1920   -1.3220 C   0  0  0  0  0  0  0  0  0  0  0  0
    1.5150   -1.6200   -1.6310 O   0  0  0  0  0  0  0  0  0  0  0  0
    2.2470    0.5790   -0.2040 H   0  0  0  0  0  0  0  0  0  0  0  0
   -0.3270   -0.7330    0.6160 H   0  0  0  0  0  0  0  0  0  0  0  0
   -1.4880    0.7400   -1.0140 H   0  0  0  0  0  0  0  0  0  0  0  0
    0.0740    1.6040   -1.3650 H   0  0  0  0  0  0  0  0  0  0  0  0
    0.6140    3.5930    0.3820 H   0  0  0  0  0  0  0  0  0  0  0  0
   -0.6040    4.4630    2.5670 H   0  0  0  0  0  0  0  0  0  0  0  0
   -2.6560    3.5300    4.1590 H   0  0  0  0  0  0  0  0  0  0  0  0
   -4.2710    1.6500    4.4130 H   0  0  0  0  0  0  0  0  0  0  0  0
   -4.2730   -0.2300    2.7780 H   0  0  0  0  0  0  0  0  0  0  0  0
   -2.6350   -0.1650    0.9140 H   0  0  0  0  0  0  0  0  0  0  0  0
   -0.7160   -1.6670   -2.0690 N   0  0  0  0  0  0  0  0  0  0  0  0
   -0.6760   -2.5890   -3.1530 C   0  0  1  0  0  0  0  0  0  0  0  0
   -1.4500   -3.8310   -2.9960 C   0  0  0  0  0  0  0  0  0  0  0  0
   -1.0320   -4.6640   -1.8330 C   0  0  0  0  0  0  0  0  0  0  0  0
   -0.0550   -5.6020   -2.0320 C   0  0  0  0  0  0  0  0  0  0  0  0
    0.3510   -6.3870   -0.9770 C   0  0  0  0  0  0  0  0  0  0  0  0
   -0.1790   -6.2820    0.2920 C   0  0  0  0  0  0  0  0  0  0  0  0
   -1.1640   -5.3190    0.4410 C   0  0  0  0  0  0  0  0  0  0  0  0
   -1.5920   -4.5200   -0.5900 C   0  0  0  0  0  0  0  0  0  0  0  0
   -1.0900   -1.9270   -4.4190 C   0  0  0  0  0  0  0  0  0  0  0  0
   -1.4210   -0.7050   -4.4480 O   0  0  0  0  0  0  0  0  0  0  0  0
   -1.1320   -2.6160   -5.6190 O   0  0  0  0  0  0  0  0  0  0  0  0
   -1.6790   -1.3000   -1.8000 H   0  0  0  0  0  0  0  0  0  0  0  0
    0.4020   -2.8710   -3.3050 H   0  0  0  0  0  0  0  0  0  0  0  0
   -2.5600   -3.6380   -2.9510 H   0  0  0  0  0  0  0  0  0  0  0  0
   -1.3050   -4.4580   -3.8970 H   0  0  0  0  0  0  0  0  0  0  0  0
    0.4010   -5.7240   -3.0320 H   0  0  0  0  0  0  0  0  0  0  0  0
    1.1290   -7.1260   -1.1560 H   0  0  0  0  0  0  0  0  0  0  0  0
    0.1550   -6.9140    1.1210 H   0  0  0  0  0  0  0  0  0  0  0  0
   -1.5890   -5.2340    1.4550 H   0  0  0  0  0  0  0  0  0  0  0  0
   -2.3630   -3.7900   -0.4070 H   0  0  0  0  0  0  0  0  0  0  0  0
  1  9  1  0  0  0  0
  1  2  1  0  0  0  0
  2 11  1  1  0  0  0
  2  3  1  0  0  0  0
  3  4  1  0  0  0  0
  3 13  1  0  0  0  0
  3 12  1  0  0  0  0
  4  8  1  0  0  0  0
  5  4  2  0  0  0  0
  6  2  1  0  0  0  0
  6  7  2  0  0  0  0
  8 14  1  0  0  0  0
 10  1  1  0  0  0  0
 15  6  1  0  0  0  0
 16 15  1  0  0  0  0
 16 30  1  1  0  0  0
 17 16  1  0  0  0  0
 17 18  1  0  0  0  0
 18 19  2  0  0  0  0
 18 26  1  0  0  0  0
 19 20  1  0  0  0  0
 20 21  1  0  0  0  0
 20 34  1  0  0  0  0
 21 22  1  0  0  0  0
 22 23  2  0  0  0  0
 22 35  1  0  0  0  0
 23 36  1  0  0  0  0
 24 37  1  0  0  0  0
 24 23  1  0  0  0  0
 25 24  2  0  0  0  0
 26 25  1  0  0  0  0
 26 21  2  0  0  0  0
 27 16  1  0  0  0  0
 28 27  2  0  0  0  0
 29 15  1  0  0  0  0
 31 17  1  0  0  0  0
 32 17  1  0  0  0  0
 33 19  1  0  0  0  0
 38 25  1  0  0  0  0
 39 51  1  0  0  0  0
 39 27  1  0  0  0  0
 40 52  1  6  0  0  0
 40 41  1  0  0  0  0
 40 39  1  0  0  0  0
 41 53  1  0  0  0  0
 41 42  1  0  0  0  0
 42 47  1  0  0  0  0
 43 42  2  0  0  0  0
 43 44  1  0  0  0  0
 44 45  2  0  0  0  0
 45 46  1  0  0  0  0
 45 57  1  0  0  0  0
 46 58  1  0  0  0  0
 47 59  1  0  0  0  0
 47 46  2  0  0  0  0
 48 40  1  0  0  0  0
 49 48  1  0  0  0  0
 50 48  2  0  0  0  0
 54 41  1  0  0  0  0
 55 43  1  0  0  0  0
 56 44  1  0  0  0  0
M  END
$$$$
