DWG.pdb
 OpenBabel07022418163D

 46 47  0  0  1  0  0  0  0  0999 V2000
    0.6860   -2.1750    2.9250 N   0  0  0  0  0  0  0  0  0  0  0  0
   -0.6410   -1.5890    2.9380 C   0  0  1  0  0  0  0  0  0  0  0  0
   -0.9450   -0.7690    4.1440 C   0  0  0  0  0  0  0  0  0  0  0  0
   -0.0880    0.3860    4.3800 C   0  0  0  0  0  0  0  0  0  0  0  0
    0.8560    0.7080    3.6170 O   0  0  0  0  0  0  0  0  0  0  0  0
   -0.9990   -1.0090    1.6500 C   0  0  0  0  0  0  0  0  0  0  0  0
   -2.0210   -0.2880    1.5500 O   0  0  0  0  0  0  0  0  0  0  0  0
   -0.2750    1.2080    5.4860 O   0  0  0  0  0  0  0  0  0  0  0  0
    1.3860   -1.5530    3.3870 H   0  0  0  0  0  0  0  0  0  0  0  0
    0.7260   -3.0760    3.4680 H   0  0  0  0  0  0  0  0  0  0  0  0
   -1.3220   -2.5070    3.0500 H   0  0  0  0  0  0  0  0  0  0  0  0
   -1.9960   -0.4180    4.1810 H   0  0  0  0  0  0  0  0  0  0  0  0
   -0.8610   -1.4600    5.0350 H   0  0  0  0  0  0  0  0  0  0  0  0
   -0.0890    2.2160    5.4500 H   0  0  0  0  0  0  0  0  0  0  0  0
   -0.1840   -1.2650    0.4910 N   0  0  0  0  0  0  0  0  0  0  0  0
   -0.5760   -0.6790   -0.7460 C   0  0  1  0  0  0  0  0  0  0  0  0
    0.5030    0.1130   -1.3990 C   0  0  0  0  0  0  0  0  0  0  0  0
    0.9640    1.2190   -0.5470 C   0  0  0  0  0  0  0  0  0  0  0  0
    0.4780    2.5330   -0.5750 C   0  0  0  0  0  0  0  0  0  0  0  0
    1.1000    3.2540    0.3590 N   0  0  0  0  0  0  0  0  0  0  0  0
    1.9940    2.4890    1.0260 C   0  0  0  0  0  0  0  0  0  0  0  0
    2.8800    2.7560    2.0460 C   0  0  0  0  0  0  0  0  0  0  0  0
    3.7050    1.7710    2.5280 C   0  0  0  0  0  0  0  0  0  0  0  0
    3.6220    0.5170    1.9690 C   0  0  0  0  0  0  0  0  0  0  0  0
    2.7380    0.2460    0.9500 C   0  0  0  0  0  0  0  0  0  0  0  0
    1.9060    1.2140    0.4550 C   0  0  0  0  0  0  0  0  0  0  0  0
   -1.1220   -1.7210   -1.6890 C   0  0  0  0  0  0  0  0  0  0  0  0
   -1.5110   -1.3490   -2.8250 O   0  0  0  0  0  0  0  0  0  0  0  0
    0.6600   -1.8700    0.5440 H   0  0  0  0  0  0  0  0  0  0  0  0
   -1.4410    0.0350   -0.5690 H   0  0  0  0  0  0  0  0  0  0  0  0
    1.3730   -0.5450   -1.6470 H   0  0  0  0  0  0  0  0  0  0  0  0
    0.1120    0.5760   -2.3620 H   0  0  0  0  0  0  0  0  0  0  0  0
   -0.2880    2.8540   -1.2720 H   0  0  0  0  0  0  0  0  0  0  0  0
    0.9360    4.2530    0.5570 H   0  0  0  0  0  0  0  0  0  0  0  0
    2.9650    3.7350    2.5030 H   0  0  0  0  0  0  0  0  0  0  0  0
    4.4230    1.9580    3.3430 H   0  0  0  0  0  0  0  0  0  0  0  0
    4.2740   -0.2710    2.3460 H   0  0  0  0  0  0  0  0  0  0  0  0
    2.6780   -0.7460    0.4920 H   0  0  0  0  0  0  0  0  0  0  0  0
   -1.2010   -3.0850   -1.3160 N   0  0  0  0  0  0  0  0  0  0  0  0
   -1.7280   -4.0270   -2.2520 C   0  0  0  0  0  0  0  0  0  0  0  0
   -3.1410   -3.6980   -2.6390 C   0  0  0  0  0  0  0  0  0  0  0  0
   -3.7840   -4.3960   -3.4440 O   0  0  0  0  0  0  0  0  0  0  0  0
   -3.7480   -2.5720   -2.0750 O   0  0  0  0  0  0  0  0  0  0  0  0
   -0.8610   -3.3570   -0.3460 H   0  0  0  0  0  0  0  0  0  0  0  0
   -1.1450   -3.9370   -3.2140 H   0  0  0  0  0  0  0  0  0  0  0  0
   -1.6720   -5.0690   -1.9340 H   0  0  0  0  0  0  0  0  0  0  0  0
  1  2  1  0  0  0  0
  1  9  1  0  0  0  0
  1 10  1  0  0  0  0
  2 11  1  1  0  0  0
  2  3  1  0  0  0  0
  3 12  1  0  0  0  0
  3  4  1  0  0  0  0
  3 13  1  0  0  0  0
  4  8  1  0  0  0  0
  5  4  2  0  0  0  0
  6  2  1  0  0  0  0
  7  6  2  0  0  0  0
 14  8  1  0  0  0  0
 15 29  1  0  0  0  0
 15  6  1  0  0  0  0
 16 30  1  1  0  0  0
 16 15  1  0  0  0  0
 17 16  1  0  0  0  0
 17 18  1  0  0  0  0
 18 26  1  0  0  0  0
 19 18  2  0  0  0  0
 19 20  1  0  0  0  0
 20 34  1  0  0  0  0
 20 21  1  0  0  0  0
 21 22  1  0  0  0  0
 22 35  1  0  0  0  0
 22 23  2  0  0  0  0
 23 36  1  0  0  0  0
 24 37  1  0  0  0  0
 24 23  1  0  0  0  0
 25 24  2  0  0  0  0
 26 25  1  0  0  0  0
 26 21  2  0  0  0  0
 27 39  1  0  0  0  0
 27 16  1  0  0  0  0
 28 27  2  0  0  0  0
 31 17  1  0  0  0  0
 32 17  1  0  0  0  0
 33 19  1  0  0  0  0
 38 25  1  0  0  0  0
 39 44  1  0  0  0  0
 40 46  1  0  0  0  0
 40 39  1  0  0  0  0
 41 40  1  0  0  0  0
 41 43  1  0  0  0  0
 42 41  2  0  0  0  0
 45 40  1  0  0  0  0
M  END
$$$$
