DWH.pdb
 OpenBabel07022418163D

 56 58  0  0  1  0  0  0  0  0999 V2000
    4.7300   -1.1710    1.4940 N   0  0  0  0  0  0  0  0  0  0  0  0
    3.7600   -1.8930    2.2500 C   0  0  1  0  0  0  0  0  0  0  0  0
    3.8640   -1.6630    3.7490 C   0  0  0  0  0  0  0  0  0  0  0  0
    3.6790   -0.2490    4.0950 C   0  0  0  0  0  0  0  0  0  0  0  0
    3.4690    0.6180    3.2190 O   0  0  0  0  0  0  0  0  0  0  0  0
    2.3640   -1.6190    1.8620 C   0  0  0  0  0  0  0  0  0  0  0  0
    1.4620   -2.2240    2.5010 O   0  0  0  0  0  0  0  0  0  0  0  0
    3.7360    0.1480    5.4180 O   0  0  0  0  0  0  0  0  0  0  0  0
    5.6560   -1.2730    1.9720 H   0  0  0  0  0  0  0  0  0  0  0  0
    4.5150   -0.1900    1.2940 H   0  0  0  0  0  0  0  0  0  0  0  0
    3.9350   -2.9760    2.0750 H   0  0  0  0  0  0  0  0  0  0  0  0
    4.7530   -2.1280    4.1920 H   0  0  0  0  0  0  0  0  0  0  0  0
    2.9850   -2.2150    4.1930 H   0  0  0  0  0  0  0  0  0  0  0  0
    3.3730    1.0730    5.6690 H   0  0  0  0  0  0  0  0  0  0  0  0
    1.9600   -0.7440    0.8460 N   0  0  0  0  0  0  0  0  0  0  0  0
    0.5370   -0.5120    0.5050 C   0  0  1  0  0  0  0  0  0  0  0  0
    0.3140    0.9410    0.8290 C   0  0  0  0  0  0  0  0  0  0  0  0
   -1.0260    1.4530    0.5870 C   0  0  0  0  0  0  0  0  0  0  0  0
   -1.4570    2.2840   -0.4340 C   0  0  0  0  0  0  0  0  0  0  0  0
   -2.7670    2.5370   -0.2960 N   0  0  0  0  0  0  0  0  0  0  0  0
   -3.2130    1.8920    0.7940 C   0  0  0  0  0  0  0  0  0  0  0  0
   -4.4560    1.7920    1.4110 C   0  0  0  0  0  0  0  0  0  0  0  0
   -4.6120    1.0340    2.5520 C   0  0  0  0  0  0  0  0  0  0  0  0
   -3.5490    0.3580    3.1110 C   0  0  0  0  0  0  0  0  0  0  0  0
   -2.3080    0.4410    2.5190 C   0  0  0  0  0  0  0  0  0  0  0  0
   -2.1480    1.2030    1.3710 C   0  0  0  0  0  0  0  0  0  0  0  0
    0.3130   -0.8380   -0.9220 C   0  0  0  0  0  0  0  0  0  0  0  0
    1.3000   -1.1800   -1.6730 O   0  0  0  0  0  0  0  0  0  0  0  0
    2.6820   -0.2340    0.3030 H   0  0  0  0  0  0  0  0  0  0  0  0
   -0.1040   -1.1140    1.1700 H   0  0  0  0  0  0  0  0  0  0  0  0
    0.5470    1.0500    1.9230 H   0  0  0  0  0  0  0  0  0  0  0  0
    1.0540    1.5970    0.2830 H   0  0  0  0  0  0  0  0  0  0  0  0
   -0.8440    2.6840   -1.2390 H   0  0  0  0  0  0  0  0  0  0  0  0
   -3.3460    3.1290   -0.9200 H   0  0  0  0  0  0  0  0  0  0  0  0
   -5.2840    2.3360    0.9490 H   0  0  0  0  0  0  0  0  0  0  0  0
   -5.5640    0.9570    3.0250 H   0  0  0  0  0  0  0  0  0  0  0  0
   -3.6350   -0.2440    4.0040 H   0  0  0  0  0  0  0  0  0  0  0  0
   -1.4360   -0.0750    2.9250 H   0  0  0  0  0  0  0  0  0  0  0  0
   -0.9560   -0.8070   -1.5560 N   0  0  0  0  0  0  0  0  0  0  0  0
   -1.0970   -1.1530   -2.9800 C   0  0  1  0  0  0  0  0  0  0  0  0
   -1.8850   -2.4800   -2.9560 C   0  0  0  0  0  0  0  0  0  0  0  0
   -1.0570   -3.4500   -2.1930 C   0  0  0  0  0  0  0  0  0  0  0  0
   -0.1130   -4.2770   -2.7500 C   0  0  0  0  0  0  0  0  0  0  0  0
    0.4510   -5.0280   -1.7600 N   0  0  0  0  0  0  0  0  0  0  0  0
   -0.1350   -4.6700   -0.6160 C   0  0  0  0  0  0  0  0  0  0  0  0
   -1.0620   -3.7030   -0.8670 N   0  0  0  0  0  0  0  0  0  0  0  0
   -1.9700   -0.2040   -3.7040 C   0  0  0  0  0  0  0  0  0  0  0  0
   -2.4880    0.7400   -3.0580 O   0  0  0  0  0  0  0  0  0  0  0  0
   -2.2550   -0.2850   -5.0410 O   0  0  0  0  0  0  0  0  0  0  0  0
   -1.7820   -0.5350   -0.9840 H   0  0  0  0  0  0  0  0  0  0  0  0
   -0.1190   -1.3060   -3.4480 H   0  0  0  0  0  0  0  0  0  0  0  0
   -2.7920   -2.2710   -2.3500 H   0  0  0  0  0  0  0  0  0  0  0  0
   -2.1530   -2.8100   -3.9590 H   0  0  0  0  0  0  0  0  0  0  0  0
    0.1500   -4.3360   -3.7920 H   0  0  0  0  0  0  0  0  0  0  0  0
    1.2020   -5.7390   -1.9270 H   0  0  0  0  0  0  0  0  0  0  0  0
    0.0980   -5.0900    0.3620 H   0  0  0  0  0  0  0  0  0  0  0  0
  1  9  1  0  0  0  0
  1  2  1  0  0  0  0
  2 11  1  6  0  0  0
  2  3  1  0  0  0  0
  3  4  1  0  0  0  0
  3 12  1  0  0  0  0
  3 13  1  0  0  0  0
  4  8  1  0  0  0  0
  5  4  2  0  0  0  0
  6  2  1  0  0  0  0
  6  7  2  0  0  0  0
  8 14  1  0  0  0  0
 10  1  1  0  0  0  0
 15  6  1  0  0  0  0
 16 17  1  0  0  0  0
 16 15  1  0  0  0  0
 16 30  1  1  0  0  0
 17 31  1  0  0  0  0
 18 17  1  0  0  0  0
 18 26  1  0  0  0  0
 19 20  1  0  0  0  0
 19 18  2  0  0  0  0
 20 21  1  0  0  0  0
 21 26  2  0  0  0  0
 21 22  1  0  0  0  0
 22 23  2  0  0  0  0
 23 36  1  0  0  0  0
 23 24  1  0  0  0  0
 24 37  1  0  0  0  0
 25 38  1  0  0  0  0
 25 24  2  0  0  0  0
 26 25  1  0  0  0  0
 27 16  1  0  0  0  0
 28 27  2  0  0  0  0
 29 15  1  0  0  0  0
 32 17  1  0  0  0  0
 33 19  1  0  0  0  0
 34 20  1  0  0  0  0
 35 22  1  0  0  0  0
 39 50  1  0  0  0  0
 39 27  1  0  0  0  0
 40 51  1  6  0  0  0
 40 41  1  0  0  0  0
 40 39  1  0  0  0  0
 41 52  1  0  0  0  0
 41 42  1  0  0  0  0
 42 46  1  0  0  0  0
 43 42  2  0  0  0  0
 43 44  1  0  0  0  0
 44 45  1  0  0  0  0
 45 56  1  0  0  0  0
 46 45  2  0  0  0  0
 47 48  1  0  0  0  0
 47 40  1  0  0  0  0
 49 47  2  0  0  0  0
 53 41  1  0  0  0  0
 54 43  1  0  0  0  0
 55 44  1  0  0  0  0
M  END
$$$$
