DWL.pdb
 OpenBabel07022418163D

 58 59  0  0  1  0  0  0  0  0999 V2000
    3.6490    0.7930    2.0580 N   0  0  0  0  0  0  0  0  0  0  0  0
    2.6360    0.4380    3.0100 C   0  0  1  0  0  0  0  0  0  0  0  0
    2.3400    1.7310    3.7980 C   0  0  0  0  0  0  0  0  0  0  0  0
    3.5110    2.2390    4.5170 C   0  0  0  0  0  0  0  0  0  0  0  0
    4.6130    1.6410    4.4440 O   0  0  0  0  0  0  0  0  0  0  0  0
    1.4000    0.0120    2.3470 C   0  0  0  0  0  0  0  0  0  0  0  0
    0.3720   -0.3740    2.9840 O   0  0  0  0  0  0  0  0  0  0  0  0
    3.4260    3.3770    5.2820 O   0  0  0  0  0  0  0  0  0  0  0  0
    4.5220    0.2140    2.1080 H   0  0  0  0  0  0  0  0  0  0  0  0
    3.9530    1.7990    2.1010 H   0  0  0  0  0  0  0  0  0  0  0  0
    3.0150   -0.3240    3.7330 H   0  0  0  0  0  0  0  0  0  0  0  0
    2.1690    2.4820    2.9540 H   0  0  0  0  0  0  0  0  0  0  0  0
    1.4190    1.6360    4.3780 H   0  0  0  0  0  0  0  0  0  0  0  0
    4.2010    3.7600    5.8180 H   0  0  0  0  0  0  0  0  0  0  0  0
    1.3010    0.0160    0.9210 N   0  0  0  0  0  0  0  0  0  0  0  0
    0.0500   -0.4060    0.2900 C   0  0  1  0  0  0  0  0  0  0  0  0
   -0.5940    0.8700   -0.3280 C   0  0  0  0  0  0  0  0  0  0  0  0
   -0.8280    1.8330    0.7720 C   0  0  0  0  0  0  0  0  0  0  0  0
   -0.0020    2.9100    1.1120 C   0  0  0  0  0  0  0  0  0  0  0  0
   -0.5050    3.5520    2.1660 N   0  0  0  0  0  0  0  0  0  0  0  0
   -1.6610    2.9500    2.5740 C   0  0  0  0  0  0  0  0  0  0  0  0
   -2.5460    3.2160    3.5780 C   0  0  0  0  0  0  0  0  0  0  0  0
   -3.6920    2.4310    3.7860 C   0  0  0  0  0  0  0  0  0  0  0  0
   -3.8750    1.3780    2.9190 C   0  0  0  0  0  0  0  0  0  0  0  0
   -2.9790    1.1240    1.9150 C   0  0  0  0  0  0  0  0  0  0  0  0
   -1.8450    1.8900    1.7010 C   0  0  0  0  0  0  0  0  0  0  0  0
    0.2600   -1.3920   -0.8100 C   0  0  0  0  0  0  0  0  0  0  0  0
    1.3430   -1.5320   -1.4270 O   0  0  0  0  0  0  0  0  0  0  0  0
    2.1330    0.3220    0.3850 H   0  0  0  0  0  0  0  0  0  0  0  0
   -0.6300   -0.7350    1.0620 H   0  0  0  0  0  0  0  0  0  0  0  0
   -1.5520    0.5080   -0.7750 H   0  0  0  0  0  0  0  0  0  0  0  0
    0.0760    1.2990   -1.0670 H   0  0  0  0  0  0  0  0  0  0  0  0
    0.9140    3.1490    0.5590 H   0  0  0  0  0  0  0  0  0  0  0  0
   -0.0630    4.3920    2.6050 H   0  0  0  0  0  0  0  0  0  0  0  0
   -2.4100    4.0370    4.2630 H   0  0  0  0  0  0  0  0  0  0  0  0
   -4.3940    2.6630    4.5930 H   0  0  0  0  0  0  0  0  0  0  0  0
   -4.7650    0.7730    3.0860 H   0  0  0  0  0  0  0  0  0  0  0  0
   -3.1310    0.2850    1.2230 H   0  0  0  0  0  0  0  0  0  0  0  0
    0.9350   -5.1280   -3.9930 C   0  0  0  0  0  0  0  0  0  0  0  0
    0.2800   -5.5520   -2.7040 C   0  0  0  0  0  0  0  0  0  0  0  0
   -0.8180   -6.5110   -2.9220 C   0  0  0  0  0  0  0  0  0  0  0  0
    0.0730   -4.4100   -1.7960 C   0  0  0  0  0  0  0  0  0  0  0  0
   -0.6890   -3.2380   -2.2880 C   0  0  2  0  0  0  0  0  0  0  0  0
   -0.8180   -2.2360   -1.1890 N   0  0  0  0  0  0  0  0  0  0  0  0
   -1.9540   -3.4580   -2.9370 C   0  0  0  0  0  0  0  0  0  0  0  0
   -3.0050   -2.8780   -2.4780 O   0  0  0  0  0  0  0  0  0  0  0  0
   -2.1460   -4.2480   -4.0340 O   0  0  0  0  0  0  0  0  0  0  0  0
    0.5750   -5.7460   -4.8550 H   0  0  0  0  0  0  0  0  0  0  0  0
    2.0430   -5.1680   -3.9070 H   0  0  0  0  0  0  0  0  0  0  0  0
    0.6330   -4.0940   -4.2560 H   0  0  0  0  0  0  0  0  0  0  0  0
    1.1230   -6.2290   -2.1810 H   0  0  0  0  0  0  0  0  0  0  0  0
   -0.5280   -7.5440   -2.5280 H   0  0  0  0  0  0  0  0  0  0  0  0
   -1.7690   -6.3020   -2.3820 H   0  0  0  0  0  0  0  0  0  0  0  0
   -1.0130   -6.6980   -3.9930 H   0  0  0  0  0  0  0  0  0  0  0  0
    1.0950   -4.0810   -1.4350 H   0  0  0  0  0  0  0  0  0  0  0  0
   -0.4400   -4.8520   -0.8660 H   0  0  0  0  0  0  0  0  0  0  0  0
    0.0160   -2.7100   -3.0050 H   0  0  0  0  0  0  0  0  0  0  0  0
   -1.7220   -2.1570   -0.6920 H   0  0  0  0  0  0  0  0  0  0  0  0
  1 10  1  0  0  0  0
  1  9  1  0  0  0  0
  1  2  1  0  0  0  0
  2 11  1  1  0  0  0
  2  3  1  0  0  0  0
  3 13  1  0  0  0  0
  3  4  1  0  0  0  0
  4  8  1  0  0  0  0
  5  4  2  0  0  0  0
  6  7  2  0  0  0  0
  6  2  1  0  0  0  0
  8 14  1  0  0  0  0
 12  3  1  0  0  0  0
 15  6  1  0  0  0  0
 16 15  1  0  0  0  0
 16 30  1  1  0  0  0
 17 16  1  0  0  0  0
 17 18  1  0  0  0  0
 18 19  2  0  0  0  0
 18 26  1  0  0  0  0
 19 20  1  0  0  0  0
 20 21  1  0  0  0  0
 20 34  1  0  0  0  0
 21 22  1  0  0  0  0
 22 23  2  0  0  0  0
 22 35  1  0  0  0  0
 23 36  1  0  0  0  0
 24 37  1  0  0  0  0
 24 23  1  0  0  0  0
 25 24  2  0  0  0  0
 26 25  1  0  0  0  0
 26 21  2  0  0  0  0
 27 16  1  0  0  0  0
 28 27  2  0  0  0  0
 29 15  1  0  0  0  0
 31 17  1  0  0  0  0
 32 17  1  0  0  0  0
 33 19  1  0  0  0  0
 38 25  1  0  0  0  0
 39 49  1  0  0  0  0
 39 40  1  0  0  0  0
 40 51  1  0  0  0  0
 40 42  1  0  0  0  0
 41 40  1  0  0  0  0
 41 52  1  0  0  0  0
 41 53  1  0  0  0  0
 42 55  1  0  0  0  0
 42 56  1  0  0  0  0
 43 57  1  6  0  0  0
 43 42  1  0  0  0  0
 43 44  1  0  0  0  0
 44 27  1  0  0  0  0
 44 58  1  0  0  0  0
 45 46  1  0  0  0  0
 45 43  1  0  0  0  0
 47 45  2  0  0  0  0
 48 39  1  0  0  0  0
 50 39  1  0  0  0  0
 54 41  1  0  0  0  0
M  END
$$$$
