DWM.pdb
 OpenBabel07022418163D

 56 57  0  0  1  0  0  0  0  0999 V2000
    1.7670   -2.3810    5.1100 N   0  0  0  0  0  0  0  0  0  0  0  0
    2.0990   -2.2500    3.7120 C   0  0  1  0  0  0  0  0  0  0  0  0
    1.9090   -3.5880    3.0400 C   0  0  0  0  0  0  0  0  0  0  0  0
    0.4800   -3.9730    3.2120 C   0  0  0  0  0  0  0  0  0  0  0  0
   -0.3480   -3.2550    3.8230 O   0  0  0  0  0  0  0  0  0  0  0  0
    1.2520   -1.1910    3.0930 C   0  0  0  0  0  0  0  0  0  0  0  0
    0.4460   -0.5310    3.7960 O   0  0  0  0  0  0  0  0  0  0  0  0
    0.0630   -5.1840    2.6640 O   0  0  0  0  0  0  0  0  0  0  0  0
    2.0030   -3.3160    5.5030 H   0  0  0  0  0  0  0  0  0  0  0  0
    2.2550   -1.6800    5.7100 H   0  0  0  0  0  0  0  0  0  0  0  0
    3.1820   -1.9920    3.6520 H   0  0  0  0  0  0  0  0  0  0  0  0
    2.6090   -4.2980    3.4800 H   0  0  0  0  0  0  0  0  0  0  0  0
    2.1160   -3.4680    1.9570 H   0  0  0  0  0  0  0  0  0  0  0  0
   -0.8420   -5.5970    2.9270 H   0  0  0  0  0  0  0  0  0  0  0  0
    1.3090   -0.8810    1.7120 N   0  0  0  0  0  0  0  0  0  0  0  0
    0.5450    0.1080    1.0300 C   0  0  1  0  0  0  0  0  0  0  0  0
    1.3800    1.1240    0.2990 C   0  0  0  0  0  0  0  0  0  0  0  0
    0.5780    2.1390   -0.3970 C   0  0  0  0  0  0  0  0  0  0  0  0
    0.3190    2.2430   -1.7480 C   0  0  0  0  0  0  0  0  0  0  0  0
   -0.4560    3.3150   -1.9860 N   0  0  0  0  0  0  0  0  0  0  0  0
   -0.7060    3.9140   -0.8080 C   0  0  0  0  0  0  0  0  0  0  0  0
   -1.4630    5.0600   -0.5410 C   0  0  0  0  0  0  0  0  0  0  0  0
   -1.5820    5.4940    0.7650 C   0  0  0  0  0  0  0  0  0  0  0  0
   -0.9460    4.7720    1.7540 C   0  0  0  0  0  0  0  0  0  0  0  0
   -0.2010    3.6430    1.4910 C   0  0  0  0  0  0  0  0  0  0  0  0
   -0.0820    3.2110    0.1850 C   0  0  0  0  0  0  0  0  0  0  0  0
   -0.4400   -0.5550    0.1260 C   0  0  0  0  0  0  0  0  0  0  0  0
   -1.2090    0.1370   -0.5780 O   0  0  0  0  0  0  0  0  0  0  0  0
    1.9970   -1.4560    1.1450 H   0  0  0  0  0  0  0  0  0  0  0  0
   -0.0790    0.6320    1.8000 H   0  0  0  0  0  0  0  0  0  0  0  0
    2.0250    0.6410   -0.4710 H   0  0  0  0  0  0  0  0  0  0  0  0
    2.0170    1.6410    1.0400 H   0  0  0  0  0  0  0  0  0  0  0  0
    0.6760    1.5680   -2.5290 H   0  0  0  0  0  0  0  0  0  0  0  0
   -0.7860    3.6000   -2.9450 H   0  0  0  0  0  0  0  0  0  0  0  0
   -1.9420    5.5900   -1.3640 H   0  0  0  0  0  0  0  0  0  0  0  0
   -2.1670    6.3820    0.9770 H   0  0  0  0  0  0  0  0  0  0  0  0
   -1.0430    5.1190    2.7890 H   0  0  0  0  0  0  0  0  0  0  0  0
    0.3020    3.0680    2.2470 H   0  0  0  0  0  0  0  0  0  0  0  0
   -1.5250   -2.7030   -4.8960 C   0  0  0  0  0  0  0  0  0  0  0  0
   -0.3730   -1.9340   -3.7360 S   0  0  0  0  0  0  0  0  0  0  0  0
    0.3040   -3.1180   -2.5650 C   0  0  0  0  0  0  0  0  0  0  0  0
   -0.6960   -3.6890   -1.6260 C   0  0  0  0  0  0  0  0  0  0  0  0
   -1.3960   -2.6840   -0.7530 C   0  0  2  0  0  0  0  0  0  0  0  0
   -0.4900   -1.9520    0.0790 N   0  0  0  0  0  0  0  0  0  0  0  0
   -2.3390   -3.4340    0.0960 C   0  0  0  0  0  0  0  0  0  0  0  0
   -2.2590   -3.3630    1.3360 O   0  0  0  0  0  0  0  0  0  0  0  0
   -3.3140   -4.2180   -0.4790 O   0  0  0  0  0  0  0  0  0  0  0  0
   -1.4710   -3.8150   -4.7140 H   0  0  0  0  0  0  0  0  0  0  0  0
   -2.5650   -2.4150   -4.7200 H   0  0  0  0  0  0  0  0  0  0  0  0
   -1.1670   -2.5150   -5.9300 H   0  0  0  0  0  0  0  0  0  0  0  0
    1.2020   -2.7010   -2.0680 H   0  0  0  0  0  0  0  0  0  0  0  0
    0.6920   -3.9880   -3.1720 H   0  0  0  0  0  0  0  0  0  0  0  0
   -0.1800   -4.4420   -0.9960 H   0  0  0  0  0  0  0  0  0  0  0  0
   -1.4580   -4.2380   -2.2100 H   0  0  0  0  0  0  0  0  0  0  0  0
   -2.0280   -1.9910   -1.3700 H   0  0  0  0  0  0  0  0  0  0  0  0
    0.1680   -2.4940    0.6820 H   0  0  0  0  0  0  0  0  0  0  0  0
  1  9  1  0  0  0  0
  1 10  1  0  0  0  0
  2 11  1  6  0  0  0
  2  1  1  0  0  0  0
  3  4  1  0  0  0  0
  3 12  1  0  0  0  0
  3  2  1  0  0  0  0
  4  5  2  0  0  0  0
  6  2  1  0  0  0  0
  6  7  2  0  0  0  0
  8 14  1  0  0  0  0
  8  4  1  0  0  0  0
 13  3  1  0  0  0  0
 15  6  1  0  0  0  0
 16 15  1  0  0  0  0
 16 30  1  1  0  0  0
 17 16  1  0  0  0  0
 17 32  1  0  0  0  0
 18 26  1  0  0  0  0
 18 17  1  0  0  0  0
 19 18  2  0  0  0  0
 20 19  1  0  0  0  0
 20 21  1  0  0  0  0
 21 22  2  0  0  0  0
 21 26  1  0  0  0  0
 22 23  1  0  0  0  0
 23 36  1  0  0  0  0
 23 24  2  0  0  0  0
 24 37  1  0  0  0  0
 25 24  1  0  0  0  0
 25 38  1  0  0  0  0
 26 25  2  0  0  0  0
 27 16  1  0  0  0  0
 28 27  2  0  0  0  0
 29 15  1  0  0  0  0
 31 17  1  0  0  0  0
 33 19  1  0  0  0  0
 34 20  1  0  0  0  0
 35 22  1  0  0  0  0
 39 49  1  0  0  0  0
 39 48  1  0  0  0  0
 39 40  1  0  0  0  0
 40 41  1  0  0  0  0
 41 51  1  0  0  0  0
 41 42  1  0  0  0  0
 42 53  1  0  0  0  0
 42 43  1  0  0  0  0
 43 55  1  6  0  0  0
 43 44  1  0  0  0  0
 43 45  1  0  0  0  0
 44 27  1  0  0  0  0
 44 56  1  0  0  0  0
 45 46  1  0  0  0  0
 47 45  2  0  0  0  0
 50 39  1  0  0  0  0
 52 41  1  0  0  0  0
 54 42  1  0  0  0  0
M  END
$$$$
