DWN.pdb
 OpenBabel07022418163D

 53 54  0  0  1  0  0  0  0  0999 V2000
    2.5970   -2.6700    4.5490 N   0  0  0  0  0  0  0  0  0  0  0  0
    2.6710   -2.1190    3.2020 C   0  0  1  0  0  0  0  0  0  0  0  0
    2.6810   -3.1780    2.1380 C   0  0  0  0  0  0  0  0  0  0  0  0
    3.8490   -4.0430    2.3350 C   0  0  0  0  0  0  0  0  0  0  0  0
    5.0050   -3.5900    2.3870 O   0  0  0  0  0  0  0  0  0  0  0  0
    1.5640   -1.1270    2.9860 C   0  0  0  0  0  0  0  0  0  0  0  0
    0.8340   -0.8100    3.9590 O   0  0  0  0  0  0  0  0  0  0  0  0
    3.6390   -5.4250    2.4700 O   0  0  0  0  0  0  0  0  0  0  0  0
    1.9690   -2.0010    5.0950 H   0  0  0  0  0  0  0  0  0  0  0  0
    1.9680   -3.5290    4.4540 H   0  0  0  0  0  0  0  0  0  0  0  0
    3.6250   -1.5560    3.1400 H   0  0  0  0  0  0  0  0  0  0  0  0
    1.7380   -3.7780    2.1110 H   0  0  0  0  0  0  0  0  0  0  0  0
    2.8200   -2.6280    1.1700 H   0  0  0  0  0  0  0  0  0  0  0  0
    4.3290   -6.0340    2.9210 H   0  0  0  0  0  0  0  0  0  0  0  0
    1.3090   -0.5400    1.7310 N   0  0  0  0  0  0  0  0  0  0  0  0
    0.2530    0.4250    1.4610 C   0  0  1  0  0  0  0  0  0  0  0  0
    0.7970    1.6830    0.8650 C   0  0  0  0  0  0  0  0  0  0  0  0
   -0.1980    2.6990    0.5190 C   0  0  0  0  0  0  0  0  0  0  0  0
   -0.6270    3.7240    1.3540 C   0  0  0  0  0  0  0  0  0  0  0  0
   -1.5740    4.4410    0.7290 N   0  0  0  0  0  0  0  0  0  0  0  0
   -1.8090    3.9460   -0.5020 C   0  0  0  0  0  0  0  0  0  0  0  0
   -2.6580    4.3230   -1.5200 C   0  0  0  0  0  0  0  0  0  0  0  0
   -2.6670    3.6220   -2.7030 C   0  0  0  0  0  0  0  0  0  0  0  0
   -1.8150    2.5450   -2.8380 C   0  0  0  0  0  0  0  0  0  0  0  0
   -0.9670    2.1550   -1.8400 C   0  0  0  0  0  0  0  0  0  0  0  0
   -0.9440    2.8500   -0.6380 C   0  0  0  0  0  0  0  0  0  0  0  0
   -0.8770   -0.1720    0.7480 C   0  0  0  0  0  0  0  0  0  0  0  0
   -1.9480    0.4350    0.5180 O   0  0  0  0  0  0  0  0  0  0  0  0
    1.9240   -0.8190    0.9270 H   0  0  0  0  0  0  0  0  0  0  0  0
   -0.1940    0.7220    2.4740 H   0  0  0  0  0  0  0  0  0  0  0  0
    1.3100    1.4070   -0.0930 H   0  0  0  0  0  0  0  0  0  0  0  0
    1.6090    2.1240    1.4980 H   0  0  0  0  0  0  0  0  0  0  0  0
   -0.2630    3.9190    2.3490 H   0  0  0  0  0  0  0  0  0  0  0  0
   -2.0660    5.2610    1.1250 H   0  0  0  0  0  0  0  0  0  0  0  0
   -3.3340    5.1580   -1.4340 H   0  0  0  0  0  0  0  0  0  0  0  0
   -3.3230    3.8890   -3.5300 H   0  0  0  0  0  0  0  0  0  0  0  0
   -1.8340    2.0140   -3.7700 H   0  0  0  0  0  0  0  0  0  0  0  0
   -0.2790    1.3180   -1.8990 H   0  0  0  0  0  0  0  0  0  0  0  0
    0.0080   -4.6850   -2.3920 N   0  0  0  0  0  0  0  0  0  0  0  0
   -0.5760   -3.8970   -1.3700 C   0  0  0  0  0  0  0  0  0  0  0  0
   -0.2940   -4.1690   -0.1880 O   0  0  0  0  0  0  0  0  0  0  0  0
   -1.4920   -2.7850   -1.6820 C   0  0  0  0  0  0  0  0  0  0  0  0
   -1.9450   -2.0830   -0.4410 C   0  0  2  0  0  0  0  0  0  0  0  0
   -0.8150   -1.5260    0.2580 N   0  0  0  0  0  0  0  0  0  0  0  0
   -2.5450   -3.1130    0.4890 C   0  0  0  0  0  0  0  0  0  0  0  0
   -2.0770   -3.3500    1.6230 O   0  0  0  0  0  0  0  0  0  0  0  0
   -3.6600   -3.8390    0.0970 O   0  0  0  0  0  0  0  0  0  0  0  0
   -0.5000   -4.7720   -3.2820 H   0  0  0  0  0  0  0  0  0  0  0  0
    0.9080   -5.1510   -2.2440 H   0  0  0  0  0  0  0  0  0  0  0  0
   -2.3860   -3.1440   -2.2360 H   0  0  0  0  0  0  0  0  0  0  0  0
   -0.9310   -2.0800   -2.3550 H   0  0  0  0  0  0  0  0  0  0  0  0
   -2.7290   -1.3450   -0.6140 H   0  0  0  0  0  0  0  0  0  0  0  0
    0.0840   -2.0130    0.4680 H   0  0  0  0  0  0  0  0  0  0  0  0
  1  9  1  0  0  0  0
  2 11  1  6  0  0  0
  2  1  1  0  0  0  0
  3  4  1  0  0  0  0
  3  2  1  0  0  0  0
  4  5  2  0  0  0  0
  4  8  1  0  0  0  0
  6  2  1  0  0  0  0
  6  7  2  0  0  0  0
  8 14  1  0  0  0  0
 10  1  1  0  0  0  0
 12  3  1  0  0  0  0
 13  3  1  0  0  0  0
 15  6  1  0  0  0  0
 16 15  1  0  0  0  0
 16 30  1  1  0  0  0
 17 16  1  0  0  0  0
 17 32  1  0  0  0  0
 18 17  1  0  0  0  0
 18 19  2  0  0  0  0
 19 33  1  0  0  0  0
 20 34  1  0  0  0  0
 20 19  1  0  0  0  0
 21 20  1  0  0  0  0
 22 35  1  0  0  0  0
 22 21  2  0  0  0  0
 23 22  1  0  0  0  0
 24 23  2  0  0  0  0
 24 25  1  0  0  0  0
 25 26  2  0  0  0  0
 26 21  1  0  0  0  0
 26 18  1  0  0  0  0
 27 16  1  0  0  0  0
 28 27  2  0  0  0  0
 29 15  1  0  0  0  0
 31 17  1  0  0  0  0
 36 23  1  0  0  0  0
 37 24  1  0  0  0  0
 38 25  1  0  0  0  0
 39 49  1  0  0  0  0
 39 40  1  0  0  0  0
 40 41  2  0  0  0  0
 42 40  1  0  0  0  0
 42 43  1  0  0  0  0
 43 52  1  6  0  0  0
 43 44  1  0  0  0  0
 43 45  1  0  0  0  0
 44 53  1  0  0  0  0
 44 27  1  0  0  0  0
 45 46  1  0  0  0  0
 47 45  2  0  0  0  0
 48 39  1  0  0  0  0
 50 42  1  0  0  0  0
 51 42  1  0  0  0  0
M  END
$$$$
