DWP.pdb
 OpenBabel07022418163D

 53 55  0  0  1  0  0  0  0  0999 V2000
    1.8350   -2.2000    5.1390 N   0  0  0  0  0  0  0  0  0  0  0  0
    1.8850   -2.3360    3.6760 C   0  0  1  0  0  0  0  0  0  0  0  0
    1.0870   -3.5730    3.3360 C   0  0  0  0  0  0  0  0  0  0  0  0
    1.6630   -4.7820    3.9970 C   0  0  0  0  0  0  0  0  0  0  0  0
    2.6770   -4.6630    4.7150 O   0  0  0  0  0  0  0  0  0  0  0  0
    1.2030   -1.1660    3.0800 C   0  0  0  0  0  0  0  0  0  0  0  0
    0.7050   -0.2630    3.8420 O   0  0  0  0  0  0  0  0  0  0  0  0
    1.0920   -6.0190    3.8220 O   0  0  0  0  0  0  0  0  0  0  0  0
    1.0710   -1.5620    5.3830 H   0  0  0  0  0  0  0  0  0  0  0  0
    2.7780   -1.9170    5.5110 H   0  0  0  0  0  0  0  0  0  0  0  0
    2.9360   -2.4320    3.3180 H   0  0  0  0  0  0  0  0  0  0  0  0
    1.1180   -3.7620    2.2190 H   0  0  0  0  0  0  0  0  0  0  0  0
    0.0170   -3.4210    3.5750 H   0  0  0  0  0  0  0  0  0  0  0  0
    1.2430   -6.8080    4.4690 H   0  0  0  0  0  0  0  0  0  0  0  0
    1.0550   -0.9580    1.6820 N   0  0  0  0  0  0  0  0  0  0  0  0
    0.4010    0.1990    1.1080 C   0  0  1  0  0  0  0  0  0  0  0  0
    1.4230    1.0430    0.3690 C   0  0  0  0  0  0  0  0  0  0  0  0
    0.9000    2.2360   -0.3000 C   0  0  0  0  0  0  0  0  0  0  0  0
    0.8460    3.5370    0.2180 C   0  0  0  0  0  0  0  0  0  0  0  0
    0.2720    4.3560   -0.6770 N   0  0  0  0  0  0  0  0  0  0  0  0
   -0.0700    3.6590   -1.7970 C   0  0  0  0  0  0  0  0  0  0  0  0
   -0.6580    4.0090   -2.9910 C   0  0  0  0  0  0  0  0  0  0  0  0
   -0.8690    3.0680   -3.9700 C   0  0  0  0  0  0  0  0  0  0  0  0
   -0.4960    1.7550   -3.7800 C   0  0  0  0  0  0  0  0  0  0  0  0
    0.0900    1.4390   -2.5710 C   0  0  0  0  0  0  0  0  0  0  0  0
    0.3200    2.3570   -1.5580 C   0  0  0  0  0  0  0  0  0  0  0  0
   -0.8690    0.0090    0.4550 C   0  0  0  0  0  0  0  0  0  0  0  0
   -1.4670    1.1120    0.1080 O   0  0  0  0  0  0  0  0  0  0  0  0
    1.4820   -1.7270    1.0820 H   0  0  0  0  0  0  0  0  0  0  0  0
    0.1580    0.8520    2.0290 H   0  0  0  0  0  0  0  0  0  0  0  0
    1.9860    0.4080   -0.3520 H   0  0  0  0  0  0  0  0  0  0  0  0
    2.1650    1.3910    1.1470 H   0  0  0  0  0  0  0  0  0  0  0  0
    1.2260    3.7760    1.2000 H   0  0  0  0  0  0  0  0  0  0  0  0
    0.0980    5.3950   -0.5590 H   0  0  0  0  0  0  0  0  0  0  0  0
   -0.9600    5.0180   -3.1720 H   0  0  0  0  0  0  0  0  0  0  0  0
   -1.3400    3.3560   -4.9220 H   0  0  0  0  0  0  0  0  0  0  0  0
   -0.6490    0.9920   -4.5340 H   0  0  0  0  0  0  0  0  0  0  0  0
    0.4150    0.4100   -2.3470 H   0  0  0  0  0  0  0  0  0  0  0  0
   -1.5740   -1.1610    0.1280 N   0  0  0  0  0  0  0  0  0  0  0  0
   -2.8480   -1.2020   -0.5360 C   0  0  0  0  0  0  0  0  0  0  0  0
   -3.3050   -2.6110   -0.6590 C   0  0  0  0  0  0  0  0  0  0  0  0
   -2.4630   -3.3280    0.3880 C   0  0  0  0  0  0  0  0  0  0  0  0
   -1.1650   -2.5050    0.4000 C   0  0  1  0  0  0  0  0  0  0  0  0
   -0.3150   -3.0840   -0.6630 C   0  0  0  0  0  0  0  0  0  0  0  0
    0.1280   -4.2560   -0.5710 O   0  0  0  0  0  0  0  0  0  0  0  0
   -0.0120   -2.3250   -1.7620 O   0  0  0  0  0  0  0  0  0  0  0  0
   -2.8280   -0.6660   -1.5170 H   0  0  0  0  0  0  0  0  0  0  0  0
   -3.6260   -0.6540    0.0850 H   0  0  0  0  0  0  0  0  0  0  0  0
   -3.0770   -3.0460   -1.6790 H   0  0  0  0  0  0  0  0  0  0  0  0
   -4.3820   -2.6750   -0.4590 H   0  0  0  0  0  0  0  0  0  0  0  0
   -2.2850   -4.3750    0.0790 H   0  0  0  0  0  0  0  0  0  0  0  0
   -2.9500   -3.2510    1.3700 H   0  0  0  0  0  0  0  0  0  0  0  0
   -0.7340   -2.5250    1.4040 H   0  0  0  0  0  0  0  0  0  0  0  0
  1  9  1  0  0  0  0
  1 10  1  0  0  0  0
  2 11  1  6  0  0  0
  2  1  1  0  0  0  0
  3 13  1  0  0  0  0
  3  2  1  0  0  0  0
  3  4  1  0  0  0  0
  4  5  2  0  0  0  0
  6  2  1  0  0  0  0
  6  7  2  0  0  0  0
  8  4  1  0  0  0  0
  8 14  1  0  0  0  0
 12  3  1  0  0  0  0
 15  6  1  0  0  0  0
 16 15  1  0  0  0  0
 16 30  1  1  0  0  0
 17 16  1  0  0  0  0
 17 32  1  0  0  0  0
 18 19  2  0  0  0  0
 18 17  1  0  0  0  0
 19 33  1  0  0  0  0
 20 34  1  0  0  0  0
 20 19  1  0  0  0  0
 21 26  1  0  0  0  0
 21 20  1  0  0  0  0
 22 21  2  0  0  0  0
 23 24  2  0  0  0  0
 23 22  1  0  0  0  0
 24 25  1  0  0  0  0
 25 38  1  0  0  0  0
 25 26  2  0  0  0  0
 26 18  1  0  0  0  0
 27 16  1  0  0  0  0
 28 27  2  0  0  0  0
 29 15  1  0  0  0  0
 31 17  1  0  0  0  0
 35 22  1  0  0  0  0
 36 23  1  0  0  0  0
 37 24  1  0  0  0  0
 39 43  1  0  0  0  0
 39 27  1  0  0  0  0
 40 48  1  0  0  0  0
 40 39  1  0  0  0  0
 41 40  1  0  0  0  0
 41 50  1  0  0  0  0
 41 42  1  0  0  0  0
 42 43  1  0  0  0  0
 42 52  1  0  0  0  0
 43 53  1  1  0  0  0
 44 45  1  0  0  0  0
 44 43  1  0  0  0  0
 46 44  2  0  0  0  0
 47 40  1  0  0  0  0
 49 41  1  0  0  0  0
 51 42  1  0  0  0  0
M  END
$$$$
