DWR.pdb
 OpenBabel07022418163D

 62 63  0  0  1  0  0  0  0  0999 V2000
    3.9340    1.3650    3.1550 N   0  0  0  0  0  0  0  0  0  0  0  0
    2.9890    0.5520    3.8800 C   0  0  1  0  0  0  0  0  0  0  0  0
    2.5140    1.3330    5.0780 C   0  0  0  0  0  0  0  0  0  0  0  0
    1.8580    2.6030    4.6830 C   0  0  0  0  0  0  0  0  0  0  0  0
    1.7940    2.8600    3.4610 O   0  0  0  0  0  0  0  0  0  0  0  0
    1.8370    0.1400    3.0650 C   0  0  0  0  0  0  0  0  0  0  0  0
    0.9310   -0.5600    3.5850 O   0  0  0  0  0  0  0  0  0  0  0  0
    1.3260    3.4980    5.5730 O   0  0  0  0  0  0  0  0  0  0  0  0
    4.5200    0.7320    2.5430 H   0  0  0  0  0  0  0  0  0  0  0  0
    4.5990    1.8250    3.8110 H   0  0  0  0  0  0  0  0  0  0  0  0
    3.5470   -0.3310    4.2970 H   0  0  0  0  0  0  0  0  0  0  0  0
    1.7550    0.7460    5.6460 H   0  0  0  0  0  0  0  0  0  0  0  0
    3.3440    1.5110    5.8050 H   0  0  0  0  0  0  0  0  0  0  0  0
    0.4550    3.9850    5.3400 H   0  0  0  0  0  0  0  0  0  0  0  0
    1.6580    0.4800    1.6820 N   0  0  0  0  0  0  0  0  0  0  0  0
    0.4930    0.0240    0.9570 C   0  0  1  0  0  0  0  0  0  0  0  0
   -0.2060    1.0760    0.1700 C   0  0  0  0  0  0  0  0  0  0  0  0
   -0.7240    2.2140    0.9310 C   0  0  0  0  0  0  0  0  0  0  0  0
   -0.1550    3.4690    0.9610 C   0  0  0  0  0  0  0  0  0  0  0  0
   -0.8890    4.2460    1.7430 N   0  0  0  0  0  0  0  0  0  0  0  0
   -1.9490    3.5690    2.2560 C   0  0  0  0  0  0  0  0  0  0  0  0
   -2.9740    3.9390    3.1020 C   0  0  0  0  0  0  0  0  0  0  0  0
   -3.9000    2.9670    3.4180 C   0  0  0  0  0  0  0  0  0  0  0  0
   -3.8030    1.6880    2.9120 C   0  0  0  0  0  0  0  0  0  0  0  0
   -2.7870    1.3230    2.0740 C   0  0  0  0  0  0  0  0  0  0  0  0
   -1.8410    2.2790    1.7380 C   0  0  0  0  0  0  0  0  0  0  0  0
    1.0020   -0.9810   -0.0550 C   0  0  0  0  0  0  0  0  0  0  0  0
    2.2400   -1.2560   -0.1450 O   0  0  0  0  0  0  0  0  0  0  0  0
    2.3970    1.0660    1.2270 H   0  0  0  0  0  0  0  0  0  0  0  0
   -0.1730   -0.5110    1.6710 H   0  0  0  0  0  0  0  0  0  0  0  0
   -1.0570    0.6700   -0.4330 H   0  0  0  0  0  0  0  0  0  0  0  0
    0.5230    1.4340   -0.6050 H   0  0  0  0  0  0  0  0  0  0  0  0
    0.7500    3.8050    0.4400 H   0  0  0  0  0  0  0  0  0  0  0  0
   -0.7290    5.2590    1.9780 H   0  0  0  0  0  0  0  0  0  0  0  0
   -3.0360    4.9470    3.4910 H   0  0  0  0  0  0  0  0  0  0  0  0
   -4.7260    3.2360    4.0910 H   0  0  0  0  0  0  0  0  0  0  0  0
   -4.5380    0.9140    3.1620 H   0  0  0  0  0  0  0  0  0  0  0  0
   -2.6910    0.3140    1.6610 H   0  0  0  0  0  0  0  0  0  0  0  0
   -3.7320   -5.4580   -4.0500 N   0  0  0  0  0  0  0  0  0  0  0  0
   -2.3960   -5.9050   -3.8190 C   0  0  0  0  0  0  0  0  0  0  0  0
   -2.2200   -7.0670   -3.2900 N   0  0  0  0  0  0  0  0  0  0  0  0
   -1.3080   -5.0690   -4.1720 N   0  0  0  0  0  0  0  0  0  0  0  0
    0.0110   -5.3330   -3.7060 C   0  0  0  0  0  0  0  0  0  0  0  0
    0.2190   -5.1520   -2.2560 C   0  0  0  0  0  0  0  0  0  0  0  0
   -0.0590   -3.9000   -1.5750 C   0  0  0  0  0  0  0  0  0  0  0  0
    0.6220   -2.6230   -1.9170 C   0  0  2  0  0  0  0  0  0  0  0  0
    0.0810   -1.6240   -0.9150 N   0  0  0  0  0  0  0  0  0  0  0  0
    0.1860   -2.0710   -3.2080 C   0  0  0  0  0  0  0  0  0  0  0  0
   -0.6310   -1.0870   -3.2080 O   0  0  0  0  0  0  0  0  0  0  0  0
    0.5770   -2.5080   -4.4380 O   0  0  0  0  0  0  0  0  0  0  0  0
   -4.5440   -6.1320   -4.0720 H   0  0  0  0  0  0  0  0  0  0  0  0
   -3.9790   -4.4570   -4.2080 H   0  0  0  0  0  0  0  0  0  0  0  0
   -3.0180   -7.6740   -3.0350 H   0  0  0  0  0  0  0  0  0  0  0  0
   -1.4940   -4.2550   -4.7840 H   0  0  0  0  0  0  0  0  0  0  0  0
    0.1030   -6.5010   -3.8490 H   0  0  0  0  0  0  0  0  0  0  0  0
    0.8510   -4.9920   -4.2900 H   0  0  0  0  0  0  0  0  0  0  0  0
    1.2920   -5.4520   -1.9610 H   0  0  0  0  0  0  0  0  0  0  0  0
   -0.3610   -5.9680   -1.6840 H   0  0  0  0  0  0  0  0  0  0  0  0
   -1.1770   -3.6840   -1.4850 H   0  0  0  0  0  0  0  0  0  0  0  0
    0.1930   -4.0740   -0.4640 H   0  0  0  0  0  0  0  0  0  0  0  0
    1.7020   -2.6250   -1.7740 H   0  0  0  0  0  0  0  0  0  0  0  0
   -0.9390   -1.4390   -0.8840 H   0  0  0  0  0  0  0  0  0  0  0  0
  1 10  1  0  0  0  0
  1  2  1  0  0  0  0
  2 11  1  1  0  0  0
  2  3  1  0  0  0  0
  3 12  1  0  0  0  0
  3 13  1  0  0  0  0
  4  3  1  0  0  0  0
  4  8  1  0  0  0  0
  5  4  2  0  0  0  0
  6  7  2  0  0  0  0
  6  2  1  0  0  0  0
  9  1  1  0  0  0  0
 14  8  1  0  0  0  0
 15  6  1  0  0  0  0
 16 30  1  1  0  0  0
 16 15  1  0  0  0  0
 17 18  1  0  0  0  0
 17 16  1  0  0  0  0
 18 19  2  0  0  0  0
 18 26  1  0  0  0  0
 19 20  1  0  0  0  0
 20 34  1  0  0  0  0
 20 21  1  0  0  0  0
 21 22  1  0  0  0  0
 22 23  2  0  0  0  0
 22 35  1  0  0  0  0
 23 36  1  0  0  0  0
 24 37  1  0  0  0  0
 24 23  1  0  0  0  0
 25 24  2  0  0  0  0
 26 25  1  0  0  0  0
 26 21  2  0  0  0  0
 27 16  1  0  0  0  0
 28 27  2  0  0  0  0
 29 15  1  0  0  0  0
 31 17  1  0  0  0  0
 32 17  1  0  0  0  0
 33 19  1  0  0  0  0
 38 25  1  0  0  0  0
 39 40  1  0  0  0  0
 40 41  2  0  0  0  0
 41 53  1  0  0  0  0
 42 40  1  0  0  0  0
 42 43  1  0  0  0  0
 43 44  1  0  0  0  0
 44 57  1  0  0  0  0
 44 58  1  0  0  0  0
 44 45  1  0  0  0  0
 45 59  1  0  0  0  0
 45 60  1  0  0  0  0
 46 61  1  1  0  0  0
 46 45  1  0  0  0  0
 46 47  1  0  0  0  0
 47 62  1  0  0  0  0
 47 27  1  0  0  0  0
 48 46  1  0  0  0  0
 49 48  1  0  0  0  0
 50 48  2  0  0  0  0
 51 39  1  0  0  0  0
 52 39  1  0  0  0  0
 54 42  1  0  0  0  0
 55 43  1  0  0  0  0
 56 43  1  0  0  0  0
M  END
$$$$
