DWS.pdb
 OpenBabel07022418163D

 50 51  0  0  1  0  0  0  0  0999 V2000
    3.3020   -1.1370    0.7530 N   0  0  0  0  0  0  0  0  0  0  0  0
    3.4110   -0.6060    2.1010 C   0  0  1  0  0  0  0  0  0  0  0  0
    4.3810    0.5800    1.9720 C   0  0  0  0  0  0  0  0  0  0  0  0
    4.5910    1.2260    3.2870 C   0  0  0  0  0  0  0  0  0  0  0  0
    5.2800    0.6100    4.1550 O   0  0  0  0  0  0  0  0  0  0  0  0
    2.0920   -0.1020    2.5810 C   0  0  0  0  0  0  0  0  0  0  0  0
    1.9500    0.3770    3.7490 O   0  0  0  0  0  0  0  0  0  0  0  0
    4.0480    2.4780    3.5680 O   0  0  0  0  0  0  0  0  0  0  0  0
    3.2480   -2.1940    0.7660 H   0  0  0  0  0  0  0  0  0  0  0  0
    4.0940   -0.8500    0.1350 H   0  0  0  0  0  0  0  0  0  0  0  0
    3.8530   -1.3340    2.8050 H   0  0  0  0  0  0  0  0  0  0  0  0
    5.3470    0.1630    1.5850 H   0  0  0  0  0  0  0  0  0  0  0  0
    4.0030    1.3180    1.2410 H   0  0  0  0  0  0  0  0  0  0  0  0
    3.7530    2.6760    4.5130 H   0  0  0  0  0  0  0  0  0  0  0  0
    0.9980   -0.1740    1.6860 N   0  0  0  0  0  0  0  0  0  0  0  0
   -0.3330    0.2910    2.0490 C   0  0  1  0  0  0  0  0  0  0  0  0
   -0.6650    1.5400    1.2570 C   0  0  0  0  0  0  0  0  0  0  0  0
   -0.6210    1.3480   -0.2120 C   0  0  0  0  0  0  0  0  0  0  0  0
    0.5000    1.6410   -1.0300 C   0  0  0  0  0  0  0  0  0  0  0  0
    0.2150    1.3130   -2.3000 N   0  0  0  0  0  0  0  0  0  0  0  0
   -1.0310    0.8180   -2.3850 C   0  0  0  0  0  0  0  0  0  0  0  0
   -1.7640    0.3620   -3.4570 C   0  0  0  0  0  0  0  0  0  0  0  0
   -3.0580   -0.1000   -3.3140 C   0  0  0  0  0  0  0  0  0  0  0  0
   -3.5670   -0.0750   -2.0320 C   0  0  0  0  0  0  0  0  0  0  0  0
   -2.8310    0.3850   -0.9510 C   0  0  0  0  0  0  0  0  0  0  0  0
   -1.5400    0.8420   -1.1040 C   0  0  0  0  0  0  0  0  0  0  0  0
   -1.3070   -0.7930    1.9370 C   0  0  0  0  0  0  0  0  0  0  0  0
   -2.4910   -0.6250    2.3260 O   0  0  0  0  0  0  0  0  0  0  0  0
    1.1450   -0.5690    0.7460 H   0  0  0  0  0  0  0  0  0  0  0  0
   -0.2530    0.6470    3.1210 H   0  0  0  0  0  0  0  0  0  0  0  0
    0.0250    2.3760    1.5210 H   0  0  0  0  0  0  0  0  0  0  0  0
   -1.7100    1.8480    1.5450 H   0  0  0  0  0  0  0  0  0  0  0  0
    1.4090    2.0630   -0.6200 H   0  0  0  0  0  0  0  0  0  0  0  0
    0.8960    1.4410   -3.0810 H   0  0  0  0  0  0  0  0  0  0  0  0
   -1.3660    0.3390   -4.4780 H   0  0  0  0  0  0  0  0  0  0  0  0
   -3.6480   -0.4610   -4.1440 H   0  0  0  0  0  0  0  0  0  0  0  0
   -4.5780   -0.4280   -1.8840 H   0  0  0  0  0  0  0  0  0  0  0  0
   -3.2360    0.4190    0.0440 H   0  0  0  0  0  0  0  0  0  0  0  0
   -1.0540   -4.1300   -0.6300 O   0  0  0  0  0  0  0  0  0  0  0  0
   -2.2070   -3.5960   -0.0930 C   0  0  0  0  0  0  0  0  0  0  0  0
   -2.0080   -3.1140    1.3120 C   0  0  2  0  0  0  0  0  0  0  0  0
   -1.0010   -2.0920    1.3930 N   0  0  0  0  0  0  0  0  0  0  0  0
   -1.6270   -4.2580    2.1930 C   0  0  0  0  0  0  0  0  0  0  0  0
   -0.5810   -4.2630    2.8740 O   0  0  0  0  0  0  0  0  0  0  0  0
   -2.4520   -5.3670    2.2710 O   0  0  0  0  0  0  0  0  0  0  0  0
   -0.2340   -3.9340   -0.1340 H   0  0  0  0  0  0  0  0  0  0  0  0
   -2.5410   -2.7840   -0.7570 H   0  0  0  0  0  0  0  0  0  0  0  0
   -3.0170   -4.3660   -0.0780 H   0  0  0  0  0  0  0  0  0  0  0  0
   -2.9690   -2.7040    1.7030 H   0  0  0  0  0  0  0  0  0  0  0  0
   -0.0500   -2.2880    1.0610 H   0  0  0  0  0  0  0  0  0  0  0  0
  1  9  1  0  0  0  0
  1  2  1  0  0  0  0
  2  6  1  0  0  0  0
  2 11  1  1  0  0  0
  3  2  1  0  0  0  0
  3  4  1  0  0  0  0
  4  8  1  0  0  0  0
  4  5  2  0  0  0  0
  6  7  2  0  0  0  0
  8 14  1  0  0  0  0
 10  1  1  0  0  0  0
 12  3  1  0  0  0  0
 13  3  1  0  0  0  0
 15 16  1  0  0  0  0
 15  6  1  0  0  0  0
 16 30  1  1  0  0  0
 17 31  1  0  0  0  0
 17 32  1  0  0  0  0
 17 16  1  0  0  0  0
 18 17  1  0  0  0  0
 19 33  1  0  0  0  0
 19 18  2  0  0  0  0
 20 19  1  0  0  0  0
 21 20  1  0  0  0  0
 21 26  1  0  0  0  0
 22 23  1  0  0  0  0
 22 21  2  0  0  0  0
 23 24  2  0  0  0  0
 24 37  1  0  0  0  0
 24 25  1  0  0  0  0
 25 38  1  0  0  0  0
 26 25  2  0  0  0  0
 26 18  1  0  0  0  0
 27 16  1  0  0  0  0
 27 28  2  0  0  0  0
 29 15  1  0  0  0  0
 34 20  1  0  0  0  0
 35 22  1  0  0  0  0
 36 23  1  0  0  0  0
 39 46  1  0  0  0  0
 39 40  1  0  0  0  0
 40 48  1  0  0  0  0
 40 41  1  0  0  0  0
 41 42  1  0  0  0  0
 41 49  1  1  0  0  0
 41 43  1  0  0  0  0
 42 27  1  0  0  0  0
 43 45  2  0  0  0  0
 43 44  1  0  0  0  0
 47 40  1  0  0  0  0
 50 42  1  0  0  0  0
M  END
$$$$
