DWT.pdb
 OpenBabel07022418163D

 53 54  0  0  1  0  0  0  0  0999 V2000
    4.1030   -2.8120    1.7260 N   0  0  0  0  0  0  0  0  0  0  0  0
    3.0630   -1.9720    2.2880 C   0  0  1  0  0  0  0  0  0  0  0  0
    3.5960   -0.7340    2.9110 C   0  0  0  0  0  0  0  0  0  0  0  0
    4.3720    0.1530    2.0090 C   0  0  0  0  0  0  0  0  0  0  0  0
    5.2930   -0.2830    1.2350 O   0  0  0  0  0  0  0  0  0  0  0  0
    1.9540   -1.8180    1.3430 C   0  0  0  0  0  0  0  0  0  0  0  0
    2.0440   -2.2930    0.1730 O   0  0  0  0  0  0  0  0  0  0  0  0
    4.0970    1.5280    1.9880 O   0  0  0  0  0  0  0  0  0  0  0  0
    4.3450   -2.4870    0.7440 H   0  0  0  0  0  0  0  0  0  0  0  0
    3.7940   -3.8180    1.6480 H   0  0  0  0  0  0  0  0  0  0  0  0
    2.6300   -2.5670    3.1620 H   0  0  0  0  0  0  0  0  0  0  0  0
    4.3560   -1.0810    3.6790 H   0  0  0  0  0  0  0  0  0  0  0  0
    2.8430   -0.2040    3.4850 H   0  0  0  0  0  0  0  0  0  0  0  0
    4.4980    2.1430    1.3060 H   0  0  0  0  0  0  0  0  0  0  0  0
    0.7350   -1.1570    1.6590 N   0  0  0  0  0  0  0  0  0  0  0  0
   -0.3940   -0.9920    0.8150 C   0  0  1  0  0  0  0  0  0  0  0  0
   -0.2860    0.0740   -0.2310 C   0  0  0  0  0  0  0  0  0  0  0  0
   -0.0880    1.4260    0.3700 C   0  0  0  0  0  0  0  0  0  0  0  0
    1.0640    2.1790    0.4740 C   0  0  0  0  0  0  0  0  0  0  0  0
    0.7790    3.3370    1.0970 N   0  0  0  0  0  0  0  0  0  0  0  0
   -0.5400    3.4000    1.4240 C   0  0  0  0  0  0  0  0  0  0  0  0
   -1.3080    4.3550    2.0560 C   0  0  0  0  0  0  0  0  0  0  0  0
   -2.6560    4.1680    2.2650 C   0  0  0  0  0  0  0  0  0  0  0  0
   -3.1910    2.9610    1.8000 C   0  0  0  0  0  0  0  0  0  0  0  0
   -2.4120    2.0210    1.1740 C   0  0  0  0  0  0  0  0  0  0  0  0
   -1.0660    2.2100    0.9680 C   0  0  0  0  0  0  0  0  0  0  0  0
   -0.8940   -2.2990    0.2730 C   0  0  0  0  0  0  0  0  0  0  0  0
   -0.2590   -3.3110    0.6010 O   0  0  0  0  0  0  0  0  0  0  0  0
    0.7360   -0.7560    2.6570 H   0  0  0  0  0  0  0  0  0  0  0  0
   -1.2600   -0.6790    1.4960 H   0  0  0  0  0  0  0  0  0  0  0  0
    0.6000   -0.1210   -0.8880 H   0  0  0  0  0  0  0  0  0  0  0  0
   -1.1760    0.0540   -0.8960 H   0  0  0  0  0  0  0  0  0  0  0  0
    2.0250    1.8430    0.1000 H   0  0  0  0  0  0  0  0  0  0  0  0
    1.4600    4.0930    1.3060 H   0  0  0  0  0  0  0  0  0  0  0  0
   -0.8820    5.2790    2.4120 H   0  0  0  0  0  0  0  0  0  0  0  0
   -3.2870    4.8960    2.7570 H   0  0  0  0  0  0  0  0  0  0  0  0
   -4.2450    2.8030    1.9570 H   0  0  0  0  0  0  0  0  0  0  0  0
   -2.8170    1.0640    0.8050 H   0  0  0  0  0  0  0  0  0  0  0  0
   -2.3260   -2.6030   -3.3600 C   0  0  0  0  0  0  0  0  0  0  0  0
   -1.9940   -3.7760   -2.4980 C   0  0  1  0  0  0  0  0  0  0  0  0
   -0.6120   -3.9020   -2.4100 O   0  0  0  0  0  0  0  0  0  0  0  0
   -2.5740   -3.5510   -1.1180 C   0  0  2  0  0  0  0  0  0  0  0  0
   -2.0110   -2.3670   -0.5530 N   0  0  0  0  0  0  0  0  0  0  0  0
   -2.5210   -4.7640   -0.3020 C   0  0  0  0  0  0  0  0  0  0  0  0
   -2.1110   -4.9000    0.8450 O   0  0  0  0  0  0  0  0  0  0  0  0
   -3.0090   -5.9550   -0.9030 O   0  0  0  0  0  0  0  0  0  0  0  0
   -2.5900   -1.7060   -2.7580 H   0  0  0  0  0  0  0  0  0  0  0  0
   -1.4250   -2.3450   -3.9660 H   0  0  0  0  0  0  0  0  0  0  0  0
   -3.2080   -2.8440   -4.0070 H   0  0  0  0  0  0  0  0  0  0  0  0
   -2.3940   -4.7390   -2.8990 H   0  0  0  0  0  0  0  0  0  0  0  0
   -0.1900   -3.0360   -2.1500 H   0  0  0  0  0  0  0  0  0  0  0  0
   -3.7050   -3.3470   -1.2410 H   0  0  0  0  0  0  0  0  0  0  0  0
   -2.4920   -1.4350   -0.7740 H   0  0  0  0  0  0  0  0  0  0  0  0
  1  2  1  0  0  0  0
  2  3  1  0  0  0  0
  2 11  1  1  0  0  0
  3 13  1  0  0  0  0
  3 12  1  0  0  0  0
  4  3  1  0  0  0  0
  5  4  2  0  0  0  0
  6 15  1  0  0  0  0
  6  2  1  0  0  0  0
  7  6  2  0  0  0  0
  8  4  1  0  0  0  0
  9  1  1  0  0  0  0
 10  1  1  0  0  0  0
 14  8  1  0  0  0  0
 15 29  1  0  0  0  0
 16 30  1  1  0  0  0
 16 15  1  0  0  0  0
 17 18  1  0  0  0  0
 17 16  1  0  0  0  0
 18 19  2  0  0  0  0
 18 26  1  0  0  0  0
 19 20  1  0  0  0  0
 20 34  1  0  0  0  0
 20 21  1  0  0  0  0
 21 22  1  0  0  0  0
 22 23  2  0  0  0  0
 22 35  1  0  0  0  0
 23 36  1  0  0  0  0
 24 37  1  0  0  0  0
 24 23  1  0  0  0  0
 25 24  2  0  0  0  0
 26 25  1  0  0  0  0
 26 21  2  0  0  0  0
 27 28  2  0  0  0  0
 27 16  1  0  0  0  0
 31 17  1  0  0  0  0
 32 17  1  0  0  0  0
 33 19  1  0  0  0  0
 38 25  1  0  0  0  0
 39 47  1  0  0  0  0
 39 40  1  0  0  0  0
 40 50  1  6  0  0  0
 40 41  1  0  0  0  0
 40 42  1  0  0  0  0
 41 51  1  0  0  0  0
 42 52  1  6  0  0  0
 42 43  1  0  0  0  0
 42 44  1  0  0  0  0
 43 27  1  0  0  0  0
 44 45  1  0  0  0  0
 46 44  2  0  0  0  0
 48 39  1  0  0  0  0
 49 39  1  0  0  0  0
 53 43  1  0  0  0  0
M  END
$$$$
