DYA.pdb
 OpenBabel07022418163D

 46 46  0  0  1  0  0  0  0  0999 V2000
    2.1330   -2.0880    4.3330 N   0  0  0  0  0  0  0  0  0  0  0  0
    2.2430   -2.6130    2.9960 C   0  0  1  0  0  0  0  0  0  0  0  0
    1.4310   -3.8680    2.7820 C   0  0  0  0  0  0  0  0  0  0  0  0
    1.8530   -4.9400    3.7020 C   0  0  0  0  0  0  0  0  0  0  0  0
    2.7490   -4.7540    4.5620 O   0  0  0  0  0  0  0  0  0  0  0  0
    2.0010   -1.5960    1.9440 C   0  0  0  0  0  0  0  0  0  0  0  0
    2.9500   -0.7880    1.6520 O   0  0  0  0  0  0  0  0  0  0  0  0
    1.2820   -6.2000    3.6610 O   0  0  0  0  0  0  0  0  0  0  0  0
    1.6620   -2.7260    4.9980 H   0  0  0  0  0  0  0  0  0  0  0  0
    3.0560   -1.7310    4.6920 H   0  0  0  0  0  0  0  0  0  0  0  0
    3.3210   -2.9420    2.8150 H   0  0  0  0  0  0  0  0  0  0  0  0
    0.3370   -3.6670    2.7990 H   0  0  0  0  0  0  0  0  0  0  0  0
    1.6410   -4.2070    1.7430 H   0  0  0  0  0  0  0  0  0  0  0  0
    1.2470   -6.8200    4.4600 H   0  0  0  0  0  0  0  0  0  0  0  0
   -0.4230    2.8940   -5.1920 O   0  0  0  0  0  0  0  0  0  0  0  0
   -0.2540    1.9390   -4.1910 C   0  0  0  0  0  0  0  0  0  0  0  0
    0.9990    1.4020   -3.9400 C   0  0  0  0  0  0  0  0  0  0  0  0
    1.1790    0.4570   -2.9530 C   0  0  0  0  0  0  0  0  0  0  0  0
    0.1380   -0.0000   -2.1710 C   0  0  0  0  0  0  0  0  0  0  0  0
    0.3030   -1.0100   -1.1270 C   0  0  0  0  0  0  0  0  0  0  0  0
    0.6530   -0.3980    0.1810 C   0  0  2  0  0  0  0  0  0  0  0  0
    0.8040   -1.4310    1.2220 N   0  0  0  0  0  0  0  0  0  0  0  0
   -0.2750    0.6600    0.6470 C   0  0  0  0  0  0  0  0  0  0  0  0
   -0.4880    1.6910   -0.0370 O   0  0  0  0  0  0  0  0  0  0  0  0
   -1.1150    0.5410   -2.4280 C   0  0  0  0  0  0  0  0  0  0  0  0
   -1.2810    1.4790   -3.4110 C   0  0  0  0  0  0  0  0  0  0  0  0
   -0.7540    2.5470   -6.0910 H   0  0  0  0  0  0  0  0  0  0  0  0
    1.8280    1.7520   -4.5430 H   0  0  0  0  0  0  0  0  0  0  0  0
    2.1830    0.0410   -2.7690 H   0  0  0  0  0  0  0  0  0  0  0  0
   -0.6060   -1.6480   -1.0980 H   0  0  0  0  0  0  0  0  0  0  0  0
    1.1440   -1.6620   -1.4350 H   0  0  0  0  0  0  0  0  0  0  0  0
    1.6630    0.0860    0.0800 H   0  0  0  0  0  0  0  0  0  0  0  0
    0.0000   -2.0720    1.4510 H   0  0  0  0  0  0  0  0  0  0  0  0
   -1.9560    0.1980   -1.8300 H   0  0  0  0  0  0  0  0  0  0  0  0
   -2.2910    1.8840   -3.5860 H   0  0  0  0  0  0  0  0  0  0  0  0
   -3.3040    1.1320    2.1630 C   0  0  0  0  0  0  0  0  0  0  0  0
   -1.8820    1.6450    2.3190 C   0  0  2  0  0  0  0  0  0  0  0  0
   -0.9940    0.5990    1.8880 N   0  0  0  0  0  0  0  0  0  0  0  0
   -1.5880    2.2010    3.6350 C   0  0  0  0  0  0  0  0  0  0  0  0
   -2.2870    3.1230    4.0980 O   0  0  0  0  0  0  0  0  0  0  0  0
   -0.5400    1.7250    4.3930 O   0  0  0  0  0  0  0  0  0  0  0  0
   -3.3160    0.0100    2.2150 H   0  0  0  0  0  0  0  0  0  0  0  0
   -4.0040    1.5330    2.9120 H   0  0  0  0  0  0  0  0  0  0  0  0
   -3.7310    1.3850    1.1650 H   0  0  0  0  0  0  0  0  0  0  0  0
   -1.8180    2.4970    1.5730 H   0  0  0  0  0  0  0  0  0  0  0  0
   -0.8550   -0.2360    2.4740 H   0  0  0  0  0  0  0  0  0  0  0  0
  1 10  1  0  0  0  0
  1  9  1  0  0  0  0
  2 11  1  6  0  0  0
  2  1  1  0  0  0  0
  3 12  1  0  0  0  0
  3  2  1  0  0  0  0
  3  4  1  0  0  0  0
  4  5  2  0  0  0  0
  6  2  1  0  0  0  0
  7  6  2  0  0  0  0
  8  4  1  0  0  0  0
  8 14  1  0  0  0  0
 13  3  1  0  0  0  0
 15 16  1  0  0  0  0
 16 17  2  0  0  0  0
 16 26  1  0  0  0  0
 17 18  1  0  0  0  0
 18 29  1  0  0  0  0
 18 19  2  0  0  0  0
 19 20  1  0  0  0  0
 20 30  1  0  0  0  0
 20 21  1  0  0  0  0
 21 32  1  6  0  0  0
 21 23  1  0  0  0  0
 21 22  1  0  0  0  0
 22 33  1  0  0  0  0
 22  6  1  0  0  0  0
 23 38  1  0  0  0  0
 24 23  2  0  0  0  0
 25 19  1  0  0  0  0
 25 34  1  0  0  0  0
 26 25  2  0  0  0  0
 27 15  1  0  0  0  0
 28 17  1  0  0  0  0
 31 20  1  0  0  0  0
 35 26  1  0  0  0  0
 36 42  1  0  0  0  0
 36 37  1  0  0  0  0
 36 43  1  0  0  0  0
 37 45  1  6  0  0  0
 37 39  1  0  0  0  0
 38 37  1  0  0  0  0
 38 46  1  0  0  0  0
 39 40  2  0  0  0  0
 39 41  1  0  0  0  0
 44 36  1  0  0  0  0
M  END
$$$$
