DYC.pdb
 OpenBabel07022418163D

 47 47  0  0  1  0  0  0  0  0999 V2000
    2.6640   -2.8170   -1.3500 N   0  0  0  0  0  0  0  0  0  0  0  0
    1.2950   -2.2790   -1.1170 C   0  0  1  0  0  0  0  0  0  0  0  0
    0.4080   -3.4690   -1.2130 C   0  0  0  0  0  0  0  0  0  0  0  0
   -1.0150   -3.2730   -1.0280 C   0  0  0  0  0  0  0  0  0  0  0  0
   -1.5680   -3.4780    0.0780 O   0  0  0  0  0  0  0  0  0  0  0  0
    1.3440   -1.5830    0.1680 C   0  0  0  0  0  0  0  0  0  0  0  0
    2.3300   -1.7790    0.9280 O   0  0  0  0  0  0  0  0  0  0  0  0
   -1.8230   -2.8490   -2.0690 O   0  0  0  0  0  0  0  0  0  0  0  0
    2.9160   -3.4420   -0.5470 H   0  0  0  0  0  0  0  0  0  0  0  0
    2.5740   -3.4270   -2.2010 H   0  0  0  0  0  0  0  0  0  0  0  0
    1.1220   -1.6000   -1.9800 H   0  0  0  0  0  0  0  0  0  0  0  0
    0.6460   -3.9280   -2.2230 H   0  0  0  0  0  0  0  0  0  0  0  0
    0.7620   -4.2830   -0.5070 H   0  0  0  0  0  0  0  0  0  0  0  0
   -2.8350   -2.8860   -2.0400 H   0  0  0  0  0  0  0  0  0  0  0  0
    5.5380    2.5770   -1.0070 O   0  0  0  0  0  0  0  0  0  0  0  0
    4.3380    2.3060   -0.3580 C   0  0  0  0  0  0  0  0  0  0  0  0
    4.3070    2.1780    1.0250 C   0  0  0  0  0  0  0  0  0  0  0  0
    3.1110    1.9070    1.6820 C   0  0  0  0  0  0  0  0  0  0  0  0
    1.9360    1.7600    0.9800 C   0  0  0  0  0  0  0  0  0  0  0  0
    0.6810    1.4770    1.6590 C   0  0  0  0  0  0  0  0  0  0  0  0
    0.3880   -0.0100    1.8200 C   0  0  2  0  0  0  0  0  0  0  0  0
    0.3080   -0.6900    0.5660 N   0  0  0  0  0  0  0  0  0  0  0  0
   -0.8780   -0.0750    2.5730 C   0  0  0  0  0  0  0  0  0  0  0  0
   -0.9480    0.4340    3.7520 O   0  0  0  0  0  0  0  0  0  0  0  0
    1.9590    1.8850   -0.3910 C   0  0  0  0  0  0  0  0  0  0  0  0
    3.1370    2.1510   -1.0180 C   0  0  0  0  0  0  0  0  0  0  0  0
    5.8550    2.0880   -1.8280 H   0  0  0  0  0  0  0  0  0  0  0  0
    5.2240    2.2920    1.5870 H   0  0  0  0  0  0  0  0  0  0  0  0
    3.1710    1.8210    2.7680 H   0  0  0  0  0  0  0  0  0  0  0  0
   -0.1400    1.9880    1.1110 H   0  0  0  0  0  0  0  0  0  0  0  0
    0.6570    1.8960    2.6920 H   0  0  0  0  0  0  0  0  0  0  0  0
    1.2160   -0.4420    2.4280 H   0  0  0  0  0  0  0  0  0  0  0  0
   -0.5150   -0.5210   -0.0440 H   0  0  0  0  0  0  0  0  0  0  0  0
    1.0620    1.7800   -1.0090 H   0  0  0  0  0  0  0  0  0  0  0  0
    3.1610    2.2510   -2.1040 H   0  0  0  0  0  0  0  0  0  0  0  0
   -2.0740   -0.6610    2.1160 N   0  0  0  0  0  0  0  0  0  0  0  0
   -3.2960   -0.6920    2.9120 C   0  0  1  0  0  0  0  0  0  0  0  0
   -4.4410   -0.0080    2.2310 C   0  0  0  0  0  0  0  0  0  0  0  0
   -4.8540   -0.7650    0.6400 S   0  0  0  0  0  0  0  0  0  0  0  0
   -3.6520   -2.0910    3.2240 C   0  0  0  0  0  0  0  0  0  0  0  0
   -2.9100   -3.0110    2.8140 O   0  0  0  0  0  0  0  0  0  0  0  0
   -4.7730   -2.4470    3.9520 O   0  0  0  0  0  0  0  0  0  0  0  0
   -2.0730   -1.0780    1.1650 H   0  0  0  0  0  0  0  0  0  0  0  0
   -3.1370   -0.1530    3.8860 H   0  0  0  0  0  0  0  0  0  0  0  0
   -4.2210    1.0760    2.0980 H   0  0  0  0  0  0  0  0  0  0  0  0
   -5.3040   -0.0550    2.9340 H   0  0  0  0  0  0  0  0  0  0  0  0
   -5.6920    0.1240   -0.0790 H   0  0  0  0  0  0  0  0  0  0  0  0
  1  2  1  0  0  0  0
  1  9  1  0  0  0  0
  2 11  1  6  0  0  0
  2  6  1  0  0  0  0
  3  2  1  0  0  0  0
  3  4  1  0  0  0  0
  3 13  1  0  0  0  0
  4  5  2  0  0  0  0
  6 22  1  0  0  0  0
  6  7  2  0  0  0  0
  8 14  1  0  0  0  0
  8  4  1  0  0  0  0
 10  1  1  0  0  0  0
 12  3  1  0  0  0  0
 15 16  1  0  0  0  0
 16 17  1  0  0  0  0
 17 28  1  0  0  0  0
 17 18  2  0  0  0  0
 18 29  1  0  0  0  0
 19 20  1  0  0  0  0
 19 18  1  0  0  0  0
 20 21  1  0  0  0  0
 20 31  1  0  0  0  0
 21 32  1  1  0  0  0
 21 23  1  0  0  0  0
 22 21  1  0  0  0  0
 23 24  2  0  0  0  0
 25 19  2  0  0  0  0
 26 25  1  0  0  0  0
 26 16  2  0  0  0  0
 27 15  1  0  0  0  0
 30 20  1  0  0  0  0
 33 22  1  0  0  0  0
 34 25  1  0  0  0  0
 35 26  1  0  0  0  0
 36 23  1  0  0  0  0
 36 37  1  0  0  0  0
 37 40  1  0  0  0  0
 37 44  1  1  0  0  0
 38 37  1  0  0  0  0
 38 46  1  0  0  0  0
 39 38  1  0  0  0  0
 40 42  1  0  0  0  0
 41 40  2  0  0  0  0
 43 36  1  0  0  0  0
 45 38  1  0  0  0  0
 47 39  1  0  0  0  0
M  END
$$$$
