DYF.pdb
 OpenBabel07022418163D

 56 57  0  0  1  0  0  0  0  0999 V2000
   -0.1370    2.2260    2.2020 N   0  0  0  0  0  0  0  0  0  0  0  0
    1.1380    2.0250    2.8330 C   0  0  1  0  0  0  0  0  0  0  0  0
    0.9500    2.1370    4.3310 C   0  0  0  0  0  0  0  0  0  0  0  0
    0.4330    3.4380    4.7480 C   0  0  0  0  0  0  0  0  0  0  0  0
    0.1840    4.3380    3.9190 O   0  0  0  0  0  0  0  0  0  0  0  0
    1.6040    0.6330    2.5660 C   0  0  0  0  0  0  0  0  0  0  0  0
    2.7240    0.2520    3.0420 O   0  0  0  0  0  0  0  0  0  0  0  0
    0.2120    3.6810    6.0920 O   0  0  0  0  0  0  0  0  0  0  0  0
   -0.8790    1.9520    2.8710 H   0  0  0  0  0  0  0  0  0  0  0  0
   -0.2430    3.2170    1.8870 H   0  0  0  0  0  0  0  0  0  0  0  0
    1.9190    2.7150    2.4650 H   0  0  0  0  0  0  0  0  0  0  0  0
    1.9310    1.8790    4.8150 H   0  0  0  0  0  0  0  0  0  0  0  0
    0.2190    1.3220    4.6090 H   0  0  0  0  0  0  0  0  0  0  0  0
    0.3120    4.6250    6.4830 H   0  0  0  0  0  0  0  0  0  0  0  0
   -4.9010   -3.1210    0.5830 O   0  0  0  0  0  0  0  0  0  0  0  0
   -3.5570   -3.0470    0.9210 C   0  0  0  0  0  0  0  0  0  0  0  0
   -2.6010   -3.7030    0.1850 C   0  0  0  0  0  0  0  0  0  0  0  0
   -1.2760   -3.6100    0.5460 C   0  0  0  0  0  0  0  0  0  0  0  0
   -0.8490   -2.8770    1.6330 C   0  0  0  0  0  0  0  0  0  0  0  0
    0.5200   -2.7290    2.0830 C   0  0  0  0  0  0  0  0  0  0  0  0
    1.3360   -1.6200    1.5660 C   0  0  2  0  0  0  0  0  0  0  0  0
    0.8720   -0.3020    1.8070 N   0  0  0  0  0  0  0  0  0  0  0  0
    1.7240   -1.8360    0.1250 C   0  0  0  0  0  0  0  0  0  0  0  0
    2.1310   -2.9650   -0.2540 O   0  0  0  0  0  0  0  0  0  0  0  0
   -1.8410   -2.2310    2.3480 C   0  0  0  0  0  0  0  0  0  0  0  0
   -3.1660   -2.3100    2.0070 C   0  0  0  0  0  0  0  0  0  0  0  0
   -5.2720   -2.8030   -0.3100 H   0  0  0  0  0  0  0  0  0  0  0  0
   -2.9020   -4.2880   -0.6740 H   0  0  0  0  0  0  0  0  0  0  0  0
   -0.5490   -4.1220   -0.0310 H   0  0  0  0  0  0  0  0  0  0  0  0
    1.0690   -3.6880    1.8400 H   0  0  0  0  0  0  0  0  0  0  0  0
    0.5080   -2.7310    3.2140 H   0  0  0  0  0  0  0  0  0  0  0  0
    2.3430   -1.7150    2.0880 H   0  0  0  0  0  0  0  0  0  0  0  0
   -0.0450    0.0020    1.4140 H   0  0  0  0  0  0  0  0  0  0  0  0
   -1.5910   -1.6260    3.2270 H   0  0  0  0  0  0  0  0  0  0  0  0
   -3.9240   -1.7910    2.5890 H   0  0  0  0  0  0  0  0  0  0  0  0
    1.6390   -0.7770   -0.8210 N   0  0  0  0  0  0  0  0  0  0  0  0
    2.0010   -0.9360   -2.2020 C   0  0  1  0  0  0  0  0  0  0  0  0
    0.9650   -0.4700   -3.1700 C   0  0  0  0  0  0  0  0  0  0  0  0
   -0.3340   -1.1290   -3.0970 C   0  0  0  0  0  0  0  0  0  0  0  0
   -1.3120   -0.6140   -2.2680 C   0  0  0  0  0  0  0  0  0  0  0  0
   -2.5710   -1.1910   -2.1560 C   0  0  0  0  0  0  0  0  0  0  0  0
   -2.8600   -2.3160   -2.8970 C   0  0  0  0  0  0  0  0  0  0  0  0
   -1.9100   -2.8590   -3.7340 C   0  0  0  0  0  0  0  0  0  0  0  0
   -0.6720   -2.2600   -3.8190 C   0  0  0  0  0  0  0  0  0  0  0  0
    3.2540   -0.2100   -2.5360 C   0  0  0  0  0  0  0  0  0  0  0  0
    3.8790    0.4470   -1.6810 O   0  0  0  0  0  0  0  0  0  0  0  0
    3.7240   -0.2730   -3.8290 O   0  0  0  0  0  0  0  0  0  0  0  0
    1.2860    0.1420   -0.4230 H   0  0  0  0  0  0  0  0  0  0  0  0
    2.2700   -2.0240   -2.3350 H   0  0  0  0  0  0  0  0  0  0  0  0
    1.3500   -0.4810   -4.2120 H   0  0  0  0  0  0  0  0  0  0  0  0
    0.8070    0.6280   -2.9520 H   0  0  0  0  0  0  0  0  0  0  0  0
   -1.1380    0.2690   -1.6630 H   0  0  0  0  0  0  0  0  0  0  0  0
   -3.3110   -0.7600   -1.4980 H   0  0  0  0  0  0  0  0  0  0  0  0
   -3.8340   -2.7840   -2.8280 H   0  0  0  0  0  0  0  0  0  0  0  0
   -2.1530   -3.7540   -4.3170 H   0  0  0  0  0  0  0  0  0  0  0  0
    0.0490   -2.6880   -4.4670 H   0  0  0  0  0  0  0  0  0  0  0  0
  1  2  1  0  0  0  0
  1  9  1  0  0  0  0
  2 11  1  6  0  0  0
  2  3  1  0  0  0  0
  3 13  1  0  0  0  0
  3  4  1  0  0  0  0
  3 12  1  0  0  0  0
  4  8  1  0  0  0  0
  5  4  2  0  0  0  0
  6  2  1  0  0  0  0
  6  7  2  0  0  0  0
  8 14  1  0  0  0  0
 10  1  1  0  0  0  0
 15 16  1  0  0  0  0
 16 26  1  0  0  0  0
 17 18  1  0  0  0  0
 17 16  2  0  0  0  0
 18 19  2  0  0  0  0
 19 20  1  0  0  0  0
 19 25  1  0  0  0  0
 20 31  1  0  0  0  0
 21 22  1  0  0  0  0
 21 20  1  0  0  0  0
 21 32  1  1  0  0  0
 22  6  1  0  0  0  0
 23 21  1  0  0  0  0
 24 23  2  0  0  0  0
 25 34  1  0  0  0  0
 26 25  2  0  0  0  0
 26 35  1  0  0  0  0
 27 15  1  0  0  0  0
 28 17  1  0  0  0  0
 29 18  1  0  0  0  0
 30 20  1  0  0  0  0
 33 22  1  0  0  0  0
 36 48  1  0  0  0  0
 36 23  1  0  0  0  0
 37 49  1  6  0  0  0
 37 36  1  0  0  0  0
 38 39  1  0  0  0  0
 38 51  1  0  0  0  0
 38 37  1  0  0  0  0
 39 40  1  0  0  0  0
 40 41  2  0  0  0  0
 40 52  1  0  0  0  0
 41 53  1  0  0  0  0
 42 54  1  0  0  0  0
 42 41  1  0  0  0  0
 43 42  2  0  0  0  0
 44 43  1  0  0  0  0
 44 39  2  0  0  0  0
 45 37  1  0  0  0  0
 45 46  1  0  0  0  0
 47 45  2  0  0  0  0
 50 38  1  0  0  0  0
 55 43  1  0  0  0  0
 56 44  1  0  0  0  0
M  END
$$$$
