DYI.pdb
 OpenBabel07022418163D

 55 55  0  0  1  0  0  0  0  0999 V2000
    2.0920    0.0980    4.9540 N   0  0  0  0  0  0  0  0  0  0  0  0
    0.7990    0.7300    4.8360 C   0  0  1  0  0  0  0  0  0  0  0  0
    0.7980    2.1200    5.3800 C   0  0  0  0  0  0  0  0  0  0  0  0
    1.7770    2.9340    4.6380 C   0  0  0  0  0  0  0  0  0  0  0  0
    2.4530    2.4570    3.7180 O   0  0  0  0  0  0  0  0  0  0  0  0
    0.2730    0.6620    3.4510 C   0  0  0  0  0  0  0  0  0  0  0  0
   -0.8480    1.1820    3.2330 O   0  0  0  0  0  0  0  0  0  0  0  0
    1.9140    4.2690    5.0100 O   0  0  0  0  0  0  0  0  0  0  0  0
    1.9850   -0.9410    4.7930 H   0  0  0  0  0  0  0  0  0  0  0  0
    2.3820    0.1920    5.9560 H   0  0  0  0  0  0  0  0  0  0  0  0
    0.1000    0.1250    5.4800 H   0  0  0  0  0  0  0  0  0  0  0  0
   -0.2420    2.5300    5.2230 H   0  0  0  0  0  0  0  0  0  0  0  0
    0.9980    2.0840    6.4690 H   0  0  0  0  0  0  0  0  0  0  0  0
    2.4360    4.8840    4.4240 H   0  0  0  0  0  0  0  0  0  0  0  0
   -0.0610    1.5990   -5.1940 O   0  0  0  0  0  0  0  0  0  0  0  0
    0.2560    1.4400   -3.8450 C   0  0  0  0  0  0  0  0  0  0  0  0
    1.1680    0.4690   -3.4950 C   0  0  0  0  0  0  0  0  0  0  0  0
    1.4810    0.3130   -2.1460 C   0  0  0  0  0  0  0  0  0  0  0  0
    0.9100    1.0930   -1.1720 C   0  0  0  0  0  0  0  0  0  0  0  0
    1.2650    0.9110    0.2360 C   0  0  0  0  0  0  0  0  0  0  0  0
    0.3920    0.0200    1.0530 C   0  0  2  0  0  0  0  0  0  0  0  0
    0.9920    0.0420    2.4100 N   0  0  0  0  0  0  0  0  0  0  0  0
    0.2520   -1.3620    0.6080 C   0  0  0  0  0  0  0  0  0  0  0  0
    0.7330   -2.2960    1.3440 O   0  0  0  0  0  0  0  0  0  0  0  0
   -0.0020    2.0650   -1.5170 C   0  0  0  0  0  0  0  0  0  0  0  0
   -0.3090    2.2150   -2.8540 C   0  0  0  0  0  0  0  0  0  0  0  0
    0.6450    1.4980   -5.9250 H   0  0  0  0  0  0  0  0  0  0  0  0
    1.6130   -0.1410   -4.2690 H   0  0  0  0  0  0  0  0  0  0  0  0
    2.2040   -0.4640   -1.9240 H   0  0  0  0  0  0  0  0  0  0  0  0
    1.3050    1.9570    0.6740 H   0  0  0  0  0  0  0  0  0  0  0  0
    2.3490    0.5850    0.3350 H   0  0  0  0  0  0  0  0  0  0  0  0
   -0.5830    0.5420    1.1540 H   0  0  0  0  0  0  0  0  0  0  0  0
    1.9400   -0.4020    2.5730 H   0  0  0  0  0  0  0  0  0  0  0  0
   -0.4760    2.7050   -0.7560 H   0  0  0  0  0  0  0  0  0  0  0  0
   -1.0320    2.9800   -3.1610 H   0  0  0  0  0  0  0  0  0  0  0  0
   -4.0390   -3.8620    0.2320 C   0  0  0  0  0  0  0  0  0  0  0  0
   -2.5920   -3.4450    0.3960 C   0  0  0  0  0  0  0  0  0  0  0  0
   -1.9150   -3.6600   -0.9380 C   0  0  2  0  0  0  0  0  0  0  0  0
   -2.0370   -5.1240   -1.2710 C   0  0  0  0  0  0  0  0  0  0  0  0
   -0.4600   -3.2340   -0.9070 C   0  0  2  0  0  0  0  0  0  0  0  0
   -0.3740   -1.8300   -0.5770 N   0  0  0  0  0  0  0  0  0  0  0  0
    0.1420   -3.5950   -2.2050 C   0  0  0  0  0  0  0  0  0  0  0  0
    0.1330   -4.7980   -2.6110 O   0  0  0  0  0  0  0  0  0  0  0  0
    0.7460   -2.6960   -3.0660 O   0  0  0  0  0  0  0  0  0  0  0  0
   -4.3190   -3.9190   -0.8410 H   0  0  0  0  0  0  0  0  0  0  0  0
   -4.7330   -3.1130    0.6930 H   0  0  0  0  0  0  0  0  0  0  0  0
   -4.2340   -4.8130    0.7680 H   0  0  0  0  0  0  0  0  0  0  0  0
   -2.5970   -2.3860    0.7040 H   0  0  0  0  0  0  0  0  0  0  0  0
   -2.1580   -4.0420    1.2070 H   0  0  0  0  0  0  0  0  0  0  0  0
   -2.4990   -3.0890   -1.6910 H   0  0  0  0  0  0  0  0  0  0  0  0
   -2.9400   -5.5770   -0.8040 H   0  0  0  0  0  0  0  0  0  0  0  0
   -2.1300   -5.3210   -2.3580 H   0  0  0  0  0  0  0  0  0  0  0  0
   -1.1710   -5.7210   -0.9070 H   0  0  0  0  0  0  0  0  0  0  0  0
    0.0240   -3.8460   -0.1190 H   0  0  0  0  0  0  0  0  0  0  0  0
   -0.7860   -1.1230   -1.2090 H   0  0  0  0  0  0  0  0  0  0  0  0
  1 10  1  0  0  0  0
  2  1  1  0  0  0  0
  2  3  1  0  0  0  0
  2 11  1  1  0  0  0
  3 13  1  0  0  0  0
  4  8  1  0  0  0  0
  4  3  1  0  0  0  0
  5  4  2  0  0  0  0
  6  2  1  0  0  0  0
  7  6  2  0  0  0  0
  9  1  1  0  0  0  0
 12  3  1  0  0  0  0
 14  8  1  0  0  0  0
 15 16  1  0  0  0  0
 16 17  2  0  0  0  0
 16 26  1  0  0  0  0
 17 18  1  0  0  0  0
 18 29  1  0  0  0  0
 18 19  2  0  0  0  0
 19 20  1  0  0  0  0
 20 31  1  0  0  0  0
 20 30  1  0  0  0  0
 20 21  1  0  0  0  0
 21 32  1  1  0  0  0
 21 22  1  0  0  0  0
 22 33  1  0  0  0  0
 22  6  1  0  0  0  0
 23 21  1  0  0  0  0
 23 24  2  0  0  0  0
 25 19  1  0  0  0  0
 25 34  1  0  0  0  0
 26 25  2  0  0  0  0
 27 15  1  0  0  0  0
 28 17  1  0  0  0  0
 35 26  1  0  0  0  0
 36 37  1  0  0  0  0
 36 46  1  0  0  0  0
 36 47  1  0  0  0  0
 37 48  1  0  0  0  0
 37 49  1  0  0  0  0
 38 50  1  6  0  0  0
 38 40  1  0  0  0  0
 38 37  1  0  0  0  0
 39 38  1  0  0  0  0
 39 53  1  0  0  0  0
 39 51  1  0  0  0  0
 40 41  1  0  0  0  0
 40 54  1  1  0  0  0
 41 23  1  0  0  0  0
 42 40  1  0  0  0  0
 43 42  1  0  0  0  0
 44 42  2  0  0  0  0
 45 36  1  0  0  0  0
 52 39  1  0  0  0  0
 55 41  1  0  0  0  0
M  END
$$$$
