DYK.pdb
 OpenBabel07022418163D

 57 57  0  0  1  0  0  0  0  0999 V2000
    4.1960   -0.4020    4.5140 N   0  0  0  0  0  0  0  0  0  0  0  0
    4.2710   -0.1180    3.0650 C   0  0  1  0  0  0  0  0  0  0  0  0
    4.7700   -1.2850    2.2860 C   0  0  0  0  0  0  0  0  0  0  0  0
    4.9450   -1.0000    0.8460 C   0  0  0  0  0  0  0  0  0  0  0  0
    4.8880    0.1840    0.4320 O   0  0  0  0  0  0  0  0  0  0  0  0
    2.8530    0.2640    2.7450 C   0  0  0  0  0  0  0  0  0  0  0  0
    2.2070    0.9950    3.5810 O   0  0  0  0  0  0  0  0  0  0  0  0
    5.1730   -2.0020   -0.0820 O   0  0  0  0  0  0  0  0  0  0  0  0
    5.1110   -0.7800    4.8500 H   0  0  0  0  0  0  0  0  0  0  0  0
    3.9590    0.5180    4.9550 H   0  0  0  0  0  0  0  0  0  0  0  0
    4.9700    0.7350    2.9680 H   0  0  0  0  0  0  0  0  0  0  0  0
    5.7560   -1.6200    2.7250 H   0  0  0  0  0  0  0  0  0  0  0  0
    4.1060   -2.1690    2.4300 H   0  0  0  0  0  0  0  0  0  0  0  0
    4.9420   -1.9300   -1.0670 H   0  0  0  0  0  0  0  0  0  0  0  0
   -3.9720    3.2670   -1.9800 O   0  0  0  0  0  0  0  0  0  0  0  0
   -2.7980    2.7170   -1.4800 C   0  0  0  0  0  0  0  0  0  0  0  0
   -2.0510    3.4160   -0.5530 C   0  0  0  0  0  0  0  0  0  0  0  0
   -0.8880    2.8840   -0.0500 C   0  0  0  0  0  0  0  0  0  0  0  0
   -0.4070    1.6460   -0.4320 C   0  0  0  0  0  0  0  0  0  0  0  0
    0.8310    1.0900    0.0840 C   0  0  0  0  0  0  0  0  0  0  0  0
    0.7580    0.3170    1.3620 C   0  0  2  0  0  0  0  0  0  0  0  0
    2.1630   -0.1150    1.6050 N   0  0  0  0  0  0  0  0  0  0  0  0
   -0.1060   -0.8620    1.3500 C   0  0  0  0  0  0  0  0  0  0  0  0
    0.4130   -2.0010    1.4170 O   0  0  0  0  0  0  0  0  0  0  0  0
   -1.1700    0.9480   -1.3690 C   0  0  0  0  0  0  0  0  0  0  0  0
   -2.3370    1.4810   -1.8750 C   0  0  0  0  0  0  0  0  0  0  0  0
   -3.8830    3.8710   -2.7920 H   0  0  0  0  0  0  0  0  0  0  0  0
   -2.4190    4.3970   -0.2420 H   0  0  0  0  0  0  0  0  0  0  0  0
   -0.2960    3.4240    0.6760 H   0  0  0  0  0  0  0  0  0  0  0  0
    1.5930    1.9060    0.2610 H   0  0  0  0  0  0  0  0  0  0  0  0
    1.3280    0.4470   -0.7010 H   0  0  0  0  0  0  0  0  0  0  0  0
    0.4670    0.9450    2.2280 H   0  0  0  0  0  0  0  0  0  0  0  0
    2.5260   -0.7250    0.8580 H   0  0  0  0  0  0  0  0  0  0  0  0
   -0.8100   -0.0280   -1.6840 H   0  0  0  0  0  0  0  0  0  0  0  0
   -2.9110    0.9150   -2.6030 H   0  0  0  0  0  0  0  0  0  0  0  0
   -1.5100   -0.8010    1.2680 N   0  0  0  0  0  0  0  0  0  0  0  0
   -2.4460   -1.8570    1.2230 C   0  0  1  0  0  0  0  0  0  0  0  0
   -1.9540   -3.2050    0.7860 C   0  0  0  0  0  0  0  0  0  0  0  0
   -1.4400   -3.2310   -0.6250 C   0  0  0  0  0  0  0  0  0  0  0  0
   -2.5510   -2.8610   -1.6310 C   0  0  0  0  0  0  0  0  0  0  0  0
   -1.8860   -2.9500   -3.0120 C   0  0  0  0  0  0  0  0  0  0  0  0
   -1.4220   -4.3130   -3.1660 N   0  0  0  0  0  0  0  0  0  0  0  0
   -3.1660   -1.9620    2.4920 C   0  0  0  0  0  0  0  0  0  0  0  0
   -4.0590   -2.8330    2.7070 O   0  0  0  0  0  0  0  0  0  0  0  0
   -2.8820   -1.0840    3.5240 O   0  0  0  0  0  0  0  0  0  0  0  0
   -1.9300    0.1810    1.2480 H   0  0  0  0  0  0  0  0  0  0  0  0
   -3.2490   -1.6370    0.4130 H   0  0  0  0  0  0  0  0  0  0  0  0
   -2.8780   -3.8610    0.7690 H   0  0  0  0  0  0  0  0  0  0  0  0
   -1.2890   -3.6930    1.5050 H   0  0  0  0  0  0  0  0  0  0  0  0
   -1.1230   -4.2770   -0.8790 H   0  0  0  0  0  0  0  0  0  0  0  0
   -0.6470   -2.5020   -0.8650 H   0  0  0  0  0  0  0  0  0  0  0  0
   -3.3990   -3.5380   -1.5900 H   0  0  0  0  0  0  0  0  0  0  0  0
   -2.7670   -1.7970   -1.4950 H   0  0  0  0  0  0  0  0  0  0  0  0
   -2.6620   -2.7180   -3.7760 H   0  0  0  0  0  0  0  0  0  0  0  0
   -1.0170   -2.2850   -3.0800 H   0  0  0  0  0  0  0  0  0  0  0  0
   -2.0650   -4.9260   -2.6280 H   0  0  0  0  0  0  0  0  0  0  0  0
   -0.4490   -4.3900   -2.8000 H   0  0  0  0  0  0  0  0  0  0  0  0
  1  9  1  0  0  0  0
  1 10  1  0  0  0  0
  2 11  1  6  0  0  0
  2  1  1  0  0  0  0
  3 13  1  0  0  0  0
  3 12  1  0  0  0  0
  3  2  1  0  0  0  0
  4  3  1  0  0  0  0
  5  4  2  0  0  0  0
  6  2  1  0  0  0  0
  6  7  2  0  0  0  0
  8  4  1  0  0  0  0
 14  8  1  0  0  0  0
 15 16  1  0  0  0  0
 16 17  1  0  0  0  0
 17 28  1  0  0  0  0
 17 18  2  0  0  0  0
 18 29  1  0  0  0  0
 19 18  1  0  0  0  0
 19 20  1  0  0  0  0
 20 30  1  0  0  0  0
 20 21  1  0  0  0  0
 21 22  1  0  0  0  0
 21 32  1  1  0  0  0
 22  6  1  0  0  0  0
 23 21  1  0  0  0  0
 23 24  2  0  0  0  0
 25 19  2  0  0  0  0
 26 16  2  0  0  0  0
 26 25  1  0  0  0  0
 27 15  1  0  0  0  0
 31 20  1  0  0  0  0
 33 22  1  0  0  0  0
 34 25  1  0  0  0  0
 35 26  1  0  0  0  0
 36 23  1  0  0  0  0
 37 47  1  6  0  0  0
 37 36  1  0  0  0  0
 37 43  1  0  0  0  0
 38 37  1  0  0  0  0
 38 49  1  0  0  0  0
 39 38  1  0  0  0  0
 40 52  1  0  0  0  0
 40 53  1  0  0  0  0
 40 39  1  0  0  0  0
 41 40  1  0  0  0  0
 42 41  1  0  0  0  0
 42 57  1  0  0  0  0
 42 56  1  0  0  0  0
 43 44  2  0  0  0  0
 43 45  1  0  0  0  0
 46 36  1  0  0  0  0
 48 38  1  0  0  0  0
 50 39  1  0  0  0  0
 51 39  1  0  0  0  0
 54 41  1  0  0  0  0
 55 41  1  0  0  0  0
M  END
$$$$
