DYL.pdb
 OpenBabel07022418163D

 55 55  0  0  1  0  0  0  0  0999 V2000
    3.3630    1.0730    4.0050 N   0  0  0  0  0  0  0  0  0  0  0  0
    2.1090    1.3670    3.3960 C   0  0  1  0  0  0  0  0  0  0  0  0
    1.9730    2.8070    3.0650 C   0  0  0  0  0  0  0  0  0  0  0  0
    3.0270    3.2380    2.1520 C   0  0  0  0  0  0  0  0  0  0  0  0
    3.9130    2.4240    1.8000 O   0  0  0  0  0  0  0  0  0  0  0  0
    1.7650    0.4280    2.3000 C   0  0  0  0  0  0  0  0  0  0  0  0
    2.5530   -0.4950    2.0580 O   0  0  0  0  0  0  0  0  0  0  0  0
    3.0890    4.5230    1.6540 O   0  0  0  0  0  0  0  0  0  0  0  0
    3.6050    0.0720    3.7740 H   0  0  0  0  0  0  0  0  0  0  0  0
    3.3110    1.1430    5.0330 H   0  0  0  0  0  0  0  0  0  0  0  0
    1.3040    1.1590    4.1860 H   0  0  0  0  0  0  0  0  0  0  0  0
    0.9530    3.0930    2.7370 H   0  0  0  0  0  0  0  0  0  0  0  0
    2.1300    3.3730    4.0290 H   0  0  0  0  0  0  0  0  0  0  0  0
    3.8420    4.8240    1.0330 H   0  0  0  0  0  0  0  0  0  0  0  0
    3.3810    3.5260   -3.5840 O   0  0  0  0  0  0  0  0  0  0  0  0
    2.8640    2.4730   -2.8180 C   0  0  0  0  0  0  0  0  0  0  0  0
    3.5600    1.9970   -1.7290 C   0  0  0  0  0  0  0  0  0  0  0  0
    3.0290    0.9420   -0.9720 C   0  0  0  0  0  0  0  0  0  0  0  0
    1.8380    0.3580   -1.2720 C   0  0  0  0  0  0  0  0  0  0  0  0
    1.1970   -0.7360   -0.5200 C   0  0  0  0  0  0  0  0  0  0  0  0
    0.1560   -0.2920    0.4730 C   0  0  2  0  0  0  0  0  0  0  0  0
    0.5790    0.5480    1.5350 N   0  0  0  0  0  0  0  0  0  0  0  0
   -0.7310   -1.3980    0.8930 C   0  0  0  0  0  0  0  0  0  0  0  0
   -1.0130   -1.4890    2.1120 O   0  0  0  0  0  0  0  0  0  0  0  0
    1.1570    0.8700   -2.3900 C   0  0  0  0  0  0  0  0  0  0  0  0
    1.6550    1.9030   -3.1480 C   0  0  0  0  0  0  0  0  0  0  0  0
    3.2930    3.4780   -4.5990 H   0  0  0  0  0  0  0  0  0  0  0  0
    4.5160    2.4060   -1.4220 H   0  0  0  0  0  0  0  0  0  0  0  0
    3.5870    0.5590   -0.1290 H   0  0  0  0  0  0  0  0  0  0  0  0
    0.7390   -1.4040   -1.3080 H   0  0  0  0  0  0  0  0  0  0  0  0
    1.9930   -1.3280   -0.0380 H   0  0  0  0  0  0  0  0  0  0  0  0
   -0.5210    0.3790   -0.1950 H   0  0  0  0  0  0  0  0  0  0  0  0
   -0.0290    1.3860    1.8360 H   0  0  0  0  0  0  0  0  0  0  0  0
    0.1990    0.4230   -2.6570 H   0  0  0  0  0  0  0  0  0  0  0  0
    1.1350    2.3020   -4.0120 H   0  0  0  0  0  0  0  0  0  0  0  0
   -4.8860   -4.2550    1.5840 C   0  0  0  0  0  0  0  0  0  0  0  0
   -4.4520   -4.3060    0.1530 C   0  0  0  0  0  0  0  0  0  0  0  0
   -5.7030   -3.9850   -0.6810 C   0  0  0  0  0  0  0  0  0  0  0  0
   -3.4240   -3.3070   -0.2300 C   0  0  0  0  0  0  0  0  0  0  0  0
   -2.1240   -3.3870    0.5190 C   0  0  2  0  0  0  0  0  0  0  0  0
   -1.2720   -2.3480    0.0090 N   0  0  0  0  0  0  0  0  0  0  0  0
   -1.4500   -4.6960    0.2880 C   0  0  0  0  0  0  0  0  0  0  0  0
   -0.3440   -4.7620   -0.2670 O   0  0  0  0  0  0  0  0  0  0  0  0
   -2.0770   -5.8450    0.7030 O   0  0  0  0  0  0  0  0  0  0  0  0
   -4.2670   -4.8760    2.2590 H   0  0  0  0  0  0  0  0  0  0  0  0
   -5.9120   -4.7210    1.6210 H   0  0  0  0  0  0  0  0  0  0  0  0
   -5.0260   -3.2150    1.9450 H   0  0  0  0  0  0  0  0  0  0  0  0
   -4.2000   -5.3450   -0.1100 H   0  0  0  0  0  0  0  0  0  0  0  0
   -5.5200   -4.3520   -1.7130 H   0  0  0  0  0  0  0  0  0  0  0  0
   -6.6100   -4.3810   -0.2270 H   0  0  0  0  0  0  0  0  0  0  0  0
   -5.7520   -2.8690   -0.7620 H   0  0  0  0  0  0  0  0  0  0  0  0
   -3.1770   -3.4850   -1.3110 H   0  0  0  0  0  0  0  0  0  0  0  0
   -3.8440   -2.2820   -0.1960 H   0  0  0  0  0  0  0  0  0  0  0  0
   -2.2230   -3.2770    1.5990 H   0  0  0  0  0  0  0  0  0  0  0  0
   -1.0680   -2.3140   -1.0030 H   0  0  0  0  0  0  0  0  0  0  0  0
  1 10  1  0  0  0  0
  2  1  1  0  0  0  0
  2 11  1  1  0  0  0
  3  2  1  0  0  0  0
  3 13  1  0  0  0  0
  4  3  1  0  0  0  0
  5  4  2  0  0  0  0
  6  2  1  0  0  0  0
  7  6  2  0  0  0  0
  8  4  1  0  0  0  0
  9  1  1  0  0  0  0
 12  3  1  0  0  0  0
 14  8  1  0  0  0  0
 15 16  1  0  0  0  0
 16 17  1  0  0  0  0
 17 28  1  0  0  0  0
 17 18  2  0  0  0  0
 18 29  1  0  0  0  0
 19 18  1  0  0  0  0
 19 20  1  0  0  0  0
 20 31  1  0  0  0  0
 20 21  1  0  0  0  0
 21 32  1  6  0  0  0
 21 23  1  0  0  0  0
 21 22  1  0  0  0  0
 22 33  1  0  0  0  0
 22  6  1  0  0  0  0
 23 24  2  0  0  0  0
 25 19  2  0  0  0  0
 26 16  2  0  0  0  0
 26 25  1  0  0  0  0
 27 15  1  0  0  0  0
 30 20  1  0  0  0  0
 34 25  1  0  0  0  0
 35 26  1  0  0  0  0
 36 46  1  0  0  0  0
 36 47  1  0  0  0  0
 36 45  1  0  0  0  0
 37 36  1  0  0  0  0
 38 50  1  0  0  0  0
 38 37  1  0  0  0  0
 39 53  1  0  0  0  0
 39 37  1  0  0  0  0
 39 40  1  0  0  0  0
 40 54  1  1  0  0  0
 41 40  1  0  0  0  0
 41 23  1  0  0  0  0
 42 40  1  0  0  0  0
 42 44  1  0  0  0  0
 43 42  2  0  0  0  0
 48 37  1  0  0  0  0
 49 38  1  0  0  0  0
 51 38  1  0  0  0  0
 52 39  1  0  0  0  0
 55 41  1  0  0  0  0
M  END
$$$$
