DYP.pdb
 OpenBabel07022418163D

 50 51  0  0  1  0  0  0  0  0999 V2000
    2.9820   -3.9880    1.9220 N   0  0  0  0  0  0  0  0  0  0  0  0
    1.5600   -3.7830    1.7510 C   0  0  1  0  0  0  0  0  0  0  0  0
    0.8980   -3.9650    3.0980 C   0  0  0  0  0  0  0  0  0  0  0  0
    1.4360   -2.9740    4.0790 C   0  0  0  0  0  0  0  0  0  0  0  0
    2.3170   -2.1360    3.7280 O   0  0  0  0  0  0  0  0  0  0  0  0
    1.3520   -2.4270    1.2060 C   0  0  0  0  0  0  0  0  0  0  0  0
    2.3290   -1.7020    0.9660 O   0  0  0  0  0  0  0  0  0  0  0  0
    0.9990   -2.9400    5.3790 O   0  0  0  0  0  0  0  0  0  0  0  0
    3.2280   -4.2800    2.9160 H   0  0  0  0  0  0  0  0  0  0  0  0
    3.5450   -3.1300    1.7270 H   0  0  0  0  0  0  0  0  0  0  0  0
    1.1890   -4.5810    1.0730 H   0  0  0  0  0  0  0  0  0  0  0  0
    1.1780   -4.9810    3.4600 H   0  0  0  0  0  0  0  0  0  0  0  0
   -0.1910   -3.8560    2.9530 H   0  0  0  0  0  0  0  0  0  0  0  0
    1.1560   -2.1930    6.0240 H   0  0  0  0  0  0  0  0  0  0  0  0
    2.5190   -3.3050   -4.6160 O   0  0  0  0  0  0  0  0  0  0  0  0
    1.6840   -2.6300   -3.7060 C   0  0  0  0  0  0  0  0  0  0  0  0
    1.8140   -1.2730   -3.5050 C   0  0  0  0  0  0  0  0  0  0  0  0
    0.9880   -0.6430   -2.6160 C   0  0  0  0  0  0  0  0  0  0  0  0
    0.0140   -1.2960   -1.8940 C   0  0  0  0  0  0  0  0  0  0  0  0
   -0.8700   -0.5490   -0.9270 C   0  0  0  0  0  0  0  0  0  0  0  0
   -0.1790   -0.5600    0.3970 C   0  0  2  0  0  0  0  0  0  0  0  0
    0.0720   -1.8750    0.9280 N   0  0  0  0  0  0  0  0  0  0  0  0
   -0.8100    0.2930    1.4340 C   0  0  0  0  0  0  0  0  0  0  0  0
   -1.0320   -0.3010    2.5530 O   0  0  0  0  0  0  0  0  0  0  0  0
   -0.1150   -2.6520   -2.0970 C   0  0  0  0  0  0  0  0  0  0  0  0
    0.7150   -3.3010   -2.9930 C   0  0  0  0  0  0  0  0  0  0  0  0
    3.5130   -3.1110   -4.6820 H   0  0  0  0  0  0  0  0  0  0  0  0
    2.5780   -0.7250   -4.0620 H   0  0  0  0  0  0  0  0  0  0  0  0
    1.1280    0.4330   -2.4900 H   0  0  0  0  0  0  0  0  0  0  0  0
   -0.8530    0.4920   -1.2990 H   0  0  0  0  0  0  0  0  0  0  0  0
   -1.8940   -0.8870   -0.9350 H   0  0  0  0  0  0  0  0  0  0  0  0
    0.8170   -0.0960    0.2080 H   0  0  0  0  0  0  0  0  0  0  0  0
   -0.7430   -2.4900    1.1300 H   0  0  0  0  0  0  0  0  0  0  0  0
   -0.8730   -3.1650   -1.5370 H   0  0  0  0  0  0  0  0  0  0  0  0
    0.6080   -4.3690   -3.1480 H   0  0  0  0  0  0  0  0  0  0  0  0
   -1.1750    1.6420    1.3150 N   0  0  0  0  0  0  0  0  0  0  0  0
   -1.0630    2.5700    0.2240 C   0  0  0  0  0  0  0  0  0  0  0  0
   -1.1030    3.9730    0.7550 C   0  0  0  0  0  0  0  0  0  0  0  0
   -1.3860    3.8210    2.2100 C   0  0  0  0  0  0  0  0  0  0  0  0
   -1.7960    2.3820    2.4230 C   0  0  1  0  0  0  0  0  0  0  0  0
   -3.2680    2.2250    2.3660 C   0  0  0  0  0  0  0  0  0  0  0  0
   -3.7580    1.5300    1.4400 O   0  0  0  0  0  0  0  0  0  0  0  0
   -4.1210    2.8100    3.2880 O   0  0  0  0  0  0  0  0  0  0  0  0
   -0.0510    2.4430   -0.2460 H   0  0  0  0  0  0  0  0  0  0  0  0
   -1.8860    2.4650   -0.5140 H   0  0  0  0  0  0  0  0  0  0  0  0
   -1.9360    4.5380    0.2480 H   0  0  0  0  0  0  0  0  0  0  0  0
   -0.1420    4.5340    0.5640 H   0  0  0  0  0  0  0  0  0  0  0  0
   -0.5280    4.1200    2.8580 H   0  0  0  0  0  0  0  0  0  0  0  0
   -2.2310    4.4820    2.4910 H   0  0  0  0  0  0  0  0  0  0  0  0
   -1.3950    1.9650    3.3560 H   0  0  0  0  0  0  0  0  0  0  0  0
  1  9  1  0  0  0  0
  2 11  1  6  0  0  0
  2  1  1  0  0  0  0
  2  3  1  0  0  0  0
  3 12  1  0  0  0  0
  3  4  1  0  0  0  0
  4  8  1  0  0  0  0
  5  4  2  0  0  0  0
  6  2  1  0  0  0  0
  7  6  2  0  0  0  0
  8 14  1  0  0  0  0
 10  1  1  0  0  0  0
 13  3  1  0  0  0  0
 15 16  1  0  0  0  0
 16 17  2  0  0  0  0
 16 26  1  0  0  0  0
 17 18  1  0  0  0  0
 18 29  1  0  0  0  0
 18 19  2  0  0  0  0
 19 20  1  0  0  0  0
 20 21  1  0  0  0  0
 21 32  1  6  0  0  0
 21 22  1  0  0  0  0
 21 23  1  0  0  0  0
 22 33  1  0  0  0  0
 22  6  1  0  0  0  0
 23 24  2  0  0  0  0
 25 19  1  0  0  0  0
 25 34  1  0  0  0  0
 26 25  2  0  0  0  0
 27 15  1  0  0  0  0
 28 17  1  0  0  0  0
 30 20  1  0  0  0  0
 31 20  1  0  0  0  0
 35 26  1  0  0  0  0
 36 23  1  0  0  0  0
 36 40  1  0  0  0  0
 37 38  1  0  0  0  0
 37 36  1  0  0  0  0
 38 39  1  0  0  0  0
 39 40  1  0  0  0  0
 39 49  1  0  0  0  0
 39 48  1  0  0  0  0
 40 50  1  1  0  0  0
 41 40  1  0  0  0  0
 41 43  1  0  0  0  0
 42 41  2  0  0  0  0
 44 37  1  0  0  0  0
 45 37  1  0  0  0  0
 46 38  1  0  0  0  0
 47 38  1  0  0  0  0
M  END
$$$$
