DYS.pdb
 OpenBabel07022418163D

 47 47  0  0  1  0  0  0  0  0999 V2000
    2.0880   -3.9910    0.2390 N   0  0  0  0  0  0  0  0  0  0  0  0
    1.2220   -2.9260   -0.3730 C   0  0  1  0  0  0  0  0  0  0  0  0
   -0.1590   -3.4280   -0.4900 C   0  0  0  0  0  0  0  0  0  0  0  0
   -1.1430   -2.6080   -1.1830 C   0  0  0  0  0  0  0  0  0  0  0  0
   -0.7570   -1.7750   -2.0680 O   0  0  0  0  0  0  0  0  0  0  0  0
    1.3010   -1.7830    0.5970 C   0  0  0  0  0  0  0  0  0  0  0  0
    2.3390   -1.7680    1.4040 O   0  0  0  0  0  0  0  0  0  0  0  0
   -2.5100   -2.6670   -0.9440 O   0  0  0  0  0  0  0  0  0  0  0  0
    1.8500   -4.8400   -0.2930 H   0  0  0  0  0  0  0  0  0  0  0  0
    1.7600   -4.1140    1.2250 H   0  0  0  0  0  0  0  0  0  0  0  0
    1.6840   -2.6180   -1.3050 H   0  0  0  0  0  0  0  0  0  0  0  0
   -0.5740   -3.7270    0.5120 H   0  0  0  0  0  0  0  0  0  0  0  0
   -0.1080   -4.4120   -1.0600 H   0  0  0  0  0  0  0  0  0  0  0  0
   -3.0880   -1.9170   -1.2830 H   0  0  0  0  0  0  0  0  0  0  0  0
    4.9610    2.0360   -2.6260 O   0  0  0  0  0  0  0  0  0  0  0  0
    3.8800    1.9410   -1.7310 C   0  0  0  0  0  0  0  0  0  0  0  0
    4.0270    2.3080   -0.4100 C   0  0  0  0  0  0  0  0  0  0  0  0
    2.9400    2.2010    0.4440 C   0  0  0  0  0  0  0  0  0  0  0  0
    1.7190    1.7400    0.0180 C   0  0  0  0  0  0  0  0  0  0  0  0
    0.6060    1.6480    0.9740 C   0  0  0  0  0  0  0  0  0  0  0  0
    0.5390    0.3090    1.6710 C   0  0  2  0  0  0  0  0  0  0  0  0
    0.3600   -0.7760    0.6820 N   0  0  0  0  0  0  0  0  0  0  0  0
   -0.6550    0.3190    2.5460 C   0  0  0  0  0  0  0  0  0  0  0  0
   -0.7110    1.1670    3.4680 O   0  0  0  0  0  0  0  0  0  0  0  0
    1.5600    1.3730   -1.2900 C   0  0  0  0  0  0  0  0  0  0  0  0
    2.6510    1.4800   -2.1500 C   0  0  0  0  0  0  0  0  0  0  0  0
    4.7410    2.4450   -3.5280 H   0  0  0  0  0  0  0  0  0  0  0  0
    4.9900    2.6630   -0.1060 H   0  0  0  0  0  0  0  0  0  0  0  0
    3.1100    2.5030    1.4750 H   0  0  0  0  0  0  0  0  0  0  0  0
   -0.3540    1.8770    0.4370 H   0  0  0  0  0  0  0  0  0  0  0  0
    0.6770    2.4140    1.7790 H   0  0  0  0  0  0  0  0  0  0  0  0
    1.4560    0.1400    2.2260 H   0  0  0  0  0  0  0  0  0  0  0  0
   -0.4800   -0.6970    0.1300 H   0  0  0  0  0  0  0  0  0  0  0  0
    0.6230    1.0000   -1.6990 H   0  0  0  0  0  0  0  0  0  0  0  0
    2.5330    1.1940   -3.1780 H   0  0  0  0  0  0  0  0  0  0  0  0
   -4.0890    0.9640    1.8470 O   0  0  0  0  0  0  0  0  0  0  0  0
   -4.1740   -0.2800    2.4800 C   0  0  0  0  0  0  0  0  0  0  0  0
   -2.9050   -0.5610    3.2560 C   0  0  2  0  0  0  0  0  0  0  0  0
   -1.7320   -0.5800    2.3880 N   0  0  0  0  0  0  0  0  0  0  0  0
   -3.0560   -1.8510    3.9500 C   0  0  0  0  0  0  0  0  0  0  0  0
   -4.0130   -2.0220    4.7450 O   0  0  0  0  0  0  0  0  0  0  0  0
   -2.1730   -2.9110    3.7640 O   0  0  0  0  0  0  0  0  0  0  0  0
   -3.7550    1.5920    2.5540 H   0  0  0  0  0  0  0  0  0  0  0  0
   -4.3850   -1.0910    1.7790 H   0  0  0  0  0  0  0  0  0  0  0  0
   -4.9950   -0.2350    3.2140 H   0  0  0  0  0  0  0  0  0  0  0  0
   -2.7660    0.2440    4.0060 H   0  0  0  0  0  0  0  0  0  0  0  0
   -1.7210   -1.2990    1.6300 H   0  0  0  0  0  0  0  0  0  0  0  0
  1 10  1  0  0  0  0
  2 11  1  6  0  0  0
  2  1  1  0  0  0  0
  2  6  1  0  0  0  0
  3  2  1  0  0  0  0
  3 12  1  0  0  0  0
  4  8  1  0  0  0  0
  4  3  1  0  0  0  0
  5  4  2  0  0  0  0
  6 22  1  0  0  0  0
  6  7  2  0  0  0  0
  9  1  1  0  0  0  0
 13  3  1  0  0  0  0
 14  8  1  0  0  0  0
 15 16  1  0  0  0  0
 16 17  1  0  0  0  0
 17 28  1  0  0  0  0
 17 18  2  0  0  0  0
 18 29  1  0  0  0  0
 19 18  1  0  0  0  0
 19 20  1  0  0  0  0
 20 21  1  0  0  0  0
 20 31  1  0  0  0  0
 21 32  1  1  0  0  0
 21 23  1  0  0  0  0
 22 21  1  0  0  0  0
 23 24  2  0  0  0  0
 25 19  2  0  0  0  0
 26 16  2  0  0  0  0
 26 25  1  0  0  0  0
 27 15  1  0  0  0  0
 30 20  1  0  0  0  0
 33 22  1  0  0  0  0
 34 25  1  0  0  0  0
 35 26  1  0  0  0  0
 36 37  1  0  0  0  0
 36 43  1  0  0  0  0
 37 45  1  0  0  0  0
 37 38  1  0  0  0  0
 38 40  1  0  0  0  0
 38 46  1  1  0  0  0
 39 23  1  0  0  0  0
 39 38  1  0  0  0  0
 40 41  1  0  0  0  0
 42 40  2  0  0  0  0
 44 37  1  0  0  0  0
 47 39  1  0  0  0  0
M  END
$$$$
