EAA.pdb
 OpenBabel07022418163D

 38 37  0  0  1  0  0  0  0  0999 V2000
   -1.0640   -2.2200    2.2380 N   0  0  0  0  0  0  0  0  0  0  0  0
    0.0440   -2.6540    1.3920 C   0  0  1  0  0  0  0  0  0  0  0  0
   -0.2570   -4.0380    0.9470 C   0  0  0  0  0  0  0  0  0  0  0  0
    0.7680   -4.6700    0.0590 C   0  0  0  0  0  0  0  0  0  0  0  0
    2.0810   -4.7930    0.6800 C   0  0  0  0  0  0  0  0  0  0  0  0
    2.3250   -4.4370    1.8540 O   0  0  0  0  0  0  0  0  0  0  0  0
    0.2190   -1.6640    0.3160 C   0  0  0  0  0  0  0  0  0  0  0  0
    1.1360   -1.8110   -0.5230 O   0  0  0  0  0  0  0  0  0  0  0  0
    3.1310   -5.3320   -0.0530 O   0  0  0  0  0  0  0  0  0  0  0  0
   -1.1020   -2.7740    3.1350 H   0  0  0  0  0  0  0  0  0  0  0  0
   -1.9620   -2.2570    1.7120 H   0  0  0  0  0  0  0  0  0  0  0  0
    0.9310   -2.6290    2.0370 H   0  0  0  0  0  0  0  0  0  0  0  0
   -1.2750   -4.1580    0.5160 H   0  0  0  0  0  0  0  0  0  0  0  0
   -0.2880   -4.6790    1.8790 H   0  0  0  0  0  0  0  0  0  0  0  0
    0.8560   -4.0820   -0.8840 H   0  0  0  0  0  0  0  0  0  0  0  0
    0.4080   -5.6860   -0.2290 H   0  0  0  0  0  0  0  0  0  0  0  0
    4.0830   -5.1110    0.2470 H   0  0  0  0  0  0  0  0  0  0  0  0
   -1.6240    0.4830   -1.8140 C   0  0  0  0  0  0  0  0  0  0  0  0
   -0.4430    0.4390   -0.8760 C   0  0  2  0  0  0  0  0  0  0  0  0
   -0.6130   -0.5350    0.1810 N   0  0  0  0  0  0  0  0  0  0  0  0
   -0.0780    1.7750   -0.3520 C   0  0  0  0  0  0  0  0  0  0  0  0
    0.1100    2.7470   -1.1300 O   0  0  0  0  0  0  0  0  0  0  0  0
   -2.1690   -0.4800   -1.7080 H   0  0  0  0  0  0  0  0  0  0  0  0
   -1.3110    0.5450   -2.8860 H   0  0  0  0  0  0  0  0  0  0  0  0
   -2.3000    1.3270   -1.6400 H   0  0  0  0  0  0  0  0  0  0  0  0
    0.4220    0.0890   -1.4790 H   0  0  0  0  0  0  0  0  0  0  0  0
   -1.3840   -0.4360    0.9080 H   0  0  0  0  0  0  0  0  0  0  0  0
   -0.5640    3.9090    2.4810 C   0  0  0  0  0  0  0  0  0  0  0  0
    0.4270    3.3160    1.5230 C   0  0  2  0  0  0  0  0  0  0  0  0
    0.0740    2.0140    1.0500 N   0  0  0  0  0  0  0  0  0  0  0  0
    1.7410    3.2490    2.2140 C   0  0  0  0  0  0  0  0  0  0  0  0
    2.2970    4.2510    2.7310 O   0  0  0  0  0  0  0  0  0  0  0  0
    2.4350    2.0400    2.3250 O   0  0  0  0  0  0  0  0  0  0  0  0
   -1.5720    4.0590    2.0390 H   0  0  0  0  0  0  0  0  0  0  0  0
   -0.1720    4.9370    2.7370 H   0  0  0  0  0  0  0  0  0  0  0  0
   -0.6500    3.3780    3.4340 H   0  0  0  0  0  0  0  0  0  0  0  0
    0.5430    4.0220    0.6730 H   0  0  0  0  0  0  0  0  0  0  0  0
   -0.0750    1.2310    1.7230 H   0  0  0  0  0  0  0  0  0  0  0  0
  1 10  1  0  0  0  0
  2 12  1  1  0  0  0
  2  1  1  0  0  0  0
  3  2  1  0  0  0  0
  3 14  1  0  0  0  0
  4  5  1  0  0  0  0
  4  3  1  0  0  0  0
  5  6  2  0  0  0  0
  7  2  1  0  0  0  0
  8  7  2  0  0  0  0
  9 17  1  0  0  0  0
  9  5  1  0  0  0  0
 11  1  1  0  0  0  0
 13  3  1  0  0  0  0
 15  4  1  0  0  0  0
 16  4  1  0  0  0  0
 18 23  1  0  0  0  0
 18 25  1  0  0  0  0
 18 19  1  0  0  0  0
 19 26  1  6  0  0  0
 19 21  1  0  0  0  0
 19 20  1  0  0  0  0
 20  7  1  0  0  0  0
 20 27  1  0  0  0  0
 21 30  1  0  0  0  0
 22 21  2  0  0  0  0
 24 18  1  0  0  0  0
 28 35  1  0  0  0  0
 28 36  1  0  0  0  0
 29 37  1  6  0  0  0
 29 31  1  0  0  0  0
 29 28  1  0  0  0  0
 30 29  1  0  0  0  0
 30 38  1  0  0  0  0
 31 33  2  0  0  0  0
 31 32  1  0  0  0  0
 34 28  1  0  0  0  0
M  END
$$$$
