EAG.pdb
 OpenBabel07022418173D

 35 34  0  0  1  0  0  0  0  0999 V2000
   -1.1470   -0.2030    4.0150 N   0  0  0  0  0  0  0  0  0  0  0  0
   -0.0130   -0.3790    3.1470 C   0  0  1  0  0  0  0  0  0  0  0  0
   -0.0590   -1.7530    2.5440 C   0  0  0  0  0  0  0  0  0  0  0  0
   -1.3140   -1.9840    1.7310 C   0  0  0  0  0  0  0  0  0  0  0  0
   -1.2650   -3.3640    1.1800 C   0  0  0  0  0  0  0  0  0  0  0  0
   -0.2820   -4.1380    1.4160 O   0  0  0  0  0  0  0  0  0  0  0  0
    0.0570    0.6950    2.1550 C   0  0  0  0  0  0  0  0  0  0  0  0
   -0.8120    1.6020    2.1530 O   0  0  0  0  0  0  0  0  0  0  0  0
   -2.2770   -3.8810    0.3850 O   0  0  0  0  0  0  0  0  0  0  0  0
   -2.0620   -0.2860    3.5560 H   0  0  0  0  0  0  0  0  0  0  0  0
   -1.0600   -0.6700    4.9320 H   0  0  0  0  0  0  0  0  0  0  0  0
    0.8950   -0.3220    3.7790 H   0  0  0  0  0  0  0  0  0  0  0  0
   -0.0910   -2.4800    3.3850 H   0  0  0  0  0  0  0  0  0  0  0  0
    0.8220   -1.9880    1.9450 H   0  0  0  0  0  0  0  0  0  0  0  0
   -2.2260   -1.9350    2.3660 H   0  0  0  0  0  0  0  0  0  0  0  0
   -1.4030   -1.2090    0.9640 H   0  0  0  0  0  0  0  0  0  0  0  0
   -2.0780   -4.6370   -0.2770 H   0  0  0  0  0  0  0  0  0  0  0  0
    2.3300    2.7180    0.4310 C   0  0  0  0  0  0  0  0  0  0  0  0
    1.0840    1.8450    0.2360 C   0  0  2  0  0  0  0  0  0  0  0  0
    1.0740    0.7710    1.1730 N   0  0  0  0  0  0  0  0  0  0  0  0
    0.9700    1.3990   -1.1720 C   0  0  0  0  0  0  0  0  0  0  0  0
    0.9690    2.2680   -2.0820 O   0  0  0  0  0  0  0  0  0  0  0  0
    2.4530    2.8920    1.5020 H   0  0  0  0  0  0  0  0  0  0  0  0
    2.1400    3.6450   -0.1530 H   0  0  0  0  0  0  0  0  0  0  0  0
    3.2130    2.2360   -0.0440 H   0  0  0  0  0  0  0  0  0  0  0  0
    0.2250    2.5140    0.4310 H   0  0  0  0  0  0  0  0  0  0  0  0
    1.8310    0.0400    1.1230 H   0  0  0  0  0  0  0  0  0  0  0  0
    0.8610    0.0500   -1.5650 N   0  0  0  0  0  0  0  0  0  0  0  0
    0.7500   -0.3790   -2.9420 C   0  0  0  0  0  0  0  0  0  0  0  0
    0.6530   -1.8600   -3.0140 C   0  0  0  0  0  0  0  0  0  0  0  0
    0.5480   -2.4860   -4.0760 O   0  0  0  0  0  0  0  0  0  0  0  0
    0.6780   -2.6080   -1.8250 O   0  0  0  0  0  0  0  0  0  0  0  0
    0.8610   -0.6750   -0.8170 H   0  0  0  0  0  0  0  0  0  0  0  0
    1.6480   -0.0950   -3.5420 H   0  0  0  0  0  0  0  0  0  0  0  0
   -0.1140    0.0950   -3.4660 H   0  0  0  0  0  0  0  0  0  0  0  0
  1 11  1  0  0  0  0
  2 12  1  1  0  0  0
  2  1  1  0  0  0  0
  3  2  1  0  0  0  0
  3 13  1  0  0  0  0
  4 15  1  0  0  0  0
  4  3  1  0  0  0  0
  5  6  2  0  0  0  0
  5  4  1  0  0  0  0
  7  2  1  0  0  0  0
  8  7  2  0  0  0  0
  9  5  1  0  0  0  0
 10  1  1  0  0  0  0
 14  3  1  0  0  0  0
 16  4  1  0  0  0  0
 17  9  1  0  0  0  0
 18 23  1  0  0  0  0
 19 26  1  1  0  0  0
 19 18  1  0  0  0  0
 19 20  1  0  0  0  0
 20  7  1  0  0  0  0
 21 19  1  0  0  0  0
 22 21  2  0  0  0  0
 24 18  1  0  0  0  0
 25 18  1  0  0  0  0
 27 20  1  0  0  0  0
 28 21  1  0  0  0  0
 28 33  1  0  0  0  0
 29 28  1  0  0  0  0
 30 29  1  0  0  0  0
 30 32  1  0  0  0  0
 31 30  2  0  0  0  0
 34 29  1  0  0  0  0
 35 29  1  0  0  0  0
M  END
$$$$
