EAH.pdb
 OpenBabel07022418173D

 45 45  0  0  1  0  0  0  0  0999 V2000
    1.2510   -1.4400   -2.0420 N   0  0  0  0  0  0  0  0  0  0  0  0
    2.6150   -1.0410   -1.6450 C   0  0  1  0  0  0  0  0  0  0  0  0
    3.1230   -0.1740   -2.7670 C   0  0  0  0  0  0  0  0  0  0  0  0
    4.5150    0.3470   -2.5760 C   0  0  0  0  0  0  0  0  0  0  0  0
    5.4880   -0.7570   -2.4950 C   0  0  0  0  0  0  0  0  0  0  0  0
    5.1350   -1.9520   -2.6150 O   0  0  0  0  0  0  0  0  0  0  0  0
    2.5370   -0.2010   -0.4190 C   0  0  0  0  0  0  0  0  0  0  0  0
    3.5980    0.0750    0.2030 O   0  0  0  0  0  0  0  0  0  0  0  0
    6.8470   -0.5280   -2.2810 O   0  0  0  0  0  0  0  0  0  0  0  0
    0.7220   -0.6200   -2.3910 H   0  0  0  0  0  0  0  0  0  0  0  0
    1.4040   -2.1120   -2.8320 H   0  0  0  0  0  0  0  0  0  0  0  0
    3.1600   -1.9640   -1.4710 H   0  0  0  0  0  0  0  0  0  0  0  0
    2.3800    0.6470   -2.9030 H   0  0  0  0  0  0  0  0  0  0  0  0
    3.1070   -0.7520   -3.7310 H   0  0  0  0  0  0  0  0  0  0  0  0
    4.8180    1.0250   -3.4240 H   0  0  0  0  0  0  0  0  0  0  0  0
    4.5890    1.0000   -1.6710 H   0  0  0  0  0  0  0  0  0  0  0  0
    7.5450   -1.1290   -2.7270 H   0  0  0  0  0  0  0  0  0  0  0  0
    1.0830    2.6060    0.9270 C   0  0  0  0  0  0  0  0  0  0  0  0
    1.2500    1.1390    1.2910 C   0  0  2  0  0  0  0  0  0  0  0  0
    1.3290    0.3180    0.0970 N   0  0  0  0  0  0  0  0  0  0  0  0
    0.2010    0.6760    2.2070 C   0  0  0  0  0  0  0  0  0  0  0  0
   -0.0260    1.2650    3.3200 O   0  0  0  0  0  0  0  0  0  0  0  0
    0.0150    2.8550    1.1850 H   0  0  0  0  0  0  0  0  0  0  0  0
    1.6840    3.1880    1.6450 H   0  0  0  0  0  0  0  0  0  0  0  0
    1.2650    2.8190   -0.1270 H   0  0  0  0  0  0  0  0  0  0  0  0
    2.2400    1.0610    1.7810 H   0  0  0  0  0  0  0  0  0  0  0  0
    0.4170    0.1140   -0.3880 H   0  0  0  0  0  0  0  0  0  0  0  0
   -0.6350   -0.4400    1.9430 N   0  0  0  0  0  0  0  0  0  0  0  0
   -1.6720   -0.8920    2.8440 C   0  0  1  0  0  0  0  0  0  0  0  0
   -2.9920   -0.6680    2.1540 C   0  0  0  0  0  0  0  0  0  0  0  0
   -4.1630   -1.0940    2.9810 C   0  0  0  0  0  0  0  0  0  0  0  0
   -4.7800   -2.3270    3.0100 C   0  0  0  0  0  0  0  0  0  0  0  0
   -5.7950   -2.2790    3.8900 N   0  0  0  0  0  0  0  0  0  0  0  0
   -5.8370   -1.0400    4.4250 C   0  0  0  0  0  0  0  0  0  0  0  0
   -4.8470   -0.3350    3.8660 N   0  0  0  0  0  0  0  0  0  0  0  0
   -1.4620   -2.2210    3.3800 C   0  0  0  0  0  0  0  0  0  0  0  0
   -0.4550   -2.8800    3.0650 O   0  0  0  0  0  0  0  0  0  0  0  0
   -2.3750   -2.7740    4.2460 O   0  0  0  0  0  0  0  0  0  0  0  0
   -0.5210   -0.9770    1.0670 H   0  0  0  0  0  0  0  0  0  0  0  0
   -1.6440   -0.1730    3.7160 H   0  0  0  0  0  0  0  0  0  0  0  0
   -3.0320   -1.1890    1.1650 H   0  0  0  0  0  0  0  0  0  0  0  0
   -3.1520    0.4110    1.9480 H   0  0  0  0  0  0  0  0  0  0  0  0
   -4.4640   -3.1600    2.4050 H   0  0  0  0  0  0  0  0  0  0  0  0
   -6.4660   -3.0540    4.1510 H   0  0  0  0  0  0  0  0  0  0  0  0
   -6.5380   -0.6560    5.1720 H   0  0  0  0  0  0  0  0  0  0  0  0
  1  2  1  0  0  0  0
  2 12  1  1  0  0  0
  2  7  1  0  0  0  0
  3  4  1  0  0  0  0
  3  2  1  0  0  0  0
  4  5  1  0  0  0  0
  4 16  1  0  0  0  0
  5  9  1  0  0  0  0
  6  5  2  0  0  0  0
  7 20  1  0  0  0  0
  7  8  2  0  0  0  0
 10  1  1  0  0  0  0
 11  1  1  0  0  0  0
 13  3  1  0  0  0  0
 14  3  1  0  0  0  0
 15  4  1  0  0  0  0
 17  9  1  0  0  0  0
 18 23  1  0  0  0  0
 18 19  1  0  0  0  0
 18 24  1  0  0  0  0
 19 26  1  1  0  0  0
 19 21  1  0  0  0  0
 20 19  1  0  0  0  0
 21 22  2  0  0  0  0
 25 18  1  0  0  0  0
 27 20  1  0  0  0  0
 28 21  1  0  0  0  0
 28 29  1  0  0  0  0
 29 36  1  0  0  0  0
 29 40  1  1  0  0  0
 30 29  1  0  0  0  0
 30 31  1  0  0  0  0
 31 32  2  0  0  0  0
 31 35  1  0  0  0  0
 32 33  1  0  0  0  0
 33 44  1  0  0  0  0
 33 34  1  0  0  0  0
 34 45  1  0  0  0  0
 35 34  2  0  0  0  0
 36 38  1  0  0  0  0
 37 36  2  0  0  0  0
 39 28  1  0  0  0  0
 41 30  1  0  0  0  0
 42 30  1  0  0  0  0
 43 32  1  0  0  0  0
M  END
$$$$
