EAL.pdb
 OpenBabel07022418173D

 47 46  0  0  1  0  0  0  0  0999 V2000
    3.4540   -3.2500   -1.6670 N   0  0  0  0  0  0  0  0  0  0  0  0
    2.3330   -3.0490   -0.6990 C   0  0  1  0  0  0  0  0  0  0  0  0
    2.9460   -2.7140    0.6130 C   0  0  0  0  0  0  0  0  0  0  0  0
    2.0150   -2.4630    1.7430 C   0  0  0  0  0  0  0  0  0  0  0  0
    2.7770   -2.1630    3.0070 C   0  0  0  0  0  0  0  0  0  0  0  0
    4.0320   -2.1560    2.9860 O   0  0  0  0  0  0  0  0  0  0  0  0
    1.3610   -2.1320   -1.2500 C   0  0  0  0  0  0  0  0  0  0  0  0
    1.6560   -1.4210   -2.2530 O   0  0  0  0  0  0  0  0  0  0  0  0
    2.1440   -1.8900    4.2060 O   0  0  0  0  0  0  0  0  0  0  0  0
    3.0460   -3.8080   -2.4520 H   0  0  0  0  0  0  0  0  0  0  0  0
    4.1030   -3.8940   -1.1540 H   0  0  0  0  0  0  0  0  0  0  0  0
    1.8820   -4.0800   -0.6170 H   0  0  0  0  0  0  0  0  0  0  0  0
    3.6620   -3.5160    0.9530 H   0  0  0  0  0  0  0  0  0  0  0  0
    3.6050   -1.8120    0.5030 H   0  0  0  0  0  0  0  0  0  0  0  0
    1.4320   -1.5370    1.4910 H   0  0  0  0  0  0  0  0  0  0  0  0
    1.2960   -3.2530    1.9690 H   0  0  0  0  0  0  0  0  0  0  0  0
    2.6290   -1.3860    4.9650 H   0  0  0  0  0  0  0  0  0  0  0  0
   -1.8650   -1.8020   -2.2560 C   0  0  0  0  0  0  0  0  0  0  0  0
   -0.8860   -1.0440   -1.3470 C   0  0  2  0  0  0  0  0  0  0  0  0
    0.0430   -1.9620   -0.7390 N   0  0  0  0  0  0  0  0  0  0  0  0
   -1.6030   -0.2530   -0.3500 C   0  0  0  0  0  0  0  0  0  0  0  0
   -2.4360    0.6600   -0.7000 O   0  0  0  0  0  0  0  0  0  0  0  0
   -2.6750   -2.2580   -1.6820 H   0  0  0  0  0  0  0  0  0  0  0  0
   -1.2660   -2.4860   -2.8580 H   0  0  0  0  0  0  0  0  0  0  0  0
   -2.3100   -1.0520   -2.9420 H   0  0  0  0  0  0  0  0  0  0  0  0
   -0.3240   -0.3860   -2.0440 H   0  0  0  0  0  0  0  0  0  0  0  0
   -0.2400   -2.5230    0.0880 H   0  0  0  0  0  0  0  0  0  0  0  0
   -0.3640    3.8140    1.9800 C   0  0  0  0  0  0  0  0  0  0  0  0
   -0.5080    2.2750    2.1060 C   0  0  0  0  0  0  0  0  0  0  0  0
    0.4110    1.7430    1.0230 C   0  0  0  0  0  0  0  0  0  0  0  0
   -1.9280    1.8810    1.8640 C   0  0  0  0  0  0  0  0  0  0  0  0
   -2.2090    0.4150    1.9850 C   0  0  2  0  0  0  0  0  0  0  0  0
   -1.4860   -0.3820    1.0640 N   0  0  0  0  0  0  0  0  0  0  0  0
   -3.6740    0.1910    1.9390 C   0  0  0  0  0  0  0  0  0  0  0  0
   -4.4140    0.8330    2.7030 O   0  0  0  0  0  0  0  0  0  0  0  0
   -4.2180   -0.7150    1.0620 O   0  0  0  0  0  0  0  0  0  0  0  0
   -0.7320    4.0670    0.9770 H   0  0  0  0  0  0  0  0  0  0  0  0
   -0.8930    4.3210    2.7920 H   0  0  0  0  0  0  0  0  0  0  0  0
    0.7170    4.0600    2.0110 H   0  0  0  0  0  0  0  0  0  0  0  0
   -0.1550    2.0010    3.1080 H   0  0  0  0  0  0  0  0  0  0  0  0
    1.4000    2.2800    1.1660 H   0  0  0  0  0  0  0  0  0  0  0  0
    0.6490    0.6800    1.1640 H   0  0  0  0  0  0  0  0  0  0  0  0
    0.0570    2.0250    0.0310 H   0  0  0  0  0  0  0  0  0  0  0  0
   -2.5260    2.3580    2.7140 H   0  0  0  0  0  0  0  0  0  0  0  0
   -2.3120    2.3110    0.8960 H   0  0  0  0  0  0  0  0  0  0  0  0
   -1.8230    0.1500    3.0300 H   0  0  0  0  0  0  0  0  0  0  0  0
   -0.8350   -1.1290    1.4370 H   0  0  0  0  0  0  0  0  0  0  0  0
  1 11  1  0  0  0  0
  1  2  1  0  0  0  0
  2 12  1  1  0  0  0
  2  3  1  0  0  0  0
  3 13  1  0  0  0  0
  3  4  1  0  0  0  0
  4 16  1  0  0  0  0
  4  5  1  0  0  0  0
  5  9  1  0  0  0  0
  6  5  2  0  0  0  0
  7 20  1  0  0  0  0
  7  2  1  0  0  0  0
  8  7  2  0  0  0  0
  9 17  1  0  0  0  0
 10  1  1  0  0  0  0
 14  3  1  0  0  0  0
 15  4  1  0  0  0  0
 18 23  1  0  0  0  0
 18 19  1  0  0  0  0
 19 26  1  6  0  0  0
 19 20  1  0  0  0  0
 19 21  1  0  0  0  0
 20 27  1  0  0  0  0
 21 33  1  0  0  0  0
 22 21  2  0  0  0  0
 24 18  1  0  0  0  0
 25 18  1  0  0  0  0
 28 39  1  0  0  0  0
 28 29  1  0  0  0  0
 28 38  1  0  0  0  0
 29 40  1  0  0  0  0
 30 42  1  0  0  0  0
 30 41  1  0  0  0  0
 30 29  1  0  0  0  0
 31 32  1  0  0  0  0
 31 29  1  0  0  0  0
 31 44  1  0  0  0  0
 32 46  1  1  0  0  0
 33 47  1  0  0  0  0
 33 32  1  0  0  0  0
 34 32  1  0  0  0  0
 34 35  1  0  0  0  0
 36 34  2  0  0  0  0
 37 28  1  0  0  0  0
 43 30  1  0  0  0  0
 45 31  1  0  0  0  0
M  END
$$$$
