EAM.pdb
 OpenBabel07022418173D

 45 44  0  0  1  0  0  0  0  0999 V2000
    3.4250   -2.5580    2.2900 N   0  0  0  0  0  0  0  0  0  0  0  0
    2.9210   -2.0930    1.0530 C   0  0  1  0  0  0  0  0  0  0  0  0
    1.9680   -3.0320    0.4510 C   0  0  0  0  0  0  0  0  0  0  0  0
    0.7410   -3.4190    1.1250 C   0  0  0  0  0  0  0  0  0  0  0  0
    0.7630   -4.0780    2.4070 C   0  0  0  0  0  0  0  0  0  0  0  0
    1.7240   -4.4210    3.1150 O   0  0  0  0  0  0  0  0  0  0  0  0
    2.5180   -0.6630    1.0700 C   0  0  0  0  0  0  0  0  0  0  0  0
    2.6930   -0.0440    2.1520 O   0  0  0  0  0  0  0  0  0  0  0  0
   -0.5010   -4.3890    2.9600 O   0  0  0  0  0  0  0  0  0  0  0  0
    3.1450   -2.0330    3.1310 H   0  0  0  0  0  0  0  0  0  0  0  0
    4.3580   -2.9630    2.2950 H   0  0  0  0  0  0  0  0  0  0  0  0
    3.8250   -2.0860    0.3590 H   0  0  0  0  0  0  0  0  0  0  0  0
    1.6790   -2.6160   -0.5620 H   0  0  0  0  0  0  0  0  0  0  0  0
    2.5530   -3.9600    0.1670 H   0  0  0  0  0  0  0  0  0  0  0  0
    0.0400   -2.5350    1.2060 H   0  0  0  0  0  0  0  0  0  0  0  0
    0.1730   -4.1000    0.4160 H   0  0  0  0  0  0  0  0  0  0  0  0
   -0.5840   -5.0650    3.7220 H   0  0  0  0  0  0  0  0  0  0  0  0
    2.4750    2.2180   -0.9070 C   0  0  0  0  0  0  0  0  0  0  0  0
    1.6060    1.3850    0.0420 C   0  0  2  0  0  0  0  0  0  0  0  0
    1.9710   -0.0120   -0.0420 N   0  0  0  0  0  0  0  0  0  0  0  0
    0.1660    1.6220   -0.2240 C   0  0  0  0  0  0  0  0  0  0  0  0
   -0.2440    2.8040   -0.2090 O   0  0  0  0  0  0  0  0  0  0  0  0
    1.8460    3.0760   -1.2210 H   0  0  0  0  0  0  0  0  0  0  0  0
    2.7170    1.5670   -1.7760 H   0  0  0  0  0  0  0  0  0  0  0  0
    3.3780    2.5860   -0.4190 H   0  0  0  0  0  0  0  0  0  0  0  0
    1.8480    1.7700    1.0610 H   0  0  0  0  0  0  0  0  0  0  0  0
    1.8300   -0.5570   -0.9440 H   0  0  0  0  0  0  0  0  0  0  0  0
   -0.8820   -0.9820    3.4730 C   0  0  0  0  0  0  0  0  0  0  0  0
   -1.0050    0.1300    2.0630 S   0  0  0  0  0  0  0  0  0  0  0  0
   -2.7450    0.3550    1.6310 C   0  0  0  0  0  0  0  0  0  0  0  0
   -2.8490    1.2850    0.4560 C   0  0  0  0  0  0  0  0  0  0  0  0
   -2.1500    0.7750   -0.7570 C   0  0  2  0  0  0  0  0  0  0  0  0
   -0.7620    0.5870   -0.4920 N   0  0  0  0  0  0  0  0  0  0  0  0
   -2.3840    1.7590   -1.8650 C   0  0  0  0  0  0  0  0  0  0  0  0
   -1.4470    2.3240   -2.4790 O   0  0  0  0  0  0  0  0  0  0  0  0
   -3.6820    2.0720   -2.2400 O   0  0  0  0  0  0  0  0  0  0  0  0
   -1.5250   -1.8630    3.3260 H   0  0  0  0  0  0  0  0  0  0  0  0
   -1.2910   -0.4270    4.3610 H   0  0  0  0  0  0  0  0  0  0  0  0
    0.1840   -1.2480    3.6690 H   0  0  0  0  0  0  0  0  0  0  0  0
   -3.2500    0.7850    2.5130 H   0  0  0  0  0  0  0  0  0  0  0  0
   -3.2290   -0.6060    1.3460 H   0  0  0  0  0  0  0  0  0  0  0  0
   -2.4030    2.2680    0.7170 H   0  0  0  0  0  0  0  0  0  0  0  0
   -3.9090    1.4810    0.1800 H   0  0  0  0  0  0  0  0  0  0  0  0
   -2.6180   -0.1960   -1.0650 H   0  0  0  0  0  0  0  0  0  0  0  0
   -0.3740   -0.4000   -0.4910 H   0  0  0  0  0  0  0  0  0  0  0  0
  1 11  1  0  0  0  0
  1 10  1  0  0  0  0
  2 12  1  6  0  0  0
  2  7  1  0  0  0  0
  2  1  1  0  0  0  0
  3  2  1  0  0  0  0
  3  4  1  0  0  0  0
  4 15  1  0  0  0  0
  4  5  1  0  0  0  0
  5  9  1  0  0  0  0
  5  6  2  0  0  0  0
  7  8  2  0  0  0  0
  9 17  1  0  0  0  0
 13  3  1  0  0  0  0
 14  3  1  0  0  0  0
 16  4  1  0  0  0  0
 18 25  1  0  0  0  0
 18 19  1  0  0  0  0
 19 26  1  1  0  0  0
 20 19  1  0  0  0  0
 20  7  1  0  0  0  0
 21 22  2  0  0  0  0
 21 19  1  0  0  0  0
 23 18  1  0  0  0  0
 24 18  1  0  0  0  0
 27 20  1  0  0  0  0
 28 39  1  0  0  0  0
 28 38  1  0  0  0  0
 29 28  1  0  0  0  0
 30 29  1  0  0  0  0
 30 40  1  0  0  0  0
 31 42  1  0  0  0  0
 31 30  1  0  0  0  0
 32 44  1  6  0  0  0
 32 33  1  0  0  0  0
 32 31  1  0  0  0  0
 33 45  1  0  0  0  0
 33 21  1  0  0  0  0
 34 32  1  0  0  0  0
 35 34  2  0  0  0  0
 36 34  1  0  0  0  0
 37 28  1  0  0  0  0
 41 30  1  0  0  0  0
 43 31  1  0  0  0  0
M  END
$$$$
