EAR.pdb
 OpenBabel07022418163D

 51 50  0  0  1  0  0  0  0  0999 V2000
   -0.5930   -2.5110    6.4230 N   0  0  0  0  0  0  0  0  0  0  0  0
    0.0450   -2.2530    5.1070 C   0  0  1  0  0  0  0  0  0  0  0  0
   -0.0130   -3.5480    4.3900 C   0  0  0  0  0  0  0  0  0  0  0  0
    0.5680   -3.6450    3.0400 C   0  0  0  0  0  0  0  0  0  0  0  0
    2.0290   -3.3560    2.9860 C   0  0  0  0  0  0  0  0  0  0  0  0
    2.7300   -3.0530    3.9760 O   0  0  0  0  0  0  0  0  0  0  0  0
   -0.6320   -1.1160    4.4870 C   0  0  0  0  0  0  0  0  0  0  0  0
   -1.6910   -0.6330    5.0380 O   0  0  0  0  0  0  0  0  0  0  0  0
    2.6500   -3.4290    1.7480 O   0  0  0  0  0  0  0  0  0  0  0  0
   -1.4910   -3.0290    6.2960 H   0  0  0  0  0  0  0  0  0  0  0  0
   -0.7690   -1.5630    6.8640 H   0  0  0  0  0  0  0  0  0  0  0  0
    1.0870   -1.9890    5.3210 H   0  0  0  0  0  0  0  0  0  0  0  0
    0.5390   -4.2900    5.0420 H   0  0  0  0  0  0  0  0  0  0  0  0
   -1.0550   -3.9710    4.3350 H   0  0  0  0  0  0  0  0  0  0  0  0
    0.0630   -3.1100    2.2420 H   0  0  0  0  0  0  0  0  0  0  0  0
    0.5010   -4.7380    2.7420 H   0  0  0  0  0  0  0  0  0  0  0  0
    3.5920   -3.0460    1.5770 H   0  0  0  0  0  0  0  0  0  0  0  0
    0.0490    1.8380    2.9070 C   0  0  0  0  0  0  0  0  0  0  0  0
   -0.8690    0.6190    2.7150 C   0  0  2  0  0  0  0  0  0  0  0  0
   -0.1770   -0.5060    3.2960 N   0  0  0  0  0  0  0  0  0  0  0  0
   -1.1690    0.5420    1.2990 C   0  0  0  0  0  0  0  0  0  0  0  0
   -1.7990    1.5350    0.7970 O   0  0  0  0  0  0  0  0  0  0  0  0
   -0.2790    2.4640    3.7680 H   0  0  0  0  0  0  0  0  0  0  0  0
    0.1280    2.4420    1.9830 H   0  0  0  0  0  0  0  0  0  0  0  0
    1.0840    1.5080    3.1570 H   0  0  0  0  0  0  0  0  0  0  0  0
   -1.7930    0.8790    3.2790 H   0  0  0  0  0  0  0  0  0  0  0  0
    0.6720   -0.8680    2.8270 H   0  0  0  0  0  0  0  0  0  0  0  0
    2.3050    2.8770   -3.6770 N   0  0  0  0  0  0  0  0  0  0  0  0
    1.3580    1.9350   -4.1490 C   0  0  0  0  0  0  0  0  0  0  0  0
    1.6310    1.2000   -5.1690 N   0  0  0  0  0  0  0  0  0  0  0  0
    0.0780    1.7770   -3.5080 N   0  0  0  0  0  0  0  0  0  0  0  0
   -0.7690    0.6380   -3.8040 C   0  0  0  0  0  0  0  0  0  0  0  0
   -0.1740   -0.6430   -3.2920 C   0  0  0  0  0  0  0  0  0  0  0  0
    0.0350   -0.6530   -1.8110 C   0  0  0  0  0  0  0  0  0  0  0  0
   -1.2060   -0.4680   -1.0070 C   0  0  2  0  0  0  0  0  0  0  0  0
   -0.8510   -0.4980    0.4020 N   0  0  0  0  0  0  0  0  0  0  0  0
   -2.1790   -1.5580   -1.2700 C   0  0  0  0  0  0  0  0  0  0  0  0
   -2.5550   -2.3250   -0.3340 O   0  0  0  0  0  0  0  0  0  0  0  0
   -2.7260   -1.8040   -2.5190 O   0  0  0  0  0  0  0  0  0  0  0  0
    2.0260    3.8070   -3.2970 H   0  0  0  0  0  0  0  0  0  0  0  0
    3.3230    2.6240   -3.7150 H   0  0  0  0  0  0  0  0  0  0  0  0
    2.5540    1.3100   -5.6360 H   0  0  0  0  0  0  0  0  0  0  0  0
   -0.1860    2.5250   -2.8320 H   0  0  0  0  0  0  0  0  0  0  0  0
   -0.7710    0.5510   -4.9310 H   0  0  0  0  0  0  0  0  0  0  0  0
   -1.8150    0.8020   -3.5140 H   0  0  0  0  0  0  0  0  0  0  0  0
    0.8560   -0.7030   -3.7500 H   0  0  0  0  0  0  0  0  0  0  0  0
   -0.7330   -1.4900   -3.6820 H   0  0  0  0  0  0  0  0  0  0  0  0
    0.8500    0.0360   -1.5070 H   0  0  0  0  0  0  0  0  0  0  0  0
    0.4380   -1.6770   -1.5590 H   0  0  0  0  0  0  0  0  0  0  0  0
   -1.7360    0.4800   -1.2110 H   0  0  0  0  0  0  0  0  0  0  0  0
   -0.3460   -1.3070    0.7660 H   0  0  0  0  0  0  0  0  0  0  0  0
  1 11  1  0  0  0  0
  2 12  1  1  0  0  0
  2  1  1  0  0  0  0
  3 13  1  0  0  0  0
  3  2  1  0  0  0  0
  4  3  1  0  0  0  0
  5  4  1  0  0  0  0
  5  6  2  0  0  0  0
  7  8  2  0  0  0  0
  7  2  1  0  0  0  0
  9  5  1  0  0  0  0
 10  1  1  0  0  0  0
 14  3  1  0  0  0  0
 15  4  1  0  0  0  0
 16  4  1  0  0  0  0
 17  9  1  0  0  0  0
 18 25  1  0  0  0  0
 18 23  1  0  0  0  0
 19 18  1  0  0  0  0
 19 26  1  1  0  0  0
 19 20  1  0  0  0  0
 20  7  1  0  0  0  0
 21 19  1  0  0  0  0
 22 21  2  0  0  0  0
 24 18  1  0  0  0  0
 27 20  1  0  0  0  0
 28 40  1  0  0  0  0
 29 28  1  0  0  0  0
 29 31  1  0  0  0  0
 30 29  2  0  0  0  0
 31 43  1  0  0  0  0
 32 45  1  0  0  0  0
 32 31  1  0  0  0  0
 32 33  1  0  0  0  0
 33 34  1  0  0  0  0
 34 49  1  0  0  0  0
 34 48  1  0  0  0  0
 34 35  1  0  0  0  0
 35 50  1  6  0  0  0
 35 36  1  0  0  0  0
 36 51  1  0  0  0  0
 36 21  1  0  0  0  0
 37 35  1  0  0  0  0
 37 38  1  0  0  0  0
 39 37  2  0  0  0  0
 41 28  1  0  0  0  0
 42 30  1  0  0  0  0
 44 32  1  0  0  0  0
 46 33  1  0  0  0  0
 47 33  1  0  0  0  0
M  END
$$$$
