EAT.pdb
 OpenBabel07022418173D

 42 41  0  0  1  0  0  0  0  0999 V2000
    2.4550   -0.8620   -0.8060 N   0  0  0  0  0  0  0  0  0  0  0  0
    1.6330    0.2150   -1.2680 C   0  0  1  0  0  0  0  0  0  0  0  0
    1.7420    0.4960   -2.7290 C   0  0  0  0  0  0  0  0  0  0  0  0
    3.1430    0.8650   -3.1650 C   0  0  0  0  0  0  0  0  0  0  0  0
    4.1410   -0.1730   -2.9160 C   0  0  0  0  0  0  0  0  0  0  0  0
    4.2280   -1.1700   -3.6670 O   0  0  0  0  0  0  0  0  0  0  0  0
    0.2020    0.0410   -0.9260 C   0  0  0  0  0  0  0  0  0  0  0  0
   -0.6160    0.8870   -1.3650 O   0  0  0  0  0  0  0  0  0  0  0  0
    5.0060   -0.0740   -1.8460 O   0  0  0  0  0  0  0  0  0  0  0  0
    2.3280   -1.7410   -1.3150 H   0  0  0  0  0  0  0  0  0  0  0  0
    2.5700   -0.9110    0.2100 H   0  0  0  0  0  0  0  0  0  0  0  0
    1.9680    1.1430   -0.7190 H   0  0  0  0  0  0  0  0  0  0  0  0
    1.3100   -0.3220   -3.3220 H   0  0  0  0  0  0  0  0  0  0  0  0
    1.1090    1.4080   -2.9310 H   0  0  0  0  0  0  0  0  0  0  0  0
    3.4200    1.8220   -2.6620 H   0  0  0  0  0  0  0  0  0  0  0  0
    3.0580    1.1490   -4.2570 H   0  0  0  0  0  0  0  0  0  0  0  0
    5.3570   -0.9080   -1.3500 H   0  0  0  0  0  0  0  0  0  0  0  0
   -2.2660   -2.4610   -0.2400 C   0  0  0  0  0  0  0  0  0  0  0  0
   -1.6790   -1.1320    0.1530 C   0  0  2  0  0  0  0  0  0  0  0  0
   -0.2820   -1.0270   -0.1330 N   0  0  0  0  0  0  0  0  0  0  0  0
   -1.9910   -0.8200    1.5750 C   0  0  0  0  0  0  0  0  0  0  0  0
   -3.1770   -0.8760    1.9710 O   0  0  0  0  0  0  0  0  0  0  0  0
   -3.3070   -2.2910   -0.6160 H   0  0  0  0  0  0  0  0  0  0  0  0
   -2.4050   -3.1280    0.6610 H   0  0  0  0  0  0  0  0  0  0  0  0
   -1.6770   -2.9420   -1.0200 H   0  0  0  0  0  0  0  0  0  0  0  0
   -2.2190   -0.3280   -0.4300 H   0  0  0  0  0  0  0  0  0  0  0  0
    0.4410   -1.7080    0.2140 H   0  0  0  0  0  0  0  0  0  0  0  0
   -0.7600   -2.5120    4.5390 C   0  0  0  0  0  0  0  0  0  0  0  0
   -0.3670   -1.0640    4.7560 C   0  0  1  0  0  0  0  0  0  0  0  0
    0.9940   -0.9250    4.4800 O   0  0  0  0  0  0  0  0  0  0  0  0
   -1.1560   -0.1440    3.8400 C   0  0  2  0  0  0  0  0  0  0  0  0
   -0.9280   -0.4640    2.4530 N   0  0  0  0  0  0  0  0  0  0  0  0
   -0.6840    1.2500    4.1250 C   0  0  0  0  0  0  0  0  0  0  0  0
   -0.1830    1.8960    3.1750 O   0  0  0  0  0  0  0  0  0  0  0  0
   -0.7980    1.7980    5.3800 O   0  0  0  0  0  0  0  0  0  0  0  0
   -0.6180   -2.7660    3.4510 H   0  0  0  0  0  0  0  0  0  0  0  0
   -1.8020   -2.7100    4.8170 H   0  0  0  0  0  0  0  0  0  0  0  0
   -0.1150   -3.1910    5.1140 H   0  0  0  0  0  0  0  0  0  0  0  0
   -0.5360   -0.8120    5.8210 H   0  0  0  0  0  0  0  0  0  0  0  0
    1.2150    0.0010    4.2100 H   0  0  0  0  0  0  0  0  0  0  0  0
   -2.2500   -0.2320    4.0440 H   0  0  0  0  0  0  0  0  0  0  0  0
    0.0440   -0.4360    2.0720 H   0  0  0  0  0  0  0  0  0  0  0  0
  1 11  1  0  0  0  0
  2  7  1  0  0  0  0
  2  1  1  0  0  0  0
  2 12  1  1  0  0  0
  3  2  1  0  0  0  0
  4  5  1  0  0  0  0
  4  3  1  0  0  0  0
  4 15  1  0  0  0  0
  5  9  1  0  0  0  0
  6  5  2  0  0  0  0
  7 20  1  0  0  0  0
  8  7  2  0  0  0  0
  9 17  1  0  0  0  0
 10  1  1  0  0  0  0
 13  3  1  0  0  0  0
 14  3  1  0  0  0  0
 16  4  1  0  0  0  0
 18 19  1  0  0  0  0
 18 24  1  0  0  0  0
 19 26  1  6  0  0  0
 19 21  1  0  0  0  0
 20 19  1  0  0  0  0
 20 27  1  0  0  0  0
 21 22  2  0  0  0  0
 21 32  1  0  0  0  0
 23 18  1  0  0  0  0
 25 18  1  0  0  0  0
 28 29  1  0  0  0  0
 28 37  1  0  0  0  0
 28 38  1  0  0  0  0
 29 39  1  1  0  0  0
 30 29  1  0  0  0  0
 31 41  1  1  0  0  0
 31 33  1  0  0  0  0
 31 29  1  0  0  0  0
 32 31  1  0  0  0  0
 33 35  1  0  0  0  0
 34 33  2  0  0  0  0
 36 28  1  0  0  0  0
 40 30  1  0  0  0  0
 42 32  1  0  0  0  0
M  END
$$$$
