EAV.pdb
 OpenBabel07022418173D

 44 43  0  0  1  0  0  0  0  0999 V2000
    2.4850    0.8990    1.5360 N   0  0  0  0  0  0  0  0  0  0  0  0
    1.5460    1.9090    1.0450 C   0  0  1  0  0  0  0  0  0  0  0  0
    2.3870    2.8940    0.2790 C   0  0  0  0  0  0  0  0  0  0  0  0
    1.5940    4.0370   -0.3010 C   0  0  0  0  0  0  0  0  0  0  0  0
    0.9030    4.8170    0.7640 C   0  0  0  0  0  0  0  0  0  0  0  0
   -0.1410    4.4360    1.3500 O   0  0  0  0  0  0  0  0  0  0  0  0
    0.5600    1.2880    0.1280 C   0  0  0  0  0  0  0  0  0  0  0  0
   -0.3890    1.9100   -0.3980 O   0  0  0  0  0  0  0  0  0  0  0  0
    1.4220    6.0310    1.1430 O   0  0  0  0  0  0  0  0  0  0  0  0
    3.0570    0.5090    0.7580 H   0  0  0  0  0  0  0  0  0  0  0  0
    3.0440    1.2550    2.3230 H   0  0  0  0  0  0  0  0  0  0  0  0
    1.1150    2.4070    1.9130 H   0  0  0  0  0  0  0  0  0  0  0  0
    2.8950    2.3910   -0.5760 H   0  0  0  0  0  0  0  0  0  0  0  0
    3.1560    3.3750    0.9500 H   0  0  0  0  0  0  0  0  0  0  0  0
    0.8290    3.7280   -1.0340 H   0  0  0  0  0  0  0  0  0  0  0  0
    2.2640    4.7410   -0.8590 H   0  0  0  0  0  0  0  0  0  0  0  0
    1.3760    6.4100    2.0810 H   0  0  0  0  0  0  0  0  0  0  0  0
    0.4440   -1.2310   -2.3130 C   0  0  0  0  0  0  0  0  0  0  0  0
   -0.3190   -0.7340   -1.1190 C   0  0  2  0  0  0  0  0  0  0  0  0
    0.6290   -0.1020   -0.2270 N   0  0  0  0  0  0  0  0  0  0  0  0
   -1.1050   -1.7910   -0.4360 C   0  0  0  0  0  0  0  0  0  0  0  0
   -1.9810   -2.4430   -1.0570 O   0  0  0  0  0  0  0  0  0  0  0  0
    1.4480   -1.6260   -1.9890 H   0  0  0  0  0  0  0  0  0  0  0  0
   -0.1020   -1.9650   -2.9190 H   0  0  0  0  0  0  0  0  0  0  0  0
    0.6790   -0.3560   -2.9500 H   0  0  0  0  0  0  0  0  0  0  0  0
   -1.0690    0.0180   -1.4930 H   0  0  0  0  0  0  0  0  0  0  0  0
    1.3880   -0.6900    0.1700 H   0  0  0  0  0  0  0  0  0  0  0  0
   -0.1560   -4.8640    0.7910 C   0  0  0  0  0  0  0  0  0  0  0  0
   -0.8230   -4.2840    2.0320 C   0  0  0  0  0  0  0  0  0  0  0  0
    0.2230   -3.9720    3.0250 C   0  0  0  0  0  0  0  0  0  0  0  0
   -1.6680   -3.1250    1.5850 C   0  0  2  0  0  0  0  0  0  0  0  0
   -0.8880   -2.0920    0.9360 N   0  0  0  0  0  0  0  0  0  0  0  0
   -2.5120   -2.5740    2.6740 C   0  0  0  0  0  0  0  0  0  0  0  0
   -3.2400   -3.3690    3.3210 O   0  0  0  0  0  0  0  0  0  0  0  0
   -2.5580   -1.2540    3.0300 O   0  0  0  0  0  0  0  0  0  0  0  0
   -0.8780   -5.0840   -0.0010 H   0  0  0  0  0  0  0  0  0  0  0  0
    0.3420   -5.8370    1.0590 H   0  0  0  0  0  0  0  0  0  0  0  0
    0.6030   -4.1710    0.3760 H   0  0  0  0  0  0  0  0  0  0  0  0
   -1.5090   -5.0640    2.4240 H   0  0  0  0  0  0  0  0  0  0  0  0
    0.0480   -3.1370    3.6920 H   0  0  0  0  0  0  0  0  0  0  0  0
    0.3390   -4.8800    3.6900 H   0  0  0  0  0  0  0  0  0  0  0  0
    1.2410   -3.8950    2.5420 H   0  0  0  0  0  0  0  0  0  0  0  0
   -2.3700   -3.5380    0.8310 H   0  0  0  0  0  0  0  0  0  0  0  0
   -0.1450   -1.5420    1.4670 H   0  0  0  0  0  0  0  0  0  0  0  0
  1 11  1  0  0  0  0
  2  1  1  0  0  0  0
  2 12  1  1  0  0  0
  3 14  1  0  0  0  0
  3  2  1  0  0  0  0
  4  3  1  0  0  0  0
  4  5  1  0  0  0  0
  5  9  1  0  0  0  0
  5  6  2  0  0  0  0
  7  2  1  0  0  0  0
  8  7  2  0  0  0  0
  9 17  1  0  0  0  0
 10  1  1  0  0  0  0
 13  3  1  0  0  0  0
 15  4  1  0  0  0  0
 16  4  1  0  0  0  0
 18 23  1  0  0  0  0
 18 19  1  0  0  0  0
 19 26  1  6  0  0  0
 19 21  1  0  0  0  0
 19 20  1  0  0  0  0
 20  7  1  0  0  0  0
 20 27  1  0  0  0  0
 21 32  1  0  0  0  0
 22 21  2  0  0  0  0
 24 18  1  0  0  0  0
 25 18  1  0  0  0  0
 28 37  1  0  0  0  0
 28 29  1  0  0  0  0
 29 39  1  0  0  0  0
 29 30  1  0  0  0  0
 30 41  1  0  0  0  0
 30 40  1  0  0  0  0
 31 43  1  6  0  0  0
 31 29  1  0  0  0  0
 31 33  1  0  0  0  0
 32 44  1  0  0  0  0
 32 31  1  0  0  0  0
 33 35  2  0  0  0  0
 33 34  1  0  0  0  0
 36 28  1  0  0  0  0
 38 28  1  0  0  0  0
 42 30  1  0  0  0  0
M  END
$$$$
