EAW.pdb
 OpenBabel07022418173D

 52 53  0  0  1  0  0  0  0  0999 V2000
    1.6250   -2.8990    1.1130 N   0  0  0  0  0  0  0  0  0  0  0  0
    2.6450   -2.0290    1.7320 C   0  0  1  0  0  0  0  0  0  0  0  0
    3.9590   -2.5270    1.2490 C   0  0  0  0  0  0  0  0  0  0  0  0
    5.1670   -1.8120    1.7250 C   0  0  0  0  0  0  0  0  0  0  0  0
    5.3100   -1.8770    3.1760 C   0  0  0  0  0  0  0  0  0  0  0  0
    4.5390   -2.4980    3.9270 O   0  0  0  0  0  0  0  0  0  0  0  0
    2.3280   -0.6550    1.2750 C   0  0  0  0  0  0  0  0  0  0  0  0
    3.0590    0.2930    1.6710 O   0  0  0  0  0  0  0  0  0  0  0  0
    6.3720   -1.2120    3.8270 O   0  0  0  0  0  0  0  0  0  0  0  0
    0.7400   -2.8990    1.6860 H   0  0  0  0  0  0  0  0  0  0  0  0
    2.0100   -3.8670    1.0870 H   0  0  0  0  0  0  0  0  0  0  0  0
    2.5890   -2.1390    2.8280 H   0  0  0  0  0  0  0  0  0  0  0  0
    3.9830   -2.6490    0.1270 H   0  0  0  0  0  0  0  0  0  0  0  0
    4.0480   -3.5880    1.6370 H   0  0  0  0  0  0  0  0  0  0  0  0
    5.2630   -0.7790    1.3200 H   0  0  0  0  0  0  0  0  0  0  0  0
    6.0520   -2.3740    1.2960 H   0  0  0  0  0  0  0  0  0  0  0  0
    6.2800   -0.9570    4.8160 H   0  0  0  0  0  0  0  0  0  0  0  0
    0.9480    1.1210   -1.5340 C   0  0  0  0  0  0  0  0  0  0  0  0
    0.8980    0.9680   -0.0550 C   0  0  2  0  0  0  0  0  0  0  0  0
    1.2570   -0.3310    0.4220 N   0  0  0  0  0  0  0  0  0  0  0  0
   -0.4440    1.3190    0.5180 C   0  0  0  0  0  0  0  0  0  0  0  0
   -0.9340    2.4330    0.1970 O   0  0  0  0  0  0  0  0  0  0  0  0
    0.1790    1.8930   -1.8240 H   0  0  0  0  0  0  0  0  0  0  0  0
    0.6640    0.2050   -2.0890 H   0  0  0  0  0  0  0  0  0  0  0  0
    1.9070    1.5380   -1.8340 H   0  0  0  0  0  0  0  0  0  0  0  0
    1.6420    1.6840    0.3890 H   0  0  0  0  0  0  0  0  0  0  0  0
    0.6500   -1.1390    0.0970 H   0  0  0  0  0  0  0  0  0  0  0  0
   -1.1250    0.4260    1.3830 N   0  0  0  0  0  0  0  0  0  0  0  0
   -2.4020    0.7860    1.9130 C   0  0  1  0  0  0  0  0  0  0  0  0
   -3.5510   -0.0940    1.5020 C   0  0  0  0  0  0  0  0  0  0  0  0
   -3.8220   -0.1690    0.0760 C   0  0  0  0  0  0  0  0  0  0  0  0
   -4.7840    0.5360   -0.6170 C   0  0  0  0  0  0  0  0  0  0  0  0
   -4.7130    0.2200   -1.9150 N   0  0  0  0  0  0  0  0  0  0  0  0
   -3.7150   -0.6870   -2.0940 C   0  0  0  0  0  0  0  0  0  0  0  0
   -3.2260   -1.3400   -3.2020 C   0  0  0  0  0  0  0  0  0  0  0  0
   -2.1860   -2.2480   -3.1460 C   0  0  0  0  0  0  0  0  0  0  0  0
   -1.6530   -2.4700   -1.8930 C   0  0  0  0  0  0  0  0  0  0  0  0
   -2.1010   -1.8470   -0.7540 C   0  0  0  0  0  0  0  0  0  0  0  0
   -3.1580   -0.9340   -0.8630 C   0  0  0  0  0  0  0  0  0  0  0  0
   -2.3820    0.8630    3.3910 C   0  0  0  0  0  0  0  0  0  0  0  0
   -1.3420    0.6300    4.0340 O   0  0  0  0  0  0  0  0  0  0  0  0
   -3.5400    1.2010    4.0580 O   0  0  0  0  0  0  0  0  0  0  0  0
   -0.6340   -0.4670    1.5990 H   0  0  0  0  0  0  0  0  0  0  0  0
   -2.6300    1.8480    1.5790 H   0  0  0  0  0  0  0  0  0  0  0  0
   -3.4060   -1.1100    1.9750 H   0  0  0  0  0  0  0  0  0  0  0  0
   -4.4580    0.3210    2.0170 H   0  0  0  0  0  0  0  0  0  0  0  0
   -5.5110    1.2500   -0.2110 H   0  0  0  0  0  0  0  0  0  0  0  0
   -5.2930    0.5690   -2.7260 H   0  0  0  0  0  0  0  0  0  0  0  0
   -3.6900   -1.1210   -4.1710 H   0  0  0  0  0  0  0  0  0  0  0  0
   -1.8050   -2.7590   -4.0300 H   0  0  0  0  0  0  0  0  0  0  0  0
   -0.8250   -3.1890   -1.8300 H   0  0  0  0  0  0  0  0  0  0  0  0
   -1.6710   -2.0480    0.2210 H   0  0  0  0  0  0  0  0  0  0  0  0
  1 10  1  0  0  0  0
  1  2  1  0  0  0  0
  2 12  1  1  0  0  0
  3 14  1  0  0  0  0
  3  4  1  0  0  0  0
  3  2  1  0  0  0  0
  4  5  1  0  0  0  0
  5  9  1  0  0  0  0
  5  6  2  0  0  0  0
  7  8  2  0  0  0  0
  7  2  1  0  0  0  0
  9 17  1  0  0  0  0
 11  1  1  0  0  0  0
 13  3  1  0  0  0  0
 15  4  1  0  0  0  0
 16  4  1  0  0  0  0
 18 19  1  0  0  0  0
 19 26  1  1  0  0  0
 19 20  1  0  0  0  0
 19 21  1  0  0  0  0
 20  7  1  0  0  0  0
 21 28  1  0  0  0  0
 22 21  2  0  0  0  0
 23 18  1  0  0  0  0
 24 18  1  0  0  0  0
 25 18  1  0  0  0  0
 27 20  1  0  0  0  0
 28 43  1  0  0  0  0
 28 29  1  0  0  0  0
 29 44  1  6  0  0  0
 29 40  1  0  0  0  0
 30 29  1  0  0  0  0
 30 45  1  0  0  0  0
 30 46  1  0  0  0  0
 31 30  1  0  0  0  0
 32 47  1  0  0  0  0
 32 31  2  0  0  0  0
 33 32  1  0  0  0  0
 34 33  1  0  0  0  0
 34 39  1  0  0  0  0
 35 36  1  0  0  0  0
 35 34  2  0  0  0  0
 36 37  2  0  0  0  0
 37 51  1  0  0  0  0
 37 38  1  0  0  0  0
 38 52  1  0  0  0  0
 39 38  2  0  0  0  0
 39 31  1  0  0  0  0
 40 41  2  0  0  0  0
 40 42  1  0  0  0  0
 48 33  1  0  0  0  0
 49 35  1  0  0  0  0
 50 36  1  0  0  0  0
M  END
$$$$
