ECD.pdb
 OpenBabel07022418183D

 42 41  0  0  1  0  0  0  0  0999 V2000
    0.6020   -3.2670    0.3720 N   0  0  0  0  0  0  0  0  0  0  0  0
    1.8430   -2.6850    0.8890 C   0  0  1  0  0  0  0  0  0  0  0  0
    2.9910   -3.4800    0.3910 C   0  0  0  0  0  0  0  0  0  0  0  0
    4.3420   -3.0380    0.8140 C   0  0  0  0  0  0  0  0  0  0  0  0
    4.5830   -3.0370    2.2690 C   0  0  0  0  0  0  0  0  0  0  0  0
    5.7000   -2.6490    2.6870 O   0  0  0  0  0  0  0  0  0  0  0  0
    1.9030   -1.2580    0.5510 C   0  0  0  0  0  0  0  0  0  0  0  0
    2.8880   -0.5480    0.8700 O   0  0  0  0  0  0  0  0  0  0  0  0
    3.6460   -3.4410    3.2000 O   0  0  0  0  0  0  0  0  0  0  0  0
    0.6260   -4.2840    0.6610 H   0  0  0  0  0  0  0  0  0  0  0  0
   -0.1740   -2.8370    0.9170 H   0  0  0  0  0  0  0  0  0  0  0  0
    1.7670   -2.8030    1.9940 H   0  0  0  0  0  0  0  0  0  0  0  0
    2.9190   -3.5880   -0.7220 H   0  0  0  0  0  0  0  0  0  0  0  0
    2.8740   -4.5440    0.7600 H   0  0  0  0  0  0  0  0  0  0  0  0
    4.6340   -2.0380    0.4380 H   0  0  0  0  0  0  0  0  0  0  0  0
    5.0740   -3.7840    0.3850 H   0  0  0  0  0  0  0  0  0  0  0  0
    3.7430   -3.1900    4.1820 H   0  0  0  0  0  0  0  0  0  0  0  0
    0.8550   -0.6030   -0.1510 N   0  0  0  0  0  0  0  0  0  0  0  0
    0.9700    0.8040   -0.4580 C   0  0  1  0  0  0  0  0  0  0  0  0
    0.8610    1.1190   -1.9200 C   0  0  0  0  0  0  0  0  0  0  0  0
   -0.7020    0.6190   -2.6610 S   0  0  0  0  0  0  0  0  0  0  0  0
   -0.0800    1.5310    0.2970 C   0  0  0  0  0  0  0  0  0  0  0  0
   -0.1660    2.7770    0.1740 O   0  0  0  0  0  0  0  0  0  0  0  0
   -0.0070   -1.1060   -0.4590 H   0  0  0  0  0  0  0  0  0  0  0  0
    1.9350    1.2310   -0.1110 H   0  0  0  0  0  0  0  0  0  0  0  0
    0.9180    2.2350   -2.0040 H   0  0  0  0  0  0  0  0  0  0  0  0
    1.7460    0.7280   -2.4750 H   0  0  0  0  0  0  0  0  0  0  0  0
   -1.1340   -0.5800   -2.0700 H   0  0  0  0  0  0  0  0  0  0  0  0
   -1.0030    0.8880    1.1600 N   0  0  0  0  0  0  0  0  0  0  0  0
   -2.0260    1.6560    1.8890 C   0  0  1  0  0  0  0  0  0  0  0  0
   -3.4070    1.1500    1.6160 C   0  0  0  0  0  0  0  0  0  0  0  0
   -3.8110    1.2050    0.2020 C   0  0  0  0  0  0  0  0  0  0  0  0
   -3.3140    0.3520   -0.6030 O   0  0  0  0  0  0  0  0  0  0  0  0
   -1.7580    1.5290    3.3370 C   0  0  0  0  0  0  0  0  0  0  0  0
   -2.5110    2.1070    4.1470 O   0  0  0  0  0  0  0  0  0  0  0  0
   -4.7100    2.1600   -0.2400 O   0  0  0  0  0  0  0  0  0  0  0  0
   -0.6960    0.7860    3.8080 O   0  0  0  0  0  0  0  0  0  0  0  0
   -0.9390   -0.1460    1.2670 H   0  0  0  0  0  0  0  0  0  0  0  0
   -1.9110    2.7290    1.6250 H   0  0  0  0  0  0  0  0  0  0  0  0
   -3.5060    0.1300    2.0360 H   0  0  0  0  0  0  0  0  0  0  0  0
   -4.0970    1.8000    2.2180 H   0  0  0  0  0  0  0  0  0  0  0  0
   -5.2810    1.9520   -1.0750 H   0  0  0  0  0  0  0  0  0  0  0  0
  1 10  1  0  0  0  0
  1  2  1  0  0  0  0
  1 11  1  0  0  0  0
  2 12  1  1  0  0  0
  3 14  1  0  0  0  0
  3  4  1  0  0  0  0
  3  2  1  0  0  0  0
  4  5  1  0  0  0  0
  5  6  2  0  0  0  0
  5  9  1  0  0  0  0
  7  8  2  0  0  0  0
  7  2  1  0  0  0  0
  9 17  1  0  0  0  0
 13  3  1  0  0  0  0
 15  4  1  0  0  0  0
 16  4  1  0  0  0  0
 18  7  1  0  0  0  0
 19 18  1  0  0  0  0
 19 25  1  1  0  0  0
 19 22  1  0  0  0  0
 20 19  1  0  0  0  0
 21 28  1  0  0  0  0
 21 20  1  0  0  0  0
 22 29  1  0  0  0  0
 23 22  2  0  0  0  0
 24 18  1  0  0  0  0
 26 20  1  0  0  0  0
 27 20  1  0  0  0  0
 29 38  1  0  0  0  0
 29 30  1  0  0  0  0
 30 39  1  6  0  0  0
 30 34  1  0  0  0  0
 31 30  1  0  0  0  0
 31 40  1  0  0  0  0
 31 41  1  0  0  0  0
 32 31  1  0  0  0  0
 33 32  2  0  0  0  0
 34 37  2  0  0  0  0
 34 35  1  0  0  0  0
 36 32  1  0  0  0  0
 42 36  1  0  0  0  0
M  END
$$$$
