ECF.pdb
 OpenBabel07022418183D

 49 49  0  0  1  0  0  0  0  0999 V2000
    0.7090    2.5000    4.4780 N   0  0  0  0  0  0  0  0  0  0  0  0
    0.2390    2.1340    3.1100 C   0  0  1  0  0  0  0  0  0  0  0  0
    0.4760    3.3250    2.2280 C   0  0  0  0  0  0  0  0  0  0  0  0
    0.0990    3.2250    0.8130 C   0  0  0  0  0  0  0  0  0  0  0  0
    0.4410    4.5530    0.1690 C   0  0  0  0  0  0  0  0  0  0  0  0
    0.9320    5.4950    0.8700 O   0  0  0  0  0  0  0  0  0  0  0  0
    1.0080    0.9540    2.7390 C   0  0  0  0  0  0  0  0  0  0  0  0
    2.1610    0.8000    3.2160 O   0  0  0  0  0  0  0  0  0  0  0  0
    0.2500    4.8140   -1.1590 O   0  0  0  0  0  0  0  0  0  0  0  0
    0.9190    1.5940    4.9580 H   0  0  0  0  0  0  0  0  0  0  0  0
    1.5900    3.0500    4.3320 H   0  0  0  0  0  0  0  0  0  0  0  0
   -0.8400    1.9630    3.2140 H   0  0  0  0  0  0  0  0  0  0  0  0
   -0.0450    4.2310    2.6530 H   0  0  0  0  0  0  0  0  0  0  0  0
    1.5660    3.5980    2.3650 H   0  0  0  0  0  0  0  0  0  0  0  0
    0.5630    2.4180    0.2170 H   0  0  0  0  0  0  0  0  0  0  0  0
   -1.0030    3.1240    0.6480 H   0  0  0  0  0  0  0  0  0  0  0  0
    0.8650    5.4820   -1.6430 H   0  0  0  0  0  0  0  0  0  0  0  0
    0.5060   -0.0310    1.8680 N   0  0  0  0  0  0  0  0  0  0  0  0
    1.3530   -1.1660    1.5630 C   0  0  1  0  0  0  0  0  0  0  0  0
    1.0060   -2.3030    2.5440 C   0  0  0  0  0  0  0  0  0  0  0  0
    1.2920   -1.7620    4.2480 S   0  0  0  0  0  0  0  0  0  0  0  0
    1.1870   -1.7030    0.2030 C   0  0  0  0  0  0  0  0  0  0  0  0
    1.9270   -2.6840   -0.1540 O   0  0  0  0  0  0  0  0  0  0  0  0
   -0.4350   -0.0200    1.4250 H   0  0  0  0  0  0  0  0  0  0  0  0
    2.4080   -0.9190    1.8280 H   0  0  0  0  0  0  0  0  0  0  0  0
    1.6300   -3.1850    2.3290 H   0  0  0  0  0  0  0  0  0  0  0  0
   -0.0470   -2.5360    2.4210 H   0  0  0  0  0  0  0  0  0  0  0  0
    2.6570   -1.6030    4.5310 H   0  0  0  0  0  0  0  0  0  0  0  0
    0.2670   -1.2270   -0.7630 N   0  0  0  0  0  0  0  0  0  0  0  0
    0.2070   -1.8630   -2.0620 C   0  0  1  0  0  0  0  0  0  0  0  0
   -1.1740   -2.4890   -2.2400 C   0  0  0  0  0  0  0  0  0  0  0  0
   -1.3830   -3.4970   -1.1740 C   0  0  0  0  0  0  0  0  0  0  0  0
   -1.9400   -3.1040    0.0260 C   0  0  0  0  0  0  0  0  0  0  0  0
   -2.1260   -4.0500    0.9950 C   0  0  0  0  0  0  0  0  0  0  0  0
   -1.7810   -5.3820    0.8190 C   0  0  0  0  0  0  0  0  0  0  0  0
   -1.2230   -5.7490   -0.3990 C   0  0  0  0  0  0  0  0  0  0  0  0
   -1.0270   -4.8090   -1.3870 C   0  0  0  0  0  0  0  0  0  0  0  0
    0.4230   -0.8380   -3.1060 C   0  0  0  0  0  0  0  0  0  0  0  0
    0.4210   -1.1230   -4.3390 O   0  0  0  0  0  0  0  0  0  0  0  0
    0.6350    0.4770   -2.7260 O   0  0  0  0  0  0  0  0  0  0  0  0
   -0.3450   -0.4440   -0.5460 H   0  0  0  0  0  0  0  0  0  0  0  0
    0.9940   -2.6600   -2.1610 H   0  0  0  0  0  0  0  0  0  0  0  0
   -1.8970   -1.6690   -2.0770 H   0  0  0  0  0  0  0  0  0  0  0  0
   -1.2230   -2.9240   -3.2560 H   0  0  0  0  0  0  0  0  0  0  0  0
   -2.2280   -2.0800    0.2140 H   0  0  0  0  0  0  0  0  0  0  0  0
   -2.5700   -3.7220    1.9310 H   0  0  0  0  0  0  0  0  0  0  0  0
   -1.9450   -6.1010    1.6100 H   0  0  0  0  0  0  0  0  0  0  0  0
   -0.9640   -6.7930   -0.4980 H   0  0  0  0  0  0  0  0  0  0  0  0
   -0.5940   -5.1310   -2.3220 H   0  0  0  0  0  0  0  0  0  0  0  0
  1 10  1  0  0  0  0
  2 12  1  1  0  0  0
  2  1  1  0  0  0  0
  3 14  1  0  0  0  0
  3 13  1  0  0  0  0
  3  2  1  0  0  0  0
  4  3  1  0  0  0  0
  5  4  1  0  0  0  0
  5  6  2  0  0  0  0
  7  2  1  0  0  0  0
  7  8  2  0  0  0  0
  9  5  1  0  0  0  0
 11  1  1  0  0  0  0
 15  4  1  0  0  0  0
 16  4  1  0  0  0  0
 17  9  1  0  0  0  0
 18  7  1  0  0  0  0
 19 25  1  1  0  0  0
 19 18  1  0  0  0  0
 19 20  1  0  0  0  0
 20 21  1  0  0  0  0
 21 28  1  0  0  0  0
 22 19  1  0  0  0  0
 23 22  2  0  0  0  0
 24 18  1  0  0  0  0
 26 20  1  0  0  0  0
 27 20  1  0  0  0  0
 29 41  1  0  0  0  0
 29 22  1  0  0  0  0
 30 42  1  6  0  0  0
 30 29  1  0  0  0  0
 31 43  1  0  0  0  0
 31 30  1  0  0  0  0
 31 32  1  0  0  0  0
 32 33  1  0  0  0  0
 33 45  1  0  0  0  0
 33 34  2  0  0  0  0
 34 46  1  0  0  0  0
 35 34  1  0  0  0  0
 35 47  1  0  0  0  0
 36 35  2  0  0  0  0
 37 32  2  0  0  0  0
 37 36  1  0  0  0  0
 38 40  1  0  0  0  0
 38 30  1  0  0  0  0
 39 38  2  0  0  0  0
 44 31  1  0  0  0  0
 48 36  1  0  0  0  0
 49 37  1  0  0  0  0
M  END
$$$$
