ECG.pdb
 OpenBabel07022418183D

 36 35  0  0  1  0  0  0  0  0999 V2000
    0.7800   -2.9490    0.9520 N   0  0  0  0  0  0  0  0  0  0  0  0
    0.5490   -2.0600    2.0880 C   0  0  1  0  0  0  0  0  0  0  0  0
    1.6810   -2.1910    3.0860 C   0  0  0  0  0  0  0  0  0  0  0  0
    1.5640   -1.3260    4.2890 C   0  0  0  0  0  0  0  0  0  0  0  0
    0.3940   -1.5380    5.1350 C   0  0  0  0  0  0  0  0  0  0  0  0
   -0.4350   -2.4300    4.8480 O   0  0  0  0  0  0  0  0  0  0  0  0
    0.4540   -0.6790    1.5860 C   0  0  0  0  0  0  0  0  0  0  0  0
    0.1450    0.2770    2.3580 O   0  0  0  0  0  0  0  0  0  0  0  0
    0.1970   -0.7540    6.2560 O   0  0  0  0  0  0  0  0  0  0  0  0
   -0.1150   -2.9240    0.3790 H   0  0  0  0  0  0  0  0  0  0  0  0
    0.9600   -3.9260    1.2360 H   0  0  0  0  0  0  0  0  0  0  0  0
   -0.4080   -2.3390    2.5570 H   0  0  0  0  0  0  0  0  0  0  0  0
    1.7700   -3.2690    3.3310 H   0  0  0  0  0  0  0  0  0  0  0  0
    2.6490   -1.9110    2.5680 H   0  0  0  0  0  0  0  0  0  0  0  0
    1.7180   -0.2320    4.0410 H   0  0  0  0  0  0  0  0  0  0  0  0
    2.4700   -1.5600    4.9250 H   0  0  0  0  0  0  0  0  0  0  0  0
   -0.2810   -1.0920    7.0790 H   0  0  0  0  0  0  0  0  0  0  0  0
    0.7090   -0.3850    0.2070 N   0  0  0  0  0  0  0  0  0  0  0  0
    0.6080    0.9790   -0.2660 C   0  0  1  0  0  0  0  0  0  0  0  0
    2.0240    1.5430   -0.5160 C   0  0  0  0  0  0  0  0  0  0  0  0
    1.9170    3.2550   -1.1030 S   0  0  0  0  0  0  0  0  0  0  0  0
   -0.2250    1.1060   -1.4630 C   0  0  0  0  0  0  0  0  0  0  0  0
   -0.4080    2.2610   -1.9740 O   0  0  0  0  0  0  0  0  0  0  0  0
    0.9640   -1.1890   -0.4310 H   0  0  0  0  0  0  0  0  0  0  0  0
    0.2230    1.6000    0.5690 H   0  0  0  0  0  0  0  0  0  0  0  0
    2.5920    1.4710    0.4400 H   0  0  0  0  0  0  0  0  0  0  0  0
    2.5280    0.9590   -1.3230 H   0  0  0  0  0  0  0  0  0  0  0  0
    0.9720    3.9510   -0.2930 H   0  0  0  0  0  0  0  0  0  0  0  0
   -0.8770    0.0440   -2.1470 N   0  0  0  0  0  0  0  0  0  0  0  0
   -1.6900    0.2200   -3.3350 C   0  0  0  0  0  0  0  0  0  0  0  0
   -2.1840   -1.1140   -3.7620 C   0  0  0  0  0  0  0  0  0  0  0  0
   -2.9080   -1.2060   -4.7900 O   0  0  0  0  0  0  0  0  0  0  0  0
   -1.8600   -2.2530   -3.0470 O   0  0  0  0  0  0  0  0  0  0  0  0
   -0.7490   -0.9110   -1.7510 H   0  0  0  0  0  0  0  0  0  0  0  0
   -2.5340    0.9430   -3.1720 H   0  0  0  0  0  0  0  0  0  0  0  0
   -1.0660    0.7080   -4.1450 H   0  0  0  0  0  0  0  0  0  0  0  0
  1 11  1  0  0  0  0
  1  2  1  0  0  0  0
  2 12  1  1  0  0  0
  2  3  1  0  0  0  0
  3 13  1  0  0  0  0
  3  4  1  0  0  0  0
  4 16  1  0  0  0  0
  4  5  1  0  0  0  0
  5  9  1  0  0  0  0
  6  5  2  0  0  0  0
  7  2  1  0  0  0  0
  7  8  2  0  0  0  0
  9 17  1  0  0  0  0
 10  1  1  0  0  0  0
 14  3  1  0  0  0  0
 15  4  1  0  0  0  0
 18  7  1  0  0  0  0
 19 18  1  0  0  0  0
 19 25  1  1  0  0  0
 20 19  1  0  0  0  0
 20 26  1  0  0  0  0
 21 20  1  0  0  0  0
 21 28  1  0  0  0  0
 22 19  1  0  0  0  0
 23 22  2  0  0  0  0
 24 18  1  0  0  0  0
 27 20  1  0  0  0  0
 29 34  1  0  0  0  0
 29 22  1  0  0  0  0
 30 35  1  0  0  0  0
 30 29  1  0  0  0  0
 31 30  1  0  0  0  0
 31 33  1  0  0  0  0
 32 31  2  0  0  0  0
 36 30  1  0  0  0  0
M  END
$$$$
