ECL.pdb
 OpenBabel07022418183D

 48 47  0  0  1  0  0  0  0  0999 V2000
    2.1550   -3.2010   -2.2790 N   0  0  0  0  0  0  0  0  0  0  0  0
    2.9960   -2.5340   -1.2790 C   0  0  1  0  0  0  0  0  0  0  0  0
    4.2170   -2.0770   -1.9980 C   0  0  0  0  0  0  0  0  0  0  0  0
    5.2120   -1.3610   -1.1470 C   0  0  0  0  0  0  0  0  0  0  0  0
    5.7320   -2.1870   -0.0590 C   0  0  0  0  0  0  0  0  0  0  0  0
    5.4020   -3.3690    0.0870 O   0  0  0  0  0  0  0  0  0  0  0  0
    2.2440   -1.4780   -0.5800 C   0  0  0  0  0  0  0  0  0  0  0  0
    2.7810   -0.8370    0.3550 O   0  0  0  0  0  0  0  0  0  0  0  0
    6.6380   -1.6150    0.8490 O   0  0  0  0  0  0  0  0  0  0  0  0
    2.6740   -4.0070   -2.7090 H   0  0  0  0  0  0  0  0  0  0  0  0
    1.2480   -3.5210   -1.8650 H   0  0  0  0  0  0  0  0  0  0  0  0
    3.2250   -3.3200   -0.5410 H   0  0  0  0  0  0  0  0  0  0  0  0
    4.7180   -3.0150   -2.3870 H   0  0  0  0  0  0  0  0  0  0  0  0
    3.9130   -1.4740   -2.8860 H   0  0  0  0  0  0  0  0  0  0  0  0
    6.0470   -1.0450   -1.8430 H   0  0  0  0  0  0  0  0  0  0  0  0
    4.7540   -0.4200   -0.7570 H   0  0  0  0  0  0  0  0  0  0  0  0
    6.7240   -2.0080    1.7710 H   0  0  0  0  0  0  0  0  0  0  0  0
    0.9080   -1.1240   -0.9050 N   0  0  0  0  0  0  0  0  0  0  0  0
    0.1620   -0.0870   -0.2240 C   0  0  1  0  0  0  0  0  0  0  0  0
   -0.1000    1.0050   -1.2430 C   0  0  0  0  0  0  0  0  0  0  0  0
   -1.0430    0.4360   -2.6560 S   0  0  0  0  0  0  0  0  0  0  0  0
   -1.0890   -0.6870    0.2810 C   0  0  0  0  0  0  0  0  0  0  0  0
   -1.3380   -1.8980    0.0870 O   0  0  0  0  0  0  0  0  0  0  0  0
    0.4600   -1.6520   -1.6790 H   0  0  0  0  0  0  0  0  0  0  0  0
    0.7610    0.3890    0.5820 H   0  0  0  0  0  0  0  0  0  0  0  0
   -0.5360    1.9060   -0.7650 H   0  0  0  0  0  0  0  0  0  0  0  0
    0.9140    1.3170   -1.6150 H   0  0  0  0  0  0  0  0  0  0  0  0
   -0.2080   -0.4610   -3.3890 H   0  0  0  0  0  0  0  0  0  0  0  0
   -3.3600    0.3420    5.2620 C   0  0  0  0  0  0  0  0  0  0  0  0
   -3.2170    0.7590    3.7820 C   0  0  0  0  0  0  0  0  0  0  0  0
   -1.9190    1.4830    3.6770 C   0  0  0  0  0  0  0  0  0  0  0  0
   -3.3490   -0.4890    2.9970 C   0  0  0  0  0  0  0  0  0  0  0  0
   -3.2660   -0.3990    1.5200 C   0  0  2  0  0  0  0  0  0  0  0  0
   -2.0260    0.1290    1.0010 N   0  0  0  0  0  0  0  0  0  0  0  0
   -4.4480    0.2540    0.9240 C   0  0  0  0  0  0  0  0  0  0  0  0
   -4.3510    1.1490    0.0770 O   0  0  0  0  0  0  0  0  0  0  0  0
   -5.7030   -0.1610    1.3390 O   0  0  0  0  0  0  0  0  0  0  0  0
   -2.9130    1.1140    5.8940 H   0  0  0  0  0  0  0  0  0  0  0  0
   -4.4370    0.1540    5.4900 H   0  0  0  0  0  0  0  0  0  0  0  0
   -2.7670   -0.5930    5.3450 H   0  0  0  0  0  0  0  0  0  0  0  0
   -4.0350    1.4730    3.5460 H   0  0  0  0  0  0  0  0  0  0  0  0
   -1.0600    0.8890    3.3680 H   0  0  0  0  0  0  0  0  0  0  0  0
   -1.6490    1.8610    4.7060 H   0  0  0  0  0  0  0  0  0  0  0  0
   -1.9780    2.4120    3.0690 H   0  0  0  0  0  0  0  0  0  0  0  0
   -2.5730   -1.1990    3.3560 H   0  0  0  0  0  0  0  0  0  0  0  0
   -4.3270   -0.9600    3.2690 H   0  0  0  0  0  0  0  0  0  0  0  0
   -3.3080   -1.4700    1.1440 H   0  0  0  0  0  0  0  0  0  0  0  0
   -1.7360    1.1280    1.1060 H   0  0  0  0  0  0  0  0  0  0  0  0
  1 11  1  0  0  0  0
  1  2  1  0  0  0  0
  2  7  1  0  0  0  0
  2 12  1  1  0  0  0
  3  2  1  0  0  0  0
  3  4  1  0  0  0  0
  4 16  1  0  0  0  0
  4  5  1  0  0  0  0
  5  6  2  0  0  0  0
  5  9  1  0  0  0  0
  7  8  2  0  0  0  0
  9 17  1  0  0  0  0
 10  1  1  0  0  0  0
 13  3  1  0  0  0  0
 14  3  1  0  0  0  0
 15  4  1  0  0  0  0
 18  7  1  0  0  0  0
 18 19  1  0  0  0  0
 19 22  1  0  0  0  0
 19 25  1  1  0  0  0
 20 26  1  0  0  0  0
 20 19  1  0  0  0  0
 21 20  1  0  0  0  0
 22 34  1  0  0  0  0
 23 22  2  0  0  0  0
 24 18  1  0  0  0  0
 27 20  1  0  0  0  0
 28 21  1  0  0  0  0
 29 40  1  0  0  0  0
 29 39  1  0  0  0  0
 29 38  1  0  0  0  0
 30 29  1  0  0  0  0
 31 30  1  0  0  0  0
 31 43  1  0  0  0  0
 32 46  1  0  0  0  0
 32 45  1  0  0  0  0
 32 30  1  0  0  0  0
 33 47  1  6  0  0  0
 33 32  1  0  0  0  0
 34 48  1  0  0  0  0
 34 33  1  0  0  0  0
 35 37  1  0  0  0  0
 35 33  1  0  0  0  0
 36 35  2  0  0  0  0
 41 30  1  0  0  0  0
 42 31  1  0  0  0  0
 44 31  1  0  0  0  0
M  END
$$$$
