ECP.pdb
 OpenBabel07022418183D

 43 43  0  0  1  0  0  0  0  0999 V2000
   -1.7110   -3.0240   -1.3080 N   0  0  0  0  0  0  0  0  0  0  0  0
   -0.6520   -3.6900   -0.4890 C   0  0  1  0  0  0  0  0  0  0  0  0
    0.0260   -4.6770   -1.3390 C   0  0  0  0  0  0  0  0  0  0  0  0
    1.1260   -5.5030   -0.7740 C   0  0  0  0  0  0  0  0  0  0  0  0
    2.3250   -4.8470   -0.3050 C   0  0  0  0  0  0  0  0  0  0  0  0
    2.8400   -5.1760    0.7930 O   0  0  0  0  0  0  0  0  0  0  0  0
    0.0870   -2.6200    0.1350 C   0  0  0  0  0  0  0  0  0  0  0  0
    0.9350   -2.8730    1.0250 O   0  0  0  0  0  0  0  0  0  0  0  0
    2.9420   -3.8530   -1.0360 O   0  0  0  0  0  0  0  0  0  0  0  0
   -2.4090   -2.5780   -0.6920 H   0  0  0  0  0  0  0  0  0  0  0  0
   -2.1420   -3.7690   -1.9100 H   0  0  0  0  0  0  0  0  0  0  0  0
   -1.2490   -4.2180    0.3040 H   0  0  0  0  0  0  0  0  0  0  0  0
   -0.7780   -5.4360   -1.6340 H   0  0  0  0  0  0  0  0  0  0  0  0
    0.3100   -4.2730   -2.3540 H   0  0  0  0  0  0  0  0  0  0  0  0
    0.6480   -6.1340    0.0450 H   0  0  0  0  0  0  0  0  0  0  0  0
    1.4230   -6.2530   -1.5540 H   0  0  0  0  0  0  0  0  0  0  0  0
    3.6780   -3.3160   -0.5980 H   0  0  0  0  0  0  0  0  0  0  0  0
   -0.1030   -1.2800   -0.2130 N   0  0  0  0  0  0  0  0  0  0  0  0
    0.6430   -0.1490    0.4020 C   0  0  1  0  0  0  0  0  0  0  0  0
    1.3810    0.4380   -0.8020 C   0  0  0  0  0  0  0  0  0  0  0  0
    2.4150    1.8340   -0.4620 S   0  0  0  0  0  0  0  0  0  0  0  0
   -0.2900    0.7800    1.0360 C   0  0  0  0  0  0  0  0  0  0  0  0
   -1.5340    0.5760    0.7650 O   0  0  0  0  0  0  0  0  0  0  0  0
   -0.7860   -1.0230   -0.9290 H   0  0  0  0  0  0  0  0  0  0  0  0
    1.3650   -0.6320    1.0800 H   0  0  0  0  0  0  0  0  0  0  0  0
    2.0090   -0.3570   -1.2890 H   0  0  0  0  0  0  0  0  0  0  0  0
    0.6290    0.6900   -1.6060 H   0  0  0  0  0  0  0  0  0  0  0  0
    2.3510    2.8170   -1.4830 H   0  0  0  0  0  0  0  0  0  0  0  0
   -0.0190    1.8540    1.8990 N   0  0  0  0  0  0  0  0  0  0  0  0
    1.2250    2.3570    2.4240 C   0  0  0  0  0  0  0  0  0  0  0  0
    0.8530    2.7660    3.8660 C   0  0  0  0  0  0  0  0  0  0  0  0
   -0.6520    2.6530    3.9500 C   0  0  0  0  0  0  0  0  0  0  0  0
   -1.0370    2.7150    2.4850 C   0  0  1  0  0  0  0  0  0  0  0  0
   -0.9610    4.1160    2.0600 C   0  0  0  0  0  0  0  0  0  0  0  0
   -1.8140    4.9090    2.5870 O   0  0  0  0  0  0  0  0  0  0  0  0
   -0.0860    4.6730    1.1690 O   0  0  0  0  0  0  0  0  0  0  0  0
    1.5870    3.2740    1.9220 H   0  0  0  0  0  0  0  0  0  0  0  0
    2.0370    1.6020    2.4590 H   0  0  0  0  0  0  0  0  0  0  0  0
    1.3780    2.1020    4.5580 H   0  0  0  0  0  0  0  0  0  0  0  0
    1.2030    3.8020    4.0720 H   0  0  0  0  0  0  0  0  0  0  0  0
   -1.1150    3.5030    4.4950 H   0  0  0  0  0  0  0  0  0  0  0  0
   -0.9620    1.6740    4.3920 H   0  0  0  0  0  0  0  0  0  0  0  0
   -2.0570    2.2950    2.3190 H   0  0  0  0  0  0  0  0  0  0  0  0
  1 10  1  0  0  0  0
  1  2  1  0  0  0  0
  2  7  1  0  0  0  0
  2 12  1  1  0  0  0
  3  4  1  0  0  0  0
  3  2  1  0  0  0  0
  4  5  1  0  0  0  0
  4 15  1  0  0  0  0
  5  6  2  0  0  0  0
  7  8  2  0  0  0  0
  9 17  1  0  0  0  0
  9  5  1  0  0  0  0
 11  1  1  0  0  0  0
 13  3  1  0  0  0  0
 14  3  1  0  0  0  0
 16  4  1  0  0  0  0
 18  7  1  0  0  0  0
 18 19  1  0  0  0  0
 19 22  1  0  0  0  0
 19 25  1  1  0  0  0
 20 21  1  0  0  0  0
 20 19  1  0  0  0  0
 22 29  1  0  0  0  0
 23 22  2  0  0  0  0
 24 18  1  0  0  0  0
 26 20  1  0  0  0  0
 27 20  1  0  0  0  0
 28 21  1  0  0  0  0
 29 30  1  0  0  0  0
 29 33  1  0  0  0  0
 30 38  1  0  0  0  0
 30 31  1  0  0  0  0
 31 32  1  0  0  0  0
 31 40  1  0  0  0  0
 31 39  1  0  0  0  0
 32 42  1  0  0  0  0
 32 41  1  0  0  0  0
 33 43  1  6  0  0  0
 33 32  1  0  0  0  0
 34 33  1  0  0  0  0
 34 35  1  0  0  0  0
 36 34  2  0  0  0  0
 37 30  1  0  0  0  0
M  END
$$$$
