ECS.pdb
 OpenBabel07022418183D

 40 39  0  0  1  0  0  0  0  0999 V2000
   -0.2100   -3.5080   -1.2640 N   0  0  0  0  0  0  0  0  0  0  0  0
    1.1300   -3.0330   -0.9260 C   0  0  1  0  0  0  0  0  0  0  0  0
    2.0580   -3.1270   -2.0990 C   0  0  0  0  0  0  0  0  0  0  0  0
    3.4500   -2.6460   -1.8400 C   0  0  0  0  0  0  0  0  0  0  0  0
    4.3060   -2.8130   -3.0510 C   0  0  0  0  0  0  0  0  0  0  0  0
    4.4320   -3.9600   -3.5700 O   0  0  0  0  0  0  0  0  0  0  0  0
    1.0990   -1.7450   -0.2320 C   0  0  0  0  0  0  0  0  0  0  0  0
    2.1410   -1.2020    0.2110 O   0  0  0  0  0  0  0  0  0  0  0  0
    4.9670   -1.7600   -3.6300 O   0  0  0  0  0  0  0  0  0  0  0  0
   -0.1120   -4.3740   -1.8150 H   0  0  0  0  0  0  0  0  0  0  0  0
   -0.7230   -3.7630   -0.3810 H   0  0  0  0  0  0  0  0  0  0  0  0
    1.5150   -3.7900   -0.1780 H   0  0  0  0  0  0  0  0  0  0  0  0
    2.0350   -4.1350   -2.5540 H   0  0  0  0  0  0  0  0  0  0  0  0
    1.6210   -2.4590   -2.9020 H   0  0  0  0  0  0  0  0  0  0  0  0
    3.8580   -3.1770   -0.9500 H   0  0  0  0  0  0  0  0  0  0  0  0
    3.4660   -1.5640   -1.6100 H   0  0  0  0  0  0  0  0  0  0  0  0
    5.6960   -1.8520   -4.3100 H   0  0  0  0  0  0  0  0  0  0  0  0
   -0.0980   -1.0040    0.0010 N   0  0  0  0  0  0  0  0  0  0  0  0
   -0.0990    0.2940    0.7100 C   0  0  1  0  0  0  0  0  0  0  0  0
   -0.5370    1.3770   -0.2240 C   0  0  0  0  0  0  0  0  0  0  0  0
   -0.5800    3.0210    0.4970 S   0  0  0  0  0  0  0  0  0  0  0  0
   -0.8550    0.1720    1.9620 C   0  0  0  0  0  0  0  0  0  0  0  0
   -1.4770   -0.9010    2.2820 O   0  0  0  0  0  0  0  0  0  0  0  0
   -0.9900   -1.4050   -0.3430 H   0  0  0  0  0  0  0  0  0  0  0  0
    0.9610    0.4770    0.9710 H   0  0  0  0  0  0  0  0  0  0  0  0
    0.2060    1.4240   -1.0770 H   0  0  0  0  0  0  0  0  0  0  0  0
   -1.5380    1.1890   -0.6780 H   0  0  0  0  0  0  0  0  0  0  0  0
   -1.4200    3.8640   -0.2520 H   0  0  0  0  0  0  0  0  0  0  0  0
    0.2080    0.2740    5.3700 O   0  0  0  0  0  0  0  0  0  0  0  0
   -0.8230    1.2150    5.3730 C   0  0  0  0  0  0  0  0  0  0  0  0
   -1.7280    1.0460    4.1570 C   0  0  2  0  0  0  0  0  0  0  0  0
   -0.9690    1.2090    2.9250 N   0  0  0  0  0  0  0  0  0  0  0  0
   -2.8070    2.0190    4.2910 C   0  0  0  0  0  0  0  0  0  0  0  0
   -3.0030    2.8720    3.4020 O   0  0  0  0  0  0  0  0  0  0  0  0
   -3.6210    2.0090    5.4010 O   0  0  0  0  0  0  0  0  0  0  0  0
    0.6820    0.3930    4.4920 H   0  0  0  0  0  0  0  0  0  0  0  0
   -1.4810    1.0680    6.2700 H   0  0  0  0  0  0  0  0  0  0  0  0
   -0.4680    2.2590    5.4610 H   0  0  0  0  0  0  0  0  0  0  0  0
   -2.0950   -0.0000    4.1650 H   0  0  0  0  0  0  0  0  0  0  0  0
   -0.5030    2.1180    2.7810 H   0  0  0  0  0  0  0  0  0  0  0  0
  1  2  1  0  0  0  0
  1 11  1  0  0  0  0
  2  7  1  0  0  0  0
  2 12  1  1  0  0  0
  3  4  1  0  0  0  0
  3  2  1  0  0  0  0
  4 16  1  0  0  0  0
  4 15  1  0  0  0  0
  5  4  1  0  0  0  0
  6  5  2  0  0  0  0
  7 18  1  0  0  0  0
  7  8  2  0  0  0  0
  9  5  1  0  0  0  0
 10  1  1  0  0  0  0
 13  3  1  0  0  0  0
 14  3  1  0  0  0  0
 17  9  1  0  0  0  0
 18 19  1  0  0  0  0
 19 25  1  1  0  0  0
 19 22  1  0  0  0  0
 20 21  1  0  0  0  0
 20 19  1  0  0  0  0
 22 23  2  0  0  0  0
 22 32  1  0  0  0  0
 24 18  1  0  0  0  0
 26 20  1  0  0  0  0
 27 20  1  0  0  0  0
 28 21  1  0  0  0  0
 29 30  1  0  0  0  0
 30 38  1  0  0  0  0
 30 37  1  0  0  0  0
 31 39  1  1  0  0  0
 31 33  1  0  0  0  0
 31 30  1  0  0  0  0
 32 31  1  0  0  0  0
 33 35  1  0  0  0  0
 34 33  2  0  0  0  0
 36 29  1  0  0  0  0
 40 32  1  0  0  0  0
M  END
$$$$
