ECV.pdb
 OpenBabel07022418183D

 45 44  0  0  1  0  0  0  0  0999 V2000
   -0.1580   -4.1540   -0.9150 N   0  0  0  0  0  0  0  0  0  0  0  0
    1.2300   -3.7320   -1.2130 C   0  0  1  0  0  0  0  0  0  0  0  0
    1.3710   -3.8730   -2.6840 C   0  0  0  0  0  0  0  0  0  0  0  0
    2.6600   -3.5520   -3.3230 C   0  0  0  0  0  0  0  0  0  0  0  0
    3.1770   -2.1950   -3.2180 C   0  0  0  0  0  0  0  0  0  0  0  0
    4.3640   -1.9920   -2.7800 O   0  0  0  0  0  0  0  0  0  0  0  0
    1.2860   -2.3160   -0.7290 C   0  0  0  0  0  0  0  0  0  0  0  0
    2.3710   -1.6990   -0.5700 O   0  0  0  0  0  0  0  0  0  0  0  0
    2.4540   -1.0720   -3.5690 O   0  0  0  0  0  0  0  0  0  0  0  0
   -0.2310   -5.1720   -0.7760 H   0  0  0  0  0  0  0  0  0  0  0  0
   -0.8100   -3.7630   -1.6020 H   0  0  0  0  0  0  0  0  0  0  0  0
    1.9680   -4.3800   -0.7060 H   0  0  0  0  0  0  0  0  0  0  0  0
    1.1710   -4.9720   -2.9130 H   0  0  0  0  0  0  0  0  0  0  0  0
    0.5210   -3.3690   -3.2310 H   0  0  0  0  0  0  0  0  0  0  0  0
    3.4390   -4.2670   -2.9270 H   0  0  0  0  0  0  0  0  0  0  0  0
    2.6240   -3.7800   -4.4370 H   0  0  0  0  0  0  0  0  0  0  0  0
    2.8830   -0.2950   -4.0590 H   0  0  0  0  0  0  0  0  0  0  0  0
    0.1230   -1.5790   -0.4180 N   0  0  0  0  0  0  0  0  0  0  0  0
    0.2200   -0.2040    0.0530 C   0  0  1  0  0  0  0  0  0  0  0  0
   -0.3340    0.7330   -1.0150 C   0  0  0  0  0  0  0  0  0  0  0  0
   -0.1750    2.4170   -0.3900 S   0  0  0  0  0  0  0  0  0  0  0  0
   -0.5570   -0.1420    1.3090 C   0  0  0  0  0  0  0  0  0  0  0  0
   -1.2430   -1.1700    1.6550 O   0  0  0  0  0  0  0  0  0  0  0  0
   -0.8100   -1.9990   -0.5180 H   0  0  0  0  0  0  0  0  0  0  0  0
    1.2710    0.1040    0.1870 H   0  0  0  0  0  0  0  0  0  0  0  0
   -1.4180    0.5540   -1.1780 H   0  0  0  0  0  0  0  0  0  0  0  0
    0.2710    0.6070   -1.9100 H   0  0  0  0  0  0  0  0  0  0  0  0
    1.1220    2.7470   -0.0000 H   0  0  0  0  0  0  0  0  0  0  0  0
    0.3350    2.2760    4.6040 C   0  0  0  0  0  0  0  0  0  0  0  0
   -0.5090    1.0380    4.5950 C   0  0  0  0  0  0  0  0  0  0  0  0
   -1.2920    1.0390    5.9080 C   0  0  0  0  0  0  0  0  0  0  0  0
   -1.4320    0.9380    3.4150 C   0  0  2  0  0  0  0  0  0  0  0  0
   -0.6390    0.9400    2.2030 N   0  0  0  0  0  0  0  0  0  0  0  0
   -2.4760    1.9790    3.4070 C   0  0  0  0  0  0  0  0  0  0  0  0
   -3.2580    2.1360    4.3610 O   0  0  0  0  0  0  0  0  0  0  0  0
   -2.5890    2.8030    2.3120 O   0  0  0  0  0  0  0  0  0  0  0  0
    0.7900    2.3950    5.6180 H   0  0  0  0  0  0  0  0  0  0  0  0
   -0.2790    3.1950    4.4470 H   0  0  0  0  0  0  0  0  0  0  0  0
    1.2030    2.2220    3.9070 H   0  0  0  0  0  0  0  0  0  0  0  0
    0.1630    0.1590    4.6440 H   0  0  0  0  0  0  0  0  0  0  0  0
   -0.7200    0.6610    6.7590 H   0  0  0  0  0  0  0  0  0  0  0  0
   -2.1600    0.3550    5.7590 H   0  0  0  0  0  0  0  0  0  0  0  0
   -1.6790    2.0740    6.1260 H   0  0  0  0  0  0  0  0  0  0  0  0
   -1.9770   -0.0440    3.5410 H   0  0  0  0  0  0  0  0  0  0  0  0
   -0.0870    1.7940    1.9880 H   0  0  0  0  0  0  0  0  0  0  0  0
  1 10  1  0  0  0  0
  2  1  1  0  0  0  0
  2  7  1  0  0  0  0
  2 12  1  1  0  0  0
  3  2  1  0  0  0  0
  4  5  1  0  0  0  0
  4 15  1  0  0  0  0
  4  3  1  0  0  0  0
  5  6  2  0  0  0  0
  7  8  2  0  0  0  0
  7 18  1  0  0  0  0
  9  5  1  0  0  0  0
 11  1  1  0  0  0  0
 13  3  1  0  0  0  0
 14  3  1  0  0  0  0
 16  4  1  0  0  0  0
 17  9  1  0  0  0  0
 18 19  1  0  0  0  0
 19 25  1  1  0  0  0
 19 22  1  0  0  0  0
 20 21  1  0  0  0  0
 20 19  1  0  0  0  0
 21 28  1  0  0  0  0
 22 23  2  0  0  0  0
 22 33  1  0  0  0  0
 24 18  1  0  0  0  0
 26 20  1  0  0  0  0
 27 20  1  0  0  0  0
 29 37  1  0  0  0  0
 30 29  1  0  0  0  0
 30 40  1  0  0  0  0
 30 31  1  0  0  0  0
 31 43  1  0  0  0  0
 31 41  1  0  0  0  0
 32 44  1  1  0  0  0
 32 30  1  0  0  0  0
 33 32  1  0  0  0  0
 34 32  1  0  0  0  0
 34 35  1  0  0  0  0
 36 34  2  0  0  0  0
 38 29  1  0  0  0  0
 39 29  1  0  0  0  0
 42 31  1  0  0  0  0
 45 33  1  0  0  0  0
M  END
$$$$
