EDA.pdb
 OpenBabel07022418173D

 41 40  0  0  1  0  0  0  0  0999 V2000
   -0.7520   -4.4870   -1.3010 N   0  0  0  0  0  0  0  0  0  0  0  0
   -0.7600   -3.2990   -0.4000 C   0  0  1  0  0  0  0  0  0  0  0  0
   -0.5520   -3.8160    0.9900 C   0  0  0  0  0  0  0  0  0  0  0  0
   -0.5460   -2.7460    2.0250 C   0  0  0  0  0  0  0  0  0  0  0  0
   -0.3450   -3.3060    3.3740 C   0  0  0  0  0  0  0  0  0  0  0  0
   -0.1660   -4.5430    3.5020 O   0  0  0  0  0  0  0  0  0  0  0  0
    0.2350   -2.3310   -0.8680 C   0  0  0  0  0  0  0  0  0  0  0  0
    1.1990   -2.6070   -1.6190 O   0  0  0  0  0  0  0  0  0  0  0  0
   -0.3400   -2.5630    4.5390 O   0  0  0  0  0  0  0  0  0  0  0  0
   -1.2260   -5.2350   -0.7360 H   0  0  0  0  0  0  0  0  0  0  0  0
   -1.4010   -4.2930   -2.0980 H   0  0  0  0  0  0  0  0  0  0  0  0
   -1.7660   -2.8650   -0.4840 H   0  0  0  0  0  0  0  0  0  0  0  0
    0.4340   -4.3390    1.0200 H   0  0  0  0  0  0  0  0  0  0  0  0
   -1.3860   -4.5080    1.2130 H   0  0  0  0  0  0  0  0  0  0  0  0
   -1.5170   -2.2110    2.0400 H   0  0  0  0  0  0  0  0  0  0  0  0
    0.3030   -2.0530    1.8280 H   0  0  0  0  0  0  0  0  0  0  0  0
    0.3050   -2.7560    5.3190 H   0  0  0  0  0  0  0  0  0  0  0  0
    0.1380   -0.9570   -0.4710 N   0  0  0  0  0  0  0  0  0  0  0  0
    1.1040    0.0090   -0.9220 C   0  0  1  0  0  0  0  0  0  0  0  0
    0.6210    0.7440   -2.1620 C   0  0  0  0  0  0  0  0  0  0  0  0
    1.6830    1.7050   -2.5320 C   0  0  0  0  0  0  0  0  0  0  0  0
    1.6480    2.9390   -2.2890 O   0  0  0  0  0  0  0  0  0  0  0  0
    1.4370    0.9840    0.0930 C   0  0  0  0  0  0  0  0  0  0  0  0
    2.3670    1.8430   -0.1080 O   0  0  0  0  0  0  0  0  0  0  0  0
    2.8440    1.2770   -3.2070 O   0  0  0  0  0  0  0  0  0  0  0  0
   -0.6420   -0.6470    0.1370 H   0  0  0  0  0  0  0  0  0  0  0  0
    1.9970   -0.5700   -1.3090 H   0  0  0  0  0  0  0  0  0  0  0  0
   -0.2900    1.3230   -1.9620 H   0  0  0  0  0  0  0  0  0  0  0  0
    0.5330    0.0540   -3.0400 H   0  0  0  0  0  0  0  0  0  0  0  0
    3.4510    1.9630   -3.6450 H   0  0  0  0  0  0  0  0  0  0  0  0
    0.0810    3.1590    2.3320 C   0  0  0  0  0  0  0  0  0  0  0  0
    1.1980    2.1280    2.3060 C   0  0  2  0  0  0  0  0  0  0  0  0
    0.8060    1.0980    1.3520 N   0  0  0  0  0  0  0  0  0  0  0  0
    1.4780    1.5450    3.5970 C   0  0  0  0  0  0  0  0  0  0  0  0
    1.8400    2.2430    4.5970 O   0  0  0  0  0  0  0  0  0  0  0  0
    1.3510    0.1540    3.7860 O   0  0  0  0  0  0  0  0  0  0  0  0
   -0.0010    3.6550    3.3010 H   0  0  0  0  0  0  0  0  0  0  0  0
   -0.8920    2.6820    2.1000 H   0  0  0  0  0  0  0  0  0  0  0  0
    0.2560    3.8980    1.5120 H   0  0  0  0  0  0  0  0  0  0  0  0
    2.0790    2.6650    1.8980 H   0  0  0  0  0  0  0  0  0  0  0  0
    0.0460    0.4430    1.6260 H   0  0  0  0  0  0  0  0  0  0  0  0
  1 10  1  0  0  0  0
  1  2  1  0  0  0  0
  2 12  1  6  0  0  0
  2  3  1  0  0  0  0
  3 13  1  0  0  0  0
  3 14  1  0  0  0  0
  3  4  1  0  0  0  0
  4 15  1  0  0  0  0
  4  5  1  0  0  0  0
  5  6  2  0  0  0  0
  5  9  1  0  0  0  0
  7 18  1  0  0  0  0
  7  2  1  0  0  0  0
  8  7  2  0  0  0  0
  9 17  1  0  0  0  0
 11  1  1  0  0  0  0
 16  4  1  0  0  0  0
 18 26  1  0  0  0  0
 19 27  1  6  0  0  0
 19 18  1  0  0  0  0
 19 23  1  0  0  0  0
 20 28  1  0  0  0  0
 20 19  1  0  0  0  0
 21 22  2  0  0  0  0
 21 20  1  0  0  0  0
 23 33  1  0  0  0  0
 24 23  2  0  0  0  0
 25 21  1  0  0  0  0
 29 20  1  0  0  0  0
 30 25  1  0  0  0  0
 31 37  1  0  0  0  0
 32 40  1  6  0  0  0
 32 31  1  0  0  0  0
 32 34  1  0  0  0  0
 33 41  1  0  0  0  0
 33 32  1  0  0  0  0
 34 36  2  0  0  0  0
 34 35  1  0  0  0  0
 38 31  1  0  0  0  0
 39 31  1  0  0  0  0
M  END
$$$$
