EDG.pdb
 OpenBabel07022418173D

 38 37  0  0  1  0  0  0  0  0999 V2000
   -0.8530   -2.9230   -0.3240 N   0  0  0  0  0  0  0  0  0  0  0  0
    0.6030   -2.7470   -0.1280 C   0  0  1  0  0  0  0  0  0  0  0  0
    1.2940   -3.3150   -1.2960 C   0  0  0  0  0  0  0  0  0  0  0  0
    2.7860   -3.2180   -1.3330 C   0  0  0  0  0  0  0  0  0  0  0  0
    3.3090   -1.8560   -1.4320 C   0  0  0  0  0  0  0  0  0  0  0  0
    4.4650   -1.6090   -0.9830 O   0  0  0  0  0  0  0  0  0  0  0  0
    0.9430   -1.4430    0.3780 C   0  0  0  0  0  0  0  0  0  0  0  0
    2.0680   -1.1940    0.8990 O   0  0  0  0  0  0  0  0  0  0  0  0
    2.6140   -0.7830   -2.0030 O   0  0  0  0  0  0  0  0  0  0  0  0
   -0.9570   -3.9270   -0.6200 H   0  0  0  0  0  0  0  0  0  0  0  0
   -1.3070   -2.8650    0.6130 H   0  0  0  0  0  0  0  0  0  0  0  0
    0.7980   -3.4840    0.7290 H   0  0  0  0  0  0  0  0  0  0  0  0
    0.9320   -2.9180   -2.2780 H   0  0  0  0  0  0  0  0  0  0  0  0
    1.0320   -4.4170   -1.3640 H   0  0  0  0  0  0  0  0  0  0  0  0
    3.1920   -3.7750   -2.2230 H   0  0  0  0  0  0  0  0  0  0  0  0
    3.2530   -3.6780   -0.4180 H   0  0  0  0  0  0  0  0  0  0  0  0
    3.0760   -0.0220   -2.4770 H   0  0  0  0  0  0  0  0  0  0  0  0
    0.0330   -0.3340    0.3300 N   0  0  0  0  0  0  0  0  0  0  0  0
    0.3560    0.9840    0.8310 C   0  0  1  0  0  0  0  0  0  0  0  0
    0.2990    2.0650   -0.1880 C   0  0  0  0  0  0  0  0  0  0  0  0
    0.6500    3.3450    0.4590 C   0  0  0  0  0  0  0  0  0  0  0  0
    1.8520    3.6100    0.6750 O   0  0  0  0  0  0  0  0  0  0  0  0
   -0.3750    1.2890    2.0890 C   0  0  0  0  0  0  0  0  0  0  0  0
   -0.2430    2.3870    2.6810 O   0  0  0  0  0  0  0  0  0  0  0  0
   -0.3130    4.2590    0.8330 O   0  0  0  0  0  0  0  0  0  0  0  0
   -0.9010   -0.5620   -0.1070 H   0  0  0  0  0  0  0  0  0  0  0  0
    1.4360    0.9150    1.1650 H   0  0  0  0  0  0  0  0  0  0  0  0
    1.0060    1.8010   -1.0040 H   0  0  0  0  0  0  0  0  0  0  0  0
   -0.6910    2.1890   -0.6660 H   0  0  0  0  0  0  0  0  0  0  0  0
   -0.0980    5.2550    0.9910 H   0  0  0  0  0  0  0  0  0  0  0  0
   -1.2490    0.3270    2.6540 N   0  0  0  0  0  0  0  0  0  0  0  0
   -1.9760    0.5830    3.8730 C   0  0  0  0  0  0  0  0  0  0  0  0
   -2.7970   -0.5910    4.2200 C   0  0  0  0  0  0  0  0  0  0  0  0
   -2.7840   -1.6030    3.4890 O   0  0  0  0  0  0  0  0  0  0  0  0
   -3.6020   -0.6140    5.3560 O   0  0  0  0  0  0  0  0  0  0  0  0
   -1.3520   -0.6000    2.1440 H   0  0  0  0  0  0  0  0  0  0  0  0
   -2.6930    1.4280    3.7210 H   0  0  0  0  0  0  0  0  0  0  0  0
   -1.3240    0.9140    4.7090 H   0  0  0  0  0  0  0  0  0  0  0  0
  1  2  1  0  0  0  0
  1 11  1  0  0  0  0
  2  7  1  0  0  0  0
  2 12  1  1  0  0  0
  3  2  1  0  0  0  0
  4  3  1  0  0  0  0
  4 16  1  0  0  0  0
  5  4  1  0  0  0  0
  5  6  2  0  0  0  0
  7  8  2  0  0  0  0
  9  5  1  0  0  0  0
 10  1  1  0  0  0  0
 13  3  1  0  0  0  0
 14  3  1  0  0  0  0
 15  4  1  0  0  0  0
 17  9  1  0  0  0  0
 18  7  1  0  0  0  0
 18 19  1  0  0  0  0
 19 27  1  1  0  0  0
 19 23  1  0  0  0  0
 20 21  1  0  0  0  0
 20 19  1  0  0  0  0
 21 22  2  0  0  0  0
 21 25  1  0  0  0  0
 23 31  1  0  0  0  0
 23 24  2  0  0  0  0
 25 30  1  0  0  0  0
 26 18  1  0  0  0  0
 28 20  1  0  0  0  0
 29 20  1  0  0  0  0
 31 32  1  0  0  0  0
 32 33  1  0  0  0  0
 32 38  1  0  0  0  0
 33 35  1  0  0  0  0
 34 33  2  0  0  0  0
 36 31  1  0  0  0  0
 37 32  1  0  0  0  0
M  END
$$$$
