EDI.pdb
 OpenBabel07022418173D

 50 49  0  0  1  0  0  0  0  0999 V2000
    2.3720   -1.7040    4.1930 N   0  0  0  0  0  0  0  0  0  0  0  0
    1.2260   -0.9110    4.5140 C   0  0  1  0  0  0  0  0  0  0  0  0
    1.3960    0.1310    5.5500 C   0  0  0  0  0  0  0  0  0  0  0  0
    2.3680    1.2130    5.3360 C   0  0  0  0  0  0  0  0  0  0  0  0
    3.7770    0.8780    5.1970 C   0  0  0  0  0  0  0  0  0  0  0  0
    4.2270   -0.2740    5.3140 O   0  0  0  0  0  0  0  0  0  0  0  0
    0.5700   -0.3520    3.2780 C   0  0  0  0  0  0  0  0  0  0  0  0
   -0.4650    0.3500    3.4040 O   0  0  0  0  0  0  0  0  0  0  0  0
    4.7400    1.8720    4.9140 O   0  0  0  0  0  0  0  0  0  0  0  0
    2.1880   -2.3480    3.3620 H   0  0  0  0  0  0  0  0  0  0  0  0
    2.5900   -2.4110    4.9590 H   0  0  0  0  0  0  0  0  0  0  0  0
    0.4730   -1.6430    4.9470 H   0  0  0  0  0  0  0  0  0  0  0  0
    0.3890    0.6100    5.6940 H   0  0  0  0  0  0  0  0  0  0  0  0
    1.6320   -0.3880    6.5100 H   0  0  0  0  0  0  0  0  0  0  0  0
    2.3030    1.8760    6.2600 H   0  0  0  0  0  0  0  0  0  0  0  0
    2.0640    1.9200    4.5210 H   0  0  0  0  0  0  0  0  0  0  0  0
    5.5790    1.6060    4.3990 H   0  0  0  0  0  0  0  0  0  0  0  0
    1.0540   -0.5720    1.9670 N   0  0  0  0  0  0  0  0  0  0  0  0
    0.3570    0.0050    0.8410 C   0  0  1  0  0  0  0  0  0  0  0  0
    1.2150    0.8510   -0.0340 C   0  0  0  0  0  0  0  0  0  0  0  0
    2.3500    0.1090   -0.6230 C   0  0  0  0  0  0  0  0  0  0  0  0
    2.5970   -1.0960   -0.4350 O   0  0  0  0  0  0  0  0  0  0  0  0
   -0.1910   -1.1280    0.0310 C   0  0  0  0  0  0  0  0  0  0  0  0
   -0.0180   -2.3280    0.3550 O   0  0  0  0  0  0  0  0  0  0  0  0
    3.2150    0.8110   -1.4560 O   0  0  0  0  0  0  0  0  0  0  0  0
    1.9100   -1.1440    1.7980 H   0  0  0  0  0  0  0  0  0  0  0  0
   -0.4960    0.6150    1.2030 H   0  0  0  0  0  0  0  0  0  0  0  0
    1.5420    1.7950    0.4580 H   0  0  0  0  0  0  0  0  0  0  0  0
    0.5830    1.1860   -0.8920 H   0  0  0  0  0  0  0  0  0  0  0  0
    4.1230    0.3980   -1.6930 H   0  0  0  0  0  0  0  0  0  0  0  0
   -3.3380   -0.3610   -3.8790 C   0  0  0  0  0  0  0  0  0  0  0  0
   -3.6490   -0.7370   -2.4700 C   0  0  0  0  0  0  0  0  0  0  0  0
   -2.9980   -1.9730   -1.9670 C   0  0  2  0  0  0  0  0  0  0  0  0
   -3.4490   -2.1660   -0.5230 C   0  0  0  0  0  0  0  0  0  0  0  0
   -1.4970   -1.9590   -1.9770 C   0  0  2  0  0  0  0  0  0  0  0  0
   -0.9450   -0.9000   -1.1610 N   0  0  0  0  0  0  0  0  0  0  0  0
   -0.9050   -2.0310   -3.3160 C   0  0  0  0  0  0  0  0  0  0  0  0
   -0.0090   -1.2400   -3.7060 O   0  0  0  0  0  0  0  0  0  0  0  0
   -1.2960   -2.9790   -4.2510 O   0  0  0  0  0  0  0  0  0  0  0  0
   -4.1540    0.3450   -4.2190 H   0  0  0  0  0  0  0  0  0  0  0  0
   -2.4080    0.2670   -3.9430 H   0  0  0  0  0  0  0  0  0  0  0  0
   -3.3530   -1.1900   -4.5850 H   0  0  0  0  0  0  0  0  0  0  0  0
   -3.4970    0.1560   -1.8340 H   0  0  0  0  0  0  0  0  0  0  0  0
   -4.7630   -0.9300   -2.4270 H   0  0  0  0  0  0  0  0  0  0  0  0
   -3.4060   -2.8340   -2.5320 H   0  0  0  0  0  0  0  0  0  0  0  0
   -3.1360   -3.1150   -0.0900 H   0  0  0  0  0  0  0  0  0  0  0  0
   -4.5670   -2.0400   -0.4480 H   0  0  0  0  0  0  0  0  0  0  0  0
   -3.0310   -1.3470    0.1050 H   0  0  0  0  0  0  0  0  0  0  0  0
   -1.1940   -2.9110   -1.4530 H   0  0  0  0  0  0  0  0  0  0  0  0
   -1.0760    0.1270   -1.4130 H   0  0  0  0  0  0  0  0  0  0  0  0
  1  2  1  0  0  0  0
  1 11  1  0  0  0  0
  2 12  1  1  0  0  0
  2  3  1  0  0  0  0
  3 13  1  0  0  0  0
  3 14  1  0  0  0  0
  4  3  1  0  0  0  0
  4 15  1  0  0  0  0
  5  6  2  0  0  0  0
  5  4  1  0  0  0  0
  7  8  2  0  0  0  0
  7  2  1  0  0  0  0
  9  5  1  0  0  0  0
 10  1  1  0  0  0  0
 16  4  1  0  0  0  0
 17  9  1  0  0  0  0
 18  7  1  0  0  0  0
 19 27  1  1  0  0  0
 19 18  1  0  0  0  0
 20 28  1  0  0  0  0
 20 19  1  0  0  0  0
 21 22  2  0  0  0  0
 21 20  1  0  0  0  0
 23 24  2  0  0  0  0
 23 19  1  0  0  0  0
 25 21  1  0  0  0  0
 26 18  1  0  0  0  0
 29 20  1  0  0  0  0
 30 25  1  0  0  0  0
 31 32  1  0  0  0  0
 32 44  1  0  0  0  0
 32 33  1  0  0  0  0
 32 43  1  0  0  0  0
 33 45  1  6  0  0  0
 33 34  1  0  0  0  0
 34 47  1  0  0  0  0
 34 46  1  0  0  0  0
 34 48  1  0  0  0  0
 35 33  1  0  0  0  0
 35 49  1  1  0  0  0
 35 36  1  0  0  0  0
 36 23  1  0  0  0  0
 37 35  1  0  0  0  0
 38 37  1  0  0  0  0
 39 37  2  0  0  0  0
 40 31  1  0  0  0  0
 41 31  1  0  0  0  0
 42 31  1  0  0  0  0
 50 36  1  0  0  0  0
M  END
$$$$
