EDL.pdb
 OpenBabel07022418173D

 50 49  0  0  1  0  0  0  0  0999 V2000
    2.7030   -2.3360    0.1640 N   0  0  0  0  0  0  0  0  0  0  0  0
    3.5010   -1.5520    1.1630 C   0  0  1  0  0  0  0  0  0  0  0  0
    4.7250   -1.0820    0.4770 C   0  0  0  0  0  0  0  0  0  0  0  0
    5.7230   -0.2870    1.2230 C   0  0  0  0  0  0  0  0  0  0  0  0
    5.2530    0.9870    1.7590 C   0  0  0  0  0  0  0  0  0  0  0  0
    5.4680    1.2530    2.9900 O   0  0  0  0  0  0  0  0  0  0  0  0
    2.5820   -0.5600    1.6940 C   0  0  0  0  0  0  0  0  0  0  0  0
    2.7410   -0.0500    2.8550 O   0  0  0  0  0  0  0  0  0  0  0  0
    4.5790    1.9460    1.0320 O   0  0  0  0  0  0  0  0  0  0  0  0
    2.6050   -1.7900   -0.7000 H   0  0  0  0  0  0  0  0  0  0  0  0
    1.7960   -2.5980    0.5480 H   0  0  0  0  0  0  0  0  0  0  0  0
    3.7800   -2.3180    1.9320 H   0  0  0  0  0  0  0  0  0  0  0  0
    4.4140   -0.5980   -0.4900 H   0  0  0  0  0  0  0  0  0  0  0  0
    5.2660   -2.0150    0.1050 H   0  0  0  0  0  0  0  0  0  0  0  0
    6.1480   -0.9090    2.0590 H   0  0  0  0  0  0  0  0  0  0  0  0
    6.5710   -0.0540    0.5070 H   0  0  0  0  0  0  0  0  0  0  0  0
    4.8450    2.9460    1.0890 H   0  0  0  0  0  0  0  0  0  0  0  0
    1.4470   -0.0910    0.9660 N   0  0  0  0  0  0  0  0  0  0  0  0
    0.5290    0.9030    1.5580 C   0  0  1  0  0  0  0  0  0  0  0  0
    0.6910    2.1840    0.7720 C   0  0  0  0  0  0  0  0  0  0  0  0
   -0.1110    3.3040    1.2110 C   0  0  0  0  0  0  0  0  0  0  0  0
   -0.1680    4.3460    0.4720 O   0  0  0  0  0  0  0  0  0  0  0  0
   -0.8270    0.3310    1.5070 C   0  0  0  0  0  0  0  0  0  0  0  0
   -1.7900    0.9770    1.9570 O   0  0  0  0  0  0  0  0  0  0  0  0
   -0.8130    3.3090    2.3790 O   0  0  0  0  0  0  0  0  0  0  0  0
    1.2910   -0.4420    0.0230 H   0  0  0  0  0  0  0  0  0  0  0  0
    0.7970    1.0700    2.6280 H   0  0  0  0  0  0  0  0  0  0  0  0
    1.7810    2.4330    0.7810 H   0  0  0  0  0  0  0  0  0  0  0  0
    0.4780    1.9440   -0.3090 H   0  0  0  0  0  0  0  0  0  0  0  0
   -1.0370    4.2020    2.8040 H   0  0  0  0  0  0  0  0  0  0  0  0
   -4.3790   -2.6710   -2.2430 C   0  0  0  0  0  0  0  0  0  0  0  0
   -4.1120   -2.4530   -0.7570 C   0  0  0  0  0  0  0  0  0  0  0  0
   -5.2430   -1.6160   -0.2120 C   0  0  0  0  0  0  0  0  0  0  0  0
   -2.7700   -1.8300   -0.5340 C   0  0  0  0  0  0  0  0  0  0  0  0
   -2.3950   -1.5520    0.8780 C   0  0  2  0  0  0  0  0  0  0  0  0
   -1.0560   -0.9400    0.9540 N   0  0  0  0  0  0  0  0  0  0  0  0
   -2.3370   -2.8080    1.6420 C   0  0  0  0  0  0  0  0  0  0  0  0
   -1.2570   -3.1990    2.1960 O   0  0  0  0  0  0  0  0  0  0  0  0
   -3.4190   -3.6460    1.8220 O   0  0  0  0  0  0  0  0  0  0  0  0
   -4.5190   -1.7200   -2.7900 H   0  0  0  0  0  0  0  0  0  0  0  0
   -3.5860   -3.2890   -2.7170 H   0  0  0  0  0  0  0  0  0  0  0  0
   -5.3140   -3.2560   -2.3230 H   0  0  0  0  0  0  0  0  0  0  0  0
   -4.2190   -3.4650   -0.3080 H   0  0  0  0  0  0  0  0  0  0  0  0
   -5.3150   -0.6340   -0.7200 H   0  0  0  0  0  0  0  0  0  0  0  0
   -6.2160   -2.1210   -0.4040 H   0  0  0  0  0  0  0  0  0  0  0  0
   -5.0930   -1.4170    0.8740 H   0  0  0  0  0  0  0  0  0  0  0  0
   -1.9680   -2.3700   -1.0860 H   0  0  0  0  0  0  0  0  0  0  0  0
   -2.8110   -0.8230   -1.0530 H   0  0  0  0  0  0  0  0  0  0  0  0
   -3.0890   -0.8170    1.3640 H   0  0  0  0  0  0  0  0  0  0  0  0
   -0.2730   -1.4910    0.5810 H   0  0  0  0  0  0  0  0  0  0  0  0
  1 11  1  0  0  0  0
  1  2  1  0  0  0  0
  2  7  1  0  0  0  0
  2 12  1  1  0  0  0
  3  2  1  0  0  0  0
  3  4  1  0  0  0  0
  4  5  1  0  0  0  0
  4 15  1  0  0  0  0
  5  6  2  0  0  0  0
  7  8  2  0  0  0  0
  9 17  1  0  0  0  0
  9  5  1  0  0  0  0
 10  1  1  0  0  0  0
 13  3  1  0  0  0  0
 14  3  1  0  0  0  0
 16  4  1  0  0  0  0
 18 19  1  0  0  0  0
 18  7  1  0  0  0  0
 19 27  1  1  0  0  0
 20 28  1  0  0  0  0
 20 21  1  0  0  0  0
 20 19  1  0  0  0  0
 21 25  1  0  0  0  0
 22 21  2  0  0  0  0
 23 19  1  0  0  0  0
 23 24  2  0  0  0  0
 25 30  1  0  0  0  0
 26 18  1  0  0  0  0
 29 20  1  0  0  0  0
 31 32  1  0  0  0  0
 32 34  1  0  0  0  0
 32 43  1  0  0  0  0
 32 33  1  0  0  0  0
 33 46  1  0  0  0  0
 34 35  1  0  0  0  0
 35 36  1  0  0  0  0
 35 49  1  1  0  0  0
 35 37  1  0  0  0  0
 36 23  1  0  0  0  0
 37 39  2  0  0  0  0
 37 38  1  0  0  0  0
 40 31  1  0  0  0  0
 41 31  1  0  0  0  0
 42 31  1  0  0  0  0
 44 33  1  0  0  0  0
 45 33  1  0  0  0  0
 47 34  1  0  0  0  0
 48 34  1  0  0  0  0
 50 36  1  0  0  0  0
M  END
$$$$
