EEC.pdb
 OpenBabel07022418173D

 45 44  0  0  1  0  0  0  0  0999 V2000
   -0.5080   -3.5400    1.6620 N   0  0  0  0  0  0  0  0  0  0  0  0
    0.9110   -3.2560    2.0630 C   0  0  1  0  0  0  0  0  0  0  0  0
    1.7930   -4.1610    1.2590 C   0  0  0  0  0  0  0  0  0  0  0  0
    3.2570   -4.0970    1.4560 C   0  0  0  0  0  0  0  0  0  0  0  0
    3.8750   -2.8050    1.1170 C   0  0  0  0  0  0  0  0  0  0  0  0
    4.6150   -2.1410    1.8790 O   0  0  0  0  0  0  0  0  0  0  0  0
    1.1680   -1.8260    1.9730 C   0  0  0  0  0  0  0  0  0  0  0  0
    1.9240   -1.2500    2.8060 O   0  0  0  0  0  0  0  0  0  0  0  0
    3.6240   -2.2660   -0.1650 O   0  0  0  0  0  0  0  0  0  0  0  0
   -0.6070   -3.2290    0.6920 H   0  0  0  0  0  0  0  0  0  0  0  0
   -0.5790   -4.6040    1.7470 H   0  0  0  0  0  0  0  0  0  0  0  0
    0.9740   -3.5990    3.1360 H   0  0  0  0  0  0  0  0  0  0  0  0
    1.6050   -3.9020    0.1730 H   0  0  0  0  0  0  0  0  0  0  0  0
    1.4360   -5.2330    1.4140 H   0  0  0  0  0  0  0  0  0  0  0  0
    3.7700   -4.9050    0.8540 H   0  0  0  0  0  0  0  0  0  0  0  0
    3.4790   -4.3430    2.5390 H   0  0  0  0  0  0  0  0  0  0  0  0
    4.3820   -1.8030   -0.6770 H   0  0  0  0  0  0  0  0  0  0  0  0
    0.6040   -1.0010    0.9700 N   0  0  0  0  0  0  0  0  0  0  0  0
    0.8750    0.4380    0.9410 C   0  0  1  0  0  0  0  0  0  0  0  0
    1.7510    0.8100   -0.1570 C   0  0  0  0  0  0  0  0  0  0  0  0
    2.1410    2.2090   -0.3670 C   0  0  0  0  0  0  0  0  0  0  0  0
    1.1230    3.1960   -0.7310 C   0  0  0  0  0  0  0  0  0  0  0  0
    1.1260    4.3230   -0.1900 O   0  0  0  0  0  0  0  0  0  0  0  0
   -0.4260    1.1040    1.0500 C   0  0  0  0  0  0  0  0  0  0  0  0
   -0.5950    2.3600    1.1980 O   0  0  0  0  0  0  0  0  0  0  0  0
    0.1580    2.9020   -1.6700 O   0  0  0  0  0  0  0  0  0  0  0  0
   -0.0060   -1.3610    0.2120 H   0  0  0  0  0  0  0  0  0  0  0  0
    1.4290    0.6830    1.9070 H   0  0  0  0  0  0  0  0  0  0  0  0
    1.3460    0.3910   -1.1280 H   0  0  0  0  0  0  0  0  0  0  0  0
    2.7590    0.2800    0.0320 H   0  0  0  0  0  0  0  0  0  0  0  0
    2.8130    2.6070    0.4630 H   0  0  0  0  0  0  0  0  0  0  0  0
    2.8890    2.2630   -1.2470 H   0  0  0  0  0  0  0  0  0  0  0  0
   -0.2510    3.6570   -2.2420 H   0  0  0  0  0  0  0  0  0  0  0  0
   -1.6760    0.3890    1.0020 N   0  0  0  0  0  0  0  0  0  0  0  0
   -2.9500    1.0610    1.1130 C   0  0  1  0  0  0  0  0  0  0  0  0
   -3.7580    0.8910   -0.1640 C   0  0  0  0  0  0  0  0  0  0  0  0
   -2.9010    1.6150   -1.5820 S   0  0  0  0  0  0  0  0  0  0  0  0
   -3.7310    0.5420    2.2560 C   0  0  0  0  0  0  0  0  0  0  0  0
   -3.2760   -0.3470    2.9920 O   0  0  0  0  0  0  0  0  0  0  0  0
   -5.0020    1.0450    2.5350 O   0  0  0  0  0  0  0  0  0  0  0  0
   -1.6860   -0.6270    0.8950 H   0  0  0  0  0  0  0  0  0  0  0  0
   -2.7510    2.1700    1.2790 H   0  0  0  0  0  0  0  0  0  0  0  0
   -3.7800   -0.2150   -0.3540 H   0  0  0  0  0  0  0  0  0  0  0  0
   -4.7560    1.3270   -0.0370 H   0  0  0  0  0  0  0  0  0  0  0  0
   -2.1160    0.6610   -2.2340 H   0  0  0  0  0  0  0  0  0  0  0  0
  1 11  1  0  0  0  0
  1  2  1  0  0  0  0
  2 12  1  1  0  0  0
  3 14  1  0  0  0  0
  3  4  1  0  0  0  0
  3  2  1  0  0  0  0
  4 16  1  0  0  0  0
  5  4  1  0  0  0  0
  5  6  2  0  0  0  0
  7  2  1  0  0  0  0
  7  8  2  0  0  0  0
  9  5  1  0  0  0  0
 10  1  1  0  0  0  0
 13  3  1  0  0  0  0
 15  4  1  0  0  0  0
 17  9  1  0  0  0  0
 18  7  1  0  0  0  0
 19 18  1  0  0  0  0
 19 24  1  0  0  0  0
 19 28  1  1  0  0  0
 20 30  1  0  0  0  0
 20 19  1  0  0  0  0
 21 20  1  0  0  0  0
 21 31  1  0  0  0  0
 22 21  1  0  0  0  0
 22 23  2  0  0  0  0
 24 25  2  0  0  0  0
 26 22  1  0  0  0  0
 27 18  1  0  0  0  0
 29 20  1  0  0  0  0
 32 21  1  0  0  0  0
 33 26  1  0  0  0  0
 34 24  1  0  0  0  0
 34 35  1  0  0  0  0
 35 42  1  1  0  0  0
 35 38  1  0  0  0  0
 36 44  1  0  0  0  0
 36 35  1  0  0  0  0
 37 36  1  0  0  0  0
 38 40  2  0  0  0  0
 38 39  1  0  0  0  0
 41 34  1  0  0  0  0
 43 36  1  0  0  0  0
 45 37  1  0  0  0  0
M  END
$$$$
