EED.pdb
 OpenBabel07022418173D

 47 46  0  0  1  0  0  0  0  0999 V2000
    3.9230   -2.9190    1.5670 N   0  0  0  0  0  0  0  0  0  0  0  0
    2.9480   -1.9960    0.9270 C   0  0  1  0  0  0  0  0  0  0  0  0
    2.5820   -2.6730   -0.3550 C   0  0  0  0  0  0  0  0  0  0  0  0
    1.5920   -1.9380   -1.2080 C   0  0  0  0  0  0  0  0  0  0  0  0
    2.0370   -0.6010   -1.6420 C   0  0  0  0  0  0  0  0  0  0  0  0
    3.1640   -0.1470   -1.3390 O   0  0  0  0  0  0  0  0  0  0  0  0
    1.8640   -1.8210    1.8870 C   0  0  0  0  0  0  0  0  0  0  0  0
    1.7850   -2.5780    2.9160 O   0  0  0  0  0  0  0  0  0  0  0  0
    1.2160    0.2100   -2.4090 O   0  0  0  0  0  0  0  0  0  0  0  0
    4.6730   -2.3690    2.0170 H   0  0  0  0  0  0  0  0  0  0  0  0
    3.4240   -3.5090    2.2890 H   0  0  0  0  0  0  0  0  0  0  0  0
    3.5040   -1.0720    0.7370 H   0  0  0  0  0  0  0  0  0  0  0  0
    3.5070   -2.8530   -0.9780 H   0  0  0  0  0  0  0  0  0  0  0  0
    2.2320   -3.6950   -0.0890 H   0  0  0  0  0  0  0  0  0  0  0  0
    1.3680   -2.5530   -2.1370 H   0  0  0  0  0  0  0  0  0  0  0  0
    0.6040   -1.9200   -0.6760 H   0  0  0  0  0  0  0  0  0  0  0  0
    1.5740    0.7750   -3.1700 H   0  0  0  0  0  0  0  0  0  0  0  0
    0.8200   -0.8360    1.8020 N   0  0  0  0  0  0  0  0  0  0  0  0
   -0.1880   -0.7450    2.7900 C   0  0  1  0  0  0  0  0  0  0  0  0
    0.0520    0.2540    3.8720 C   0  0  0  0  0  0  0  0  0  0  0  0
    0.2100    1.6770    3.4580 C   0  0  0  0  0  0  0  0  0  0  0  0
    1.3710    2.0250    2.6600 C   0  0  0  0  0  0  0  0  0  0  0  0
    2.3530    1.3010    2.4280 O   0  0  0  0  0  0  0  0  0  0  0  0
   -1.5820   -0.6530    2.2570 C   0  0  0  0  0  0  0  0  0  0  0  0
   -2.5160   -0.6230    3.0820 O   0  0  0  0  0  0  0  0  0  0  0  0
    1.3830    3.3180    2.0900 O   0  0  0  0  0  0  0  0  0  0  0  0
    0.8300   -0.2060    0.9590 H   0  0  0  0  0  0  0  0  0  0  0  0
   -0.1920   -1.7490    3.3590 H   0  0  0  0  0  0  0  0  0  0  0  0
   -0.7410    0.1850    4.6780 H   0  0  0  0  0  0  0  0  0  0  0  0
    1.0010    0.0030    4.4470 H   0  0  0  0  0  0  0  0  0  0  0  0
    0.3000    2.2800    4.4210 H   0  0  0  0  0  0  0  0  0  0  0  0
   -0.7230    2.0740    2.9600 H   0  0  0  0  0  0  0  0  0  0  0  0
    2.0290    3.5410    1.3500 H   0  0  0  0  0  0  0  0  0  0  0  0
   -1.9300   -0.5980    0.8970 N   0  0  0  0  0  0  0  0  0  0  0  0
   -3.2600   -0.5120    0.3810 C   0  0  1  0  0  0  0  0  0  0  0  0
   -3.5980    0.6340   -0.4680 C   0  0  0  0  0  0  0  0  0  0  0  0
   -2.7740    0.7160   -1.6950 C   0  0  0  0  0  0  0  0  0  0  0  0
   -1.9010   -0.1510   -1.9280 O   0  0  0  0  0  0  0  0  0  0  0  0
   -3.5370   -1.7630   -0.3750 C   0  0  0  0  0  0  0  0  0  0  0  0
   -4.6650   -1.9370   -0.9330 O   0  0  0  0  0  0  0  0  0  0  0  0
   -2.9140    1.7290   -2.6330 O   0  0  0  0  0  0  0  0  0  0  0  0
   -2.6030   -2.7690   -0.5010 O   0  0  0  0  0  0  0  0  0  0  0  0
   -1.1520   -0.6170    0.2070 H   0  0  0  0  0  0  0  0  0  0  0  0
   -3.9710   -0.5100    1.2600 H   0  0  0  0  0  0  0  0  0  0  0  0
   -4.6540    0.4520   -0.8420 H   0  0  0  0  0  0  0  0  0  0  0  0
   -3.6780    1.6100    0.0550 H   0  0  0  0  0  0  0  0  0  0  0  0
   -2.4930    1.7170   -3.5500 H   0  0  0  0  0  0  0  0  0  0  0  0
  1 10  1  0  0  0  0
  1 11  1  0  0  0  0
  2 12  1  6  0  0  0
  2  1  1  0  0  0  0
  2  7  1  0  0  0  0
  3 14  1  0  0  0  0
  3  2  1  0  0  0  0
  4 16  1  0  0  0  0
  4  3  1  0  0  0  0
  5  6  2  0  0  0  0
  5  4  1  0  0  0  0
  7  8  2  0  0  0  0
  9  5  1  0  0  0  0
 13  3  1  0  0  0  0
 15  4  1  0  0  0  0
 17  9  1  0  0  0  0
 18  7  1  0  0  0  0
 18 19  1  0  0  0  0
 19 28  1  1  0  0  0
 19 20  1  0  0  0  0
 20 30  1  0  0  0  0
 20 29  1  0  0  0  0
 21 20  1  0  0  0  0
 21 31  1  0  0  0  0
 22 21  1  0  0  0  0
 23 22  2  0  0  0  0
 24 19  1  0  0  0  0
 24 25  2  0  0  0  0
 26 22  1  0  0  0  0
 27 18  1  0  0  0  0
 32 21  1  0  0  0  0
 33 26  1  0  0  0  0
 34 24  1  0  0  0  0
 35 34  1  0  0  0  0
 35 44  1  1  0  0  0
 36 46  1  0  0  0  0
 36 35  1  0  0  0  0
 37 36  1  0  0  0  0
 38 37  2  0  0  0  0
 39 35  1  0  0  0  0
 40 39  2  0  0  0  0
 41 37  1  0  0  0  0
 42 39  1  0  0  0  0
 43 34  1  0  0  0  0
 45 36  1  0  0  0  0
 47 41  1  0  0  0  0
M  END
$$$$
