EEE.pdb
 OpenBabel07022418173D

 50 49  0  0  1  0  0  0  0  0999 V2000
    2.6170   -1.6650    0.2200 N   0  0  0  0  0  0  0  0  0  0  0  0
    2.4840   -1.4360    1.6470 C   0  0  1  0  0  0  0  0  0  0  0  0
    3.7970   -0.9120    2.1500 C   0  0  0  0  0  0  0  0  0  0  0  0
    3.8360   -0.6200    3.6130 C   0  0  0  0  0  0  0  0  0  0  0  0
    5.2210   -0.1130    3.9160 C   0  0  0  0  0  0  0  0  0  0  0  0
    5.5080    0.2020    5.1000 O   0  0  0  0  0  0  0  0  0  0  0  0
    1.3340   -0.5560    1.9530 C   0  0  0  0  0  0  0  0  0  0  0  0
    1.0190   -0.2220    3.1220 O   0  0  0  0  0  0  0  0  0  0  0  0
    6.1940    0.0200    2.9420 O   0  0  0  0  0  0  0  0  0  0  0  0
    2.1930   -2.5410   -0.1050 H   0  0  0  0  0  0  0  0  0  0  0  0
    3.5390   -1.4280   -0.1540 H   0  0  0  0  0  0  0  0  0  0  0  0
    2.2500   -2.4450    2.0940 H   0  0  0  0  0  0  0  0  0  0  0  0
    4.5690   -1.6540    1.9150 H   0  0  0  0  0  0  0  0  0  0  0  0
    3.9960    0.0410    1.6110 H   0  0  0  0  0  0  0  0  0  0  0  0
    3.1620    0.2060    3.9310 H   0  0  0  0  0  0  0  0  0  0  0  0
    3.5880   -1.5030    4.2410 H   0  0  0  0  0  0  0  0  0  0  0  0
    7.0990    0.4560    3.1260 H   0  0  0  0  0  0  0  0  0  0  0  0
    0.5490   -0.0640    0.8780 N   0  0  0  0  0  0  0  0  0  0  0  0
   -0.5810    0.7960    1.1170 C   0  0  1  0  0  0  0  0  0  0  0  0
   -0.4630    2.0640    0.3360 C   0  0  0  0  0  0  0  0  0  0  0  0
    0.7460    2.8730    0.6570 C   0  0  0  0  0  0  0  0  0  0  0  0
    0.8450    3.3140    2.0480 C   0  0  0  0  0  0  0  0  0  0  0  0
    1.8730    4.0020    2.3520 O   0  0  0  0  0  0  0  0  0  0  0  0
   -1.8340    0.0840    0.6910 C   0  0  0  0  0  0  0  0  0  0  0  0
   -2.9520    0.6470    0.8100 O   0  0  0  0  0  0  0  0  0  0  0  0
   -0.0440    3.0690    3.0580 O   0  0  0  0  0  0  0  0  0  0  0  0
    0.8210   -0.3480   -0.0870 H   0  0  0  0  0  0  0  0  0  0  0  0
   -0.7180    1.0090    2.1940 H   0  0  0  0  0  0  0  0  0  0  0  0
   -1.3510    2.7200    0.4320 H   0  0  0  0  0  0  0  0  0  0  0  0
   -0.4050    1.8300   -0.7660 H   0  0  0  0  0  0  0  0  0  0  0  0
    1.6950    2.3750    0.3030 H   0  0  0  0  0  0  0  0  0  0  0  0
    0.6850    3.8060    0.0230 H   0  0  0  0  0  0  0  0  0  0  0  0
    0.2410    2.9110    4.0040 H   0  0  0  0  0  0  0  0  0  0  0  0
   -1.7880   -1.2110    0.1570 N   0  0  0  0  0  0  0  0  0  0  0  0
   -2.9980   -1.9260   -0.2660 C   0  0  1  0  0  0  0  0  0  0  0  0
   -2.9480   -2.1600   -1.7540 C   0  0  0  0  0  0  0  0  0  0  0  0
   -4.1420   -2.8820   -2.3140 C   0  0  0  0  0  0  0  0  0  0  0  0
   -4.0020   -3.0430   -3.8060 C   0  0  0  0  0  0  0  0  0  0  0  0
   -3.2470   -3.9370   -4.2150 O   0  0  0  0  0  0  0  0  0  0  0  0
   -3.1380   -3.1810    0.4820 C   0  0  0  0  0  0  0  0  0  0  0  0
   -4.1240   -3.9280    0.3330 O   0  0  0  0  0  0  0  0  0  0  0  0
   -4.6750   -2.2460   -4.6960 O   0  0  0  0  0  0  0  0  0  0  0  0
   -2.1550   -3.5690    1.3860 O   0  0  0  0  0  0  0  0  0  0  0  0
   -0.8870   -1.7230    0.0360 H   0  0  0  0  0  0  0  0  0  0  0  0
   -3.8470   -1.2390   -0.0660 H   0  0  0  0  0  0  0  0  0  0  0  0
   -2.7820   -1.1920   -2.3020 H   0  0  0  0  0  0  0  0  0  0  0  0
   -2.0390   -2.7690   -2.0370 H   0  0  0  0  0  0  0  0  0  0  0  0
   -5.0550   -2.3170   -2.0550 H   0  0  0  0  0  0  0  0  0  0  0  0
   -4.2660   -3.9100   -1.9090 H   0  0  0  0  0  0  0  0  0  0  0  0
   -4.8300   -2.4970   -5.6710 H   0  0  0  0  0  0  0  0  0  0  0  0
  1  2  1  0  0  0  0
  2  7  1  0  0  0  0
  2 12  1  1  0  0  0
  2  3  1  0  0  0  0
  3  4  1  0  0  0  0
  4  5  1  0  0  0  0
  4 15  1  0  0  0  0
  4 16  1  0  0  0  0
  5  6  2  0  0  0  0
  7  8  2  0  0  0  0
  9 17  1  0  0  0  0
  9  5  1  0  0  0  0
 10  1  1  0  0  0  0
 11  1  1  0  0  0  0
 13  3  1  0  0  0  0
 14  3  1  0  0  0  0
 18 19  1  0  0  0  0
 18  7  1  0  0  0  0
 19 28  1  1  0  0  0
 20 29  1  0  0  0  0
 20 21  1  0  0  0  0
 20 19  1  0  0  0  0
 21 22  1  0  0  0  0
 22 23  2  0  0  0  0
 22 26  1  0  0  0  0
 24 25  2  0  0  0  0
 24 19  1  0  0  0  0
 26 33  1  0  0  0  0
 27 18  1  0  0  0  0
 30 20  1  0  0  0  0
 31 21  1  0  0  0  0
 32 21  1  0  0  0  0
 34 24  1  0  0  0  0
 35 45  1  1  0  0  0
 35 34  1  0  0  0  0
 35 40  1  0  0  0  0
 36 35  1  0  0  0  0
 37 48  1  0  0  0  0
 37 49  1  0  0  0  0
 37 36  1  0  0  0  0
 38 37  1  0  0  0  0
 39 38  2  0  0  0  0
 40 43  1  0  0  0  0
 41 40  2  0  0  0  0
 42 38  1  0  0  0  0
 44 34  1  0  0  0  0
 46 36  1  0  0  0  0
 47 36  1  0  0  0  0
 50 42  1  0  0  0  0
M  END
$$$$
