EEG.pdb
 OpenBabel07022418173D

 41 40  0  0  1  0  0  0  0  0999 V2000
    0.5190    1.8500   -1.6690 N   0  0  0  0  0  0  0  0  0  0  0  0
    0.3980    0.4880   -1.2870 C   0  0  1  0  0  0  0  0  0  0  0  0
    1.2650   -0.4460   -2.0410 C   0  0  0  0  0  0  0  0  0  0  0  0
    2.7300   -0.2420   -1.9640 C   0  0  0  0  0  0  0  0  0  0  0  0
    3.2560    1.0140   -2.4760 C   0  0  0  0  0  0  0  0  0  0  0  0
    4.4890    1.2540   -2.2190 O   0  0  0  0  0  0  0  0  0  0  0  0
    0.5040    0.3150    0.2020 C   0  0  0  0  0  0  0  0  0  0  0  0
    0.6690    1.3040    0.9300 O   0  0  0  0  0  0  0  0  0  0  0  0
    2.6000    1.9760   -3.2030 O   0  0  0  0  0  0  0  0  0  0  0  0
    0.3560    2.5170   -0.9030 H   0  0  0  0  0  0  0  0  0  0  0  0
   -0.1630    2.0590   -2.4280 H   0  0  0  0  0  0  0  0  0  0  0  0
   -0.6700    0.1780   -1.5060 H   0  0  0  0  0  0  0  0  0  0  0  0
    1.0740   -1.5220   -1.7550 H   0  0  0  0  0  0  0  0  0  0  0  0
    0.9630   -0.3940   -3.1270 H   0  0  0  0  0  0  0  0  0  0  0  0
    3.1370   -0.4010   -0.9340 H   0  0  0  0  0  0  0  0  0  0  0  0
    3.1980   -1.0620   -2.5950 H   0  0  0  0  0  0  0  0  0  0  0  0
    2.8980    2.9460   -3.1830 H   0  0  0  0  0  0  0  0  0  0  0  0
    0.4180   -0.9570    0.7620 N   0  0  0  0  0  0  0  0  0  0  0  0
    0.5110   -1.3650    2.0990 C   0  0  1  0  0  0  0  0  0  0  0  0
    0.8310   -0.4050    3.1850 C   0  0  0  0  0  0  0  0  0  0  0  0
    2.1630    0.2400    3.1840 C   0  0  0  0  0  0  0  0  0  0  0  0
    2.1820    1.1880    4.3630 C   0  0  0  0  0  0  0  0  0  0  0  0
    3.1900    1.9010    4.6130 O   0  0  0  0  0  0  0  0  0  0  0  0
   -0.6100   -2.2320    2.4790 C   0  0  0  0  0  0  0  0  0  0  0  0
   -0.7310   -2.7310    3.6490 O   0  0  0  0  0  0  0  0  0  0  0  0
    1.1070    1.3230    5.2210 O   0  0  0  0  0  0  0  0  0  0  0  0
    0.2520   -1.7710    0.0640 H   0  0  0  0  0  0  0  0  0  0  0  0
    1.4570   -2.0890    2.0680 H   0  0  0  0  0  0  0  0  0  0  0  0
   -0.0140    0.3360    3.2910 H   0  0  0  0  0  0  0  0  0  0  0  0
    0.7650   -0.9660    4.1690 H   0  0  0  0  0  0  0  0  0  0  0  0
    2.6120    0.6190    2.2970 H   0  0  0  0  0  0  0  0  0  0  0  0
    2.9370   -0.5580    3.5380 H   0  0  0  0  0  0  0  0  0  0  0  0
    0.8900    2.1430    5.7580 H   0  0  0  0  0  0  0  0  0  0  0  0
   -1.6680   -2.5970    1.5680 N   0  0  0  0  0  0  0  0  0  0  0  0
   -2.7490   -3.4580    1.9960 C   0  0  0  0  0  0  0  0  0  0  0  0
   -3.6680   -3.6450    0.8470 C   0  0  0  0  0  0  0  0  0  0  0  0
   -4.7140   -4.3720    0.9500 O   0  0  0  0  0  0  0  0  0  0  0  0
   -3.4730   -3.0650   -0.3970 O   0  0  0  0  0  0  0  0  0  0  0  0
   -1.6530   -2.2370    0.5980 H   0  0  0  0  0  0  0  0  0  0  0  0
   -3.3440   -2.9340    2.7870 H   0  0  0  0  0  0  0  0  0  0  0  0
   -2.3710   -4.4330    2.3650 H   0  0  0  0  0  0  0  0  0  0  0  0
  1  2  1  0  0  0  0
  1 10  1  0  0  0  0
  2 12  1  6  0  0  0
  2  7  1  0  0  0  0
  3  4  1  0  0  0  0
  3 13  1  0  0  0  0
  3  2  1  0  0  0  0
  4 15  1  0  0  0  0
  5  6  2  0  0  0  0
  5  4  1  0  0  0  0
  7 18  1  0  0  0  0
  7  8  2  0  0  0  0
  9 17  1  0  0  0  0
  9  5  1  0  0  0  0
 11  1  1  0  0  0  0
 14  3  1  0  0  0  0
 16  4  1  0  0  0  0
 18 19  1  0  0  0  0
 19 28  1  6  0  0  0
 19 24  1  0  0  0  0
 19 20  1  0  0  0  0
 20 29  1  0  0  0  0
 20 30  1  0  0  0  0
 21 20  1  0  0  0  0
 21 32  1  0  0  0  0
 21 22  1  0  0  0  0
 22 23  2  0  0  0  0
 22 26  1  0  0  0  0
 24 25  2  0  0  0  0
 26 33  1  0  0  0  0
 27 18  1  0  0  0  0
 31 21  1  0  0  0  0
 34 35  1  0  0  0  0
 34 24  1  0  0  0  0
 35 41  1  0  0  0  0
 35 40  1  0  0  0  0
 36 37  1  0  0  0  0
 36 35  1  0  0  0  0
 38 36  2  0  0  0  0
 39 34  1  0  0  0  0
M  END
$$$$
