EEI.pdb
 OpenBabel07022418173D

 53 52  0  0  1  0  0  0  0  0999 V2000
    0.8360   -4.0300    1.1830 N   0  0  0  0  0  0  0  0  0  0  0  0
    1.9860   -3.2750    1.7530 C   0  0  1  0  0  0  0  0  0  0  0  0
    3.1620   -3.6820    0.9440 C   0  0  0  0  0  0  0  0  0  0  0  0
    4.4760   -3.1100    1.2840 C   0  0  0  0  0  0  0  0  0  0  0  0
    4.6450   -1.6600    1.2060 C   0  0  0  0  0  0  0  0  0  0  0  0
    4.7180   -0.9410    2.2310 O   0  0  0  0  0  0  0  0  0  0  0  0
    1.5880   -1.8610    1.6570 C   0  0  0  0  0  0  0  0  0  0  0  0
    1.7760   -1.1540    2.7120 O   0  0  0  0  0  0  0  0  0  0  0  0
    4.7330   -1.0300   -0.0460 O   0  0  0  0  0  0  0  0  0  0  0  0
    0.0900   -3.9780    1.9320 H   0  0  0  0  0  0  0  0  0  0  0  0
    0.4960   -3.5400    0.3540 H   0  0  0  0  0  0  0  0  0  0  0  0
    2.0700   -3.6180    2.7940 H   0  0  0  0  0  0  0  0  0  0  0  0
    2.8820   -3.5080   -0.1400 H   0  0  0  0  0  0  0  0  0  0  0  0
    3.2220   -4.8030    1.0230 H   0  0  0  0  0  0  0  0  0  0  0  0
    4.7780   -3.4260    2.3340 H   0  0  0  0  0  0  0  0  0  0  0  0
    5.2660   -3.6370    0.6560 H   0  0  0  0  0  0  0  0  0  0  0  0
    5.4120   -0.2680   -0.1770 H   0  0  0  0  0  0  0  0  0  0  0  0
    1.0270   -1.2280    0.5200 N   0  0  0  0  0  0  0  0  0  0  0  0
    0.6710    0.1790    0.5810 C   0  0  1  0  0  0  0  0  0  0  0  0
    1.6500    0.9260   -0.2740 C   0  0  0  0  0  0  0  0  0  0  0  0
    1.4270    2.4040   -0.3270 C   0  0  0  0  0  0  0  0  0  0  0  0
    2.4860    2.9750   -1.2000 C   0  0  0  0  0  0  0  0  0  0  0  0
    2.5250    4.2190   -1.4190 O   0  0  0  0  0  0  0  0  0  0  0  0
   -0.7330    0.3930    0.2250 C   0  0  0  0  0  0  0  0  0  0  0  0
   -1.2870    1.5240    0.1760 O   0  0  0  0  0  0  0  0  0  0  0  0
    3.4730    2.2160   -1.8170 O   0  0  0  0  0  0  0  0  0  0  0  0
    0.8940   -1.7890   -0.3540 H   0  0  0  0  0  0  0  0  0  0  0  0
    0.8650    0.5190    1.6190 H   0  0  0  0  0  0  0  0  0  0  0  0
    2.6890    0.7840    0.0980 H   0  0  0  0  0  0  0  0  0  0  0  0
    1.6470    0.5500   -1.3180 H   0  0  0  0  0  0  0  0  0  0  0  0
    0.4700    2.6480   -0.8430 H   0  0  0  0  0  0  0  0  0  0  0  0
    1.5310    2.9100    0.6550 H   0  0  0  0  0  0  0  0  0  0  0  0
    4.2650    2.6490   -2.3060 H   0  0  0  0  0  0  0  0  0  0  0  0
   -4.5850   -1.1980    2.8990 C   0  0  0  0  0  0  0  0  0  0  0  0
   -3.8060   -1.5720    1.6560 C   0  0  0  0  0  0  0  0  0  0  0  0
   -3.8760   -0.4260    0.6690 C   0  0  2  0  0  0  0  0  0  0  0  0
   -5.2830   -0.1080    0.2650 C   0  0  0  0  0  0  0  0  0  0  0  0
   -2.9490   -0.6230   -0.4820 C   0  0  2  0  0  0  0  0  0  0  0  0
   -1.5500   -0.7280   -0.0950 N   0  0  0  0  0  0  0  0  0  0  0  0
   -3.1750    0.3250   -1.5890 C   0  0  0  0  0  0  0  0  0  0  0  0
   -4.3350    0.5320   -1.9820 O   0  0  0  0  0  0  0  0  0  0  0  0
   -2.1220    0.9680   -2.1800 O   0  0  0  0  0  0  0  0  0  0  0  0
   -4.1420   -1.7250    3.7500 H   0  0  0  0  0  0  0  0  0  0  0  0
   -4.5010   -0.1070    3.0530 H   0  0  0  0  0  0  0  0  0  0  0  0
   -5.6340   -1.5140    2.7200 H   0  0  0  0  0  0  0  0  0  0  0  0
   -4.1370   -2.5300    1.2170 H   0  0  0  0  0  0  0  0  0  0  0  0
   -2.7420   -1.6740    1.9570 H   0  0  0  0  0  0  0  0  0  0  0  0
   -3.4880    0.4680    1.2430 H   0  0  0  0  0  0  0  0  0  0  0  0
   -5.5480   -0.8350   -0.5560 H   0  0  0  0  0  0  0  0  0  0  0  0
   -5.4810    0.9310    0.0010 H   0  0  0  0  0  0  0  0  0  0  0  0
   -6.0070   -0.3520    1.0970 H   0  0  0  0  0  0  0  0  0  0  0  0
   -3.1980   -1.6400   -0.9450 H   0  0  0  0  0  0  0  0  0  0  0  0
   -1.0850   -1.6890   -0.0340 H   0  0  0  0  0  0  0  0  0  0  0  0
  1  2  1  0  0  0  0
  1 10  1  0  0  0  0
  2 12  1  1  0  0  0
  3 14  1  0  0  0  0
  3  4  1  0  0  0  0
  3  2  1  0  0  0  0
  4 15  1  0  0  0  0
  5  4  1  0  0  0  0
  5  6  2  0  0  0  0
  7  2  1  0  0  0  0
  7  8  2  0  0  0  0
  9  5  1  0  0  0  0
 11  1  1  0  0  0  0
 13  3  1  0  0  0  0
 16  4  1  0  0  0  0
 17  9  1  0  0  0  0
 18 19  1  0  0  0  0
 18  7  1  0  0  0  0
 19 28  1  1  0  0  0
 20 29  1  0  0  0  0
 20 19  1  0  0  0  0
 21 20  1  0  0  0  0
 21 32  1  0  0  0  0
 22 21  1  0  0  0  0
 23 22  2  0  0  0  0
 24 19  1  0  0  0  0
 25 24  2  0  0  0  0
 26 22  1  0  0  0  0
 27 18  1  0  0  0  0
 30 20  1  0  0  0  0
 31 21  1  0  0  0  0
 33 26  1  0  0  0  0
 34 44  1  0  0  0  0
 34 43  1  0  0  0  0
 35 47  1  0  0  0  0
 35 34  1  0  0  0  0
 36 48  1  1  0  0  0
 36 35  1  0  0  0  0
 37 36  1  0  0  0  0
 37 51  1  0  0  0  0
 38 52  1  6  0  0  0
 38 39  1  0  0  0  0
 38 36  1  0  0  0  0
 39 53  1  0  0  0  0
 39 24  1  0  0  0  0
 40 38  1  0  0  0  0
 41 40  1  0  0  0  0
 42 40  2  0  0  0  0
 45 34  1  0  0  0  0
 46 35  1  0  0  0  0
 49 37  1  0  0  0  0
 50 37  1  0  0  0  0
M  END
$$$$
