EEL.pdb
 OpenBabel07022418173D

 53 52  0  0  1  0  0  0  0  0999 V2000
    1.4250   -3.0420    0.2020 N   0  0  0  0  0  0  0  0  0  0  0  0
    2.1910   -2.5340    1.3390 C   0  0  1  0  0  0  0  0  0  0  0  0
    3.6440   -2.5840    0.9440 C   0  0  0  0  0  0  0  0  0  0  0  0
    4.5900   -2.1010    1.9870 C   0  0  0  0  0  0  0  0  0  0  0  0
    4.5710   -2.8370    3.2580 C   0  0  0  0  0  0  0  0  0  0  0  0
    3.8370   -3.8020    3.4700 O   0  0  0  0  0  0  0  0  0  0  0  0
    1.7520   -1.1600    1.6970 C   0  0  0  0  0  0  0  0  0  0  0  0
    2.1590   -0.6290    2.7590 O   0  0  0  0  0  0  0  0  0  0  0  0
    5.4300   -2.4220    4.2770 O   0  0  0  0  0  0  0  0  0  0  0  0
    0.5080   -3.4070    0.5410 H   0  0  0  0  0  0  0  0  0  0  0  0
    1.9540   -3.7230   -0.3800 H   0  0  0  0  0  0  0  0  0  0  0  0
    2.0160   -3.2610    2.1550 H   0  0  0  0  0  0  0  0  0  0  0  0
    3.8080   -1.9220    0.0390 H   0  0  0  0  0  0  0  0  0  0  0  0
    3.9220   -3.6110    0.5730 H   0  0  0  0  0  0  0  0  0  0  0  0
    5.6500   -2.0650    1.6180 H   0  0  0  0  0  0  0  0  0  0  0  0
    4.3540   -1.0360    2.2040 H   0  0  0  0  0  0  0  0  0  0  0  0
    5.8050   -3.0440    4.9770 H   0  0  0  0  0  0  0  0  0  0  0  0
    0.8800   -0.3660    0.9160 N   0  0  0  0  0  0  0  0  0  0  0  0
    0.4480    0.9560    1.2510 C   0  0  1  0  0  0  0  0  0  0  0  0
    0.9970    2.0420    0.3970 C   0  0  0  0  0  0  0  0  0  0  0  0
    0.6460    1.9050   -1.0700 C   0  0  0  0  0  0  0  0  0  0  0  0
    1.2550    3.0470   -1.8440 C   0  0  0  0  0  0  0  0  0  0  0  0
    1.9110    3.9200   -1.2320 O   0  0  0  0  0  0  0  0  0  0  0  0
   -1.0330    0.9820    1.2990 C   0  0  0  0  0  0  0  0  0  0  0  0
   -1.6790    2.0400    1.6080 O   0  0  0  0  0  0  0  0  0  0  0  0
    1.1190    3.1730   -3.2160 O   0  0  0  0  0  0  0  0  0  0  0  0
    0.5180   -0.7650    0.0230 H   0  0  0  0  0  0  0  0  0  0  0  0
    0.8070    1.1660    2.2800 H   0  0  0  0  0  0  0  0  0  0  0  0
    0.5410    3.0000    0.7270 H   0  0  0  0  0  0  0  0  0  0  0  0
    2.0740    2.1440    0.5660 H   0  0  0  0  0  0  0  0  0  0  0  0
   -0.4450    2.0210   -1.2180 H   0  0  0  0  0  0  0  0  0  0  0  0
    0.9440    0.9620   -1.5130 H   0  0  0  0  0  0  0  0  0  0  0  0
    1.9120    3.4650   -3.7880 H   0  0  0  0  0  0  0  0  0  0  0  0
   -4.0930   -2.5240   -0.8100 C   0  0  0  0  0  0  0  0  0  0  0  0
   -3.6490   -1.1580   -1.2500 C   0  0  0  0  0  0  0  0  0  0  0  0
   -2.2550   -1.2540   -1.7950 C   0  0  0  0  0  0  0  0  0  0  0  0
   -3.9080   -0.0630   -0.2960 C   0  0  0  0  0  0  0  0  0  0  0  0
   -3.3180   -0.1110    1.0610 C   0  0  2  0  0  0  0  0  0  0  0  0
   -1.8460   -0.1500    1.0110 N   0  0  0  0  0  0  0  0  0  0  0  0
   -3.8480   -1.1180    1.9690 C   0  0  0  0  0  0  0  0  0  0  0  0
   -3.0490   -1.8840    2.5660 O   0  0  0  0  0  0  0  0  0  0  0  0
   -5.1890   -1.2930    2.2260 O   0  0  0  0  0  0  0  0  0  0  0  0
   -3.4950   -2.9370    0.0310 H   0  0  0  0  0  0  0  0  0  0  0  0
   -5.1900   -2.5890   -0.6340 H   0  0  0  0  0  0  0  0  0  0  0  0
   -3.8940   -3.2110   -1.6690 H   0  0  0  0  0  0  0  0  0  0  0  0
   -4.3240   -0.9320   -2.1430 H   0  0  0  0  0  0  0  0  0  0  0  0
   -1.7680   -2.2310   -1.6380 H   0  0  0  0  0  0  0  0  0  0  0  0
   -2.3050   -1.1480   -2.9200 H   0  0  0  0  0  0  0  0  0  0  0  0
   -1.6320   -0.3850   -1.4780 H   0  0  0  0  0  0  0  0  0  0  0  0
   -4.9960    0.1070   -0.2100 H   0  0  0  0  0  0  0  0  0  0  0  0
   -3.4910    0.8780   -0.7750 H   0  0  0  0  0  0  0  0  0  0  0  0
   -3.5600    0.8970    1.5180 H   0  0  0  0  0  0  0  0  0  0  0  0
   -1.3550   -1.0560    0.7640 H   0  0  0  0  0  0  0  0  0  0  0  0
  1 10  1  0  0  0  0
  1  2  1  0  0  0  0
  2  7  1  0  0  0  0
  2 12  1  1  0  0  0
  3  2  1  0  0  0  0
  3  4  1  0  0  0  0
  4 16  1  0  0  0  0
  4  5  1  0  0  0  0
  5  6  2  0  0  0  0
  5  9  1  0  0  0  0
  7  8  2  0  0  0  0
  9 17  1  0  0  0  0
 11  1  1  0  0  0  0
 13  3  1  0  0  0  0
 14  3  1  0  0  0  0
 15  4  1  0  0  0  0
 18 19  1  0  0  0  0
 18  7  1  0  0  0  0
 19 24  1  0  0  0  0
 19 28  1  1  0  0  0
 20 30  1  0  0  0  0
 20 29  1  0  0  0  0
 20 19  1  0  0  0  0
 21 20  1  0  0  0  0
 22 23  2  0  0  0  0
 22 21  1  0  0  0  0
 24 25  2  0  0  0  0
 26 22  1  0  0  0  0
 27 18  1  0  0  0  0
 31 21  1  0  0  0  0
 32 21  1  0  0  0  0
 33 26  1  0  0  0  0
 34 44  1  0  0  0  0
 34 43  1  0  0  0  0
 35 34  1  0  0  0  0
 35 37  1  0  0  0  0
 36 47  1  0  0  0  0
 36 49  1  0  0  0  0
 36 35  1  0  0  0  0
 37 50  1  0  0  0  0
 37 38  1  0  0  0  0
 38 52  1  1  0  0  0
 38 40  1  0  0  0  0
 39 38  1  0  0  0  0
 39 24  1  0  0  0  0
 40 42  2  0  0  0  0
 40 41  1  0  0  0  0
 45 34  1  0  0  0  0
 46 35  1  0  0  0  0
 48 36  1  0  0  0  0
 51 37  1  0  0  0  0
 53 39  1  0  0  0  0
M  END
$$$$
