EEQ.pdb
 OpenBabel07022418173D

 51 50  0  0  1  0  0  0  0  0999 V2000
    4.1050   -2.0680    0.1020 N   0  0  0  0  0  0  0  0  0  0  0  0
    3.5520   -2.1130    1.4250 C   0  0  1  0  0  0  0  0  0  0  0  0
    4.5080   -1.4710    2.3840 C   0  0  0  0  0  0  0  0  0  0  0  0
    4.7650   -0.0300    2.0170 C   0  0  0  0  0  0  0  0  0  0  0  0
    5.7100    0.6020    2.9610 C   0  0  0  0  0  0  0  0  0  0  0  0
    6.1630   -0.0910    3.9060 O   0  0  0  0  0  0  0  0  0  0  0  0
    2.1750   -1.5770    1.4910 C   0  0  0  0  0  0  0  0  0  0  0  0
    1.5760   -1.5270    2.5960 O   0  0  0  0  0  0  0  0  0  0  0  0
    6.1280    1.9180    2.8670 O   0  0  0  0  0  0  0  0  0  0  0  0
    3.7090   -2.8030   -0.5240 H   0  0  0  0  0  0  0  0  0  0  0  0
    4.0140   -1.1350   -0.3560 H   0  0  0  0  0  0  0  0  0  0  0  0
    3.4670   -3.2140    1.6740 H   0  0  0  0  0  0  0  0  0  0  0  0
    4.1520   -1.5750    3.4260 H   0  0  0  0  0  0  0  0  0  0  0  0
    5.4880   -2.0090    2.2430 H   0  0  0  0  0  0  0  0  0  0  0  0
    3.7580    0.4700    2.0460 H   0  0  0  0  0  0  0  0  0  0  0  0
    5.1530    0.0960    1.0060 H   0  0  0  0  0  0  0  0  0  0  0  0
    7.0070    2.2440    3.2170 H   0  0  0  0  0  0  0  0  0  0  0  0
    1.4670   -1.1030    0.3550 N   0  0  0  0  0  0  0  0  0  0  0  0
    0.0950   -0.5760    0.4530 C   0  0  1  0  0  0  0  0  0  0  0  0
    0.1360    0.8290   -0.0790 C   0  0  0  0  0  0  0  0  0  0  0  0
    1.0600    1.7080    0.6840 C   0  0  0  0  0  0  0  0  0  0  0  0
    0.7450    1.9020    2.0990 C   0  0  0  0  0  0  0  0  0  0  0  0
   -0.2800    1.3930    2.6010 O   0  0  0  0  0  0  0  0  0  0  0  0
   -0.8030   -1.3980   -0.4270 C   0  0  0  0  0  0  0  0  0  0  0  0
   -0.2630   -2.3320   -1.0590 O   0  0  0  0  0  0  0  0  0  0  0  0
    1.5410    2.6460    2.9640 O   0  0  0  0  0  0  0  0  0  0  0  0
    1.9550   -1.1390   -0.5650 H   0  0  0  0  0  0  0  0  0  0  0  0
   -0.2470   -0.5820    1.4890 H   0  0  0  0  0  0  0  0  0  0  0  0
   -0.8700    1.3080   -0.0620 H   0  0  0  0  0  0  0  0  0  0  0  0
    0.5290    0.7810   -1.1300 H   0  0  0  0  0  0  0  0  0  0  0  0
    2.1200    1.3830    0.5610 H   0  0  0  0  0  0  0  0  0  0  0  0
    1.0410    2.7180    0.1670 H   0  0  0  0  0  0  0  0  0  0  0  0
    1.6760    2.4260    3.9380 H   0  0  0  0  0  0  0  0  0  0  0  0
   -6.5950   -0.2620    0.8440 N   0  0  0  0  0  0  0  0  0  0  0  0
   -5.8760   -1.0850   -0.0880 C   0  0  0  0  0  0  0  0  0  0  0  0
   -6.1610   -0.8920   -1.2850 O   0  0  0  0  0  0  0  0  0  0  0  0
   -4.9050   -2.0540    0.3600 C   0  0  0  0  0  0  0  0  0  0  0  0
   -4.0190   -2.7380   -0.5910 C   0  0  0  0  0  0  0  0  0  0  0  0
   -3.0710   -1.9440   -1.4030 C   0  0  2  0  0  0  0  0  0  0  0  0
   -2.1890   -1.1670   -0.5640 N   0  0  0  0  0  0  0  0  0  0  0  0
   -3.6930   -1.2540   -2.5090 C   0  0  0  0  0  0  0  0  0  0  0  0
   -3.6350   -0.0260   -2.7650 O   0  0  0  0  0  0  0  0  0  0  0  0
   -4.4480   -2.0280   -3.4140 O   0  0  0  0  0  0  0  0  0  0  0  0
   -6.3920    0.7430    0.8580 H   0  0  0  0  0  0  0  0  0  0  0  0
   -7.2900   -0.6710    1.4770 H   0  0  0  0  0  0  0  0  0  0  0  0
   -4.3430   -1.6160    1.2360 H   0  0  0  0  0  0  0  0  0  0  0  0
   -5.4980   -2.8860    0.8810 H   0  0  0  0  0  0  0  0  0  0  0  0
   -4.6860   -3.3810   -1.2540 H   0  0  0  0  0  0  0  0  0  0  0  0
   -3.4740   -3.5430    0.0060 H   0  0  0  0  0  0  0  0  0  0  0  0
   -2.3960   -2.7460   -1.9110 H   0  0  0  0  0  0  0  0  0  0  0  0
   -2.6060   -0.3840   -0.0260 H   0  0  0  0  0  0  0  0  0  0  0  0
  1  2  1  0  0  0  0
  2  7  1  0  0  0  0
  2 12  1  1  0  0  0
  2  3  1  0  0  0  0
  3 13  1  0  0  0  0
  4 15  1  0  0  0  0
  4  3  1  0  0  0  0
  4  5  1  0  0  0  0
  5  6  2  0  0  0  0
  7  8  2  0  0  0  0
  9  5  1  0  0  0  0
  9 17  1  0  0  0  0
 10  1  1  0  0  0  0
 11  1  1  0  0  0  0
 14  3  1  0  0  0  0
 16  4  1  0  0  0  0
 18 19  1  0  0  0  0
 18  7  1  0  0  0  0
 19 28  1  1  0  0  0
 20 29  1  0  0  0  0
 20 19  1  0  0  0  0
 20 21  1  0  0  0  0
 21 22  1  0  0  0  0
 22 23  2  0  0  0  0
 22 26  1  0  0  0  0
 24 19  1  0  0  0  0
 25 24  2  0  0  0  0
 26 33  1  0  0  0  0
 27 18  1  0  0  0  0
 30 20  1  0  0  0  0
 31 21  1  0  0  0  0
 32 21  1  0  0  0  0
 34 44  1  0  0  0  0
 34 45  1  0  0  0  0
 35 37  1  0  0  0  0
 35 34  1  0  0  0  0
 36 35  2  0  0  0  0
 37 47  1  0  0  0  0
 37 46  1  0  0  0  0
 38 49  1  0  0  0  0
 38 37  1  0  0  0  0
 39 50  1  6  0  0  0
 39 38  1  0  0  0  0
 39 40  1  0  0  0  0
 40 24  1  0  0  0  0
 40 51  1  0  0  0  0
 41 39  1  0  0  0  0
 42 41  1  0  0  0  0
 43 41  2  0  0  0  0
 48 38  1  0  0  0  0
M  END
$$$$
