EFF.pdb
 OpenBabel07022418203D

 58 59  0  0  1  0  0  0  0  0999 V2000
    3.2330    1.5560    3.0560 N   0  0  0  0  0  0  0  0  0  0  0  0
    2.7140    1.0170    1.7850 C   0  0  1  0  0  0  0  0  0  0  0  0
    2.9430   -0.4720    1.8510 C   0  0  0  0  0  0  0  0  0  0  0  0
    4.3940   -0.8350    2.0070 C   0  0  0  0  0  0  0  0  0  0  0  0
    5.2540   -0.3960    0.9080 C   0  0  0  0  0  0  0  0  0  0  0  0
    4.7630    0.1910   -0.0790 O   0  0  0  0  0  0  0  0  0  0  0  0
    1.2200    1.2120    1.7600 C   0  0  0  0  0  0  0  0  0  0  0  0
    0.6100    1.7640    2.7270 O   0  0  0  0  0  0  0  0  0  0  0  0
    6.6310   -0.5910    0.8810 O   0  0  0  0  0  0  0  0  0  0  0  0
    2.4720    1.3120    3.7600 H   0  0  0  0  0  0  0  0  0  0  0  0
    3.1710    2.6010    2.9670 H   0  0  0  0  0  0  0  0  0  0  0  0
    3.1900    1.4930    0.9290 H   0  0  0  0  0  0  0  0  0  0  0  0
    2.5420   -0.9960    0.9590 H   0  0  0  0  0  0  0  0  0  0  0  0
    2.4350   -0.8350    2.7900 H   0  0  0  0  0  0  0  0  0  0  0  0
    4.7970   -0.5170    3.0050 H   0  0  0  0  0  0  0  0  0  0  0  0
    4.4140   -1.9640    2.0780 H   0  0  0  0  0  0  0  0  0  0  0  0
    7.2540    0.0770    0.4090 H   0  0  0  0  0  0  0  0  0  0  0  0
    0.4190    0.7990    0.6730 N   0  0  0  0  0  0  0  0  0  0  0  0
   -1.0400    0.9810    0.6290 C   0  0  1  0  0  0  0  0  0  0  0  0
   -1.4270    1.9470   -0.4340 C   0  0  0  0  0  0  0  0  0  0  0  0
   -2.8730    2.1580   -0.5130 C   0  0  0  0  0  0  0  0  0  0  0  0
   -3.4130    3.1620    0.2990 C   0  0  0  0  0  0  0  0  0  0  0  0
   -4.7700    3.3920    0.2410 C   0  0  0  0  0  0  0  0  0  0  0  0
   -5.5690    2.6460   -0.6030 C   0  0  0  0  0  0  0  0  0  0  0  0
   -5.0550    1.6510   -1.4130 C   0  0  0  0  0  0  0  0  0  0  0  0
   -3.6980    1.4150   -1.3590 C   0  0  0  0  0  0  0  0  0  0  0  0
   -1.7440   -0.2980    0.6360 C   0  0  0  0  0  0  0  0  0  0  0  0
   -2.9990   -0.3150    0.6290 O   0  0  0  0  0  0  0  0  0  0  0  0
    0.8580    0.3410   -0.1480 H   0  0  0  0  0  0  0  0  0  0  0  0
   -1.2850    1.4830    1.6120 H   0  0  0  0  0  0  0  0  0  0  0  0
   -1.0870    1.6090   -1.4500 H   0  0  0  0  0  0  0  0  0  0  0  0
   -0.8980    2.9110   -0.2050 H   0  0  0  0  0  0  0  0  0  0  0  0
   -2.7750    3.7290    0.9470 H   0  0  0  0  0  0  0  0  0  0  0  0
   -5.2040    4.1780    0.8750 H   0  0  0  0  0  0  0  0  0  0  0  0
   -6.6350    2.8110   -0.6630 H   0  0  0  0  0  0  0  0  0  0  0  0
   -5.6840    1.0670   -2.0730 H   0  0  0  0  0  0  0  0  0  0  0  0
   -3.2540    0.6330   -1.9870 H   0  0  0  0  0  0  0  0  0  0  0  0
   -1.0940   -1.5640    0.6500 N   0  0  0  0  0  0  0  0  0  0  0  0
   -1.8630   -2.7700    0.6570 C   0  0  1  0  0  0  0  0  0  0  0  0
   -1.6530   -3.5920   -0.6020 C   0  0  0  0  0  0  0  0  0  0  0  0
   -0.2580   -4.0030   -0.8060 C   0  0  0  0  0  0  0  0  0  0  0  0
    0.5710   -3.1600   -1.5280 C   0  0  0  0  0  0  0  0  0  0  0  0
    1.8830   -3.5430   -1.7240 C   0  0  0  0  0  0  0  0  0  0  0  0
    2.3690   -4.7140   -1.2290 C   0  0  0  0  0  0  0  0  0  0  0  0
    1.5340   -5.5400   -0.5150 C   0  0  0  0  0  0  0  0  0  0  0  0
    0.2230   -5.1740   -0.3100 C   0  0  0  0  0  0  0  0  0  0  0  0
   -1.6130   -3.6310    1.8170 C   0  0  0  0  0  0  0  0  0  0  0  0
   -2.2770   -4.7160    1.8780 O   0  0  0  0  0  0  0  0  0  0  0  0
   -0.7330   -3.3730    2.8340 O   0  0  0  0  0  0  0  0  0  0  0  0
   -0.0570   -1.5780    0.6550 H   0  0  0  0  0  0  0  0  0  0  0  0
   -2.9680   -2.5320    0.6630 H   0  0  0  0  0  0  0  0  0  0  0  0
   -2.0420   -3.0090   -1.4850 H   0  0  0  0  0  0  0  0  0  0  0  0
   -2.3010   -4.4930   -0.5510 H   0  0  0  0  0  0  0  0  0  0  0  0
    0.1690   -2.2440   -1.9080 H   0  0  0  0  0  0  0  0  0  0  0  0
    2.5240   -2.8690   -2.2950 H   0  0  0  0  0  0  0  0  0  0  0  0
    3.3930   -5.0270   -1.3740 H   0  0  0  0  0  0  0  0  0  0  0  0
    1.9340   -6.4750   -0.1240 H   0  0  0  0  0  0  0  0  0  0  0  0
   -0.3820   -5.8600    0.2560 H   0  0  0  0  0  0  0  0  0  0  0  0
  1 10  1  0  0  0  0
  2 12  1  6  0  0  0
  2  3  1  0  0  0  0
  2  1  1  0  0  0  0
  3  4  1  0  0  0  0
  3 14  1  0  0  0  0
  4 16  1  0  0  0  0
  4 15  1  0  0  0  0
  5  4  1  0  0  0  0
  6  5  2  0  0  0  0
  7  2  1  0  0  0  0
  7  8  2  0  0  0  0
  9  5  1  0  0  0  0
 11  1  1  0  0  0  0
 13  3  1  0  0  0  0
 17  9  1  0  0  0  0
 18  7  1  0  0  0  0
 19 27  1  0  0  0  0
 19 18  1  0  0  0  0
 19 30  1  1  0  0  0
 20 32  1  0  0  0  0
 20 19  1  0  0  0  0
 21 20  1  0  0  0  0
 21 22  1  0  0  0  0
 22 33  1  0  0  0  0
 23 22  2  0  0  0  0
 23 34  1  0  0  0  0
 24 23  1  0  0  0  0
 25 26  1  0  0  0  0
 25 24  2  0  0  0  0
 26 21  2  0  0  0  0
 27 38  1  0  0  0  0
 28 27  2  0  0  0  0
 29 18  1  0  0  0  0
 31 20  1  0  0  0  0
 35 24  1  0  0  0  0
 36 25  1  0  0  0  0
 37 26  1  0  0  0  0
 38 50  1  0  0  0  0
 38 39  1  0  0  0  0
 39 51  1  1  0  0  0
 39 47  1  0  0  0  0
 40 53  1  0  0  0  0
 40 39  1  0  0  0  0
 41 40  1  0  0  0  0
 41 46  1  0  0  0  0
 42 41  2  0  0  0  0
 43 42  1  0  0  0  0
 43 44  2  0  0  0  0
 44 45  1  0  0  0  0
 45 46  2  0  0  0  0
 45 57  1  0  0  0  0
 46 58  1  0  0  0  0
 47 48  2  0  0  0  0
 47 49  1  0  0  0  0
 52 40  1  0  0  0  0
 54 42  1  0  0  0  0
 55 43  1  0  0  0  0
 56 44  1  0  0  0  0
M  END
$$$$
