EFM.pdb
 OpenBabel07022418203D

 55 55  0  0  1  0  0  0  0  0999 V2000
    3.7160    0.6880    0.8300 N   0  0  0  0  0  0  0  0  0  0  0  0
    3.2400   -0.1700    1.8610 C   0  0  1  0  0  0  0  0  0  0  0  0
    3.1840    0.5860    3.1650 C   0  0  0  0  0  0  0  0  0  0  0  0
    4.5520    1.0810    3.5480 C   0  0  0  0  0  0  0  0  0  0  0  0
    5.1010    1.9990    2.5360 C   0  0  0  0  0  0  0  0  0  0  0  0
    4.4660    3.0340    2.2390 O   0  0  0  0  0  0  0  0  0  0  0  0
    1.8580   -0.6700    1.5600 C   0  0  0  0  0  0  0  0  0  0  0  0
    1.2680   -1.4180    2.3790 O   0  0  0  0  0  0  0  0  0  0  0  0
    6.3060    1.7420    1.9070 O   0  0  0  0  0  0  0  0  0  0  0  0
    3.7780    0.1130   -0.0660 H   0  0  0  0  0  0  0  0  0  0  0  0
    2.9980    1.4200    0.6280 H   0  0  0  0  0  0  0  0  0  0  0  0
    3.9130   -1.0510    1.9220 H   0  0  0  0  0  0  0  0  0  0  0  0
    2.7730   -0.0500    3.9840 H   0  0  0  0  0  0  0  0  0  0  0  0
    2.5250    1.4670    3.1110 H   0  0  0  0  0  0  0  0  0  0  0  0
    4.4190    1.6590    4.5070 H   0  0  0  0  0  0  0  0  0  0  0  0
    5.2280    0.2400    3.7810 H   0  0  0  0  0  0  0  0  0  0  0  0
    6.7490    2.5350    1.4200 H   0  0  0  0  0  0  0  0  0  0  0  0
    1.1610   -0.3440    0.3740 N   0  0  0  0  0  0  0  0  0  0  0  0
   -0.1570   -0.8450    0.1190 C   0  0  1  0  0  0  0  0  0  0  0  0
   -1.1540    0.3090    0.1020 C   0  0  0  0  0  0  0  0  0  0  0  0
   -1.0790    0.9410    1.4490 C   0  0  0  0  0  0  0  0  0  0  0  0
   -0.2170    1.9670    1.7680 C   0  0  0  0  0  0  0  0  0  0  0  0
   -0.1600    2.5390    3.0360 C   0  0  0  0  0  0  0  0  0  0  0  0
   -1.0030    2.0520    3.9970 C   0  0  0  0  0  0  0  0  0  0  0  0
   -1.8840    1.0270    3.7270 C   0  0  0  0  0  0  0  0  0  0  0  0
   -1.9130    0.4840    2.4610 C   0  0  0  0  0  0  0  0  0  0  0  0
   -0.2370   -1.6940   -1.0860 C   0  0  0  0  0  0  0  0  0  0  0  0
    0.7520   -1.9410   -1.8100 O   0  0  0  0  0  0  0  0  0  0  0  0
    1.6400    0.2890   -0.3350 H   0  0  0  0  0  0  0  0  0  0  0  0
   -0.4640   -1.4800    0.9870 H   0  0  0  0  0  0  0  0  0  0  0  0
   -2.1840   -0.0820   -0.0570 H   0  0  0  0  0  0  0  0  0  0  0  0
   -0.8880    1.0750   -0.6580 H   0  0  0  0  0  0  0  0  0  0  0  0
    0.4370    2.3240    0.9770 H   0  0  0  0  0  0  0  0  0  0  0  0
    0.5440    3.3580    3.2510 H   0  0  0  0  0  0  0  0  0  0  0  0
   -1.0010    2.4600    5.0120 H   0  0  0  0  0  0  0  0  0  0  0  0
   -2.5420    0.6540    4.4900 H   0  0  0  0  0  0  0  0  0  0  0  0
   -2.5810   -0.3170    2.2030 H   0  0  0  0  0  0  0  0  0  0  0  0
   -5.2390   -2.7780   -2.1870 C   0  0  0  0  0  0  0  0  0  0  0  0
   -4.7530   -4.5010   -2.2080 S   0  0  0  0  0  0  0  0  0  0  0  0
   -3.1660   -4.8820   -1.5520 C   0  0  0  0  0  0  0  0  0  0  0  0
   -1.9670   -4.5040   -2.3090 C   0  0  0  0  0  0  0  0  0  0  0  0
   -1.6350   -3.1110   -2.6250 C   0  0  2  0  0  0  0  0  0  0  0  0
   -1.4850   -2.2700   -1.4610 N   0  0  0  0  0  0  0  0  0  0  0  0
   -2.4740   -2.4620   -3.6360 C   0  0  0  0  0  0  0  0  0  0  0  0
   -2.8680   -1.2570   -3.5530 O   0  0  0  0  0  0  0  0  0  0  0  0
   -2.8790   -3.1710   -4.7570 O   0  0  0  0  0  0  0  0  0  0  0  0
   -6.2650   -2.6460   -1.7500 H   0  0  0  0  0  0  0  0  0  0  0  0
   -5.3280   -2.4120   -3.2380 H   0  0  0  0  0  0  0  0  0  0  0  0
   -4.5600   -2.1180   -1.6110 H   0  0  0  0  0  0  0  0  0  0  0  0
   -3.1450   -4.4950   -0.4840 H   0  0  0  0  0  0  0  0  0  0  0  0
   -3.0940   -6.0060   -1.3650 H   0  0  0  0  0  0  0  0  0  0  0  0
   -1.0250   -4.9670   -1.8630 H   0  0  0  0  0  0  0  0  0  0  0  0
   -2.0640   -5.0530   -3.3210 H   0  0  0  0  0  0  0  0  0  0  0  0
   -0.5740   -3.1700   -3.1260 H   0  0  0  0  0  0  0  0  0  0  0  0
   -2.3030   -2.0580   -0.8530 H   0  0  0  0  0  0  0  0  0  0  0  0
  1  2  1  0  0  0  0
  2 12  1  1  0  0  0
  2  3  1  0  0  0  0
  3  4  1  0  0  0  0
  3 13  1  0  0  0  0
  4 16  1  0  0  0  0
  4 15  1  0  0  0  0
  5  4  1  0  0  0  0
  6  5  2  0  0  0  0
  7  2  1  0  0  0  0
  7  8  2  0  0  0  0
  9  5  1  0  0  0  0
 10  1  1  0  0  0  0
 11  1  1  0  0  0  0
 14  3  1  0  0  0  0
 17  9  1  0  0  0  0
 18  7  1  0  0  0  0
 19 18  1  0  0  0  0
 19 30  1  1  0  0  0
 20 19  1  0  0  0  0
 20 21  1  0  0  0  0
 21 22  2  0  0  0  0
 21 26  1  0  0  0  0
 22 23  1  0  0  0  0
 23 34  1  0  0  0  0
 23 24  2  0  0  0  0
 24 35  1  0  0  0  0
 25 24  1  0  0  0  0
 25 36  1  0  0  0  0
 26 25  2  0  0  0  0
 27 19  1  0  0  0  0
 28 27  2  0  0  0  0
 29 18  1  0  0  0  0
 31 20  1  0  0  0  0
 32 20  1  0  0  0  0
 33 22  1  0  0  0  0
 37 26  1  0  0  0  0
 38 47  1  0  0  0  0
 38 49  1  0  0  0  0
 39 38  1  0  0  0  0
 39 40  1  0  0  0  0
 40 51  1  0  0  0  0
 40 50  1  0  0  0  0
 41 52  1  0  0  0  0
 41 40  1  0  0  0  0
 42 54  1  6  0  0  0
 42 41  1  0  0  0  0
 42 43  1  0  0  0  0
 43 27  1  0  0  0  0
 43 55  1  0  0  0  0
 44 45  1  0  0  0  0
 44 42  1  0  0  0  0
 46 44  2  0  0  0  0
 48 38  1  0  0  0  0
 53 41  1  0  0  0  0
M  END
$$$$
