EFQ.pdb
 OpenBabel07022418203D

 55 55  0  0  1  0  0  0  0  0999 V2000
    1.8100   -1.9760    0.6910 N   0  0  0  0  0  0  0  0  0  0  0  0
    1.9970   -0.7350    1.4850 C   0  0  1  0  0  0  0  0  0  0  0  0
    3.3290   -0.1550    1.1110 C   0  0  0  0  0  0  0  0  0  0  0  0
    3.6260    1.1100    1.8550 C   0  0  0  0  0  0  0  0  0  0  0  0
    3.6910    0.9570    3.3250 C   0  0  0  0  0  0  0  0  0  0  0  0
    3.5580   -0.1580    3.8840 O   0  0  0  0  0  0  0  0  0  0  0  0
    0.8560    0.1610    1.1650 C   0  0  0  0  0  0  0  0  0  0  0  0
    0.7020    1.2490    1.7310 O   0  0  0  0  0  0  0  0  0  0  0  0
    3.9020    2.0480    4.1690 O   0  0  0  0  0  0  0  0  0  0  0  0
    0.9190   -2.4380    0.9850 H   0  0  0  0  0  0  0  0  0  0  0  0
    2.5870   -2.6540    0.9480 H   0  0  0  0  0  0  0  0  0  0  0  0
    1.9880   -1.0690    2.5270 H   0  0  0  0  0  0  0  0  0  0  0  0
    3.4140    0.0390    0.0210 H   0  0  0  0  0  0  0  0  0  0  0  0
    4.1390   -0.8950    1.3780 H   0  0  0  0  0  0  0  0  0  0  0  0
    2.8990    1.9200    1.6250 H   0  0  0  0  0  0  0  0  0  0  0  0
    4.6680    1.4680    1.5640 H   0  0  0  0  0  0  0  0  0  0  0  0
    4.4200    1.9410    5.0360 H   0  0  0  0  0  0  0  0  0  0  0  0
   -0.1080   -0.2000    0.1910 N   0  0  0  0  0  0  0  0  0  0  0  0
   -1.2300    0.5840   -0.1840 C   0  0  1  0  0  0  0  0  0  0  0  0
   -1.3120    0.9330   -1.6350 C   0  0  0  0  0  0  0  0  0  0  0  0
   -0.1490    1.7120   -2.1290 C   0  0  0  0  0  0  0  0  0  0  0  0
    0.9160    0.9890   -2.6190 C   0  0  0  0  0  0  0  0  0  0  0  0
    2.0260    1.6520   -3.0930 C   0  0  0  0  0  0  0  0  0  0  0  0
    2.1320    3.0250   -3.1040 C   0  0  0  0  0  0  0  0  0  0  0  0
    1.0310    3.7060   -2.5990 C   0  0  0  0  0  0  0  0  0  0  0  0
   -0.0830    3.0720   -2.1230 C   0  0  0  0  0  0  0  0  0  0  0  0
   -2.4630   -0.1780    0.1560 C   0  0  0  0  0  0  0  0  0  0  0  0
   -3.6160    0.2800   -0.0740 O   0  0  0  0  0  0  0  0  0  0  0  0
    0.0240   -1.1230   -0.2880 H   0  0  0  0  0  0  0  0  0  0  0  0
   -1.2680    1.5250    0.3910 H   0  0  0  0  0  0  0  0  0  0  0  0
   -1.5120    0.0700   -2.3010 H   0  0  0  0  0  0  0  0  0  0  0  0
   -2.2000    1.6090   -1.7560 H   0  0  0  0  0  0  0  0  0  0  0  0
    0.8900   -0.1160   -2.6360 H   0  0  0  0  0  0  0  0  0  0  0  0
    2.8670    1.0550   -3.4810 H   0  0  0  0  0  0  0  0  0  0  0  0
    3.0140    3.5510   -3.4810 H   0  0  0  0  0  0  0  0  0  0  0  0
    1.1260    4.8030   -2.6130 H   0  0  0  0  0  0  0  0  0  0  0  0
   -0.8950    3.6660   -1.7480 H   0  0  0  0  0  0  0  0  0  0  0  0
   -0.7680   -5.7360    1.4240 N   0  0  0  0  0  0  0  0  0  0  0  0
   -2.0330   -5.0460    1.4010 C   0  0  0  0  0  0  0  0  0  0  0  0
   -2.6950   -5.1040    2.4410 O   0  0  0  0  0  0  0  0  0  0  0  0
   -2.4400   -4.3560    0.2070 C   0  0  0  0  0  0  0  0  0  0  0  0
   -3.6080   -3.4510    0.2240 C   0  0  0  0  0  0  0  0  0  0  0  0
   -3.5580   -2.2630    1.1120 C   0  0  2  0  0  0  0  0  0  0  0  0
   -2.3930   -1.4610    0.7550 N   0  0  0  0  0  0  0  0  0  0  0  0
   -3.7270   -2.5260    2.5220 C   0  0  0  0  0  0  0  0  0  0  0  0
   -2.8550   -2.1790    3.3540 O   0  0  0  0  0  0  0  0  0  0  0  0
   -4.8610   -3.1670    3.0020 O   0  0  0  0  0  0  0  0  0  0  0  0
   -0.7580   -6.7080    1.0560 H   0  0  0  0  0  0  0  0  0  0  0  0
    0.1020   -5.3050    1.7840 H   0  0  0  0  0  0  0  0  0  0  0  0
   -1.5870   -3.7880   -0.2780 H   0  0  0  0  0  0  0  0  0  0  0  0
   -2.6710   -5.1340   -0.6040 H   0  0  0  0  0  0  0  0  0  0  0  0
   -3.7730   -3.1210   -0.8460 H   0  0  0  0  0  0  0  0  0  0  0  0
   -4.5350   -4.0650    0.4450 H   0  0  0  0  0  0  0  0  0  0  0  0
   -4.4450   -1.6070    0.7770 H   0  0  0  0  0  0  0  0  0  0  0  0
   -1.4670   -1.8850    0.9660 H   0  0  0  0  0  0  0  0  0  0  0  0
  1 11  1  0  0  0  0
  1 10  1  0  0  0  0
  1  2  1  0  0  0  0
  2 12  1  1  0  0  0
  3 14  1  0  0  0  0
  3  2  1  0  0  0  0
  3  4  1  0  0  0  0
  4  5  1  0  0  0  0
  5  6  2  0  0  0  0
  5  9  1  0  0  0  0
  7  2  1  0  0  0  0
  7  8  2  0  0  0  0
  9 17  1  0  0  0  0
 13  3  1  0  0  0  0
 15  4  1  0  0  0  0
 16  4  1  0  0  0  0
 18  7  1  0  0  0  0
 19 27  1  0  0  0  0
 19 18  1  0  0  0  0
 19 30  1  1  0  0  0
 20 19  1  0  0  0  0
 21 26  1  0  0  0  0
 21 20  1  0  0  0  0
 22 21  2  0  0  0  0
 23 22  1  0  0  0  0
 24 23  2  0  0  0  0
 24 25  1  0  0  0  0
 25 26  2  0  0  0  0
 26 37  1  0  0  0  0
 27 44  1  0  0  0  0
 28 27  2  0  0  0  0
 29 18  1  0  0  0  0
 31 20  1  0  0  0  0
 32 20  1  0  0  0  0
 33 22  1  0  0  0  0
 34 23  1  0  0  0  0
 35 24  1  0  0  0  0
 36 25  1  0  0  0  0
 38 49  1  0  0  0  0
 39 38  1  0  0  0  0
 39 40  2  0  0  0  0
 41 42  1  0  0  0  0
 41 39  1  0  0  0  0
 42 53  1  0  0  0  0
 42 43  1  0  0  0  0
 43 54  1  6  0  0  0
 43 45  1  0  0  0  0
 44 55  1  0  0  0  0
 44 43  1  0  0  0  0
 45 47  2  0  0  0  0
 45 46  1  0  0  0  0
 48 38  1  0  0  0  0
 50 41  1  0  0  0  0
 51 41  1  0  0  0  0
 52 42  1  0  0  0  0
M  END
$$$$
