EFS.pdb
 OpenBabel07022418203D

 49 49  0  0  1  0  0  0  0  0999 V2000
    3.6210   -3.1170   -0.1740 N   0  0  0  0  0  0  0  0  0  0  0  0
    2.9110   -2.4520    0.8910 C   0  0  1  0  0  0  0  0  0  0  0  0
    3.7750   -1.2550    1.2930 C   0  0  0  0  0  0  0  0  0  0  0  0
    3.9720   -0.3390    0.0990 C   0  0  0  0  0  0  0  0  0  0  0  0
    4.7980    0.8200    0.4910 C   0  0  0  0  0  0  0  0  0  0  0  0
    5.2440    0.9670    1.6680 O   0  0  0  0  0  0  0  0  0  0  0  0
    1.5530   -2.0140    0.4360 C   0  0  0  0  0  0  0  0  0  0  0  0
    1.2340   -2.1270   -0.7650 O   0  0  0  0  0  0  0  0  0  0  0  0
    5.1240    1.8060   -0.4190 O   0  0  0  0  0  0  0  0  0  0  0  0
    3.1840   -4.0210   -0.4310 H   0  0  0  0  0  0  0  0  0  0  0  0
    4.5840   -3.3190    0.1880 H   0  0  0  0  0  0  0  0  0  0  0  0
    2.7870   -3.0700    1.7940 H   0  0  0  0  0  0  0  0  0  0  0  0
    4.7640   -1.6750    1.5470 H   0  0  0  0  0  0  0  0  0  0  0  0
    3.3750   -0.7400    2.1730 H   0  0  0  0  0  0  0  0  0  0  0  0
    4.5540   -0.9470   -0.6470 H   0  0  0  0  0  0  0  0  0  0  0  0
    3.0410    0.0030   -0.3640 H   0  0  0  0  0  0  0  0  0  0  0  0
    5.9260    2.4220   -0.2700 H   0  0  0  0  0  0  0  0  0  0  0  0
    0.6370   -1.4770    1.3590 N   0  0  0  0  0  0  0  0  0  0  0  0
   -0.6870   -1.0330    1.1010 C   0  0  1  0  0  0  0  0  0  0  0  0
   -0.7940    0.4230    0.7340 C   0  0  0  0  0  0  0  0  0  0  0  0
   -0.2950    1.3080    1.8090 C   0  0  0  0  0  0  0  0  0  0  0  0
   -1.1690    1.7350    2.7700 C   0  0  0  0  0  0  0  0  0  0  0  0
   -0.6820    2.5720    3.7760 C   0  0  0  0  0  0  0  0  0  0  0  0
    0.6380    2.9470    3.7870 C   0  0  0  0  0  0  0  0  0  0  0  0
    1.5080    2.5130    2.8150 C   0  0  0  0  0  0  0  0  0  0  0  0
    1.0220    1.6820    1.8170 C   0  0  0  0  0  0  0  0  0  0  0  0
   -1.4780   -1.8290    0.1470 C   0  0  0  0  0  0  0  0  0  0  0  0
   -1.0590   -2.8860   -0.3880 O   0  0  0  0  0  0  0  0  0  0  0  0
    1.0350   -1.4150    2.3640 H   0  0  0  0  0  0  0  0  0  0  0  0
   -1.2100   -1.1010    2.1280 H   0  0  0  0  0  0  0  0  0  0  0  0
   -0.1620    0.6390   -0.1710 H   0  0  0  0  0  0  0  0  0  0  0  0
   -1.8080    0.7320    0.4490 H   0  0  0  0  0  0  0  0  0  0  0  0
   -2.2150    1.4660    2.8030 H   0  0  0  0  0  0  0  0  0  0  0  0
   -1.3390    2.9280    4.5500 H   0  0  0  0  0  0  0  0  0  0  0  0
    1.0370    3.5960    4.5590 H   0  0  0  0  0  0  0  0  0  0  0  0
    2.5450    2.7890    2.7960 H   0  0  0  0  0  0  0  0  0  0  0  0
    1.6820    1.3330    1.0500 H   0  0  0  0  0  0  0  0  0  0  0  0
   -5.6840   -3.4020   -1.2660 O   0  0  0  0  0  0  0  0  0  0  0  0
   -4.8620   -2.6370   -0.4630 C   0  0  0  0  0  0  0  0  0  0  0  0
   -3.5670   -2.2570   -1.1950 C   0  0  2  0  0  0  0  0  0  0  0  0
   -2.8010   -1.4660   -0.2540 N   0  0  0  0  0  0  0  0  0  0  0  0
   -3.9890   -1.4510   -2.3730 C   0  0  0  0  0  0  0  0  0  0  0  0
   -3.6940   -0.2340   -2.4950 O   0  0  0  0  0  0  0  0  0  0  0  0
   -4.7340   -2.0440   -3.3820 O   0  0  0  0  0  0  0  0  0  0  0  0
   -6.3200   -2.8130   -1.7420 H   0  0  0  0  0  0  0  0  0  0  0  0
   -5.3830   -1.6890   -0.2180 H   0  0  0  0  0  0  0  0  0  0  0  0
   -4.5980   -3.1250    0.4840 H   0  0  0  0  0  0  0  0  0  0  0  0
   -3.0340   -3.1370   -1.5520 H   0  0  0  0  0  0  0  0  0  0  0  0
   -3.2260   -0.6140    0.1460 H   0  0  0  0  0  0  0  0  0  0  0  0
  1 11  1  0  0  0  0
  1  2  1  0  0  0  0
  2  3  1  0  0  0  0
  2 12  1  1  0  0  0
  3 13  1  0  0  0  0
  3 14  1  0  0  0  0
  4  5  1  0  0  0  0
  4  3  1  0  0  0  0
  5  6  2  0  0  0  0
  7  2  1  0  0  0  0
  7 18  1  0  0  0  0
  8  7  2  0  0  0  0
  9 17  1  0  0  0  0
  9  5  1  0  0  0  0
 10  1  1  0  0  0  0
 15  4  1  0  0  0  0
 16  4  1  0  0  0  0
 18 29  1  0  0  0  0
 19 18  1  0  0  0  0
 19 30  1  1  0  0  0
 20 19  1  0  0  0  0
 20 21  1  0  0  0  0
 21 26  2  0  0  0  0
 21 22  1  0  0  0  0
 22 33  1  0  0  0  0
 22 23  2  0  0  0  0
 23 24  1  0  0  0  0
 23 34  1  0  0  0  0
 24 35  1  0  0  0  0
 25 24  2  0  0  0  0
 26 25  1  0  0  0  0
 27 19  1  0  0  0  0
 28 27  2  0  0  0  0
 31 20  1  0  0  0  0
 32 20  1  0  0  0  0
 36 25  1  0  0  0  0
 37 26  1  0  0  0  0
 38 39  1  0  0  0  0
 39 46  1  0  0  0  0
 39 47  1  0  0  0  0
 40 48  1  6  0  0  0
 40 39  1  0  0  0  0
 40 41  1  0  0  0  0
 41 49  1  0  0  0  0
 41 27  1  0  0  0  0
 42 40  1  0  0  0  0
 43 42  1  0  0  0  0
 44 42  2  0  0  0  0
 45 38  1  0  0  0  0
M  END
$$$$
