EFV.pdb
 OpenBabel07022418203D

 54 54  0  0  1  0  0  0  0  0999 V2000
    2.7390    0.1660   -1.4290 N   0  0  0  0  0  0  0  0  0  0  0  0
    3.0060   -0.7080   -0.3250 C   0  0  1  0  0  0  0  0  0  0  0  0
    4.0960   -0.1770    0.5820 C   0  0  0  0  0  0  0  0  0  0  0  0
    5.3540   -0.0360   -0.2530 C   0  0  0  0  0  0  0  0  0  0  0  0
    6.4280    0.4820    0.6330 C   0  0  0  0  0  0  0  0  0  0  0  0
    6.2310    0.7260    1.8340 O   0  0  0  0  0  0  0  0  0  0  0  0
    1.7920   -1.0840    0.4390 C   0  0  0  0  0  0  0  0  0  0  0  0
    1.9590   -1.8700    1.4130 O   0  0  0  0  0  0  0  0  0  0  0  0
    7.6790    0.6890    0.0710 O   0  0  0  0  0  0  0  0  0  0  0  0
    3.5610    0.1320   -2.1050 H   0  0  0  0  0  0  0  0  0  0  0  0
    1.9580   -0.2570   -1.9890 H   0  0  0  0  0  0  0  0  0  0  0  0
    3.4110   -1.6640   -0.7580 H   0  0  0  0  0  0  0  0  0  0  0  0
    3.8210    0.7540    1.0800 H   0  0  0  0  0  0  0  0  0  0  0  0
    4.3330   -0.9130    1.3770 H   0  0  0  0  0  0  0  0  0  0  0  0
    5.2010    0.7250   -1.0690 H   0  0  0  0  0  0  0  0  0  0  0  0
    5.6350   -0.9850   -0.7340 H   0  0  0  0  0  0  0  0  0  0  0  0
    8.5120    0.6310    0.6540 H   0  0  0  0  0  0  0  0  0  0  0  0
    0.4960   -0.6110    0.1280 N   0  0  0  0  0  0  0  0  0  0  0  0
   -0.6570   -1.0080    0.9040 C   0  0  1  0  0  0  0  0  0  0  0  0
   -1.3600    0.1970    1.4800 C   0  0  0  0  0  0  0  0  0  0  0  0
   -0.5100    1.0010    2.3690 C   0  0  0  0  0  0  0  0  0  0  0  0
   -0.4170    0.7850    3.7240 C   0  0  0  0  0  0  0  0  0  0  0  0
    0.3840    1.5460    4.5480 C   0  0  0  0  0  0  0  0  0  0  0  0
    1.1350    2.5730    4.0250 C   0  0  0  0  0  0  0  0  0  0  0  0
    1.0610    2.8120    2.6750 C   0  0  0  0  0  0  0  0  0  0  0  0
    0.2440    2.0300    1.8530 C   0  0  0  0  0  0  0  0  0  0  0  0
   -1.6510   -1.7420    0.0790 C   0  0  0  0  0  0  0  0  0  0  0  0
   -1.3810   -1.9180   -1.1330 O   0  0  0  0  0  0  0  0  0  0  0  0
    0.4270    0.0420   -0.6940 H   0  0  0  0  0  0  0  0  0  0  0  0
   -0.3150   -1.6920    1.7050 H   0  0  0  0  0  0  0  0  0  0  0  0
   -2.2040   -0.2160    2.1080 H   0  0  0  0  0  0  0  0  0  0  0  0
   -1.8660    0.7840    0.6860 H   0  0  0  0  0  0  0  0  0  0  0  0
   -0.9950   -0.0220    4.1920 H   0  0  0  0  0  0  0  0  0  0  0  0
    0.4400    1.3540    5.6190 H   0  0  0  0  0  0  0  0  0  0  0  0
    1.7820    3.1960    4.6600 H   0  0  0  0  0  0  0  0  0  0  0  0
    1.6460    3.6160    2.2480 H   0  0  0  0  0  0  0  0  0  0  0  0
    0.2180    2.2510    0.8090 H   0  0  0  0  0  0  0  0  0  0  0  0
   -5.1390   -0.8900   -0.4790 C   0  0  0  0  0  0  0  0  0  0  0  0
   -4.4340   -2.0130   -1.2100 C   0  0  0  0  0  0  0  0  0  0  0  0
   -5.4040   -2.6310   -2.1580 C   0  0  0  0  0  0  0  0  0  0  0  0
   -3.8240   -2.9580   -0.2330 C   0  0  2  0  0  0  0  0  0  0  0  0
   -2.8650   -2.2420    0.5840 N   0  0  0  0  0  0  0  0  0  0  0  0
   -3.1820   -4.1280   -0.8220 C   0  0  0  0  0  0  0  0  0  0  0  0
   -3.7600   -4.9390   -1.6070 O   0  0  0  0  0  0  0  0  0  0  0  0
   -1.8590   -4.4060   -0.5300 O   0  0  0  0  0  0  0  0  0  0  0  0
   -6.1040   -1.3000   -0.0950 H   0  0  0  0  0  0  0  0  0  0  0  0
   -4.4890   -0.5260    0.3400 H   0  0  0  0  0  0  0  0  0  0  0  0
   -5.3440   -0.0930   -1.2320 H   0  0  0  0  0  0  0  0  0  0  0  0
   -3.6340   -1.5250   -1.8220 H   0  0  0  0  0  0  0  0  0  0  0  0
   -5.9630   -1.7830   -2.6540 H   0  0  0  0  0  0  0  0  0  0  0  0
   -4.9430   -3.1970   -2.9790 H   0  0  0  0  0  0  0  0  0  0  0  0
   -6.2000   -3.2120   -1.6310 H   0  0  0  0  0  0  0  0  0  0  0  0
   -4.6400   -3.3380    0.4500 H   0  0  0  0  0  0  0  0  0  0  0  0
   -3.0800   -2.0810    1.6170 H   0  0  0  0  0  0  0  0  0  0  0  0
  1  2  1  0  0  0  0
  2 12  1  6  0  0  0
  2  7  1  0  0  0  0
  2  3  1  0  0  0  0
  3 13  1  0  0  0  0
  3 14  1  0  0  0  0
  4  3  1  0  0  0  0
  4  5  1  0  0  0  0
  5  6  2  0  0  0  0
  7  8  2  0  0  0  0
  9  5  1  0  0  0  0
  9 17  1  0  0  0  0
 10  1  1  0  0  0  0
 11  1  1  0  0  0  0
 15  4  1  0  0  0  0
 16  4  1  0  0  0  0
 18  7  1  0  0  0  0
 18 19  1  0  0  0  0
 19 20  1  0  0  0  0
 19 30  1  1  0  0  0
 20 31  1  0  0  0  0
 20 21  1  0  0  0  0
 21 22  1  0  0  0  0
 22 33  1  0  0  0  0
 22 23  2  0  0  0  0
 23 34  1  0  0  0  0
 24 23  1  0  0  0  0
 24 35  1  0  0  0  0
 25 24  2  0  0  0  0
 26 21  2  0  0  0  0
 26 25  1  0  0  0  0
 27 42  1  0  0  0  0
 27 19  1  0  0  0  0
 28 27  2  0  0  0  0
 29 18  1  0  0  0  0
 32 20  1  0  0  0  0
 36 25  1  0  0  0  0
 37 26  1  0  0  0  0
 38 46  1  0  0  0  0
 38 47  1  0  0  0  0
 39 38  1  0  0  0  0
 39 41  1  0  0  0  0
 40 52  1  0  0  0  0
 40 39  1  0  0  0  0
 41 53  1  1  0  0  0
 41 42  1  0  0  0  0
 42 54  1  0  0  0  0
 43 45  1  0  0  0  0
 43 41  1  0  0  0  0
 44 43  2  0  0  0  0
 48 38  1  0  0  0  0
 49 39  1  0  0  0  0
 50 40  1  0  0  0  0
 51 40  1  0  0  0  0
M  END
$$$$
