EGA.pdb
 OpenBabel07022418183D

 35 34  0  0  1  0  0  0  0  0999 V2000
   -0.0000   -3.1790    1.3790 N   0  0  0  0  0  0  0  0  0  0  0  0
    1.3770   -2.8850    1.8000 C   0  0  1  0  0  0  0  0  0  0  0  0
    2.2640   -3.7820    1.0430 C   0  0  0  0  0  0  0  0  0  0  0  0
    2.2620   -3.7740   -0.4230 C   0  0  0  0  0  0  0  0  0  0  0  0
    2.6620   -2.5230   -1.0340 C   0  0  0  0  0  0  0  0  0  0  0  0
    3.0740   -1.5620   -0.3630 O   0  0  0  0  0  0  0  0  0  0  0  0
    1.6860   -1.4910    1.9670 C   0  0  0  0  0  0  0  0  0  0  0  0
    2.7430   -1.1070    2.5450 O   0  0  0  0  0  0  0  0  0  0  0  0
    2.6120   -2.3100   -2.4260 O   0  0  0  0  0  0  0  0  0  0  0  0
   -0.0840   -4.2330    1.4580 H   0  0  0  0  0  0  0  0  0  0  0  0
   -0.6080   -2.8030    2.1450 H   0  0  0  0  0  0  0  0  0  0  0  0
    1.3690   -3.3330    2.8730 H   0  0  0  0  0  0  0  0  0  0  0  0
    1.9770   -4.8440    1.3570 H   0  0  0  0  0  0  0  0  0  0  0  0
    3.3480   -3.7060    1.3740 H   0  0  0  0  0  0  0  0  0  0  0  0
    3.0360   -4.5520   -0.7450 H   0  0  0  0  0  0  0  0  0  0  0  0
    1.3240   -4.2010   -0.8760 H   0  0  0  0  0  0  0  0  0  0  0  0
    2.4200   -1.3660   -2.7280 H   0  0  0  0  0  0  0  0  0  0  0  0
    0.8390   -0.4080    1.5010 N   0  0  0  0  0  0  0  0  0  0  0  0
    1.1960    0.9580    1.6950 C   0  0  0  0  0  0  0  0  0  0  0  0
    0.1930    1.8760    1.1420 C   0  0  0  0  0  0  0  0  0  0  0  0
    0.4020    3.1560    1.2570 O   0  0  0  0  0  0  0  0  0  0  0  0
   -0.0200   -0.6900    1.0300 H   0  0  0  0  0  0  0  0  0  0  0  0
    1.3060    1.2170    2.7860 H   0  0  0  0  0  0  0  0  0  0  0  0
    2.1840    1.2100    1.2220 H   0  0  0  0  0  0  0  0  0  0  0  0
   -2.0160    2.4950   -1.5390 C   0  0  0  0  0  0  0  0  0  0  0  0
   -1.9270    2.5640   -0.0280 C   0  0  2  0  0  0  0  0  0  0  0  0
   -1.0060    1.5330    0.4790 N   0  0  0  0  0  0  0  0  0  0  0  0
   -3.2480    2.4530    0.6110 C   0  0  0  0  0  0  0  0  0  0  0  0
   -4.1750    3.2470    0.3140 O   0  0  0  0  0  0  0  0  0  0  0  0
   -3.5780    1.4860    1.5730 O   0  0  0  0  0  0  0  0  0  0  0  0
   -3.0290    2.9050   -1.8060 H   0  0  0  0  0  0  0  0  0  0  0  0
   -2.0150    1.4330   -1.8650 H   0  0  0  0  0  0  0  0  0  0  0  0
   -1.1960    3.0890   -1.9620 H   0  0  0  0  0  0  0  0  0  0  0  0
   -1.4780    3.5390    0.2280 H   0  0  0  0  0  0  0  0  0  0  0  0
   -1.2360    0.5270    0.3510 H   0  0  0  0  0  0  0  0  0  0  0  0
  1 10  1  0  0  0  0
  1  2  1  0  0  0  0
  1 11  1  0  0  0  0
  2  7  1  0  0  0  0
  2 12  1  1  0  0  0
  3 13  1  0  0  0  0
  3 14  1  0  0  0  0
  3  2  1  0  0  0  0
  4  3  1  0  0  0  0
  5  4  1  0  0  0  0
  5  6  2  0  0  0  0
  7  8  2  0  0  0  0
  9  5  1  0  0  0  0
 15  4  1  0  0  0  0
 16  4  1  0  0  0  0
 17  9  1  0  0  0  0
 18 19  1  0  0  0  0
 18  7  1  0  0  0  0
 19 23  1  0  0  0  0
 20 21  2  0  0  0  0
 20 19  1  0  0  0  0
 22 18  1  0  0  0  0
 24 19  1  0  0  0  0
 25 26  1  0  0  0  0
 26 34  1  1  0  0  0
 26 27  1  0  0  0  0
 26 28  1  0  0  0  0
 27 20  1  0  0  0  0
 28 30  1  0  0  0  0
 29 28  2  0  0  0  0
 31 25  1  0  0  0  0
 32 25  1  0  0  0  0
 33 25  1  0  0  0  0
 35 27  1  0  0  0  0
M  END
$$$$
