EGC.pdb
 OpenBabel07022418183D

 36 35  0  0  1  0  0  0  0  0999 V2000
   -0.4630   -3.1890    2.5330 N   0  0  0  0  0  0  0  0  0  0  0  0
    0.7570   -2.4900    2.0350 C   0  0  1  0  0  0  0  0  0  0  0  0
    1.7760   -3.5680    1.9090 C   0  0  0  0  0  0  0  0  0  0  0  0
    3.1290   -3.1640    1.4330 C   0  0  0  0  0  0  0  0  0  0  0  0
    3.8180   -2.1940    2.3000 C   0  0  0  0  0  0  0  0  0  0  0  0
    3.2850   -1.7770    3.3480 O   0  0  0  0  0  0  0  0  0  0  0  0
    0.3380   -1.8590    0.7730 C   0  0  0  0  0  0  0  0  0  0  0  0
   -0.7990   -2.0910    0.2290 O   0  0  0  0  0  0  0  0  0  0  0  0
    5.0820   -1.6860    2.0160 O   0  0  0  0  0  0  0  0  0  0  0  0
   -0.1570   -3.7920    3.3480 H   0  0  0  0  0  0  0  0  0  0  0  0
   -0.7520   -3.7860    1.7270 H   0  0  0  0  0  0  0  0  0  0  0  0
    1.0270   -1.8120    2.8390 H   0  0  0  0  0  0  0  0  0  0  0  0
    1.9240   -3.9860    2.9500 H   0  0  0  0  0  0  0  0  0  0  0  0
    1.3860   -4.3890    1.2720 H   0  0  0  0  0  0  0  0  0  0  0  0
    3.1370   -2.8850    0.3560 H   0  0  0  0  0  0  0  0  0  0  0  0
    3.7610   -4.1040    1.4640 H   0  0  0  0  0  0  0  0  0  0  0  0
    5.3100   -0.7520    2.3670 H   0  0  0  0  0  0  0  0  0  0  0  0
    1.1750   -0.9530    0.0850 N   0  0  0  0  0  0  0  0  0  0  0  0
    0.8420   -0.2970   -1.1350 C   0  0  0  0  0  0  0  0  0  0  0  0
   -0.3160    0.6050   -1.0910 C   0  0  0  0  0  0  0  0  0  0  0  0
   -0.6210    1.1590   -2.2030 O   0  0  0  0  0  0  0  0  0  0  0  0
    2.1010   -0.7580    0.5270 H   0  0  0  0  0  0  0  0  0  0  0  0
    1.7220    0.3010   -1.4710 H   0  0  0  0  0  0  0  0  0  0  0  0
    0.6420   -1.0680   -1.9150 H   0  0  0  0  0  0  0  0  0  0  0  0
   -1.1110    0.9260    0.0110 N   0  0  0  0  0  0  0  0  0  0  0  0
   -2.2400    1.8200   -0.0430 C   0  0  1  0  0  0  0  0  0  0  0  0
   -1.8710    3.2630   -0.2590 C   0  0  0  0  0  0  0  0  0  0  0  0
   -0.8130    3.9100    1.0460 S   0  0  0  0  0  0  0  0  0  0  0  0
   -3.2100    1.4450   -1.1300 C   0  0  0  0  0  0  0  0  0  0  0  0
   -4.2340    2.1500   -1.3420 O   0  0  0  0  0  0  0  0  0  0  0  0
   -3.0550    0.3410   -1.9460 O   0  0  0  0  0  0  0  0  0  0  0  0
   -0.8530    0.4900    0.9360 H   0  0  0  0  0  0  0  0  0  0  0  0
   -2.8330    1.7620    0.9060 H   0  0  0  0  0  0  0  0  0  0  0  0
   -2.8020    3.8580   -0.2630 H   0  0  0  0  0  0  0  0  0  0  0  0
   -1.4160    3.3870   -1.2650 H   0  0  0  0  0  0  0  0  0  0  0  0
   -0.6100    2.8790    1.9880 H   0  0  0  0  0  0  0  0  0  0  0  0
  1 10  1  0  0  0  0
  2  1  1  0  0  0  0
  2 12  1  1  0  0  0
  3  2  1  0  0  0  0
  3 13  1  0  0  0  0
  4 16  1  0  0  0  0
  4  3  1  0  0  0  0
  4  5  1  0  0  0  0
  5  6  2  0  0  0  0
  7  2  1  0  0  0  0
  8  7  2  0  0  0  0
  9  5  1  0  0  0  0
  9 17  1  0  0  0  0
 11  1  1  0  0  0  0
 14  3  1  0  0  0  0
 15  4  1  0  0  0  0
 18 22  1  0  0  0  0
 18  7  1  0  0  0  0
 19 20  1  0  0  0  0
 19 18  1  0  0  0  0
 20 25  1  0  0  0  0
 21 20  2  0  0  0  0
 23 19  1  0  0  0  0
 24 19  1  0  0  0  0
 25 32  1  0  0  0  0
 26 25  1  0  0  0  0
 26 33  1  1  0  0  0
 27 26  1  0  0  0  0
 27 28  1  0  0  0  0
 28 36  1  0  0  0  0
 29 26  1  0  0  0  0
 30 29  1  0  0  0  0
 31 29  2  0  0  0  0
 34 27  1  0  0  0  0
 35 27  1  0  0  0  0
M  END
$$$$
