EGE.pdb
 OpenBabel07022418183D

 41 40  0  0  1  0  0  0  0  0999 V2000
   -0.3320   -3.4780   -1.6910 N   0  0  0  0  0  0  0  0  0  0  0  0
   -0.3140   -3.2790   -0.2710 C   0  0  1  0  0  0  0  0  0  0  0  0
    1.0450   -3.2720    0.3310 C   0  0  0  0  0  0  0  0  0  0  0  0
    1.9890   -2.2440   -0.1620 C   0  0  0  0  0  0  0  0  0  0  0  0
    3.2850   -2.4210    0.5810 C   0  0  0  0  0  0  0  0  0  0  0  0
    3.4410   -3.3080    1.4440 O   0  0  0  0  0  0  0  0  0  0  0  0
   -1.2100   -2.1800    0.1850 C   0  0  0  0  0  0  0  0  0  0  0  0
   -1.3400   -1.8920    1.4020 O   0  0  0  0  0  0  0  0  0  0  0  0
    4.3220   -1.5570    0.2770 O   0  0  0  0  0  0  0  0  0  0  0  0
    0.5110   -4.0530   -1.9350 H   0  0  0  0  0  0  0  0  0  0  0  0
   -1.2040   -3.8670   -2.0580 H   0  0  0  0  0  0  0  0  0  0  0  0
   -0.8050   -4.2160    0.1470 H   0  0  0  0  0  0  0  0  0  0  0  0
    0.9350   -3.2670    1.4340 H   0  0  0  0  0  0  0  0  0  0  0  0
    1.4950   -4.2830    0.1010 H   0  0  0  0  0  0  0  0  0  0  0  0
    1.6890   -1.2090   -0.1300 H   0  0  0  0  0  0  0  0  0  0  0  0
    2.2710   -2.4520   -1.2360 H   0  0  0  0  0  0  0  0  0  0  0  0
    5.2210   -1.5920    0.7430 H   0  0  0  0  0  0  0  0  0  0  0  0
   -1.9040   -1.4820   -0.8330 N   0  0  0  0  0  0  0  0  0  0  0  0
   -2.7870   -0.4150   -0.5090 C   0  0  0  0  0  0  0  0  0  0  0  0
   -2.2090    0.7530    0.1580 C   0  0  0  0  0  0  0  0  0  0  0  0
   -2.9950    1.7120    0.4760 O   0  0  0  0  0  0  0  0  0  0  0  0
   -1.7890   -1.7290   -1.8630 H   0  0  0  0  0  0  0  0  0  0  0  0
   -3.3260   -0.0150   -1.4230 H   0  0  0  0  0  0  0  0  0  0  0  0
   -3.6430   -0.8240    0.1190 H   0  0  0  0  0  0  0  0  0  0  0  0
   -0.8530    0.9600    0.5030 N   0  0  0  0  0  0  0  0  0  0  0  0
   -0.3920    2.1650    1.1690 C   0  0  1  0  0  0  0  0  0  0  0  0
    0.1350    1.7940    2.5200 C   0  0  0  0  0  0  0  0  0  0  0  0
    1.2700    0.8350    2.3920 C   0  0  0  0  0  0  0  0  0  0  0  0
    1.7340    0.5300    3.7930 C   0  0  0  0  0  0  0  0  0  0  0  0
    1.2010    1.0370    4.8090 O   0  0  0  0  0  0  0  0  0  0  0  0
    0.6420    2.8700    0.4110 C   0  0  0  0  0  0  0  0  0  0  0  0
    1.1480    3.9330    0.8490 O   0  0  0  0  0  0  0  0  0  0  0  0
    2.7830   -0.3410    3.9290 O   0  0  0  0  0  0  0  0  0  0  0  0
    1.0980    2.3950   -0.8090 O   0  0  0  0  0  0  0  0  0  0  0  0
   -0.1690    0.2330    0.2610 H   0  0  0  0  0  0  0  0  0  0  0  0
   -1.2790    2.8570    1.2490 H   0  0  0  0  0  0  0  0  0  0  0  0
    0.5680    2.7380    2.9580 H   0  0  0  0  0  0  0  0  0  0  0  0
   -0.6420    1.4690    3.2250 H   0  0  0  0  0  0  0  0  0  0  0  0
    0.9920   -0.1140    1.8730 H   0  0  0  0  0  0  0  0  0  0  0  0
    2.1440    1.2650    1.8690 H   0  0  0  0  0  0  0  0  0  0  0  0
    3.1270   -0.5420    4.8560 H   0  0  0  0  0  0  0  0  0  0  0  0
  1  2  1  0  0  0  0
  2 12  1  1  0  0  0
  2  7  1  0  0  0  0
  2  3  1  0  0  0  0
  3 13  1  0  0  0  0
  4 15  1  0  0  0  0
  4  3  1  0  0  0  0
  4  5  1  0  0  0  0
  5  6  2  0  0  0  0
  7  8  2  0  0  0  0
  9  5  1  0  0  0  0
  9 17  1  0  0  0  0
 10  1  1  0  0  0  0
 11  1  1  0  0  0  0
 14  3  1  0  0  0  0
 16  4  1  0  0  0  0
 18 19  1  0  0  0  0
 18  7  1  0  0  0  0
 19 24  1  0  0  0  0
 19 20  1  0  0  0  0
 20 21  2  0  0  0  0
 20 25  1  0  0  0  0
 22 18  1  0  0  0  0
 23 19  1  0  0  0  0
 25 26  1  0  0  0  0
 26 36  1  1  0  0  0
 26 27  1  0  0  0  0
 27 37  1  0  0  0  0
 27 38  1  0  0  0  0
 28 27  1  0  0  0  0
 28 29  1  0  0  0  0
 29 33  1  0  0  0  0
 29 30  2  0  0  0  0
 31 32  1  0  0  0  0
 31 26  1  0  0  0  0
 33 41  1  0  0  0  0
 34 31  2  0  0  0  0
 35 25  1  0  0  0  0
 39 28  1  0  0  0  0
 40 28  1  0  0  0  0
M  END
$$$$
