EGI.pdb
 OpenBabel07022418183D

 44 43  0  0  1  0  0  0  0  0999 V2000
    1.2460   -3.6260   -1.5630 N   0  0  0  0  0  0  0  0  0  0  0  0
   -0.0720   -3.5570   -1.0360 C   0  0  1  0  0  0  0  0  0  0  0  0
   -0.3030   -4.0840    0.3230 C   0  0  0  0  0  0  0  0  0  0  0  0
    0.4220   -3.5200    1.4660 C   0  0  0  0  0  0  0  0  0  0  0  0
    1.8650   -3.5980    1.5070 C   0  0  0  0  0  0  0  0  0  0  0  0
    2.5740   -4.1660    0.6490 O   0  0  0  0  0  0  0  0  0  0  0  0
   -0.7580   -2.2480   -1.2440 C   0  0  0  0  0  0  0  0  0  0  0  0
   -1.8670   -2.0990   -0.6730 O   0  0  0  0  0  0  0  0  0  0  0  0
    2.5380   -3.0060    2.5710 O   0  0  0  0  0  0  0  0  0  0  0  0
    1.7820   -2.7190   -1.5170 H   0  0  0  0  0  0  0  0  0  0  0  0
    1.2820   -3.9100   -2.5540 H   0  0  0  0  0  0  0  0  0  0  0  0
   -0.6790   -4.2440   -1.7500 H   0  0  0  0  0  0  0  0  0  0  0  0
   -1.4100   -3.9660    0.5470 H   0  0  0  0  0  0  0  0  0  0  0  0
   -0.2050   -5.2140    0.2810 H   0  0  0  0  0  0  0  0  0  0  0  0
    0.0050   -4.0320    2.3960 H   0  0  0  0  0  0  0  0  0  0  0  0
    0.1410   -2.4430    1.6620 H   0  0  0  0  0  0  0  0  0  0  0  0
    3.5560   -3.0270    2.6450 H   0  0  0  0  0  0  0  0  0  0  0  0
   -0.2260   -1.1970   -2.0400 N   0  0  0  0  0  0  0  0  0  0  0  0
   -0.9650    0.0230   -2.1790 C   0  0  0  0  0  0  0  0  0  0  0  0
   -1.0940    0.7200   -0.8750 C   0  0  0  0  0  0  0  0  0  0  0  0
   -1.7960    1.7930   -0.8290 O   0  0  0  0  0  0  0  0  0  0  0  0
    0.7160   -1.3400   -2.5230 H   0  0  0  0  0  0  0  0  0  0  0  0
   -2.0060   -0.2430   -2.4860 H   0  0  0  0  0  0  0  0  0  0  0  0
   -0.4900    0.6860   -2.9350 H   0  0  0  0  0  0  0  0  0  0  0  0
    2.2920    2.5690    3.4710 C   0  0  0  0  0  0  0  0  0  0  0  0
    0.8090    2.1720    3.3130 C   0  0  0  0  0  0  0  0  0  0  0  0
    0.7030    1.5320    1.9760 C   0  0  2  0  0  0  0  0  0  0  0  0
    1.1100    2.5050    0.8660 C   0  0  0  0  0  0  0  0  0  0  0  0
   -0.5700    0.8560    1.6370 C   0  0  2  0  0  0  0  0  0  0  0  0
   -0.5040    0.3010    0.3230 N   0  0  0  0  0  0  0  0  0  0  0  0
   -1.8060    1.5530    2.0150 C   0  0  0  0  0  0  0  0  0  0  0  0
   -1.8440    2.1380    3.1530 O   0  0  0  0  0  0  0  0  0  0  0  0
   -2.9560    1.6450    1.2670 O   0  0  0  0  0  0  0  0  0  0  0  0
    2.4630    3.4690    2.8410 H   0  0  0  0  0  0  0  0  0  0  0  0
    2.5120    2.7540    4.5350 H   0  0  0  0  0  0  0  0  0  0  0  0
    2.8690    1.7440    3.0450 H   0  0  0  0  0  0  0  0  0  0  0  0
    0.5880    1.4640    4.1280 H   0  0  0  0  0  0  0  0  0  0  0  0
    0.1900    3.0870    3.4510 H   0  0  0  0  0  0  0  0  0  0  0  0
    1.5380    0.7560    1.9460 H   0  0  0  0  0  0  0  0  0  0  0  0
    0.4890    3.4240    0.9120 H   0  0  0  0  0  0  0  0  0  0  0  0
    2.1900    2.6900    0.9100 H   0  0  0  0  0  0  0  0  0  0  0  0
    0.8820    2.0330   -0.1100 H   0  0  0  0  0  0  0  0  0  0  0  0
   -0.6170   -0.0990    2.3150 H   0  0  0  0  0  0  0  0  0  0  0  0
    0.1250   -0.5610    0.2330 H   0  0  0  0  0  0  0  0  0  0  0  0
  1 10  1  0  0  0  0
  1  2  1  0  0  0  0
  2 12  1  6  0  0  0
  2  3  1  0  0  0  0
  3 13  1  0  0  0  0
  3  4  1  0  0  0  0
  4  5  1  0  0  0  0
  4 16  1  0  0  0  0
  4 15  1  0  0  0  0
  5  9  1  0  0  0  0
  6  5  2  0  0  0  0
  7  2  1  0  0  0  0
  7  8  2  0  0  0  0
  9 17  1  0  0  0  0
 11  1  1  0  0  0  0
 14  3  1  0  0  0  0
 18  7  1  0  0  0  0
 19 18  1  0  0  0  0
 19 20  1  0  0  0  0
 20 21  2  0  0  0  0
 20 30  1  0  0  0  0
 22 18  1  0  0  0  0
 23 19  1  0  0  0  0
 24 19  1  0  0  0  0
 25 35  1  0  0  0  0
 26 38  1  0  0  0  0
 26 25  1  0  0  0  0
 26 37  1  0  0  0  0
 27 39  1  6  0  0  0
 27 26  1  0  0  0  0
 28 41  1  0  0  0  0
 28 40  1  0  0  0  0
 28 27  1  0  0  0  0
 29 27  1  0  0  0  0
 29 31  1  0  0  0  0
 29 43  1  1  0  0  0
 30 29  1  0  0  0  0
 31 32  1  0  0  0  0
 33 31  2  0  0  0  0
 34 25  1  0  0  0  0
 36 25  1  0  0  0  0
 42 28  1  0  0  0  0
 44 30  1  0  0  0  0
M  END
$$$$
