EGL.pdb
 OpenBabel07022418183D

 44 43  0  0  1  0  0  0  0  0999 V2000
    2.4990   -2.6860   -1.0720 N   0  0  0  0  0  0  0  0  0  0  0  0
    1.2880   -3.2280   -0.5540 C   0  0  1  0  0  0  0  0  0  0  0  0
    1.3030   -3.4830    0.9220 C   0  0  0  0  0  0  0  0  0  0  0  0
    2.3720   -4.4520    1.3520 C   0  0  0  0  0  0  0  0  0  0  0  0
    3.7270   -4.0170    1.0510 C   0  0  0  0  0  0  0  0  0  0  0  0
    4.1970   -2.9130    1.4470 O   0  0  0  0  0  0  0  0  0  0  0  0
    0.1360   -2.2920   -0.8090 C   0  0  0  0  0  0  0  0  0  0  0  0
   -1.0300   -2.5880   -0.4490 O   0  0  0  0  0  0  0  0  0  0  0  0
    4.5690   -4.8360    0.2930 O   0  0  0  0  0  0  0  0  0  0  0  0
    2.7960   -1.7840   -0.6700 H   0  0  0  0  0  0  0  0  0  0  0  0
    2.4000   -2.5660   -2.0990 H   0  0  0  0  0  0  0  0  0  0  0  0
    1.0870   -4.1800   -1.0890 H   0  0  0  0  0  0  0  0  0  0  0  0
    0.3290   -3.9380    1.2040 H   0  0  0  0  0  0  0  0  0  0  0  0
    1.3810   -2.5220    1.4660 H   0  0  0  0  0  0  0  0  0  0  0  0
    2.1910   -5.4660    0.9520 H   0  0  0  0  0  0  0  0  0  0  0  0
    2.2540   -4.5390    2.4780 H   0  0  0  0  0  0  0  0  0  0  0  0
    5.2660   -4.3490   -0.3060 H   0  0  0  0  0  0  0  0  0  0  0  0
    0.3340   -1.0370   -1.4680 N   0  0  0  0  0  0  0  0  0  0  0  0
   -0.7280   -0.1200   -1.7170 C   0  0  0  0  0  0  0  0  0  0  0  0
   -1.3830    0.4200   -0.4990 C   0  0  0  0  0  0  0  0  0  0  0  0
   -2.3800    1.2120   -0.6170 O   0  0  0  0  0  0  0  0  0  0  0  0
    1.3420   -0.8540   -1.7550 H   0  0  0  0  0  0  0  0  0  0  0  0
   -1.5400   -0.6250   -2.2950 H   0  0  0  0  0  0  0  0  0  0  0  0
   -0.3630    0.7150   -2.3610 H   0  0  0  0  0  0  0  0  0  0  0  0
    0.8030    2.3950    1.2130 C   0  0  0  0  0  0  0  0  0  0  0  0
   -0.0950    2.6010    2.3900 C   0  0  0  0  0  0  0  0  0  0  0  0
   -0.2120    4.1040    2.6220 C   0  0  0  0  0  0  0  0  0  0  0  0
   -1.4760    2.0700    2.2500 C   0  0  0  0  0  0  0  0  0  0  0  0
   -1.6080    0.6160    2.0170 C   0  0  2  0  0  0  0  0  0  0  0  0
   -0.9690    0.1160    0.8210 N   0  0  0  0  0  0  0  0  0  0  0  0
   -3.0890    0.3030    1.9500 C   0  0  0  0  0  0  0  0  0  0  0  0
   -3.8790    0.6800    2.8500 O   0  0  0  0  0  0  0  0  0  0  0  0
   -3.6440   -0.4110    0.9000 O   0  0  0  0  0  0  0  0  0  0  0  0
    0.3610    2.6110    0.2380 H   0  0  0  0  0  0  0  0  0  0  0  0
    1.6620    3.1230    1.3170 H   0  0  0  0  0  0  0  0  0  0  0  0
    1.3070    1.3980    1.2480 H   0  0  0  0  0  0  0  0  0  0  0  0
    0.4400    2.1940    3.2860 H   0  0  0  0  0  0  0  0  0  0  0  0
   -1.1040    4.2550    3.2610 H   0  0  0  0  0  0  0  0  0  0  0  0
    0.7110    4.5380    3.0570 H   0  0  0  0  0  0  0  0  0  0  0  0
   -0.4540    4.5420    1.6240 H   0  0  0  0  0  0  0  0  0  0  0  0
   -2.0250    2.3180    3.1850 H   0  0  0  0  0  0  0  0  0  0  0  0
   -2.0030    2.6110    1.4370 H   0  0  0  0  0  0  0  0  0  0  0  0
   -1.2510   -0.0390    2.8550 H   0  0  0  0  0  0  0  0  0  0  0  0
   -0.1150   -0.5110    0.9050 H   0  0  0  0  0  0  0  0  0  0  0  0
  1 10  1  0  0  0  0
  1  2  1  0  0  0  0
  2 12  1  6  0  0  0
  2  3  1  0  0  0  0
  3 13  1  0  0  0  0
  3  4  1  0  0  0  0
  3 14  1  0  0  0  0
  4 16  1  0  0  0  0
  5  4  1  0  0  0  0
  5  6  2  0  0  0  0
  7  2  1  0  0  0  0
  7  8  2  0  0  0  0
  9  5  1  0  0  0  0
 11  1  1  0  0  0  0
 15  4  1  0  0  0  0
 17  9  1  0  0  0  0
 18  7  1  0  0  0  0
 19 18  1  0  0  0  0
 19 20  1  0  0  0  0
 20 30  1  0  0  0  0
 21 20  2  0  0  0  0
 22 18  1  0  0  0  0
 23 19  1  0  0  0  0
 24 19  1  0  0  0  0
 25 36  1  0  0  0  0
 25 35  1  0  0  0  0
 25 26  1  0  0  0  0
 26 27  1  0  0  0  0
 26 37  1  0  0  0  0
 27 39  1  0  0  0  0
 27 38  1  0  0  0  0
 28 26  1  0  0  0  0
 28 41  1  0  0  0  0
 29 28  1  0  0  0  0
 29 43  1  1  0  0  0
 30 44  1  0  0  0  0
 30 29  1  0  0  0  0
 31 29  1  0  0  0  0
 31 32  1  0  0  0  0
 33 31  2  0  0  0  0
 34 25  1  0  0  0  0
 40 27  1  0  0  0  0
 42 28  1  0  0  0  0
M  END
$$$$
