EGN.pdb
 OpenBabel07022418183D

 39 38  0  0  1  0  0  0  0  0999 V2000
    1.9110   -2.3900    1.3930 N   0  0  0  0  0  0  0  0  0  0  0  0
    1.6880   -1.5970    0.2160 C   0  0  1  0  0  0  0  0  0  0  0  0
    2.4670   -2.0780   -0.9710 C   0  0  0  0  0  0  0  0  0  0  0  0
    3.9600   -2.0470   -0.7060 C   0  0  0  0  0  0  0  0  0  0  0  0
    4.7280   -2.5240   -1.8840 C   0  0  0  0  0  0  0  0  0  0  0  0
    5.9620   -2.5690   -1.8560 O   0  0  0  0  0  0  0  0  0  0  0  0
    0.2610   -1.4300   -0.0270 C   0  0  0  0  0  0  0  0  0  0  0  0
   -0.5600   -1.9760    0.7850 O   0  0  0  0  0  0  0  0  0  0  0  0
    4.0540   -2.9210   -3.0230 O   0  0  0  0  0  0  0  0  0  0  0  0
    1.0420   -2.3470    1.9800 H   0  0  0  0  0  0  0  0  0  0  0  0
    2.7230   -2.0840    1.9670 H   0  0  0  0  0  0  0  0  0  0  0  0
    2.0980   -0.5700    0.4570 H   0  0  0  0  0  0  0  0  0  0  0  0
    2.2750   -1.5410   -1.8910 H   0  0  0  0  0  0  0  0  0  0  0  0
    2.1750   -3.1500   -1.1420 H   0  0  0  0  0  0  0  0  0  0  0  0
    4.2010   -2.7710    0.1250 H   0  0  0  0  0  0  0  0  0  0  0  0
    4.2790   -1.0370   -0.3900 H   0  0  0  0  0  0  0  0  0  0  0  0
    4.4810   -2.9010   -3.9530 H   0  0  0  0  0  0  0  0  0  0  0  0
   -0.1750   -0.6710   -1.1510 N   0  0  0  0  0  0  0  0  0  0  0  0
   -1.5810   -0.5080   -1.3730 C   0  0  0  0  0  0  0  0  0  0  0  0
   -2.2930    0.2190   -0.2940 C   0  0  0  0  0  0  0  0  0  0  0  0
   -3.5580    0.3980   -0.3540 O   0  0  0  0  0  0  0  0  0  0  0  0
    0.5730   -0.2720   -1.7570 H   0  0  0  0  0  0  0  0  0  0  0  0
   -1.6790    0.1500   -2.2870 H   0  0  0  0  0  0  0  0  0  0  0  0
   -2.0930   -1.4510   -1.6490 H   0  0  0  0  0  0  0  0  0  0  0  0
   -0.9220   -0.2760    4.9790 N   0  0  0  0  0  0  0  0  0  0  0  0
   -1.0740    0.4530    3.7640 C   0  0  0  0  0  0  0  0  0  0  0  0
   -0.0360    0.8650    3.2000 O   0  0  0  0  0  0  0  0  0  0  0  0
   -2.4000    0.7120    3.1940 C   0  0  0  0  0  0  0  0  0  0  0  0
   -2.3980    1.4700    1.9030 C   0  0  2  0  0  0  0  0  0  0  0  0
   -1.6760    0.7680    0.8610 N   0  0  0  0  0  0  0  0  0  0  0  0
   -1.9920    2.8640    2.0390 C   0  0  0  0  0  0  0  0  0  0  0  0
   -2.5260    3.5960    2.8950 O   0  0  0  0  0  0  0  0  0  0  0  0
   -1.0130    3.3810    1.2210 O   0  0  0  0  0  0  0  0  0  0  0  0
   -1.5150    0.0170    5.7740 H   0  0  0  0  0  0  0  0  0  0  0  0
   -0.2460   -1.0490    5.0300 H   0  0  0  0  0  0  0  0  0  0  0  0
   -2.8850   -0.2850    2.9720 H   0  0  0  0  0  0  0  0  0  0  0  0
   -3.0580    1.1690    3.9600 H   0  0  0  0  0  0  0  0  0  0  0  0
   -3.4770    1.4780    1.5610 H   0  0  0  0  0  0  0  0  0  0  0  0
   -0.6490    0.6860    0.9810 H   0  0  0  0  0  0  0  0  0  0  0  0
  1 11  1  0  0  0  0
  1 10  1  0  0  0  0
  2 12  1  1  0  0  0
  2  1  1  0  0  0  0
  3  4  1  0  0  0  0
  3  2  1  0  0  0  0
  4 16  1  0  0  0  0
  4 15  1  0  0  0  0
  5  6  2  0  0  0  0
  5  4  1  0  0  0  0
  7  2  1  0  0  0  0
  7  8  2  0  0  0  0
  9  5  1  0  0  0  0
 13  3  1  0  0  0  0
 14  3  1  0  0  0  0
 17  9  1  0  0  0  0
 18  7  1  0  0  0  0
 19 18  1  0  0  0  0
 19 20  1  0  0  0  0
 20 30  1  0  0  0  0
 21 20  2  0  0  0  0
 22 18  1  0  0  0  0
 23 19  1  0  0  0  0
 24 19  1  0  0  0  0
 25 35  1  0  0  0  0
 25 34  1  0  0  0  0
 26 25  1  0  0  0  0
 27 26  2  0  0  0  0
 28 26  1  0  0  0  0
 28 37  1  0  0  0  0
 29 38  1  6  0  0  0
 29 31  1  0  0  0  0
 29 28  1  0  0  0  0
 30 39  1  0  0  0  0
 30 29  1  0  0  0  0
 31 32  1  0  0  0  0
 33 31  2  0  0  0  0
 36 28  1  0  0  0  0
M  END
$$$$
