EGP.pdb
 OpenBabel07022418183D

 39 39  0  0  1  0  0  0  0  0999 V2000
   -1.4120   -3.0930    0.4010 N   0  0  0  0  0  0  0  0  0  0  0  0
   -0.0360   -2.7470    0.6710 C   0  0  1  0  0  0  0  0  0  0  0  0
    0.8360   -3.9440    0.5050 C   0  0  0  0  0  0  0  0  0  0  0  0
    2.2920   -3.7300    0.7530 C   0  0  0  0  0  0  0  0  0  0  0  0
    2.6000   -3.2780    2.1130 C   0  0  0  0  0  0  0  0  0  0  0  0
    1.7610   -3.0960    3.0220 O   0  0  0  0  0  0  0  0  0  0  0  0
    0.3630   -1.5870   -0.1520 C   0  0  0  0  0  0  0  0  0  0  0  0
    1.5150   -1.1290   -0.0530 O   0  0  0  0  0  0  0  0  0  0  0  0
    3.9310   -3.0290    2.4240 O   0  0  0  0  0  0  0  0  0  0  0  0
   -2.0880   -2.7140    1.0750 H   0  0  0  0  0  0  0  0  0  0  0  0
   -1.5620   -4.0490    0.0830 H   0  0  0  0  0  0  0  0  0  0  0  0
   -0.0060   -2.3930    1.7280 H   0  0  0  0  0  0  0  0  0  0  0  0
    0.4930   -4.6910    1.2800 H   0  0  0  0  0  0  0  0  0  0  0  0
    0.6910   -4.4660   -0.4620 H   0  0  0  0  0  0  0  0  0  0  0  0
    2.7770   -3.0810   -0.0150 H   0  0  0  0  0  0  0  0  0  0  0  0
    2.7750   -4.7500    0.6580 H   0  0  0  0  0  0  0  0  0  0  0  0
    4.1340   -2.4580    3.2360 H   0  0  0  0  0  0  0  0  0  0  0  0
   -0.5510   -0.9840   -1.0580 N   0  0  0  0  0  0  0  0  0  0  0  0
   -0.2770    0.1280   -1.8790 C   0  0  0  0  0  0  0  0  0  0  0  0
   -0.0080    1.4330   -1.3070 C   0  0  0  0  0  0  0  0  0  0  0  0
    0.3080    2.3210   -2.2190 O   0  0  0  0  0  0  0  0  0  0  0  0
   -1.5050   -1.4340   -1.0920 H   0  0  0  0  0  0  0  0  0  0  0  0
   -1.1690    0.2450   -2.5880 H   0  0  0  0  0  0  0  0  0  0  0  0
    0.5360   -0.1690   -2.6320 H   0  0  0  0  0  0  0  0  0  0  0  0
   -0.0260    1.9220    0.0070 N   0  0  0  0  0  0  0  0  0  0  0  0
    0.3430    3.3440    0.2670 C   0  0  0  0  0  0  0  0  0  0  0  0
    0.9650    3.2270    1.6340 C   0  0  0  0  0  0  0  0  0  0  0  0
   -0.1840    2.4720    2.3310 C   0  0  0  0  0  0  0  0  0  0  0  0
   -0.3790    1.3760    1.2810 C   0  0  1  0  0  0  0  0  0  0  0  0
   -1.7680    0.8510    1.3330 C   0  0  0  0  0  0  0  0  0  0  0  0
   -2.5200    0.9780    0.3440 O   0  0  0  0  0  0  0  0  0  0  0  0
   -2.2790    0.2170    2.4420 O   0  0  0  0  0  0  0  0  0  0  0  0
    1.0200    3.7340   -0.4910 H   0  0  0  0  0  0  0  0  0  0  0  0
   -0.6010    3.9190    0.3880 H   0  0  0  0  0  0  0  0  0  0  0  0
    1.1810    4.1760    2.1160 H   0  0  0  0  0  0  0  0  0  0  0  0
    1.8160    2.5200    1.5870 H   0  0  0  0  0  0  0  0  0  0  0  0
    0.2480    2.0670    3.2650 H   0  0  0  0  0  0  0  0  0  0  0  0
   -1.0560    3.1140    2.4500 H   0  0  0  0  0  0  0  0  0  0  0  0
    0.3050    0.5910    1.5720 H   0  0  0  0  0  0  0  0  0  0  0  0
  1  2  1  0  0  0  0
  1 10  1  0  0  0  0
  2 12  1  1  0  0  0
  3  2  1  0  0  0  0
  3  4  1  0  0  0  0
  3 13  1  0  0  0  0
  4  5  1  0  0  0  0
  5  9  1  0  0  0  0
  5  6  2  0  0  0  0
  7  8  2  0  0  0  0
  7  2  1  0  0  0  0
  9 17  1  0  0  0  0
 11  1  1  0  0  0  0
 14  3  1  0  0  0  0
 15  4  1  0  0  0  0
 16  4  1  0  0  0  0
 18  7  1  0  0  0  0
 19 20  1  0  0  0  0
 19 18  1  0  0  0  0
 20 25  1  0  0  0  0
 21 20  2  0  0  0  0
 22 18  1  0  0  0  0
 23 19  1  0  0  0  0
 24 19  1  0  0  0  0
 25 26  1  0  0  0  0
 25 29  1  0  0  0  0
 26 34  1  0  0  0  0
 26 27  1  0  0  0  0
 27 35  1  0  0  0  0
 27 28  1  0  0  0  0
 28 38  1  0  0  0  0
 28 37  1  0  0  0  0
 29 30  1  0  0  0  0
 29 39  1  1  0  0  0
 29 28  1  0  0  0  0
 30 32  1  0  0  0  0
 31 30  2  0  0  0  0
 33 26  1  0  0  0  0
 36 27  1  0  0  0  0
M  END
$$$$
