EGR.pdb
 OpenBabel07022418183D

 48 47  0  0  1  0  0  0  0  0999 V2000
    5.6010   -0.2770    0.1860 N   0  0  0  0  0  0  0  0  0  0  0  0
    4.2220    0.2380    0.0750 C   0  0  1  0  0  0  0  0  0  0  0  0
    4.2030    1.3690   -0.9360 C   0  0  0  0  0  0  0  0  0  0  0  0
    2.8450    1.9770   -1.1500 C   0  0  0  0  0  0  0  0  0  0  0  0
    3.0120    3.0930   -2.1390 C   0  0  0  0  0  0  0  0  0  0  0  0
    4.1320    3.3530   -2.6170 O   0  0  0  0  0  0  0  0  0  0  0  0
    3.3110   -0.8710   -0.2830 C   0  0  0  0  0  0  0  0  0  0  0  0
    3.7390   -1.9830   -0.7230 O   0  0  0  0  0  0  0  0  0  0  0  0
    1.9280    3.8370   -2.5250 O   0  0  0  0  0  0  0  0  0  0  0  0
    6.0870    0.3650    0.8440 H   0  0  0  0  0  0  0  0  0  0  0  0
    5.5320   -1.2050    0.6600 H   0  0  0  0  0  0  0  0  0  0  0  0
    3.9610    0.6340    1.0610 H   0  0  0  0  0  0  0  0  0  0  0  0
    4.5150    0.9760   -1.9500 H   0  0  0  0  0  0  0  0  0  0  0  0
    4.8750    2.1930   -0.6240 H   0  0  0  0  0  0  0  0  0  0  0  0
    2.1590    1.2620   -1.6880 H   0  0  0  0  0  0  0  0  0  0  0  0
    2.3420    2.3060   -0.2370 H   0  0  0  0  0  0  0  0  0  0  0  0
    1.9950    4.8350   -2.7800 H   0  0  0  0  0  0  0  0  0  0  0  0
    1.8730   -0.7870   -0.1600 N   0  0  0  0  0  0  0  0  0  0  0  0
    1.0610   -1.9040   -0.5300 C   0  0  0  0  0  0  0  0  0  0  0  0
   -0.3610   -1.6030   -0.3380 C   0  0  0  0  0  0  0  0  0  0  0  0
   -1.1710   -2.5560   -0.6450 O   0  0  0  0  0  0  0  0  0  0  0  0
    1.5070    0.1090    0.2170 H   0  0  0  0  0  0  0  0  0  0  0  0
    1.2050   -2.2140   -1.5910 H   0  0  0  0  0  0  0  0  0  0  0  0
    1.3690   -2.8290    0.0460 H   0  0  0  0  0  0  0  0  0  0  0  0
   -2.9840   -5.0980    4.9180 N   0  0  0  0  0  0  0  0  0  0  0  0
   -2.9830   -4.3940    3.6820 C   0  0  0  0  0  0  0  0  0  0  0  0
   -3.3940   -4.9770    2.5990 N   0  0  0  0  0  0  0  0  0  0  0  0
   -2.5370   -3.0490    3.5950 N   0  0  0  0  0  0  0  0  0  0  0  0
   -3.0010   -2.1550    2.5300 C   0  0  0  0  0  0  0  0  0  0  0  0
   -2.3500   -0.8250    2.7160 C   0  0  0  0  0  0  0  0  0  0  0  0
   -2.7600    0.1730    1.6660 C   0  0  0  0  0  0  0  0  0  0  0  0
   -2.4030   -0.2520    0.2790 C   0  0  2  0  0  0  0  0  0  0  0  0
   -0.9650   -0.4370    0.1270 N   0  0  0  0  0  0  0  0  0  0  0  0
   -2.9000    0.8000   -0.6450 C   0  0  0  0  0  0  0  0  0  0  0  0
   -2.1540    1.4160   -1.4370 O   0  0  0  0  0  0  0  0  0  0  0  0
   -4.2450    1.1070   -0.6230 O   0  0  0  0  0  0  0  0  0  0  0  0
   -2.9040   -6.1440    4.9520 H   0  0  0  0  0  0  0  0  0  0  0  0
   -3.0640   -4.6220    5.8480 H   0  0  0  0  0  0  0  0  0  0  0  0
   -3.7340   -5.9780    2.6190 H   0  0  0  0  0  0  0  0  0  0  0  0
   -1.8650   -2.7240    4.3220 H   0  0  0  0  0  0  0  0  0  0  0  0
   -4.1000   -1.9990    2.6570 H   0  0  0  0  0  0  0  0  0  0  0  0
   -2.7990   -2.6040    1.5410 H   0  0  0  0  0  0  0  0  0  0  0  0
   -2.7130   -0.4170    3.7040 H   0  0  0  0  0  0  0  0  0  0  0  0
   -1.2380   -0.8800    2.8320 H   0  0  0  0  0  0  0  0  0  0  0  0
   -3.8800    0.2270    1.7090 H   0  0  0  0  0  0  0  0  0  0  0  0
   -2.4080    1.1910    1.9180 H   0  0  0  0  0  0  0  0  0  0  0  0
   -2.9690   -1.1810    0.0430 H   0  0  0  0  0  0  0  0  0  0  0  0
   -0.3840    0.3780    0.3930 H   0  0  0  0  0  0  0  0  0  0  0  0
  1 11  1  0  0  0  0
  1 10  1  0  0  0  0
  2  1  1  0  0  0  0
  2 12  1  1  0  0  0
  3 14  1  0  0  0  0
  3  2  1  0  0  0  0
  4  3  1  0  0  0  0
  4 16  1  0  0  0  0
  5  4  1  0  0  0  0
  6  5  2  0  0  0  0
  7 18  1  0  0  0  0
  7  2  1  0  0  0  0
  8  7  2  0  0  0  0
  9  5  1  0  0  0  0
 13  3  1  0  0  0  0
 15  4  1  0  0  0  0
 17  9  1  0  0  0  0
 18 22  1  0  0  0  0
 19 20  1  0  0  0  0
 19 18  1  0  0  0  0
 19 24  1  0  0  0  0
 20 33  1  0  0  0  0
 21 20  2  0  0  0  0
 23 19  1  0  0  0  0
 25 37  1  0  0  0  0
 25 38  1  0  0  0  0
 26 25  1  0  0  0  0
 27 39  1  0  0  0  0
 27 26  2  0  0  0  0
 28 26  1  0  0  0  0
 28 40  1  0  0  0  0
 29 41  1  0  0  0  0
 29 30  1  0  0  0  0
 29 28  1  0  0  0  0
 30 44  1  0  0  0  0
 30 43  1  0  0  0  0
 31 45  1  0  0  0  0
 31 46  1  0  0  0  0
 31 30  1  0  0  0  0
 32 47  1  6  0  0  0
 32 31  1  0  0  0  0
 33 32  1  0  0  0  0
 33 48  1  0  0  0  0
 34 36  1  0  0  0  0
 34 32  1  0  0  0  0
 35 34  2  0  0  0  0
 42 29  1  0  0  0  0
M  END
$$$$
