EGT.pdb
 OpenBabel07022418183D

 39 38  0  0  1  0  0  0  0  0999 V2000
    0.7110   -3.6180    1.3380 N   0  0  0  0  0  0  0  0  0  0  0  0
    1.3460   -2.5810    0.5230 C   0  0  1  0  0  0  0  0  0  0  0  0
    2.3320   -3.2690   -0.3520 C   0  0  0  0  0  0  0  0  0  0  0  0
    3.0910   -2.3700   -1.2740 C   0  0  0  0  0  0  0  0  0  0  0  0
    3.8890   -1.3610   -0.5810 C   0  0  0  0  0  0  0  0  0  0  0  0
    3.9870   -1.2520    0.6600 O   0  0  0  0  0  0  0  0  0  0  0  0
    0.3360   -1.7710   -0.1840 C   0  0  0  0  0  0  0  0  0  0  0  0
    0.7080   -0.8080   -0.8820 O   0  0  0  0  0  0  0  0  0  0  0  0
    4.6220   -0.4170   -1.3250 O   0  0  0  0  0  0  0  0  0  0  0  0
    0.0440   -3.1990    2.0230 H   0  0  0  0  0  0  0  0  0  0  0  0
    0.2670   -4.3340    0.7280 H   0  0  0  0  0  0  0  0  0  0  0  0
    1.8820   -1.9070    1.2180 H   0  0  0  0  0  0  0  0  0  0  0  0
    3.1120   -3.7550    0.3090 H   0  0  0  0  0  0  0  0  0  0  0  0
    1.9010   -4.1280   -0.9140 H   0  0  0  0  0  0  0  0  0  0  0  0
    2.4080   -1.8800   -2.0030 H   0  0  0  0  0  0  0  0  0  0  0  0
    3.8060   -3.0520   -1.8380 H   0  0  0  0  0  0  0  0  0  0  0  0
    5.5520   -0.1100   -1.0300 H   0  0  0  0  0  0  0  0  0  0  0  0
   -1.0620   -2.0430   -0.1030 N   0  0  0  0  0  0  0  0  0  0  0  0
   -2.0900   -1.2840   -0.7580 C   0  0  0  0  0  0  0  0  0  0  0  0
   -2.1490    0.1010   -0.2640 C   0  0  0  0  0  0  0  0  0  0  0  0
   -2.9490    0.9590   -0.7490 O   0  0  0  0  0  0  0  0  0  0  0  0
   -1.3260   -2.8570    0.4810 H   0  0  0  0  0  0  0  0  0  0  0  0
   -3.0820   -1.7460   -0.5340 H   0  0  0  0  0  0  0  0  0  0  0  0
   -1.9800   -1.3290   -1.8700 H   0  0  0  0  0  0  0  0  0  0  0  0
   -1.1040    0.8330    3.5490 C   0  0  0  0  0  0  0  0  0  0  0  0
   -1.8180    1.8450    2.7030 C   0  0  1  0  0  0  0  0  0  0  0  0
   -1.8770    3.1050    3.3090 O   0  0  0  0  0  0  0  0  0  0  0  0
   -1.3460    1.9080    1.2890 C   0  0  2  0  0  0  0  0  0  0  0  0
   -1.3280    0.5450    0.7730 N   0  0  0  0  0  0  0  0  0  0  0  0
   -0.0590    2.5910    1.1000 C   0  0  0  0  0  0  0  0  0  0  0  0
    0.8970    1.9640    0.5330 O   0  0  0  0  0  0  0  0  0  0  0  0
    0.2160    3.8790    1.4890 O   0  0  0  0  0  0  0  0  0  0  0  0
   -0.0540    0.6800    3.2930 H   0  0  0  0  0  0  0  0  0  0  0  0
   -1.1750    1.1750    4.6050 H   0  0  0  0  0  0  0  0  0  0  0  0
   -1.6060   -0.1510    3.4960 H   0  0  0  0  0  0  0  0  0  0  0  0
   -2.8950    1.4990    2.6580 H   0  0  0  0  0  0  0  0  0  0  0  0
   -0.9390    3.3980    3.4690 H   0  0  0  0  0  0  0  0  0  0  0  0
   -2.1160    2.4470    0.6990 H   0  0  0  0  0  0  0  0  0  0  0  0
   -0.6560   -0.0810    1.2620 H   0  0  0  0  0  0  0  0  0  0  0  0
  1 10  1  0  0  0  0
  2 12  1  1  0  0  0
  2  1  1  0  0  0  0
  3 13  1  0  0  0  0
  3  2  1  0  0  0  0
  4  5  1  0  0  0  0
  4  3  1  0  0  0  0
  5  6  2  0  0  0  0
  7 18  1  0  0  0  0
  7  2  1  0  0  0  0
  8  7  2  0  0  0  0
  9 17  1  0  0  0  0
  9  5  1  0  0  0  0
 11  1  1  0  0  0  0
 14  3  1  0  0  0  0
 15  4  1  0  0  0  0
 16  4  1  0  0  0  0
 18 22  1  0  0  0  0
 19 23  1  0  0  0  0
 19 20  1  0  0  0  0
 19 18  1  0  0  0  0
 20 29  1  0  0  0  0
 21 20  2  0  0  0  0
 24 19  1  0  0  0  0
 25 34  1  0  0  0  0
 26 36  1  6  0  0  0
 26 27  1  0  0  0  0
 26 25  1  0  0  0  0
 27 37  1  0  0  0  0
 28 38  1  6  0  0  0
 28 26  1  0  0  0  0
 29 39  1  0  0  0  0
 29 28  1  0  0  0  0
 30 28  1  0  0  0  0
 30 32  1  0  0  0  0
 31 30  2  0  0  0  0
 33 25  1  0  0  0  0
 35 25  1  0  0  0  0
M  END
$$$$
