EGV.pdb
 OpenBabel07022418183D

 41 40  0  0  1  0  0  0  0  0999 V2000
   -1.0580   -3.5240    2.2200 N   0  0  0  0  0  0  0  0  0  0  0  0
    0.1480   -3.3920    1.4020 C   0  0  1  0  0  0  0  0  0  0  0  0
    0.5070   -4.6840    0.7570 C   0  0  0  0  0  0  0  0  0  0  0  0
    1.7300   -4.6570   -0.0980 C   0  0  0  0  0  0  0  0  0  0  0  0
    2.9550   -4.2740    0.6410 C   0  0  0  0  0  0  0  0  0  0  0  0
    2.9570   -4.0290    1.8710 O   0  0  0  0  0  0  0  0  0  0  0  0
   -0.1490   -2.3760    0.3470 C   0  0  0  0  0  0  0  0  0  0  0  0
    0.7520   -1.9920   -0.4270 O   0  0  0  0  0  0  0  0  0  0  0  0
    4.1830   -4.1720   -0.0250 O   0  0  0  0  0  0  0  0  0  0  0  0
   -1.5730   -4.3850    2.0100 H   0  0  0  0  0  0  0  0  0  0  0  0
   -0.9040   -3.3060    3.2080 H   0  0  0  0  0  0  0  0  0  0  0  0
    0.9270   -2.9650    2.0320 H   0  0  0  0  0  0  0  0  0  0  0  0
    0.6990   -5.4500    1.5650 H   0  0  0  0  0  0  0  0  0  0  0  0
   -0.3570   -5.0580    0.1560 H   0  0  0  0  0  0  0  0  0  0  0  0
    1.6220   -4.0120   -0.9950 H   0  0  0  0  0  0  0  0  0  0  0  0
    1.8700   -5.6920   -0.5270 H   0  0  0  0  0  0  0  0  0  0  0  0
    4.9080   -3.6280    0.4090 H   0  0  0  0  0  0  0  0  0  0  0  0
   -1.4680   -1.8230    0.2010 N   0  0  0  0  0  0  0  0  0  0  0  0
   -1.7810   -0.8370   -0.7970 C   0  0  0  0  0  0  0  0  0  0  0  0
   -1.0560    0.4380   -0.6530 C   0  0  0  0  0  0  0  0  0  0  0  0
   -1.2900    1.3150   -1.5570 O   0  0  0  0  0  0  0  0  0  0  0  0
   -2.1860   -2.1950    0.8810 H   0  0  0  0  0  0  0  0  0  0  0  0
   -2.8720   -0.6990   -0.9330 H   0  0  0  0  0  0  0  0  0  0  0  0
   -1.4250   -1.2770   -1.7760 H   0  0  0  0  0  0  0  0  0  0  0  0
    0.9190    4.1910    1.5590 C   0  0  0  0  0  0  0  0  0  0  0  0
    0.2420    2.8430    1.6300 C   0  0  0  0  0  0  0  0  0  0  0  0
   -1.1950    2.9400    2.0110 C   0  0  0  0  0  0  0  0  0  0  0  0
    0.4800    2.0650    0.3640 C   0  0  2  0  0  0  0  0  0  0  0  0
   -0.1460    0.7710    0.3760 N   0  0  0  0  0  0  0  0  0  0  0  0
    1.9500    1.8830    0.1620 C   0  0  0  0  0  0  0  0  0  0  0  0
    2.4800    0.7510    0.0360 O   0  0  0  0  0  0  0  0  0  0  0  0
    2.7490    2.9850    0.1110 O   0  0  0  0  0  0  0  0  0  0  0  0
    1.9550    4.1710    1.9540 H   0  0  0  0  0  0  0  0  0  0  0  0
    0.3760    4.9600    2.1500 H   0  0  0  0  0  0  0  0  0  0  0  0
    0.9900    4.4690    0.4850 H   0  0  0  0  0  0  0  0  0  0  0  0
    0.7630    2.2880    2.4660 H   0  0  0  0  0  0  0  0  0  0  0  0
   -1.7910    3.6440    1.4170 H   0  0  0  0  0  0  0  0  0  0  0  0
   -1.6160    1.9130    2.0230 H   0  0  0  0  0  0  0  0  0  0  0  0
   -1.2460    3.2980    3.0710 H   0  0  0  0  0  0  0  0  0  0  0  0
    0.1190    2.6270   -0.5140 H   0  0  0  0  0  0  0  0  0  0  0  0
    0.0230    0.0540    1.1170 H   0  0  0  0  0  0  0  0  0  0  0  0
  1 11  1  0  0  0  0
  2 12  1  1  0  0  0
  2  1  1  0  0  0  0
  3  2  1  0  0  0  0
  3 13  1  0  0  0  0
  4  5  1  0  0  0  0
  4  3  1  0  0  0  0
  5  6  2  0  0  0  0
  7  2  1  0  0  0  0
  8  7  2  0  0  0  0
  9 17  1  0  0  0  0
  9  5  1  0  0  0  0
 10  1  1  0  0  0  0
 14  3  1  0  0  0  0
 15  4  1  0  0  0  0
 16  4  1  0  0  0  0
 18  7  1  0  0  0  0
 18 22  1  0  0  0  0
 19 20  1  0  0  0  0
 19 18  1  0  0  0  0
 20 29  1  0  0  0  0
 21 20  2  0  0  0  0
 23 19  1  0  0  0  0
 24 19  1  0  0  0  0
 25 26  1  0  0  0  0
 25 33  1  0  0  0  0
 25 34  1  0  0  0  0
 26 27  1  0  0  0  0
 26 36  1  0  0  0  0
 27 38  1  0  0  0  0
 27 39  1  0  0  0  0
 28 40  1  6  0  0  0
 28 29  1  0  0  0  0
 28 26  1  0  0  0  0
 29 41  1  0  0  0  0
 30 28  1  0  0  0  0
 31 30  2  0  0  0  0
 32 30  1  0  0  0  0
 35 25  1  0  0  0  0
 37 27  1  0  0  0  0
M  END
$$$$
