EHG.pdb
 OpenBabel07022418183D

 42 42  0  0  1  0  0  0  0  0999 V2000
   -2.7560   -1.6040    1.3960 N   0  0  0  0  0  0  0  0  0  0  0  0
   -1.9770   -2.5450    0.5870 C   0  0  1  0  0  0  0  0  0  0  0  0
   -2.7510   -2.7020   -0.7030 C   0  0  0  0  0  0  0  0  0  0  0  0
   -2.1090   -3.6380   -1.6790 C   0  0  0  0  0  0  0  0  0  0  0  0
   -1.9390   -5.0070   -1.1850 C   0  0  0  0  0  0  0  0  0  0  0  0
   -1.3830   -5.8410   -1.9680 O   0  0  0  0  0  0  0  0  0  0  0  0
   -0.6010   -2.0240    0.3640 C   0  0  0  0  0  0  0  0  0  0  0  0
    0.2320   -2.6880   -0.3010 O   0  0  0  0  0  0  0  0  0  0  0  0
   -2.3180   -5.4940    0.0430 O   0  0  0  0  0  0  0  0  0  0  0  0
   -3.7250   -1.9820    1.4720 H   0  0  0  0  0  0  0  0  0  0  0  0
   -2.8650   -0.6840    0.8720 H   0  0  0  0  0  0  0  0  0  0  0  0
   -1.9710   -3.4870    1.1690 H   0  0  0  0  0  0  0  0  0  0  0  0
   -3.7620   -3.0630   -0.4660 H   0  0  0  0  0  0  0  0  0  0  0  0
   -2.7840   -1.6900   -1.2040 H   0  0  0  0  0  0  0  0  0  0  0  0
   -2.8120   -3.6920   -2.5630 H   0  0  0  0  0  0  0  0  0  0  0  0
   -1.1500   -3.2560   -2.0880 H   0  0  0  0  0  0  0  0  0  0  0  0
   -1.7670   -6.1550    0.5800 H   0  0  0  0  0  0  0  0  0  0  0  0
   -0.1720   -0.7720    0.8840 N   0  0  0  0  0  0  0  0  0  0  0  0
    1.1530   -0.2940    0.6570 C   0  0  1  0  0  0  0  0  0  0  0  0
    1.1980    1.0070   -0.1150 C   0  0  0  0  0  0  0  0  0  0  0  0
    0.5020    2.1080    0.5510 C   0  0  0  0  0  0  0  0  0  0  0  0
    1.0460    2.9940    1.4390 C   0  0  0  0  0  0  0  0  0  0  0  0
    0.0910    3.8440    1.8210 N   0  0  0  0  0  0  0  0  0  0  0  0
   -1.0440    3.5080    1.1890 C   0  0  0  0  0  0  0  0  0  0  0  0
   -0.7890    2.4440    0.4120 N   0  0  0  0  0  0  0  0  0  0  0  0
    1.9330   -0.1670    1.9340 C   0  0  0  0  0  0  0  0  0  0  0  0
    1.4230   -0.4650    3.0530 O   0  0  0  0  0  0  0  0  0  0  0  0
   -0.8720   -0.2030    1.4490 H   0  0  0  0  0  0  0  0  0  0  0  0
    1.7020   -1.0420    0.0500 H   0  0  0  0  0  0  0  0  0  0  0  0
    0.8110    0.8440   -1.1420 H   0  0  0  0  0  0  0  0  0  0  0  0
    2.2960    1.2390   -0.2480 H   0  0  0  0  0  0  0  0  0  0  0  0
    2.0960    2.9750    1.7580 H   0  0  0  0  0  0  0  0  0  0  0  0
    0.2070    4.6530    2.5110 H   0  0  0  0  0  0  0  0  0  0  0  0
   -2.0080    4.0300    1.3040 H   0  0  0  0  0  0  0  0  0  0  0  0
    3.2760    0.2920    1.9420 N   0  0  0  0  0  0  0  0  0  0  0  0
    4.0400    0.4200    3.1620 C   0  0  0  0  0  0  0  0  0  0  0  0
    5.3970    0.9210    2.8380 C   0  0  0  0  0  0  0  0  0  0  0  0
    6.2430    1.1120    3.7410 O   0  0  0  0  0  0  0  0  0  0  0  0
    5.7800    1.1980    1.5260 O   0  0  0  0  0  0  0  0  0  0  0  0
    3.7200    0.5430    1.0460 H   0  0  0  0  0  0  0  0  0  0  0  0
    4.1640   -0.6070    3.5930 H   0  0  0  0  0  0  0  0  0  0  0  0
    3.5050    1.0860    3.8700 H   0  0  0  0  0  0  0  0  0  0  0  0
  1 10  1  0  0  0  0
  2 12  1  1  0  0  0
  2  1  1  0  0  0  0
  3 13  1  0  0  0  0
  3  2  1  0  0  0  0
  4  5  1  0  0  0  0
  4  3  1  0  0  0  0
  5  9  1  0  0  0  0
  6  5  2  0  0  0  0
  7  2  1  0  0  0  0
  7 18  1  0  0  0  0
  8  7  2  0  0  0  0
  9 17  1  0  0  0  0
 11  1  1  0  0  0  0
 14  3  1  0  0  0  0
 15  4  1  0  0  0  0
 16  4  1  0  0  0  0
 18 28  1  0  0  0  0
 19 29  1  6  0  0  0
 19 18  1  0  0  0  0
 19 26  1  0  0  0  0
 20 21  1  0  0  0  0
 20 19  1  0  0  0  0
 21 22  2  0  0  0  0
 22 32  1  0  0  0  0
 22 23  1  0  0  0  0
 23 33  1  0  0  0  0
 24 34  1  0  0  0  0
 24 23  1  0  0  0  0
 25 21  1  0  0  0  0
 25 24  2  0  0  0  0
 26 35  1  0  0  0  0
 26 27  2  0  0  0  0
 30 20  1  0  0  0  0
 31 20  1  0  0  0  0
 35 36  1  0  0  0  0
 36 41  1  0  0  0  0
 36 42  1  0  0  0  0
 37 36  1  0  0  0  0
 37 38  1  0  0  0  0
 39 37  2  0  0  0  0
 40 35  1  0  0  0  0
M  END
$$$$
