EHH.pdb
 OpenBabel07022418183D

 52 53  0  0  1  0  0  0  0  0999 V2000
    0.1840   -0.0520    5.3680 N   0  0  0  0  0  0  0  0  0  0  0  0
    1.1540    0.4300    4.3400 C   0  0  1  0  0  0  0  0  0  0  0  0
    2.2380   -0.5750    4.2250 C   0  0  0  0  0  0  0  0  0  0  0  0
    3.3430   -0.2410    3.2800 C   0  0  0  0  0  0  0  0  0  0  0  0
    4.0760    1.0090    3.6600 C   0  0  0  0  0  0  0  0  0  0  0  0
    3.7920    1.6800    4.6780 O   0  0  0  0  0  0  0  0  0  0  0  0
    0.3170    0.6230    3.1340 C   0  0  0  0  0  0  0  0  0  0  0  0
   -0.4400    1.6010    3.0610 O   0  0  0  0  0  0  0  0  0  0  0  0
    5.1060    1.4420    2.8510 O   0  0  0  0  0  0  0  0  0  0  0  0
    0.0970   -1.0870    5.1650 H   0  0  0  0  0  0  0  0  0  0  0  0
   -0.7360    0.4270    5.2610 H   0  0  0  0  0  0  0  0  0  0  0  0
    1.5000    1.4290    4.6590 H   0  0  0  0  0  0  0  0  0  0  0  0
    1.8500   -1.6050    3.9880 H   0  0  0  0  0  0  0  0  0  0  0  0
    2.7090   -0.7150    5.2420 H   0  0  0  0  0  0  0  0  0  0  0  0
    3.0570   -0.2010    2.2150 H   0  0  0  0  0  0  0  0  0  0  0  0
    4.1590   -1.0330    3.3090 H   0  0  0  0  0  0  0  0  0  0  0  0
    5.3190    2.4000    2.7080 H   0  0  0  0  0  0  0  0  0  0  0  0
    0.3780   -0.3110    2.0820 N   0  0  0  0  0  0  0  0  0  0  0  0
   -0.4220   -0.1660    0.8980 C   0  0  1  0  0  0  0  0  0  0  0  0
    0.2500    0.2780   -0.3440 C   0  0  0  0  0  0  0  0  0  0  0  0
    0.8630    1.6130   -0.2340 C   0  0  0  0  0  0  0  0  0  0  0  0
    2.1500    1.9230    0.1300 C   0  0  0  0  0  0  0  0  0  0  0  0
    2.2520    3.2810    0.0630 N   0  0  0  0  0  0  0  0  0  0  0  0
    1.0740    3.8100   -0.3250 C   0  0  0  0  0  0  0  0  0  0  0  0
    0.2610    2.7650   -0.4960 N   0  0  0  0  0  0  0  0  0  0  0  0
   -1.2330   -1.4110    0.7540 C   0  0  0  0  0  0  0  0  0  0  0  0
   -1.2700   -2.2790    1.7070 O   0  0  0  0  0  0  0  0  0  0  0  0
    1.0140   -1.1790    2.1530 H   0  0  0  0  0  0  0  0  0  0  0  0
   -1.1400    0.6980    1.1560 H   0  0  0  0  0  0  0  0  0  0  0  0
    1.1150   -0.4500   -0.5410 H   0  0  0  0  0  0  0  0  0  0  0  0
   -0.4010    0.2270   -1.2500 H   0  0  0  0  0  0  0  0  0  0  0  0
    2.9430    1.2620    0.4150 H   0  0  0  0  0  0  0  0  0  0  0  0
    3.0720    3.8830    0.2610 H   0  0  0  0  0  0  0  0  0  0  0  0
    0.8400    4.8540   -0.4670 H   0  0  0  0  0  0  0  0  0  0  0  0
   -2.0020   -1.7460   -0.3940 N   0  0  0  0  0  0  0  0  0  0  0  0
   -2.7890   -2.9640   -0.4670 C   0  0  1  0  0  0  0  0  0  0  0  0
   -3.9360   -2.8980   -1.4220 C   0  0  0  0  0  0  0  0  0  0  0  0
   -3.5170   -2.6590   -2.8070 C   0  0  0  0  0  0  0  0  0  0  0  0
   -3.1860   -3.6610   -3.7210 C   0  0  0  0  0  0  0  0  0  0  0  0
   -2.8420   -3.0700   -4.8730 N   0  0  0  0  0  0  0  0  0  0  0  0
   -2.9420   -1.7480   -4.7160 C   0  0  0  0  0  0  0  0  0  0  0  0
   -3.3620   -1.5060   -3.4380 N   0  0  0  0  0  0  0  0  0  0  0  0
   -1.8970   -4.1370   -0.7880 C   0  0  0  0  0  0  0  0  0  0  0  0
   -0.6710   -3.8830   -0.9500 O   0  0  0  0  0  0  0  0  0  0  0  0
   -2.3040   -5.4310   -0.9200 O   0  0  0  0  0  0  0  0  0  0  0  0
   -1.9770   -1.0590   -1.2010 H   0  0  0  0  0  0  0  0  0  0  0  0
   -3.1420   -3.1910    0.5470 H   0  0  0  0  0  0  0  0  0  0  0  0
   -4.6350   -2.0970   -1.0500 H   0  0  0  0  0  0  0  0  0  0  0  0
   -4.4850   -3.8660   -1.3710 H   0  0  0  0  0  0  0  0  0  0  0  0
   -3.2080   -4.7080   -3.5420 H   0  0  0  0  0  0  0  0  0  0  0  0
   -2.5300   -3.5190   -5.7750 H   0  0  0  0  0  0  0  0  0  0  0  0
   -2.7420   -0.9880   -5.4510 H   0  0  0  0  0  0  0  0  0  0  0  0
  2 12  1  1  0  0  0
  2  1  1  0  0  0  0
  3  2  1  0  0  0  0
  3 14  1  0  0  0  0
  4 16  1  0  0  0  0
  4  5  1  0  0  0  0
  4  3  1  0  0  0  0
  5  6  2  0  0  0  0
  7  2  1  0  0  0  0
  8  7  2  0  0  0  0
  9  5  1  0  0  0  0
 10  1  1  0  0  0  0
 11  1  1  0  0  0  0
 13  3  1  0  0  0  0
 15  4  1  0  0  0  0
 17  9  1  0  0  0  0
 18 28  1  0  0  0  0
 18  7  1  0  0  0  0
 19 29  1  1  0  0  0
 19 18  1  0  0  0  0
 20 21  1  0  0  0  0
 20 19  1  0  0  0  0
 21 22  2  0  0  0  0
 22 32  1  0  0  0  0
 23 22  1  0  0  0  0
 23 33  1  0  0  0  0
 24 23  1  0  0  0  0
 25 24  2  0  0  0  0
 25 21  1  0  0  0  0
 26 19  1  0  0  0  0
 26 27  2  0  0  0  0
 30 20  1  0  0  0  0
 31 20  1  0  0  0  0
 34 24  1  0  0  0  0
 35 26  1  0  0  0  0
 36 35  1  0  0  0  0
 36 47  1  1  0  0  0
 37 49  1  0  0  0  0
 37 48  1  0  0  0  0
 37 36  1  0  0  0  0
 38 37  1  0  0  0  0
 39 50  1  0  0  0  0
 39 38  2  0  0  0  0
 40 41  1  0  0  0  0
 40 39  1  0  0  0  0
 41 42  2  0  0  0  0
 42 38  1  0  0  0  0
 43 36  1  0  0  0  0
 44 43  2  0  0  0  0
 45 43  1  0  0  0  0
 46 35  1  0  0  0  0
 51 40  1  0  0  0  0
 52 41  1  0  0  0  0
M  END
$$$$
