EHL.pdb
 OpenBabel07022418183D

 54 54  0  0  1  0  0  0  0  0999 V2000
    3.6260   -2.3910    0.2540 N   0  0  0  0  0  0  0  0  0  0  0  0
    3.1950   -2.1660    1.6220 C   0  0  1  0  0  0  0  0  0  0  0  0
    4.2170   -1.4660    2.4640 C   0  0  0  0  0  0  0  0  0  0  0  0
    5.4990   -2.2440    2.5500 C   0  0  0  0  0  0  0  0  0  0  0  0
    6.4510   -1.4840    3.4060 C   0  0  0  0  0  0  0  0  0  0  0  0
    6.1400   -0.3780    3.9550 O   0  0  0  0  0  0  0  0  0  0  0  0
    1.8890   -1.4560    1.6660 C   0  0  0  0  0  0  0  0  0  0  0  0
    1.3300   -1.1550    2.7480 O   0  0  0  0  0  0  0  0  0  0  0  0
    7.7160   -1.9530    3.6380 O   0  0  0  0  0  0  0  0  0  0  0  0
    2.8830   -2.9910   -0.2170 H   0  0  0  0  0  0  0  0  0  0  0  0
    4.4730   -3.0340    0.2350 H   0  0  0  0  0  0  0  0  0  0  0  0
    3.0210   -3.1760    2.0670 H   0  0  0  0  0  0  0  0  0  0  0  0
    4.3700   -0.4500    2.0450 H   0  0  0  0  0  0  0  0  0  0  0  0
    3.7420   -1.3430    3.4790 H   0  0  0  0  0  0  0  0  0  0  0  0
    5.8920   -2.3690    1.5230 H   0  0  0  0  0  0  0  0  0  0  0  0
    5.2790   -3.2530    2.9310 H   0  0  0  0  0  0  0  0  0  0  0  0
    8.4050   -1.3590    4.0900 H   0  0  0  0  0  0  0  0  0  0  0  0
    1.2120   -1.0850    0.4470 N   0  0  0  0  0  0  0  0  0  0  0  0
   -0.0610   -0.3930    0.4420 C   0  0  1  0  0  0  0  0  0  0  0  0
    0.1420    0.9190   -0.2860 C   0  0  0  0  0  0  0  0  0  0  0  0
    1.1700    1.7630    0.3970 C   0  0  0  0  0  0  0  0  0  0  0  0
    2.5230    1.7850    0.1850 C   0  0  0  0  0  0  0  0  0  0  0  0
    3.0560    2.6890    1.0170 N   0  0  0  0  0  0  0  0  0  0  0  0
    2.0590    3.2240    1.7350 C   0  0  0  0  0  0  0  0  0  0  0  0
    0.9090    2.6570    1.3550 N   0  0  0  0  0  0  0  0  0  0  0  0
   -1.0770   -1.1590   -0.3460 C   0  0  0  0  0  0  0  0  0  0  0  0
   -0.7170   -2.2560   -0.8600 O   0  0  0  0  0  0  0  0  0  0  0  0
    1.7120   -1.3530   -0.4280 H   0  0  0  0  0  0  0  0  0  0  0  0
   -0.4200   -0.1860    1.4660 H   0  0  0  0  0  0  0  0  0  0  0  0
   -0.8220    1.4650   -0.3770 H   0  0  0  0  0  0  0  0  0  0  0  0
    0.5410    0.6740   -1.2900 H   0  0  0  0  0  0  0  0  0  0  0  0
    3.0800    1.1740   -0.5360 H   0  0  0  0  0  0  0  0  0  0  0  0
    4.0860    2.9510    1.1090 H   0  0  0  0  0  0  0  0  0  0  0  0
    2.1990    3.9960    2.5000 H   0  0  0  0  0  0  0  0  0  0  0  0
   -6.5680   -1.4530    0.7340 C   0  0  0  0  0  0  0  0  0  0  0  0
   -5.3880   -0.7750    0.0170 C   0  0  0  0  0  0  0  0  0  0  0  0
   -6.0440    0.1070   -1.0230 C   0  0  0  0  0  0  0  0  0  0  0  0
   -4.5720   -1.8890   -0.5590 C   0  0  0  0  0  0  0  0  0  0  0  0
   -3.3510   -1.4810   -1.3080 C   0  0  2  0  0  0  0  0  0  0  0  0
   -2.3930   -0.7410   -0.5510 N   0  0  0  0  0  0  0  0  0  0  0  0
   -3.6800   -0.8340   -2.6100 C   0  0  0  0  0  0  0  0  0  0  0  0
   -4.4890   -1.3650   -3.4000 O   0  0  0  0  0  0  0  0  0  0  0  0
   -3.0920    0.3690   -2.9640 O   0  0  0  0  0  0  0  0  0  0  0  0
   -7.4030   -0.7690    0.9120 H   0  0  0  0  0  0  0  0  0  0  0  0
   -6.9230   -2.2330    0.0130 H   0  0  0  0  0  0  0  0  0  0  0  0
   -6.2150   -1.9990    1.6270 H   0  0  0  0  0  0  0  0  0  0  0  0
   -4.8750   -0.1880    0.7930 H   0  0  0  0  0  0  0  0  0  0  0  0
   -6.5280   -0.5210   -1.7910 H   0  0  0  0  0  0  0  0  0  0  0  0
   -5.3820    0.8230   -1.5000 H   0  0  0  0  0  0  0  0  0  0  0  0
   -6.8900    0.6220   -0.4750 H   0  0  0  0  0  0  0  0  0  0  0  0
   -4.3700   -2.6880    0.1840 H   0  0  0  0  0  0  0  0  0  0  0  0
   -5.2520   -2.4000   -1.3110 H   0  0  0  0  0  0  0  0  0  0  0  0
   -2.8430   -2.4480   -1.6130 H   0  0  0  0  0  0  0  0  0  0  0  0
   -2.6730    0.1840   -0.1040 H   0  0  0  0  0  0  0  0  0  0  0  0
  1  2  1  0  0  0  0
  2  7  1  0  0  0  0
  2 12  1  1  0  0  0
  2  3  1  0  0  0  0
  3  4  1  0  0  0  0
  3 14  1  0  0  0  0
  4 16  1  0  0  0  0
  4  5  1  0  0  0  0
  5  9  1  0  0  0  0
  5  6  2  0  0  0  0
  7  8  2  0  0  0  0
  9 17  1  0  0  0  0
 10  1  1  0  0  0  0
 11  1  1  0  0  0  0
 13  3  1  0  0  0  0
 15  4  1  0  0  0  0
 18  7  1  0  0  0  0
 19 18  1  0  0  0  0
 19 29  1  1  0  0  0
 20 21  1  0  0  0  0
 20 19  1  0  0  0  0
 21 25  1  0  0  0  0
 22 21  2  0  0  0  0
 22 23  1  0  0  0  0
 23 33  1  0  0  0  0
 23 24  1  0  0  0  0
 24 34  1  0  0  0  0
 25 24  2  0  0  0  0
 26 19  1  0  0  0  0
 27 26  2  0  0  0  0
 28 18  1  0  0  0  0
 30 20  1  0  0  0  0
 31 20  1  0  0  0  0
 32 22  1  0  0  0  0
 35 44  1  0  0  0  0
 35 46  1  0  0  0  0
 36 35  1  0  0  0  0
 36 47  1  0  0  0  0
 37 50  1  0  0  0  0
 37 36  1  0  0  0  0
 38 36  1  0  0  0  0
 38 51  1  0  0  0  0
 39 53  1  6  0  0  0
 39 38  1  0  0  0  0
 39 40  1  0  0  0  0
 40 26  1  0  0  0  0
 40 54  1  0  0  0  0
 41 39  1  0  0  0  0
 42 41  2  0  0  0  0
 43 41  1  0  0  0  0
 45 35  1  0  0  0  0
 48 37  1  0  0  0  0
 49 37  1  0  0  0  0
 52 38  1  0  0  0  0
M  END
$$$$
