EHQ.pdb
 OpenBabel07022418183D

 52 52  0  0  1  0  0  0  0  0999 V2000
    3.2160   -0.2390   -1.0770 N   0  0  0  0  0  0  0  0  0  0  0  0
    3.6110   -1.1200    0.0170 C   0  0  1  0  0  0  0  0  0  0  0  0
    4.6100   -0.3400    0.8290 C   0  0  0  0  0  0  0  0  0  0  0  0
    5.1140   -1.1380    2.0050 C   0  0  0  0  0  0  0  0  0  0  0  0
    6.1250   -0.3070    2.7630 C   0  0  0  0  0  0  0  0  0  0  0  0
    6.6630   -0.8030    3.7880 O   0  0  0  0  0  0  0  0  0  0  0  0
    2.4400   -1.4730    0.8550 C   0  0  0  0  0  0  0  0  0  0  0  0
    2.5180   -2.2900    1.7800 O   0  0  0  0  0  0  0  0  0  0  0  0
    6.4390    0.9570    2.3310 O   0  0  0  0  0  0  0  0  0  0  0  0
    2.5380   -0.6550   -1.7200 H   0  0  0  0  0  0  0  0  0  0  0  0
    3.0170    0.7180   -0.7590 H   0  0  0  0  0  0  0  0  0  0  0  0
    4.0220   -2.0250   -0.4400 H   0  0  0  0  0  0  0  0  0  0  0  0
    5.4980   -0.0790    0.2020 H   0  0  0  0  0  0  0  0  0  0  0  0
    4.1020    0.5680    1.2140 H   0  0  0  0  0  0  0  0  0  0  0  0
    4.3090   -1.3110    2.7770 H   0  0  0  0  0  0  0  0  0  0  0  0
    5.5500   -2.0880    1.6770 H   0  0  0  0  0  0  0  0  0  0  0  0
    7.2390    1.4150    2.7540 H   0  0  0  0  0  0  0  0  0  0  0  0
    1.1540   -0.8620    0.6080 N   0  0  0  0  0  0  0  0  0  0  0  0
   -0.0070   -1.1820    1.4020 C   0  0  1  0  0  0  0  0  0  0  0  0
   -0.4580    0.0290    2.1520 C   0  0  0  0  0  0  0  0  0  0  0  0
   -0.8280    1.1820    1.3060 C   0  0  0  0  0  0  0  0  0  0  0  0
    0.0510    2.1880    0.8780 C   0  0  0  0  0  0  0  0  0  0  0  0
   -0.6310    3.0700    0.1280 N   0  0  0  0  0  0  0  0  0  0  0  0
   -1.8930    2.6690    0.0620 C   0  0  0  0  0  0  0  0  0  0  0  0
   -2.0090    1.5350    0.7710 N   0  0  0  0  0  0  0  0  0  0  0  0
   -1.0920   -1.7960    0.5670 C   0  0  0  0  0  0  0  0  0  0  0  0
   -0.8750   -1.9720   -0.6530 O   0  0  0  0  0  0  0  0  0  0  0  0
    1.1410   -0.1810   -0.1800 H   0  0  0  0  0  0  0  0  0  0  0  0
    0.2590   -1.9420    2.2020 H   0  0  0  0  0  0  0  0  0  0  0  0
    0.3160    0.4040    2.8620 H   0  0  0  0  0  0  0  0  0  0  0  0
   -1.3440   -0.1770    2.7930 H   0  0  0  0  0  0  0  0  0  0  0  0
    1.0960    2.2550    1.1040 H   0  0  0  0  0  0  0  0  0  0  0  0
   -0.1880    3.9260   -0.3160 H   0  0  0  0  0  0  0  0  0  0  0  0
   -2.6670    3.2180   -0.4960 H   0  0  0  0  0  0  0  0  0  0  0  0
   -5.1820    0.9770   -0.9710 N   0  0  0  0  0  0  0  0  0  0  0  0
   -4.9710   -0.4120   -0.8790 C   0  0  0  0  0  0  0  0  0  0  0  0
   -5.8640   -1.1240   -0.3760 O   0  0  0  0  0  0  0  0  0  0  0  0
   -3.7040   -1.0310   -1.3750 C   0  0  0  0  0  0  0  0  0  0  0  0
   -3.5350   -2.4580   -1.0150 C   0  0  0  0  0  0  0  0  0  0  0  0
   -3.4470   -2.7560    0.4470 C   0  0  2  0  0  0  0  0  0  0  0  0
   -2.3240   -2.1700    1.1240 N   0  0  0  0  0  0  0  0  0  0  0  0
   -3.5230   -4.2130    0.6740 C   0  0  0  0  0  0  0  0  0  0  0  0
   -4.4100   -4.9450    0.1910 O   0  0  0  0  0  0  0  0  0  0  0  0
   -2.5510   -4.8120    1.4740 O   0  0  0  0  0  0  0  0  0  0  0  0
   -5.7120    1.4620   -0.2320 H   0  0  0  0  0  0  0  0  0  0  0  0
   -4.8090    1.5070   -1.7700 H   0  0  0  0  0  0  0  0  0  0  0  0
   -2.8860   -0.4070   -0.9980 H   0  0  0  0  0  0  0  0  0  0  0  0
   -3.7870   -0.9400   -2.5050 H   0  0  0  0  0  0  0  0  0  0  0  0
   -4.4410   -3.0240   -1.3900 H   0  0  0  0  0  0  0  0  0  0  0  0
   -2.7060   -2.8960   -1.6110 H   0  0  0  0  0  0  0  0  0  0  0  0
   -4.4100   -2.3070    0.8790 H   0  0  0  0  0  0  0  0  0  0  0  0
   -2.4270   -1.9930    2.1740 H   0  0  0  0  0  0  0  0  0  0  0  0
  1 11  1  0  0  0  0
  1  2  1  0  0  0  0
  2 12  1  6  0  0  0
  2  3  1  0  0  0  0
  2  7  1  0  0  0  0
  3 14  1  0  0  0  0
  3  4  1  0  0  0  0
  4  5  1  0  0  0  0
  4 15  1  0  0  0  0
  5  6  2  0  0  0  0
  7  8  2  0  0  0  0
  9 17  1  0  0  0  0
  9  5  1  0  0  0  0
 10  1  1  0  0  0  0
 13  3  1  0  0  0  0
 16  4  1  0  0  0  0
 18  7  1  0  0  0  0
 18 19  1  0  0  0  0
 19 20  1  0  0  0  0
 19 29  1  1  0  0  0
 20 31  1  0  0  0  0
 20 30  1  0  0  0  0
 21 20  1  0  0  0  0
 22 32  1  0  0  0  0
 22 21  2  0  0  0  0
 23 22  1  0  0  0  0
 24 23  1  0  0  0  0
 24 25  2  0  0  0  0
 25 21  1  0  0  0  0
 26 41  1  0  0  0  0
 26 19  1  0  0  0  0
 27 26  2  0  0  0  0
 28 18  1  0  0  0  0
 33 23  1  0  0  0  0
 34 24  1  0  0  0  0
 35 36  1  0  0  0  0
 35 45  1  0  0  0  0
 36 37  2  0  0  0  0
 38 39  1  0  0  0  0
 38 47  1  0  0  0  0
 38 36  1  0  0  0  0
 39 40  1  0  0  0  0
 40 42  1  0  0  0  0
 40 51  1  1  0  0  0
 40 41  1  0  0  0  0
 41 52  1  0  0  0  0
 42 44  1  0  0  0  0
 43 42  2  0  0  0  0
 46 35  1  0  0  0  0
 48 38  1  0  0  0  0
 49 39  1  0  0  0  0
 50 39  1  0  0  0  0
M  END
$$$$
