EHS.pdb
 OpenBabel07022418183D

 46 46  0  0  1  0  0  0  0  0999 V2000
    1.7710   -3.6770    0.3840 N   0  0  0  0  0  0  0  0  0  0  0  0
    2.3750   -2.2930    0.5910 C   0  0  1  0  0  0  0  0  0  0  0  0
    2.6310   -1.7820   -0.7470 C   0  0  0  0  0  0  0  0  0  0  0  0
    3.3020   -0.4790   -0.9650 C   0  0  0  0  0  0  0  0  0  0  0  0
    2.7280    0.7410   -0.4620 C   0  0  0  0  0  0  0  0  0  0  0  0
    3.0000    1.2750    0.6360 O   0  0  0  0  0  0  0  0  0  0  0  0
    1.4090   -1.6960    1.4870 C   0  0  0  0  0  0  0  0  0  0  0  0
    1.4460   -2.1510    2.7000 O   0  0  0  0  0  0  0  0  0  0  0  0
    1.7720    1.4290   -1.2390 O   0  0  0  0  0  0  0  0  0  0  0  0
    0.7990   -3.4450    0.0720 H   0  0  0  0  0  0  0  0  0  0  0  0
    1.6680   -4.1130    1.3340 H   0  0  0  0  0  0  0  0  0  0  0  0
    3.3160   -2.5760    1.1520 H   0  0  0  0  0  0  0  0  0  0  0  0
    1.6960   -1.8640   -1.3950 H   0  0  0  0  0  0  0  0  0  0  0  0
    3.3060   -2.5400   -1.2860 H   0  0  0  0  0  0  0  0  0  0  0  0
    4.3750   -0.5740   -0.6230 H   0  0  0  0  0  0  0  0  0  0  0  0
    3.4040   -0.3700   -2.0880 H   0  0  0  0  0  0  0  0  0  0  0  0
    1.1240    2.0570   -0.7830 H   0  0  0  0  0  0  0  0  0  0  0  0
    0.4470   -0.7240    1.2530 N   0  0  0  0  0  0  0  0  0  0  0  0
   -0.4850   -0.2090    2.2320 C   0  0  1  0  0  0  0  0  0  0  0  0
   -0.3050    1.2270    2.5890 C   0  0  0  0  0  0  0  0  0  0  0  0
    0.9750    1.5790    3.2000 C   0  0  0  0  0  0  0  0  0  0  0  0
    1.3000    2.8740    3.5720 C   0  0  0  0  0  0  0  0  0  0  0  0
    2.5280    2.8590    4.0960 N   0  0  0  0  0  0  0  0  0  0  0  0
    2.9800    1.5780    4.0590 C   0  0  0  0  0  0  0  0  0  0  0  0
    2.0160    0.7990    3.5060 N   0  0  0  0  0  0  0  0  0  0  0  0
   -1.8610   -0.4380    1.7330 C   0  0  0  0  0  0  0  0  0  0  0  0
   -2.8690   -0.0420    2.4180 O   0  0  0  0  0  0  0  0  0  0  0  0
    0.3600   -0.3400    0.2910 H   0  0  0  0  0  0  0  0  0  0  0  0
   -0.3430   -0.7920    3.1900 H   0  0  0  0  0  0  0  0  0  0  0  0
   -1.1080    1.5900    3.2840 H   0  0  0  0  0  0  0  0  0  0  0  0
   -0.4080    1.8780    1.6690 H   0  0  0  0  0  0  0  0  0  0  0  0
    0.7070    3.7770    3.4790 H   0  0  0  0  0  0  0  0  0  0  0  0
    3.0810    3.6800    4.4790 H   0  0  0  0  0  0  0  0  0  0  0  0
    3.9510    1.2730    4.4200 H   0  0  0  0  0  0  0  0  0  0  0  0
   -4.7940   -0.7340   -1.9110 O   0  0  0  0  0  0  0  0  0  0  0  0
   -3.5380   -0.5850   -1.3220 C   0  0  0  0  0  0  0  0  0  0  0  0
   -3.4510   -1.3260   -0.0070 C   0  0  2  0  0  0  0  0  0  0  0  0
   -2.1040   -1.0940    0.4990 N   0  0  0  0  0  0  0  0  0  0  0  0
   -3.6600   -2.7800   -0.2300 C   0  0  0  0  0  0  0  0  0  0  0  0
   -2.7190   -3.5720    0.0220 O   0  0  0  0  0  0  0  0  0  0  0  0
   -4.8540   -3.2960   -0.7060 O   0  0  0  0  0  0  0  0  0  0  0  0
   -4.9300   -0.0850   -2.6360 H   0  0  0  0  0  0  0  0  0  0  0  0
   -3.2820    0.4830   -1.1430 H   0  0  0  0  0  0  0  0  0  0  0  0
   -2.7900   -1.0080   -2.0000 H   0  0  0  0  0  0  0  0  0  0  0  0
   -4.2090   -0.9140    0.7000 H   0  0  0  0  0  0  0  0  0  0  0  0
   -1.2950   -1.4220   -0.0610 H   0  0  0  0  0  0  0  0  0  0  0  0
  1  2  1  0  0  0  0
  1 11  1  0  0  0  0
  2 12  1  1  0  0  0
  2  7  1  0  0  0  0
  3  2  1  0  0  0  0
  4  3  1  0  0  0  0
  4 15  1  0  0  0  0
  4  5  1  0  0  0  0
  5  6  2  0  0  0  0
  7  8  2  0  0  0  0
  9 17  1  0  0  0  0
  9  5  1  0  0  0  0
 10  1  1  0  0  0  0
 13  3  1  0  0  0  0
 14  3  1  0  0  0  0
 16  4  1  0  0  0  0
 18  7  1  0  0  0  0
 18 19  1  0  0  0  0
 19 20  1  0  0  0  0
 19 29  1  1  0  0  0
 20 21  1  0  0  0  0
 20 30  1  0  0  0  0
 21 25  1  0  0  0  0
 21 22  2  0  0  0  0
 22 23  1  0  0  0  0
 23 33  1  0  0  0  0
 24 23  1  0  0  0  0
 24 34  1  0  0  0  0
 25 24  2  0  0  0  0
 26 19  1  0  0  0  0
 26 27  2  0  0  0  0
 28 18  1  0  0  0  0
 31 20  1  0  0  0  0
 32 22  1  0  0  0  0
 35 36  1  0  0  0  0
 36 43  1  0  0  0  0
 36 37  1  0  0  0  0
 37 38  1  0  0  0  0
 37 45  1  1  0  0  0
 38 26  1  0  0  0  0
 39 37  1  0  0  0  0
 39 40  1  0  0  0  0
 41 39  2  0  0  0  0
 42 35  1  0  0  0  0
 44 36  1  0  0  0  0
 46 38  1  0  0  0  0
M  END
$$$$
