EHV.pdb
 OpenBabel07022418193D

 51 51  0  0  1  0  0  0  0  0999 V2000
    3.0210   -2.0840   -0.0780 N   0  0  0  0  0  0  0  0  0  0  0  0
    2.3080   -1.4130    0.9600 C   0  0  1  0  0  0  0  0  0  0  0  0
    3.1740   -0.2770    1.5310 C   0  0  0  0  0  0  0  0  0  0  0  0
    3.4570    0.6420    0.3350 C   0  0  0  0  0  0  0  0  0  0  0  0
    4.2850    1.7940    0.7720 C   0  0  0  0  0  0  0  0  0  0  0  0
    4.6260    1.8690    1.9780 O   0  0  0  0  0  0  0  0  0  0  0  0
    1.0260   -0.8250    0.5730 C   0  0  0  0  0  0  0  0  0  0  0  0
    0.5840   -0.7600   -0.5950 O   0  0  0  0  0  0  0  0  0  0  0  0
    4.6690    2.7660   -0.1480 O   0  0  0  0  0  0  0  0  0  0  0  0
    2.9720   -1.6520   -1.0080 H   0  0  0  0  0  0  0  0  0  0  0  0
    3.9580   -2.3290    0.2550 H   0  0  0  0  0  0  0  0  0  0  0  0
    2.1270   -2.1680    1.7800 H   0  0  0  0  0  0  0  0  0  0  0  0
    2.6330    0.2600    2.3180 H   0  0  0  0  0  0  0  0  0  0  0  0
    4.1290   -0.6380    1.9080 H   0  0  0  0  0  0  0  0  0  0  0  0
    2.5470    0.9300   -0.2060 H   0  0  0  0  0  0  0  0  0  0  0  0
    4.0310   -0.0060   -0.3770 H   0  0  0  0  0  0  0  0  0  0  0  0
    5.5020    3.2970    0.0590 H   0  0  0  0  0  0  0  0  0  0  0  0
    0.1950   -0.2770    1.6110 N   0  0  0  0  0  0  0  0  0  0  0  0
   -1.0800    0.3090    1.3160 C   0  0  1  0  0  0  0  0  0  0  0  0
   -0.9730    1.5530    0.5010 C   0  0  0  0  0  0  0  0  0  0  0  0
   -0.1850    2.5600    1.2590 C   0  0  0  0  0  0  0  0  0  0  0  0
   -0.6920    3.5140    2.1540 C   0  0  0  0  0  0  0  0  0  0  0  0
    0.3140    4.2490    2.6460 N   0  0  0  0  0  0  0  0  0  0  0  0
    1.4590    3.7920    2.0910 C   0  0  0  0  0  0  0  0  0  0  0  0
    1.1360    2.7930    1.2740 N   0  0  0  0  0  0  0  0  0  0  0  0
   -2.0890   -0.6660    0.8300 C   0  0  0  0  0  0  0  0  0  0  0  0
   -3.2380   -0.3250    0.4650 O   0  0  0  0  0  0  0  0  0  0  0  0
    0.5410   -0.3150    2.5810 H   0  0  0  0  0  0  0  0  0  0  0  0
   -1.5040    0.6560    2.3200 H   0  0  0  0  0  0  0  0  0  0  0  0
   -1.9660    1.9940    0.3060 H   0  0  0  0  0  0  0  0  0  0  0  0
   -0.4850    1.4010   -0.4820 H   0  0  0  0  0  0  0  0  0  0  0  0
   -1.7500    3.6040    2.3820 H   0  0  0  0  0  0  0  0  0  0  0  0
    0.2320    5.0230    3.3260 H   0  0  0  0  0  0  0  0  0  0  0  0
    2.4460    4.1760    2.2820 H   0  0  0  0  0  0  0  0  0  0  0  0
   -2.0450   -2.8390   -2.0280 C   0  0  0  0  0  0  0  0  0  0  0  0
   -2.2240   -3.8330   -0.8760 C   0  0  0  0  0  0  0  0  0  0  0  0
   -3.3590   -4.7530   -1.2890 C   0  0  0  0  0  0  0  0  0  0  0  0
   -2.6750   -3.0590    0.3110 C   0  0  2  0  0  0  0  0  0  0  0  0
   -1.7840   -2.0340    0.7630 N   0  0  0  0  0  0  0  0  0  0  0  0
   -3.0060   -3.9570    1.4490 C   0  0  0  0  0  0  0  0  0  0  0  0
   -2.5170   -3.7430    2.5760 O   0  0  0  0  0  0  0  0  0  0  0  0
   -3.8580   -5.0390    1.2740 O   0  0  0  0  0  0  0  0  0  0  0  0
   -2.3360   -3.3460   -2.9770 H   0  0  0  0  0  0  0  0  0  0  0  0
   -0.9890   -2.5070   -2.1060 H   0  0  0  0  0  0  0  0  0  0  0  0
   -2.7350   -1.9780   -1.9130 H   0  0  0  0  0  0  0  0  0  0  0  0
   -1.3480   -4.4580   -0.7280 H   0  0  0  0  0  0  0  0  0  0  0  0
   -4.3480   -4.3740   -0.9240 H   0  0  0  0  0  0  0  0  0  0  0  0
   -3.4300   -4.8230   -2.4100 H   0  0  0  0  0  0  0  0  0  0  0  0
   -3.2060   -5.7940   -0.9340 H   0  0  0  0  0  0  0  0  0  0  0  0
   -3.6330   -2.5590    0.0300 H   0  0  0  0  0  0  0  0  0  0  0  0
   -0.8380   -2.3590    1.0680 H   0  0  0  0  0  0  0  0  0  0  0  0
  1 11  1  0  0  0  0
  1  2  1  0  0  0  0
  2  3  1  0  0  0  0
  2 12  1  1  0  0  0
  3 14  1  0  0  0  0
  3 13  1  0  0  0  0
  4  5  1  0  0  0  0
  4  3  1  0  0  0  0
  5  6  2  0  0  0  0
  7  2  1  0  0  0  0
  7 18  1  0  0  0  0
  8  7  2  0  0  0  0
  9 17  1  0  0  0  0
  9  5  1  0  0  0  0
 10  1  1  0  0  0  0
 15  4  1  0  0  0  0
 16  4  1  0  0  0  0
 18 28  1  0  0  0  0
 19 18  1  0  0  0  0
 19 29  1  1  0  0  0
 20 21  1  0  0  0  0
 20 19  1  0  0  0  0
 21 25  1  0  0  0  0
 21 22  2  0  0  0  0
 22 32  1  0  0  0  0
 22 23  1  0  0  0  0
 23 33  1  0  0  0  0
 24 34  1  0  0  0  0
 24 23  1  0  0  0  0
 25 24  2  0  0  0  0
 26 19  1  0  0  0  0
 27 26  2  0  0  0  0
 30 20  1  0  0  0  0
 31 20  1  0  0  0  0
 35 45  1  0  0  0  0
 35 36  1  0  0  0  0
 36 46  1  0  0  0  0
 36 38  1  0  0  0  0
 37 49  1  0  0  0  0
 37 47  1  0  0  0  0
 37 36  1  0  0  0  0
 38 50  1  6  0  0  0
 38 39  1  0  0  0  0
 38 40  1  0  0  0  0
 39 26  1  0  0  0  0
 39 51  1  0  0  0  0
 40 41  1  0  0  0  0
 42 40  2  0  0  0  0
 43 35  1  0  0  0  0
 44 35  1  0  0  0  0
 48 37  1  0  0  0  0
M  END
$$$$
