EHW.pdb
 OpenBabel07022418183D

 59 61  0  0  1  0  0  0  0  0999 V2000
    3.9740   -0.4190    0.7910 N   0  0  0  0  0  0  0  0  0  0  0  0
    3.3020   -1.3130    1.7470 C   0  0  1  0  0  0  0  0  0  0  0  0
    3.9700   -1.2140    3.0610 C   0  0  0  0  0  0  0  0  0  0  0  0
    4.0440    0.1330    3.6970 C   0  0  0  0  0  0  0  0  0  0  0  0
    2.8180    0.8120    4.0430 C   0  0  0  0  0  0  0  0  0  0  0  0
    1.6870    0.3420    3.9170 O   0  0  0  0  0  0  0  0  0  0  0  0
    1.8520   -1.2670    1.6880 C   0  0  0  0  0  0  0  0  0  0  0  0
    1.0880   -2.0730    2.2990 O   0  0  0  0  0  0  0  0  0  0  0  0
    2.8880    2.1180    4.5680 O   0  0  0  0  0  0  0  0  0  0  0  0
    5.0020   -0.6650    0.8740 H   0  0  0  0  0  0  0  0  0  0  0  0
    3.6980   -0.7410   -0.1640 H   0  0  0  0  0  0  0  0  0  0  0  0
    3.6530   -2.3490    1.3410 H   0  0  0  0  0  0  0  0  0  0  0  0
    3.5010   -1.9710    3.7520 H   0  0  0  0  0  0  0  0  0  0  0  0
    5.0470   -1.5810    3.0160 H   0  0  0  0  0  0  0  0  0  0  0  0
    4.6950    0.7760    3.0250 H   0  0  0  0  0  0  0  0  0  0  0  0
    4.7200   -0.0050    4.6120 H   0  0  0  0  0  0  0  0  0  0  0  0
    2.1230    2.5180    5.0830 H   0  0  0  0  0  0  0  0  0  0  0  0
    1.1770   -0.2810    0.9130 N   0  0  0  0  0  0  0  0  0  0  0  0
   -0.2460   -0.2100    0.8330 C   0  0  1  0  0  0  0  0  0  0  0  0
   -0.8400    1.0680    1.3300 C   0  0  0  0  0  0  0  0  0  0  0  0
   -0.3400    2.2550    0.5560 C   0  0  0  0  0  0  0  0  0  0  0  0
   -0.7090    3.5620    0.7860 C   0  0  0  0  0  0  0  0  0  0  0  0
   -0.0800    4.3710   -0.0830 N   0  0  0  0  0  0  0  0  0  0  0  0
    0.6680    3.5640   -0.8370 C   0  0  0  0  0  0  0  0  0  0  0  0
    0.5250    2.2830   -0.4670 N   0  0  0  0  0  0  0  0  0  0  0  0
   -0.7090   -0.4160   -0.5620 C   0  0  0  0  0  0  0  0  0  0  0  0
    0.1450   -0.6030   -1.4620 O   0  0  0  0  0  0  0  0  0  0  0  0
    1.7310    0.4250    0.3750 H   0  0  0  0  0  0  0  0  0  0  0  0
   -0.6570   -1.0290    1.4570 H   0  0  0  0  0  0  0  0  0  0  0  0
   -1.9330    1.0320    1.1450 H   0  0  0  0  0  0  0  0  0  0  0  0
   -0.7210    1.2300    2.4210 H   0  0  0  0  0  0  0  0  0  0  0  0
   -1.4170    3.8890    1.5680 H   0  0  0  0  0  0  0  0  0  0  0  0
   -0.1880    5.4160   -0.1190 H   0  0  0  0  0  0  0  0  0  0  0  0
    1.3000    3.9650   -1.6440 H   0  0  0  0  0  0  0  0  0  0  0  0
   -2.0630   -0.4130   -0.9210 N   0  0  0  0  0  0  0  0  0  0  0  0
   -2.5600   -0.6080   -2.2620 C   0  0  1  0  0  0  0  0  0  0  0  0
   -3.2760   -1.9370   -2.3230 C   0  0  0  0  0  0  0  0  0  0  0  0
   -2.4530   -3.1030   -2.0060 C   0  0  0  0  0  0  0  0  0  0  0  0
   -1.8150   -3.9330   -2.9400 C   0  0  0  0  0  0  0  0  0  0  0  0
   -1.1190   -4.8780   -2.3020 N   0  0  0  0  0  0  0  0  0  0  0  0
   -1.2820   -4.6920   -0.9650 C   0  0  0  0  0  0  0  0  0  0  0  0
   -0.7730   -5.4100    0.1120 C   0  0  0  0  0  0  0  0  0  0  0  0
   -1.0660   -5.0660    1.4130 C   0  0  0  0  0  0  0  0  0  0  0  0
   -1.8880   -3.9740    1.5850 C   0  0  0  0  0  0  0  0  0  0  0  0
   -2.4050   -3.2460    0.5350 C   0  0  0  0  0  0  0  0  0  0  0  0
   -2.1030   -3.6000   -0.7780 C   0  0  0  0  0  0  0  0  0  0  0  0
   -3.5350    0.4360   -2.6350 C   0  0  0  0  0  0  0  0  0  0  0  0
   -4.0670    0.4170   -3.7660 O   0  0  0  0  0  0  0  0  0  0  0  0
   -3.8770    1.4440   -1.7550 O   0  0  0  0  0  0  0  0  0  0  0  0
   -2.7870   -0.2490   -0.1810 H   0  0  0  0  0  0  0  0  0  0  0  0
   -1.7060   -0.6430   -2.9900 H   0  0  0  0  0  0  0  0  0  0  0  0
   -3.7080   -2.0400   -3.3580 H   0  0  0  0  0  0  0  0  0  0  0  0
   -4.1650   -1.8910   -1.6350 H   0  0  0  0  0  0  0  0  0  0  0  0
   -1.8920   -3.8050   -4.0250 H   0  0  0  0  0  0  0  0  0  0  0  0
   -0.5290   -5.6570   -2.6990 H   0  0  0  0  0  0  0  0  0  0  0  0
   -0.1260   -6.2680   -0.0600 H   0  0  0  0  0  0  0  0  0  0  0  0
   -0.6600   -5.6360    2.2350 H   0  0  0  0  0  0  0  0  0  0  0  0
   -2.1270   -3.6930    2.6130 H   0  0  0  0  0  0  0  0  0  0  0  0
   -3.0530   -2.4110    0.6890 H   0  0  0  0  0  0  0  0  0  0  0  0
  1 10  1  0  0  0  0
  1  2  1  0  0  0  0
  2 12  1  6  0  0  0
  2  3  1  0  0  0  0
  3  4  1  0  0  0  0
  3 13  1  0  0  0  0
  4  5  1  0  0  0  0
  4 16  1  0  0  0  0
  5  9  1  0  0  0  0
  6  5  2  0  0  0  0
  7  2  1  0  0  0  0
  7  8  2  0  0  0  0
  9 17  1  0  0  0  0
 11  1  1  0  0  0  0
 14  3  1  0  0  0  0
 15  4  1  0  0  0  0
 18  7  1  0  0  0  0
 19 18  1  0  0  0  0
 19 20  1  0  0  0  0
 19 29  1  1  0  0  0
 20 31  1  0  0  0  0
 21 22  2  0  0  0  0
 21 20  1  0  0  0  0
 22 32  1  0  0  0  0
 23 22  1  0  0  0  0
 24 25  2  0  0  0  0
 24 23  1  0  0  0  0
 25 21  1  0  0  0  0
 26 19  1  0  0  0  0
 27 26  2  0  0  0  0
 28 18  1  0  0  0  0
 30 20  1  0  0  0  0
 33 23  1  0  0  0  0
 34 24  1  0  0  0  0
 35 26  1  0  0  0  0
 35 50  1  0  0  0  0
 36 51  1  6  0  0  0
 36 35  1  0  0  0  0
 37 36  1  0  0  0  0
 37 38  1  0  0  0  0
 37 53  1  0  0  0  0
 38 46  1  0  0  0  0
 39 40  1  0  0  0  0
 39 38  2  0  0  0  0
 40 41  1  0  0  0  0
 41 46  2  0  0  0  0
 41 42  1  0  0  0  0
 42 43  2  0  0  0  0
 43 44  1  0  0  0  0
 43 57  1  0  0  0  0
 44 58  1  0  0  0  0
 45 59  1  0  0  0  0
 45 44  2  0  0  0  0
 46 45  1  0  0  0  0
 47 36  1  0  0  0  0
 47 49  1  0  0  0  0
 48 47  2  0  0  0  0
 52 37  1  0  0  0  0
 54 39  1  0  0  0  0
 55 40  1  0  0  0  0
 56 42  1  0  0  0  0
M  END
$$$$
