EIC.pdb
 OpenBabel07022418193D

 48 47  0  0  1  0  0  0  0  0999 V2000
    0.7020   -0.8570    5.4810 N   0  0  0  0  0  0  0  0  0  0  0  0
    1.1800   -1.2790    4.1410 C   0  0  1  0  0  0  0  0  0  0  0  0
    1.0110   -2.7910    4.1720 C   0  0  0  0  0  0  0  0  0  0  0  0
    1.4510   -3.4820    2.9250 C   0  0  0  0  0  0  0  0  0  0  0  0
    2.8990   -3.2410    2.6870 C   0  0  0  0  0  0  0  0  0  0  0  0
    3.6960   -3.4740    3.6540 O   0  0  0  0  0  0  0  0  0  0  0  0
    0.2540   -0.6580    3.1710 C   0  0  0  0  0  0  0  0  0  0  0  0
   -0.8140   -0.1560    3.5880 O   0  0  0  0  0  0  0  0  0  0  0  0
    3.3880   -2.7870    1.5010 O   0  0  0  0  0  0  0  0  0  0  0  0
    0.5660    0.1790    5.5180 H   0  0  0  0  0  0  0  0  0  0  0  0
   -0.1380   -1.4020    5.6930 H   0  0  0  0  0  0  0  0  0  0  0  0
    2.2160   -0.9650    4.0690 H   0  0  0  0  0  0  0  0  0  0  0  0
    1.6010   -3.1240    5.0540 H   0  0  0  0  0  0  0  0  0  0  0  0
   -0.0610   -2.9680    4.3920 H   0  0  0  0  0  0  0  0  0  0  0  0
    1.3480   -4.5890    3.1380 H   0  0  0  0  0  0  0  0  0  0  0  0
    0.8660   -3.1930    2.0540 H   0  0  0  0  0  0  0  0  0  0  0  0
    4.0870   -2.0360    1.5050 H   0  0  0  0  0  0  0  0  0  0  0  0
    1.8080    2.3940   -1.1270 C   0  0  0  0  0  0  0  0  0  0  0  0
    1.3630    1.0200   -0.6030 C   0  0  0  0  0  0  0  0  0  0  0  0
    0.1280    1.2500    0.2050 C   0  0  2  0  0  0  0  0  0  0  0  0
    0.5090    2.2040    1.3460 C   0  0  0  0  0  0  0  0  0  0  0  0
   -0.4570    0.0360    0.8430 C   0  0  2  0  0  0  0  0  0  0  0  0
    0.4990   -0.5880    1.7570 N   0  0  0  0  0  0  0  0  0  0  0  0
   -0.9930   -0.9440   -0.1260 C   0  0  0  0  0  0  0  0  0  0  0  0
   -0.5720   -2.1250   -0.0390 O   0  0  0  0  0  0  0  0  0  0  0  0
    2.2830    2.3500   -2.1020 H   0  0  0  0  0  0  0  0  0  0  0  0
    0.8710    3.0200   -1.2450 H   0  0  0  0  0  0  0  0  0  0  0  0
    2.4750    2.8820   -0.3820 H   0  0  0  0  0  0  0  0  0  0  0  0
    1.2540    0.3000   -1.4150 H   0  0  0  0  0  0  0  0  0  0  0  0
    2.2000    0.6840    0.0440 H   0  0  0  0  0  0  0  0  0  0  0  0
   -0.6530    1.7800   -0.3730 H   0  0  0  0  0  0  0  0  0  0  0  0
    1.2130    1.6880    1.9970 H   0  0  0  0  0  0  0  0  0  0  0  0
   -0.4060    2.4720    1.9390 H   0  0  0  0  0  0  0  0  0  0  0  0
    0.8750    3.1720    0.9330 H   0  0  0  0  0  0  0  0  0  0  0  0
   -1.3160    0.3600    1.4600 H   0  0  0  0  0  0  0  0  0  0  0  0
    1.3890   -0.9860    1.4040 H   0  0  0  0  0  0  0  0  0  0  0  0
   -1.9510   -0.5880   -1.1280 N   0  0  0  0  0  0  0  0  0  0  0  0
   -2.4600   -1.5650   -2.0530 C   0  0  1  0  0  0  0  0  0  0  0  0
   -3.9510   -1.6990   -2.0290 C   0  0  0  0  0  0  0  0  0  0  0  0
   -4.7930   -0.1590   -2.4510 S   0  0  0  0  0  0  0  0  0  0  0  0
   -1.9350   -1.3630   -3.4440 C   0  0  0  0  0  0  0  0  0  0  0  0
   -2.2900   -2.1310   -4.3810 O   0  0  0  0  0  0  0  0  0  0  0  0
   -1.0500   -0.3430   -3.7680 O   0  0  0  0  0  0  0  0  0  0  0  0
   -2.2340    0.4250   -1.1130 H   0  0  0  0  0  0  0  0  0  0  0  0
   -2.0380   -2.5620   -1.7380 H   0  0  0  0  0  0  0  0  0  0  0  0
   -4.2630   -2.5370   -2.6570 H   0  0  0  0  0  0  0  0  0  0  0  0
   -4.2680   -1.9640   -0.9750 H   0  0  0  0  0  0  0  0  0  0  0  0
   -4.2430    0.4480   -3.5850 H   0  0  0  0  0  0  0  0  0  0  0  0
  1 10  1  0  0  0  0
  1 11  1  0  0  0  0
  2 12  1  6  0  0  0
  2  3  1  0  0  0  0
  2  1  1  0  0  0  0
  3 14  1  0  0  0  0
  3 13  1  0  0  0  0
  4 15  1  0  0  0  0
  4  3  1  0  0  0  0
  5  4  1  0  0  0  0
  5  6  2  0  0  0  0
  7  8  2  0  0  0  0
  7  2  1  0  0  0  0
  9 17  1  0  0  0  0
  9  5  1  0  0  0  0
 16  4  1  0  0  0  0
 18 19  1  0  0  0  0
 18 28  1  0  0  0  0
 19 30  1  0  0  0  0
 19 20  1  0  0  0  0
 20 31  1  6  0  0  0
 20 22  1  0  0  0  0
 20 21  1  0  0  0  0
 21 33  1  0  0  0  0
 21 32  1  0  0  0  0
 22 35  1  1  0  0  0
 22 23  1  0  0  0  0
 23  7  1  0  0  0  0
 24 25  2  0  0  0  0
 24 22  1  0  0  0  0
 26 18  1  0  0  0  0
 27 18  1  0  0  0  0
 29 19  1  0  0  0  0
 34 21  1  0  0  0  0
 36 23  1  0  0  0  0
 37 44  1  0  0  0  0
 37 24  1  0  0  0  0
 38 39  1  0  0  0  0
 38 45  1  1  0  0  0
 38 37  1  0  0  0  0
 39 47  1  0  0  0  0
 40 39  1  0  0  0  0
 41 38  1  0  0  0  0
 42 41  2  0  0  0  0
 43 41  1  0  0  0  0
 46 39  1  0  0  0  0
 48 40  1  0  0  0  0
M  END
$$$$
