EIF.pdb
 OpenBabel07022418193D

 57 57  0  0  1  0  0  0  0  0999 V2000
    3.1340   -0.7590    1.6940 N   0  0  0  0  0  0  0  0  0  0  0  0
    2.6480   -1.1310    3.0090 C   0  0  1  0  0  0  0  0  0  0  0  0
    3.3350   -0.2500    4.0230 C   0  0  0  0  0  0  0  0  0  0  0  0
    3.0470    1.2170    3.7760 C   0  0  0  0  0  0  0  0  0  0  0  0
    3.7270    2.0730    4.7820 C   0  0  0  0  0  0  0  0  0  0  0  0
    4.4240    1.5830    5.7020 O   0  0  0  0  0  0  0  0  0  0  0  0
    1.1800   -1.0470    3.0430 C   0  0  0  0  0  0  0  0  0  0  0  0
    0.6210   -1.4080    4.1210 O   0  0  0  0  0  0  0  0  0  0  0  0
    3.5440    3.4560    4.6380 O   0  0  0  0  0  0  0  0  0  0  0  0
    4.1430   -0.5580    1.6850 H   0  0  0  0  0  0  0  0  0  0  0  0
    2.8580   -1.5250    1.0190 H   0  0  0  0  0  0  0  0  0  0  0  0
    2.9940   -2.1690    3.2030 H   0  0  0  0  0  0  0  0  0  0  0  0
    3.1010   -0.5630    5.0620 H   0  0  0  0  0  0  0  0  0  0  0  0
    4.4270   -0.3960    3.8950 H   0  0  0  0  0  0  0  0  0  0  0  0
    1.9490    1.3320    3.7970 H   0  0  0  0  0  0  0  0  0  0  0  0
    3.4950    1.4770    2.7930 H   0  0  0  0  0  0  0  0  0  0  0  0
    4.2660    4.0590    5.0550 H   0  0  0  0  0  0  0  0  0  0  0  0
   -1.7210    2.9580    0.4820 C   0  0  0  0  0  0  0  0  0  0  0  0
   -1.0620    1.6330    0.6770 C   0  0  0  0  0  0  0  0  0  0  0  0
   -1.5040    0.9340    1.9320 C   0  0  2  0  0  0  0  0  0  0  0  0
   -1.2250    1.6860    3.1940 C   0  0  0  0  0  0  0  0  0  0  0  0
   -1.0190   -0.5150    1.9840 C   0  0  2  0  0  0  0  0  0  0  0  0
    0.4160   -0.5890    1.9400 N   0  0  0  0  0  0  0  0  0  0  0  0
   -1.6400   -1.2650    0.8730 C   0  0  0  0  0  0  0  0  0  0  0  0
   -2.8890   -1.3290    0.7400 O   0  0  0  0  0  0  0  0  0  0  0  0
   -1.5140    3.6470    1.3320 H   0  0  0  0  0  0  0  0  0  0  0  0
   -1.2490    3.4410   -0.4150 H   0  0  0  0  0  0  0  0  0  0  0  0
   -2.8190    2.8330    0.3260 H   0  0  0  0  0  0  0  0  0  0  0  0
   -1.3070    1.0050   -0.2060 H   0  0  0  0  0  0  0  0  0  0  0  0
    0.0340    1.7950    0.6310 H   0  0  0  0  0  0  0  0  0  0  0  0
   -2.6320    0.8670    1.8470 H   0  0  0  0  0  0  0  0  0  0  0  0
   -0.4390    1.1970    3.8370 H   0  0  0  0  0  0  0  0  0  0  0  0
   -0.8270    2.7270    3.0130 H   0  0  0  0  0  0  0  0  0  0  0  0
   -2.1590    1.8540    3.8090 H   0  0  0  0  0  0  0  0  0  0  0  0
   -1.3960   -0.9410    2.9370 H   0  0  0  0  0  0  0  0  0  0  0  0
    0.9220   -0.3020    1.0810 H   0  0  0  0  0  0  0  0  0  0  0  0
   -0.8290   -1.9320   -0.0740 N   0  0  0  0  0  0  0  0  0  0  0  0
   -1.4200   -2.6760   -1.1830 C   0  0  1  0  0  0  0  0  0  0  0  0
   -0.9940   -1.9100   -2.4340 C   0  0  0  0  0  0  0  0  0  0  0  0
   -1.5060   -2.5110   -3.6800 C   0  0  0  0  0  0  0  0  0  0  0  0
   -0.7740   -3.4420   -4.3740 C   0  0  0  0  0  0  0  0  0  0  0  0
   -1.2440   -4.0160   -5.5480 C   0  0  0  0  0  0  0  0  0  0  0  0
   -2.4770   -3.6200   -5.9990 C   0  0  0  0  0  0  0  0  0  0  0  0
   -3.2250   -2.6810   -5.3070 C   0  0  0  0  0  0  0  0  0  0  0  0
   -2.7290   -2.1300   -4.1450 C   0  0  0  0  0  0  0  0  0  0  0  0
   -0.8600   -4.0410   -1.1580 C   0  0  0  0  0  0  0  0  0  0  0  0
   -1.1990   -4.9230   -1.9940 O   0  0  0  0  0  0  0  0  0  0  0  0
    0.0660   -4.4220   -0.2140 O   0  0  0  0  0  0  0  0  0  0  0  0
    0.2000   -1.8910    0.0230 H   0  0  0  0  0  0  0  0  0  0  0  0
   -2.5280   -2.6420   -1.0720 H   0  0  0  0  0  0  0  0  0  0  0  0
    0.1100   -1.7880   -2.4230 H   0  0  0  0  0  0  0  0  0  0  0  0
   -1.4420   -0.8790   -2.3310 H   0  0  0  0  0  0  0  0  0  0  0  0
    0.1960   -3.7500   -4.0240 H   0  0  0  0  0  0  0  0  0  0  0  0
   -0.6160   -4.7390   -6.0370 H   0  0  0  0  0  0  0  0  0  0  0  0
   -2.8890   -4.0320   -6.9020 H   0  0  0  0  0  0  0  0  0  0  0  0
   -4.1980   -2.3450   -5.6330 H   0  0  0  0  0  0  0  0  0  0  0  0
   -3.3180   -1.3990   -3.6120 H   0  0  0  0  0  0  0  0  0  0  0  0
  1  2  1  0  0  0  0
  2  7  1  0  0  0  0
  2 12  1  1  0  0  0
  2  3  1  0  0  0  0
  3 13  1  0  0  0  0
  4 15  1  0  0  0  0
  4  3  1  0  0  0  0
  4  5  1  0  0  0  0
  5  6  2  0  0  0  0
  7  8  2  0  0  0  0
  9  5  1  0  0  0  0
  9 17  1  0  0  0  0
 10  1  1  0  0  0  0
 11  1  1  0  0  0  0
 14  3  1  0  0  0  0
 16  4  1  0  0  0  0
 18 19  1  0  0  0  0
 18 26  1  0  0  0  0
 19 20  1  0  0  0  0
 20 31  1  6  0  0  0
 20 22  1  0  0  0  0
 20 21  1  0  0  0  0
 21 34  1  0  0  0  0
 21 32  1  0  0  0  0
 22 35  1  1  0  0  0
 23 22  1  0  0  0  0
 23  7  1  0  0  0  0
 24 22  1  0  0  0  0
 25 24  2  0  0  0  0
 27 18  1  0  0  0  0
 28 18  1  0  0  0  0
 29 19  1  0  0  0  0
 30 19  1  0  0  0  0
 33 21  1  0  0  0  0
 36 23  1  0  0  0  0
 37 49  1  0  0  0  0
 37 24  1  0  0  0  0
 38 46  1  0  0  0  0
 38 50  1  1  0  0  0
 38 37  1  0  0  0  0
 39 51  1  0  0  0  0
 39 52  1  0  0  0  0
 39 38  1  0  0  0  0
 40 39  1  0  0  0  0
 41 53  1  0  0  0  0
 41 40  2  0  0  0  0
 42 41  1  0  0  0  0
 43 42  2  0  0  0  0
 43 44  1  0  0  0  0
 44 45  2  0  0  0  0
 45 40  1  0  0  0  0
 45 57  1  0  0  0  0
 46 48  1  0  0  0  0
 47 46  2  0  0  0  0
 54 42  1  0  0  0  0
 55 43  1  0  0  0  0
 56 44  1  0  0  0  0
M  END
$$$$
