EIN.pdb
 OpenBabel07022418193D

 51 50  0  0  1  0  0  0  0  0999 V2000
    0.9040   -2.8960    4.7140 N   0  0  0  0  0  0  0  0  0  0  0  0
    1.2300   -2.5300    3.3040 C   0  0  1  0  0  0  0  0  0  0  0  0
    0.8430   -3.7140    2.5220 C   0  0  0  0  0  0  0  0  0  0  0  0
    1.0380   -3.7380    1.0670 C   0  0  0  0  0  0  0  0  0  0  0  0
    2.4200   -3.5560    0.6040 C   0  0  0  0  0  0  0  0  0  0  0  0
    3.3950   -3.3840    1.3530 O   0  0  0  0  0  0  0  0  0  0  0  0
    0.5380   -1.2610    3.0440 C   0  0  0  0  0  0  0  0  0  0  0  0
   -0.1950   -0.7860    4.0020 O   0  0  0  0  0  0  0  0  0  0  0  0
    2.6660   -3.5740   -0.7630 O   0  0  0  0  0  0  0  0  0  0  0  0
    1.0180   -3.9290    4.8480 H   0  0  0  0  0  0  0  0  0  0  0  0
   -0.1090   -2.6770    4.8590 H   0  0  0  0  0  0  0  0  0  0  0  0
    2.3470   -2.3900    3.3710 H   0  0  0  0  0  0  0  0  0  0  0  0
    1.4290   -4.5860    2.9490 H   0  0  0  0  0  0  0  0  0  0  0  0
   -0.2150   -3.9790    2.8330 H   0  0  0  0  0  0  0  0  0  0  0  0
    0.7280   -4.7550    0.6450 H   0  0  0  0  0  0  0  0  0  0  0  0
    0.3510   -3.0420    0.5700 H   0  0  0  0  0  0  0  0  0  0  0  0
    3.4700   -3.1470   -1.1910 H   0  0  0  0  0  0  0  0  0  0  0  0
    2.2440    2.7920   -0.6530 C   0  0  0  0  0  0  0  0  0  0  0  0
    1.5520    1.5730   -0.1220 C   0  0  0  0  0  0  0  0  0  0  0  0
    0.8300    1.8490    1.1850 C   0  0  2  0  0  0  0  0  0  0  0  0
    1.8040    2.3080    2.2170 C   0  0  0  0  0  0  0  0  0  0  0  0
   -0.0370    0.7000    1.6080 C   0  0  2  0  0  0  0  0  0  0  0  0
    0.6260   -0.5330    1.8250 N   0  0  0  0  0  0  0  0  0  0  0  0
   -1.2120    0.6590    0.7120 C   0  0  0  0  0  0  0  0  0  0  0  0
   -1.7550    1.7580    0.4310 O   0  0  0  0  0  0  0  0  0  0  0  0
    1.6860    3.7210   -0.3800 H   0  0  0  0  0  0  0  0  0  0  0  0
    2.2410    2.7520   -1.7620 H   0  0  0  0  0  0  0  0  0  0  0  0
    3.3190    2.8510   -0.3640 H   0  0  0  0  0  0  0  0  0  0  0  0
    0.8320    1.2310   -0.9110 H   0  0  0  0  0  0  0  0  0  0  0  0
    2.2970    0.7710   -0.0310 H   0  0  0  0  0  0  0  0  0  0  0  0
    0.1410    2.7050    0.9860 H   0  0  0  0  0  0  0  0  0  0  0  0
    2.4980    1.5390    2.5740 H   0  0  0  0  0  0  0  0  0  0  0  0
    2.4520    3.0830    1.7120 H   0  0  0  0  0  0  0  0  0  0  0  0
    1.3130    2.8790    3.0500 H   0  0  0  0  0  0  0  0  0  0  0  0
   -0.4660    0.9930    2.6290 H   0  0  0  0  0  0  0  0  0  0  0  0
    1.2150   -0.9320    1.0730 H   0  0  0  0  0  0  0  0  0  0  0  0
   -1.7130    0.1070   -3.8740 N   0  0  0  0  0  0  0  0  0  0  0  0
   -1.5050   -0.6410   -2.6950 C   0  0  0  0  0  0  0  0  0  0  0  0
   -0.3560   -0.8300   -2.2630 O   0  0  0  0  0  0  0  0  0  0  0  0
   -2.6540   -1.2040   -1.9670 C   0  0  0  0  0  0  0  0  0  0  0  0
   -2.8870   -0.4670   -0.6910 C   0  0  2  0  0  0  0  0  0  0  0  0
   -1.7210   -0.5370    0.1880 N   0  0  0  0  0  0  0  0  0  0  0  0
   -4.0310   -1.1080    0.0070 C   0  0  0  0  0  0  0  0  0  0  0  0
   -3.9010   -1.5920    1.1460 O   0  0  0  0  0  0  0  0  0  0  0  0
   -5.2550   -1.1650   -0.6210 O   0  0  0  0  0  0  0  0  0  0  0  0
   -2.5640    0.6770   -4.0660 H   0  0  0  0  0  0  0  0  0  0  0  0
   -0.9750    0.1100   -4.6340 H   0  0  0  0  0  0  0  0  0  0  0  0
   -3.5730   -1.1010   -2.5860 H   0  0  0  0  0  0  0  0  0  0  0  0
   -2.4550   -2.2770   -1.7140 H   0  0  0  0  0  0  0  0  0  0  0  0
   -3.1420    0.6050   -0.8960 H   0  0  0  0  0  0  0  0  0  0  0  0
   -1.3420   -1.4760    0.3730 H   0  0  0  0  0  0  0  0  0  0  0  0
  1 10  1  0  0  0  0
  1 11  1  0  0  0  0
  2 12  1  6  0  0  0
  2  1  1  0  0  0  0
  3 14  1  0  0  0  0
  3 13  1  0  0  0  0
  3  2  1  0  0  0  0
  4  3  1  0  0  0  0
  5  4  1  0  0  0  0
  5  6  2  0  0  0  0
  7  2  1  0  0  0  0
  7  8  2  0  0  0  0
  9  5  1  0  0  0  0
 15  4  1  0  0  0  0
 16  4  1  0  0  0  0
 17  9  1  0  0  0  0
 18 26  1  0  0  0  0
 18 28  1  0  0  0  0
 18 19  1  0  0  0  0
 19 30  1  0  0  0  0
 19 20  1  0  0  0  0
 20 31  1  6  0  0  0
 20 22  1  0  0  0  0
 20 21  1  0  0  0  0
 21 32  1  0  0  0  0
 21 34  1  0  0  0  0
 22 23  1  0  0  0  0
 22 35  1  1  0  0  0
 23  7  1  0  0  0  0
 24 22  1  0  0  0  0
 25 24  2  0  0  0  0
 27 18  1  0  0  0  0
 29 19  1  0  0  0  0
 33 21  1  0  0  0  0
 36 23  1  0  0  0  0
 37 38  1  0  0  0  0
 38 39  2  0  0  0  0
 38 40  1  0  0  0  0
 40 49  1  0  0  0  0
 40 41  1  0  0  0  0
 41 50  1  6  0  0  0
 41 43  1  0  0  0  0
 41 42  1  0  0  0  0
 42 51  1  0  0  0  0
 42 24  1  0  0  0  0
 43 44  1  0  0  0  0
 45 43  2  0  0  0  0
 46 37  1  0  0  0  0
 47 37  1  0  0  0  0
 48 40  1  0  0  0  0
M  END
$$$$
