EIP.pdb
 OpenBabel07022418193D

 51 51  0  0  1  0  0  0  0  0999 V2000
    0.8990   -4.5380    1.7000 N   0  0  0  0  0  0  0  0  0  0  0  0
    1.0870   -3.2800    0.9770 C   0  0  1  0  0  0  0  0  0  0  0  0
    0.2830   -3.3760   -0.2790 C   0  0  0  0  0  0  0  0  0  0  0  0
    0.7280   -4.5350   -1.1520 C   0  0  0  0  0  0  0  0  0  0  0  0
   -0.0690   -4.6120   -2.3900 C   0  0  0  0  0  0  0  0  0  0  0  0
   -0.9700   -3.7790   -2.6120 O   0  0  0  0  0  0  0  0  0  0  0  0
    0.6470   -2.1570    1.8390 C   0  0  0  0  0  0  0  0  0  0  0  0
    0.2080   -2.4170    3.0140 O   0  0  0  0  0  0  0  0  0  0  0  0
    0.1790   -5.6060   -3.3090 O   0  0  0  0  0  0  0  0  0  0  0  0
    1.5640   -5.2740    1.3930 H   0  0  0  0  0  0  0  0  0  0  0  0
   -0.0820   -4.8570    1.6400 H   0  0  0  0  0  0  0  0  0  0  0  0
    2.1830   -3.1930    0.7490 H   0  0  0  0  0  0  0  0  0  0  0  0
    0.4480   -2.4430   -0.8680 H   0  0  0  0  0  0  0  0  0  0  0  0
   -0.8000   -3.4260   -0.0590 H   0  0  0  0  0  0  0  0  0  0  0  0
    1.8100   -4.5630   -1.2910 H   0  0  0  0  0  0  0  0  0  0  0  0
    0.4810   -5.4630   -0.5540 H   0  0  0  0  0  0  0  0  0  0  0  0
   -0.4470   -5.8590   -4.0710 H   0  0  0  0  0  0  0  0  0  0  0  0
    3.0480    2.7380    1.6660 C   0  0  0  0  0  0  0  0  0  0  0  0
    1.9130    1.7790    1.3710 C   0  0  0  0  0  0  0  0  0  0  0  0
    1.4180    1.1340    2.6620 C   0  0  2  0  0  0  0  0  0  0  0  0
    2.5140    0.3710    3.3340 C   0  0  0  0  0  0  0  0  0  0  0  0
    0.2470    0.2120    2.3510 C   0  0  2  0  0  0  0  0  0  0  0  0
    0.6790   -0.7900    1.4520 N   0  0  0  0  0  0  0  0  0  0  0  0
   -0.8930    1.0440    1.9650 C   0  0  0  0  0  0  0  0  0  0  0  0
   -1.1880    2.0110    2.8080 O   0  0  0  0  0  0  0  0  0  0  0  0
    3.1630    3.4170    0.7910 H   0  0  0  0  0  0  0  0  0  0  0  0
    2.8010    3.3630    2.5530 H   0  0  0  0  0  0  0  0  0  0  0  0
    4.0020    2.2020    1.7740 H   0  0  0  0  0  0  0  0  0  0  0  0
    2.3310    1.0060    0.6940 H   0  0  0  0  0  0  0  0  0  0  0  0
    1.0650    2.3180    0.9000 H   0  0  0  0  0  0  0  0  0  0  0  0
    1.0460    1.9020    3.3620 H   0  0  0  0  0  0  0  0  0  0  0  0
    2.8230   -0.5370    2.7490 H   0  0  0  0  0  0  0  0  0  0  0  0
    3.3840    1.0180    3.5380 H   0  0  0  0  0  0  0  0  0  0  0  0
    2.1660   -0.0110    4.3110 H   0  0  0  0  0  0  0  0  0  0  0  0
   -0.0370   -0.2200    3.3630 H   0  0  0  0  0  0  0  0  0  0  0  0
    1.0380   -0.5540    0.5120 H   0  0  0  0  0  0  0  0  0  0  0  0
   -1.7190    0.9800    0.8460 N   0  0  0  0  0  0  0  0  0  0  0  0
   -2.7990    1.8980    0.5590 C   0  0  0  0  0  0  0  0  0  0  0  0
   -3.8850    0.9810    0.0610 C   0  0  0  0  0  0  0  0  0  0  0  0
   -3.2130   -0.3190   -0.3050 C   0  0  0  0  0  0  0  0  0  0  0  0
   -1.7110    0.0440   -0.2260 C   0  0  1  0  0  0  0  0  0  0  0  0
   -1.2480    0.6000   -1.5040 C   0  0  0  0  0  0  0  0  0  0  0  0
   -1.2070   -0.1370   -2.5160 O   0  0  0  0  0  0  0  0  0  0  0  0
   -0.8520    1.9160   -1.6270 O   0  0  0  0  0  0  0  0  0  0  0  0
   -2.5170    2.6860   -0.1670 H   0  0  0  0  0  0  0  0  0  0  0  0
   -3.1930    2.3580    1.5140 H   0  0  0  0  0  0  0  0  0  0  0  0
   -4.3240    1.4670   -0.8570 H   0  0  0  0  0  0  0  0  0  0  0  0
   -4.7180    0.8540    0.7820 H   0  0  0  0  0  0  0  0  0  0  0  0
   -3.4370   -1.1410    0.4020 H   0  0  0  0  0  0  0  0  0  0  0  0
   -3.3790   -0.6220   -1.3550 H   0  0  0  0  0  0  0  0  0  0  0  0
   -1.1850   -0.9260    0.0100 H   0  0  0  0  0  0  0  0  0  0  0  0
  2 12  1  6  0  0  0
  2  1  1  0  0  0  0
  2  7  1  0  0  0  0
  3 14  1  0  0  0  0
  3  2  1  0  0  0  0
  4 16  1  0  0  0  0
  4  3  1  0  0  0  0
  5  4  1  0  0  0  0
  6  5  2  0  0  0  0
  7  8  2  0  0  0  0
  9  5  1  0  0  0  0
 10  1  1  0  0  0  0
 11  1  1  0  0  0  0
 13  3  1  0  0  0  0
 15  4  1  0  0  0  0
 17  9  1  0  0  0  0
 18 28  1  0  0  0  0
 18 27  1  0  0  0  0
 19 18  1  0  0  0  0
 19 20  1  0  0  0  0
 20 21  1  0  0  0  0
 20 31  1  1  0  0  0
 21 33  1  0  0  0  0
 21 34  1  0  0  0  0
 22 20  1  0  0  0  0
 22 35  1  1  0  0  0
 23  7  1  0  0  0  0
 23 22  1  0  0  0  0
 24 22  1  0  0  0  0
 24 25  2  0  0  0  0
 26 18  1  0  0  0  0
 29 19  1  0  0  0  0
 30 19  1  0  0  0  0
 32 21  1  0  0  0  0
 36 23  1  0  0  0  0
 37 24  1  0  0  0  0
 38 37  1  0  0  0  0
 38 46  1  0  0  0  0
 39 38  1  0  0  0  0
 39 48  1  0  0  0  0
 40 41  1  0  0  0  0
 40 39  1  0  0  0  0
 40 49  1  0  0  0  0
 41 51  1  1  0  0  0
 41 37  1  0  0  0  0
 42 41  1  0  0  0  0
 43 42  2  0  0  0  0
 44 42  1  0  0  0  0
 45 38  1  0  0  0  0
 47 39  1  0  0  0  0
 50 40  1  0  0  0  0
M  END
$$$$
