EIV.pdb
 OpenBabel07022418193D

 53 52  0  0  1  0  0  0  0  0999 V2000
    0.6150   -3.8630    1.3820 N   0  0  0  0  0  0  0  0  0  0  0  0
    0.8080   -3.0330    2.5260 C   0  0  1  0  0  0  0  0  0  0  0  0
    2.1160   -3.3620    3.2120 C   0  0  0  0  0  0  0  0  0  0  0  0
    2.1800   -4.8100    3.6500 C   0  0  0  0  0  0  0  0  0  0  0  0
    3.4700   -5.1000    4.3300 C   0  0  0  0  0  0  0  0  0  0  0  0
    3.8900   -4.3000    5.2040 O   0  0  0  0  0  0  0  0  0  0  0  0
    0.8560   -1.5860    2.1550 C   0  0  0  0  0  0  0  0  0  0  0  0
    1.0520   -0.7240    3.0400 O   0  0  0  0  0  0  0  0  0  0  0  0
    4.2330   -6.2290    4.0280 O   0  0  0  0  0  0  0  0  0  0  0  0
   -0.3340   -4.2090    1.2210 H   0  0  0  0  0  0  0  0  0  0  0  0
    1.2230   -3.7020    0.5830 H   0  0  0  0  0  0  0  0  0  0  0  0
   -0.0130   -3.1760    3.2290 H   0  0  0  0  0  0  0  0  0  0  0  0
    2.2450   -2.6630    4.0620 H   0  0  0  0  0  0  0  0  0  0  0  0
    2.9610   -3.1770    2.5130 H   0  0  0  0  0  0  0  0  0  0  0  0
    1.9700   -5.4880    2.8170 H   0  0  0  0  0  0  0  0  0  0  0  0
    1.3720   -4.9690    4.3940 H   0  0  0  0  0  0  0  0  0  0  0  0
    5.2200   -6.3120    4.1510 H   0  0  0  0  0  0  0  0  0  0  0  0
    3.0370    2.4720   -1.5790 C   0  0  0  0  0  0  0  0  0  0  0  0
    1.7720    2.0850   -0.8040 C   0  0  0  0  0  0  0  0  0  0  0  0
    1.7780    0.6080   -0.5050 C   0  0  2  0  0  0  0  0  0  0  0  0
    1.8130   -0.2320   -1.7460 C   0  0  0  0  0  0  0  0  0  0  0  0
    0.7380    0.2720    0.4920 C   0  0  2  0  0  0  0  0  0  0  0  0
    0.6870   -1.1390    0.8200 N   0  0  0  0  0  0  0  0  0  0  0  0
   -0.6530    0.7760    0.1200 C   0  0  0  0  0  0  0  0  0  0  0  0
   -0.8220    1.9840   -0.0460 O   0  0  0  0  0  0  0  0  0  0  0  0
    3.0050    3.5820   -1.6890 H   0  0  0  0  0  0  0  0  0  0  0  0
    3.9350    2.1060   -1.0410 H   0  0  0  0  0  0  0  0  0  0  0  0
    3.0070    2.0540   -2.6060 H   0  0  0  0  0  0  0  0  0  0  0  0
    0.9270    2.3810   -1.4630 H   0  0  0  0  0  0  0  0  0  0  0  0
    1.6970    2.6920    0.1150 H   0  0  0  0  0  0  0  0  0  0  0  0
    2.7930    0.4300   -0.0150 H   0  0  0  0  0  0  0  0  0  0  0  0
    1.3240    0.2710   -2.6380 H   0  0  0  0  0  0  0  0  0  0  0  0
    2.8820   -0.3550   -2.1130 H   0  0  0  0  0  0  0  0  0  0  0  0
    1.4150   -1.2460   -1.6350 H   0  0  0  0  0  0  0  0  0  0  0  0
    0.9760    0.8490    1.4290 H   0  0  0  0  0  0  0  0  0  0  0  0
    0.5240   -1.8480    0.0840 H   0  0  0  0  0  0  0  0  0  0  0  0
   -3.4860    2.4410    0.1680 C   0  0  0  0  0  0  0  0  0  0  0  0
   -3.6180    1.3340   -0.8520 C   0  0  0  0  0  0  0  0  0  0  0  0
   -5.0910    1.2350   -1.2250 C   0  0  0  0  0  0  0  0  0  0  0  0
   -3.0900    0.0420   -0.3250 C   0  0  2  0  0  0  0  0  0  0  0  0
   -1.7200   -0.1190   -0.0300 N   0  0  0  0  0  0  0  0  0  0  0  0
   -3.6220   -1.0900   -1.0900 C   0  0  0  0  0  0  0  0  0  0  0  0
   -2.8540   -2.0840   -1.4040 O   0  0  0  0  0  0  0  0  0  0  0  0
   -4.9170   -1.2330   -1.5380 O   0  0  0  0  0  0  0  0  0  0  0  0
   -4.5730    2.7560    0.4380 H   0  0  0  0  0  0  0  0  0  0  0  0
   -3.1060    2.0920    1.1300 H   0  0  0  0  0  0  0  0  0  0  0  0
   -3.0250    3.3580   -0.2030 H   0  0  0  0  0  0  0  0  0  0  0  0
   -3.1100    1.6320   -1.8210 H   0  0  0  0  0  0  0  0  0  0  0  0
   -5.6770    0.6530   -0.4650 H   0  0  0  0  0  0  0  0  0  0  0  0
   -5.5540    2.2680   -1.1620 H   0  0  0  0  0  0  0  0  0  0  0  0
   -5.2500    0.9230   -2.2590 H   0  0  0  0  0  0  0  0  0  0  0  0
   -3.6140   -0.0390    0.7460 H   0  0  0  0  0  0  0  0  0  0  0  0
   -1.3880   -1.1630    0.1200 H   0  0  0  0  0  0  0  0  0  0  0  0
  1  2  1  0  0  0  0
  2  3  1  0  0  0  0
  2 12  1  1  0  0  0
  3  4  1  0  0  0  0
  3 13  1  0  0  0  0
  4  5  1  0  0  0  0
  4 16  1  0  0  0  0
  5  6  2  0  0  0  0
  7  2  1  0  0  0  0
  7  8  2  0  0  0  0
  9 17  1  0  0  0  0
  9  5  1  0  0  0  0
 10  1  1  0  0  0  0
 11  1  1  0  0  0  0
 14  3  1  0  0  0  0
 15  4  1  0  0  0  0
 18 27  1  0  0  0  0
 18 19  1  0  0  0  0
 19 20  1  0  0  0  0
 19 30  1  0  0  0  0
 20 31  1  1  0  0  0
 20 22  1  0  0  0  0
 21 34  1  0  0  0  0
 21 20  1  0  0  0  0
 22 23  1  0  0  0  0
 22 35  1  1  0  0  0
 23  7  1  0  0  0  0
 24 22  1  0  0  0  0
 25 24  2  0  0  0  0
 26 18  1  0  0  0  0
 28 18  1  0  0  0  0
 29 19  1  0  0  0  0
 32 21  1  0  0  0  0
 33 21  1  0  0  0  0
 36 23  1  0  0  0  0
 37 45  1  0  0  0  0
 37 46  1  0  0  0  0
 38 40  1  0  0  0  0
 38 37  1  0  0  0  0
 39 50  1  0  0  0  0
 39 38  1  0  0  0  0
 39 49  1  0  0  0  0
 40 41  1  0  0  0  0
 40 52  1  1  0  0  0
 41 53  1  0  0  0  0
 41 24  1  0  0  0  0
 42 40  1  0  0  0  0
 43 42  1  0  0  0  0
 44 42  2  0  0  0  0
 47 37  1  0  0  0  0
 48 38  1  0  0  0  0
 51 39  1  0  0  0  0
M  END
$$$$
