EKA.pdb
 OpenBabel07022418193D

 49 48  0  0  1  0  0  0  0  0999 V2000
    2.2420   -2.4790   -0.8320 N   0  0  0  0  0  0  0  0  0  0  0  0
    1.8050   -3.0490    0.4380 C   0  0  1  0  0  0  0  0  0  0  0  0
    3.0050   -3.2370    1.2970 C   0  0  0  0  0  0  0  0  0  0  0  0
    2.7670   -3.8120    2.6480 C   0  0  0  0  0  0  0  0  0  0  0  0
    2.1610   -5.1510    2.6700 C   0  0  0  0  0  0  0  0  0  0  0  0
    1.8840   -5.7530    1.6070 O   0  0  0  0  0  0  0  0  0  0  0  0
    0.8100   -2.1080    1.0410 C   0  0  0  0  0  0  0  0  0  0  0  0
    0.2640   -2.3730    2.1490 O   0  0  0  0  0  0  0  0  0  0  0  0
    1.8810   -5.7820    3.8680 O   0  0  0  0  0  0  0  0  0  0  0  0
    1.4500   -2.3510   -1.4910 H   0  0  0  0  0  0  0  0  0  0  0  0
    2.7910   -1.6390   -0.6300 H   0  0  0  0  0  0  0  0  0  0  0  0
    1.3260   -4.0010    0.1940 H   0  0  0  0  0  0  0  0  0  0  0  0
    3.5660   -2.2900    1.4310 H   0  0  0  0  0  0  0  0  0  0  0  0
    3.6990   -3.9220    0.7500 H   0  0  0  0  0  0  0  0  0  0  0  0
    3.7750   -3.8330    3.1590 H   0  0  0  0  0  0  0  0  0  0  0  0
    2.1800   -3.0840    3.2820 H   0  0  0  0  0  0  0  0  0  0  0  0
    1.5310   -6.7090    3.9620 H   0  0  0  0  0  0  0  0  0  0  0  0
    0.4330   -0.8900    0.4130 N   0  0  0  0  0  0  0  0  0  0  0  0
   -0.5480    0.0270    1.0170 C   0  0  1  0  0  0  0  0  0  0  0  0
    0.0380    1.3950    1.1510 C   0  0  0  0  0  0  0  0  0  0  0  0
   -0.9000    2.3440    1.7720 C   0  0  0  0  0  0  0  0  0  0  0  0
   -0.4300    3.7430    1.9800 C   0  0  0  0  0  0  0  0  0  0  0  0
    0.7480    3.9500    2.8490 C   0  0  0  0  0  0  0  0  0  0  0  0
    1.9440    3.3210    2.3940 N   0  0  0  0  0  0  0  0  0  0  0  0
   -1.7000    0.0570    0.0890 C   0  0  0  0  0  0  0  0  0  0  0  0
   -2.7750    0.6720    0.3070 O   0  0  0  0  0  0  0  0  0  0  0  0
    0.8820   -0.6640   -0.4970 H   0  0  0  0  0  0  0  0  0  0  0  0
   -0.9020   -0.3340    1.9780 H   0  0  0  0  0  0  0  0  0  0  0  0
    0.2400    1.7590    0.0970 H   0  0  0  0  0  0  0  0  0  0  0  0
    1.0460    1.3630    1.6130 H   0  0  0  0  0  0  0  0  0  0  0  0
   -1.2670    1.9810    2.7790 H   0  0  0  0  0  0  0  0  0  0  0  0
   -1.8600    2.4480    1.1830 H   0  0  0  0  0  0  0  0  0  0  0  0
   -1.2940    4.2800    2.4810 H   0  0  0  0  0  0  0  0  0  0  0  0
   -0.3450    4.3080    1.0000 H   0  0  0  0  0  0  0  0  0  0  0  0
    0.9930    5.0510    2.9300 H   0  0  0  0  0  0  0  0  0  0  0  0
    0.4710    3.6680    3.8900 H   0  0  0  0  0  0  0  0  0  0  0  0
    2.7840    3.5390    2.9570 H   0  0  0  0  0  0  0  0  0  0  0  0
    2.1250    3.6380    1.4180 H   0  0  0  0  0  0  0  0  0  0  0  0
   -2.4210    0.0820   -3.3920 C   0  0  0  0  0  0  0  0  0  0  0  0
   -2.7930   -0.6200   -2.0950 C   0  0  2  0  0  0  0  0  0  0  0  0
   -1.6800   -0.6350   -1.1700 N   0  0  0  0  0  0  0  0  0  0  0  0
   -3.3700   -1.9430   -2.3210 C   0  0  0  0  0  0  0  0  0  0  0  0
   -4.3410   -2.0710   -3.1030 O   0  0  0  0  0  0  0  0  0  0  0  0
   -2.8870   -3.0810   -1.7010 O   0  0  0  0  0  0  0  0  0  0  0  0
   -3.2030   -0.1730   -4.1360 H   0  0  0  0  0  0  0  0  0  0  0  0
   -2.4450    1.1590   -3.2390 H   0  0  0  0  0  0  0  0  0  0  0  0
   -1.4650   -0.3080   -3.8000 H   0  0  0  0  0  0  0  0  0  0  0  0
   -3.6050    0.0130   -1.6300 H   0  0  0  0  0  0  0  0  0  0  0  0
   -0.8360   -1.1660   -1.4260 H   0  0  0  0  0  0  0  0  0  0  0  0
  1 11  1  0  0  0  0
  1  2  1  0  0  0  0
  2 12  1  6  0  0  0
  2  7  1  0  0  0  0
  2  3  1  0  0  0  0
  3 13  1  0  0  0  0
  3  4  1  0  0  0  0
  4  5  1  0  0  0  0
  4 15  1  0  0  0  0
  4 16  1  0  0  0  0
  5  9  1  0  0  0  0
  6  5  2  0  0  0  0
  7  8  2  0  0  0  0
  9 17  1  0  0  0  0
 10  1  1  0  0  0  0
 14  3  1  0  0  0  0
 18 19  1  0  0  0  0
 18  7  1  0  0  0  0
 19 20  1  0  0  0  0
 19 28  1  1  0  0  0
 20 30  1  0  0  0  0
 20 21  1  0  0  0  0
 21 22  1  0  0  0  0
 21 31  1  0  0  0  0
 22 33  1  0  0  0  0
 22 23  1  0  0  0  0
 23 35  1  0  0  0  0
 23 36  1  0  0  0  0
 24 23  1  0  0  0  0
 24 37  1  0  0  0  0
 25 26  2  0  0  0  0
 25 19  1  0  0  0  0
 27 18  1  0  0  0  0
 29 20  1  0  0  0  0
 32 21  1  0  0  0  0
 34 22  1  0  0  0  0
 38 24  1  0  0  0  0
 39 46  1  0  0  0  0
 39 40  1  0  0  0  0
 40 48  1  1  0  0  0
 40 41  1  0  0  0  0
 41 25  1  0  0  0  0
 42 40  1  0  0  0  0
 42 44  1  0  0  0  0
 43 42  2  0  0  0  0
 45 39  1  0  0  0  0
 47 39  1  0  0  0  0
 49 41  1  0  0  0  0
M  END
$$$$
