EKE.pdb
 OpenBabel07022418193D

 55 54  0  0  1  0  0  0  0  0999 V2000
    4.3950    0.1380    0.0400 N   0  0  0  0  0  0  0  0  0  0  0  0
    3.7780   -0.7600    0.9600 C   0  0  1  0  0  0  0  0  0  0  0  0
    4.2100   -0.5010    2.3590 C   0  0  0  0  0  0  0  0  0  0  0  0
    3.9110    0.8560    2.8980 C   0  0  0  0  0  0  0  0  0  0  0  0
    4.5760    1.9100    2.1260 C   0  0  0  0  0  0  0  0  0  0  0  0
    4.0730    3.0380    1.8860 O   0  0  0  0  0  0  0  0  0  0  0  0
    2.2840   -0.7650    0.7970 C   0  0  0  0  0  0  0  0  0  0  0  0
    1.7910   -0.0340   -0.0880 O   0  0  0  0  0  0  0  0  0  0  0  0
    5.8460    1.6770    1.6150 O   0  0  0  0  0  0  0  0  0  0  0  0
    4.6850   -0.3130   -0.8610 H   0  0  0  0  0  0  0  0  0  0  0  0
    3.6800    0.8650   -0.2340 H   0  0  0  0  0  0  0  0  0  0  0  0
    4.1860   -1.7850    0.6950 H   0  0  0  0  0  0  0  0  0  0  0  0
    5.3080   -0.7180    2.4100 H   0  0  0  0  0  0  0  0  0  0  0  0
    3.7240   -1.2920    3.0040 H   0  0  0  0  0  0  0  0  0  0  0  0
    4.3480    0.8870    3.9370 H   0  0  0  0  0  0  0  0  0  0  0  0
    2.8320    1.0330    3.0460 H   0  0  0  0  0  0  0  0  0  0  0  0
    6.4310    2.4100    1.2540 H   0  0  0  0  0  0  0  0  0  0  0  0
    1.4410   -1.5560    1.5960 N   0  0  0  0  0  0  0  0  0  0  0  0
    0.0050   -1.6510    1.5240 C   0  0  1  0  0  0  0  0  0  0  0  0
   -0.7150   -0.6120    2.2910 C   0  0  0  0  0  0  0  0  0  0  0  0
   -0.4550    0.8010    1.9040 C   0  0  0  0  0  0  0  0  0  0  0  0
   -1.2320    1.7920    2.7420 C   0  0  0  0  0  0  0  0  0  0  0  0
   -2.7130    1.6300    2.6550 C   0  0  0  0  0  0  0  0  0  0  0  0
   -3.2260    1.7930    1.3220 N   0  0  0  0  0  0  0  0  0  0  0  0
   -0.4530   -1.8700    0.1340 C   0  0  0  0  0  0  0  0  0  0  0  0
    0.3740   -1.9930   -0.7770 O   0  0  0  0  0  0  0  0  0  0  0  0
    1.9690   -2.1330    2.3290 H   0  0  0  0  0  0  0  0  0  0  0  0
   -0.2330   -2.6360    2.0890 H   0  0  0  0  0  0  0  0  0  0  0  0
   -1.8130   -0.7690    2.2960 H   0  0  0  0  0  0  0  0  0  0  0  0
   -0.4060   -0.7390    3.3710 H   0  0  0  0  0  0  0  0  0  0  0  0
   -0.5940    1.0440    0.8570 H   0  0  0  0  0  0  0  0  0  0  0  0
    0.6280    1.0480    2.1300 H   0  0  0  0  0  0  0  0  0  0  0  0
   -0.9070    1.7980    3.7990 H   0  0  0  0  0  0  0  0  0  0  0  0
   -0.9830    2.8180    2.3430 H   0  0  0  0  0  0  0  0  0  0  0  0
   -3.1630    2.4300    3.2840 H   0  0  0  0  0  0  0  0  0  0  0  0
   -3.0240    0.6600    3.0970 H   0  0  0  0  0  0  0  0  0  0  0  0
   -3.7740    2.6780    1.2030 H   0  0  0  0  0  0  0  0  0  0  0  0
   -2.4980    1.6940    0.5740 H   0  0  0  0  0  0  0  0  0  0  0  0
   -1.8300   -1.9450   -0.1810 N   0  0  0  0  0  0  0  0  0  0  0  0
   -2.3060   -2.1640   -1.5640 C   0  0  1  0  0  0  0  0  0  0  0  0
   -2.9700   -3.5210   -1.5950 C   0  0  0  0  0  0  0  0  0  0  0  0
   -3.5230   -3.9240   -2.9150 C   0  0  0  0  0  0  0  0  0  0  0  0
   -2.5290   -4.0090   -4.0090 C   0  0  0  0  0  0  0  0  0  0  0  0
   -1.3070   -3.7880   -3.8320 O   0  0  0  0  0  0  0  0  0  0  0  0
   -3.2650   -1.1160   -1.9060 C   0  0  0  0  0  0  0  0  0  0  0  0
   -3.5940   -0.2130   -1.0630 O   0  0  0  0  0  0  0  0  0  0  0  0
   -2.9030   -4.3420   -5.3060 O   0  0  0  0  0  0  0  0  0  0  0  0
   -3.8790   -1.0230   -3.1510 O   0  0  0  0  0  0  0  0  0  0  0  0
   -2.5840   -1.8510    0.5330 H   0  0  0  0  0  0  0  0  0  0  0  0
   -1.3850   -2.1760   -2.2010 H   0  0  0  0  0  0  0  0  0  0  0  0
   -3.8130   -3.4510   -0.8490 H   0  0  0  0  0  0  0  0  0  0  0  0
   -2.2580   -4.2800   -1.1890 H   0  0  0  0  0  0  0  0  0  0  0  0
   -4.3850   -3.2710   -3.1960 H   0  0  0  0  0  0  0  0  0  0  0  0
   -3.9900   -4.9540   -2.8730 H   0  0  0  0  0  0  0  0  0  0  0  0
   -2.3030   -4.9100   -5.9130 H   0  0  0  0  0  0  0  0  0  0  0  0
  1  2  1  0  0  0  0
  2 12  1  6  0  0  0
  2  3  1  0  0  0  0
  3 13  1  0  0  0  0
  3  4  1  0  0  0  0
  3 14  1  0  0  0  0
  4 16  1  0  0  0  0
  4 15  1  0  0  0  0
  5  4  1  0  0  0  0
  6  5  2  0  0  0  0
  7  2  1  0  0  0  0
  7 18  1  0  0  0  0
  8  7  2  0  0  0  0
  9  5  1  0  0  0  0
 10  1  1  0  0  0  0
 11  1  1  0  0  0  0
 17  9  1  0  0  0  0
 18 27  1  0  0  0  0
 19 18  1  0  0  0  0
 19 28  1  1  0  0  0
 19 20  1  0  0  0  0
 20 29  1  0  0  0  0
 20 30  1  0  0  0  0
 21 32  1  0  0  0  0
 21 20  1  0  0  0  0
 21 22  1  0  0  0  0
 22 33  1  0  0  0  0
 23 22  1  0  0  0  0
 23 36  1  0  0  0  0
 23 35  1  0  0  0  0
 24 23  1  0  0  0  0
 25 19  1  0  0  0  0
 26 25  2  0  0  0  0
 31 21  1  0  0  0  0
 34 22  1  0  0  0  0
 37 24  1  0  0  0  0
 38 24  1  0  0  0  0
 39 25  1  0  0  0  0
 39 49  1  0  0  0  0
 40 50  1  6  0  0  0
 40 39  1  0  0  0  0
 41 40  1  0  0  0  0
 41 52  1  0  0  0  0
 41 51  1  0  0  0  0
 42 54  1  0  0  0  0
 42 41  1  0  0  0  0
 43 44  2  0  0  0  0
 43 42  1  0  0  0  0
 45 40  1  0  0  0  0
 45 46  1  0  0  0  0
 47 43  1  0  0  0  0
 48 45  2  0  0  0  0
 53 42  1  0  0  0  0
 55 47  1  0  0  0  0
M  END
$$$$
