EKF.pdb
 OpenBabel07022418193D

 59 59  0  0  1  0  0  0  0  0999 V2000
    3.1420    1.2580   -2.2760 N   0  0  0  0  0  0  0  0  0  0  0  0
    3.7510    0.8900   -0.9520 C   0  0  1  0  0  0  0  0  0  0  0  0
    4.2280    2.1770   -0.4140 C   0  0  0  0  0  0  0  0  0  0  0  0
    4.8950    2.0800    0.9090 C   0  0  0  0  0  0  0  0  0  0  0  0
    4.0330    1.6380    2.0030 C   0  0  0  0  0  0  0  0  0  0  0  0
    4.4840    0.8450    2.8750 O   0  0  0  0  0  0  0  0  0  0  0  0
    2.6900    0.1670   -0.2750 C   0  0  0  0  0  0  0  0  0  0  0  0
    2.9290   -0.5720    0.7430 O   0  0  0  0  0  0  0  0  0  0  0  0
    2.7230    2.1110    2.0600 O   0  0  0  0  0  0  0  0  0  0  0  0
    2.6100    0.4520   -2.6520 H   0  0  0  0  0  0  0  0  0  0  0  0
    2.4690    2.0170   -2.0590 H   0  0  0  0  0  0  0  0  0  0  0  0
    4.5980    0.2170   -1.2870 H   0  0  0  0  0  0  0  0  0  0  0  0
    5.0100    2.6490   -1.1030 H   0  0  0  0  0  0  0  0  0  0  0  0
    3.4310    2.9740   -0.4240 H   0  0  0  0  0  0  0  0  0  0  0  0
    5.3150    3.0970    1.2010 H   0  0  0  0  0  0  0  0  0  0  0  0
    5.8180    1.4410    0.8190 H   0  0  0  0  0  0  0  0  0  0  0  0
    2.2050    2.0310    2.9250 H   0  0  0  0  0  0  0  0  0  0  0  0
    1.3020    0.1830   -0.6390 N   0  0  0  0  0  0  0  0  0  0  0  0
    0.2900   -0.5750    0.1020 C   0  0  1  0  0  0  0  0  0  0  0  0
   -0.8140    0.4180    0.4380 C   0  0  0  0  0  0  0  0  0  0  0  0
   -0.3650    1.5690    1.2660 C   0  0  0  0  0  0  0  0  0  0  0  0
   -1.5620    2.4580    1.5070 C   0  0  0  0  0  0  0  0  0  0  0  0
   -2.1610    2.9810    0.2240 C   0  0  0  0  0  0  0  0  0  0  0  0
   -1.2100    3.7530   -0.5170 N   0  0  0  0  0  0  0  0  0  0  0  0
   -0.3800   -1.5800   -0.7650 C   0  0  0  0  0  0  0  0  0  0  0  0
   -0.0430   -1.6390   -1.9450 O   0  0  0  0  0  0  0  0  0  0  0  0
    1.0320    0.7510   -1.4440 H   0  0  0  0  0  0  0  0  0  0  0  0
    0.7380   -1.0460    0.9970 H   0  0  0  0  0  0  0  0  0  0  0  0
   -1.6900   -0.1190    0.8800 H   0  0  0  0  0  0  0  0  0  0  0  0
   -1.1820    0.7730   -0.5620 H   0  0  0  0  0  0  0  0  0  0  0  0
    0.0270    1.2720    2.2540 H   0  0  0  0  0  0  0  0  0  0  0  0
    0.3590    2.1770    0.6730 H   0  0  0  0  0  0  0  0  0  0  0  0
   -1.2440    3.3300    2.1030 H   0  0  0  0  0  0  0  0  0  0  0  0
   -2.3440    1.8560    2.0050 H   0  0  0  0  0  0  0  0  0  0  0  0
   -3.0100    3.6720    0.5090 H   0  0  0  0  0  0  0  0  0  0  0  0
   -2.6350    2.1860   -0.3860 H   0  0  0  0  0  0  0  0  0  0  0  0
   -0.5860    3.1630   -1.0940 H   0  0  0  0  0  0  0  0  0  0  0  0
   -1.6500    4.5230   -1.0820 H   0  0  0  0  0  0  0  0  0  0  0  0
   -1.3550   -2.4180   -0.2370 N   0  0  0  0  0  0  0  0  0  0  0  0
   -2.0860   -3.4280   -0.9520 C   0  0  1  0  0  0  0  0  0  0  0  0
   -1.7480   -4.8290   -0.5620 C   0  0  0  0  0  0  0  0  0  0  0  0
   -1.9660   -5.1870    0.8340 C   0  0  0  0  0  0  0  0  0  0  0  0
   -0.8790   -4.9870    1.7030 C   0  0  0  0  0  0  0  0  0  0  0  0
   -0.9560   -5.2820    3.0320 C   0  0  0  0  0  0  0  0  0  0  0  0
   -2.1070   -5.7910    3.5870 C   0  0  0  0  0  0  0  0  0  0  0  0
   -3.1850   -5.9900    2.7260 C   0  0  0  0  0  0  0  0  0  0  0  0
   -3.0950   -5.6880    1.3850 C   0  0  0  0  0  0  0  0  0  0  0  0
   -3.5370   -3.1510   -1.0670 C   0  0  0  0  0  0  0  0  0  0  0  0
   -4.0130   -2.0990   -0.5520 O   0  0  0  0  0  0  0  0  0  0  0  0
   -4.3440   -4.0320   -1.7270 O   0  0  0  0  0  0  0  0  0  0  0  0
   -1.5790   -2.3010    0.7850 H   0  0  0  0  0  0  0  0  0  0  0  0
   -1.7210   -3.3340   -2.0260 H   0  0  0  0  0  0  0  0  0  0  0  0
   -0.7260   -5.1320   -0.8700 H   0  0  0  0  0  0  0  0  0  0  0  0
   -2.4130   -5.5260   -1.1610 H   0  0  0  0  0  0  0  0  0  0  0  0
    0.0590   -4.5870    1.3250 H   0  0  0  0  0  0  0  0  0  0  0  0
   -0.0790   -5.1090    3.6770 H   0  0  0  0  0  0  0  0  0  0  0  0
   -2.1520   -6.0160    4.6280 H   0  0  0  0  0  0  0  0  0  0  0  0
   -4.0830   -6.3910    3.1750 H   0  0  0  0  0  0  0  0  0  0  0  0
   -3.9460   -5.8580    0.7710 H   0  0  0  0  0  0  0  0  0  0  0  0
  1 11  1  0  0  0  0
  1  2  1  0  0  0  0
  2 12  1  6  0  0  0
  2  3  1  0  0  0  0
  2  7  1  0  0  0  0
  3  4  1  0  0  0  0
  4 15  1  0  0  0  0
  4  5  1  0  0  0  0
  5  9  1  0  0  0  0
  5  6  2  0  0  0  0
  7  8  2  0  0  0  0
  9 17  1  0  0  0  0
 10  1  1  0  0  0  0
 13  3  1  0  0  0  0
 14  3  1  0  0  0  0
 16  4  1  0  0  0  0
 18  7  1  0  0  0  0
 18 19  1  0  0  0  0
 19 20  1  0  0  0  0
 19 28  1  1  0  0  0
 20 29  1  0  0  0  0
 20 21  1  0  0  0  0
 21 22  1  0  0  0  0
 21 31  1  0  0  0  0
 22 34  1  0  0  0  0
 22 33  1  0  0  0  0
 23 35  1  0  0  0  0
 23 22  1  0  0  0  0
 24 23  1  0  0  0  0
 25 39  1  0  0  0  0
 25 19  1  0  0  0  0
 26 25  2  0  0  0  0
 27 18  1  0  0  0  0
 30 20  1  0  0  0  0
 32 21  1  0  0  0  0
 36 23  1  0  0  0  0
 37 24  1  0  0  0  0
 38 24  1  0  0  0  0
 39 51  1  0  0  0  0
 40 52  1  6  0  0  0
 40 41  1  0  0  0  0
 40 39  1  0  0  0  0
 41 42  1  0  0  0  0
 42 47  2  0  0  0  0
 42 43  1  0  0  0  0
 43 44  2  0  0  0  0
 44 45  1  0  0  0  0
 44 56  1  0  0  0  0
 45 57  1  0  0  0  0
 46 58  1  0  0  0  0
 46 45  2  0  0  0  0
 47 46  1  0  0  0  0
 48 40  1  0  0  0  0
 48 49  1  0  0  0  0
 50 48  2  0  0  0  0
 53 41  1  0  0  0  0
 54 41  1  0  0  0  0
 55 43  1  0  0  0  0
 59 47  1  0  0  0  0
M  END
$$$$
