EKM.pdb
 OpenBabel07022418193D

 56 55  0  0  1  0  0  0  0  0999 V2000
    1.6100   -1.4880   -1.7420 N   0  0  0  0  0  0  0  0  0  0  0  0
    2.7970   -1.4670   -0.8160 C   0  0  1  0  0  0  0  0  0  0  0  0
    3.7080   -0.4770   -1.4300 C   0  0  0  0  0  0  0  0  0  0  0  0
    5.0110   -0.1850   -0.8130 C   0  0  0  0  0  0  0  0  0  0  0  0
    5.0490    0.3420    0.5390 C   0  0  0  0  0  0  0  0  0  0  0  0
    5.7160   -0.2470    1.4490 O   0  0  0  0  0  0  0  0  0  0  0  0
    2.2110   -1.1290    0.4830 C   0  0  0  0  0  0  0  0  0  0  0  0
    2.8930   -1.2820    1.5200 O   0  0  0  0  0  0  0  0  0  0  0  0
    4.3800    1.4930    0.9270 O   0  0  0  0  0  0  0  0  0  0  0  0
    1.8180   -2.1650   -2.5140 H   0  0  0  0  0  0  0  0  0  0  0  0
    1.4590   -0.5180   -2.0990 H   0  0  0  0  0  0  0  0  0  0  0  0
    3.2130   -2.4680   -0.8740 H   0  0  0  0  0  0  0  0  0  0  0  0
    3.9360   -0.8840   -2.4690 H   0  0  0  0  0  0  0  0  0  0  0  0
    3.1990    0.4930   -1.6770 H   0  0  0  0  0  0  0  0  0  0  0  0
    5.7210   -1.0760   -0.8680 H   0  0  0  0  0  0  0  0  0  0  0  0
    5.5630    0.5640   -1.4740 H   0  0  0  0  0  0  0  0  0  0  0  0
    3.8990    1.5660    1.8350 H   0  0  0  0  0  0  0  0  0  0  0  0
    0.8870   -0.6220    0.6660 N   0  0  0  0  0  0  0  0  0  0  0  0
    0.3180   -0.2900    1.9570 C   0  0  1  0  0  0  0  0  0  0  0  0
    0.0160    1.1880    2.0710 C   0  0  0  0  0  0  0  0  0  0  0  0
   -0.9600    1.6700    1.0390 C   0  0  0  0  0  0  0  0  0  0  0  0
   -1.1980    3.1520    1.2390 C   0  0  0  0  0  0  0  0  0  0  0  0
   -2.1640    3.7290    0.2470 C   0  0  0  0  0  0  0  0  0  0  0  0
   -3.4670    3.1310    0.2840 N   0  0  0  0  0  0  0  0  0  0  0  0
   -0.8900   -1.1180    2.1710 C   0  0  0  0  0  0  0  0  0  0  0  0
   -1.5360   -0.9650    3.2630 O   0  0  0  0  0  0  0  0  0  0  0  0
    0.3310   -0.4970   -0.2150 H   0  0  0  0  0  0  0  0  0  0  0  0
    1.0230   -0.5130    2.7860 H   0  0  0  0  0  0  0  0  0  0  0  0
   -0.3710    1.3680    3.0970 H   0  0  0  0  0  0  0  0  0  0  0  0
    0.9800    1.7190    2.0010 H   0  0  0  0  0  0  0  0  0  0  0  0
   -0.4890    1.5300    0.0400 H   0  0  0  0  0  0  0  0  0  0  0  0
   -1.8750    1.0780    1.0720 H   0  0  0  0  0  0  0  0  0  0  0  0
   -0.2420    3.7030    1.1590 H   0  0  0  0  0  0  0  0  0  0  0  0
   -1.5830    3.3350    2.2840 H   0  0  0  0  0  0  0  0  0  0  0  0
   -1.7300    3.6250   -0.7760 H   0  0  0  0  0  0  0  0  0  0  0  0
   -2.2740    4.8120    0.4800 H   0  0  0  0  0  0  0  0  0  0  0  0
   -4.0980    3.7310   -0.3020 H   0  0  0  0  0  0  0  0  0  0  0  0
   -3.4730    2.1900   -0.1890 H   0  0  0  0  0  0  0  0  0  0  0  0
   -1.4360   -5.0330   -1.2640 C   0  0  0  0  0  0  0  0  0  0  0  0
   -3.1020   -4.4790   -1.5570 S   0  0  0  0  0  0  0  0  0  0  0  0
   -3.5160   -2.8520   -0.9630 C   0  0  0  0  0  0  0  0  0  0  0  0
   -3.6450   -2.6670    0.4870 C   0  0  0  0  0  0  0  0  0  0  0  0
   -2.5250   -2.8750    1.4060 C   0  0  2  0  0  0  0  0  0  0  0  0
   -1.3550   -2.0660    1.2170 N   0  0  0  0  0  0  0  0  0  0  0  0
   -2.2330   -4.2980    1.6650 C   0  0  0  0  0  0  0  0  0  0  0  0
   -3.0830   -5.1880    1.7440 O   0  0  0  0  0  0  0  0  0  0  0  0
   -0.8840   -4.6710    1.8390 O   0  0  0  0  0  0  0  0  0  0  0  0
   -1.3630   -5.8930   -0.5540 H   0  0  0  0  0  0  0  0  0  0  0  0
   -0.8320   -4.2040   -0.8520 H   0  0  0  0  0  0  0  0  0  0  0  0
   -0.9440   -5.2990   -2.2390 H   0  0  0  0  0  0  0  0  0  0  0  0
   -4.5500   -2.6200   -1.4020 H   0  0  0  0  0  0  0  0  0  0  0  0
   -2.8710   -2.0540   -1.4490 H   0  0  0  0  0  0  0  0  0  0  0  0
   -4.4940   -3.3670    0.8200 H   0  0  0  0  0  0  0  0  0  0  0  0
   -4.1250   -1.6430    0.7060 H   0  0  0  0  0  0  0  0  0  0  0  0
   -2.9690   -2.5450    2.4520 H   0  0  0  0  0  0  0  0  0  0  0  0
   -0.8070   -2.1630    0.3410 H   0  0  0  0  0  0  0  0  0  0  0  0
  1  2  1  0  0  0  0
  2 12  1  1  0  0  0
  2  7  1  0  0  0  0
  3  2  1  0  0  0  0
  3  4  1  0  0  0  0
  4  5  1  0  0  0  0
  5  9  1  0  0  0  0
  5  6  2  0  0  0  0
  7 18  1  0  0  0  0
  7  8  2  0  0  0  0
  9 17  1  0  0  0  0
 10  1  1  0  0  0  0
 11  1  1  0  0  0  0
 13  3  1  0  0  0  0
 14  3  1  0  0  0  0
 15  4  1  0  0  0  0
 16  4  1  0  0  0  0
 18 19  1  0  0  0  0
 19 20  1  0  0  0  0
 19 25  1  0  0  0  0
 19 28  1  1  0  0  0
 20 29  1  0  0  0  0
 21 32  1  0  0  0  0
 21 22  1  0  0  0  0
 21 20  1  0  0  0  0
 22 34  1  0  0  0  0
 23 24  1  0  0  0  0
 23 36  1  0  0  0  0
 23 22  1  0  0  0  0
 25 26  2  0  0  0  0
 27 18  1  0  0  0  0
 30 20  1  0  0  0  0
 31 21  1  0  0  0  0
 33 22  1  0  0  0  0
 35 23  1  0  0  0  0
 37 24  1  0  0  0  0
 38 24  1  0  0  0  0
 39 49  1  0  0  0  0
 39 48  1  0  0  0  0
 40 39  1  0  0  0  0
 40 41  1  0  0  0  0
 41 42  1  0  0  0  0
 42 54  1  0  0  0  0
 42 53  1  0  0  0  0
 42 43  1  0  0  0  0
 43 45  1  0  0  0  0
 43 55  1  1  0  0  0
 44 43  1  0  0  0  0
 44 25  1  0  0  0  0
 45 46  2  0  0  0  0
 45 47  1  0  0  0  0
 50 39  1  0  0  0  0
 51 41  1  0  0  0  0
 52 41  1  0  0  0  0
 56 44  1  0  0  0  0
M  END
$$$$
