EKN.pdb
 OpenBabel07022418193D

 53 52  0  0  1  0  0  0  0  0999 V2000
    1.8700    0.4400   -1.4760 N   0  0  0  0  0  0  0  0  0  0  0  0
    2.9240    0.1460   -0.4940 C   0  0  1  0  0  0  0  0  0  0  0  0
    3.5970    1.4540   -0.1700 C   0  0  0  0  0  0  0  0  0  0  0  0
    4.2290    2.1490   -1.3230 C   0  0  0  0  0  0  0  0  0  0  0  0
    5.2900    1.3170   -1.9130 C   0  0  0  0  0  0  0  0  0  0  0  0
    5.8720    1.6390   -3.0030 O   0  0  0  0  0  0  0  0  0  0  0  0
    2.2970   -0.3080    0.7940 C   0  0  0  0  0  0  0  0  0  0  0  0
    3.0100   -0.6420    1.7580 O   0  0  0  0  0  0  0  0  0  0  0  0
    5.6750    0.1510   -1.2730 O   0  0  0  0  0  0  0  0  0  0  0  0
    2.2240    0.9210   -2.3050 H   0  0  0  0  0  0  0  0  0  0  0  0
    1.3570   -0.4440   -1.6960 H   0  0  0  0  0  0  0  0  0  0  0  0
    3.5580   -0.6150   -0.9310 H   0  0  0  0  0  0  0  0  0  0  0  0
    4.3210    1.2480    0.6470 H   0  0  0  0  0  0  0  0  0  0  0  0
    2.8320    2.1380    0.2880 H   0  0  0  0  0  0  0  0  0  0  0  0
    4.7190    3.1090   -0.9760 H   0  0  0  0  0  0  0  0  0  0  0  0
    3.4920    2.4810   -2.0740 H   0  0  0  0  0  0  0  0  0  0  0  0
    6.6270   -0.2100   -1.3470 H   0  0  0  0  0  0  0  0  0  0  0  0
    0.8890   -0.3420    0.8690 N   0  0  0  0  0  0  0  0  0  0  0  0
    0.1680   -0.7570    2.0420 C   0  0  1  0  0  0  0  0  0  0  0  0
   -0.6330    0.3670    2.6560 C   0  0  0  0  0  0  0  0  0  0  0  0
   -1.6530    0.9240    1.6960 C   0  0  0  0  0  0  0  0  0  0  0  0
   -2.4250    2.0390    2.3490 C   0  0  0  0  0  0  0  0  0  0  0  0
   -3.1600    1.5680    3.5840 C   0  0  0  0  0  0  0  0  0  0  0  0
   -4.1000    0.5260    3.2690 N   0  0  0  0  0  0  0  0  0  0  0  0
   -0.6700   -1.9390    1.7700 C   0  0  0  0  0  0  0  0  0  0  0  0
   -1.3740   -2.4500    2.6620 O   0  0  0  0  0  0  0  0  0  0  0  0
    0.3460   -0.0520    0.0310 H   0  0  0  0  0  0  0  0  0  0  0  0
    0.9260   -1.0650    2.8200 H   0  0  0  0  0  0  0  0  0  0  0  0
   -1.1670   -0.0440    3.5370 H   0  0  0  0  0  0  0  0  0  0  0  0
    0.0030    1.1900    2.9980 H   0  0  0  0  0  0  0  0  0  0  0  0
   -1.1160    1.3600    0.8250 H   0  0  0  0  0  0  0  0  0  0  0  0
   -2.3830    0.1550    1.3790 H   0  0  0  0  0  0  0  0  0  0  0  0
   -3.1850    2.4350    1.6380 H   0  0  0  0  0  0  0  0  0  0  0  0
   -1.7810    2.8910    2.6130 H   0  0  0  0  0  0  0  0  0  0  0  0
   -3.7670    2.4580    3.9250 H   0  0  0  0  0  0  0  0  0  0  0  0
   -2.5050    1.3240    4.4250 H   0  0  0  0  0  0  0  0  0  0  0  0
   -3.7800   -0.3510    3.7210 H   0  0  0  0  0  0  0  0  0  0  0  0
   -4.3000    0.4290    2.2530 H   0  0  0  0  0  0  0  0  0  0  0  0
   -4.6850   -4.2360   -1.0570 N   0  0  0  0  0  0  0  0  0  0  0  0
   -3.3340   -4.2290   -1.4520 C   0  0  0  0  0  0  0  0  0  0  0  0
   -2.9270   -5.1060   -2.2450 O   0  0  0  0  0  0  0  0  0  0  0  0
   -2.4180   -3.2150   -0.9450 C   0  0  0  0  0  0  0  0  0  0  0  0
   -1.4780   -3.6720    0.1250 C   0  0  2  0  0  0  0  0  0  0  0  0
   -0.6680   -2.4940    0.4730 N   0  0  0  0  0  0  0  0  0  0  0  0
   -0.6270   -4.8100   -0.2420 C   0  0  0  0  0  0  0  0  0  0  0  0
   -1.0900   -5.9230   -0.5630 O   0  0  0  0  0  0  0  0  0  0  0  0
    0.7600   -4.6240   -0.2260 O   0  0  0  0  0  0  0  0  0  0  0  0
   -5.1450   -5.1190   -0.7940 H   0  0  0  0  0  0  0  0  0  0  0  0
   -5.2130   -3.3500   -1.0320 H   0  0  0  0  0  0  0  0  0  0  0  0
   -1.7830   -2.7630   -1.7550 H   0  0  0  0  0  0  0  0  0  0  0  0
   -3.0020   -2.3670   -0.5270 H   0  0  0  0  0  0  0  0  0  0  0  0
   -2.0250   -3.9550    1.0510 H   0  0  0  0  0  0  0  0  0  0  0  0
   -0.0700   -2.0450   -0.2520 H   0  0  0  0  0  0  0  0  0  0  0  0
  1  2  1  0  0  0  0
  2 12  1  6  0  0  0
  2  3  1  0  0  0  0
  2  7  1  0  0  0  0
  3 14  1  0  0  0  0
  3 13  1  0  0  0  0
  4 15  1  0  0  0  0
  4  3  1  0  0  0  0
  5  4  1  0  0  0  0
  5  9  1  0  0  0  0
  6  5  2  0  0  0  0
  7 18  1  0  0  0  0
  7  8  2  0  0  0  0
 10  1  1  0  0  0  0
 11  1  1  0  0  0  0
 16  4  1  0  0  0  0
 17  9  1  0  0  0  0
 18 19  1  0  0  0  0
 19 20  1  0  0  0  0
 19 28  1  1  0  0  0
 20 30  1  0  0  0  0
 20 29  1  0  0  0  0
 21 22  1  0  0  0  0
 21 20  1  0  0  0  0
 22 34  1  0  0  0  0
 22 23  1  0  0  0  0
 23 35  1  0  0  0  0
 23 36  1  0  0  0  0
 24 23  1  0  0  0  0
 24 37  1  0  0  0  0
 25 19  1  0  0  0  0
 25 26  2  0  0  0  0
 27 18  1  0  0  0  0
 31 21  1  0  0  0  0
 32 21  1  0  0  0  0
 33 22  1  0  0  0  0
 38 24  1  0  0  0  0
 39 49  1  0  0  0  0
 39 48  1  0  0  0  0
 40 39  1  0  0  0  0
 40 42  1  0  0  0  0
 41 40  2  0  0  0  0
 42 51  1  0  0  0  0
 42 43  1  0  0  0  0
 43 44  1  0  0  0  0
 43 52  1  1  0  0  0
 44 25  1  0  0  0  0
 45 47  1  0  0  0  0
 45 43  1  0  0  0  0
 46 45  2  0  0  0  0
 50 42  1  0  0  0  0
 53 44  1  0  0  0  0
M  END
$$$$
