EKS.pdb
 OpenBabel07022418193D

 50 49  0  0  1  0  0  0  0  0999 V2000
    0.2880   -4.2230    2.1080 N   0  0  0  0  0  0  0  0  0  0  0  0
    1.3760   -3.4410    1.5270 C   0  0  1  0  0  0  0  0  0  0  0  0
    1.5870   -3.7230    0.0850 C   0  0  0  0  0  0  0  0  0  0  0  0
    2.7400   -2.9420   -0.5110 C   0  0  0  0  0  0  0  0  0  0  0  0
    2.9020   -3.2430   -1.9540 C   0  0  0  0  0  0  0  0  0  0  0  0
    2.1270   -4.0560   -2.5050 O   0  0  0  0  0  0  0  0  0  0  0  0
    1.0830   -2.0330    1.8540 C   0  0  0  0  0  0  0  0  0  0  0  0
    1.2370   -1.6570    3.0490 O   0  0  0  0  0  0  0  0  0  0  0  0
    3.8940   -2.6380   -2.6910 O   0  0  0  0  0  0  0  0  0  0  0  0
   -0.0790   -3.7520    2.9600 H   0  0  0  0  0  0  0  0  0  0  0  0
   -0.4910   -4.3030    1.4260 H   0  0  0  0  0  0  0  0  0  0  0  0
    2.3140   -3.7220    2.0660 H   0  0  0  0  0  0  0  0  0  0  0  0
    0.6700   -3.6390   -0.5270 H   0  0  0  0  0  0  0  0  0  0  0  0
    1.8900   -4.8070   -0.0030 H   0  0  0  0  0  0  0  0  0  0  0  0
    3.7030   -3.3420   -0.0420 H   0  0  0  0  0  0  0  0  0  0  0  0
    2.7430   -1.8870   -0.2540 H   0  0  0  0  0  0  0  0  0  0  0  0
    3.8930   -2.6210   -3.7160 H   0  0  0  0  0  0  0  0  0  0  0  0
    0.6470   -1.1240    0.8930 N   0  0  0  0  0  0  0  0  0  0  0  0
    0.3540    0.3030    1.2140 C   0  0  1  0  0  0  0  0  0  0  0  0
    1.1710    1.0780    0.2700 C   0  0  0  0  0  0  0  0  0  0  0  0
    1.2040    2.5310    0.2550 C   0  0  0  0  0  0  0  0  0  0  0  0
    1.7230    3.3160    1.3790 C   0  0  0  0  0  0  0  0  0  0  0  0
    1.1040    3.2520    2.7140 C   0  0  0  0  0  0  0  0  0  0  0  0
   -0.2820    3.6460    2.7970 N   0  0  0  0  0  0  0  0  0  0  0  0
   -1.1140    0.4050    0.9550 C   0  0  0  0  0  0  0  0  0  0  0  0
   -1.6730    1.5090    1.0980 O   0  0  0  0  0  0  0  0  0  0  0  0
    0.4900   -1.3850   -0.0870 H   0  0  0  0  0  0  0  0  0  0  0  0
    0.5950    0.3750    2.2750 H   0  0  0  0  0  0  0  0  0  0  0  0
    2.2400    0.7120    0.4190 H   0  0  0  0  0  0  0  0  0  0  0  0
    0.9480    0.7180   -0.7750 H   0  0  0  0  0  0  0  0  0  0  0  0
    0.1950    2.9070   -0.1080 H   0  0  0  0  0  0  0  0  0  0  0  0
    1.8570    2.8210   -0.6440 H   0  0  0  0  0  0  0  0  0  0  0  0
    1.7930    4.4310    1.1190 H   0  0  0  0  0  0  0  0  0  0  0  0
    2.8240    3.0780    1.5310 H   0  0  0  0  0  0  0  0  0  0  0  0
    1.2600    2.3180    3.2480 H   0  0  0  0  0  0  0  0  0  0  0  0
    1.6290    4.0200    3.4010 H   0  0  0  0  0  0  0  0  0  0  0  0
   -0.3970    4.6730    2.9260 H   0  0  0  0  0  0  0  0  0  0  0  0
   -0.8290    3.0800    3.4750 H   0  0  0  0  0  0  0  0  0  0  0  0
   -3.2770   -2.3240   -1.2950 O   0  0  0  0  0  0  0  0  0  0  0  0
   -3.6870   -1.0000   -1.1100 C   0  0  0  0  0  0  0  0  0  0  0  0
   -3.3340   -0.5950    0.3020 C   0  0  2  0  0  0  0  0  0  0  0  0
   -1.9140   -0.6870    0.5550 N   0  0  0  0  0  0  0  0  0  0  0  0
   -4.1020   -1.4380    1.2740 C   0  0  0  0  0  0  0  0  0  0  0  0
   -5.3550   -1.5080    1.2390 O   0  0  0  0  0  0  0  0  0  0  0  0
   -3.4600   -2.1860    2.2640 O   0  0  0  0  0  0  0  0  0  0  0  0
   -3.2180   -2.5470   -2.2590 H   0  0  0  0  0  0  0  0  0  0  0  0
   -4.7880   -1.0010   -1.2240 H   0  0  0  0  0  0  0  0  0  0  0  0
   -3.2730   -0.3060   -1.8430 H   0  0  0  0  0  0  0  0  0  0  0  0
   -3.6440    0.4540    0.4810 H   0  0  0  0  0  0  0  0  0  0  0  0
   -1.4530   -1.6140    0.4350 H   0  0  0  0  0  0  0  0  0  0  0  0
  1 10  1  0  0  0  0
  2  7  1  0  0  0  0
  2 12  1  1  0  0  0
  2  1  1  0  0  0  0
  3  2  1  0  0  0  0
  4 16  1  0  0  0  0
  4 15  1  0  0  0  0
  4  3  1  0  0  0  0
  5  4  1  0  0  0  0
  6  5  2  0  0  0  0
  7  8  2  0  0  0  0
  9  5  1  0  0  0  0
 11  1  1  0  0  0  0
 13  3  1  0  0  0  0
 14  3  1  0  0  0  0
 17  9  1  0  0  0  0
 18 19  1  0  0  0  0
 18  7  1  0  0  0  0
 19 28  1  1  0  0  0
 20 29  1  0  0  0  0
 20 19  1  0  0  0  0
 21 20  1  0  0  0  0
 21 22  1  0  0  0  0
 22 34  1  0  0  0  0
 22 23  1  0  0  0  0
 23 24  1  0  0  0  0
 23 35  1  0  0  0  0
 23 36  1  0  0  0  0
 24 37  1  0  0  0  0
 24 38  1  0  0  0  0
 25 26  2  0  0  0  0
 25 19  1  0  0  0  0
 27 18  1  0  0  0  0
 30 20  1  0  0  0  0
 31 21  1  0  0  0  0
 32 21  1  0  0  0  0
 33 22  1  0  0  0  0
 39 40  1  0  0  0  0
 40 41  1  0  0  0  0
 41 49  1  1  0  0  0
 41 42  1  0  0  0  0
 41 43  1  0  0  0  0
 42 25  1  0  0  0  0
 43 45  1  0  0  0  0
 44 43  2  0  0  0  0
 46 39  1  0  0  0  0
 47 40  1  0  0  0  0
 48 40  1  0  0  0  0
 50 42  1  0  0  0  0
M  END
$$$$
