EKT.pdb
 OpenBabel07022418193D

 53 52  0  0  1  0  0  0  0  0999 V2000
    3.3610   -2.4100    1.8120 N   0  0  0  0  0  0  0  0  0  0  0  0
    2.9590   -1.4610    0.7710 C   0  0  1  0  0  0  0  0  0  0  0  0
    3.2160   -2.1310   -0.5370 C   0  0  0  0  0  0  0  0  0  0  0  0
    2.8740   -1.3350   -1.7510 C   0  0  0  0  0  0  0  0  0  0  0  0
    3.5960   -0.0730   -1.8920 C   0  0  0  0  0  0  0  0  0  0  0  0
    4.4420    0.3190   -1.0830 O   0  0  0  0  0  0  0  0  0  0  0  0
    1.5340   -1.0750    0.9300 C   0  0  0  0  0  0  0  0  0  0  0  0
    0.9620   -0.2780    0.1780 O   0  0  0  0  0  0  0  0  0  0  0  0
    3.3190    0.7270   -2.9900 O   0  0  0  0  0  0  0  0  0  0  0  0
    2.7650   -3.2560    1.6800 H   0  0  0  0  0  0  0  0  0  0  0  0
    3.2550   -2.0180    2.7700 H   0  0  0  0  0  0  0  0  0  0  0  0
    3.6210   -0.5980    0.8790 H   0  0  0  0  0  0  0  0  0  0  0  0
    4.3300   -2.3190   -0.5840 H   0  0  0  0  0  0  0  0  0  0  0  0
    2.7260   -3.1220   -0.5490 H   0  0  0  0  0  0  0  0  0  0  0  0
    1.7700   -1.2120   -1.8000 H   0  0  0  0  0  0  0  0  0  0  0  0
    3.1210   -1.9820   -2.6440 H   0  0  0  0  0  0  0  0  0  0  0  0
    4.0050    1.4160   -3.2950 H   0  0  0  0  0  0  0  0  0  0  0  0
    0.7370   -1.6280    1.9940 N   0  0  0  0  0  0  0  0  0  0  0  0
   -0.6210   -1.3460    2.2410 C   0  0  1  0  0  0  0  0  0  0  0  0
   -0.9060   -0.1280    3.0870 C   0  0  0  0  0  0  0  0  0  0  0  0
   -0.4000    1.1530    2.5430 C   0  0  0  0  0  0  0  0  0  0  0  0
   -0.6860    2.3400    3.3830 C   0  0  0  0  0  0  0  0  0  0  0  0
   -2.1070    2.6690    3.6500 C   0  0  0  0  0  0  0  0  0  0  0  0
   -2.8790    1.6920    4.3380 N   0  0  0  0  0  0  0  0  0  0  0  0
   -1.5650   -1.5270    1.1100 C   0  0  0  0  0  0  0  0  0  0  0  0
   -2.7490   -1.1040    1.2020 O   0  0  0  0  0  0  0  0  0  0  0  0
    1.2430   -2.3070    2.6450 H   0  0  0  0  0  0  0  0  0  0  0  0
   -0.9480   -2.1980    2.9670 H   0  0  0  0  0  0  0  0  0  0  0  0
   -0.3800   -0.3190    4.0700 H   0  0  0  0  0  0  0  0  0  0  0  0
   -2.0140   -0.1520    3.2560 H   0  0  0  0  0  0  0  0  0  0  0  0
   -0.7930    1.3590    1.5160 H   0  0  0  0  0  0  0  0  0  0  0  0
    0.7270    1.0580    2.5150 H   0  0  0  0  0  0  0  0  0  0  0  0
   -0.1510    2.3390    4.3590 H   0  0  0  0  0  0  0  0  0  0  0  0
   -0.2590    3.2320    2.8270 H   0  0  0  0  0  0  0  0  0  0  0  0
   -2.0950    3.5840    4.3160 H   0  0  0  0  0  0  0  0  0  0  0  0
   -2.6620    3.0160    2.7480 H   0  0  0  0  0  0  0  0  0  0  0  0
   -3.8710    1.6400    4.0500 H   0  0  0  0  0  0  0  0  0  0  0  0
   -2.7230    1.6530    5.3590 H   0  0  0  0  0  0  0  0  0  0  0  0
   -1.8720   -0.0590   -2.2120 C   0  0  0  0  0  0  0  0  0  0  0  0
   -1.8000   -1.5550   -2.4200 C   0  0  1  0  0  0  0  0  0  0  0  0
   -0.6130   -1.9590   -2.9630 O   0  0  0  0  0  0  0  0  0  0  0  0
   -2.2010   -2.3010   -1.1730 C   0  0  2  0  0  0  0  0  0  0  0  0
   -1.2290   -2.1650   -0.1050 N   0  0  0  0  0  0  0  0  0  0  0  0
   -2.5160   -3.7140   -1.4620 C   0  0  0  0  0  0  0  0  0  0  0  0
   -1.9590   -4.6190   -0.8090 O   0  0  0  0  0  0  0  0  0  0  0  0
   -3.4190   -4.0410   -2.4460 O   0  0  0  0  0  0  0  0  0  0  0  0
   -1.7120    0.4160   -3.2250 H   0  0  0  0  0  0  0  0  0  0  0  0
   -2.8790    0.2460   -1.9030 H   0  0  0  0  0  0  0  0  0  0  0  0
   -1.1190    0.3240   -1.5140 H   0  0  0  0  0  0  0  0  0  0  0  0
   -2.6040   -1.7900   -3.1790 H   0  0  0  0  0  0  0  0  0  0  0  0
   -0.1220   -1.1570   -3.3080 H   0  0  0  0  0  0  0  0  0  0  0  0
   -3.1460   -1.8350   -0.8260 H   0  0  0  0  0  0  0  0  0  0  0  0
   -0.2600   -2.5660   -0.2310 H   0  0  0  0  0  0  0  0  0  0  0  0
  1 11  1  0  0  0  0
  2 12  1  1  0  0  0
  2  7  1  0  0  0  0
  2  1  1  0  0  0  0
  3  2  1  0  0  0  0
  4  3  1  0  0  0  0
  5  4  1  0  0  0  0
  5  6  2  0  0  0  0
  7 18  1  0  0  0  0
  8  7  2  0  0  0  0
  9  5  1  0  0  0  0
 10  1  1  0  0  0  0
 13  3  1  0  0  0  0
 14  3  1  0  0  0  0
 15  4  1  0  0  0  0
 16  4  1  0  0  0  0
 17  9  1  0  0  0  0
 18 19  1  0  0  0  0
 18 27  1  0  0  0  0
 19 28  1  1  0  0  0
 19 20  1  0  0  0  0
 20 30  1  0  0  0  0
 20 29  1  0  0  0  0
 21 20  1  0  0  0  0
 21 22  1  0  0  0  0
 22 23  1  0  0  0  0
 22 33  1  0  0  0  0
 23 35  1  0  0  0  0
 23 24  1  0  0  0  0
 24 38  1  0  0  0  0
 25 26  2  0  0  0  0
 25 19  1  0  0  0  0
 31 21  1  0  0  0  0
 32 21  1  0  0  0  0
 34 22  1  0  0  0  0
 36 23  1  0  0  0  0
 37 24  1  0  0  0  0
 39 48  1  0  0  0  0
 39 49  1  0  0  0  0
 40 50  1  6  0  0  0
 40 39  1  0  0  0  0
 40 42  1  0  0  0  0
 41 40  1  0  0  0  0
 42 52  1  1  0  0  0
 42 43  1  0  0  0  0
 43 25  1  0  0  0  0
 44 42  1  0  0  0  0
 44 45  1  0  0  0  0
 46 44  2  0  0  0  0
 47 39  1  0  0  0  0
 51 41  1  0  0  0  0
 53 43  1  0  0  0  0
M  END
$$$$
