EKV.pdb
 OpenBabel07022418193D

 55 54  0  0  1  0  0  0  0  0999 V2000
    2.0770   -2.2330   -1.9690 N   0  0  0  0  0  0  0  0  0  0  0  0
    2.9020   -1.5050   -1.0080 C   0  0  1  0  0  0  0  0  0  0  0  0
    3.8600   -0.6850   -1.8160 C   0  0  0  0  0  0  0  0  0  0  0  0
    4.8080    0.1540   -1.0380 C   0  0  0  0  0  0  0  0  0  0  0  0
    5.7200   -0.5780   -0.1410 C   0  0  0  0  0  0  0  0  0  0  0  0
    5.6790   -1.8250   -0.1040 O   0  0  0  0  0  0  0  0  0  0  0  0
    2.0010   -0.6150   -0.2050 C   0  0  0  0  0  0  0  0  0  0  0  0
    2.5090    0.0570    0.6960 O   0  0  0  0  0  0  0  0  0  0  0  0
    6.6340    0.0730    0.6760 O   0  0  0  0  0  0  0  0  0  0  0  0
    1.7050   -1.5210   -2.6230 H   0  0  0  0  0  0  0  0  0  0  0  0
    1.3600   -2.8330   -1.5160 H   0  0  0  0  0  0  0  0  0  0  0  0
    3.4410   -2.2140   -0.3770 H   0  0  0  0  0  0  0  0  0  0  0  0
    3.2310    0.0240   -2.4290 H   0  0  0  0  0  0  0  0  0  0  0  0
    4.3900   -1.3920   -2.5000 H   0  0  0  0  0  0  0  0  0  0  0  0
    4.2960    1.0020   -0.5140 H   0  0  0  0  0  0  0  0  0  0  0  0
    5.4720    0.6830   -1.7860 H   0  0  0  0  0  0  0  0  0  0  0  0
    7.2000   -0.4770    1.3330 H   0  0  0  0  0  0  0  0  0  0  0  0
    0.6210   -0.5500   -0.4730 N   0  0  0  0  0  0  0  0  0  0  0  0
   -0.3050    0.3330    0.3160 C   0  0  1  0  0  0  0  0  0  0  0  0
   -0.8910    1.3440   -0.5660 C   0  0  0  0  0  0  0  0  0  0  0  0
   -1.8010    2.3920   -0.1270 C   0  0  0  0  0  0  0  0  0  0  0  0
   -1.3610    3.4700    0.7900 C   0  0  0  0  0  0  0  0  0  0  0  0
   -0.9280    3.1780    2.1740 C   0  0  0  0  0  0  0  0  0  0  0  0
   -1.9810    2.5740    2.9630 N   0  0  0  0  0  0  0  0  0  0  0  0
   -1.2710   -0.5570    0.9990 C   0  0  0  0  0  0  0  0  0  0  0  0
   -2.2050   -0.1310    1.6890 O   0  0  0  0  0  0  0  0  0  0  0  0
    0.2560   -1.1410   -1.2480 H   0  0  0  0  0  0  0  0  0  0  0  0
    0.3500    0.7710    1.0560 H   0  0  0  0  0  0  0  0  0  0  0  0
   -1.3770    0.8540   -1.4970 H   0  0  0  0  0  0  0  0  0  0  0  0
   -0.0310    1.8940   -1.1130 H   0  0  0  0  0  0  0  0  0  0  0  0
   -2.7610    1.9830    0.3270 H   0  0  0  0  0  0  0  0  0  0  0  0
   -2.2100    2.9560   -1.0480 H   0  0  0  0  0  0  0  0  0  0  0  0
   -0.4920    4.0050    0.2450 H   0  0  0  0  0  0  0  0  0  0  0  0
   -2.1270    4.3310    0.7910 H   0  0  0  0  0  0  0  0  0  0  0  0
   -0.0130    2.5940    2.2690 H   0  0  0  0  0  0  0  0  0  0  0  0
   -0.7540    4.2000    2.6560 H   0  0  0  0  0  0  0  0  0  0  0  0
   -2.8930    3.0410    2.8610 H   0  0  0  0  0  0  0  0  0  0  0  0
   -1.7030    2.2920    3.9050 H   0  0  0  0  0  0  0  0  0  0  0  0
   -3.9090   -4.5680    1.2300 C   0  0  0  0  0  0  0  0  0  0  0  0
   -2.9270   -3.6660    0.5530 C   0  0  0  0  0  0  0  0  0  0  0  0
   -3.6530   -2.7520   -0.3900 C   0  0  0  0  0  0  0  0  0  0  0  0
   -2.1190   -2.8670    1.5620 C   0  0  2  0  0  0  0  0  0  0  0  0
   -1.1730   -1.9960    0.8940 N   0  0  0  0  0  0  0  0  0  0  0  0
   -1.4440   -3.7950    2.5010 C   0  0  0  0  0  0  0  0  0  0  0  0
   -0.1980   -3.7810    2.6620 O   0  0  0  0  0  0  0  0  0  0  0  0
   -2.1910   -4.7020    3.2240 O   0  0  0  0  0  0  0  0  0  0  0  0
   -4.8270   -4.7520    0.6250 H   0  0  0  0  0  0  0  0  0  0  0  0
   -3.4740   -5.5790    1.4160 H   0  0  0  0  0  0  0  0  0  0  0  0
   -4.2540   -4.1840    2.2090 H   0  0  0  0  0  0  0  0  0  0  0  0
   -2.1980   -4.3180    0.0140 H   0  0  0  0  0  0  0  0  0  0  0  0
   -4.6770   -2.6030   -0.0310 H   0  0  0  0  0  0  0  0  0  0  0  0
   -3.0650   -1.7980   -0.4630 H   0  0  0  0  0  0  0  0  0  0  0  0
   -3.6500   -3.1870   -1.4230 H   0  0  0  0  0  0  0  0  0  0  0  0
   -2.8470   -2.2450    2.1090 H   0  0  0  0  0  0  0  0  0  0  0  0
   -0.3890   -2.3430    0.3150 H   0  0  0  0  0  0  0  0  0  0  0  0
  1 11  1  0  0  0  0
  1  2  1  0  0  0  0
  2 12  1  1  0  0  0
  2  7  1  0  0  0  0
  3  4  1  0  0  0  0
  3  2  1  0  0  0  0
  4 15  1  0  0  0  0
  4  5  1  0  0  0  0
  5  6  2  0  0  0  0
  5  9  1  0  0  0  0
  7  8  2  0  0  0  0
  9 17  1  0  0  0  0
 10  1  1  0  0  0  0
 13  3  1  0  0  0  0
 14  3  1  0  0  0  0
 16  4  1  0  0  0  0
 18  7  1  0  0  0  0
 18 19  1  0  0  0  0
 19 25  1  0  0  0  0
 19 28  1  1  0  0  0
 20 21  1  0  0  0  0
 20 19  1  0  0  0  0
 21 31  1  0  0  0  0
 21 22  1  0  0  0  0
 22 34  1  0  0  0  0
 22 23  1  0  0  0  0
 23 35  1  0  0  0  0
 23 36  1  0  0  0  0
 23 24  1  0  0  0  0
 24 38  1  0  0  0  0
 25 26  2  0  0  0  0
 27 18  1  0  0  0  0
 29 20  1  0  0  0  0
 30 20  1  0  0  0  0
 32 21  1  0  0  0  0
 33 22  1  0  0  0  0
 37 24  1  0  0  0  0
 39 48  1  0  0  0  0
 39 49  1  0  0  0  0
 40 39  1  0  0  0  0
 40 42  1  0  0  0  0
 41 51  1  0  0  0  0
 41 40  1  0  0  0  0
 42 54  1  1  0  0  0
 42 44  1  0  0  0  0
 43 25  1  0  0  0  0
 43 42  1  0  0  0  0
 44 45  2  0  0  0  0
 44 46  1  0  0  0  0
 47 39  1  0  0  0  0
 50 40  1  0  0  0  0
 52 41  1  0  0  0  0
 53 41  1  0  0  0  0
 55 43  1  0  0  0  0
M  END
$$$$
