EKY.pdb
 OpenBabel07022418193D

 60 60  0  0  1  0  0  0  0  0999 V2000
    2.2080    0.6110    4.5940 N   0  0  0  0  0  0  0  0  0  0  0  0
    2.1570    0.4860    3.1370 C   0  0  1  0  0  0  0  0  0  0  0  0
    2.9370   -0.7100    2.7500 C   0  0  0  0  0  0  0  0  0  0  0  0
    4.3660   -0.5830    3.1950 C   0  0  0  0  0  0  0  0  0  0  0  0
    5.0110    0.5460    2.5190 C   0  0  0  0  0  0  0  0  0  0  0  0
    4.4450    1.1960    1.6290 O   0  0  0  0  0  0  0  0  0  0  0  0
    0.7230    0.4000    2.7030 C   0  0  0  0  0  0  0  0  0  0  0  0
   -0.2280    0.4590    3.5470 O   0  0  0  0  0  0  0  0  0  0  0  0
    6.3150    0.9230    2.8750 O   0  0  0  0  0  0  0  0  0  0  0  0
    2.0890   -0.3710    4.9860 H   0  0  0  0  0  0  0  0  0  0  0  0
    1.3910    1.1660    4.9500 H   0  0  0  0  0  0  0  0  0  0  0  0
    2.5480    1.4030    2.7310 H   0  0  0  0  0  0  0  0  0  0  0  0
    2.5250   -1.5940    3.3170 H   0  0  0  0  0  0  0  0  0  0  0  0
    2.8760   -0.9490    1.6620 H   0  0  0  0  0  0  0  0  0  0  0  0
    4.9290   -1.5350    3.0260 H   0  0  0  0  0  0  0  0  0  0  0  0
    4.3900   -0.4240    4.3130 H   0  0  0  0  0  0  0  0  0  0  0  0
    6.7670    1.7430    2.4420 H   0  0  0  0  0  0  0  0  0  0  0  0
    0.3570    0.2500    1.3410 N   0  0  0  0  0  0  0  0  0  0  0  0
   -1.0780    0.1700    0.9470 C   0  0  1  0  0  0  0  0  0  0  0  0
   -1.3180    1.0470   -0.2010 C   0  0  0  0  0  0  0  0  0  0  0  0
   -2.6110    1.2460   -0.8270 C   0  0  0  0  0  0  0  0  0  0  0  0
   -3.7540    1.8640   -0.1590 C   0  0  0  0  0  0  0  0  0  0  0  0
   -4.3390    1.2290    1.0570 C   0  0  0  0  0  0  0  0  0  0  0  0
   -4.8530   -0.0990    0.8410 N   0  0  0  0  0  0  0  0  0  0  0  0
   -1.2150   -1.2770    0.5130 C   0  0  0  0  0  0  0  0  0  0  0  0
   -2.3030   -1.7330    0.0770 O   0  0  0  0  0  0  0  0  0  0  0  0
    1.1180    0.1980    0.6320 H   0  0  0  0  0  0  0  0  0  0  0  0
   -1.6790    0.2620    1.8400 H   0  0  0  0  0  0  0  0  0  0  0  0
   -0.6060    0.7120   -1.0370 H   0  0  0  0  0  0  0  0  0  0  0  0
   -0.8390    2.0570    0.0570 H   0  0  0  0  0  0  0  0  0  0  0  0
   -2.4060    1.8070   -1.8080 H   0  0  0  0  0  0  0  0  0  0  0  0
   -3.0010    0.2560   -1.2640 H   0  0  0  0  0  0  0  0  0  0  0  0
   -4.6100    1.8480   -0.9230 H   0  0  0  0  0  0  0  0  0  0  0  0
   -3.6490    2.9860   -0.0250 H   0  0  0  0  0  0  0  0  0  0  0  0
   -5.2770    1.8260    1.3840 H   0  0  0  0  0  0  0  0  0  0  0  0
   -3.7340    1.2460    1.9620 H   0  0  0  0  0  0  0  0  0  0  0  0
   -4.6440   -0.3860   -0.1300 H   0  0  0  0  0  0  0  0  0  0  0  0
   -4.3950   -0.7480    1.5000 H   0  0  0  0  0  0  0  0  0  0  0  0
   -1.4970   -0.5990   -5.2080 O   0  0  0  0  0  0  0  0  0  0  0  0
   -0.9780   -1.3890   -4.1880 C   0  0  0  0  0  0  0  0  0  0  0  0
    0.0480   -0.9170   -3.3690 C   0  0  0  0  0  0  0  0  0  0  0  0
    0.5770   -1.6940   -2.3460 C   0  0  0  0  0  0  0  0  0  0  0  0
    0.0790   -2.9520   -2.1360 C   0  0  0  0  0  0  0  0  0  0  0  0
    0.5670   -3.8600   -1.0780 C   0  0  0  0  0  0  0  0  0  0  0  0
   -0.2760   -3.5800    0.1550 C   0  0  2  0  0  0  0  0  0  0  0  0
   -0.1290   -2.1940    0.5730 N   0  0  0  0  0  0  0  0  0  0  0  0
   -0.0070   -4.5220    1.2460 C   0  0  0  0  0  0  0  0  0  0  0  0
   -0.0870   -5.7460    1.0600 O   0  0  0  0  0  0  0  0  0  0  0  0
   -0.9370   -3.4120   -2.9510 C   0  0  0  0  0  0  0  0  0  0  0  0
   -1.4720   -2.6550   -3.9690 C   0  0  0  0  0  0  0  0  0  0  0  0
    0.3400   -4.0460    2.4950 O   0  0  0  0  0  0  0  0  0  0  0  0
   -2.4530   -0.2210   -5.1740 H   0  0  0  0  0  0  0  0  0  0  0  0
    0.4570    0.0710   -3.5150 H   0  0  0  0  0  0  0  0  0  0  0  0
    1.3690   -1.3190   -1.7200 H   0  0  0  0  0  0  0  0  0  0  0  0
    1.6330   -3.6740   -0.8260 H   0  0  0  0  0  0  0  0  0  0  0  0
    0.4430   -4.9220   -1.3130 H   0  0  0  0  0  0  0  0  0  0  0  0
   -1.3390   -3.7150   -0.1680 H   0  0  0  0  0  0  0  0  0  0  0  0
    0.7800   -1.8360    0.9300 H   0  0  0  0  0  0  0  0  0  0  0  0
   -1.3380   -4.4020   -2.7960 H   0  0  0  0  0  0  0  0  0  0  0  0
   -2.2630   -3.0130   -4.6040 H   0  0  0  0  0  0  0  0  0  0  0  0
  1 11  1  0  0  0  0
  1 10  1  0  0  0  0
  2 12  1  6  0  0  0
  2  1  1  0  0  0  0
  3  2  1  0  0  0  0
  3  4  1  0  0  0  0
  3 13  1  0  0  0  0
  4 16  1  0  0  0  0
  5  9  1  0  0  0  0
  5  4  1  0  0  0  0
  6  5  2  0  0  0  0
  7  2  1  0  0  0  0
  7  8  2  0  0  0  0
 14  3  1  0  0  0  0
 15  4  1  0  0  0  0
 17  9  1  0  0  0  0
 18  7  1  0  0  0  0
 19 18  1  0  0  0  0
 19 28  1  1  0  0  0
 20 30  1  0  0  0  0
 20 19  1  0  0  0  0
 21 20  1  0  0  0  0
 21 22  1  0  0  0  0
 22 34  1  0  0  0  0
 22 23  1  0  0  0  0
 23 35  1  0  0  0  0
 23 36  1  0  0  0  0
 24 23  1  0  0  0  0
 24 38  1  0  0  0  0
 25 46  1  0  0  0  0
 25 19  1  0  0  0  0
 26 25  2  0  0  0  0
 27 18  1  0  0  0  0
 29 20  1  0  0  0  0
 31 21  1  0  0  0  0
 32 21  1  0  0  0  0
 33 22  1  0  0  0  0
 37 24  1  0  0  0  0
 39 52  1  0  0  0  0
 39 40  1  0  0  0  0
 40 50  2  0  0  0  0
 40 41  1  0  0  0  0
 41 42  2  0  0  0  0
 42 43  1  0  0  0  0
 42 54  1  0  0  0  0
 43 44  1  0  0  0  0
 44 55  1  0  0  0  0
 44 45  1  0  0  0  0
 45 57  1  6  0  0  0
 45 46  1  0  0  0  0
 45 47  1  0  0  0  0
 46 58  1  0  0  0  0
 47 51  1  0  0  0  0
 48 47  2  0  0  0  0
 49 59  1  0  0  0  0
 49 43  2  0  0  0  0
 50 49  1  0  0  0  0
 53 41  1  0  0  0  0
 56 44  1  0  0  0  0
 60 50  1  0  0  0  0
M  END
$$$$
