ELH.pdb
 OpenBabel07022418193D

 54 54  0  0  1  0  0  0  0  0999 V2000
   -0.5610    2.0620    5.2850 N   0  0  0  0  0  0  0  0  0  0  0  0
    0.0760    0.9380    4.5780 C   0  0  1  0  0  0  0  0  0  0  0  0
   -0.5710   -0.3340    5.0820 C   0  0  0  0  0  0  0  0  0  0  0  0
   -0.0370   -1.5920    4.4520 C   0  0  0  0  0  0  0  0  0  0  0  0
   -0.7880   -2.7330    5.1030 C   0  0  0  0  0  0  0  0  0  0  0  0
   -1.6560   -2.5650    5.9780 O   0  0  0  0  0  0  0  0  0  0  0  0
   -0.0090    1.1280    3.1350 C   0  0  0  0  0  0  0  0  0  0  0  0
   -0.7740    2.0260    2.7040 O   0  0  0  0  0  0  0  0  0  0  0  0
   -0.5110   -4.0430    4.7230 O   0  0  0  0  0  0  0  0  0  0  0  0
   -1.5730    2.0150    5.0150 H   0  0  0  0  0  0  0  0  0  0  0  0
   -0.1220    2.9160    4.8960 H   0  0  0  0  0  0  0  0  0  0  0  0
    1.1460    0.8970    4.8720 H   0  0  0  0  0  0  0  0  0  0  0  0
   -0.5710   -0.3880    6.1790 H   0  0  0  0  0  0  0  0  0  0  0  0
   -1.6500   -0.2630    4.7510 H   0  0  0  0  0  0  0  0  0  0  0  0
   -0.4020   -1.6350    3.3890 H   0  0  0  0  0  0  0  0  0  0  0  0
    1.0410   -1.7190    4.4980 H   0  0  0  0  0  0  0  0  0  0  0  0
   -0.5670   -4.8260    5.3610 H   0  0  0  0  0  0  0  0  0  0  0  0
    3.6480    0.0780    1.3320 C   0  0  0  0  0  0  0  0  0  0  0  0
    3.0100    0.4270    0.0690 C   0  0  0  0  0  0  0  0  0  0  0  0
    4.0170    1.2560   -0.7570 C   0  0  0  0  0  0  0  0  0  0  0  0
    1.7530    1.2000    0.0490 C   0  0  0  0  0  0  0  0  0  0  0  0
    0.5500    0.6460    0.7140 C   0  0  2  0  0  0  0  0  0  0  0  0
    0.6890    0.4000    2.1320 N   0  0  0  0  0  0  0  0  0  0  0  0
   -0.0880   -0.4790   -0.0100 C   0  0  0  0  0  0  0  0  0  0  0  0
   -0.4160   -1.4950    0.6560 O   0  0  0  0  0  0  0  0  0  0  0  0
    4.7730    0.1560    1.2200 H   0  0  0  0  0  0  0  0  0  0  0  0
    3.5010   -0.9460    1.7120 H   0  0  0  0  0  0  0  0  0  0  0  0
    3.4250    0.7660    2.1750 H   0  0  0  0  0  0  0  0  0  0  0  0
    2.8660   -0.4920   -0.5810 H   0  0  0  0  0  0  0  0  0  0  0  0
    4.4420    1.9890   -0.0490 H   0  0  0  0  0  0  0  0  0  0  0  0
    4.8650    0.6030   -1.0700 H   0  0  0  0  0  0  0  0  0  0  0  0
    3.5080    1.7330   -1.6140 H   0  0  0  0  0  0  0  0  0  0  0  0
    1.9900    2.2530    0.3670 H   0  0  0  0  0  0  0  0  0  0  0  0
    1.5160    1.3440   -1.0450 H   0  0  0  0  0  0  0  0  0  0  0  0
   -0.2380    1.4630    0.6470 H   0  0  0  0  0  0  0  0  0  0  0  0
    1.3340   -0.3450    2.4900 H   0  0  0  0  0  0  0  0  0  0  0  0
   -0.2910   -0.3490   -1.4000 N   0  0  0  0  0  0  0  0  0  0  0  0
   -0.9320   -1.5000   -2.0810 C   0  0  1  0  0  0  0  0  0  0  0  0
   -2.2350   -0.9720   -2.5900 C   0  0  0  0  0  0  0  0  0  0  0  0
   -3.0500   -1.9950   -3.2870 C   0  0  0  0  0  0  0  0  0  0  0  0
   -4.2930   -1.7590   -3.8630 C   0  0  0  0  0  0  0  0  0  0  0  0
   -4.7250   -2.9030   -4.3950 N   0  0  0  0  0  0  0  0  0  0  0  0
   -3.7970   -3.8470   -4.1750 C   0  0  0  0  0  0  0  0  0  0  0  0
   -2.7840   -3.2870   -3.5020 N   0  0  0  0  0  0  0  0  0  0  0  0
   -0.0180   -1.9870   -3.1490 C   0  0  0  0  0  0  0  0  0  0  0  0
    1.0690   -1.3770   -3.3160 O   0  0  0  0  0  0  0  0  0  0  0  0
   -0.2490   -3.0550   -3.9830 O   0  0  0  0  0  0  0  0  0  0  0  0
   -0.0450    0.4590   -1.9990 H   0  0  0  0  0  0  0  0  0  0  0  0
   -1.1520   -2.3120   -1.3730 H   0  0  0  0  0  0  0  0  0  0  0  0
   -2.0310   -0.0910   -3.2590 H   0  0  0  0  0  0  0  0  0  0  0  0
   -2.8570   -0.6310   -1.7250 H   0  0  0  0  0  0  0  0  0  0  0  0
   -4.8190   -0.8040   -3.8730 H   0  0  0  0  0  0  0  0  0  0  0  0
   -5.6450   -3.0060   -4.8960 H   0  0  0  0  0  0  0  0  0  0  0  0
   -3.9140   -4.8700   -4.5140 H   0  0  0  0  0  0  0  0  0  0  0  0
  2 12  1  1  0  0  0
  2  3  1  0  0  0  0
  2  1  1  0  0  0  0
  3 13  1  0  0  0  0
  4 16  1  0  0  0  0
  4  3  1  0  0  0  0
  4  5  1  0  0  0  0
  5  6  2  0  0  0  0
  7  2  1  0  0  0  0
  8  7  2  0  0  0  0
  9  5  1  0  0  0  0
  9 17  1  0  0  0  0
 10  1  1  0  0  0  0
 11  1  1  0  0  0  0
 14  3  1  0  0  0  0
 15  4  1  0  0  0  0
 18 27  1  0  0  0  0
 18 28  1  0  0  0  0
 19 18  1  0  0  0  0
 20 30  1  0  0  0  0
 20 19  1  0  0  0  0
 21 19  1  0  0  0  0
 21 33  1  0  0  0  0
 21 22  1  0  0  0  0
 22 35  1  6  0  0  0
 22 23  1  0  0  0  0
 23 36  1  0  0  0  0
 23  7  1  0  0  0  0
 24 25  2  0  0  0  0
 24 22  1  0  0  0  0
 26 18  1  0  0  0  0
 29 19  1  0  0  0  0
 31 20  1  0  0  0  0
 32 20  1  0  0  0  0
 34 21  1  0  0  0  0
 37 24  1  0  0  0  0
 38 37  1  0  0  0  0
 38 49  1  1  0  0  0
 39 38  1  0  0  0  0
 39 51  1  0  0  0  0
 40 39  1  0  0  0  0
 41 40  2  0  0  0  0
 42 43  1  0  0  0  0
 42 41  1  0  0  0  0
 43 44  2  0  0  0  0
 44 40  1  0  0  0  0
 45 38  1  0  0  0  0
 46 45  1  0  0  0  0
 47 45  2  0  0  0  0
 48 37  1  0  0  0  0
 50 39  1  0  0  0  0
 52 41  1  0  0  0  0
 53 42  1  0  0  0  0
 54 43  1  0  0  0  0
M  END
$$$$
