ELI.pdb
 OpenBabel07022418193D

 56 55  0  0  1  0  0  0  0  0999 V2000
    1.5190   -1.7470    5.2370 N   0  0  0  0  0  0  0  0  0  0  0  0
    1.8280   -2.2600    3.8300 C   0  0  1  0  0  0  0  0  0  0  0  0
    1.3470   -3.6630    3.9120 C   0  0  0  0  0  0  0  0  0  0  0  0
    1.5140   -4.5700    2.7660 C   0  0  0  0  0  0  0  0  0  0  0  0
    0.8960   -4.2240    1.4950 C   0  0  0  0  0  0  0  0  0  0  0  0
    1.6170   -4.1610    0.4330 O   0  0  0  0  0  0  0  0  0  0  0  0
    1.0130   -1.3590    3.0040 C   0  0  0  0  0  0  0  0  0  0  0  0
   -0.0010   -0.7550    3.5350 O   0  0  0  0  0  0  0  0  0  0  0  0
   -0.4490   -3.9500    1.3410 O   0  0  0  0  0  0  0  0  0  0  0  0
    2.0160   -2.4320    5.8680 H   0  0  0  0  0  0  0  0  0  0  0  0
    0.4950   -1.9370    5.3370 H   0  0  0  0  0  0  0  0  0  0  0  0
    2.8970   -2.1750    3.6510 H   0  0  0  0  0  0  0  0  0  0  0  0
    1.8160   -4.2000    4.8080 H   0  0  0  0  0  0  0  0  0  0  0  0
    0.2430   -3.7020    4.1890 H   0  0  0  0  0  0  0  0  0  0  0  0
    1.0380   -5.5610    3.0810 H   0  0  0  0  0  0  0  0  0  0  0  0
    2.5970   -4.8580    2.6400 H   0  0  0  0  0  0  0  0  0  0  0  0
   -0.9410   -3.9710    0.4590 H   0  0  0  0  0  0  0  0  0  0  0  0
    2.6020    3.0250    1.2810 C   0  0  0  0  0  0  0  0  0  0  0  0
    1.8130    1.7940    1.7600 C   0  0  0  0  0  0  0  0  0  0  0  0
    0.7090    2.3300    2.6470 C   0  0  0  0  0  0  0  0  0  0  0  0
    1.2610    1.0810    0.5620 C   0  0  0  0  0  0  0  0  0  0  0  0
    0.4630   -0.1760    0.9250 C   0  0  2  0  0  0  0  0  0  0  0  0
    1.3080   -1.1150    1.6290 N   0  0  0  0  0  0  0  0  0  0  0  0
   -0.0750   -0.6810   -0.3380 C   0  0  0  0  0  0  0  0  0  0  0  0
    0.2450   -1.8100   -0.7580 O   0  0  0  0  0  0  0  0  0  0  0  0
    1.9370    3.9160    1.2690 H   0  0  0  0  0  0  0  0  0  0  0  0
    3.0130    2.7760    0.2810 H   0  0  0  0  0  0  0  0  0  0  0  0
    3.4470    3.2320    1.9640 H   0  0  0  0  0  0  0  0  0  0  0  0
    2.5420    1.1830    2.3350 H   0  0  0  0  0  0  0  0  0  0  0  0
    0.7720    3.4420    2.7240 H   0  0  0  0  0  0  0  0  0  0  0  0
   -0.2630    2.1280    2.1450 H   0  0  0  0  0  0  0  0  0  0  0  0
    0.7170    1.8730    3.6710 H   0  0  0  0  0  0  0  0  0  0  0  0
    0.5910    1.7940    0.0360 H   0  0  0  0  0  0  0  0  0  0  0  0
    2.1070    0.8290   -0.1100 H   0  0  0  0  0  0  0  0  0  0  0  0
   -0.3380    0.1770    1.5930 H   0  0  0  0  0  0  0  0  0  0  0  0
    2.1030   -1.5860    1.1480 H   0  0  0  0  0  0  0  0  0  0  0  0
   -2.5660   -2.6230   -3.8860 C   0  0  0  0  0  0  0  0  0  0  0  0
   -3.3890   -1.3780   -3.6120 C   0  0  0  0  0  0  0  0  0  0  0  0
   -2.9360   -0.7450   -2.3290 C   0  0  2  0  0  0  0  0  0  0  0  0
   -3.7710    0.4900   -2.0900 C   0  0  0  0  0  0  0  0  0  0  0  0
   -1.4630   -0.4930   -2.3760 C   0  0  2  0  0  0  0  0  0  0  0  0
   -0.9880    0.1050   -1.1360 N   0  0  0  0  0  0  0  0  0  0  0  0
   -1.0640    0.4100   -3.4710 C   0  0  0  0  0  0  0  0  0  0  0  0
   -1.2640    0.1800   -4.6990 O   0  0  0  0  0  0  0  0  0  0  0  0
   -0.4110    1.6320   -3.1960 O   0  0  0  0  0  0  0  0  0  0  0  0
   -2.2230   -3.0170   -2.9200 H   0  0  0  0  0  0  0  0  0  0  0  0
   -1.7990   -2.4970   -4.6480 H   0  0  0  0  0  0  0  0  0  0  0  0
   -3.2730   -3.3920   -4.2880 H   0  0  0  0  0  0  0  0  0  0  0  0
   -4.4840   -1.6390   -3.5700 H   0  0  0  0  0  0  0  0  0  0  0  0
   -3.3030   -0.7200   -4.4920 H   0  0  0  0  0  0  0  0  0  0  0  0
   -3.2000   -1.4710   -1.5100 H   0  0  0  0  0  0  0  0  0  0  0  0
   -3.7540    0.8510   -1.0590 H   0  0  0  0  0  0  0  0  0  0  0  0
   -4.8330    0.2000   -2.3200 H   0  0  0  0  0  0  0  0  0  0  0  0
   -3.5390    1.3050   -2.8090 H   0  0  0  0  0  0  0  0  0  0  0  0
   -0.9740   -1.4710   -2.5250 H   0  0  0  0  0  0  0  0  0  0  0  0
   -1.2480    1.0340   -0.7850 H   0  0  0  0  0  0  0  0  0  0  0  0
  1 11  1  0  0  0  0
  1 10  1  0  0  0  0
  2 12  1  6  0  0  0
  2  3  1  0  0  0  0
  2  1  1  0  0  0  0
  3 14  1  0  0  0  0
  3 13  1  0  0  0  0
  4 15  1  0  0  0  0
  4  3  1  0  0  0  0
  5  4  1  0  0  0  0
  6  5  2  0  0  0  0
  7  8  2  0  0  0  0
  7  2  1  0  0  0  0
  9  5  1  0  0  0  0
 16  4  1  0  0  0  0
 17  9  1  0  0  0  0
 18 19  1  0  0  0  0
 18 28  1  0  0  0  0
 19 29  1  0  0  0  0
 19 20  1  0  0  0  0
 20 30  1  0  0  0  0
 20 32  1  0  0  0  0
 21 22  1  0  0  0  0
 21 19  1  0  0  0  0
 22 35  1  1  0  0  0
 22 23  1  0  0  0  0
 23  7  1  0  0  0  0
 24 22  1  0  0  0  0
 25 24  2  0  0  0  0
 26 18  1  0  0  0  0
 27 18  1  0  0  0  0
 31 20  1  0  0  0  0
 33 21  1  0  0  0  0
 34 21  1  0  0  0  0
 36 23  1  0  0  0  0
 37 38  1  0  0  0  0
 37 46  1  0  0  0  0
 38 49  1  0  0  0  0
 38 39  1  0  0  0  0
 39 40  1  0  0  0  0
 39 51  1  1  0  0  0
 40 52  1  0  0  0  0
 41 55  1  6  0  0  0
 41 39  1  0  0  0  0
 41 42  1  0  0  0  0
 42 56  1  0  0  0  0
 42 24  1  0  0  0  0
 43 45  1  0  0  0  0
 43 41  1  0  0  0  0
 44 43  2  0  0  0  0
 47 37  1  0  0  0  0
 48 37  1  0  0  0  0
 50 38  1  0  0  0  0
 53 40  1  0  0  0  0
 54 40  1  0  0  0  0
M  END
$$$$
