ELN.pdb
 OpenBabel07022418193D

 51 50  0  0  1  0  0  0  0  0999 V2000
    1.5460   -2.8300    4.7000 N   0  0  0  0  0  0  0  0  0  0  0  0
    1.5650   -2.8140    3.2300 C   0  0  1  0  0  0  0  0  0  0  0  0
    0.8650   -4.0330    2.7220 C   0  0  0  0  0  0  0  0  0  0  0  0
    0.8000   -4.1510    1.2260 C   0  0  0  0  0  0  0  0  0  0  0  0
    0.1030   -5.4420    0.8540 C   0  0  0  0  0  0  0  0  0  0  0  0
   -0.3340   -6.2480    1.6920 O   0  0  0  0  0  0  0  0  0  0  0  0
    0.9390   -1.5930    2.7050 C   0  0  0  0  0  0  0  0  0  0  0  0
    0.2080   -0.9470    3.5130 O   0  0  0  0  0  0  0  0  0  0  0  0
   -0.0410   -5.7130   -0.4750 O   0  0  0  0  0  0  0  0  0  0  0  0
    0.8690   -3.4980    5.0790 H   0  0  0  0  0  0  0  0  0  0  0  0
    1.3600   -1.8800    5.0290 H   0  0  0  0  0  0  0  0  0  0  0  0
    2.6450   -2.8710    2.9670 H   0  0  0  0  0  0  0  0  0  0  0  0
   -0.2010   -4.0880    3.0770 H   0  0  0  0  0  0  0  0  0  0  0  0
    1.3200   -4.9690    3.1590 H   0  0  0  0  0  0  0  0  0  0  0  0
    1.7670   -4.1380    0.7190 H   0  0  0  0  0  0  0  0  0  0  0  0
    0.0860   -3.3520    0.8650 H   0  0  0  0  0  0  0  0  0  0  0  0
   -0.0830   -6.6380   -0.8820 H   0  0  0  0  0  0  0  0  0  0  0  0
    3.4460    0.5690    1.9190 C   0  0  0  0  0  0  0  0  0  0  0  0
    2.5040    1.5900    1.3370 C   0  0  0  0  0  0  0  0  0  0  0  0
    1.9220    2.5030    2.3810 C   0  0  0  0  0  0  0  0  0  0  0  0
    1.4980    1.0590    0.3870 C   0  0  0  0  0  0  0  0  0  0  0  0
    0.5460    0.0250    0.8940 C   0  0  2  0  0  0  0  0  0  0  0  0
    1.1520   -1.1670    1.3700 N   0  0  0  0  0  0  0  0  0  0  0  0
   -0.4500   -0.1960   -0.1820 C   0  0  0  0  0  0  0  0  0  0  0  0
   -0.7100   -1.3150   -0.6730 O   0  0  0  0  0  0  0  0  0  0  0  0
    3.1510    0.2510    2.9400 H   0  0  0  0  0  0  0  0  0  0  0  0
    3.6130   -0.2900    1.2250 H   0  0  0  0  0  0  0  0  0  0  0  0
    4.4840    1.0030    2.0580 H   0  0  0  0  0  0  0  0  0  0  0  0
    3.1710    2.2600    0.7100 H   0  0  0  0  0  0  0  0  0  0  0  0
    1.8280    3.5610    1.9970 H   0  0  0  0  0  0  0  0  0  0  0  0
    2.5690    2.5780    3.2750 H   0  0  0  0  0  0  0  0  0  0  0  0
    0.8730    2.2120    2.6390 H   0  0  0  0  0  0  0  0  0  0  0  0
    0.9370    1.9190   -0.0260 H   0  0  0  0  0  0  0  0  0  0  0  0
    2.0600    0.6410   -0.5010 H   0  0  0  0  0  0  0  0  0  0  0  0
   -0.0160    0.4930    1.7570 H   0  0  0  0  0  0  0  0  0  0  0  0
    1.7740   -1.7560    0.7840 H   0  0  0  0  0  0  0  0  0  0  0  0
   -5.2610   -0.3440   -2.4060 N   0  0  0  0  0  0  0  0  0  0  0  0
   -4.5410    0.9080   -2.3660 C   0  0  0  0  0  0  0  0  0  0  0  0
   -4.8450    1.7200   -3.2660 O   0  0  0  0  0  0  0  0  0  0  0  0
   -3.5400    1.1340   -1.3110 C   0  0  0  0  0  0  0  0  0  0  0  0
   -2.1780    0.6790   -1.7890 C   0  0  2  0  0  0  0  0  0  0  0  0
   -1.1860    0.9060   -0.7230 N   0  0  0  0  0  0  0  0  0  0  0  0
   -1.8150    1.4010   -3.0070 C   0  0  0  0  0  0  0  0  0  0  0  0
   -2.4280    1.4060   -4.0950 O   0  0  0  0  0  0  0  0  0  0  0  0
   -0.6460    2.1920   -2.9860 O   0  0  0  0  0  0  0  0  0  0  0  0
   -4.9120   -1.1810   -2.8890 H   0  0  0  0  0  0  0  0  0  0  0  0
   -6.1910   -0.3600   -1.9010 H   0  0  0  0  0  0  0  0  0  0  0  0
   -3.5230    2.2350   -1.1070 H   0  0  0  0  0  0  0  0  0  0  0  0
   -3.8110    0.6290   -0.3550 H   0  0  0  0  0  0  0  0  0  0  0  0
   -2.1810   -0.4090   -2.0320 H   0  0  0  0  0  0  0  0  0  0  0  0
   -1.0570    1.8910   -0.3970 H   0  0  0  0  0  0  0  0  0  0  0  0
  1 11  1  0  0  0  0
  1 10  1  0  0  0  0
  2 12  1  6  0  0  0
  2  1  1  0  0  0  0
  3 13  1  0  0  0  0
  3 14  1  0  0  0  0
  3  2  1  0  0  0  0
  4  3  1  0  0  0  0
  5  4  1  0  0  0  0
  5  6  2  0  0  0  0
  7  2  1  0  0  0  0
  7  8  2  0  0  0  0
  9  5  1  0  0  0  0
 15  4  1  0  0  0  0
 16  4  1  0  0  0  0
 17  9  1  0  0  0  0
 18 28  1  0  0  0  0
 18 26  1  0  0  0  0
 19 18  1  0  0  0  0
 19 20  1  0  0  0  0
 20 32  1  0  0  0  0
 20 31  1  0  0  0  0
 21 22  1  0  0  0  0
 21 19  1  0  0  0  0
 22 23  1  0  0  0  0
 22 35  1  1  0  0  0
 23  7  1  0  0  0  0
 24 22  1  0  0  0  0
 25 24  2  0  0  0  0
 27 18  1  0  0  0  0
 29 19  1  0  0  0  0
 30 20  1  0  0  0  0
 33 21  1  0  0  0  0
 34 21  1  0  0  0  0
 36 23  1  0  0  0  0
 37 38  1  0  0  0  0
 37 47  1  0  0  0  0
 38 40  1  0  0  0  0
 39 38  2  0  0  0  0
 40 48  1  0  0  0  0
 40 49  1  0  0  0  0
 41 50  1  6  0  0  0
 41 40  1  0  0  0  0
 41 42  1  0  0  0  0
 42 51  1  0  0  0  0
 42 24  1  0  0  0  0
 43 45  1  0  0  0  0
 43 41  1  0  0  0  0
 44 43  2  0  0  0  0
 46 37  1  0  0  0  0
M  END
$$$$
