ELQ.pdb
 OpenBabel07022418193D

 54 53  0  0  1  0  0  0  0  0999 V2000
    2.2520   -1.7980    3.5170 N   0  0  0  0  0  0  0  0  0  0  0  0
    1.4010   -0.6310    3.8160 C   0  0  1  0  0  0  0  0  0  0  0  0
    2.2160    0.3960    4.5200 C   0  0  0  0  0  0  0  0  0  0  0  0
    1.4070    1.6080    4.8540 C   0  0  0  0  0  0  0  0  0  0  0  0
    2.2500    2.6140    5.5820 C   0  0  0  0  0  0  0  0  0  0  0  0
    3.4580    2.3670    5.8250 O   0  0  0  0  0  0  0  0  0  0  0  0
    0.6990   -0.1840    2.6080 C   0  0  0  0  0  0  0  0  0  0  0  0
   -0.1630    0.7260    2.6160 O   0  0  0  0  0  0  0  0  0  0  0  0
    1.6830    3.7970    5.9750 O   0  0  0  0  0  0  0  0  0  0  0  0
    3.0380   -1.5230    2.8920 H   0  0  0  0  0  0  0  0  0  0  0  0
    1.6370   -2.5400    3.1030 H   0  0  0  0  0  0  0  0  0  0  0  0
    0.6370   -1.0140    4.5390 H   0  0  0  0  0  0  0  0  0  0  0  0
    3.1610    0.6520    3.9820 H   0  0  0  0  0  0  0  0  0  0  0  0
    2.5640   -0.0300    5.5000 H   0  0  0  0  0  0  0  0  0  0  0  0
    1.0850    2.1040    3.9120 H   0  0  0  0  0  0  0  0  0  0  0  0
    0.5560    1.3060    5.4870 H   0  0  0  0  0  0  0  0  0  0  0  0
    2.2470    4.6180    6.2330 H   0  0  0  0  0  0  0  0  0  0  0  0
    1.9590   -1.8270   -1.9620 C   0  0  0  0  0  0  0  0  0  0  0  0
    2.3820   -0.5650   -1.2660 C   0  0  0  0  0  0  0  0  0  0  0  0
    3.2090    0.2730   -2.2530 C   0  0  0  0  0  0  0  0  0  0  0  0
    1.2350    0.3070   -0.8420 C   0  0  0  0  0  0  0  0  0  0  0  0
    0.2730   -0.3380    0.1130 C   0  0  2  0  0  0  0  0  0  0  0  0
    0.9570   -0.7670    1.3150 N   0  0  0  0  0  0  0  0  0  0  0  0
   -0.5730   -1.3790   -0.4950 C   0  0  0  0  0  0  0  0  0  0  0  0
   -0.6040   -2.5580   -0.0570 O   0  0  0  0  0  0  0  0  0  0  0  0
    2.8120   -2.0860   -2.6630 H   0  0  0  0  0  0  0  0  0  0  0  0
    1.8470   -2.6640   -1.2430 H   0  0  0  0  0  0  0  0  0  0  0  0
    1.0990   -1.6820   -2.6310 H   0  0  0  0  0  0  0  0  0  0  0  0
    3.0420   -0.8020   -0.3820 H   0  0  0  0  0  0  0  0  0  0  0  0
    3.5810    1.1790   -1.7290 H   0  0  0  0  0  0  0  0  0  0  0  0
    4.0230   -0.3500   -2.6600 H   0  0  0  0  0  0  0  0  0  0  0  0
    2.5210    0.6200   -3.0460 H   0  0  0  0  0  0  0  0  0  0  0  0
    1.5930    1.2770   -0.4220 H   0  0  0  0  0  0  0  0  0  0  0  0
    0.7180    0.6090   -1.8010 H   0  0  0  0  0  0  0  0  0  0  0  0
   -0.4380    0.4910    0.4470 H   0  0  0  0  0  0  0  0  0  0  0  0
    1.6770   -1.5290    1.2990 H   0  0  0  0  0  0  0  0  0  0  0  0
   -5.7440   -1.9450    1.2850 N   0  0  0  0  0  0  0  0  0  0  0  0
   -5.3500   -1.8670   -0.0760 C   0  0  0  0  0  0  0  0  0  0  0  0
   -6.2480   -1.6610   -0.9310 O   0  0  0  0  0  0  0  0  0  0  0  0
   -3.9220   -2.0250   -0.4540 C   0  0  0  0  0  0  0  0  0  0  0  0
   -3.7200   -1.9070   -1.9430 C   0  0  0  0  0  0  0  0  0  0  0  0
   -2.2540   -2.0780   -2.2370 C   0  0  2  0  0  0  0  0  0  0  0  0
   -1.4110   -1.1140   -1.6110 N   0  0  0  0  0  0  0  0  0  0  0  0
   -1.9720   -2.1310   -3.6850 C   0  0  0  0  0  0  0  0  0  0  0  0
   -2.5600   -2.9300   -4.4690 O   0  0  0  0  0  0  0  0  0  0  0  0
   -1.0350   -1.2870   -4.2490 O   0  0  0  0  0  0  0  0  0  0  0  0
   -5.2100   -2.5640    1.9160 H   0  0  0  0  0  0  0  0  0  0  0  0
   -6.5410   -1.4120    1.6780 H   0  0  0  0  0  0  0  0  0  0  0  0
   -3.3550   -1.2700    0.1170 H   0  0  0  0  0  0  0  0  0  0  0  0
   -3.6170   -3.0330   -0.1060 H   0  0  0  0  0  0  0  0  0  0  0  0
   -4.1800   -1.0310   -2.3870 H   0  0  0  0  0  0  0  0  0  0  0  0
   -4.2250   -2.7960   -2.3980 H   0  0  0  0  0  0  0  0  0  0  0  0
   -2.0010   -3.0690   -1.8050 H   0  0  0  0  0  0  0  0  0  0  0  0
   -1.4180   -0.1510   -2.0090 H   0  0  0  0  0  0  0  0  0  0  0  0
  1  2  1  0  0  0  0
  2  3  1  0  0  0  0
  2 12  1  1  0  0  0
  3  4  1  0  0  0  0
  3 14  1  0  0  0  0
  4 16  1  0  0  0  0
  4  5  1  0  0  0  0
  5  6  2  0  0  0  0
  5  9  1  0  0  0  0
  7  8  2  0  0  0  0
  7  2  1  0  0  0  0
  9 17  1  0  0  0  0
 10  1  1  0  0  0  0
 11  1  1  0  0  0  0
 13  3  1  0  0  0  0
 15  4  1  0  0  0  0
 18 19  1  0  0  0  0
 18 27  1  0  0  0  0
 19 21  1  0  0  0  0
 19 29  1  0  0  0  0
 20 30  1  0  0  0  0
 20 19  1  0  0  0  0
 21 33  1  0  0  0  0
 21 22  1  0  0  0  0
 22 35  1  1  0  0  0
 22 23  1  0  0  0  0
 23  7  1  0  0  0  0
 24 25  2  0  0  0  0
 24 22  1  0  0  0  0
 26 18  1  0  0  0  0
 28 18  1  0  0  0  0
 31 20  1  0  0  0  0
 32 20  1  0  0  0  0
 34 21  1  0  0  0  0
 36 23  1  0  0  0  0
 37 48  1  0  0  0  0
 37 47  1  0  0  0  0
 38 37  1  0  0  0  0
 39 38  2  0  0  0  0
 40 50  1  0  0  0  0
 40 38  1  0  0  0  0
 40 49  1  0  0  0  0
 41 40  1  0  0  0  0
 42 41  1  0  0  0  0
 42 53  1  1  0  0  0
 42 43  1  0  0  0  0
 43 24  1  0  0  0  0
 44 42  1  0  0  0  0
 45 44  2  0  0  0  0
 46 44  1  0  0  0  0
 51 41  1  0  0  0  0
 52 41  1  0  0  0  0
 54 43  1  0  0  0  0
M  END
$$$$
