ELR.pdb
 OpenBabel07022418193D

 60 59  0  0  1  0  0  0  0  0999 V2000
    3.3560   -2.3080    1.3410 N   0  0  0  0  0  0  0  0  0  0  0  0
    3.1020   -1.8310    2.6630 C   0  0  1  0  0  0  0  0  0  0  0  0
    4.2420   -1.0060    3.2180 C   0  0  0  0  0  0  0  0  0  0  0  0
    4.5140    0.2150    2.3610 C   0  0  0  0  0  0  0  0  0  0  0  0
    5.6320    0.9830    2.9450 C   0  0  0  0  0  0  0  0  0  0  0  0
    6.1930    0.5950    3.9820 O   0  0  0  0  0  0  0  0  0  0  0  0
    1.8680   -0.9810    2.7240 C   0  0  0  0  0  0  0  0  0  0  0  0
    1.4860   -0.4530    3.7980 O   0  0  0  0  0  0  0  0  0  0  0  0
    6.0690    2.1600    2.3290 O   0  0  0  0  0  0  0  0  0  0  0  0
    4.2910   -2.7600    1.3350 H   0  0  0  0  0  0  0  0  0  0  0  0
    2.6150   -2.9740    1.0770 H   0  0  0  0  0  0  0  0  0  0  0  0
    2.9450   -2.6690    3.3760 H   0  0  0  0  0  0  0  0  0  0  0  0
    5.1810   -1.6190    3.1900 H   0  0  0  0  0  0  0  0  0  0  0  0
    3.9730   -0.7220    4.2550 H   0  0  0  0  0  0  0  0  0  0  0  0
    3.5920    0.8530    2.3570 H   0  0  0  0  0  0  0  0  0  0  0  0
    4.7200   -0.0410    1.3210 H   0  0  0  0  0  0  0  0  0  0  0  0
    6.5740    2.8660    2.8770 H   0  0  0  0  0  0  0  0  0  0  0  0
   -1.4820    2.7850    1.9850 C   0  0  0  0  0  0  0  0  0  0  0  0
   -1.1600    2.1710    0.6420 C   0  0  0  0  0  0  0  0  0  0  0  0
   -0.7640    3.3570   -0.2520 C   0  0  0  0  0  0  0  0  0  0  0  0
    0.0130    1.2570    0.6780 C   0  0  0  0  0  0  0  0  0  0  0  0
   -0.1240    0.0820    1.6050 C   0  0  2  0  0  0  0  0  0  0  0  0
    1.0890   -0.7490    1.5620 N   0  0  0  0  0  0  0  0  0  0  0  0
   -1.2660   -0.8050    1.2630 C   0  0  0  0  0  0  0  0  0  0  0  0
   -2.4520   -0.3290    1.2460 O   0  0  0  0  0  0  0  0  0  0  0  0
   -1.9220    2.0590    2.6880 H   0  0  0  0  0  0  0  0  0  0  0  0
   -2.2500    3.5690    1.8090 H   0  0  0  0  0  0  0  0  0  0  0  0
   -0.6210    3.2680    2.4640 H   0  0  0  0  0  0  0  0  0  0  0  0
   -2.0600    1.7200    0.2290 H   0  0  0  0  0  0  0  0  0  0  0  0
   -1.5920    4.0870   -0.2050 H   0  0  0  0  0  0  0  0  0  0  0  0
    0.1260    3.8740    0.1790 H   0  0  0  0  0  0  0  0  0  0  0  0
   -0.4910    3.0230   -1.2520 H   0  0  0  0  0  0  0  0  0  0  0  0
    0.9240    1.8340    0.8450 H   0  0  0  0  0  0  0  0  0  0  0  0
    0.1150    0.8220   -0.3600 H   0  0  0  0  0  0  0  0  0  0  0  0
   -0.2780    0.4800    2.6290 H   0  0  0  0  0  0  0  0  0  0  0  0
    1.3940   -1.1800    0.6650 H   0  0  0  0  0  0  0  0  0  0  0  0
   -2.4040   -1.2380   -5.5950 N   0  0  0  0  0  0  0  0  0  0  0  0
   -3.0660   -1.8320   -4.4690 C   0  0  0  0  0  0  0  0  0  0  0  0
   -3.7000   -2.9090   -4.6640 N   0  0  0  0  0  0  0  0  0  0  0  0
   -2.9850   -1.1980   -3.2030 N   0  0  0  0  0  0  0  0  0  0  0  0
   -3.0900   -2.0390   -2.0250 C   0  0  0  0  0  0  0  0  0  0  0  0
   -1.8920   -2.9470   -1.8780 C   0  0  0  0  0  0  0  0  0  0  0  0
   -2.0860   -3.7810   -0.6390 C   0  0  0  0  0  0  0  0  0  0  0  0
   -2.2100   -3.0070    0.6270 C   0  0  2  0  0  0  0  0  0  0  0  0
   -1.0770   -2.1910    0.9490 N   0  0  0  0  0  0  0  0  0  0  0  0
   -2.3780   -4.0320    1.7250 C   0  0  0  0  0  0  0  0  0  0  0  0
   -1.5880   -4.0590    2.7050 O   0  0  0  0  0  0  0  0  0  0  0  0
   -3.4030   -4.9600    1.6760 O   0  0  0  0  0  0  0  0  0  0  0  0
   -1.8400   -1.8450   -6.2540 H   0  0  0  0  0  0  0  0  0  0  0  0
   -2.4370   -0.2320   -5.8190 H   0  0  0  0  0  0  0  0  0  0  0  0
   -4.2330   -3.4880   -4.0130 H   0  0  0  0  0  0  0  0  0  0  0  0
   -2.8550   -0.1560   -3.1250 H   0  0  0  0  0  0  0  0  0  0  0  0
   -3.2980   -1.4390   -1.1140 H   0  0  0  0  0  0  0  0  0  0  0  0
   -3.9880   -2.6780   -2.1640 H   0  0  0  0  0  0  0  0  0  0  0  0
   -0.9400   -2.4120   -1.8970 H   0  0  0  0  0  0  0  0  0  0  0  0
   -1.8970   -3.6090   -2.7790 H   0  0  0  0  0  0  0  0  0  0  0  0
   -3.0150   -4.3990   -0.7350 H   0  0  0  0  0  0  0  0  0  0  0  0
   -1.2530   -4.5160   -0.6070 H   0  0  0  0  0  0  0  0  0  0  0  0
   -3.1350   -2.4000    0.6650 H   0  0  0  0  0  0  0  0  0  0  0  0
   -0.0930   -2.5370    0.9750 H   0  0  0  0  0  0  0  0  0  0  0  0
  1  2  1  0  0  0  0
  2  7  1  0  0  0  0
  2  3  1  0  0  0  0
  2 12  1  1  0  0  0
  3 14  1  0  0  0  0
  4  5  1  0  0  0  0
  4  3  1  0  0  0  0
  5  6  2  0  0  0  0
  7  8  2  0  0  0  0
  9 17  1  0  0  0  0
  9  5  1  0  0  0  0
 10  1  1  0  0  0  0
 11  1  1  0  0  0  0
 13  3  1  0  0  0  0
 15  4  1  0  0  0  0
 16  4  1  0  0  0  0
 18 28  1  0  0  0  0
 18 26  1  0  0  0  0
 19 21  1  0  0  0  0
 19 18  1  0  0  0  0
 20 30  1  0  0  0  0
 20 31  1  0  0  0  0
 20 19  1  0  0  0  0
 21 33  1  0  0  0  0
 21 22  1  0  0  0  0
 22 35  1  1  0  0  0
 23 22  1  0  0  0  0
 23  7  1  0  0  0  0
 24 22  1  0  0  0  0
 25 24  2  0  0  0  0
 27 18  1  0  0  0  0
 29 19  1  0  0  0  0
 32 20  1  0  0  0  0
 34 21  1  0  0  0  0
 36 23  1  0  0  0  0
 37 38  1  0  0  0  0
 38 40  1  0  0  0  0
 39 38  2  0  0  0  0
 39 51  1  0  0  0  0
 40 52  1  0  0  0  0
 40 41  1  0  0  0  0
 41 42  1  0  0  0  0
 41 53  1  0  0  0  0
 42 43  1  0  0  0  0
 43 58  1  0  0  0  0
 43 44  1  0  0  0  0
 44 59  1  6  0  0  0
 44 45  1  0  0  0  0
 44 46  1  0  0  0  0
 45 60  1  0  0  0  0
 45 24  1  0  0  0  0
 46 47  1  0  0  0  0
 48 46  2  0  0  0  0
 49 37  1  0  0  0  0
 50 37  1  0  0  0  0
 54 41  1  0  0  0  0
 55 42  1  0  0  0  0
 56 42  1  0  0  0  0
 57 43  1  0  0  0  0
M  END
$$$$
