ELT.pdb
 OpenBabel07022418193D

 51 50  0  0  1  0  0  0  0  0999 V2000
    3.1660   -3.9730    2.1340 N   0  0  0  0  0  0  0  0  0  0  0  0
    2.9840   -2.7470    1.3800 C   0  0  1  0  0  0  0  0  0  0  0  0
    3.1990   -3.0030   -0.0780 C   0  0  0  0  0  0  0  0  0  0  0  0
    2.2490   -4.0240   -0.6510 C   0  0  0  0  0  0  0  0  0  0  0  0
    2.5050   -4.2420   -2.0990 C   0  0  0  0  0  0  0  0  0  0  0  0
    3.4260   -3.6020   -2.6820 O   0  0  0  0  0  0  0  0  0  0  0  0
    1.7380   -2.0580    1.7000 C   0  0  0  0  0  0  0  0  0  0  0  0
    0.9660   -2.5500    2.5540 O   0  0  0  0  0  0  0  0  0  0  0  0
    1.7660   -5.1330   -2.8590 O   0  0  0  0  0  0  0  0  0  0  0  0
    2.2840   -4.1330    2.6770 H   0  0  0  0  0  0  0  0  0  0  0  0
    3.4480   -4.7780    1.5590 H   0  0  0  0  0  0  0  0  0  0  0  0
    3.8270   -2.0700    1.7070 H   0  0  0  0  0  0  0  0  0  0  0  0
    3.1370   -2.0810   -0.6880 H   0  0  0  0  0  0  0  0  0  0  0  0
    4.2310   -3.3950   -0.2070 H   0  0  0  0  0  0  0  0  0  0  0  0
    2.3650   -5.0100   -0.1550 H   0  0  0  0  0  0  0  0  0  0  0  0
    1.2090   -3.6940   -0.4810 H   0  0  0  0  0  0  0  0  0  0  0  0
    1.7940   -5.0640   -3.8850 H   0  0  0  0  0  0  0  0  0  0  0  0
    2.5300    1.1270    2.8760 C   0  0  0  0  0  0  0  0  0  0  0  0
    1.0830    1.5300    3.0140 C   0  0  0  0  0  0  0  0  0  0  0  0
    1.0940    3.0560    3.1980 C   0  0  0  0  0  0  0  0  0  0  0  0
    0.2490    1.2240    1.8220 C   0  0  0  0  0  0  0  0  0  0  0  0
    0.1430   -0.1980    1.4120 C   0  0  2  0  0  0  0  0  0  0  0  0
    1.3790   -0.8440    1.0680 N   0  0  0  0  0  0  0  0  0  0  0  0
   -0.7680   -0.2510    0.2180 C   0  0  0  0  0  0  0  0  0  0  0  0
   -0.3440   -0.7900   -0.8620 O   0  0  0  0  0  0  0  0  0  0  0  0
    2.8700    1.2150    1.8450 H   0  0  0  0  0  0  0  0  0  0  0  0
    3.1960    1.8180    3.4810 H   0  0  0  0  0  0  0  0  0  0  0  0
    2.7570    0.1300    3.2720 H   0  0  0  0  0  0  0  0  0  0  0  0
    0.6380    1.1460    3.9680 H   0  0  0  0  0  0  0  0  0  0  0  0
    1.9430    3.2780    3.8800 H   0  0  0  0  0  0  0  0  0  0  0  0
    0.1770    3.4160    3.6730 H   0  0  0  0  0  0  0  0  0  0  0  0
    1.3120    3.5400    2.2200 H   0  0  0  0  0  0  0  0  0  0  0  0
   -0.7910    1.5990    2.0030 H   0  0  0  0  0  0  0  0  0  0  0  0
    0.6140    1.8890    0.9820 H   0  0  0  0  0  0  0  0  0  0  0  0
   -0.3820   -0.7860    2.1900 H   0  0  0  0  0  0  0  0  0  0  0  0
    2.0350   -0.4290    0.3400 H   0  0  0  0  0  0  0  0  0  0  0  0
   -5.0700    0.0600    0.4440 C   0  0  0  0  0  0  0  0  0  0  0  0
   -4.2030   -0.5650   -0.6260 C   0  0  1  0  0  0  0  0  0  0  0  0
   -4.9520   -0.5390   -1.8100 O   0  0  0  0  0  0  0  0  0  0  0  0
   -2.9470    0.2320   -0.8780 C   0  0  2  0  0  0  0  0  0  0  0  0
   -2.0810    0.2850    0.2700 N   0  0  0  0  0  0  0  0  0  0  0  0
   -3.3480    1.5680   -1.3520 C   0  0  0  0  0  0  0  0  0  0  0  0
   -2.9340    2.5830   -0.7600 O   0  0  0  0  0  0  0  0  0  0  0  0
   -4.1760    1.7030   -2.4420 O   0  0  0  0  0  0  0  0  0  0  0  0
   -5.7420   -0.7370    0.8230 H   0  0  0  0  0  0  0  0  0  0  0  0
   -4.4980    0.4510    1.2880 H   0  0  0  0  0  0  0  0  0  0  0  0
   -5.7300    0.8500    0.0280 H   0  0  0  0  0  0  0  0  0  0  0  0
   -4.0320   -1.6060   -0.3650 H   0  0  0  0  0  0  0  0  0  0  0  0
   -5.5540   -1.3120   -1.8650 H   0  0  0  0  0  0  0  0  0  0  0  0
   -2.4150   -0.2660   -1.7170 H   0  0  0  0  0  0  0  0  0  0  0  0
   -2.3920    0.7120    1.1660 H   0  0  0  0  0  0  0  0  0  0  0  0
  1 10  1  0  0  0  0
  2  7  1  0  0  0  0
  2 12  1  1  0  0  0
  2  1  1  0  0  0  0
  3  2  1  0  0  0  0
  4 16  1  0  0  0  0
  4 15  1  0  0  0  0
  4  3  1  0  0  0  0
  5  4  1  0  0  0  0
  6  5  2  0  0  0  0
  7  8  2  0  0  0  0
  9  5  1  0  0  0  0
 11  1  1  0  0  0  0
 13  3  1  0  0  0  0
 14  3  1  0  0  0  0
 17  9  1  0  0  0  0
 18 19  1  0  0  0  0
 18 28  1  0  0  0  0
 18 27  1  0  0  0  0
 19 20  1  0  0  0  0
 19 29  1  0  0  0  0
 20 31  1  0  0  0  0
 20 30  1  0  0  0  0
 21 33  1  0  0  0  0
 21 19  1  0  0  0  0
 22 21  1  0  0  0  0
 22 35  1  1  0  0  0
 23 22  1  0  0  0  0
 23  7  1  0  0  0  0
 24 41  1  0  0  0  0
 24 22  1  0  0  0  0
 25 24  2  0  0  0  0
 26 18  1  0  0  0  0
 32 20  1  0  0  0  0
 34 21  1  0  0  0  0
 36 23  1  0  0  0  0
 37 45  1  0  0  0  0
 37 46  1  0  0  0  0
 38 48  1  1  0  0  0
 38 37  1  0  0  0  0
 39 38  1  0  0  0  0
 40 50  1  6  0  0  0
 40 38  1  0  0  0  0
 40 41  1  0  0  0  0
 41 51  1  0  0  0  0
 42 40  1  0  0  0  0
 42 43  1  0  0  0  0
 44 42  2  0  0  0  0
 47 37  1  0  0  0  0
 49 39  1  0  0  0  0
M  END
$$$$
