EMA.pdb
 OpenBabel07022418193D

 45 44  0  0  1  0  0  0  0  0999 V2000
    0.4720   -2.4560   -1.4280 N   0  0  0  0  0  0  0  0  0  0  0  0
    1.1440   -2.9640   -0.2190 C   0  0  1  0  0  0  0  0  0  0  0  0
    2.4740   -3.4680   -0.6050 C   0  0  0  0  0  0  0  0  0  0  0  0
    3.4310   -2.5660   -1.2700 C   0  0  0  0  0  0  0  0  0  0  0  0
    3.8690   -1.4050   -0.5130 C   0  0  0  0  0  0  0  0  0  0  0  0
    3.5880   -1.1170    0.6660 O   0  0  0  0  0  0  0  0  0  0  0  0
    0.9880   -2.0720    0.9030 C   0  0  0  0  0  0  0  0  0  0  0  0
    1.3830   -2.4340    2.0530 O   0  0  0  0  0  0  0  0  0  0  0  0
    4.7130   -0.4970   -1.1960 O   0  0  0  0  0  0  0  0  0  0  0  0
    0.5760   -3.2020   -2.1520 H   0  0  0  0  0  0  0  0  0  0  0  0
   -0.5400   -2.4110   -1.1790 H   0  0  0  0  0  0  0  0  0  0  0  0
    0.5270   -3.9150    0.0010 H   0  0  0  0  0  0  0  0  0  0  0  0
    2.9960   -3.9380    0.2940 H   0  0  0  0  0  0  0  0  0  0  0  0
    2.3090   -4.3480   -1.2900 H   0  0  0  0  0  0  0  0  0  0  0  0
    3.0860   -2.2720   -2.3140 H   0  0  0  0  0  0  0  0  0  0  0  0
    4.3850   -3.1530   -1.5050 H   0  0  0  0  0  0  0  0  0  0  0  0
    5.0420    0.3260   -0.7180 H   0  0  0  0  0  0  0  0  0  0  0  0
    1.3850    4.0930   -0.2660 C   0  0  0  0  0  0  0  0  0  0  0  0
    2.3850    3.4960    1.1420 S   0  0  0  0  0  0  0  0  0  0  0  0
    2.1210    1.6900    1.3530 C   0  0  0  0  0  0  0  0  0  0  0  0
    0.6980    1.5150    1.7630 C   0  0  0  0  0  0  0  0  0  0  0  0
    0.2680    0.0910    1.9930 C   0  0  2  0  0  0  0  0  0  0  0  0
    0.4020   -0.7600    0.8500 N   0  0  0  0  0  0  0  0  0  0  0  0
   -1.1530    0.1690    2.4650 C   0  0  0  0  0  0  0  0  0  0  0  0
   -1.3940    0.8920    3.4680 O   0  0  0  0  0  0  0  0  0  0  0  0
    1.1230    5.1600   -0.1360 H   0  0  0  0  0  0  0  0  0  0  0  0
    2.0140    3.9570   -1.1800 H   0  0  0  0  0  0  0  0  0  0  0  0
    0.4310    3.5310   -0.3550 H   0  0  0  0  0  0  0  0  0  0  0  0
    2.8600    1.3480    2.1030 H   0  0  0  0  0  0  0  0  0  0  0  0
    2.3060    1.2620    0.3430 H   0  0  0  0  0  0  0  0  0  0  0  0
    0.0550    1.9790    0.9750 H   0  0  0  0  0  0  0  0  0  0  0  0
    0.4790    2.1280    2.6840 H   0  0  0  0  0  0  0  0  0  0  0  0
    0.8940   -0.3610    2.8060 H   0  0  0  0  0  0  0  0  0  0  0  0
    0.0680   -0.4450   -0.0860 H   0  0  0  0  0  0  0  0  0  0  0  0
   -4.5350    0.1860    1.3390 C   0  0  0  0  0  0  0  0  0  0  0  0
   -3.5940   -0.4080    2.3560 C   0  0  2  0  0  0  0  0  0  0  0  0
   -2.2350   -0.5030    1.8750 N   0  0  0  0  0  0  0  0  0  0  0  0
   -4.0530   -1.7350    2.7890 C   0  0  0  0  0  0  0  0  0  0  0  0
   -5.2070   -1.8650    3.2470 O   0  0  0  0  0  0  0  0  0  0  0  0
   -3.2340   -2.8330    2.6970 O   0  0  0  0  0  0  0  0  0  0  0  0
   -4.7130    1.2390    1.5600 H   0  0  0  0  0  0  0  0  0  0  0  0
   -4.2070   -0.0100    0.2880 H   0  0  0  0  0  0  0  0  0  0  0  0
   -5.5010   -0.3590    1.4430 H   0  0  0  0  0  0  0  0  0  0  0  0
   -3.5830    0.2800    3.2430 H   0  0  0  0  0  0  0  0  0  0  0  0
   -2.0550   -1.1060    1.0440 H   0  0  0  0  0  0  0  0  0  0  0  0
  1 11  1  0  0  0  0
  1  2  1  0  0  0  0
  2 12  1  1  0  0  0
  2  7  1  0  0  0  0
  3  2  1  0  0  0  0
  3 13  1  0  0  0  0
  4  3  1  0  0  0  0
  4  5  1  0  0  0  0
  5  6  2  0  0  0  0
  7  8  2  0  0  0  0
  9 17  1  0  0  0  0
  9  5  1  0  0  0  0
 10  1  1  0  0  0  0
 14  3  1  0  0  0  0
 15  4  1  0  0  0  0
 16  4  1  0  0  0  0
 18 26  1  0  0  0  0
 18 19  1  0  0  0  0
 19 20  1  0  0  0  0
 20 21  1  0  0  0  0
 20 29  1  0  0  0  0
 21 22  1  0  0  0  0
 21 32  1  0  0  0  0
 22 24  1  0  0  0  0
 22 33  1  1  0  0  0
 23  7  1  0  0  0  0
 23 22  1  0  0  0  0
 24 25  2  0  0  0  0
 27 18  1  0  0  0  0
 28 18  1  0  0  0  0
 30 20  1  0  0  0  0
 31 21  1  0  0  0  0
 34 23  1  0  0  0  0
 35 43  1  0  0  0  0
 35 41  1  0  0  0  0
 35 36  1  0  0  0  0
 36 38  1  0  0  0  0
 36 44  1  1  0  0  0
 37 36  1  0  0  0  0
 37 24  1  0  0  0  0
 38 39  1  0  0  0  0
 40 38  2  0  0  0  0
 42 35  1  0  0  0  0
 45 37  1  0  0  0  0
M  END
$$$$
