EME.pdb
 OpenBabel07022418193D

 51 50  0  0  1  0  0  0  0  0999 V2000
    2.6480    1.0090    3.7140 N   0  0  0  0  0  0  0  0  0  0  0  0
    1.7150   -0.0520    3.8990 C   0  0  1  0  0  0  0  0  0  0  0  0
    0.6510    0.1370    4.9030 C   0  0  0  0  0  0  0  0  0  0  0  0
   -0.3080    1.2360    4.7600 C   0  0  0  0  0  0  0  0  0  0  0  0
    0.1500    2.6070    4.7660 C   0  0  0  0  0  0  0  0  0  0  0  0
    1.3390    2.9120    4.9430 O   0  0  0  0  0  0  0  0  0  0  0  0
    1.1570   -0.5340    2.5740 C   0  0  0  0  0  0  0  0  0  0  0  0
    0.3670   -1.5230    2.5570 O   0  0  0  0  0  0  0  0  0  0  0  0
   -0.7610    3.6300    4.5690 O   0  0  0  0  0  0  0  0  0  0  0  0
    3.3460    0.6620    2.9830 H   0  0  0  0  0  0  0  0  0  0  0  0
    3.2700    1.0350    4.5870 H   0  0  0  0  0  0  0  0  0  0  0  0
    2.3250   -0.9400    4.2490 H   0  0  0  0  0  0  0  0  0  0  0  0
    0.0590   -0.8240    4.9410 H   0  0  0  0  0  0  0  0  0  0  0  0
    1.1320    0.1690    5.9240 H   0  0  0  0  0  0  0  0  0  0  0  0
   -1.0040    1.0150    3.8830 H   0  0  0  0  0  0  0  0  0  0  0  0
   -1.0350    1.1440    5.6330 H   0  0  0  0  0  0  0  0  0  0  0  0
   -0.4840    4.5610    4.2680 H   0  0  0  0  0  0  0  0  0  0  0  0
    4.0130   -3.9550   -0.0250 C   0  0  0  0  0  0  0  0  0  0  0  0
    4.0390   -2.6500   -1.2580 S   0  0  0  0  0  0  0  0  0  0  0  0
    3.1160   -1.2390   -0.6190 C   0  0  0  0  0  0  0  0  0  0  0  0
    1.6260   -1.5790   -0.4630 C   0  0  0  0  0  0  0  0  0  0  0  0
    0.9640   -0.3550    0.0660 C   0  0  2  0  0  0  0  0  0  0  0  0
    1.4840    0.0770    1.3460 N   0  0  0  0  0  0  0  0  0  0  0  0
   -0.5190   -0.4050    0.0760 C   0  0  0  0  0  0  0  0  0  0  0  0
   -1.1290   -0.0420    1.1040 O   0  0  0  0  0  0  0  0  0  0  0  0
    3.4560   -3.6490    0.8960 H   0  0  0  0  0  0  0  0  0  0  0  0
    5.0570   -4.1690    0.3370 H   0  0  0  0  0  0  0  0  0  0  0  0
    3.5700   -4.8500   -0.4640 H   0  0  0  0  0  0  0  0  0  0  0  0
    3.5380   -0.9690    0.3670 H   0  0  0  0  0  0  0  0  0  0  0  0
    3.1690   -0.3550   -1.2840 H   0  0  0  0  0  0  0  0  0  0  0  0
    1.2140   -1.8010   -1.4640 H   0  0  0  0  0  0  0  0  0  0  0  0
    1.4910   -2.4730    0.1530 H   0  0  0  0  0  0  0  0  0  0  0  0
    1.1870    0.4900   -0.6680 H   0  0  0  0  0  0  0  0  0  0  0  0
    2.1550    0.9090    1.3880 H   0  0  0  0  0  0  0  0  0  0  0  0
   -1.2270   -0.8590   -1.0670 N   0  0  0  0  0  0  0  0  0  0  0  0
   -2.6920   -0.9220   -1.0920 C   0  0  1  0  0  0  0  0  0  0  0  0
   -3.3060    0.0140   -2.0820 C   0  0  0  0  0  0  0  0  0  0  0  0
   -2.8950   -0.1990   -3.4860 C   0  0  0  0  0  0  0  0  0  0  0  0
   -3.2430   -1.5200   -3.9910 C   0  0  0  0  0  0  0  0  0  0  0  0
   -2.3780   -2.4240   -4.0470 O   0  0  0  0  0  0  0  0  0  0  0  0
   -3.1220   -2.3150   -1.2140 C   0  0  0  0  0  0  0  0  0  0  0  0
   -4.3310   -2.6290   -1.3430 O   0  0  0  0  0  0  0  0  0  0  0  0
   -4.5220   -1.7910   -4.4100 O   0  0  0  0  0  0  0  0  0  0  0  0
   -2.2090   -3.3650   -1.1890 O   0  0  0  0  0  0  0  0  0  0  0  0
   -0.6600   -1.1470   -1.8930 H   0  0  0  0  0  0  0  0  0  0  0  0
   -3.0700   -0.5650   -0.0780 H   0  0  0  0  0  0  0  0  0  0  0  0
   -4.4280   -0.0250   -1.9500 H   0  0  0  0  0  0  0  0  0  0  0  0
   -3.0680    1.0900   -1.7980 H   0  0  0  0  0  0  0  0  0  0  0  0
   -1.7830   -0.0200   -3.5360 H   0  0  0  0  0  0  0  0  0  0  0  0
   -3.3390    0.6130   -4.1240 H   0  0  0  0  0  0  0  0  0  0  0  0
   -4.8470   -2.7540   -4.4430 H   0  0  0  0  0  0  0  0  0  0  0  0
  1  2  1  0  0  0  0
  1 11  1  0  0  0  0
  2 12  1  1  0  0  0
  2  3  1  0  0  0  0
  3 13  1  0  0  0  0
  3 14  1  0  0  0  0
  4  5  1  0  0  0  0
  4  3  1  0  0  0  0
  4 16  1  0  0  0  0
  5  6  2  0  0  0  0
  7  2  1  0  0  0  0
  8  7  2  0  0  0  0
  9  5  1  0  0  0  0
 10  1  1  0  0  0  0
 15  4  1  0  0  0  0
 17  9  1  0  0  0  0
 18 27  1  0  0  0  0
 18 26  1  0  0  0  0
 19 20  1  0  0  0  0
 19 18  1  0  0  0  0
 20 21  1  0  0  0  0
 20 29  1  0  0  0  0
 21 22  1  0  0  0  0
 21 32  1  0  0  0  0
 22 33  1  6  0  0  0
 22 24  1  0  0  0  0
 22 23  1  0  0  0  0
 23 34  1  0  0  0  0
 23  7  1  0  0  0  0
 24 25  2  0  0  0  0
 28 18  1  0  0  0  0
 30 20  1  0  0  0  0
 31 21  1  0  0  0  0
 35 24  1  0  0  0  0
 36 35  1  0  0  0  0
 36 46  1  1  0  0  0
 37 47  1  0  0  0  0
 37 48  1  0  0  0  0
 37 36  1  0  0  0  0
 38 37  1  0  0  0  0
 39 38  1  0  0  0  0
 40 39  2  0  0  0  0
 41 44  1  0  0  0  0
 41 36  1  0  0  0  0
 42 41  2  0  0  0  0
 43 39  1  0  0  0  0
 45 35  1  0  0  0  0
 49 38  1  0  0  0  0
 50 38  1  0  0  0  0
 51 43  1  0  0  0  0
M  END
$$$$
