EMH.pdb
 OpenBabel07022418193D

 52 52  0  0  1  0  0  0  0  0999 V2000
   -1.2420   -0.0850    5.2630 N   0  0  0  0  0  0  0  0  0  0  0  0
   -1.1200    0.8820    4.2150 C   0  0  1  0  0  0  0  0  0  0  0  0
   -0.0230    1.8420    4.4890 C   0  0  0  0  0  0  0  0  0  0  0  0
    1.3380    1.2830    4.6240 C   0  0  0  0  0  0  0  0  0  0  0  0
    1.5980    0.3600    5.7360 C   0  0  0  0  0  0  0  0  0  0  0  0
    0.8420    0.0470    6.6680 O   0  0  0  0  0  0  0  0  0  0  0  0
   -0.9170    0.1400    2.9290 C   0  0  0  0  0  0  0  0  0  0  0  0
   -0.8900   -1.1110    2.9240 O   0  0  0  0  0  0  0  0  0  0  0  0
    2.8720   -0.2440    5.7380 O   0  0  0  0  0  0  0  0  0  0  0  0
   -1.3110   -1.0650    4.9490 H   0  0  0  0  0  0  0  0  0  0  0  0
   -2.0280    0.0980    5.9260 H   0  0  0  0  0  0  0  0  0  0  0  0
   -2.1010    1.4300    4.1900 H   0  0  0  0  0  0  0  0  0  0  0  0
    0.0070    2.5760    3.6220 H   0  0  0  0  0  0  0  0  0  0  0  0
   -0.2820    2.5140    5.3670 H   0  0  0  0  0  0  0  0  0  0  0  0
    2.0950    2.1320    4.6550 H   0  0  0  0  0  0  0  0  0  0  0  0
    1.5730    0.7720    3.6540 H   0  0  0  0  0  0  0  0  0  0  0  0
    3.0620   -1.0690    6.2960 H   0  0  0  0  0  0  0  0  0  0  0  0
    4.1830   -0.2900    0.7590 C   0  0  0  0  0  0  0  0  0  0  0  0
    3.3990    0.7750   -0.4740 S   0  0  0  0  0  0  0  0  0  0  0  0
    1.7060    1.2470    0.0160 C   0  0  0  0  0  0  0  0  0  0  0  0
    0.8430    0.0040    0.0220 C   0  0  0  0  0  0  0  0  0  0  0  0
   -0.5650    0.2630    0.4030 C   0  0  2  0  0  0  0  0  0  0  0  0
   -0.7520    0.8210    1.6930 N   0  0  0  0  0  0  0  0  0  0  0  0
   -1.4300   -0.9160    0.0860 C   0  0  0  0  0  0  0  0  0  0  0  0
   -2.2940   -1.3300    0.8850 O   0  0  0  0  0  0  0  0  0  0  0  0
    4.6090   -1.1750    0.2060 H   0  0  0  0  0  0  0  0  0  0  0  0
    3.4530   -0.7040    1.4810 H   0  0  0  0  0  0  0  0  0  0  0  0
    5.0310    0.2070    1.2620 H   0  0  0  0  0  0  0  0  0  0  0  0
    1.6780    1.7460    0.9940 H   0  0  0  0  0  0  0  0  0  0  0  0
    1.3590    1.9760   -0.7440 H   0  0  0  0  0  0  0  0  0  0  0  0
    1.3120   -0.7110    0.7590 H   0  0  0  0  0  0  0  0  0  0  0  0
    0.9940   -0.4690   -0.9630 H   0  0  0  0  0  0  0  0  0  0  0  0
   -0.9630    1.0680   -0.3230 H   0  0  0  0  0  0  0  0  0  0  0  0
   -0.7750    1.8930    1.8000 H   0  0  0  0  0  0  0  0  0  0  0  0
   -1.3160   -1.6320   -1.1410 N   0  0  0  0  0  0  0  0  0  0  0  0
   -2.1570   -2.7780   -1.4410 C   0  0  1  0  0  0  0  0  0  0  0  0
   -2.9750   -2.6050   -2.6800 C   0  0  0  0  0  0  0  0  0  0  0  0
   -2.1140   -2.3890   -3.8910 C   0  0  0  0  0  0  0  0  0  0  0  0
   -1.6570   -1.2140   -4.4110 C   0  0  0  0  0  0  0  0  0  0  0  0
   -0.9250   -1.4870   -5.4920 N   0  0  0  0  0  0  0  0  0  0  0  0
   -0.9220   -2.8230   -5.6510 C   0  0  0  0  0  0  0  0  0  0  0  0
   -1.6500   -3.3780   -4.6690 N   0  0  0  0  0  0  0  0  0  0  0  0
   -1.3350   -4.0140   -1.4860 C   0  0  0  0  0  0  0  0  0  0  0  0
   -1.8720   -5.1110   -1.7340 O   0  0  0  0  0  0  0  0  0  0  0  0
    0.0280   -3.9570   -1.2540 O   0  0  0  0  0  0  0  0  0  0  0  0
   -0.6050   -1.2960   -1.8210 H   0  0  0  0  0  0  0  0  0  0  0  0
   -2.8480   -2.9110   -0.5840 H   0  0  0  0  0  0  0  0  0  0  0  0
   -3.6070   -1.7160   -2.5930 H   0  0  0  0  0  0  0  0  0  0  0  0
   -3.5460   -3.5440   -2.8310 H   0  0  0  0  0  0  0  0  0  0  0  0
   -1.8520   -0.2360   -4.0210 H   0  0  0  0  0  0  0  0  0  0  0  0
   -0.4230   -0.7990   -6.1320 H   0  0  0  0  0  0  0  0  0  0  0  0
   -0.3890   -3.3080   -6.4710 H   0  0  0  0  0  0  0  0  0  0  0  0
  1 11  1  0  0  0  0
  2 12  1  6  0  0  0
  2  3  1  0  0  0  0
  2  1  1  0  0  0  0
  3  4  1  0  0  0  0
  3 14  1  0  0  0  0
  4 15  1  0  0  0  0
  4  5  1  0  0  0  0
  5  9  1  0  0  0  0
  5  6  2  0  0  0  0
  7  2  1  0  0  0  0
  8  7  2  0  0  0  0
  9 17  1  0  0  0  0
 10  1  1  0  0  0  0
 13  3  1  0  0  0  0
 16  4  1  0  0  0  0
 18 28  1  0  0  0  0
 18 27  1  0  0  0  0
 19 20  1  0  0  0  0
 19 18  1  0  0  0  0
 20 21  1  0  0  0  0
 20 29  1  0  0  0  0
 21 22  1  0  0  0  0
 21 31  1  0  0  0  0
 22 33  1  6  0  0  0
 22 23  1  0  0  0  0
 23 34  1  0  0  0  0
 23  7  1  0  0  0  0
 24 22  1  0  0  0  0
 24 25  2  0  0  0  0
 26 18  1  0  0  0  0
 30 20  1  0  0  0  0
 32 21  1  0  0  0  0
 35 24  1  0  0  0  0
 36 35  1  0  0  0  0
 36 47  1  1  0  0  0
 37 48  1  0  0  0  0
 37 36  1  0  0  0  0
 38 37  1  0  0  0  0
 39 50  1  0  0  0  0
 39 38  2  0  0  0  0
 40 39  1  0  0  0  0
 41 40  1  0  0  0  0
 41 42  2  0  0  0  0
 42 38  1  0  0  0  0
 43 36  1  0  0  0  0
 43 45  1  0  0  0  0
 44 43  2  0  0  0  0
 46 35  1  0  0  0  0
 49 37  1  0  0  0  0
 51 40  1  0  0  0  0
 52 41  1  0  0  0  0
M  END
$$$$
