EMN.pdb
 OpenBabel07022418193D

 49 48  0  0  1  0  0  0  0  0999 V2000
    1.0640   -2.7860   -0.9600 N   0  0  0  0  0  0  0  0  0  0  0  0
    1.9860   -2.8020    0.1960 C   0  0  1  0  0  0  0  0  0  0  0  0
    3.3350   -3.0280   -0.3330 C   0  0  0  0  0  0  0  0  0  0  0  0
    4.4970   -3.0650    0.5700 C   0  0  0  0  0  0  0  0  0  0  0  0
    4.8350   -1.7810    1.2080 C   0  0  0  0  0  0  0  0  0  0  0  0
    4.3850   -0.6610    0.8660 O   0  0  0  0  0  0  0  0  0  0  0  0
    1.6630   -1.7210    1.0750 C   0  0  0  0  0  0  0  0  0  0  0  0
    2.0940   -1.7120    2.2730 O   0  0  0  0  0  0  0  0  0  0  0  0
    5.7280   -1.7520    2.2910 O   0  0  0  0  0  0  0  0  0  0  0  0
    1.2230   -3.6890   -1.4580 H   0  0  0  0  0  0  0  0  0  0  0  0
    0.1070   -2.7480   -0.5500 H   0  0  0  0  0  0  0  0  0  0  0  0
    1.6740   -3.7620    0.7470 H   0  0  0  0  0  0  0  0  0  0  0  0
    3.3040   -4.0470   -0.8530 H   0  0  0  0  0  0  0  0  0  0  0  0
    3.6010   -2.3500   -1.1920 H   0  0  0  0  0  0  0  0  0  0  0  0
    4.3880   -3.8880    1.3220 H   0  0  0  0  0  0  0  0  0  0  0  0
    5.4410   -3.3670    0.0130 H   0  0  0  0  0  0  0  0  0  0  0  0
    6.3860   -0.9640    2.3710 H   0  0  0  0  0  0  0  0  0  0  0  0
    1.6570    3.7720   -1.8050 C   0  0  0  0  0  0  0  0  0  0  0  0
    2.5030    3.6000   -0.2360 S   0  0  0  0  0  0  0  0  0  0  0  0
    2.2960    1.9440    0.5020 C   0  0  0  0  0  0  0  0  0  0  0  0
    0.8560    1.7700    0.8680 C   0  0  0  0  0  0  0  0  0  0  0  0
    0.5300    0.4430    1.5050 C   0  0  2  0  0  0  0  0  0  0  0  0
    0.8550   -0.6420    0.6250 N   0  0  0  0  0  0  0  0  0  0  0  0
   -0.9350    0.4760    1.8160 C   0  0  0  0  0  0  0  0  0  0  0  0
   -1.3970    1.3700    2.5680 O   0  0  0  0  0  0  0  0  0  0  0  0
    2.3530    4.2010   -2.5800 H   0  0  0  0  0  0  0  0  0  0  0  0
    0.7750    4.4630   -1.7630 H   0  0  0  0  0  0  0  0  0  0  0  0
    1.2890    2.8190   -2.2130 H   0  0  0  0  0  0  0  0  0  0  0  0
    2.9430    1.9100    1.3990 H   0  0  0  0  0  0  0  0  0  0  0  0
    2.6640    1.1570   -0.1900 H   0  0  0  0  0  0  0  0  0  0  0  0
    0.5980    2.6240    1.5560 H   0  0  0  0  0  0  0  0  0  0  0  0
    0.2060    1.9560   -0.0350 H   0  0  0  0  0  0  0  0  0  0  0  0
    1.1220    0.3360    2.4370 H   0  0  0  0  0  0  0  0  0  0  0  0
    0.4810   -0.6110   -0.3490 H   0  0  0  0  0  0  0  0  0  0  0  0
   -6.5540   -0.7090   -0.2980 N   0  0  0  0  0  0  0  0  0  0  0  0
   -5.5390   -0.4840    0.6850 C   0  0  0  0  0  0  0  0  0  0  0  0
   -5.9020   -0.2220    1.8600 O   0  0  0  0  0  0  0  0  0  0  0  0
   -4.1010   -0.5510    0.3520 C   0  0  0  0  0  0  0  0  0  0  0  0
   -3.2890   -0.4450    1.5960 C   0  0  2  0  0  0  0  0  0  0  0  0
   -1.8490   -0.4620    1.3000 N   0  0  0  0  0  0  0  0  0  0  0  0
   -3.4870   -1.7220    2.3760 C   0  0  0  0  0  0  0  0  0  0  0  0
   -2.4690   -2.4730    2.5880 O   0  0  0  0  0  0  0  0  0  0  0  0
   -4.6700   -2.1610    2.8880 O   0  0  0  0  0  0  0  0  0  0  0  0
   -6.8540    0.0120   -0.9870 H   0  0  0  0  0  0  0  0  0  0  0  0
   -6.9880   -1.6670   -0.2830 H   0  0  0  0  0  0  0  0  0  0  0  0
   -3.9040    0.2910   -0.3620 H   0  0  0  0  0  0  0  0  0  0  0  0
   -3.9450   -1.5370   -0.1450 H   0  0  0  0  0  0  0  0  0  0  0  0
   -3.5930    0.3720    2.2410 H   0  0  0  0  0  0  0  0  0  0  0  0
   -1.5260   -1.2240    0.6720 H   0  0  0  0  0  0  0  0  0  0  0  0
  1 11  1  0  0  0  0
  1  2  1  0  0  0  0
  2 12  1  1  0  0  0
  2  7  1  0  0  0  0
  3  2  1  0  0  0  0
  3  4  1  0  0  0  0
  4  5  1  0  0  0  0
  4 15  1  0  0  0  0
  5  9  1  0  0  0  0
  6  5  2  0  0  0  0
  7  8  2  0  0  0  0
  9 17  1  0  0  0  0
 10  1  1  0  0  0  0
 13  3  1  0  0  0  0
 14  3  1  0  0  0  0
 16  4  1  0  0  0  0
 18 27  1  0  0  0  0
 18 19  1  0  0  0  0
 19 20  1  0  0  0  0
 20 21  1  0  0  0  0
 20 29  1  0  0  0  0
 21 22  1  0  0  0  0
 21 31  1  0  0  0  0
 22 24  1  0  0  0  0
 22 33  1  1  0  0  0
 23  7  1  0  0  0  0
 23 22  1  0  0  0  0
 24 25  2  0  0  0  0
 26 18  1  0  0  0  0
 28 18  1  0  0  0  0
 30 20  1  0  0  0  0
 32 21  1  0  0  0  0
 34 23  1  0  0  0  0
 35 45  1  0  0  0  0
 35 36  1  0  0  0  0
 36 37  2  0  0  0  0
 38 36  1  0  0  0  0
 38 39  1  0  0  0  0
 39 48  1  1  0  0  0
 39 41  1  0  0  0  0
 40 39  1  0  0  0  0
 40 24  1  0  0  0  0
 41 42  2  0  0  0  0
 41 43  1  0  0  0  0
 44 35  1  0  0  0  0
 46 38  1  0  0  0  0
 47 38  1  0  0  0  0
 49 40  1  0  0  0  0
M  END
$$$$
