EMQ.pdb
 OpenBabel07022418193D

 52 51  0  0  1  0  0  0  0  0999 V2000
    2.5150    2.8710    2.8250 N   0  0  0  0  0  0  0  0  0  0  0  0
    1.6760    1.7030    2.8240 C   0  0  1  0  0  0  0  0  0  0  0  0
    0.2200    1.9570    2.8790 C   0  0  0  0  0  0  0  0  0  0  0  0
   -0.4190    2.7410    1.8100 C   0  0  0  0  0  0  0  0  0  0  0  0
    0.0130    4.1270    1.6810 C   0  0  0  0  0  0  0  0  0  0  0  0
    0.7760    4.6690    2.4900 O   0  0  0  0  0  0  0  0  0  0  0  0
    2.0730    0.7380    1.7620 C   0  0  0  0  0  0  0  0  0  0  0  0
    3.0410    1.0500    1.0310 O   0  0  0  0  0  0  0  0  0  0  0  0
   -0.4530    4.8730    0.6020 O   0  0  0  0  0  0  0  0  0  0  0  0
    3.4310    2.6330    2.3860 H   0  0  0  0  0  0  0  0  0  0  0  0
    2.6900    3.1770    3.7880 H   0  0  0  0  0  0  0  0  0  0  0  0
    1.9300    1.1780    3.8090 H   0  0  0  0  0  0  0  0  0  0  0  0
   -0.0010    2.4990    3.8550 H   0  0  0  0  0  0  0  0  0  0  0  0
   -0.3610    1.0060    3.0010 H   0  0  0  0  0  0  0  0  0  0  0  0
   -0.4430    2.2090    0.8200 H   0  0  0  0  0  0  0  0  0  0  0  0
   -1.5300    2.7890    2.0700 H   0  0  0  0  0  0  0  0  0  0  0  0
   -0.0640    5.8140    0.4660 H   0  0  0  0  0  0  0  0  0  0  0  0
    0.1940   -5.4550    0.1120 C   0  0  0  0  0  0  0  0  0  0  0  0
    1.4090   -4.4960   -0.8330 S   0  0  0  0  0  0  0  0  0  0  0  0
    2.6610   -3.7660    0.1920 C   0  0  0  0  0  0  0  0  0  0  0  0
    2.2570   -2.6960    1.1380 C   0  0  0  0  0  0  0  0  0  0  0  0
    1.7730   -1.4570    0.5340 C   0  0  2  0  0  0  0  0  0  0  0  0
    1.4130   -0.4630    1.5720 N   0  0  0  0  0  0  0  0  0  0  0  0
    0.7110   -1.4680   -0.4800 C   0  0  0  0  0  0  0  0  0  0  0  0
    0.7100   -2.0970   -1.5650 O   0  0  0  0  0  0  0  0  0  0  0  0
    0.7150   -6.1550    0.8260 H   0  0  0  0  0  0  0  0  0  0  0  0
   -0.3360   -6.1060   -0.6110 H   0  0  0  0  0  0  0  0  0  0  0  0
   -0.5470   -4.8340    0.6190 H   0  0  0  0  0  0  0  0  0  0  0  0
    3.1660   -4.6340    0.7380 H   0  0  0  0  0  0  0  0  0  0  0  0
    3.4960   -3.4270   -0.4930 H   0  0  0  0  0  0  0  0  0  0  0  0
    3.2270   -2.4170    1.6850 H   0  0  0  0  0  0  0  0  0  0  0  0
    1.5510   -3.1250    1.9130 H   0  0  0  0  0  0  0  0  0  0  0  0
    2.6690   -0.9720    0.0240 H   0  0  0  0  0  0  0  0  0  0  0  0
    0.6090   -0.7380    2.1650 H   0  0  0  0  0  0  0  0  0  0  0  0
   -3.4420   -4.5570   -0.1140 N   0  0  0  0  0  0  0  0  0  0  0  0
   -3.1190   -3.3030   -0.6970 C   0  0  0  0  0  0  0  0  0  0  0  0
   -2.7290   -3.3310   -1.9110 O   0  0  0  0  0  0  0  0  0  0  0  0
   -3.2320   -2.0570    0.0630 C   0  0  0  0  0  0  0  0  0  0  0  0
   -2.9410   -0.8100   -0.6830 C   0  0  0  0  0  0  0  0  0  0  0  0
   -1.5780   -0.6630   -1.2570 C   0  0  2  0  0  0  0  0  0  0  0  0
   -0.5050   -0.6910   -0.2870 N   0  0  0  0  0  0  0  0  0  0  0  0
   -1.5370    0.6120   -2.0520 C   0  0  0  0  0  0  0  0  0  0  0  0
   -2.4060    0.7730   -2.9250 O   0  0  0  0  0  0  0  0  0  0  0  0
   -0.5870    1.5750   -1.8390 O   0  0  0  0  0  0  0  0  0  0  0  0
   -4.2580   -5.0730   -0.5010 H   0  0  0  0  0  0  0  0  0  0  0  0
   -2.9230   -4.9950    0.6720 H   0  0  0  0  0  0  0  0  0  0  0  0
   -4.2760   -2.0300    0.4910 H   0  0  0  0  0  0  0  0  0  0  0  0
   -2.5810   -2.1570    0.9800 H   0  0  0  0  0  0  0  0  0  0  0  0
   -3.1750    0.0620   -0.0060 H   0  0  0  0  0  0  0  0  0  0  0  0
   -3.6900   -0.7160   -1.5150 H   0  0  0  0  0  0  0  0  0  0  0  0
   -1.3760   -1.4520   -2.0110 H   0  0  0  0  0  0  0  0  0  0  0  0
   -0.5510   -0.1550    0.6050 H   0  0  0  0  0  0  0  0  0  0  0  0
  1 11  1  0  0  0  0
  2  1  1  0  0  0  0
  2  3  1  0  0  0  0
  2 12  1  1  0  0  0
  3 14  1  0  0  0  0
  3 13  1  0  0  0  0
  4 16  1  0  0  0  0
  4  3  1  0  0  0  0
  5  4  1  0  0  0  0
  5  6  2  0  0  0  0
  7  2  1  0  0  0  0
  8  7  2  0  0  0  0
  9  5  1  0  0  0  0
 10  1  1  0  0  0  0
 15  4  1  0  0  0  0
 17  9  1  0  0  0  0
 18 28  1  0  0  0  0
 18 26  1  0  0  0  0
 19 18  1  0  0  0  0
 19 20  1  0  0  0  0
 20 29  1  0  0  0  0
 20 21  1  0  0  0  0
 21 31  1  0  0  0  0
 21 32  1  0  0  0  0
 22 33  1  6  0  0  0
 22 21  1  0  0  0  0
 22 23  1  0  0  0  0
 23  7  1  0  0  0  0
 23 34  1  0  0  0  0
 24 41  1  0  0  0  0
 24 22  1  0  0  0  0
 25 24  2  0  0  0  0
 27 18  1  0  0  0  0
 30 20  1  0  0  0  0
 35 46  1  0  0  0  0
 36 35  1  0  0  0  0
 36 38  1  0  0  0  0
 37 36  2  0  0  0  0
 38 47  1  0  0  0  0
 38 48  1  0  0  0  0
 39 49  1  0  0  0  0
 39 38  1  0  0  0  0
 40 51  1  6  0  0  0
 40 39  1  0  0  0  0
 40 41  1  0  0  0  0
 41 52  1  0  0  0  0
 42 44  1  0  0  0  0
 42 40  1  0  0  0  0
 43 42  2  0  0  0  0
 45 35  1  0  0  0  0
 50 39  1  0  0  0  0
M  END
$$$$
