EMT.pdb
 OpenBabel07022418193D

 49 48  0  0  1  0  0  0  0  0999 V2000
    1.1150   -3.5810   -0.4130 N   0  0  0  0  0  0  0  0  0  0  0  0
    2.1640   -3.2290    0.5360 C   0  0  1  0  0  0  0  0  0  0  0  0
    3.4530   -3.2700   -0.2170 C   0  0  0  0  0  0  0  0  0  0  0  0
    4.6770   -2.9280    0.5940 C   0  0  0  0  0  0  0  0  0  0  0  0
    5.9030   -2.9930   -0.2430 C   0  0  0  0  0  0  0  0  0  0  0  0
    6.4620   -4.0980   -0.4160 O   0  0  0  0  0  0  0  0  0  0  0  0
    1.9100   -1.8800    1.1310 C   0  0  0  0  0  0  0  0  0  0  0  0
    2.5760   -1.4600    2.1110 O   0  0  0  0  0  0  0  0  0  0  0  0
    6.4430   -1.8710   -0.8370 O   0  0  0  0  0  0  0  0  0  0  0  0
    1.0530   -2.9170   -1.1980 H   0  0  0  0  0  0  0  0  0  0  0  0
    1.4370   -4.4920   -0.8550 H   0  0  0  0  0  0  0  0  0  0  0  0
    2.1900   -3.9580    1.3520 H   0  0  0  0  0  0  0  0  0  0  0  0
    3.4480   -2.5610   -1.0930 H   0  0  0  0  0  0  0  0  0  0  0  0
    3.6220   -4.3070   -0.5990 H   0  0  0  0  0  0  0  0  0  0  0  0
    4.5630   -1.8660    0.9120 H   0  0  0  0  0  0  0  0  0  0  0  0
    4.7840   -3.5280    1.5160 H   0  0  0  0  0  0  0  0  0  0  0  0
    6.9020   -1.9030   -1.7460 H   0  0  0  0  0  0  0  0  0  0  0  0
   -1.0740    3.5740   -0.8760 C   0  0  0  0  0  0  0  0  0  0  0  0
   -0.5350    3.3990    0.8440 S   0  0  0  0  0  0  0  0  0  0  0  0
    1.1490    2.7470    0.9000 C   0  0  0  0  0  0  0  0  0  0  0  0
    1.3230    1.3600    0.4170 C   0  0  0  0  0  0  0  0  0  0  0  0
    0.6840    0.3080    1.2250 C   0  0  2  0  0  0  0  0  0  0  0  0
    0.9150   -1.0100    0.6220 N   0  0  0  0  0  0  0  0  0  0  0  0
   -0.6960    0.4080    1.6230 C   0  0  0  0  0  0  0  0  0  0  0  0
   -1.0920    1.3730    2.3460 O   0  0  0  0  0  0  0  0  0  0  0  0
   -1.8890    4.3020   -0.9310 H   0  0  0  0  0  0  0  0  0  0  0  0
   -0.1840    3.9880   -1.4340 H   0  0  0  0  0  0  0  0  0  0  0  0
   -1.4320    2.6270   -1.3210 H   0  0  0  0  0  0  0  0  0  0  0  0
    1.5890    2.8950    1.9330 H   0  0  0  0  0  0  0  0  0  0  0  0
    1.7580    3.4880    0.2810 H   0  0  0  0  0  0  0  0  0  0  0  0
    0.9960    1.3580   -0.6600 H   0  0  0  0  0  0  0  0  0  0  0  0
    2.4410    1.1470    0.4490 H   0  0  0  0  0  0  0  0  0  0  0  0
    1.2930    0.2820    2.1990 H   0  0  0  0  0  0  0  0  0  0  0  0
    0.3490   -1.2870   -0.1870 H   0  0  0  0  0  0  0  0  0  0  0  0
   -5.3850   -0.0070    0.8750 C   0  0  0  0  0  0  0  0  0  0  0  0
   -3.9630   -0.2230    0.4280 C   0  0  1  0  0  0  0  0  0  0  0  0
   -3.5070    0.9780   -0.1510 O   0  0  0  0  0  0  0  0  0  0  0  0
   -3.0910   -0.4460    1.6350 C   0  0  2  0  0  0  0  0  0  0  0  0
   -1.6760   -0.5420    1.2390 N   0  0  0  0  0  0  0  0  0  0  0  0
   -3.4240   -1.5980    2.4570 C   0  0  0  0  0  0  0  0  0  0  0  0
   -2.5910   -2.5050    2.6990 O   0  0  0  0  0  0  0  0  0  0  0  0
   -4.6790   -1.7370    3.0080 O   0  0  0  0  0  0  0  0  0  0  0  0
   -6.0300    0.3400    0.0220 H   0  0  0  0  0  0  0  0  0  0  0  0
   -5.8840   -0.9140    1.2520 H   0  0  0  0  0  0  0  0  0  0  0  0
   -5.4420    0.7570    1.6990 H   0  0  0  0  0  0  0  0  0  0  0  0
   -3.9530   -1.0490   -0.3000 H   0  0  0  0  0  0  0  0  0  0  0  0
   -4.1290    1.6840    0.1330 H   0  0  0  0  0  0  0  0  0  0  0  0
   -3.1670    0.4750    2.2620 H   0  0  0  0  0  0  0  0  0  0  0  0
   -1.4270   -1.3480    0.6640 H   0  0  0  0  0  0  0  0  0  0  0  0
  1  2  1  0  0  0  0
  2  7  1  0  0  0  0
  2 12  1  1  0  0  0
  3  2  1  0  0  0  0
  3  4  1  0  0  0  0
  4 15  1  0  0  0  0
  4 16  1  0  0  0  0
  5  4  1  0  0  0  0
  6  5  2  0  0  0  0
  7  8  2  0  0  0  0
  9  5  1  0  0  0  0
 10  1  1  0  0  0  0
 11  1  1  0  0  0  0
 13  3  1  0  0  0  0
 14  3  1  0  0  0  0
 17  9  1  0  0  0  0
 18 19  1  0  0  0  0
 19 20  1  0  0  0  0
 20 29  1  0  0  0  0
 21 32  1  0  0  0  0
 21 20  1  0  0  0  0
 21 22  1  0  0  0  0
 22 24  1  0  0  0  0
 22 33  1  1  0  0  0
 23  7  1  0  0  0  0
 23 22  1  0  0  0  0
 24 25  2  0  0  0  0
 26 18  1  0  0  0  0
 27 18  1  0  0  0  0
 28 18  1  0  0  0  0
 30 20  1  0  0  0  0
 31 21  1  0  0  0  0
 34 23  1  0  0  0  0
 35 44  1  0  0  0  0
 35 45  1  0  0  0  0
 36 46  1  6  0  0  0
 36 35  1  0  0  0  0
 36 38  1  0  0  0  0
 37 47  1  0  0  0  0
 37 36  1  0  0  0  0
 38 48  1  1  0  0  0
 38 40  1  0  0  0  0
 39 24  1  0  0  0  0
 39 38  1  0  0  0  0
 40 41  2  0  0  0  0
 40 42  1  0  0  0  0
 43 35  1  0  0  0  0
 49 39  1  0  0  0  0
M  END
$$$$
