EMV.pdb
 OpenBabel07022418193D

 51 50  0  0  1  0  0  0  0  0999 V2000
   -0.0540   -1.7430    4.2750 N   0  0  0  0  0  0  0  0  0  0  0  0
    1.2020   -1.4150    3.6090 C   0  0  1  0  0  0  0  0  0  0  0  0
    1.5940   -2.5170    2.6940 C   0  0  0  0  0  0  0  0  0  0  0  0
    2.8910   -2.2850    1.9740 C   0  0  0  0  0  0  0  0  0  0  0  0
    3.1830   -3.4390    1.0760 C   0  0  0  0  0  0  0  0  0  0  0  0
    4.2230   -3.4550    0.3710 O   0  0  0  0  0  0  0  0  0  0  0  0
    0.9960   -0.1060    2.9520 C   0  0  0  0  0  0  0  0  0  0  0  0
    1.0470    0.9740    3.5940 O   0  0  0  0  0  0  0  0  0  0  0  0
    2.3260   -4.5260    0.9880 O   0  0  0  0  0  0  0  0  0  0  0  0
   -0.8880   -1.4150    3.7510 H   0  0  0  0  0  0  0  0  0  0  0  0
   -0.1500   -2.7930    4.3580 H   0  0  0  0  0  0  0  0  0  0  0  0
    1.9630   -1.3490    4.4190 H   0  0  0  0  0  0  0  0  0  0  0  0
    0.7880   -2.7990    1.9800 H   0  0  0  0  0  0  0  0  0  0  0  0
    1.7570   -3.4310    3.3360 H   0  0  0  0  0  0  0  0  0  0  0  0
    3.7510   -2.2390    2.7010 H   0  0  0  0  0  0  0  0  0  0  0  0
    2.8930   -1.3150    1.4730 H   0  0  0  0  0  0  0  0  0  0  0  0
    2.5580   -5.3690    0.4680 H   0  0  0  0  0  0  0  0  0  0  0  0
    4.6020    0.8360   -1.4150 C   0  0  0  0  0  0  0  0  0  0  0  0
    3.0360    1.0100   -2.3110 S   0  0  0  0  0  0  0  0  0  0  0  0
    1.6900    0.5570   -1.1800 C   0  0  0  0  0  0  0  0  0  0  0  0
    1.6190    1.5660   -0.0700 C   0  0  0  0  0  0  0  0  0  0  0  0
    0.5300    1.2790    0.9280 C   0  0  2  0  0  0  0  0  0  0  0  0
    0.7270   -0.0250    1.5590 N   0  0  0  0  0  0  0  0  0  0  0  0
   -0.8250    1.3930    0.3530 C   0  0  0  0  0  0  0  0  0  0  0  0
   -1.2590    2.4040   -0.2460 O   0  0  0  0  0  0  0  0  0  0  0  0
    4.4080    0.7800   -0.3300 H   0  0  0  0  0  0  0  0  0  0  0  0
    5.2910    1.6630   -1.6880 H   0  0  0  0  0  0  0  0  0  0  0  0
    5.1000   -0.1300   -1.7070 H   0  0  0  0  0  0  0  0  0  0  0  0
    1.8780   -0.4610   -0.8390 H   0  0  0  0  0  0  0  0  0  0  0  0
    0.7400    0.6670   -1.7710 H   0  0  0  0  0  0  0  0  0  0  0  0
    1.5100    2.5820   -0.4840 H   0  0  0  0  0  0  0  0  0  0  0  0
    2.5850    1.5400    0.4770 H   0  0  0  0  0  0  0  0  0  0  0  0
    0.6170    2.0510    1.7180 H   0  0  0  0  0  0  0  0  0  0  0  0
    0.6520   -0.8890    0.9400 H   0  0  0  0  0  0  0  0  0  0  0  0
   -2.8120   -2.1360   -0.6480 C   0  0  0  0  0  0  0  0  0  0  0  0
   -3.1360   -0.7440   -1.1280 C   0  0  0  0  0  0  0  0  0  0  0  0
   -4.3730   -0.6740   -1.9860 C   0  0  0  0  0  0  0  0  0  0  0  0
   -3.0720    0.2910   -0.0510 C   0  0  2  0  0  0  0  0  0  0  0  0
   -1.7150    0.2940    0.4750 N   0  0  0  0  0  0  0  0  0  0  0  0
   -4.0820    0.1410    1.0130 C   0  0  0  0  0  0  0  0  0  0  0  0
   -3.7880    0.0200    2.2300 O   0  0  0  0  0  0  0  0  0  0  0  0
   -5.4280    0.1280    0.6900 O   0  0  0  0  0  0  0  0  0  0  0  0
   -1.7410   -2.2080   -0.4040 H   0  0  0  0  0  0  0  0  0  0  0  0
   -3.3870   -2.4530    0.2250 H   0  0  0  0  0  0  0  0  0  0  0  0
   -3.1060   -2.8330   -1.4860 H   0  0  0  0  0  0  0  0  0  0  0  0
   -2.2860   -0.4860   -1.8320 H   0  0  0  0  0  0  0  0  0  0  0  0
   -5.3170   -0.7530   -1.4550 H   0  0  0  0  0  0  0  0  0  0  0  0
   -4.3110   -1.5520   -2.6940 H   0  0  0  0  0  0  0  0  0  0  0  0
   -4.2710    0.2160   -2.6410 H   0  0  0  0  0  0  0  0  0  0  0  0
   -3.2190    1.2810   -0.5300 H   0  0  0  0  0  0  0  0  0  0  0  0
   -1.4290   -0.5830    0.9600 H   0  0  0  0  0  0  0  0  0  0  0  0
  1 11  1  0  0  0  0
  2  1  1  0  0  0  0
  2 12  1  1  0  0  0
  3 14  1  0  0  0  0
  3  2  1  0  0  0  0
  4  3  1  0  0  0  0
  4 15  1  0  0  0  0
  5  4  1  0  0  0  0
  6  5  2  0  0  0  0
  7  8  2  0  0  0  0
  7  2  1  0  0  0  0
  9  5  1  0  0  0  0
 10  1  1  0  0  0  0
 13  3  1  0  0  0  0
 16  4  1  0  0  0  0
 17  9  1  0  0  0  0
 18 26  1  0  0  0  0
 19 18  1  0  0  0  0
 19 20  1  0  0  0  0
 20 29  1  0  0  0  0
 20 21  1  0  0  0  0
 21 32  1  0  0  0  0
 21 22  1  0  0  0  0
 22 23  1  0  0  0  0
 22 33  1  1  0  0  0
 23  7  1  0  0  0  0
 24 39  1  0  0  0  0
 24 22  1  0  0  0  0
 25 24  2  0  0  0  0
 27 18  1  0  0  0  0
 28 18  1  0  0  0  0
 30 20  1  0  0  0  0
 31 21  1  0  0  0  0
 34 23  1  0  0  0  0
 35 43  1  0  0  0  0
 35 44  1  0  0  0  0
 36 35  1  0  0  0  0
 36 38  1  0  0  0  0
 37 47  1  0  0  0  0
 37 36  1  0  0  0  0
 38 50  1  6  0  0  0
 38 39  1  0  0  0  0
 38 40  1  0  0  0  0
 39 51  1  0  0  0  0
 40 41  1  0  0  0  0
 42 40  2  0  0  0  0
 45 35  1  0  0  0  0
 46 36  1  0  0  0  0
 48 37  1  0  0  0  0
 49 37  1  0  0  0  0
M  END
$$$$
