EMY.pdb
 OpenBabel07022418193D

 56 56  0  0  1  0  0  0  0  0999 V2000
    1.8520   -1.9380    1.3490 N   0  0  0  0  0  0  0  0  0  0  0  0
    1.8400   -1.2250    2.6680 C   0  0  1  0  0  0  0  0  0  0  0  0
    3.1930   -0.6220    2.7880 C   0  0  0  0  0  0  0  0  0  0  0  0
    3.5330    0.1480    4.0000 C   0  0  0  0  0  0  0  0  0  0  0  0
    2.7660    1.3450    4.3100 C   0  0  0  0  0  0  0  0  0  0  0  0
    2.2330    1.5930    5.4470 O   0  0  0  0  0  0  0  0  0  0  0  0
    0.7190   -0.2740    2.5520 C   0  0  0  0  0  0  0  0  0  0  0  0
    0.2900    0.2940    3.5720 O   0  0  0  0  0  0  0  0  0  0  0  0
    2.5660    2.3270    3.3300 O   0  0  0  0  0  0  0  0  0  0  0  0
    2.3320   -1.2900    0.7030 H   0  0  0  0  0  0  0  0  0  0  0  0
    2.5190   -2.7310    1.5210 H   0  0  0  0  0  0  0  0  0  0  0  0
    1.6790   -2.0220    3.4130 H   0  0  0  0  0  0  0  0  0  0  0  0
    3.4390   -0.0340    1.8440 H   0  0  0  0  0  0  0  0  0  0  0  0
    3.9490   -1.4720    2.7290 H   0  0  0  0  0  0  0  0  0  0  0  0
    4.6410    0.4010    3.9220 H   0  0  0  0  0  0  0  0  0  0  0  0
    3.5160   -0.5250    4.9050 H   0  0  0  0  0  0  0  0  0  0  0  0
    2.2820    3.2700    3.6130 H   0  0  0  0  0  0  0  0  0  0  0  0
    1.4500    3.1060   -2.2950 C   0  0  0  0  0  0  0  0  0  0  0  0
    0.9500    3.9940   -0.7780 S   0  0  0  0  0  0  0  0  0  0  0  0
    0.6190    2.7820    0.5600 C   0  0  0  0  0  0  0  0  0  0  0  0
   -0.5930    2.0030    0.1270 C   0  0  0  0  0  0  0  0  0  0  0  0
   -0.9900    0.9420    1.1320 C   0  0  2  0  0  0  0  0  0  0  0  0
    0.0910    0.0290    1.2880 N   0  0  0  0  0  0  0  0  0  0  0  0
   -2.2440    0.3310    0.6250 C   0  0  0  0  0  0  0  0  0  0  0  0
   -3.2470    1.0690    0.4810 O   0  0  0  0  0  0  0  0  0  0  0  0
    1.8850    2.1160   -1.9860 H   0  0  0  0  0  0  0  0  0  0  0  0
    2.2290    3.6690   -2.8380 H   0  0  0  0  0  0  0  0  0  0  0  0
    0.6050    2.9430   -2.9840 H   0  0  0  0  0  0  0  0  0  0  0  0
    1.4880    2.1640    0.7710 H   0  0  0  0  0  0  0  0  0  0  0  0
    0.3440    3.3770    1.4530 H   0  0  0  0  0  0  0  0  0  0  0  0
   -1.4620    2.6740   -0.0000 H   0  0  0  0  0  0  0  0  0  0  0  0
   -0.4230    1.4850   -0.8370 H   0  0  0  0  0  0  0  0  0  0  0  0
   -1.2520    1.3890    2.1270 H   0  0  0  0  0  0  0  0  0  0  0  0
    0.4740   -0.4640    0.4580 H   0  0  0  0  0  0  0  0  0  0  0  0
    1.0290   -5.4260   -2.8540 O   0  0  0  0  0  0  0  0  0  0  0  0
   -0.0450   -4.5890   -2.5520 C   0  0  0  0  0  0  0  0  0  0  0  0
    0.0580   -3.2170   -2.5280 C   0  0  0  0  0  0  0  0  0  0  0  0
   -1.0150   -2.4060   -2.2290 C   0  0  0  0  0  0  0  0  0  0  0  0
   -2.2610   -2.9710   -1.9360 C   0  0  0  0  0  0  0  0  0  0  0  0
   -3.3500   -2.0580   -1.6320 C   0  0  0  0  0  0  0  0  0  0  0  0
   -3.5120   -1.6880   -0.1830 C   0  0  2  0  0  0  0  0  0  0  0  0
   -2.3050   -1.0400    0.3160 N   0  0  0  0  0  0  0  0  0  0  0  0
   -3.9660   -2.7940    0.6480 C   0  0  0  0  0  0  0  0  0  0  0  0
   -3.3850   -3.1600    1.6980 O   0  0  0  0  0  0  0  0  0  0  0  0
   -2.3410   -4.3430   -1.9650 C   0  0  0  0  0  0  0  0  0  0  0  0
   -1.2830   -5.1660   -2.2620 C   0  0  0  0  0  0  0  0  0  0  0  0
   -5.1050   -3.4830    0.2590 O   0  0  0  0  0  0  0  0  0  0  0  0
    1.4210   -5.3280   -3.7870 H   0  0  0  0  0  0  0  0  0  0  0  0
    1.0330   -2.8060   -2.7600 H   0  0  0  0  0  0  0  0  0  0  0  0
   -0.8430   -1.3390   -2.2330 H   0  0  0  0  0  0  0  0  0  0  0  0
   -3.2550   -1.1110   -2.2270 H   0  0  0  0  0  0  0  0  0  0  0  0
   -4.3080   -2.5330   -1.9560 H   0  0  0  0  0  0  0  0  0  0  0  0
   -4.3100   -0.8880   -0.1810 H   0  0  0  0  0  0  0  0  0  0  0  0
   -1.4120   -1.5890    0.4660 H   0  0  0  0  0  0  0  0  0  0  0  0
   -3.2990   -4.7890   -1.7400 H   0  0  0  0  0  0  0  0  0  0  0  0
   -1.4290   -6.2390   -2.2640 H   0  0  0  0  0  0  0  0  0  0  0  0
  1 11  1  0  0  0  0
  1  2  1  0  0  0  0
  2  3  1  0  0  0  0
  2 12  1  1  0  0  0
  3  4  1  0  0  0  0
  4  5  1  0  0  0  0
  4 16  1  0  0  0  0
  5  6  2  0  0  0  0
  7  2  1  0  0  0  0
  7  8  2  0  0  0  0
  9 17  1  0  0  0  0
  9  5  1  0  0  0  0
 10  1  1  0  0  0  0
 13  3  1  0  0  0  0
 14  3  1  0  0  0  0
 15  4  1  0  0  0  0
 18 26  1  0  0  0  0
 18 19  1  0  0  0  0
 19 20  1  0  0  0  0
 20 29  1  0  0  0  0
 20 30  1  0  0  0  0
 21 20  1  0  0  0  0
 21 22  1  0  0  0  0
 22 23  1  0  0  0  0
 22 33  1  1  0  0  0
 23  7  1  0  0  0  0
 24 22  1  0  0  0  0
 25 24  2  0  0  0  0
 27 18  1  0  0  0  0
 28 18  1  0  0  0  0
 31 21  1  0  0  0  0
 32 21  1  0  0  0  0
 34 23  1  0  0  0  0
 35 36  1  0  0  0  0
 36 37  2  0  0  0  0
 36 46  1  0  0  0  0
 37 38  1  0  0  0  0
 38 39  2  0  0  0  0
 39 40  1  0  0  0  0
 40 41  1  0  0  0  0
 41 53  1  1  0  0  0
 41 42  1  0  0  0  0
 41 43  1  0  0  0  0
 42 54  1  0  0  0  0
 42 24  1  0  0  0  0
 43 44  1  0  0  0  0
 45 39  1  0  0  0  0
 45 55  1  0  0  0  0
 46 45  2  0  0  0  0
 47 43  2  0  0  0  0
 48 35  1  0  0  0  0
 49 37  1  0  0  0  0
 50 38  1  0  0  0  0
 51 40  1  0  0  0  0
 52 40  1  0  0  0  0
 56 46  1  0  0  0  0
M  END
$$$$
