ENA.pdb
 OpenBabel07022418173D

 42 41  0  0  1  0  0  0  0  0999 V2000
    4.0150   -2.8050    1.1200 N   0  0  0  0  0  0  0  0  0  0  0  0
    3.2130   -1.8260    0.4030 C   0  0  1  0  0  0  0  0  0  0  0  0
    2.6610   -2.4120   -0.8230 C   0  0  0  0  0  0  0  0  0  0  0  0
    1.7960   -3.6120   -0.7000 C   0  0  0  0  0  0  0  0  0  0  0  0
    0.5650   -3.4680    0.0740 C   0  0  0  0  0  0  0  0  0  0  0  0
   -0.5290   -3.2110   -0.5380 O   0  0  0  0  0  0  0  0  0  0  0  0
    2.3980   -1.0510    1.3080 C   0  0  0  0  0  0  0  0  0  0  0  0
    2.4610   -1.3710    2.5570 O   0  0  0  0  0  0  0  0  0  0  0  0
    0.4870   -3.5910    1.4540 O   0  0  0  0  0  0  0  0  0  0  0  0
    4.9160   -3.0330    0.6480 H   0  0  0  0  0  0  0  0  0  0  0  0
    4.2580   -2.4170    2.0590 H   0  0  0  0  0  0  0  0  0  0  0  0
    4.0230   -1.0800    0.0390 H   0  0  0  0  0  0  0  0  0  0  0  0
    3.5450   -2.7380   -1.4530 H   0  0  0  0  0  0  0  0  0  0  0  0
    2.1470   -1.6820   -1.4870 H   0  0  0  0  0  0  0  0  0  0  0  0
    2.3360   -4.5090   -0.3160 H   0  0  0  0  0  0  0  0  0  0  0  0
    1.5000   -3.9190   -1.7490 H   0  0  0  0  0  0  0  0  0  0  0  0
   -0.3760   -3.9850    1.8630 H   0  0  0  0  0  0  0  0  0  0  0  0
    1.1930    4.5360    2.7690 N   0  0  0  0  0  0  0  0  0  0  0  0
    0.7570    3.1580    2.8270 C   0  0  0  0  0  0  0  0  0  0  0  0
   -0.1070    2.9220    3.6880 O   0  0  0  0  0  0  0  0  0  0  0  0
    1.3380    2.1850    1.9100 C   0  0  0  0  0  0  0  0  0  0  0  0
    0.7640    0.7930    1.9480 C   0  0  2  0  0  0  0  0  0  0  0  0
    1.5510    0.0200    0.9650 N   0  0  0  0  0  0  0  0  0  0  0  0
   -0.6650    0.7040    1.6680 C   0  0  0  0  0  0  0  0  0  0  0  0
   -1.5070    1.3060    2.3770 O   0  0  0  0  0  0  0  0  0  0  0  0
    2.1770    4.7750    2.4800 H   0  0  0  0  0  0  0  0  0  0  0  0
    0.5650    5.3190    3.0070 H   0  0  0  0  0  0  0  0  0  0  0  0
    1.2330    2.6030    0.8600 H   0  0  0  0  0  0  0  0  0  0  0  0
    2.4610    2.1330    2.0330 H   0  0  0  0  0  0  0  0  0  0  0  0
    0.9760    0.3390    2.9340 H   0  0  0  0  0  0  0  0  0  0  0  0
    1.4480    0.3090   -0.0180 H   0  0  0  0  0  0  0  0  0  0  0  0
   -3.0390    0.1380   -1.0760 C   0  0  0  0  0  0  0  0  0  0  0  0
   -2.6380   -0.1240    0.3340 C   0  0  2  0  0  0  0  0  0  0  0  0
   -1.2250   -0.0550    0.5940 N   0  0  0  0  0  0  0  0  0  0  0  0
   -3.2570   -1.3640    0.8820 C   0  0  0  0  0  0  0  0  0  0  0  0
   -2.5460   -2.1790    1.5230 O   0  0  0  0  0  0  0  0  0  0  0  0
   -4.5890   -1.6330    0.7010 O   0  0  0  0  0  0  0  0  0  0  0  0
   -3.3870    1.1610   -1.2300 H   0  0  0  0  0  0  0  0  0  0  0  0
   -3.9260   -0.5220   -1.2960 H   0  0  0  0  0  0  0  0  0  0  0  0
   -2.2410   -0.1580   -1.7970 H   0  0  0  0  0  0  0  0  0  0  0  0
   -3.0960    0.6990    0.9710 H   0  0  0  0  0  0  0  0  0  0  0  0
   -0.5480   -0.5600   -0.0040 H   0  0  0  0  0  0  0  0  0  0  0  0
  1 11  1  0  0  0  0
  2 12  1  6  0  0  0
  2  1  1  0  0  0  0
  2  7  1  0  0  0  0
  3  4  1  0  0  0  0
  3  2  1  0  0  0  0
  4 15  1  0  0  0  0
  4  5  1  0  0  0  0
  5  9  1  0  0  0  0
  6  5  2  0  0  0  0
  7  8  2  0  0  0  0
  9 17  1  0  0  0  0
 10  1  1  0  0  0  0
 13  3  1  0  0  0  0
 14  3  1  0  0  0  0
 16  4  1  0  0  0  0
 18 19  1  0  0  0  0
 18 27  1  0  0  0  0
 19 20  2  0  0  0  0
 21 22  1  0  0  0  0
 21 29  1  0  0  0  0
 21 19  1  0  0  0  0
 22 30  1  1  0  0  0
 23  7  1  0  0  0  0
 23 22  1  0  0  0  0
 24 22  1  0  0  0  0
 24 25  2  0  0  0  0
 26 18  1  0  0  0  0
 28 21  1  0  0  0  0
 31 23  1  0  0  0  0
 32 33  1  0  0  0  0
 33 34  1  0  0  0  0
 33 35  1  0  0  0  0
 33 41  1  1  0  0  0
 34 24  1  0  0  0  0
 35 36  1  0  0  0  0
 37 35  2  0  0  0  0
 38 32  1  0  0  0  0
 39 32  1  0  0  0  0
 40 32  1  0  0  0  0
 42 34  1  0  0  0  0
M  END
$$$$
