ENF.pdb
 OpenBabel07022418173D

 52 52  0  0  1  0  0  0  0  0999 V2000
    1.1220   -0.5730    4.7290 N   0  0  0  0  0  0  0  0  0  0  0  0
    1.3080   -0.1120    3.3700 C   0  0  1  0  0  0  0  0  0  0  0  0
    1.7190   -1.2870    2.5430 C   0  0  0  0  0  0  0  0  0  0  0  0
    0.6780   -2.3890    2.5520 C   0  0  0  0  0  0  0  0  0  0  0  0
    1.1320   -3.5360    1.7170 C   0  0  0  0  0  0  0  0  0  0  0  0
    0.4360   -4.5700    1.5690 O   0  0  0  0  0  0  0  0  0  0  0  0
    0.1210    0.5890    2.9210 C   0  0  0  0  0  0  0  0  0  0  0  0
   -0.8530    0.6970    3.7170 O   0  0  0  0  0  0  0  0  0  0  0  0
    2.3510   -3.4640    1.0860 O   0  0  0  0  0  0  0  0  0  0  0  0
    0.3000   -1.1860    4.8520 H   0  0  0  0  0  0  0  0  0  0  0  0
    1.9900   -0.9240    5.1720 H   0  0  0  0  0  0  0  0  0  0  0  0
    2.1560    0.6200    3.4000 H   0  0  0  0  0  0  0  0  0  0  0  0
    2.0110   -1.0530    1.5200 H   0  0  0  0  0  0  0  0  0  0  0  0
    2.6270   -1.7290    3.0380 H   0  0  0  0  0  0  0  0  0  0  0  0
    0.5100   -2.7710    3.5850 H   0  0  0  0  0  0  0  0  0  0  0  0
   -0.3020   -2.0300    2.1890 H   0  0  0  0  0  0  0  0  0  0  0  0
    2.7800   -4.2280    0.5660 H   0  0  0  0  0  0  0  0  0  0  0  0
   -0.0220    3.6330    3.0560 N   0  0  0  0  0  0  0  0  0  0  0  0
   -0.2500    4.0900    1.7350 C   0  0  0  0  0  0  0  0  0  0  0  0
    0.0870    5.2740    1.4760 O   0  0  0  0  0  0  0  0  0  0  0  0
   -0.8500    3.2510    0.6840 C   0  0  0  0  0  0  0  0  0  0  0  0
   -1.1900    1.8750    1.1630 C   0  0  2  0  0  0  0  0  0  0  0  0
   -0.0300    1.1750    1.6290 N   0  0  0  0  0  0  0  0  0  0  0  0
   -1.9420    1.1000    0.1400 C   0  0  0  0  0  0  0  0  0  0  0  0
   -2.9790    1.6230   -0.3340 O   0  0  0  0  0  0  0  0  0  0  0  0
   -0.8220    3.4500    3.7020 H   0  0  0  0  0  0  0  0  0  0  0  0
    0.9420    3.4590    3.4450 H   0  0  0  0  0  0  0  0  0  0  0  0
   -1.6970    3.7490    0.1660 H   0  0  0  0  0  0  0  0  0  0  0  0
   -0.0460    3.1190   -0.0990 H   0  0  0  0  0  0  0  0  0  0  0  0
   -1.9030    1.9730    2.0250 H   0  0  0  0  0  0  0  0  0  0  0  0
    0.7790    1.0750    0.9860 H   0  0  0  0  0  0  0  0  0  0  0  0
   -1.5700   -0.1840   -0.3320 N   0  0  0  0  0  0  0  0  0  0  0  0
   -2.3350   -0.8880   -1.3210 C   0  0  1  0  0  0  0  0  0  0  0  0
   -1.5860   -1.1280   -2.5990 C   0  0  0  0  0  0  0  0  0  0  0  0
   -0.3640   -1.9200   -2.4450 C   0  0  0  0  0  0  0  0  0  0  0  0
    0.8190   -1.2660   -2.1950 C   0  0  0  0  0  0  0  0  0  0  0  0
    2.0000   -1.9580   -2.0410 C   0  0  0  0  0  0  0  0  0  0  0  0
    1.9930   -3.3310   -2.1410 C   0  0  0  0  0  0  0  0  0  0  0  0
    0.8110   -3.9840   -2.3920 C   0  0  0  0  0  0  0  0  0  0  0  0
   -0.3670   -3.2820   -2.5440 C   0  0  0  0  0  0  0  0  0  0  0  0
   -2.8960   -2.1540   -0.8310 C   0  0  0  0  0  0  0  0  0  0  0  0
   -3.5860   -2.8470   -1.6220 O   0  0  0  0  0  0  0  0  0  0  0  0
   -2.7150   -2.6380    0.4530 O   0  0  0  0  0  0  0  0  0  0  0  0
   -0.6960   -0.6230    0.0700 H   0  0  0  0  0  0  0  0  0  0  0  0
   -3.2150   -0.2370   -1.5990 H   0  0  0  0  0  0  0  0  0  0  0  0
   -2.2680   -1.6880   -3.2780 H   0  0  0  0  0  0  0  0  0  0  0  0
   -1.3900   -0.1530   -3.0900 H   0  0  0  0  0  0  0  0  0  0  0  0
    0.8600   -0.1650   -2.1080 H   0  0  0  0  0  0  0  0  0  0  0  0
    2.9360   -1.4140   -1.8410 H   0  0  0  0  0  0  0  0  0  0  0  0
    2.9170   -3.8940   -2.0230 H   0  0  0  0  0  0  0  0  0  0  0  0
    0.7950   -5.0760   -2.4730 H   0  0  0  0  0  0  0  0  0  0  0  0
   -1.2880   -3.8560   -2.7440 H   0  0  0  0  0  0  0  0  0  0  0  0
  1 10  1  0  0  0  0
  1 11  1  0  0  0  0
  2 12  1  1  0  0  0
  2  1  1  0  0  0  0
  3  4  1  0  0  0  0
  3 14  1  0  0  0  0
  3  2  1  0  0  0  0
  4 15  1  0  0  0  0
  5  4  1  0  0  0  0
  6  5  2  0  0  0  0
  7  2  1  0  0  0  0
  7  8  2  0  0  0  0
  9  5  1  0  0  0  0
 13  3  1  0  0  0  0
 16  4  1  0  0  0  0
 17  9  1  0  0  0  0
 18 27  1  0  0  0  0
 18 26  1  0  0  0  0
 19 18  1  0  0  0  0
 20 19  2  0  0  0  0
 21 22  1  0  0  0  0
 21 19  1  0  0  0  0
 22 23  1  0  0  0  0
 22 30  1  1  0  0  0
 23  7  1  0  0  0  0
 24 22  1  0  0  0  0
 25 24  2  0  0  0  0
 28 21  1  0  0  0  0
 29 21  1  0  0  0  0
 31 23  1  0  0  0  0
 32 44  1  0  0  0  0
 32 24  1  0  0  0  0
 33 45  1  6  0  0  0
 33 41  1  0  0  0  0
 33 32  1  0  0  0  0
 34 35  1  0  0  0  0
 34 33  1  0  0  0  0
 35 36  1  0  0  0  0
 36 48  1  0  0  0  0
 36 37  2  0  0  0  0
 37 49  1  0  0  0  0
 38 37  1  0  0  0  0
 38 50  1  0  0  0  0
 39 38  2  0  0  0  0
 40 35  2  0  0  0  0
 40 39  1  0  0  0  0
 41 43  1  0  0  0  0
 42 41  2  0  0  0  0
 46 34  1  0  0  0  0
 47 34  1  0  0  0  0
 51 39  1  0  0  0  0
 52 40  1  0  0  0  0
M  END
$$$$
