ENI.pdb
 OpenBabel07022418173D

 51 50  0  0  1  0  0  0  0  0999 V2000
    3.6280   -2.0910    3.4110 N   0  0  0  0  0  0  0  0  0  0  0  0
    3.0500   -1.2840    2.2850 C   0  0  1  0  0  0  0  0  0  0  0  0
    2.9920   -2.2450    1.1560 C   0  0  0  0  0  0  0  0  0  0  0  0
    2.4880   -1.7690   -0.1510 C   0  0  0  0  0  0  0  0  0  0  0  0
    3.2940   -0.6420   -0.7180 C   0  0  0  0  0  0  0  0  0  0  0  0
    4.2950   -0.1910   -0.1280 O   0  0  0  0  0  0  0  0  0  0  0  0
    1.8080   -0.6820    2.7540 C   0  0  0  0  0  0  0  0  0  0  0  0
    1.4320   -0.9300    3.9570 O   0  0  0  0  0  0  0  0  0  0  0  0
    2.9170   -0.0920   -1.9230 O   0  0  0  0  0  0  0  0  0  0  0  0
    2.9920   -2.9220    3.4630 H   0  0  0  0  0  0  0  0  0  0  0  0
    3.4550   -1.5380    4.2890 H   0  0  0  0  0  0  0  0  0  0  0  0
    3.8170   -0.4970    2.1110 H   0  0  0  0  0  0  0  0  0  0  0  0
    4.0640   -2.5760    0.9810 H   0  0  0  0  0  0  0  0  0  0  0  0
    2.4330   -3.1650    1.4600 H   0  0  0  0  0  0  0  0  0  0  0  0
    2.7170   -2.6240   -0.8860 H   0  0  0  0  0  0  0  0  0  0  0  0
    1.4180   -1.6110   -0.1760 H   0  0  0  0  0  0  0  0  0  0  0  0
    3.5300    0.5050   -2.4710 H   0  0  0  0  0  0  0  0  0  0  0  0
    1.2420    3.2460    0.6690 N   0  0  0  0  0  0  0  0  0  0  0  0
   -0.0210    2.8060    1.1230 C   0  0  0  0  0  0  0  0  0  0  0  0
   -1.0060    2.8730    0.3590 O   0  0  0  0  0  0  0  0  0  0  0  0
   -0.1670    2.2730    2.4890 C   0  0  0  0  0  0  0  0  0  0  0  0
   -0.2170    0.7450    2.5250 C   0  0  2  0  0  0  0  0  0  0  0  0
    0.9810    0.1670    1.9800 N   0  0  0  0  0  0  0  0  0  0  0  0
   -1.4800    0.2530    1.9450 C   0  0  0  0  0  0  0  0  0  0  0  0
   -2.5650    0.8140    2.3620 O   0  0  0  0  0  0  0  0  0  0  0  0
    1.6760    4.1450    0.9830 H   0  0  0  0  0  0  0  0  0  0  0  0
    1.8110    2.6790   -0.0180 H   0  0  0  0  0  0  0  0  0  0  0  0
   -1.1300    2.6120    2.9580 H   0  0  0  0  0  0  0  0  0  0  0  0
    0.6730    2.6500    3.1040 H   0  0  0  0  0  0  0  0  0  0  0  0
   -0.2220    0.4780    3.6200 H   0  0  0  0  0  0  0  0  0  0  0  0
    1.2120    0.4150    0.9840 H   0  0  0  0  0  0  0  0  0  0  0  0
   -1.8190   -3.2800   -1.6810 C   0  0  0  0  0  0  0  0  0  0  0  0
   -1.7870   -1.7970   -1.7810 C   0  0  0  0  0  0  0  0  0  0  0  0
   -2.8510   -1.0580   -1.0500 C   0  0  2  0  0  0  0  0  0  0  0  0
   -2.5960    0.4340   -1.3130 C   0  0  0  0  0  0  0  0  0  0  0  0
   -2.8170   -1.2340    0.4330 C   0  0  2  0  0  0  0  0  0  0  0  0
   -1.5620   -0.7760    0.9820 N   0  0  0  0  0  0  0  0  0  0  0  0
   -3.1800   -2.5860    0.8630 C   0  0  0  0  0  0  0  0  0  0  0  0
   -2.4670   -3.2640    1.6320 O   0  0  0  0  0  0  0  0  0  0  0  0
   -4.3580   -3.1450    0.4070 O   0  0  0  0  0  0  0  0  0  0  0  0
   -2.8350   -3.7140   -1.8020 H   0  0  0  0  0  0  0  0  0  0  0  0
   -1.2430   -3.6750   -2.5720 H   0  0  0  0  0  0  0  0  0  0  0  0
   -1.2920   -3.6970   -0.8080 H   0  0  0  0  0  0  0  0  0  0  0  0
   -0.7940   -1.4210   -1.4900 H   0  0  0  0  0  0  0  0  0  0  0  0
   -1.9050   -1.5440   -2.8740 H   0  0  0  0  0  0  0  0  0  0  0  0
   -3.8680   -1.2490   -1.4070 H   0  0  0  0  0  0  0  0  0  0  0  0
   -1.5270    0.5830   -1.0580 H   0  0  0  0  0  0  0  0  0  0  0  0
   -3.2470    1.0390   -0.6730 H   0  0  0  0  0  0  0  0  0  0  0  0
   -2.7540    0.6150   -2.4000 H   0  0  0  0  0  0  0  0  0  0  0  0
   -3.6140   -0.5600    0.8710 H   0  0  0  0  0  0  0  0  0  0  0  0
   -0.6920   -1.2260    0.6570 H   0  0  0  0  0  0  0  0  0  0  0  0
  1 10  1  0  0  0  0
  1 11  1  0  0  0  0
  2 12  1  6  0  0  0
  2  7  1  0  0  0  0
  2  1  1  0  0  0  0
  3 14  1  0  0  0  0
  3  2  1  0  0  0  0
  4  3  1  0  0  0  0
  5  4  1  0  0  0  0
  5  6  2  0  0  0  0
  7  8  2  0  0  0  0
  9  5  1  0  0  0  0
 13  3  1  0  0  0  0
 15  4  1  0  0  0  0
 16  4  1  0  0  0  0
 17  9  1  0  0  0  0
 18 26  1  0  0  0  0
 18 19  1  0  0  0  0
 19 21  1  0  0  0  0
 20 19  2  0  0  0  0
 21 22  1  0  0  0  0
 21 28  1  0  0  0  0
 21 29  1  0  0  0  0
 22 30  1  1  0  0  0
 23 22  1  0  0  0  0
 23  7  1  0  0  0  0
 24 25  2  0  0  0  0
 24 22  1  0  0  0  0
 27 18  1  0  0  0  0
 31 23  1  0  0  0  0
 32 43  1  0  0  0  0
 33 32  1  0  0  0  0
 33 44  1  0  0  0  0
 33 34  1  0  0  0  0
 34 46  1  6  0  0  0
 34 36  1  0  0  0  0
 35 47  1  0  0  0  0
 35 34  1  0  0  0  0
 35 48  1  0  0  0  0
 36 38  1  0  0  0  0
 36 50  1  1  0  0  0
 36 37  1  0  0  0  0
 37 24  1  0  0  0  0
 38 39  1  0  0  0  0
 40 38  2  0  0  0  0
 41 32  1  0  0  0  0
 42 32  1  0  0  0  0
 45 33  1  0  0  0  0
 49 35  1  0  0  0  0
 51 37  1  0  0  0  0
M  END
$$$$
