ENL.pdb
 OpenBabel07022418173D

 51 50  0  0  1  0  0  0  0  0999 V2000
    1.8500   -1.4050    5.2800 N   0  0  0  0  0  0  0  0  0  0  0  0
    1.9760   -1.2230    3.8100 C   0  0  1  0  0  0  0  0  0  0  0  0
    2.1740   -2.5730    3.2530 C   0  0  0  0  0  0  0  0  0  0  0  0
    2.3480   -2.7090    1.7850 C   0  0  0  0  0  0  0  0  0  0  0  0
    3.4970   -1.9780    1.2350 C   0  0  0  0  0  0  0  0  0  0  0  0
    4.2440   -1.3200    1.9780 O   0  0  0  0  0  0  0  0  0  0  0  0
    0.8320   -0.4430    3.3870 C   0  0  0  0  0  0  0  0  0  0  0  0
   -0.0490   -0.1220    4.2640 O   0  0  0  0  0  0  0  0  0  0  0  0
    3.7500   -2.0230   -0.1170 O   0  0  0  0  0  0  0  0  0  0  0  0
    2.3390   -2.2710    5.5710 H   0  0  0  0  0  0  0  0  0  0  0  0
    0.8440   -1.5020    5.5360 H   0  0  0  0  0  0  0  0  0  0  0  0
    2.8890   -0.5930    3.7160 H   0  0  0  0  0  0  0  0  0  0  0  0
    3.1110   -2.9990    3.7260 H   0  0  0  0  0  0  0  0  0  0  0  0
    1.3750   -3.2690    3.5870 H   0  0  0  0  0  0  0  0  0  0  0  0
    1.4390   -2.5280    1.1870 H   0  0  0  0  0  0  0  0  0  0  0  0
    2.5810   -3.8090    1.5630 H   0  0  0  0  0  0  0  0  0  0  0  0
    4.3780   -1.3640   -0.5860 H   0  0  0  0  0  0  0  0  0  0  0  0
    1.1560    4.1950    1.5290 N   0  0  0  0  0  0  0  0  0  0  0  0
    0.6630    2.9320    1.9800 C   0  0  0  0  0  0  0  0  0  0  0  0
    1.0100    2.5180    3.1060 O   0  0  0  0  0  0  0  0  0  0  0  0
   -0.2360    2.1390    1.1280 C   0  0  0  0  0  0  0  0  0  0  0  0
   -0.6380    0.8320    1.8070 C   0  0  2  0  0  0  0  0  0  0  0  0
    0.5370    0.0430    2.0830 N   0  0  0  0  0  0  0  0  0  0  0  0
   -1.5980    0.1920    0.8740 C   0  0  0  0  0  0  0  0  0  0  0  0
   -2.6750    0.8180    0.5670 O   0  0  0  0  0  0  0  0  0  0  0  0
    1.6340    4.8640    2.1500 H   0  0  0  0  0  0  0  0  0  0  0  0
    1.0290    4.4610    0.5140 H   0  0  0  0  0  0  0  0  0  0  0  0
    0.2650    1.9410    0.1590 H   0  0  0  0  0  0  0  0  0  0  0  0
   -1.1360    2.7410    0.8860 H   0  0  0  0  0  0  0  0  0  0  0  0
   -1.1670    1.0740    2.7720 H   0  0  0  0  0  0  0  0  0  0  0  0
    1.1920   -0.1770    1.3190 H   0  0  0  0  0  0  0  0  0  0  0  0
   -0.5010   -1.1840   -3.9060 C   0  0  0  0  0  0  0  0  0  0  0  0
   -1.1530   -0.7280   -2.6110 C   0  0  0  0  0  0  0  0  0  0  0  0
   -2.2360    0.2910   -2.8770 C   0  0  0  0  0  0  0  0  0  0  0  0
   -1.7820   -1.9300   -1.9550 C   0  0  0  0  0  0  0  0  0  0  0  0
   -2.4620   -1.6160   -0.6480 C   0  0  2  0  0  0  0  0  0  0  0  0
   -1.4490   -1.0720    0.2680 N   0  0  0  0  0  0  0  0  0  0  0  0
   -3.0930   -2.8270   -0.0620 C   0  0  0  0  0  0  0  0  0  0  0  0
   -2.7760   -3.2890    1.0630 O   0  0  0  0  0  0  0  0  0  0  0  0
   -4.0760   -3.4880   -0.7740 O   0  0  0  0  0  0  0  0  0  0  0  0
   -0.1990   -2.2490   -3.7720 H   0  0  0  0  0  0  0  0  0  0  0  0
   -1.1750   -1.0310   -4.7570 H   0  0  0  0  0  0  0  0  0  0  0  0
    0.4320   -0.6160   -4.0960 H   0  0  0  0  0  0  0  0  0  0  0  0
   -0.3660   -0.3220   -1.9650 H   0  0  0  0  0  0  0  0  0  0  0  0
   -3.2200   -0.1930   -2.7340 H   0  0  0  0  0  0  0  0  0  0  0  0
   -2.1580    0.7170   -3.9030 H   0  0  0  0  0  0  0  0  0  0  0  0
   -2.1460    1.0790   -2.1000 H   0  0  0  0  0  0  0  0  0  0  0  0
   -2.4940   -2.4310   -2.6690 H   0  0  0  0  0  0  0  0  0  0  0  0
   -0.9520   -2.6680   -1.8030 H   0  0  0  0  0  0  0  0  0  0  0  0
   -3.2680   -0.8850   -0.8260 H   0  0  0  0  0  0  0  0  0  0  0  0
   -0.5890   -1.6080    0.4940 H   0  0  0  0  0  0  0  0  0  0  0  0
  1 11  1  0  0  0  0
  1 10  1  0  0  0  0
  2 12  1  6  0  0  0
  2  1  1  0  0  0  0
  3 14  1  0  0  0  0
  3 13  1  0  0  0  0
  3  2  1  0  0  0  0
  4  3  1  0  0  0  0
  5  4  1  0  0  0  0
  5  6  2  0  0  0  0
  7  2  1  0  0  0  0
  7  8  2  0  0  0  0
  9  5  1  0  0  0  0
 15  4  1  0  0  0  0
 16  4  1  0  0  0  0
 17  9  1  0  0  0  0
 18 19  1  0  0  0  0
 18 26  1  0  0  0  0
 19 20  2  0  0  0  0
 21 22  1  0  0  0  0
 21 19  1  0  0  0  0
 22 23  1  0  0  0  0
 22 30  1  1  0  0  0
 23  7  1  0  0  0  0
 24 22  1  0  0  0  0
 25 24  2  0  0  0  0
 27 18  1  0  0  0  0
 28 21  1  0  0  0  0
 29 21  1  0  0  0  0
 31 23  1  0  0  0  0
 32 41  1  0  0  0  0
 32 33  1  0  0  0  0
 33 44  1  0  0  0  0
 33 35  1  0  0  0  0
 34 45  1  0  0  0  0
 34 33  1  0  0  0  0
 34 47  1  0  0  0  0
 35 49  1  0  0  0  0
 35 36  1  0  0  0  0
 36 50  1  6  0  0  0
 36 38  1  0  0  0  0
 36 37  1  0  0  0  0
 37 51  1  0  0  0  0
 37 24  1  0  0  0  0
 38 39  1  0  0  0  0
 40 38  2  0  0  0  0
 42 32  1  0  0  0  0
 43 32  1  0  0  0  0
 46 34  1  0  0  0  0
 48 35  1  0  0  0  0
M  END
$$$$
