EPA.pdb
 OpenBabel07022418203D

 42 42  0  0  1  0  0  0  0  0999 V2000
   -2.0190   -2.6860   -0.1650 N   0  0  0  0  0  0  0  0  0  0  0  0
   -0.5810   -2.2870    0.0480 C   0  0  1  0  0  0  0  0  0  0  0  0
    0.1650   -3.5100   -0.3660 C   0  0  0  0  0  0  0  0  0  0  0  0
    1.6360   -3.5020   -0.2470 C   0  0  0  0  0  0  0  0  0  0  0  0
    2.1150   -3.3410    1.1540 C   0  0  0  0  0  0  0  0  0  0  0  0
    1.3760   -3.2230    2.1450 O   0  0  0  0  0  0  0  0  0  0  0  0
   -0.4030   -1.1200   -0.8530 C   0  0  0  0  0  0  0  0  0  0  0  0
   -1.2630   -0.9680   -1.8060 O   0  0  0  0  0  0  0  0  0  0  0  0
    3.4890   -3.3230    1.3510 O   0  0  0  0  0  0  0  0  0  0  0  0
   -2.5980   -1.8030   -0.1790 H   0  0  0  0  0  0  0  0  0  0  0  0
   -2.0520   -3.0520   -1.1440 H   0  0  0  0  0  0  0  0  0  0  0  0
   -0.5140   -1.9960    1.0840 H   0  0  0  0  0  0  0  0  0  0  0  0
   -0.0810   -3.7130   -1.4410 H   0  0  0  0  0  0  0  0  0  0  0  0
   -0.2130   -4.3570    0.2780 H   0  0  0  0  0  0  0  0  0  0  0  0
    1.9880   -4.5360   -0.5440 H   0  0  0  0  0  0  0  0  0  0  0  0
    2.1600   -2.8310   -0.9480 H   0  0  0  0  0  0  0  0  0  0  0  0
    3.9420   -3.1090    2.2120 H   0  0  0  0  0  0  0  0  0  0  0  0
    0.6120   -0.1390   -0.7850 N   0  0  0  0  0  0  0  0  0  0  0  0
    0.6510    0.9600   -1.7790 C   0  0  0  0  0  0  0  0  0  0  0  0
    1.3630    2.0780   -1.0480 C   0  0  0  0  0  0  0  0  0  0  0  0
    2.4630    1.2950   -0.3770 C   0  0  0  0  0  0  0  0  0  0  0  0
    1.7040    0.0610    0.1210 C   0  0  1  0  0  0  0  0  0  0  0  0
    1.2750    0.4180    1.5000 C   0  0  0  0  0  0  0  0  0  0  0  0
    2.1930    0.5540    2.3510 O   0  0  0  0  0  0  0  0  0  0  0  0
    1.1550    0.6610   -2.6980 H   0  0  0  0  0  0  0  0  0  0  0  0
   -0.3920    1.2570   -1.9530 H   0  0  0  0  0  0  0  0  0  0  0  0
    1.7510    2.7960   -1.7840 H   0  0  0  0  0  0  0  0  0  0  0  0
    0.6800    2.5470   -0.3250 H   0  0  0  0  0  0  0  0  0  0  0  0
    2.9260    1.8230    0.4800 H   0  0  0  0  0  0  0  0  0  0  0  0
    3.2220    1.0130   -1.1330 H   0  0  0  0  0  0  0  0  0  0  0  0
    2.4270   -0.7500    0.1890 H   0  0  0  0  0  0  0  0  0  0  0  0
   -1.1030    2.3210    3.3230 C   0  0  0  0  0  0  0  0  0  0  0  0
   -0.4220    0.9590    3.2620 C   0  0  2  0  0  0  0  0  0  0  0  0
   -0.0590    0.6130    1.9120 N   0  0  0  0  0  0  0  0  0  0  0  0
   -1.3290   -0.0090    3.8890 C   0  0  0  0  0  0  0  0  0  0  0  0
   -1.7700   -1.0510    3.3380 O   0  0  0  0  0  0  0  0  0  0  0  0
   -1.7460    0.2230    5.1940 O   0  0  0  0  0  0  0  0  0  0  0  0
   -2.2010    2.1830    3.4150 H   0  0  0  0  0  0  0  0  0  0  0  0
   -0.7770    2.8470    4.2440 H   0  0  0  0  0  0  0  0  0  0  0  0
   -0.8260    2.9160    2.4330 H   0  0  0  0  0  0  0  0  0  0  0  0
    0.5020    1.0310    3.8600 H   0  0  0  0  0  0  0  0  0  0  0  0
   -0.8040    0.4900    1.1680 H   0  0  0  0  0  0  0  0  0  0  0  0
  1  2  1  0  0  0  0
  2 12  1  1  0  0  0
  3  4  1  0  0  0  0
  3  2  1  0  0  0  0
  3 14  1  0  0  0  0
  4  5  1  0  0  0  0
  5  9  1  0  0  0  0
  5  6  2  0  0  0  0
  7 18  1  0  0  0  0
  7  2  1  0  0  0  0
  8  7  2  0  0  0  0
  9 17  1  0  0  0  0
 10  1  1  0  0  0  0
 11  1  1  0  0  0  0
 13  3  1  0  0  0  0
 15  4  1  0  0  0  0
 16  4  1  0  0  0  0
 18 22  1  0  0  0  0
 19 20  1  0  0  0  0
 19 18  1  0  0  0  0
 20 21  1  0  0  0  0
 20 28  1  0  0  0  0
 21 22  1  0  0  0  0
 21 29  1  0  0  0  0
 22 31  1  1  0  0  0
 22 23  1  0  0  0  0
 23 34  1  0  0  0  0
 23 24  2  0  0  0  0
 25 19  1  0  0  0  0
 26 19  1  0  0  0  0
 27 20  1  0  0  0  0
 30 21  1  0  0  0  0
 32 38  1  0  0  0  0
 32 39  1  0  0  0  0
 33 32  1  0  0  0  0
 33 41  1  1  0  0  0
 33 35  1  0  0  0  0
 34 33  1  0  0  0  0
 35 37  1  0  0  0  0
 36 35  2  0  0  0  0
 40 32  1  0  0  0  0
 42 34  1  0  0  0  0
M  END
$$$$
