EPC.pdb
 OpenBabel07022418203D

 43 43  0  0  1  0  0  0  0  0999 V2000
    1.6870   -1.8350    2.1350 N   0  0  0  0  0  0  0  0  0  0  0  0
    2.3740   -2.1650    0.9250 C   0  0  1  0  0  0  0  0  0  0  0  0
    1.9390   -3.5600    0.5300 C   0  0  0  0  0  0  0  0  0  0  0  0
    2.5530   -4.0820   -0.7180 C   0  0  0  0  0  0  0  0  0  0  0  0
    4.0230   -4.1720   -0.7010 C   0  0  0  0  0  0  0  0  0  0  0  0
    4.5730   -4.6030   -1.7690 O   0  0  0  0  0  0  0  0  0  0  0  0
    2.2620   -1.1790   -0.1570 C   0  0  0  0  0  0  0  0  0  0  0  0
    2.8530   -1.4390   -1.2770 O   0  0  0  0  0  0  0  0  0  0  0  0
    4.8570   -3.8470    0.3300 O   0  0  0  0  0  0  0  0  0  0  0  0
    2.2900   -1.5470    2.9220 H   0  0  0  0  0  0  0  0  0  0  0  0
    0.9240   -2.4920    2.3920 H   0  0  0  0  0  0  0  0  0  0  0  0
    3.4720   -2.2010    1.2190 H   0  0  0  0  0  0  0  0  0  0  0  0
    2.2300   -4.2300    1.3660 H   0  0  0  0  0  0  0  0  0  0  0  0
    0.8440   -3.5220    0.3840 H   0  0  0  0  0  0  0  0  0  0  0  0
    2.1590   -3.6050   -1.6450 H   0  0  0  0  0  0  0  0  0  0  0  0
    2.1760   -5.1510   -0.8090 H   0  0  0  0  0  0  0  0  0  0  0  0
    5.7240   -4.3280    0.5370 H   0  0  0  0  0  0  0  0  0  0  0  0
    1.5590    0.0320   -0.0740 N   0  0  0  0  0  0  0  0  0  0  0  0
    1.4580    0.9780   -1.2060 C   0  0  0  0  0  0  0  0  0  0  0  0
    1.5090    2.3060   -0.5370 C   0  0  0  0  0  0  0  0  0  0  0  0
    1.2690    2.0950    0.9230 C   0  0  0  0  0  0  0  0  0  0  0  0
    0.8260    0.6430    0.9860 C   0  0  1  0  0  0  0  0  0  0  0  0
   -0.6520    0.5420    0.7330 C   0  0  0  0  0  0  0  0  0  0  0  0
   -1.0670   -0.0360   -0.2920 O   0  0  0  0  0  0  0  0  0  0  0  0
    2.3300    0.8540   -1.8820 H   0  0  0  0  0  0  0  0  0  0  0  0
    0.5120    0.8540   -1.7480 H   0  0  0  0  0  0  0  0  0  0  0  0
    0.7370    3.0230   -0.9200 H   0  0  0  0  0  0  0  0  0  0  0  0
    2.5200    2.7780   -0.6590 H   0  0  0  0  0  0  0  0  0  0  0  0
    0.4800    2.7610    1.3340 H   0  0  0  0  0  0  0  0  0  0  0  0
    2.2110    2.1710    1.5120 H   0  0  0  0  0  0  0  0  0  0  0  0
    1.0490    0.3040    2.0050 H   0  0  0  0  0  0  0  0  0  0  0  0
   -1.5190    1.1180    1.6850 N   0  0  0  0  0  0  0  0  0  0  0  0
   -2.9730    1.0530    1.4970 C   0  0  1  0  0  0  0  0  0  0  0  0
   -3.5420    0.2820    2.6690 C   0  0  0  0  0  0  0  0  0  0  0  0
   -5.3540    0.2070    2.4260 S   0  0  0  0  0  0  0  0  0  0  0  0
   -3.5340    2.4200    1.4680 C   0  0  0  0  0  0  0  0  0  0  0  0
   -2.7740    3.4090    1.5960 O   0  0  0  0  0  0  0  0  0  0  0  0
   -4.8870    2.5940    1.3010 O   0  0  0  0  0  0  0  0  0  0  0  0
   -1.1100    1.5920    2.5300 H   0  0  0  0  0  0  0  0  0  0  0  0
   -3.1780    0.5160    0.5550 H   0  0  0  0  0  0  0  0  0  0  0  0
   -3.1360   -0.7330    2.7000 H   0  0  0  0  0  0  0  0  0  0  0  0
   -3.3060    0.8400    3.5830 H   0  0  0  0  0  0  0  0  0  0  0  0
   -5.6110   -0.7300    1.3940 H   0  0  0  0  0  0  0  0  0  0  0  0
  1 11  1  0  0  0  0
  1 10  1  0  0  0  0
  2 12  1  1  0  0  0
  2  1  1  0  0  0  0
  3  2  1  0  0  0  0
  3 13  1  0  0  0  0
  4  5  1  0  0  0  0
  4  3  1  0  0  0  0
  5  9  1  0  0  0  0
  6  5  2  0  0  0  0
  7 18  1  0  0  0  0
  7  2  1  0  0  0  0
  8  7  2  0  0  0  0
  9 17  1  0  0  0  0
 14  3  1  0  0  0  0
 15  4  1  0  0  0  0
 16  4  1  0  0  0  0
 18 22  1  0  0  0  0
 19 20  1  0  0  0  0
 19 18  1  0  0  0  0
 20 21  1  0  0  0  0
 21 22  1  0  0  0  0
 21 29  1  0  0  0  0
 21 30  1  0  0  0  0
 22 31  1  1  0  0  0
 23 22  1  0  0  0  0
 23 32  1  0  0  0  0
 24 23  2  0  0  0  0
 25 19  1  0  0  0  0
 26 19  1  0  0  0  0
 27 20  1  0  0  0  0
 28 20  1  0  0  0  0
 32 39  1  0  0  0  0
 33 40  1  6  0  0  0
 33 32  1  0  0  0  0
 33 34  1  0  0  0  0
 34 41  1  0  0  0  0
 34 42  1  0  0  0  0
 35 34  1  0  0  0  0
 36 33  1  0  0  0  0
 36 37  1  0  0  0  0
 38 36  2  0  0  0  0
 43 35  1  0  0  0  0
M  END
$$$$
