EPD.pdb
 OpenBabel07022418203D

 45 45  0  0  1  0  0  0  0  0999 V2000
    3.1140   -3.1570    1.1980 N   0  0  0  0  0  0  0  0  0  0  0  0
    2.8820   -1.9250    0.4450 C   0  0  1  0  0  0  0  0  0  0  0  0
    2.4750   -2.2680   -0.9760 C   0  0  0  0  0  0  0  0  0  0  0  0
    3.5520   -3.0630   -1.6820 C   0  0  0  0  0  0  0  0  0  0  0  0
    3.0650   -3.3500   -3.0570 C   0  0  0  0  0  0  0  0  0  0  0  0
    2.1760   -4.2150   -3.2490 O   0  0  0  0  0  0  0  0  0  0  0  0
    1.8590   -1.1630    1.1580 C   0  0  0  0  0  0  0  0  0  0  0  0
    1.1410   -1.7320    2.0040 O   0  0  0  0  0  0  0  0  0  0  0  0
    3.5730   -2.6730   -4.1810 O   0  0  0  0  0  0  0  0  0  0  0  0
    3.0850   -2.9940    2.2230 H   0  0  0  0  0  0  0  0  0  0  0  0
    2.4000   -3.8970    0.9710 H   0  0  0  0  0  0  0  0  0  0  0  0
    3.8380   -1.3800    0.4100 H   0  0  0  0  0  0  0  0  0  0  0  0
    2.2100   -1.4330   -1.6040 H   0  0  0  0  0  0  0  0  0  0  0  0
    1.5640   -2.9320   -0.8760 H   0  0  0  0  0  0  0  0  0  0  0  0
    3.7710   -4.0120   -1.1470 H   0  0  0  0  0  0  0  0  0  0  0  0
    4.4290   -2.4000   -1.7920 H   0  0  0  0  0  0  0  0  0  0  0  0
    2.9630   -2.4470   -4.9680 H   0  0  0  0  0  0  0  0  0  0  0  0
    1.6020    0.2580    0.9540 N   0  0  0  0  0  0  0  0  0  0  0  0
    2.3490    1.1180    0.0710 C   0  0  0  0  0  0  0  0  0  0  0  0
    1.2890    2.1040   -0.4080 C   0  0  0  0  0  0  0  0  0  0  0  0
    0.5970    2.3660    0.9520 C   0  0  0  0  0  0  0  0  0  0  0  0
    0.5720    1.0240    1.6010 C   0  0  1  0  0  0  0  0  0  0  0  0
   -0.7640    0.3720    1.4780 C   0  0  0  0  0  0  0  0  0  0  0  0
   -0.8380   -0.6490    0.7570 O   0  0  0  0  0  0  0  0  0  0  0  0
    3.0300    1.7340    0.7120 H   0  0  0  0  0  0  0  0  0  0  0  0
    2.8680    0.6320   -0.7480 H   0  0  0  0  0  0  0  0  0  0  0  0
    1.7100    3.0230   -0.8180 H   0  0  0  0  0  0  0  0  0  0  0  0
    0.6060    1.5660   -1.0870 H   0  0  0  0  0  0  0  0  0  0  0  0
    1.2650    3.0520    1.4920 H   0  0  0  0  0  0  0  0  0  0  0  0
   -0.4030    2.7940    0.7410 H   0  0  0  0  0  0  0  0  0  0  0  0
    0.7950    1.1670    2.6770 H   0  0  0  0  0  0  0  0  0  0  0  0
   -1.9320    0.8270    2.1150 N   0  0  0  0  0  0  0  0  0  0  0  0
   -3.2230    0.2030    1.9980 C   0  0  1  0  0  0  0  0  0  0  0  0
   -3.8830   -0.0480    3.3410 C   0  0  0  0  0  0  0  0  0  0  0  0
   -3.0550   -0.9380    4.1910 C   0  0  0  0  0  0  0  0  0  0  0  0
   -1.9900   -0.4790    4.6740 O   0  0  0  0  0  0  0  0  0  0  0  0
   -4.1270    1.1570    1.2790 C   0  0  0  0  0  0  0  0  0  0  0  0
   -3.7010    2.2720    0.9080 O   0  0  0  0  0  0  0  0  0  0  0  0
   -3.4160   -2.2550    4.4700 O   0  0  0  0  0  0  0  0  0  0  0  0
   -5.4430    0.8000    1.0250 O   0  0  0  0  0  0  0  0  0  0  0  0
   -1.8540    1.6750    2.7140 H   0  0  0  0  0  0  0  0  0  0  0  0
   -3.1970   -0.7120    1.3630 H   0  0  0  0  0  0  0  0  0  0  0  0
   -4.0840    0.9350    3.8060 H   0  0  0  0  0  0  0  0  0  0  0  0
   -4.8590   -0.5630    3.1370 H   0  0  0  0  0  0  0  0  0  0  0  0
   -3.2130   -2.6620    5.3800 H   0  0  0  0  0  0  0  0  0  0  0  0
  1 10  1  0  0  0  0
  2 12  1  6  0  0  0
  2  7  1  0  0  0  0
  2  1  1  0  0  0  0
  3 14  1  0  0  0  0
  3  2  1  0  0  0  0
  4 15  1  0  0  0  0
  4  3  1  0  0  0  0
  5  4  1  0  0  0  0
  6  5  2  0  0  0  0
  7  8  2  0  0  0  0
  9  5  1  0  0  0  0
 11  1  1  0  0  0  0
 13  3  1  0  0  0  0
 16  4  1  0  0  0  0
 17  9  1  0  0  0  0
 18  7  1  0  0  0  0
 18 22  1  0  0  0  0
 19 25  1  0  0  0  0
 19 18  1  0  0  0  0
 20 19  1  0  0  0  0
 20 21  1  0  0  0  0
 21 29  1  0  0  0  0
 21 22  1  0  0  0  0
 22 31  1  1  0  0  0
 23 22  1  0  0  0  0
 23 32  1  0  0  0  0
 24 23  2  0  0  0  0
 26 19  1  0  0  0  0
 27 20  1  0  0  0  0
 28 20  1  0  0  0  0
 30 21  1  0  0  0  0
 32 41  1  0  0  0  0
 33 42  1  6  0  0  0
 33 32  1  0  0  0  0
 33 34  1  0  0  0  0
 34 43  1  0  0  0  0
 34 35  1  0  0  0  0
 35 39  1  0  0  0  0
 35 36  2  0  0  0  0
 37 33  1  0  0  0  0
 38 37  2  0  0  0  0
 39 45  1  0  0  0  0
 40 37  1  0  0  0  0
 44 34  1  0  0  0  0
M  END
$$$$
