EPG.pdb
 OpenBabel07022418203D

 39 39  0  0  1  0  0  0  0  0999 V2000
   -0.4660   -3.6380    1.7790 N   0  0  0  0  0  0  0  0  0  0  0  0
    0.4350   -2.4980    1.3760 C   0  0  1  0  0  0  0  0  0  0  0  0
    1.7490   -3.1650    1.2270 C   0  0  0  0  0  0  0  0  0  0  0  0
    2.9400   -2.3820    0.8750 C   0  0  0  0  0  0  0  0  0  0  0  0
    3.3270   -1.3640    1.8620 C   0  0  0  0  0  0  0  0  0  0  0  0
    2.6750   -1.1890    2.9120 O   0  0  0  0  0  0  0  0  0  0  0  0
   -0.1740   -2.0590    0.0890 C   0  0  0  0  0  0  0  0  0  0  0  0
   -0.9180   -2.8950   -0.5690 O   0  0  0  0  0  0  0  0  0  0  0  0
    4.4360   -0.5780    1.6320 O   0  0  0  0  0  0  0  0  0  0  0  0
   -1.3810   -3.2200    2.0540 H   0  0  0  0  0  0  0  0  0  0  0  0
   -0.5990   -4.2470    0.9250 H   0  0  0  0  0  0  0  0  0  0  0  0
    0.3660   -1.7770    2.1660 H   0  0  0  0  0  0  0  0  0  0  0  0
    1.6640   -4.0320    0.5330 H   0  0  0  0  0  0  0  0  0  0  0  0
    1.9680   -3.6550    2.2260 H   0  0  0  0  0  0  0  0  0  0  0  0
    2.9120   -1.8900   -0.1180 H   0  0  0  0  0  0  0  0  0  0  0  0
    3.7940   -3.1200    0.7910 H   0  0  0  0  0  0  0  0  0  0  0  0
    5.0270   -0.2350    2.3740 H   0  0  0  0  0  0  0  0  0  0  0  0
   -0.0370   -0.8050   -0.5160 N   0  0  0  0  0  0  0  0  0  0  0  0
   -0.6490   -0.4540   -1.7980 C   0  0  0  0  0  0  0  0  0  0  0  0
   -0.5460    1.0380   -1.9170 C   0  0  0  0  0  0  0  0  0  0  0  0
    0.7070    1.3680   -1.1730 C   0  0  0  0  0  0  0  0  0  0  0  0
    0.6660    0.3420   -0.0290 C   0  0  1  0  0  0  0  0  0  0  0  0
   -0.0380    0.9620    1.1410 C   0  0  0  0  0  0  0  0  0  0  0  0
    0.4720    1.9590    1.7110 O   0  0  0  0  0  0  0  0  0  0  0  0
   -0.0950   -0.8990   -2.6490 H   0  0  0  0  0  0  0  0  0  0  0  0
   -1.6840   -0.8070   -1.8660 H   0  0  0  0  0  0  0  0  0  0  0  0
   -0.3830    1.3210   -2.9920 H   0  0  0  0  0  0  0  0  0  0  0  0
   -1.4320    1.5250   -1.4860 H   0  0  0  0  0  0  0  0  0  0  0  0
    0.6730    2.3780   -0.7520 H   0  0  0  0  0  0  0  0  0  0  0  0
    1.6080    1.1790   -1.7940 H   0  0  0  0  0  0  0  0  0  0  0  0
    1.7020    0.2050    0.2580 H   0  0  0  0  0  0  0  0  0  0  0  0
   -1.2570    0.3990    1.5600 N   0  0  0  0  0  0  0  0  0  0  0  0
   -1.9370    1.0140    2.7050 C   0  0  0  0  0  0  0  0  0  0  0  0
   -2.2480    2.4290    2.3790 C   0  0  0  0  0  0  0  0  0  0  0  0
   -2.8350    3.1660    3.2130 O   0  0  0  0  0  0  0  0  0  0  0  0
   -1.9180    3.0080    1.1650 O   0  0  0  0  0  0  0  0  0  0  0  0
   -1.7190   -0.4360    1.1100 H   0  0  0  0  0  0  0  0  0  0  0  0
   -2.8690    0.5050    2.9490 H   0  0  0  0  0  0  0  0  0  0  0  0
   -1.2760    0.9480    3.6050 H   0  0  0  0  0  0  0  0  0  0  0  0
  1 10  1  0  0  0  0
  2  1  1  0  0  0  0
  2 12  1  1  0  0  0
  3  2  1  0  0  0  0
  3 14  1  0  0  0  0
  4  3  1  0  0  0  0
  4  5  1  0  0  0  0
  5  6  2  0  0  0  0
  7  2  1  0  0  0  0
  8  7  2  0  0  0  0
  9  5  1  0  0  0  0
  9 17  1  0  0  0  0
 11  1  1  0  0  0  0
 13  3  1  0  0  0  0
 15  4  1  0  0  0  0
 16  4  1  0  0  0  0
 18 22  1  0  0  0  0
 18  7  1  0  0  0  0
 19 18  1  0  0  0  0
 20 19  1  0  0  0  0
 20 28  1  0  0  0  0
 20 21  1  0  0  0  0
 21 29  1  0  0  0  0
 21 22  1  0  0  0  0
 22 31  1  1  0  0  0
 22 23  1  0  0  0  0
 23 32  1  0  0  0  0
 23 24  2  0  0  0  0
 25 19  1  0  0  0  0
 26 19  1  0  0  0  0
 27 20  1  0  0  0  0
 30 21  1  0  0  0  0
 32 33  1  0  0  0  0
 33 38  1  0  0  0  0
 33 39  1  0  0  0  0
 34 33  1  0  0  0  0
 34 35  1  0  0  0  0
 36 34  2  0  0  0  0
 37 32  1  0  0  0  0
M  END
$$$$
