EPN.pdb
 OpenBabel07022418203D

 46 46  0  0  1  0  0  0  0  0999 V2000
    2.6990   -2.8280    2.2490 N   0  0  0  0  0  0  0  0  0  0  0  0
    2.6050   -1.6670    1.3550 C   0  0  1  0  0  0  0  0  0  0  0  0
    2.1110   -2.1950    0.0540 C   0  0  0  0  0  0  0  0  0  0  0  0
    0.7760   -2.8810    0.1060 C   0  0  0  0  0  0  0  0  0  0  0  0
    0.4070   -3.3530   -1.2490 C   0  0  0  0  0  0  0  0  0  0  0  0
   -0.6630   -3.9650   -1.4620 O   0  0  0  0  0  0  0  0  0  0  0  0
    1.8380   -0.6220    2.0090 C   0  0  0  0  0  0  0  0  0  0  0  0
    1.1430   -0.9850    3.0160 O   0  0  0  0  0  0  0  0  0  0  0  0
    1.2520   -3.1220   -2.3160 O   0  0  0  0  0  0  0  0  0  0  0  0
    1.8720   -2.8630    2.8960 H   0  0  0  0  0  0  0  0  0  0  0  0
    2.8040   -3.7130    1.7080 H   0  0  0  0  0  0  0  0  0  0  0  0
    3.6410   -1.3120    1.2080 H   0  0  0  0  0  0  0  0  0  0  0  0
    2.8550   -3.0020   -0.2320 H   0  0  0  0  0  0  0  0  0  0  0  0
    2.1430   -1.5040   -0.8030 H   0  0  0  0  0  0  0  0  0  0  0  0
    0.8640   -3.8320    0.7200 H   0  0  0  0  0  0  0  0  0  0  0  0
   -0.0110   -2.3110    0.5960 H   0  0  0  0  0  0  0  0  0  0  0  0
    1.1120   -3.4540   -3.2500 H   0  0  0  0  0  0  0  0  0  0  0  0
    1.7710    0.7490    1.6660 N   0  0  0  0  0  0  0  0  0  0  0  0
    2.4940    1.3440    0.5850 C   0  0  0  0  0  0  0  0  0  0  0  0
    1.6200    2.4900    0.1510 C   0  0  0  0  0  0  0  0  0  0  0  0
    1.3210    3.0690    1.5530 C   0  0  0  0  0  0  0  0  0  0  0  0
    1.0150    1.7700    2.3290 C   0  0  1  0  0  0  0  0  0  0  0  0
   -0.4270    1.5880    2.3900 C   0  0  0  0  0  0  0  0  0  0  0  0
   -1.1170    2.3540    3.1040 O   0  0  0  0  0  0  0  0  0  0  0  0
    3.4050    1.8120    1.0490 H   0  0  0  0  0  0  0  0  0  0  0  0
    2.7730    0.6750   -0.2410 H   0  0  0  0  0  0  0  0  0  0  0  0
    0.6500    2.1750   -0.2520 H   0  0  0  0  0  0  0  0  0  0  0  0
    2.1600    3.2060   -0.4690 H   0  0  0  0  0  0  0  0  0  0  0  0
    0.4900    3.7660    1.5490 H   0  0  0  0  0  0  0  0  0  0  0  0
    2.2770    3.5080    1.8980 H   0  0  0  0  0  0  0  0  0  0  0  0
    1.4760    1.9210    3.3440 H   0  0  0  0  0  0  0  0  0  0  0  0
   -3.2900   -1.5920   -0.9460 N   0  0  0  0  0  0  0  0  0  0  0  0
   -2.5530   -0.4390   -0.6120 C   0  0  0  0  0  0  0  0  0  0  0  0
   -1.4070   -0.1730   -1.0720 O   0  0  0  0  0  0  0  0  0  0  0  0
   -3.1440    0.5350    0.3390 C   0  0  0  0  0  0  0  0  0  0  0  0
   -2.5180    0.3560    1.7060 C   0  0  2  0  0  0  0  0  0  0  0  0
   -1.0860    0.5700    1.6660 N   0  0  0  0  0  0  0  0  0  0  0  0
   -2.8630   -0.9990    2.1920 C   0  0  0  0  0  0  0  0  0  0  0  0
   -4.0640   -1.3460    2.2900 O   0  0  0  0  0  0  0  0  0  0  0  0
   -1.8960   -1.9190    2.5520 O   0  0  0  0  0  0  0  0  0  0  0  0
   -3.4500   -2.3840   -0.2850 H   0  0  0  0  0  0  0  0  0  0  0  0
   -3.7000   -1.6710   -1.9010 H   0  0  0  0  0  0  0  0  0  0  0  0
   -2.9650    1.5500   -0.0720 H   0  0  0  0  0  0  0  0  0  0  0  0
   -4.2450    0.4210    0.4030 H   0  0  0  0  0  0  0  0  0  0  0  0
   -2.9850    1.1070    2.3760 H   0  0  0  0  0  0  0  0  0  0  0  0
   -0.4990   -0.0480    1.0680 H   0  0  0  0  0  0  0  0  0  0  0  0
  1 10  1  0  0  0  0
  2 12  1  6  0  0  0
  2  7  1  0  0  0  0
  2  1  1  0  0  0  0
  3  4  1  0  0  0  0
  3  2  1  0  0  0  0
  4 16  1  0  0  0  0
  4 15  1  0  0  0  0
  5  4  1  0  0  0  0
  6  5  2  0  0  0  0
  7  8  2  0  0  0  0
  9  5  1  0  0  0  0
 11  1  1  0  0  0  0
 13  3  1  0  0  0  0
 14  3  1  0  0  0  0
 17  9  1  0  0  0  0
 18  7  1  0  0  0  0
 18 22  1  0  0  0  0
 19 25  1  0  0  0  0
 19 18  1  0  0  0  0
 20 19  1  0  0  0  0
 20 21  1  0  0  0  0
 21 30  1  0  0  0  0
 21 22  1  0  0  0  0
 22 23  1  0  0  0  0
 22 31  1  1  0  0  0
 23 24  2  0  0  0  0
 26 19  1  0  0  0  0
 27 20  1  0  0  0  0
 28 20  1  0  0  0  0
 29 21  1  0  0  0  0
 32 33  1  0  0  0  0
 32 41  1  0  0  0  0
 33 35  1  0  0  0  0
 34 33  2  0  0  0  0
 35 44  1  0  0  0  0
 35 36  1  0  0  0  0
 36 38  1  0  0  0  0
 36 45  1  1  0  0  0
 37 36  1  0  0  0  0
 37 23  1  0  0  0  0
 38 39  2  0  0  0  0
 38 40  1  0  0  0  0
 42 32  1  0  0  0  0
 43 35  1  0  0  0  0
 46 37  1  0  0  0  0
M  END
$$$$
