EPP.pdb
 OpenBabel07022418203D

 46 47  0  0  1  0  0  0  0  0999 V2000
    0.0370   -3.6610    0.4170 N   0  0  0  0  0  0  0  0  0  0  0  0
    0.9070   -2.4980    0.7660 C   0  0  1  0  0  0  0  0  0  0  0  0
    2.3300   -3.0500    0.7200 C   0  0  0  0  0  0  0  0  0  0  0  0
    3.3480   -2.0300    1.0880 C   0  0  0  0  0  0  0  0  0  0  0  0
    3.1970   -1.5710    2.4800 C   0  0  0  0  0  0  0  0  0  0  0  0
    2.3190   -2.0410    3.2290 O   0  0  0  0  0  0  0  0  0  0  0  0
    0.7800   -1.6090   -0.4160 C   0  0  0  0  0  0  0  0  0  0  0  0
    0.5730   -2.2170   -1.5280 O   0  0  0  0  0  0  0  0  0  0  0  0
    4.0570   -0.5950    2.9520 O   0  0  0  0  0  0  0  0  0  0  0  0
   -0.3240   -4.0960    1.2950 H   0  0  0  0  0  0  0  0  0  0  0  0
    0.5230   -4.3040   -0.2160 H   0  0  0  0  0  0  0  0  0  0  0  0
    0.5960   -2.0930    1.7080 H   0  0  0  0  0  0  0  0  0  0  0  0
    2.5130   -3.3340   -0.3490 H   0  0  0  0  0  0  0  0  0  0  0  0
    2.4290   -3.9420    1.3730 H   0  0  0  0  0  0  0  0  0  0  0  0
    4.3900   -2.4260    0.9190 H   0  0  0  0  0  0  0  0  0  0  0  0
    3.2960   -1.1430    0.4080 H   0  0  0  0  0  0  0  0  0  0  0  0
    4.1970   -0.4760    3.9390 H   0  0  0  0  0  0  0  0  0  0  0  0
    0.8560   -0.2090   -0.4500 N   0  0  0  0  0  0  0  0  0  0  0  0
    0.7360    0.5540   -1.7070 C   0  0  0  0  0  0  0  0  0  0  0  0
    1.8720    1.5670   -1.5110 C   0  0  0  0  0  0  0  0  0  0  0  0
    1.4720    2.0660   -0.1110 C   0  0  0  0  0  0  0  0  0  0  0  0
    1.0200    0.7560    0.5660 C   0  0  1  0  0  0  0  0  0  0  0  0
   -0.1650    1.1140    1.3610 C   0  0  0  0  0  0  0  0  0  0  0  0
    0.0960    2.0290    2.2310 O   0  0  0  0  0  0  0  0  0  0  0  0
    0.8990   -0.0710   -2.5850 H   0  0  0  0  0  0  0  0  0  0  0  0
   -0.2010    1.1100   -1.6790 H   0  0  0  0  0  0  0  0  0  0  0  0
    1.8320    2.3680   -2.2550 H   0  0  0  0  0  0  0  0  0  0  0  0
    2.8500    1.0860   -1.4570 H   0  0  0  0  0  0  0  0  0  0  0  0
    0.6050    2.7350   -0.2750 H   0  0  0  0  0  0  0  0  0  0  0  0
    2.3170    2.5320    0.3930 H   0  0  0  0  0  0  0  0  0  0  0  0
    1.8350    0.5370    1.2910 H   0  0  0  0  0  0  0  0  0  0  0  0
   -1.4570    0.5870    1.2650 N   0  0  0  0  0  0  0  0  0  0  0  0
   -2.0320   -0.4080    0.4190 C   0  0  0  0  0  0  0  0  0  0  0  0
   -3.5390   -0.2750    0.5080 C   0  0  0  0  0  0  0  0  0  0  0  0
   -3.7080    1.0910    1.1770 C   0  0  0  0  0  0  0  0  0  0  0  0
   -2.5540    1.0390    2.1410 C   0  0  1  0  0  0  0  0  0  0  0  0
   -2.8560   -0.0390    3.1450 C   0  0  0  0  0  0  0  0  0  0  0  0
   -3.7620    0.1220    4.0000 O   0  0  0  0  0  0  0  0  0  0  0  0
   -2.1620   -1.2390    3.1720 O   0  0  0  0  0  0  0  0  0  0  0  0
   -1.7920   -0.3370   -0.6450 H   0  0  0  0  0  0  0  0  0  0  0  0
   -1.7980   -1.4040    0.8710 H   0  0  0  0  0  0  0  0  0  0  0  0
   -4.0360   -0.2470   -0.4620 H   0  0  0  0  0  0  0  0  0  0  0  0
   -4.0100   -1.0650    1.1220 H   0  0  0  0  0  0  0  0  0  0  0  0
   -3.6640    1.9150    0.4650 H   0  0  0  0  0  0  0  0  0  0  0  0
   -4.6530    1.0840    1.7530 H   0  0  0  0  0  0  0  0  0  0  0  0
   -2.3290    1.9930    2.6160 H   0  0  0  0  0  0  0  0  0  0  0  0
  1  2  1  0  0  0  0
  1 10  1  0  0  0  0
  2 12  1  1  0  0  0
  3  2  1  0  0  0  0
  3  4  1  0  0  0  0
  3 14  1  0  0  0  0
  4  5  1  0  0  0  0
  5  9  1  0  0  0  0
  5  6  2  0  0  0  0
  7  2  1  0  0  0  0
  8  7  2  0  0  0  0
  9 17  1  0  0  0  0
 11  1  1  0  0  0  0
 13  3  1  0  0  0  0
 15  4  1  0  0  0  0
 16  4  1  0  0  0  0
 18  7  1  0  0  0  0
 18 22  1  0  0  0  0
 19 26  1  0  0  0  0
 19 20  1  0  0  0  0
 19 18  1  0  0  0  0
 20 28  1  0  0  0  0
 20 21  1  0  0  0  0
 21 30  1  0  0  0  0
 21 22  1  0  0  0  0
 22 31  1  1  0  0  0
 22 23  1  0  0  0  0
 23 24  2  0  0  0  0
 25 19  1  0  0  0  0
 27 20  1  0  0  0  0
 29 21  1  0  0  0  0
 32 23  1  0  0  0  0
 32 36  1  0  0  0  0
 33 34  1  0  0  0  0
 33 41  1  0  0  0  0
 33 32  1  0  0  0  0
 34 43  1  0  0  0  0
 34 35  1  0  0  0  0
 35 45  1  0  0  0  0
 35 36  1  0  0  0  0
 36 46  1  1  0  0  0
 36 37  1  0  0  0  0
 37 39  2  0  0  0  0
 37 38  1  0  0  0  0
 40 33  1  0  0  0  0
 42 34  1  0  0  0  0
 44 35  1  0  0  0  0
M  END
$$$$
