EPR.pdb
 OpenBabel07022418203D

 55 55  0  0  1  0  0  0  0  0999 V2000
    2.1240   -1.1060    0.1560 N   0  0  0  0  0  0  0  0  0  0  0  0
    1.5930   -1.2400    1.4410 C   0  0  1  0  0  0  0  0  0  0  0  0
    2.4430   -2.0440    2.3580 C   0  0  0  0  0  0  0  0  0  0  0  0
    3.8180   -1.5350    2.6090 C   0  0  0  0  0  0  0  0  0  0  0  0
    4.7490   -1.5060    1.4840 C   0  0  0  0  0  0  0  0  0  0  0  0
    4.4920   -2.0690    0.4070 O   0  0  0  0  0  0  0  0  0  0  0  0
    1.1280    0.0360    2.0520 C   0  0  0  0  0  0  0  0  0  0  0  0
    1.2560    0.0530    3.3280 O   0  0  0  0  0  0  0  0  0  0  0  0
    5.9750   -0.8420    1.5650 O   0  0  0  0  0  0  0  0  0  0  0  0
    2.6080   -0.2240   -0.0890 H   0  0  0  0  0  0  0  0  0  0  0  0
    1.9630   -1.7910   -0.5640 H   0  0  0  0  0  0  0  0  0  0  0  0
    0.6220   -1.8380    1.3200 H   0  0  0  0  0  0  0  0  0  0  0  0
    1.9440   -2.1040    3.3720 H   0  0  0  0  0  0  0  0  0  0  0  0
    2.5180   -3.1080    2.0120 H   0  0  0  0  0  0  0  0  0  0  0  0
    3.7850   -0.5310    3.1160 H   0  0  0  0  0  0  0  0  0  0  0  0
    4.2660   -2.2220    3.4020 H   0  0  0  0  0  0  0  0  0  0  0  0
    6.3280   -0.4450    0.6830 H   0  0  0  0  0  0  0  0  0  0  0  0
    0.6080    1.1460    1.4300 N   0  0  0  0  0  0  0  0  0  0  0  0
    0.3430    2.4300    2.1600 C   0  0  0  0  0  0  0  0  0  0  0  0
    1.2180    3.3410    1.2680 C   0  0  0  0  0  0  0  0  0  0  0  0
    1.1080    2.6800   -0.1320 C   0  0  0  0  0  0  0  0  0  0  0  0
    0.1540    1.5350    0.1130 C   0  0  1  0  0  0  0  0  0  0  0  0
    0.0010    0.5350   -0.9020 C   0  0  0  0  0  0  0  0  0  0  0  0
    0.5680    0.5310   -2.0400 O   0  0  0  0  0  0  0  0  0  0  0  0
    0.6940    2.3860    3.1850 H   0  0  0  0  0  0  0  0  0  0  0  0
   -0.6920    2.7360    1.9920 H   0  0  0  0  0  0  0  0  0  0  0  0
    2.2500    3.2140    1.6520 H   0  0  0  0  0  0  0  0  0  0  0  0
    0.8590    4.3670    1.2540 H   0  0  0  0  0  0  0  0  0  0  0  0
    0.7520    3.3930   -0.8740 H   0  0  0  0  0  0  0  0  0  0  0  0
    2.0900    2.2310   -0.3790 H   0  0  0  0  0  0  0  0  0  0  0  0
   -0.9000    2.0140    0.3330 H   0  0  0  0  0  0  0  0  0  0  0  0
   -4.4520   -0.0240    0.2940 N   0  0  0  0  0  0  0  0  0  0  0  0
   -4.1460   -1.3790    0.5640 C   0  0  0  0  0  0  0  0  0  0  0  0
   -3.9630   -1.7680    1.7940 N   0  0  0  0  0  0  0  0  0  0  0  0
   -4.0180   -2.3890   -0.4400 N   0  0  0  0  0  0  0  0  0  0  0  0
   -3.2500   -3.5630   -0.1940 C   0  0  0  0  0  0  0  0  0  0  0  0
   -1.7860   -3.4540   -0.0200 C   0  0  0  0  0  0  0  0  0  0  0  0
   -0.9400   -2.9650   -1.1020 C   0  0  0  0  0  0  0  0  0  0  0  0
   -1.0690   -1.5920   -1.6410 C   0  0  2  0  0  0  0  0  0  0  0  0
   -0.8790   -0.5810   -0.6470 N   0  0  0  0  0  0  0  0  0  0  0  0
   -2.2260   -1.3790   -2.5310 C   0  0  0  0  0  0  0  0  0  0  0  0
   -2.4820   -2.2690   -3.3780 O   0  0  0  0  0  0  0  0  0  0  0  0
   -3.0540   -0.2650   -2.5050 O   0  0  0  0  0  0  0  0  0  0  0  0
   -5.0180    0.2550   -0.5310 H   0  0  0  0  0  0  0  0  0  0  0  0
   -4.1060    0.7170    0.9310 H   0  0  0  0  0  0  0  0  0  0  0  0
   -4.0400   -1.0880    2.5830 H   0  0  0  0  0  0  0  0  0  0  0  0
   -4.5420   -2.2230   -1.3270 H   0  0  0  0  0  0  0  0  0  0  0  0
   -3.4830   -4.3390   -0.9950 H   0  0  0  0  0  0  0  0  0  0  0  0
   -3.7210   -4.0510    0.7310 H   0  0  0  0  0  0  0  0  0  0  0  0
   -1.5270   -2.9840    0.9870 H   0  0  0  0  0  0  0  0  0  0  0  0
   -1.4390   -4.5350    0.1850 H   0  0  0  0  0  0  0  0  0  0  0  0
   -1.1190   -3.6930   -1.9900 H   0  0  0  0  0  0  0  0  0  0  0  0
    0.1400   -3.2140   -0.8430 H   0  0  0  0  0  0  0  0  0  0  0  0
   -0.1860   -1.5010   -2.3880 H   0  0  0  0  0  0  0  0  0  0  0  0
   -1.3780   -0.6440    0.2800 H   0  0  0  0  0  0  0  0  0  0  0  0
  1  2  1  0  0  0  0
  2 12  1  6  0  0  0
  2  7  1  0  0  0  0
  2  3  1  0  0  0  0
  3  4  1  0  0  0  0
  3 13  1  0  0  0  0
  4 15  1  0  0  0  0
  4 16  1  0  0  0  0
  5  9  1  0  0  0  0
  5  4  1  0  0  0  0
  6  5  2  0  0  0  0
  7  8  2  0  0  0  0
 10  1  1  0  0  0  0
 11  1  1  0  0  0  0
 14  3  1  0  0  0  0
 17  9  1  0  0  0  0
 18  7  1  0  0  0  0
 18 19  1  0  0  0  0
 19 25  1  0  0  0  0
 20 27  1  0  0  0  0
 20 19  1  0  0  0  0
 21 22  1  0  0  0  0
 21 20  1  0  0  0  0
 22 31  1  1  0  0  0
 22 18  1  0  0  0  0
 23 40  1  0  0  0  0
 23 22  1  0  0  0  0
 24 23  2  0  0  0  0
 26 19  1  0  0  0  0
 28 20  1  0  0  0  0
 29 21  1  0  0  0  0
 30 21  1  0  0  0  0
 32 33  1  0  0  0  0
 32 45  1  0  0  0  0
 33 34  2  0  0  0  0
 34 46  1  0  0  0  0
 35 36  1  0  0  0  0
 35 33  1  0  0  0  0
 36 37  1  0  0  0  0
 36 49  1  0  0  0  0
 37 51  1  0  0  0  0
 37 50  1  0  0  0  0
 38 53  1  0  0  0  0
 38 37  1  0  0  0  0
 39 54  1  6  0  0  0
 39 38  1  0  0  0  0
 39 40  1  0  0  0  0
 40 55  1  0  0  0  0
 41 43  1  0  0  0  0
 41 39  1  0  0  0  0
 42 41  2  0  0  0  0
 44 32  1  0  0  0  0
 47 35  1  0  0  0  0
 48 36  1  0  0  0  0
 52 38  1  0  0  0  0
M  END
$$$$
