EQA.pdb
 OpenBabel07022418183D

 45 44  0  0  1  0  0  0  0  0999 V2000
    0.8560    0.2630    5.3180 N   0  0  0  0  0  0  0  0  0  0  0  0
    1.1990   -0.1830    3.9430 C   0  0  1  0  0  0  0  0  0  0  0  0
    1.0910   -1.6590    3.9730 C   0  0  0  0  0  0  0  0  0  0  0  0
    1.3910   -2.3950    2.7190 C   0  0  0  0  0  0  0  0  0  0  0  0
    2.7550   -2.1970    2.1910 C   0  0  0  0  0  0  0  0  0  0  0  0
    3.6070   -1.4750    2.7610 O   0  0  0  0  0  0  0  0  0  0  0  0
    0.3390    0.5430    3.0210 C   0  0  0  0  0  0  0  0  0  0  0  0
   -0.5620    1.3090    3.5140 O   0  0  0  0  0  0  0  0  0  0  0  0
    3.1260   -2.8300    1.0160 O   0  0  0  0  0  0  0  0  0  0  0  0
    0.2030   -0.4240    5.7610 H   0  0  0  0  0  0  0  0  0  0  0  0
    1.7240    0.2550    5.9110 H   0  0  0  0  0  0  0  0  0  0  0  0
    2.2680    0.0950    3.8150 H   0  0  0  0  0  0  0  0  0  0  0  0
    1.8420   -2.0180    4.7390 H   0  0  0  0  0  0  0  0  0  0  0  0
    0.1200   -2.0230    4.3730 H   0  0  0  0  0  0  0  0  0  0  0  0
    0.6110   -2.2820    1.9390 H   0  0  0  0  0  0  0  0  0  0  0  0
    1.3080   -3.5010    2.9920 H   0  0  0  0  0  0  0  0  0  0  0  0
    3.8970   -2.4600    0.4370 H   0  0  0  0  0  0  0  0  0  0  0  0
    2.2830    0.7130   -2.5720 N   0  0  0  0  0  0  0  0  0  0  0  0
    1.1510    1.2880   -1.8860 C   0  0  0  0  0  0  0  0  0  0  0  0
    0.0470    1.0230   -2.3820 O   0  0  0  0  0  0  0  0  0  0  0  0
    1.3550    2.1130   -0.7030 C   0  0  0  0  0  0  0  0  0  0  0  0
    0.1850    2.4570    0.1440 C   0  0  0  0  0  0  0  0  0  0  0  0
   -0.5360    1.3020    0.7870 C   0  0  2  0  0  0  0  0  0  0  0  0
    0.3670    0.5210    1.6080 N   0  0  0  0  0  0  0  0  0  0  0  0
   -1.4150    0.5200   -0.0790 C   0  0  0  0  0  0  0  0  0  0  0  0
   -2.3830    1.0930   -0.7180 O   0  0  0  0  0  0  0  0  0  0  0  0
    2.3780   -0.3000   -2.6750 H   0  0  0  0  0  0  0  0  0  0  0  0
    3.0060    1.3400   -2.9650 H   0  0  0  0  0  0  0  0  0  0  0  0
    1.8710    3.0580   -1.0840 H   0  0  0  0  0  0  0  0  0  0  0  0
    2.1880    1.6500   -0.0730 H   0  0  0  0  0  0  0  0  0  0  0  0
   -0.5620    3.1040   -0.4070 H   0  0  0  0  0  0  0  0  0  0  0  0
    0.5630    3.1630    0.9450 H   0  0  0  0  0  0  0  0  0  0  0  0
   -1.2790    1.8390    1.5050 H   0  0  0  0  0  0  0  0  0  0  0  0
    1.0630   -0.0780    1.1370 H   0  0  0  0  0  0  0  0  0  0  0  0
   -1.5390   -2.2170   -2.3720 C   0  0  0  0  0  0  0  0  0  0  0  0
   -2.2460   -1.5920   -1.1940 C   0  0  2  0  0  0  0  0  0  0  0  0
   -1.3400   -0.8740   -0.3260 N   0  0  0  0  0  0  0  0  0  0  0  0
   -3.0130   -2.6260   -0.4940 C   0  0  0  0  0  0  0  0  0  0  0  0
   -2.8540   -2.8210    0.7260 O   0  0  0  0  0  0  0  0  0  0  0  0
   -3.9210   -3.3920   -1.1910 O   0  0  0  0  0  0  0  0  0  0  0  0
   -1.7060   -1.6050   -3.2820 H   0  0  0  0  0  0  0  0  0  0  0  0
   -0.4370   -2.2550   -2.2270 H   0  0  0  0  0  0  0  0  0  0  0  0
   -1.9720   -3.2100   -2.5740 H   0  0  0  0  0  0  0  0  0  0  0  0
   -2.9720   -0.8490   -1.5860 H   0  0  0  0  0  0  0  0  0  0  0  0
   -0.5850   -1.4010    0.1450 H   0  0  0  0  0  0  0  0  0  0  0  0
  1 10  1  0  0  0  0
  1 11  1  0  0  0  0
  2 12  1  6  0  0  0
  2  3  1  0  0  0  0
  2  1  1  0  0  0  0
  3 14  1  0  0  0  0
  3 13  1  0  0  0  0
  4 16  1  0  0  0  0
  4  3  1  0  0  0  0
  5  4  1  0  0  0  0
  5  6  2  0  0  0  0
  7  8  2  0  0  0  0
  7  2  1  0  0  0  0
  9  5  1  0  0  0  0
 15  4  1  0  0  0  0
 17  9  1  0  0  0  0
 18 19  1  0  0  0  0
 19 21  1  0  0  0  0
 20 19  2  0  0  0  0
 21 30  1  0  0  0  0
 21 22  1  0  0  0  0
 22 23  1  0  0  0  0
 22 32  1  0  0  0  0
 23 33  1  1  0  0  0
 23 24  1  0  0  0  0
 24  7  1  0  0  0  0
 25 23  1  0  0  0  0
 26 25  2  0  0  0  0
 27 18  1  0  0  0  0
 28 18  1  0  0  0  0
 29 21  1  0  0  0  0
 31 22  1  0  0  0  0
 34 24  1  0  0  0  0
 35 42  1  0  0  0  0
 35 36  1  0  0  0  0
 36 44  1  6  0  0  0
 36 38  1  0  0  0  0
 36 37  1  0  0  0  0
 37 25  1  0  0  0  0
 37 45  1  0  0  0  0
 38 39  1  0  0  0  0
 40 38  2  0  0  0  0
 41 35  1  0  0  0  0
 43 35  1  0  0  0  0
M  END
$$$$
