EQF.pdb
 OpenBabel07022418183D

 55 55  0  0  1  0  0  0  0  0999 V2000
    0.4170   -2.3080    2.4130 N   0  0  0  0  0  0  0  0  0  0  0  0
    0.2850   -1.2920    3.5010 C   0  0  1  0  0  0  0  0  0  0  0  0
    1.5190   -1.3730    4.3000 C   0  0  0  0  0  0  0  0  0  0  0  0
    1.6770   -0.4620    5.4720 C   0  0  0  0  0  0  0  0  0  0  0  0
    1.7040    0.9670    5.2120 C   0  0  0  0  0  0  0  0  0  0  0  0
    1.0850    1.7670    5.9470 O   0  0  0  0  0  0  0  0  0  0  0  0
   -0.0590   -0.0560    2.8320 C   0  0  0  0  0  0  0  0  0  0  0  0
   -0.4930    0.9150    3.5010 O   0  0  0  0  0  0  0  0  0  0  0  0
    2.4190    1.4810    4.1450 O   0  0  0  0  0  0  0  0  0  0  0  0
    1.4160   -2.2080    2.1040 H   0  0  0  0  0  0  0  0  0  0  0  0
    0.3840   -3.2180    2.9250 H   0  0  0  0  0  0  0  0  0  0  0  0
   -0.5890   -1.6720    4.0960 H   0  0  0  0  0  0  0  0  0  0  0  0
    1.5500   -2.4220    4.7440 H   0  0  0  0  0  0  0  0  0  0  0  0
    2.4570   -1.3840    3.6630 H   0  0  0  0  0  0  0  0  0  0  0  0
    2.6300   -0.8170    5.9880 H   0  0  0  0  0  0  0  0  0  0  0  0
    0.9000   -0.6910    6.2710 H   0  0  0  0  0  0  0  0  0  0  0  0
    2.1600    2.3110    3.6540 H   0  0  0  0  0  0  0  0  0  0  0  0
    3.2360    0.8910   -2.6140 N   0  0  0  0  0  0  0  0  0  0  0  0
    2.6370    1.6360   -1.5860 C   0  0  0  0  0  0  0  0  0  0  0  0
    3.0980    2.7330   -1.2510 O   0  0  0  0  0  0  0  0  0  0  0  0
    1.4370    1.0990   -0.8970 C   0  0  0  0  0  0  0  0  0  0  0  0
    0.9250    2.0320    0.1620 C   0  0  0  0  0  0  0  0  0  0  0  0
   -0.2950    1.4090    0.8030 C   0  0  2  0  0  0  0  0  0  0  0  0
    0.0680    0.1450    1.4020 N   0  0  0  0  0  0  0  0  0  0  0  0
   -1.2840    1.2020   -0.3150 C   0  0  0  0  0  0  0  0  0  0  0  0
   -1.7240    2.1840   -0.9610 O   0  0  0  0  0  0  0  0  0  0  0  0
    4.1990    0.5370   -2.5020 H   0  0  0  0  0  0  0  0  0  0  0  0
    2.7210    0.6910   -3.4860 H   0  0  0  0  0  0  0  0  0  0  0  0
    1.6300    0.0900   -0.4850 H   0  0  0  0  0  0  0  0  0  0  0  0
    0.6750    0.9390   -1.7120 H   0  0  0  0  0  0  0  0  0  0  0  0
    1.7390    2.1880    0.9000 H   0  0  0  0  0  0  0  0  0  0  0  0
    0.6530    3.0200   -0.2760 H   0  0  0  0  0  0  0  0  0  0  0  0
   -0.7200    2.0990    1.5840 H   0  0  0  0  0  0  0  0  0  0  0  0
    0.4260   -0.6870    0.8970 H   0  0  0  0  0  0  0  0  0  0  0  0
   -1.7460   -0.0840   -0.6730 N   0  0  0  0  0  0  0  0  0  0  0  0
   -2.6950   -0.2950   -1.7460 C   0  0  1  0  0  0  0  0  0  0  0  0
   -1.9660   -1.1170   -2.8140 C   0  0  0  0  0  0  0  0  0  0  0  0
   -1.5150   -2.4160   -2.2620 C   0  0  0  0  0  0  0  0  0  0  0  0
   -0.2600   -2.4640   -1.6960 C   0  0  0  0  0  0  0  0  0  0  0  0
    0.1760   -3.6810   -1.1730 C   0  0  0  0  0  0  0  0  0  0  0  0
   -0.6440   -4.7920   -1.2310 C   0  0  0  0  0  0  0  0  0  0  0  0
   -1.9040   -4.7090   -1.8080 C   0  0  0  0  0  0  0  0  0  0  0  0
   -2.3530   -3.5120   -2.3320 C   0  0  0  0  0  0  0  0  0  0  0  0
   -3.9220   -0.9730   -1.2790 C   0  0  0  0  0  0  0  0  0  0  0  0
   -4.1240   -1.3280   -0.0890 O   0  0  0  0  0  0  0  0  0  0  0  0
   -4.9270   -1.2440   -2.1950 O   0  0  0  0  0  0  0  0  0  0  0  0
   -1.3790   -0.8980   -0.1330 H   0  0  0  0  0  0  0  0  0  0  0  0
   -3.0010    0.6440   -2.2320 H   0  0  0  0  0  0  0  0  0  0  0  0
   -1.1030   -0.5110   -3.1560 H   0  0  0  0  0  0  0  0  0  0  0  0
   -2.6290   -1.2660   -3.6780 H   0  0  0  0  0  0  0  0  0  0  0  0
    0.3910   -1.6060   -1.6450 H   0  0  0  0  0  0  0  0  0  0  0  0
    1.1710   -3.7270   -0.7220 H   0  0  0  0  0  0  0  0  0  0  0  0
   -0.2510   -5.7090   -0.8080 H   0  0  0  0  0  0  0  0  0  0  0  0
   -2.5340   -5.5810   -1.8480 H   0  0  0  0  0  0  0  0  0  0  0  0
   -3.3350   -3.4090   -2.7910 H   0  0  0  0  0  0  0  0  0  0  0  0
  1 11  1  0  0  0  0
  1  2  1  0  0  0  0
  2 12  1  1  0  0  0
  2  3  1  0  0  0  0
  3 13  1  0  0  0  0
  3  4  1  0  0  0  0
  4 15  1  0  0  0  0
  4 16  1  0  0  0  0
  5  4  1  0  0  0  0
  5  6  2  0  0  0  0
  7  2  1  0  0  0  0
  7  8  2  0  0  0  0
  9  5  1  0  0  0  0
 10  1  1  0  0  0  0
 14  3  1  0  0  0  0
 17  9  1  0  0  0  0
 18 27  1  0  0  0  0
 18 19  1  0  0  0  0
 19 20  2  0  0  0  0
 19 21  1  0  0  0  0
 21 29  1  0  0  0  0
 21 22  1  0  0  0  0
 22 23  1  0  0  0  0
 22 31  1  0  0  0  0
 23 24  1  0  0  0  0
 23 33  1  1  0  0  0
 24  7  1  0  0  0  0
 25 23  1  0  0  0  0
 26 25  2  0  0  0  0
 28 18  1  0  0  0  0
 30 21  1  0  0  0  0
 32 22  1  0  0  0  0
 34 24  1  0  0  0  0
 35 25  1  0  0  0  0
 35 47  1  0  0  0  0
 36 48  1  6  0  0  0
 36 44  1  0  0  0  0
 36 35  1  0  0  0  0
 37 38  1  0  0  0  0
 37 36  1  0  0  0  0
 38 39  1  0  0  0  0
 39 51  1  0  0  0  0
 39 40  2  0  0  0  0
 40 52  1  0  0  0  0
 41 40  1  0  0  0  0
 41 53  1  0  0  0  0
 42 41  2  0  0  0  0
 43 38  2  0  0  0  0
 43 42  1  0  0  0  0
 44 45  1  0  0  0  0
 46 44  2  0  0  0  0
 49 37  1  0  0  0  0
 50 37  1  0  0  0  0
 54 42  1  0  0  0  0
 55 43  1  0  0  0  0
M  END
$$$$
