EQG.pdb
 OpenBabel07022418183D

 42 41  0  0  1  0  0  0  0  0999 V2000
    3.0760   -1.1220    2.5050 N   0  0  0  0  0  0  0  0  0  0  0  0
    1.9440   -0.6330    3.2610 C   0  0  1  0  0  0  0  0  0  0  0  0
    2.3650    0.7080    3.8120 C   0  0  0  0  0  0  0  0  0  0  0  0
    1.3400    1.4140    4.6380 C   0  0  0  0  0  0  0  0  0  0  0  0
    0.9310    0.6630    5.8340 C   0  0  0  0  0  0  0  0  0  0  0  0
    1.4480   -0.4250    6.1150 O   0  0  0  0  0  0  0  0  0  0  0  0
    0.7320   -0.4590    2.4730 C   0  0  0  0  0  0  0  0  0  0  0  0
   -0.3310   -0.1140    3.0400 O   0  0  0  0  0  0  0  0  0  0  0  0
   -0.0700    1.2150    6.6610 O   0  0  0  0  0  0  0  0  0  0  0  0
    3.9190   -0.9920    3.1420 H   0  0  0  0  0  0  0  0  0  0  0  0
    3.0400   -2.1270    2.2900 H   0  0  0  0  0  0  0  0  0  0  0  0
    1.7320   -1.3630    4.0630 H   0  0  0  0  0  0  0  0  0  0  0  0
    3.3400    0.6220    4.3780 H   0  0  0  0  0  0  0  0  0  0  0  0
    2.6330    1.4170    2.9770 H   0  0  0  0  0  0  0  0  0  0  0  0
    1.8520    2.3780    4.9710 H   0  0  0  0  0  0  0  0  0  0  0  0
    0.4850    1.7910    4.0230 H   0  0  0  0  0  0  0  0  0  0  0  0
   -0.1390    0.8700    7.6010 H   0  0  0  0  0  0  0  0  0  0  0  0
   -1.7890    2.1750   -3.7640 N   0  0  0  0  0  0  0  0  0  0  0  0
   -0.8830    1.7550   -2.7670 C   0  0  0  0  0  0  0  0  0  0  0  0
    0.2580    2.2400   -2.7200 O   0  0  0  0  0  0  0  0  0  0  0  0
   -1.3010    0.7330   -1.7800 C   0  0  0  0  0  0  0  0  0  0  0  0
   -0.1740    0.4760   -0.8510 C   0  0  0  0  0  0  0  0  0  0  0  0
   -0.4380   -0.5220    0.2250 C   0  0  2  0  0  0  0  0  0  0  0  0
    0.7460   -0.6760    1.0860 N   0  0  0  0  0  0  0  0  0  0  0  0
   -0.6880   -1.8480   -0.3540 C   0  0  0  0  0  0  0  0  0  0  0  0
   -1.6680   -2.0640   -1.0960 O   0  0  0  0  0  0  0  0  0  0  0  0
   -1.5050    2.8390   -4.5130 H   0  0  0  0  0  0  0  0  0  0  0  0
   -2.7880    1.8480   -3.8080 H   0  0  0  0  0  0  0  0  0  0  0  0
   -2.1470    1.1640   -1.1660 H   0  0  0  0  0  0  0  0  0  0  0  0
   -1.6860   -0.1790   -2.2930 H   0  0  0  0  0  0  0  0  0  0  0  0
    0.7390    0.1160   -1.4080 H   0  0  0  0  0  0  0  0  0  0  0  0
    0.1520    1.4680   -0.4460 H   0  0  0  0  0  0  0  0  0  0  0  0
   -1.3010   -0.1820    0.8450 H   0  0  0  0  0  0  0  0  0  0  0  0
    1.6440   -0.9560    0.6490 H   0  0  0  0  0  0  0  0  0  0  0  0
    0.1700   -2.9470   -0.0990 N   0  0  0  0  0  0  0  0  0  0  0  0
   -0.0890   -4.2650   -0.6840 C   0  0  0  0  0  0  0  0  0  0  0  0
   -0.0730   -4.1230   -2.1740 C   0  0  0  0  0  0  0  0  0  0  0  0
   -0.2720   -5.1280   -2.8970 O   0  0  0  0  0  0  0  0  0  0  0  0
    0.1560   -2.9040   -2.8000 O   0  0  0  0  0  0  0  0  0  0  0  0
    1.0080   -2.8660    0.5060 H   0  0  0  0  0  0  0  0  0  0  0  0
    0.6980   -4.9820   -0.4340 H   0  0  0  0  0  0  0  0  0  0  0  0
   -1.0570   -4.6390   -0.3500 H   0  0  0  0  0  0  0  0  0  0  0  0
  1 10  1  0  0  0  0
  1  2  1  0  0  0  0
  2  3  1  0  0  0  0
  2 12  1  1  0  0  0
  3 13  1  0  0  0  0
  3  4  1  0  0  0  0
  4 15  1  0  0  0  0
  4  5  1  0  0  0  0
  5  6  2  0  0  0  0
  5  9  1  0  0  0  0
  7  8  2  0  0  0  0
  7  2  1  0  0  0  0
  9 17  1  0  0  0  0
 11  1  1  0  0  0  0
 14  3  1  0  0  0  0
 16  4  1  0  0  0  0
 18 19  1  0  0  0  0
 19 20  2  0  0  0  0
 19 21  1  0  0  0  0
 21 29  1  0  0  0  0
 21 22  1  0  0  0  0
 22 32  1  0  0  0  0
 22 23  1  0  0  0  0
 23 33  1  1  0  0  0
 23 24  1  0  0  0  0
 24  7  1  0  0  0  0
 25 35  1  0  0  0  0
 25 23  1  0  0  0  0
 26 25  2  0  0  0  0
 27 18  1  0  0  0  0
 28 18  1  0  0  0  0
 30 21  1  0  0  0  0
 31 22  1  0  0  0  0
 34 24  1  0  0  0  0
 35 40  1  0  0  0  0
 36 41  1  0  0  0  0
 36 42  1  0  0  0  0
 36 35  1  0  0  0  0
 37 36  1  0  0  0  0
 38 37  2  0  0  0  0
 39 37  1  0  0  0  0
M  END
$$$$
