EQQ.pdb
 OpenBabel07022418183D

 52 51  0  0  1  0  0  0  0  0999 V2000
    0.6340   -0.4340   -2.7760 N   0  0  0  0  0  0  0  0  0  0  0  0
    1.4500   -1.0890   -1.7790 C   0  0  1  0  0  0  0  0  0  0  0  0
    2.8400   -0.5360   -1.8990 C   0  0  0  0  0  0  0  0  0  0  0  0
    2.8450    0.9470   -1.6690 C   0  0  0  0  0  0  0  0  0  0  0  0
    4.2210    1.5030   -1.7880 C   0  0  0  0  0  0  0  0  0  0  0  0
    5.1520    0.7230   -2.0480 O   0  0  0  0  0  0  0  0  0  0  0  0
    0.8310   -0.9020   -0.4540 C   0  0  0  0  0  0  0  0  0  0  0  0
   -0.2420   -0.2580   -0.3910 O   0  0  0  0  0  0  0  0  0  0  0  0
    4.4200    2.8630   -1.6060 O   0  0  0  0  0  0  0  0  0  0  0  0
   -0.1850   -1.0240   -3.0690 H   0  0  0  0  0  0  0  0  0  0  0  0
    0.3090    0.4910   -2.3870 H   0  0  0  0  0  0  0  0  0  0  0  0
    1.4700   -2.1850   -2.0160 H   0  0  0  0  0  0  0  0  0  0  0  0
    3.1720   -0.7120   -2.9380 H   0  0  0  0  0  0  0  0  0  0  0  0
    3.5670   -1.0740   -1.2500 H   0  0  0  0  0  0  0  0  0  0  0  0
    2.4450    1.1840   -0.6840 H   0  0  0  0  0  0  0  0  0  0  0  0
    2.1960    1.4020   -2.4500 H   0  0  0  0  0  0  0  0  0  0  0  0
    5.3650    3.2370   -1.5840 H   0  0  0  0  0  0  0  0  0  0  0  0
    0.3330    3.7180    2.7360 N   0  0  0  0  0  0  0  0  0  0  0  0
    0.7370    2.3890    3.0420 C   0  0  0  0  0  0  0  0  0  0  0  0
    1.3500    2.2020    4.1210 O   0  0  0  0  0  0  0  0  0  0  0  0
    0.4410    1.2380    2.1040 C   0  0  0  0  0  0  0  0  0  0  0  0
    0.9920    0.0270    2.7170 C   0  0  0  0  0  0  0  0  0  0  0  0
    0.8450   -1.2810    2.0570 C   0  0  2  0  0  0  0  0  0  0  0  0
    1.4100   -1.4270    0.7460 N   0  0  0  0  0  0  0  0  0  0  0  0
   -0.4550   -1.9620    2.2240 C   0  0  0  0  0  0  0  0  0  0  0  0
   -1.1400   -1.8930    3.2770 O   0  0  0  0  0  0  0  0  0  0  0  0
   -0.5490    3.8720    2.2040 H   0  0  0  0  0  0  0  0  0  0  0  0
    0.8830    4.5550    3.0210 H   0  0  0  0  0  0  0  0  0  0  0  0
   -0.6210    1.2780    1.8960 H   0  0  0  0  0  0  0  0  0  0  0  0
    0.9790    1.5590    1.1610 H   0  0  0  0  0  0  0  0  0  0  0  0
    2.1060    0.1980    2.8440 H   0  0  0  0  0  0  0  0  0  0  0  0
    0.6350   -0.0770    3.7730 H   0  0  0  0  0  0  0  0  0  0  0  0
    1.5330   -1.9730    2.7050 H   0  0  0  0  0  0  0  0  0  0  0  0
    2.3250   -1.9490    0.5560 H   0  0  0  0  0  0  0  0  0  0  0  0
   -4.5980    0.2780    1.7240 N   0  0  0  0  0  0  0  0  0  0  0  0
   -4.2540   -1.0890    1.5870 C   0  0  0  0  0  0  0  0  0  0  0  0
   -4.4580   -1.8580    2.5520 O   0  0  0  0  0  0  0  0  0  0  0  0
   -3.6750   -1.5840    0.3430 C   0  0  0  0  0  0  0  0  0  0  0  0
   -3.2910   -3.0190    0.3350 C   0  0  0  0  0  0  0  0  0  0  0  0
   -2.2640   -3.4330    1.3330 C   0  0  2  0  0  0  0  0  0  0  0  0
   -0.9800   -2.7410    1.1700 N   0  0  0  0  0  0  0  0  0  0  0  0
   -2.0180   -4.8940    1.2610 C   0  0  0  0  0  0  0  0  0  0  0  0
   -2.9620   -5.7110    1.3730 O   0  0  0  0  0  0  0  0  0  0  0  0
   -0.7420   -5.3870    1.0680 O   0  0  0  0  0  0  0  0  0  0  0  0
   -3.9900    0.9510    2.2430 H   0  0  0  0  0  0  0  0  0  0  0  0
   -5.4880    0.6780    1.3060 H   0  0  0  0  0  0  0  0  0  0  0  0
   -2.8100   -0.9460    0.0670 H   0  0  0  0  0  0  0  0  0  0  0  0
   -4.4120   -1.4330   -0.5090 H   0  0  0  0  0  0  0  0  0  0  0  0
   -4.2270   -3.6270    0.5000 H   0  0  0  0  0  0  0  0  0  0  0  0
   -2.9340   -3.3580   -0.6660 H   0  0  0  0  0  0  0  0  0  0  0  0
   -2.6250   -3.2440    2.3770 H   0  0  0  0  0  0  0  0  0  0  0  0
   -0.4780   -2.8630    0.2460 H   0  0  0  0  0  0  0  0  0  0  0  0
  1 11  1  0  0  0  0
  1  2  1  0  0  0  0
  2 12  1  6  0  0  0
  2  7  1  0  0  0  0
  3  2  1  0  0  0  0
  3  4  1  0  0  0  0
  3 14  1  0  0  0  0
  4 15  1  0  0  0  0
  5  4  1  0  0  0  0
  5  9  1  0  0  0  0
  6  5  2  0  0  0  0
  7  8  2  0  0  0  0
  7 24  1  0  0  0  0
  9 17  1  0  0  0  0
 10  1  1  0  0  0  0
 13  3  1  0  0  0  0
 16  4  1  0  0  0  0
 18 28  1  0  0  0  0
 18 19  1  0  0  0  0
 19 20  2  0  0  0  0
 21 22  1  0  0  0  0
 21 19  1  0  0  0  0
 22 31  1  0  0  0  0
 22 32  1  0  0  0  0
 23 25  1  0  0  0  0
 23 33  1  1  0  0  0
 23 22  1  0  0  0  0
 24 23  1  0  0  0  0
 25 26  2  0  0  0  0
 27 18  1  0  0  0  0
 29 21  1  0  0  0  0
 30 21  1  0  0  0  0
 34 24  1  0  0  0  0
 35 45  1  0  0  0  0
 36 35  1  0  0  0  0
 36 37  2  0  0  0  0
 38 36  1  0  0  0  0
 39 38  1  0  0  0  0
 39 49  1  0  0  0  0
 39 40  1  0  0  0  0
 40 51  1  1  0  0  0
 41 40  1  0  0  0  0
 41 25  1  0  0  0  0
 42 40  1  0  0  0  0
 42 43  1  0  0  0  0
 44 42  2  0  0  0  0
 46 35  1  0  0  0  0
 47 38  1  0  0  0  0
 48 38  1  0  0  0  0
 50 39  1  0  0  0  0
 52 41  1  0  0  0  0
M  END
$$$$
