EQR.pdb
 OpenBabel07022418183D

 58 57  0  0  1  0  0  0  0  0999 V2000
    2.8480   -1.9200    3.6630 N   0  0  0  0  0  0  0  0  0  0  0  0
    2.0300   -0.7850    4.2040 C   0  0  1  0  0  0  0  0  0  0  0  0
    3.0160    0.2320    4.6530 C   0  0  0  0  0  0  0  0  0  0  0  0
    2.5400    1.4810    5.2670 C   0  0  0  0  0  0  0  0  0  0  0  0
    1.6940    2.3770    4.5010 C   0  0  0  0  0  0  0  0  0  0  0  0
    0.5660    2.8150    4.9110 O   0  0  0  0  0  0  0  0  0  0  0  0
    1.1860   -0.3920    3.0520 C   0  0  0  0  0  0  0  0  0  0  0  0
    0.2150    0.3880    3.1880 O   0  0  0  0  0  0  0  0  0  0  0  0
    2.0830    2.8240    3.2320 O   0  0  0  0  0  0  0  0  0  0  0  0
    3.2150   -2.4690    4.4540 H   0  0  0  0  0  0  0  0  0  0  0  0
    3.6310   -1.4710    3.1680 H   0  0  0  0  0  0  0  0  0  0  0  0
    1.4470   -1.2290    5.0290 H   0  0  0  0  0  0  0  0  0  0  0  0
    3.7000   -0.2570    5.4200 H   0  0  0  0  0  0  0  0  0  0  0  0
    3.7460    0.4240    3.8000 H   0  0  0  0  0  0  0  0  0  0  0  0
    3.4630    2.0470    5.6090 H   0  0  0  0  0  0  0  0  0  0  0  0
    2.0120    1.2810    6.2430 H   0  0  0  0  0  0  0  0  0  0  0  0
    1.6370    3.6210    2.7900 H   0  0  0  0  0  0  0  0  0  0  0  0
    4.5300   -0.5550   -2.4870 N   0  0  0  0  0  0  0  0  0  0  0  0
    3.4080    0.0690   -1.9060 C   0  0  0  0  0  0  0  0  0  0  0  0
    3.1150    1.2270   -2.2370 O   0  0  0  0  0  0  0  0  0  0  0  0
    2.5740   -0.6400   -0.9050 C   0  0  0  0  0  0  0  0  0  0  0  0
    1.4600    0.2460   -0.4380 C   0  0  0  0  0  0  0  0  0  0  0  0
    0.6070   -0.4920    0.5890 C   0  0  2  0  0  0  0  0  0  0  0  0
    1.4180   -0.8670    1.7250 N   0  0  0  0  0  0  0  0  0  0  0  0
   -0.0500   -1.6680   -0.0280 C   0  0  0  0  0  0  0  0  0  0  0  0
    0.0680   -2.8270    0.4260 O   0  0  0  0  0  0  0  0  0  0  0  0
    5.4990   -0.3380   -2.2070 H   0  0  0  0  0  0  0  0  0  0  0  0
    4.3930   -1.2670   -3.2320 H   0  0  0  0  0  0  0  0  0  0  0  0
    2.2320   -1.5780   -1.3560 H   0  0  0  0  0  0  0  0  0  0  0  0
    3.2410   -0.9150   -0.0640 H   0  0  0  0  0  0  0  0  0  0  0  0
    1.8600    1.1510    0.0500 H   0  0  0  0  0  0  0  0  0  0  0  0
    0.8120    0.5770   -1.2580 H   0  0  0  0  0  0  0  0  0  0  0  0
   -0.1720    0.2080    0.9850 H   0  0  0  0  0  0  0  0  0  0  0  0
    2.2080   -1.5120    1.5770 H   0  0  0  0  0  0  0  0  0  0  0  0
   -4.8000   -1.4950    1.3260 N   0  0  0  0  0  0  0  0  0  0  0  0
   -4.0860   -0.6560    0.4280 C   0  0  0  0  0  0  0  0  0  0  0  0
   -2.8960   -0.2800    0.7650 N   0  0  0  0  0  0  0  0  0  0  0  0
   -4.6450   -0.2300   -0.8010 N   0  0  0  0  0  0  0  0  0  0  0  0
   -3.9540   -0.3370   -2.0630 C   0  0  0  0  0  0  0  0  0  0  0  0
   -3.7870   -1.7130   -2.5820 C   0  0  0  0  0  0  0  0  0  0  0  0
   -2.9760   -2.7150   -1.9000 C   0  0  0  0  0  0  0  0  0  0  0  0
   -1.5080   -2.6040   -1.8270 C   0  0  2  0  0  0  0  0  0  0  0  0
   -0.8730   -1.5110   -1.2130 N   0  0  0  0  0  0  0  0  0  0  0  0
   -0.8760   -2.9160   -3.1740 C   0  0  0  0  0  0  0  0  0  0  0  0
    0.0670   -2.2640   -3.6410 O   0  0  0  0  0  0  0  0  0  0  0  0
   -1.3990   -3.9750   -3.8730 O   0  0  0  0  0  0  0  0  0  0  0  0
   -4.3130   -2.1990    1.9180 H   0  0  0  0  0  0  0  0  0  0  0  0
   -5.8350   -1.3780    1.3690 H   0  0  0  0  0  0  0  0  0  0  0  0
   -2.4900   -0.5870    1.6600 H   0  0  0  0  0  0  0  0  0  0  0  0
   -5.6050    0.1690   -0.7760 H   0  0  0  0  0  0  0  0  0  0  0  0
   -3.0030    0.2450   -2.0080 H   0  0  0  0  0  0  0  0  0  0  0  0
   -4.5340    0.2590   -2.8560 H   0  0  0  0  0  0  0  0  0  0  0  0
   -4.8610   -2.0910   -2.7640 H   0  0  0  0  0  0  0  0  0  0  0  0
   -3.4380   -1.5940   -3.6710 H   0  0  0  0  0  0  0  0  0  0  0  0
   -3.3360   -2.8700   -0.8220 H   0  0  0  0  0  0  0  0  0  0  0  0
   -3.2750   -3.7290   -2.3490 H   0  0  0  0  0  0  0  0  0  0  0  0
   -1.1810   -3.5300   -1.2220 H   0  0  0  0  0  0  0  0  0  0  0  0
   -0.9210   -0.5070   -1.5610 H   0  0  0  0  0  0  0  0  0  0  0  0
  1  2  1  0  0  0  0
  1 10  1  0  0  0  0
  2  3  1  0  0  0  0
  2 12  1  1  0  0  0
  3  4  1  0  0  0  0
  3 13  1  0  0  0  0
  4 15  1  0  0  0  0
  4 16  1  0  0  0  0
  5  6  2  0  0  0  0
  5  4  1  0  0  0  0
  7  8  2  0  0  0  0
  7  2  1  0  0  0  0
  9  5  1  0  0  0  0
 11  1  1  0  0  0  0
 14  3  1  0  0  0  0
 17  9  1  0  0  0  0
 18 27  1  0  0  0  0
 18 19  1  0  0  0  0
 19 21  1  0  0  0  0
 20 19  2  0  0  0  0
 21 22  1  0  0  0  0
 21 30  1  0  0  0  0
 22 31  1  0  0  0  0
 22 23  1  0  0  0  0
 23 33  1  1  0  0  0
 23 24  1  0  0  0  0
 24  7  1  0  0  0  0
 25 26  2  0  0  0  0
 25 23  1  0  0  0  0
 28 18  1  0  0  0  0
 29 21  1  0  0  0  0
 32 22  1  0  0  0  0
 34 24  1  0  0  0  0
 35 48  1  0  0  0  0
 35 47  1  0  0  0  0
 36 37  2  0  0  0  0
 36 35  1  0  0  0  0
 37 49  1  0  0  0  0
 38 50  1  0  0  0  0
 38 36  1  0  0  0  0
 39 51  1  0  0  0  0
 39 38  1  0  0  0  0
 40 39  1  0  0  0  0
 40 41  1  0  0  0  0
 41 42  1  0  0  0  0
 41 55  1  0  0  0  0
 42 57  1  1  0  0  0
 42 43  1  0  0  0  0
 43 25  1  0  0  0  0
 44 42  1  0  0  0  0
 45 44  1  0  0  0  0
 46 44  2  0  0  0  0
 52 39  1  0  0  0  0
 53 40  1  0  0  0  0
 54 40  1  0  0  0  0
 56 41  1  0  0  0  0
 58 43  1  0  0  0  0
M  END
$$$$
