EQS.pdb
 OpenBabel07022418183D

 46 45  0  0  1  0  0  0  0  0999 V2000
    0.6520   -4.3940    1.7150 N   0  0  0  0  0  0  0  0  0  0  0  0
    1.4820   -3.2010    1.4610 C   0  0  1  0  0  0  0  0  0  0  0  0
    2.1010   -3.3060    0.1530 C   0  0  0  0  0  0  0  0  0  0  0  0
    1.3270   -3.4610   -1.0880 C   0  0  0  0  0  0  0  0  0  0  0  0
    0.5040   -2.3390   -1.4900 C   0  0  0  0  0  0  0  0  0  0  0  0
    0.5740   -1.2300   -0.9790 O   0  0  0  0  0  0  0  0  0  0  0  0
    0.9030   -2.0490    2.0750 C   0  0  0  0  0  0  0  0  0  0  0  0
   -0.0570   -2.2880    2.9220 O   0  0  0  0  0  0  0  0  0  0  0  0
   -0.4560   -2.4610   -2.5280 O   0  0  0  0  0  0  0  0  0  0  0  0
   -0.3440   -4.1490    1.5010 H   0  0  0  0  0  0  0  0  0  0  0  0
    0.9290   -5.1400    1.0240 H   0  0  0  0  0  0  0  0  0  0  0  0
    2.3580   -3.4640    2.2590 H   0  0  0  0  0  0  0  0  0  0  0  0
    2.7820   -4.2410    0.1990 H   0  0  0  0  0  0  0  0  0  0  0  0
    2.9040   -2.5010    0.0250 H   0  0  0  0  0  0  0  0  0  0  0  0
    2.0110   -3.6830   -1.9810 H   0  0  0  0  0  0  0  0  0  0  0  0
    0.6600   -4.3960   -1.0460 H   0  0  0  0  0  0  0  0  0  0  0  0
   -0.5660   -1.6540   -3.1500 H   0  0  0  0  0  0  0  0  0  0  0  0
    3.1180    4.0100    0.4160 N   0  0  0  0  0  0  0  0  0  0  0  0
    2.6820    3.3210    1.5720 C   0  0  0  0  0  0  0  0  0  0  0  0
    3.0330    3.7360    2.6950 O   0  0  0  0  0  0  0  0  0  0  0  0
    1.8250    2.1330    1.4210 C   0  0  0  0  0  0  0  0  0  0  0  0
    1.4700    1.5490    2.7600 C   0  0  0  0  0  0  0  0  0  0  0  0
    0.5850    0.3480    2.6450 C   0  0  2  0  0  0  0  0  0  0  0  0
    1.2240   -0.6750    1.9060 N   0  0  0  0  0  0  0  0  0  0  0  0
   -0.7370    0.8200    2.1960 C   0  0  0  0  0  0  0  0  0  0  0  0
   -1.2380    1.9030    2.6350 O   0  0  0  0  0  0  0  0  0  0  0  0
    4.0280    4.5170    0.3910 H   0  0  0  0  0  0  0  0  0  0  0  0
    2.5530    4.0490   -0.4800 H   0  0  0  0  0  0  0  0  0  0  0  0
    2.3370    1.4590    0.7300 H   0  0  0  0  0  0  0  0  0  0  0  0
    0.9060    2.4760    0.9010 H   0  0  0  0  0  0  0  0  0  0  0  0
    0.8770    2.3390    3.2930 H   0  0  0  0  0  0  0  0  0  0  0  0
    2.3640    1.3830    3.3830 H   0  0  0  0  0  0  0  0  0  0  0  0
    0.4390   -0.0540    3.7190 H   0  0  0  0  0  0  0  0  0  0  0  0
    1.9910   -0.4630    1.1900 H   0  0  0  0  0  0  0  0  0  0  0  0
   -2.9620   -0.6490   -1.1940 O   0  0  0  0  0  0  0  0  0  0  0  0
   -3.0490    0.6050   -0.6080 C   0  0  0  0  0  0  0  0  0  0  0  0
   -2.7990    0.5800    0.8410 C   0  0  2  0  0  0  0  0  0  0  0  0
   -1.5050    0.0940    1.2720 N   0  0  0  0  0  0  0  0  0  0  0  0
   -3.8440   -0.3160    1.4610 C   0  0  0  0  0  0  0  0  0  0  0  0
   -5.0490   -0.0640    1.2130 O   0  0  0  0  0  0  0  0  0  0  0  0
   -3.5370   -1.3720    2.2680 O   0  0  0  0  0  0  0  0  0  0  0  0
   -2.9570   -0.5430   -2.1830 H   0  0  0  0  0  0  0  0  0  0  0  0
   -4.1090    0.9550   -0.7530 H   0  0  0  0  0  0  0  0  0  0  0  0
   -2.4330    1.2930   -1.2040 H   0  0  0  0  0  0  0  0  0  0  0  0
   -2.9680    1.5590    1.3310 H   0  0  0  0  0  0  0  0  0  0  0  0
   -1.2320   -0.8180    0.8560 H   0  0  0  0  0  0  0  0  0  0  0  0
  2  1  1  0  0  0  0
  2  7  1  0  0  0  0
  2 12  1  1  0  0  0
  3 13  1  0  0  0  0
  3  2  1  0  0  0  0
  4 16  1  0  0  0  0
  4  3  1  0  0  0  0
  5  4  1  0  0  0  0
  5  6  2  0  0  0  0
  7  8  2  0  0  0  0
  9  5  1  0  0  0  0
 10  1  1  0  0  0  0
 11  1  1  0  0  0  0
 14  3  1  0  0  0  0
 15  4  1  0  0  0  0
 17  9  1  0  0  0  0
 18 19  1  0  0  0  0
 19 20  2  0  0  0  0
 21 19  1  0  0  0  0
 21 22  1  0  0  0  0
 22 31  1  0  0  0  0
 22 32  1  0  0  0  0
 23 22  1  0  0  0  0
 23 33  1  1  0  0  0
 24  7  1  0  0  0  0
 24 23  1  0  0  0  0
 25 26  2  0  0  0  0
 25 23  1  0  0  0  0
 27 18  1  0  0  0  0
 28 18  1  0  0  0  0
 29 21  1  0  0  0  0
 30 21  1  0  0  0  0
 34 24  1  0  0  0  0
 35 36  1  0  0  0  0
 36 37  1  0  0  0  0
 37 38  1  0  0  0  0
 37 45  1  1  0  0  0
 37 39  1  0  0  0  0
 38 25  1  0  0  0  0
 39 41  1  0  0  0  0
 40 39  2  0  0  0  0
 42 35  1  0  0  0  0
 43 36  1  0  0  0  0
 44 36  1  0  0  0  0
 46 38  1  0  0  0  0
M  END
$$$$
