EQT.pdb
 OpenBabel07022418183D

 49 48  0  0  1  0  0  0  0  0999 V2000
    3.2160   -1.8320    0.7350 N   0  0  0  0  0  0  0  0  0  0  0  0
    2.4580   -0.7770    0.0300 C   0  0  1  0  0  0  0  0  0  0  0  0
    1.9780   -1.3760   -1.2390 C   0  0  0  0  0  0  0  0  0  0  0  0
    1.1920   -0.4940   -2.1410 C   0  0  0  0  0  0  0  0  0  0  0  0
    1.9350    0.6860   -2.6070 C   0  0  0  0  0  0  0  0  0  0  0  0
    3.1100    0.8840   -2.2850 O   0  0  0  0  0  0  0  0  0  0  0  0
    1.2800   -0.3930    0.8870 C   0  0  0  0  0  0  0  0  0  0  0  0
    0.3880    0.4030    0.5400 O   0  0  0  0  0  0  0  0  0  0  0  0
    1.3060    1.6050   -3.4290 O   0  0  0  0  0  0  0  0  0  0  0  0
    2.7710   -2.7650    0.5850 H   0  0  0  0  0  0  0  0  0  0  0  0
    4.2040   -1.8350    0.4340 H   0  0  0  0  0  0  0  0  0  0  0  0
    3.1250    0.0620   -0.1420 H   0  0  0  0  0  0  0  0  0  0  0  0
    2.9040   -1.7230   -1.7910 H   0  0  0  0  0  0  0  0  0  0  0  0
    1.3910   -2.3210   -1.0340 H   0  0  0  0  0  0  0  0  0  0  0  0
    0.2380   -0.2020   -1.6660 H   0  0  0  0  0  0  0  0  0  0  0  0
    0.9310   -1.1030   -3.0540 H   0  0  0  0  0  0  0  0  0  0  0  0
    1.8690    2.2030   -4.0110 H   0  0  0  0  0  0  0  0  0  0  0  0
    2.1490    3.1790    2.3420 N   0  0  0  0  0  0  0  0  0  0  0  0
    1.8640    2.0030    3.0630 C   0  0  0  0  0  0  0  0  0  0  0  0
    2.7390    1.1340    3.2030 O   0  0  0  0  0  0  0  0  0  0  0  0
    0.5360    1.8020    3.6560 C   0  0  0  0  0  0  0  0  0  0  0  0
    0.1660    0.4320    4.0360 C   0  0  0  0  0  0  0  0  0  0  0  0
    0.0310   -0.6240    3.0320 C   0  0  2  0  0  0  0  0  0  0  0  0
    1.1440   -0.9640    2.2090 N   0  0  0  0  0  0  0  0  0  0  0  0
   -1.3050   -0.7560    2.3870 C   0  0  0  0  0  0  0  0  0  0  0  0
   -2.3420   -0.2390    2.8360 O   0  0  0  0  0  0  0  0  0  0  0  0
    1.5120    3.5850    1.6110 H   0  0  0  0  0  0  0  0  0  0  0  0
    3.0370    3.7410    2.4910 H   0  0  0  0  0  0  0  0  0  0  0  0
   -0.2510    2.3550    3.0890 H   0  0  0  0  0  0  0  0  0  0  0  0
    0.5730    2.3860    4.6310 H   0  0  0  0  0  0  0  0  0  0  0  0
    0.9460    0.0880    4.7840 H   0  0  0  0  0  0  0  0  0  0  0  0
   -0.7660    0.4790    4.6450 H   0  0  0  0  0  0  0  0  0  0  0  0
   -0.0300   -1.5990    3.7160 H   0  0  0  0  0  0  0  0  0  0  0  0
    1.9120   -1.6310    2.5120 H   0  0  0  0  0  0  0  0  0  0  0  0
   -1.8190   -2.1970   -1.7170 C   0  0  0  0  0  0  0  0  0  0  0  0
   -2.6980   -1.2690   -0.8970 C   0  0  1  0  0  0  0  0  0  0  0  0
   -3.9840   -1.3870   -1.4860 O   0  0  0  0  0  0  0  0  0  0  0  0
   -2.7440   -1.6560    0.5440 C   0  0  2  0  0  0  0  0  0  0  0  0
   -1.4260   -1.5170    1.1950 N   0  0  0  0  0  0  0  0  0  0  0  0
   -3.2430   -3.0520    0.7290 C   0  0  0  0  0  0  0  0  0  0  0  0
   -4.3590   -3.3620    0.2400 O   0  0  0  0  0  0  0  0  0  0  0  0
   -2.5270   -4.0150    1.4170 O   0  0  0  0  0  0  0  0  0  0  0  0
   -1.4080   -1.6900   -2.5940 H   0  0  0  0  0  0  0  0  0  0  0  0
   -0.9970   -2.6340   -1.1340 H   0  0  0  0  0  0  0  0  0  0  0  0
   -2.4350   -3.0520   -2.1230 H   0  0  0  0  0  0  0  0  0  0  0  0
   -2.3790   -0.2260   -1.0400 H   0  0  0  0  0  0  0  0  0  0  0  0
   -4.6780   -0.9740   -0.9200 H   0  0  0  0  0  0  0  0  0  0  0  0
   -3.4720   -1.0120    1.0690 H   0  0  0  0  0  0  0  0  0  0  0  0
   -0.6230   -2.0140    0.7500 H   0  0  0  0  0  0  0  0  0  0  0  0
  2 12  1  6  0  0  0
  2  1  1  0  0  0  0
  2  7  1  0  0  0  0
  3 14  1  0  0  0  0
  3  2  1  0  0  0  0
  4 15  1  0  0  0  0
  4  3  1  0  0  0  0
  5  6  2  0  0  0  0
  5  4  1  0  0  0  0
  7 24  1  0  0  0  0
  8  7  2  0  0  0  0
  9  5  1  0  0  0  0
 10  1  1  0  0  0  0
 11  1  1  0  0  0  0
 13  3  1  0  0  0  0
 16  4  1  0  0  0  0
 17  9  1  0  0  0  0
 18 28  1  0  0  0  0
 18 19  1  0  0  0  0
 19 20  2  0  0  0  0
 19 21  1  0  0  0  0
 21 22  1  0  0  0  0
 21 30  1  0  0  0  0
 22 32  1  0  0  0  0
 22 31  1  0  0  0  0
 23 33  1  1  0  0  0
 23 22  1  0  0  0  0
 24 34  1  0  0  0  0
 24 23  1  0  0  0  0
 25 26  2  0  0  0  0
 25 23  1  0  0  0  0
 27 18  1  0  0  0  0
 29 21  1  0  0  0  0
 35 44  1  0  0  0  0
 35 36  1  0  0  0  0
 36 46  1  6  0  0  0
 36 38  1  0  0  0  0
 37 47  1  0  0  0  0
 37 36  1  0  0  0  0
 38 40  1  0  0  0  0
 38 48  1  1  0  0  0
 38 39  1  0  0  0  0
 39 25  1  0  0  0  0
 40 42  1  0  0  0  0
 41 40  2  0  0  0  0
 43 35  1  0  0  0  0
 45 35  1  0  0  0  0
 49 39  1  0  0  0  0
M  END
$$$$
