EQW.pdb
 OpenBabel07022418183D

 59 60  0  0  1  0  0  0  0  0999 V2000
    1.6960    1.5610    4.6650 N   0  0  0  0  0  0  0  0  0  0  0  0
    1.6740    0.8410    3.4100 C   0  0  1  0  0  0  0  0  0  0  0  0
    1.4080   -0.6070    3.6230 C   0  0  0  0  0  0  0  0  0  0  0  0
    2.5100   -1.1690    4.4970 C   0  0  0  0  0  0  0  0  0  0  0  0
    2.2900   -2.6190    4.7360 C   0  0  0  0  0  0  0  0  0  0  0  0
    1.3150   -3.2560    4.2570 O   0  0  0  0  0  0  0  0  0  0  0  0
    0.7340    1.4860    2.4570 C   0  0  0  0  0  0  0  0  0  0  0  0
    0.1180    2.5430    2.7550 O   0  0  0  0  0  0  0  0  0  0  0  0
    3.1770   -3.3350    5.5160 O   0  0  0  0  0  0  0  0  0  0  0  0
    0.6960    1.8570    4.8440 H   0  0  0  0  0  0  0  0  0  0  0  0
    2.2020    2.4650    4.4820 H   0  0  0  0  0  0  0  0  0  0  0  0
    2.6860    0.9400    2.9720 H   0  0  0  0  0  0  0  0  0  0  0  0
    1.3980   -1.1430    2.6510 H   0  0  0  0  0  0  0  0  0  0  0  0
    0.4600   -0.7120    4.1910 H   0  0  0  0  0  0  0  0  0  0  0  0
    3.5120   -0.9380    4.1220 H   0  0  0  0  0  0  0  0  0  0  0  0
    2.4370   -0.6670    5.5070 H   0  0  0  0  0  0  0  0  0  0  0  0
    3.4260   -4.2910    5.3410 H   0  0  0  0  0  0  0  0  0  0  0  0
    2.0810    0.5810   -4.1240 N   0  0  0  0  0  0  0  0  0  0  0  0
    1.3940    1.3580   -3.1500 C   0  0  0  0  0  0  0  0  0  0  0  0
    1.2430    2.5790   -3.3960 O   0  0  0  0  0  0  0  0  0  0  0  0
    0.8630    0.7920   -1.8860 C   0  0  0  0  0  0  0  0  0  0  0  0
    0.1970    1.8890   -1.1150 C   0  0  0  0  0  0  0  0  0  0  0  0
   -0.4000    1.4980    0.1860 C   0  0  2  0  0  0  0  0  0  0  0  0
    0.4780    0.9510    1.1620 N   0  0  0  0  0  0  0  0  0  0  0  0
   -1.6480    0.7280   -0.0150 C   0  0  0  0  0  0  0  0  0  0  0  0
   -2.4330    1.1400   -0.9080 O   0  0  0  0  0  0  0  0  0  0  0  0
    3.1020    0.6630   -4.3220 H   0  0  0  0  0  0  0  0  0  0  0  0
    1.5450   -0.1160   -4.6820 H   0  0  0  0  0  0  0  0  0  0  0  0
    0.1290    0.0140   -2.1780 H   0  0  0  0  0  0  0  0  0  0  0  0
    1.6520    0.2700   -1.3030 H   0  0  0  0  0  0  0  0  0  0  0  0
   -0.5360    2.3680   -1.7960 H   0  0  0  0  0  0  0  0  0  0  0  0
    0.9380    2.7140   -0.8960 H   0  0  0  0  0  0  0  0  0  0  0  0
   -0.7730    2.4740    0.6460 H   0  0  0  0  0  0  0  0  0  0  0  0
    1.0210    0.0570    0.9560 H   0  0  0  0  0  0  0  0  0  0  0  0
   -2.0240   -0.4280    0.7190 N   0  0  0  0  0  0  0  0  0  0  0  0
   -3.2510   -1.1310    0.4810 C   0  0  1  0  0  0  0  0  0  0  0  0
   -3.0490   -2.5610    0.0640 C   0  0  0  0  0  0  0  0  0  0  0  0
   -2.2840   -2.7080   -1.1740 C   0  0  0  0  0  0  0  0  0  0  0  0
   -2.8320   -2.8740   -2.4270 C   0  0  0  0  0  0  0  0  0  0  0  0
   -1.8760   -2.9510   -3.3560 N   0  0  0  0  0  0  0  0  0  0  0  0
   -0.7090   -2.8340   -2.7010 C   0  0  0  0  0  0  0  0  0  0  0  0
    0.5660   -2.8610   -3.2060 C   0  0  0  0  0  0  0  0  0  0  0  0
    1.6180   -2.7320   -2.3270 C   0  0  0  0  0  0  0  0  0  0  0  0
    1.4270   -2.5820   -0.9810 C   0  0  0  0  0  0  0  0  0  0  0  0
    0.1360   -2.5550   -0.4690 C   0  0  0  0  0  0  0  0  0  0  0  0
   -0.9250   -2.6810   -1.3320 C   0  0  0  0  0  0  0  0  0  0  0  0
   -4.1350   -1.1290    1.6880 C   0  0  0  0  0  0  0  0  0  0  0  0
   -3.8040   -0.5690    2.7510 O   0  0  0  0  0  0  0  0  0  0  0  0
   -5.3530   -1.7680    1.6160 O   0  0  0  0  0  0  0  0  0  0  0  0
   -1.3800   -0.7410    1.4460 H   0  0  0  0  0  0  0  0  0  0  0  0
   -3.7610   -0.5880   -0.3620 H   0  0  0  0  0  0  0  0  0  0  0  0
   -2.5290   -3.0490    0.9430 H   0  0  0  0  0  0  0  0  0  0  0  0
   -4.0650   -3.0600   -0.0060 H   0  0  0  0  0  0  0  0  0  0  0  0
   -3.8950   -2.9340   -2.6210 H   0  0  0  0  0  0  0  0  0  0  0  0
   -2.0610   -3.0770   -4.3740 H   0  0  0  0  0  0  0  0  0  0  0  0
    0.7250   -2.9800   -4.2720 H   0  0  0  0  0  0  0  0  0  0  0  0
    2.6300   -2.7510   -2.7080 H   0  0  0  0  0  0  0  0  0  0  0  0
    2.2680   -2.4810   -0.2950 H   0  0  0  0  0  0  0  0  0  0  0  0
   -0.0390   -2.4460    0.5930 H   0  0  0  0  0  0  0  0  0  0  0  0
  1 10  1  0  0  0  0
  2 12  1  6  0  0  0
  2  3  1  0  0  0  0
  2  1  1  0  0  0  0
  3 14  1  0  0  0  0
  3  4  1  0  0  0  0
  4  5  1  0  0  0  0
  4 16  1  0  0  0  0
  5  9  1  0  0  0  0
  6  5  2  0  0  0  0
  7  8  2  0  0  0  0
  7  2  1  0  0  0  0
 11  1  1  0  0  0  0
 13  3  1  0  0  0  0
 15  4  1  0  0  0  0
 17  9  1  0  0  0  0
 18 19  1  0  0  0  0
 19 21  1  0  0  0  0
 20 19  2  0  0  0  0
 21 30  1  0  0  0  0
 21 22  1  0  0  0  0
 22 32  1  0  0  0  0
 22 23  1  0  0  0  0
 23 33  1  1  0  0  0
 23 24  1  0  0  0  0
 24  7  1  0  0  0  0
 25 23  1  0  0  0  0
 25 35  1  0  0  0  0
 26 25  2  0  0  0  0
 27 18  1  0  0  0  0
 28 18  1  0  0  0  0
 29 21  1  0  0  0  0
 31 22  1  0  0  0  0
 34 24  1  0  0  0  0
 35 50  1  0  0  0  0
 36 51  1  6  0  0  0
 36 35  1  0  0  0  0
 36 47  1  0  0  0  0
 37 36  1  0  0  0  0
 37 52  1  0  0  0  0
 38 37  1  0  0  0  0
 39 38  2  0  0  0  0
 40 41  1  0  0  0  0
 40 39  1  0  0  0  0
 41 46  1  0  0  0  0
 42 41  2  0  0  0  0
 42 43  1  0  0  0  0
 43 44  2  0  0  0  0
 44 45  1  0  0  0  0
 44 58  1  0  0  0  0
 45 59  1  0  0  0  0
 46 38  1  0  0  0  0
 46 45  2  0  0  0  0
 47 48  1  0  0  0  0
 49 47  2  0  0  0  0
 53 37  1  0  0  0  0
 54 39  1  0  0  0  0
 55 40  1  0  0  0  0
 56 42  1  0  0  0  0
 57 43  1  0  0  0  0
M  END
$$$$
