EQY.pdb
 OpenBabel07022418183D

 56 56  0  0  1  0  0  0  0  0999 V2000
   -2.6240    0.2270    5.4920 N   0  0  0  0  0  0  0  0  0  0  0  0
   -1.2390    0.0680    4.9580 C   0  0  1  0  0  0  0  0  0  0  0  0
   -0.8080   -1.2550    5.4760 C   0  0  0  0  0  0  0  0  0  0  0  0
    0.5100   -1.7970    5.1460 C   0  0  0  0  0  0  0  0  0  0  0  0
    0.7430   -2.1990    3.7550 C   0  0  0  0  0  0  0  0  0  0  0  0
   -0.1550   -2.2610    2.8970 O   0  0  0  0  0  0  0  0  0  0  0  0
   -1.2480    0.2210    3.5230 C   0  0  0  0  0  0  0  0  0  0  0  0
   -2.3220   -0.0920    2.9100 O   0  0  0  0  0  0  0  0  0  0  0  0
    2.0410   -2.5500    3.3110 O   0  0  0  0  0  0  0  0  0  0  0  0
   -3.2130    0.7830    4.8320 H   0  0  0  0  0  0  0  0  0  0  0  0
   -3.0780   -0.7160    5.5600 H   0  0  0  0  0  0  0  0  0  0  0  0
   -0.6370    0.9100    5.4050 H   0  0  0  0  0  0  0  0  0  0  0  0
   -1.5770   -2.0580    5.1700 H   0  0  0  0  0  0  0  0  0  0  0  0
   -0.9300   -1.2860    6.6050 H   0  0  0  0  0  0  0  0  0  0  0  0
    0.7530   -2.6710    5.8370 H   0  0  0  0  0  0  0  0  0  0  0  0
    1.2730   -0.9890    5.4040 H   0  0  0  0  0  0  0  0  0  0  0  0
    2.1180   -3.3320    2.6490 H   0  0  0  0  0  0  0  0  0  0  0  0
    0.2980    2.5840   -2.8160 N   0  0  0  0  0  0  0  0  0  0  0  0
    0.4550    2.5130   -1.3950 C   0  0  0  0  0  0  0  0  0  0  0  0
    1.6010    2.2860   -0.9520 O   0  0  0  0  0  0  0  0  0  0  0  0
   -0.6630    2.7000   -0.4710 C   0  0  0  0  0  0  0  0  0  0  0  0
   -0.4920    2.2520    0.9250 C   0  0  0  0  0  0  0  0  0  0  0  0
   -0.3720    0.8100    1.2420 C   0  0  2  0  0  0  0  0  0  0  0  0
   -0.1900    0.6930    2.7250 N   0  0  0  0  0  0  0  0  0  0  0  0
    0.6270    0.0010    0.5850 C   0  0  0  0  0  0  0  0  0  0  0  0
    1.6600   -0.3000    1.2960 O   0  0  0  0  0  0  0  0  0  0  0  0
   -0.5170    2.1670   -3.2860 H   0  0  0  0  0  0  0  0  0  0  0  0
    1.0630    3.0840   -3.3350 H   0  0  0  0  0  0  0  0  0  0  0  0
   -0.8950    3.8180   -0.5110 H   0  0  0  0  0  0  0  0  0  0  0  0
   -1.5820    2.2630   -0.9550 H   0  0  0  0  0  0  0  0  0  0  0  0
   -1.3360    2.7290    1.5420 H   0  0  0  0  0  0  0  0  0  0  0  0
    0.4020    2.8380    1.3500 H   0  0  0  0  0  0  0  0  0  0  0  0
   -1.3960    0.3660    1.0190 H   0  0  0  0  0  0  0  0  0  0  0  0
    0.7150    0.9620    3.1450 H   0  0  0  0  0  0  0  0  0  0  0  0
   -3.0710   -3.6130   -4.8190 O   0  0  0  0  0  0  0  0  0  0  0  0
   -2.0010   -3.4060   -3.9280 C   0  0  0  0  0  0  0  0  0  0  0  0
   -2.2390   -3.1240   -2.6030 C   0  0  0  0  0  0  0  0  0  0  0  0
   -1.1760   -2.9260   -1.7570 C   0  0  0  0  0  0  0  0  0  0  0  0
    0.1120   -3.0070   -2.2140 C   0  0  0  0  0  0  0  0  0  0  0  0
    1.2530   -2.8010   -1.3100 C   0  0  0  0  0  0  0  0  0  0  0  0
    1.6670   -1.3330   -1.2290 C   0  0  2  0  0  0  0  0  0  0  0  0
    0.6040   -0.5160   -0.7460 N   0  0  0  0  0  0  0  0  0  0  0  0
    2.3090   -0.9060   -2.4800 C   0  0  0  0  0  0  0  0  0  0  0  0
    2.0200    0.0750   -3.1860 O   0  0  0  0  0  0  0  0  0  0  0  0
    0.3810   -3.2910   -3.5480 C   0  0  0  0  0  0  0  0  0  0  0  0
   -0.7080   -3.4910   -4.4020 C   0  0  0  0  0  0  0  0  0  0  0  0
    3.3810   -1.6920   -2.9470 O   0  0  0  0  0  0  0  0  0  0  0  0
   -3.1620   -2.9500   -5.5840 H   0  0  0  0  0  0  0  0  0  0  0  0
   -3.2370   -3.0510   -2.2040 H   0  0  0  0  0  0  0  0  0  0  0  0
   -1.3040   -2.7000   -0.7000 H   0  0  0  0  0  0  0  0  0  0  0  0
    0.9680   -3.1730   -0.3040 H   0  0  0  0  0  0  0  0  0  0  0  0
    2.1330   -3.3850   -1.6360 H   0  0  0  0  0  0  0  0  0  0  0  0
    2.4730   -1.3420   -0.4400 H   0  0  0  0  0  0  0  0  0  0  0  0
   -0.2020   -0.2850   -1.3380 H   0  0  0  0  0  0  0  0  0  0  0  0
    1.3600   -3.3660   -3.9560 H   0  0  0  0  0  0  0  0  0  0  0  0
   -0.5790   -3.7150   -5.4490 H   0  0  0  0  0  0  0  0  0  0  0  0
  1 11  1  0  0  0  0
  2 12  1  1  0  0  0
  2  3  1  0  0  0  0
  2  1  1  0  0  0  0
  3 14  1  0  0  0  0
  4 16  1  0  0  0  0
  4  3  1  0  0  0  0
  4 15  1  0  0  0  0
  5  4  1  0  0  0  0
  6  5  2  0  0  0  0
  7  2  1  0  0  0  0
  8  7  2  0  0  0  0
  9  5  1  0  0  0  0
 10  1  1  0  0  0  0
 13  3  1  0  0  0  0
 17  9  1  0  0  0  0
 18 19  1  0  0  0  0
 19 20  2  0  0  0  0
 19 21  1  0  0  0  0
 21 22  1  0  0  0  0
 22 23  1  0  0  0  0
 22 32  1  0  0  0  0
 22 31  1  0  0  0  0
 23 33  1  6  0  0  0
 23 24  1  0  0  0  0
 24 34  1  0  0  0  0
 24  7  1  0  0  0  0
 25 23  1  0  0  0  0
 25 26  2  0  0  0  0
 27 18  1  0  0  0  0
 28 18  1  0  0  0  0
 29 21  1  0  0  0  0
 30 21  1  0  0  0  0
 35 36  1  0  0  0  0
 36 37  1  0  0  0  0
 37 49  1  0  0  0  0
 37 38  2  0  0  0  0
 38 50  1  0  0  0  0
 39 38  1  0  0  0  0
 39 40  1  0  0  0  0
 40 41  1  0  0  0  0
 40 51  1  0  0  0  0
 41 42  1  0  0  0  0
 41 53  1  1  0  0  0
 42 25  1  0  0  0  0
 43 41  1  0  0  0  0
 44 43  2  0  0  0  0
 45 39  2  0  0  0  0
 46 36  2  0  0  0  0
 46 45  1  0  0  0  0
 47 43  1  0  0  0  0
 48 35  1  0  0  0  0
 52 40  1  0  0  0  0
 54 42  1  0  0  0  0
 55 45  1  0  0  0  0
 56 46  1  0  0  0  0
M  END
$$$$
