ERC.pdb
 OpenBabel07022418173D

 52 51  0  0  1  0  0  0  0  0999 V2000
    0.6030   -3.7690    3.6970 N   0  0  0  0  0  0  0  0  0  0  0  0
    0.9790   -2.8120    2.6020 C   0  0  1  0  0  0  0  0  0  0  0  0
    1.3560   -3.6790    1.4740 C   0  0  0  0  0  0  0  0  0  0  0  0
    1.8210   -3.0560    0.2090 C   0  0  0  0  0  0  0  0  0  0  0  0
    3.0340   -2.2180    0.3590 C   0  0  0  0  0  0  0  0  0  0  0  0
    3.5930   -2.1170    1.4710 O   0  0  0  0  0  0  0  0  0  0  0  0
   -0.2030   -1.9720    2.4190 C   0  0  0  0  0  0  0  0  0  0  0  0
   -1.2700   -2.1710    3.1060 O   0  0  0  0  0  0  0  0  0  0  0  0
    3.5520   -1.5440   -0.7340 O   0  0  0  0  0  0  0  0  0  0  0  0
    1.4310   -4.3820    3.8120 H   0  0  0  0  0  0  0  0  0  0  0  0
    0.2990   -3.2600    4.5310 H   0  0  0  0  0  0  0  0  0  0  0  0
    1.8650   -2.2370    2.9720 H   0  0  0  0  0  0  0  0  0  0  0  0
    2.1870   -4.3720    1.8270 H   0  0  0  0  0  0  0  0  0  0  0  0
    0.5340   -4.4310    1.2420 H   0  0  0  0  0  0  0  0  0  0  0  0
    2.1390   -3.9070   -0.5020 H   0  0  0  0  0  0  0  0  0  0  0  0
    1.1070   -2.4970   -0.3800 H   0  0  0  0  0  0  0  0  0  0  0  0
    4.3500   -0.9060   -0.6150 H   0  0  0  0  0  0  0  0  0  0  0  0
    2.5950    3.3630   -0.0740 N   0  0  0  0  0  0  0  0  0  0  0  0
    1.8310    3.4230    1.1230 C   0  0  0  0  0  0  0  0  0  0  0  0
    2.4200    3.1920    2.2630 N   0  0  0  0  0  0  0  0  0  0  0  0
    0.4600    3.7210    1.1650 N   0  0  0  0  0  0  0  0  0  0  0  0
   -0.3220    3.4080    2.3410 C   0  0  0  0  0  0  0  0  0  0  0  0
   -0.4880    1.9170    2.5620 C   0  0  0  0  0  0  0  0  0  0  0  0
   -1.1820    1.3640    1.3520 C   0  0  0  0  0  0  0  0  0  0  0  0
   -1.4410   -0.1040    1.3890 C   0  0  2  0  0  0  0  0  0  0  0  0
   -0.2460   -0.9170    1.5090 N   0  0  0  0  0  0  0  0  0  0  0  0
   -2.2610   -0.4480    0.1980 C   0  0  0  0  0  0  0  0  0  0  0  0
   -3.3020    0.2450   -0.0850 O   0  0  0  0  0  0  0  0  0  0  0  0
    2.4850    4.0260   -0.8580 H   0  0  0  0  0  0  0  0  0  0  0  0
    3.3040    2.6090   -0.1650 H   0  0  0  0  0  0  0  0  0  0  0  0
    3.4240    2.9680    2.3120 H   0  0  0  0  0  0  0  0  0  0  0  0
    0.0160    4.1690    0.3390 H   0  0  0  0  0  0  0  0  0  0  0  0
   -1.3210    3.9260    2.2640 H   0  0  0  0  0  0  0  0  0  0  0  0
    0.1570    3.8910    3.2370 H   0  0  0  0  0  0  0  0  0  0  0  0
   -1.0340    1.7840    3.4970 H   0  0  0  0  0  0  0  0  0  0  0  0
    0.5370    1.5130    2.6980 H   0  0  0  0  0  0  0  0  0  0  0  0
   -2.1820    1.8620    1.3020 H   0  0  0  0  0  0  0  0  0  0  0  0
   -0.6300    1.6970    0.4680 H   0  0  0  0  0  0  0  0  0  0  0  0
   -2.1190   -0.3300    2.2580 H   0  0  0  0  0  0  0  0  0  0  0  0
    0.5480   -0.6440    0.8890 H   0  0  0  0  0  0  0  0  0  0  0  0
   -1.9980   -1.5140   -0.6940 N   0  0  0  0  0  0  0  0  0  0  0  0
   -2.8540   -1.7910   -1.8510 C   0  0  1  0  0  0  0  0  0  0  0  0
   -1.9250   -1.6910   -3.0650 C   0  0  0  0  0  0  0  0  0  0  0  0
   -2.8190   -2.0070   -4.6080 S   0  0  0  0  0  0  0  0  0  0  0  0
   -3.2830   -3.2010   -1.7670 C   0  0  0  0  0  0  0  0  0  0  0  0
   -4.0360   -3.7240   -2.6400 O   0  0  0  0  0  0  0  0  0  0  0  0
   -2.8490   -3.9730   -0.7000 O   0  0  0  0  0  0  0  0  0  0  0  0
   -1.1670   -2.0970   -0.4830 H   0  0  0  0  0  0  0  0  0  0  0  0
   -3.6760   -1.0840   -1.9290 H   0  0  0  0  0  0  0  0  0  0  0  0
   -1.4750   -0.6790   -3.1350 H   0  0  0  0  0  0  0  0  0  0  0  0
   -1.1060   -2.4130   -2.9870 H   0  0  0  0  0  0  0  0  0  0  0  0
   -2.5270   -3.3030   -5.1180 H   0  0  0  0  0  0  0  0  0  0  0  0
  1 10  1  0  0  0  0
  1 11  1  0  0  0  0
  2 12  1  1  0  0  0
  2  1  1  0  0  0  0
  3 13  1  0  0  0  0
  3  2  1  0  0  0  0
  4  5  1  0  0  0  0
  4  3  1  0  0  0  0
  5  6  2  0  0  0  0
  7  2  1  0  0  0  0
  7  8  2  0  0  0  0
  9 17  1  0  0  0  0
  9  5  1  0  0  0  0
 14  3  1  0  0  0  0
 15  4  1  0  0  0  0
 16  4  1  0  0  0  0
 18 19  1  0  0  0  0
 19 21  1  0  0  0  0
 19 20  2  0  0  0  0
 20 31  1  0  0  0  0
 21 22  1  0  0  0  0
 22 23  1  0  0  0  0
 22 34  1  0  0  0  0
 23 36  1  0  0  0  0
 23 35  1  0  0  0  0
 24 25  1  0  0  0  0
 24 23  1  0  0  0  0
 25 26  1  0  0  0  0
 25 39  1  1  0  0  0
 26  7  1  0  0  0  0
 27 25  1  0  0  0  0
 28 27  2  0  0  0  0
 29 18  1  0  0  0  0
 30 18  1  0  0  0  0
 32 21  1  0  0  0  0
 33 22  1  0  0  0  0
 37 24  1  0  0  0  0
 38 24  1  0  0  0  0
 40 26  1  0  0  0  0
 41 48  1  0  0  0  0
 41 27  1  0  0  0  0
 42 49  1  6  0  0  0
 42 45  1  0  0  0  0
 42 41  1  0  0  0  0
 43 51  1  0  0  0  0
 43 42  1  0  0  0  0
 44 43  1  0  0  0  0
 45 47  1  0  0  0  0
 46 45  2  0  0  0  0
 50 43  1  0  0  0  0
 52 44  1  0  0  0  0
M  END
$$$$
