ERL.pdb
 OpenBabel07022418173D

 60 59  0  0  1  0  0  0  0  0999 V2000
    2.0410   -0.0870   -0.0180 N   0  0  0  0  0  0  0  0  0  0  0  0
    2.0190   -1.1340    1.0270 C   0  0  1  0  0  0  0  0  0  0  0  0
    2.9170   -0.6720    2.1350 C   0  0  0  0  0  0  0  0  0  0  0  0
    3.0000   -1.6890    3.2300 C   0  0  0  0  0  0  0  0  0  0  0  0
    3.9340   -1.1540    4.2830 C   0  0  0  0  0  0  0  0  0  0  0  0
    4.2010   -1.8810    5.2500 O   0  0  0  0  0  0  0  0  0  0  0  0
    0.6330   -1.2470    1.5010 C   0  0  0  0  0  0  0  0  0  0  0  0
    0.2750   -1.9800    2.4440 O   0  0  0  0  0  0  0  0  0  0  0  0
    4.4480    0.0990    4.1390 O   0  0  0  0  0  0  0  0  0  0  0  0
    2.9220    0.4380    0.0600 H   0  0  0  0  0  0  0  0  0  0  0  0
    1.8830   -0.5230   -0.9530 H   0  0  0  0  0  0  0  0  0  0  0  0
    2.4110   -2.0510    0.5670 H   0  0  0  0  0  0  0  0  0  0  0  0
    2.4880    0.2550    2.6330 H   0  0  0  0  0  0  0  0  0  0  0  0
    3.9410   -0.4170    1.7550 H   0  0  0  0  0  0  0  0  0  0  0  0
    2.0450   -1.9260    3.6940 H   0  0  0  0  0  0  0  0  0  0  0  0
    3.4620   -2.6120    2.7800 H   0  0  0  0  0  0  0  0  0  0  0  0
    5.0930    0.5130    4.8210 H   0  0  0  0  0  0  0  0  0  0  0  0
    2.4850    2.9510    2.1730 N   0  0  0  0  0  0  0  0  0  0  0  0
    1.2760    2.9130    1.4450 C   0  0  0  0  0  0  0  0  0  0  0  0
    1.1810    3.5270    0.3240 N   0  0  0  0  0  0  0  0  0  0  0  0
    0.1200    2.1960    1.9240 N   0  0  0  0  0  0  0  0  0  0  0  0
   -1.1730    2.6600    1.5380 C   0  0  0  0  0  0  0  0  0  0  0  0
   -2.3630    1.8550    1.8590 C   0  0  0  0  0  0  0  0  0  0  0  0
   -2.6040    0.5490    1.2300 C   0  0  0  0  0  0  0  0  0  0  0  0
   -1.7340   -0.6080    1.3500 C   0  0  2  0  0  0  0  0  0  0  0  0
   -0.4010   -0.4760    0.8550 N   0  0  0  0  0  0  0  0  0  0  0  0
   -2.3300   -1.8110    0.6310 C   0  0  0  0  0  0  0  0  0  0  0  0
   -3.5470   -2.1290    0.8720 O   0  0  0  0  0  0  0  0  0  0  0  0
    3.3780    3.1320    1.6450 H   0  0  0  0  0  0  0  0  0  0  0  0
    2.5380    2.8090    3.2030 H   0  0  0  0  0  0  0  0  0  0  0  0
    1.9620    4.0640   -0.0900 H   0  0  0  0  0  0  0  0  0  0  0  0
    0.2520    1.3960    2.5550 H   0  0  0  0  0  0  0  0  0  0  0  0
   -1.1760    2.9390    0.4230 H   0  0  0  0  0  0  0  0  0  0  0  0
   -1.2880    3.6740    2.0480 H   0  0  0  0  0  0  0  0  0  0  0  0
   -3.2670    2.5530    1.6630 H   0  0  0  0  0  0  0  0  0  0  0  0
   -2.4590    1.7650    3.0020 H   0  0  0  0  0  0  0  0  0  0  0  0
   -2.7380    0.7830    0.0940 H   0  0  0  0  0  0  0  0  0  0  0  0
   -3.6870    0.2690    1.5240 H   0  0  0  0  0  0  0  0  0  0  0  0
   -1.7160   -0.9910    2.4350 H   0  0  0  0  0  0  0  0  0  0  0  0
   -0.1800    0.1500    0.0560 H   0  0  0  0  0  0  0  0  0  0  0  0
   -1.8290   -1.2210   -2.8570 C   0  0  0  0  0  0  0  0  0  0  0  0
   -2.3250   -2.5870   -3.2560 C   0  0  0  0  0  0  0  0  0  0  0  0
   -1.9510   -2.7640   -4.7390 C   0  0  0  0  0  0  0  0  0  0  0  0
   -1.7630   -3.6960   -2.4510 C   0  0  0  0  0  0  0  0  0  0  0  0
   -2.0340   -3.6850   -0.9830 C   0  0  2  0  0  0  0  0  0  0  0  0
   -1.5260   -2.5310   -0.2690 N   0  0  0  0  0  0  0  0  0  0  0  0
   -1.3140   -4.8910   -0.4220 C   0  0  0  0  0  0  0  0  0  0  0  0
   -1.5950   -6.0180   -0.8890 O   0  0  0  0  0  0  0  0  0  0  0  0
   -0.3710   -4.7990    0.5760 O   0  0  0  0  0  0  0  0  0  0  0  0
   -1.8400   -0.5210   -3.7400 H   0  0  0  0  0  0  0  0  0  0  0  0
   -0.7620   -1.2720   -2.5580 H   0  0  0  0  0  0  0  0  0  0  0  0
   -2.4040   -0.7720   -2.0410 H   0  0  0  0  0  0  0  0  0  0  0  0
   -3.4540   -2.6120   -3.2690 H   0  0  0  0  0  0  0  0  0  0  0  0
   -0.8680   -2.5580   -4.8050 H   0  0  0  0  0  0  0  0  0  0  0  0
   -2.5270   -2.0310   -5.3220 H   0  0  0  0  0  0  0  0  0  0  0  0
   -2.1430   -3.7850   -5.0860 H   0  0  0  0  0  0  0  0  0  0  0  0
   -2.1130   -4.6690   -2.9190 H   0  0  0  0  0  0  0  0  0  0  0  0
   -0.6430   -3.7420   -2.6520 H   0  0  0  0  0  0  0  0  0  0  0  0
   -3.1320   -3.8000   -0.7720 H   0  0  0  0  0  0  0  0  0  0  0  0
   -0.5300   -2.2240   -0.4200 H   0  0  0  0  0  0  0  0  0  0  0  0
  1 10  1  0  0  0  0
  1  2  1  0  0  0  0
  2 12  1  6  0  0  0
  2  7  1  0  0  0  0
  2  3  1  0  0  0  0
  3 13  1  0  0  0  0
  3  4  1  0  0  0  0
  4 15  1  0  0  0  0
  4  5  1  0  0  0  0
  5  6  2  0  0  0  0
  7  8  2  0  0  0  0
  9  5  1  0  0  0  0
  9 17  1  0  0  0  0
 11  1  1  0  0  0  0
 14  3  1  0  0  0  0
 16  4  1  0  0  0  0
 18 30  1  0  0  0  0
 19 21  1  0  0  0  0
 19 18  1  0  0  0  0
 20 19  2  0  0  0  0
 21 32  1  0  0  0  0
 22 23  1  0  0  0  0
 22 21  1  0  0  0  0
 22 34  1  0  0  0  0
 23 36  1  0  0  0  0
 24 25  1  0  0  0  0
 24 38  1  0  0  0  0
 24 23  1  0  0  0  0
 25 39  1  1  0  0  0
 26 25  1  0  0  0  0
 26  7  1  0  0  0  0
 27 28  2  0  0  0  0
 27 25  1  0  0  0  0
 29 18  1  0  0  0  0
 31 20  1  0  0  0  0
 33 22  1  0  0  0  0
 35 23  1  0  0  0  0
 37 24  1  0  0  0  0
 40 26  1  0  0  0  0
 41 51  1  0  0  0  0
 41 52  1  0  0  0  0
 42 41  1  0  0  0  0
 42 44  1  0  0  0  0
 43 42  1  0  0  0  0
 44 45  1  0  0  0  0
 45 59  1  1  0  0  0
 45 47  1  0  0  0  0
 45 46  1  0  0  0  0
 46 27  1  0  0  0  0
 47 49  1  0  0  0  0
 48 47  2  0  0  0  0
 50 41  1  0  0  0  0
 53 42  1  0  0  0  0
 54 43  1  0  0  0  0
 55 43  1  0  0  0  0
 56 43  1  0  0  0  0
 57 44  1  0  0  0  0
 58 44  1  0  0  0  0
 60 46  1  0  0  0  0
M  END
$$$$
