ERM.pdb
 OpenBabel07022418173D

 58 57  0  0  1  0  0  0  0  0999 V2000
    0.2240   -2.1330    0.8080 N   0  0  0  0  0  0  0  0  0  0  0  0
   -0.0650   -1.6540   -0.5350 C   0  0  1  0  0  0  0  0  0  0  0  0
   -0.8460   -2.6900   -1.2650 C   0  0  0  0  0  0  0  0  0  0  0  0
   -0.1210   -3.9990   -1.3960 C   0  0  0  0  0  0  0  0  0  0  0  0
    0.2500   -4.6280   -0.1090 C   0  0  0  0  0  0  0  0  0  0  0  0
    1.3880   -4.4640    0.4450 O   0  0  0  0  0  0  0  0  0  0  0  0
   -0.6430   -0.3160   -0.4620 C   0  0  0  0  0  0  0  0  0  0  0  0
   -0.7340    0.2430    0.6830 O   0  0  0  0  0  0  0  0  0  0  0  0
   -0.6540   -5.4530    0.5830 O   0  0  0  0  0  0  0  0  0  0  0  0
    1.1610   -1.8140    1.1400 H   0  0  0  0  0  0  0  0  0  0  0  0
   -0.5380   -1.8990    1.4820 H   0  0  0  0  0  0  0  0  0  0  0  0
    0.9510   -1.6230   -1.0330 H   0  0  0  0  0  0  0  0  0  0  0  0
   -1.0460   -2.3670   -2.3310 H   0  0  0  0  0  0  0  0  0  0  0  0
   -1.8260   -2.9170   -0.7790 H   0  0  0  0  0  0  0  0  0  0  0  0
    0.8210   -3.8880   -2.0020 H   0  0  0  0  0  0  0  0  0  0  0  0
   -0.7760   -4.7620   -1.9130 H   0  0  0  0  0  0  0  0  0  0  0  0
   -0.5880   -5.3890    1.6060 H   0  0  0  0  0  0  0  0  0  0  0  0
   -2.9170   -0.8870   -4.6700 N   0  0  0  0  0  0  0  0  0  0  0  0
   -3.8250   -0.2470   -3.7840 C   0  0  0  0  0  0  0  0  0  0  0  0
   -4.6880    0.5850   -4.2040 N   0  0  0  0  0  0  0  0  0  0  0  0
   -3.7660   -0.5440   -2.3910 N   0  0  0  0  0  0  0  0  0  0  0  0
   -4.5120    0.1670   -1.4150 C   0  0  0  0  0  0  0  0  0  0  0  0
   -4.1880    1.5730   -1.1610 C   0  0  0  0  0  0  0  0  0  0  0  0
   -2.8960    2.0130   -0.6520 C   0  0  0  0  0  0  0  0  0  0  0  0
   -1.6320    1.7850   -1.3340 C   0  0  2  0  0  0  0  0  0  0  0  0
   -1.1300    0.4690   -1.5630 N   0  0  0  0  0  0  0  0  0  0  0  0
   -0.5230    2.6710   -0.7880 C   0  0  0  0  0  0  0  0  0  0  0  0
   -0.8650    3.8060   -0.4140 O   0  0  0  0  0  0  0  0  0  0  0  0
   -2.4890   -1.8330   -4.4640 H   0  0  0  0  0  0  0  0  0  0  0  0
   -2.6070   -0.4740   -5.5840 H   0  0  0  0  0  0  0  0  0  0  0  0
   -4.7540    0.8240   -5.2220 H   0  0  0  0  0  0  0  0  0  0  0  0
   -3.1500   -1.3350   -2.1250 H   0  0  0  0  0  0  0  0  0  0  0  0
   -5.6200    0.0900   -1.6690 H   0  0  0  0  0  0  0  0  0  0  0  0
   -4.4530   -0.3810   -0.4400 H   0  0  0  0  0  0  0  0  0  0  0  0
   -4.4990    2.2410   -2.0440 H   0  0  0  0  0  0  0  0  0  0  0  0
   -4.9690    1.9260   -0.3870 H   0  0  0  0  0  0  0  0  0  0  0  0
   -2.8020    1.7100    0.4600 H   0  0  0  0  0  0  0  0  0  0  0  0
   -2.9870    3.1580   -0.5120 H   0  0  0  0  0  0  0  0  0  0  0  0
   -1.7400    2.2610   -2.3930 H   0  0  0  0  0  0  0  0  0  0  0  0
   -1.0790    0.0210   -2.5000 H   0  0  0  0  0  0  0  0  0  0  0  0
    2.5280    0.1100    3.5070 C   0  0  0  0  0  0  0  0  0  0  0  0
    3.8160    0.4580    2.2840 S   0  0  0  0  0  0  0  0  0  0  0  0
    3.1080    1.1030    0.7420 C   0  0  0  0  0  0  0  0  0  0  0  0
    2.5060    2.4530    1.0500 C   0  0  0  0  0  0  0  0  0  0  0  0
    1.8820    3.0890   -0.1730 C   0  0  2  0  0  0  0  0  0  0  0  0
    0.8130    2.2400   -0.7070 N   0  0  0  0  0  0  0  0  0  0  0  0
    2.8840    3.3650   -1.2270 C   0  0  0  0  0  0  0  0  0  0  0  0
    3.8980    4.0650   -1.0250 O   0  0  0  0  0  0  0  0  0  0  0  0
    2.6920    2.8270   -2.4830 O   0  0  0  0  0  0  0  0  0  0  0  0
    1.6320    0.7080    3.3220 H   0  0  0  0  0  0  0  0  0  0  0  0
    2.3350   -0.9930    3.4870 H   0  0  0  0  0  0  0  0  0  0  0  0
    2.9350    0.4360    4.5080 H   0  0  0  0  0  0  0  0  0  0  0  0
    2.3960    0.4070    0.2910 H   0  0  0  0  0  0  0  0  0  0  0  0
    3.9880    1.3080    0.0670 H   0  0  0  0  0  0  0  0  0  0  0  0
    1.7190    2.4090    1.8280 H   0  0  0  0  0  0  0  0  0  0  0  0
    3.3240    3.1100    1.4080 H   0  0  0  0  0  0  0  0  0  0  0  0
    1.4810    4.0700    0.1530 H   0  0  0  0  0  0  0  0  0  0  0  0
    1.0580    1.2920   -1.0490 H   0  0  0  0  0  0  0  0  0  0  0  0
  1 10  1  0  0  0  0
  1 11  1  0  0  0  0
  2 12  1  6  0  0  0
  2  7  1  0  0  0  0
  2  1  1  0  0  0  0
  3 14  1  0  0  0  0
  3  2  1  0  0  0  0
  4  3  1  0  0  0  0
  4  5  1  0  0  0  0
  5  6  2  0  0  0  0
  5  9  1  0  0  0  0
  7  8  2  0  0  0  0
  9 17  1  0  0  0  0
 13  3  1  0  0  0  0
 15  4  1  0  0  0  0
 16  4  1  0  0  0  0
 18 29  1  0  0  0  0
 18 19  1  0  0  0  0
 19 21  1  0  0  0  0
 20 19  2  0  0  0  0
 21 32  1  0  0  0  0
 21 22  1  0  0  0  0
 22 23  1  0  0  0  0
 22 34  1  0  0  0  0
 23 24  1  0  0  0  0
 23 36  1  0  0  0  0
 24 38  1  0  0  0  0
 24 37  1  0  0  0  0
 25 39  1  6  0  0  0
 25 27  1  0  0  0  0
 25 24  1  0  0  0  0
 26 25  1  0  0  0  0
 26  7  1  0  0  0  0
 27 46  1  0  0  0  0
 27 28  2  0  0  0  0
 30 18  1  0  0  0  0
 31 20  1  0  0  0  0
 33 22  1  0  0  0  0
 35 23  1  0  0  0  0
 40 26  1  0  0  0  0
 41 52  1  0  0  0  0
 42 41  1  0  0  0  0
 43 44  1  0  0  0  0
 43 42  1  0  0  0  0
 44 56  1  0  0  0  0
 44 55  1  0  0  0  0
 45 57  1  1  0  0  0
 45 44  1  0  0  0  0
 46 45  1  0  0  0  0
 47 48  1  0  0  0  0
 47 45  1  0  0  0  0
 49 47  2  0  0  0  0
 50 41  1  0  0  0  0
 51 41  1  0  0  0  0
 53 43  1  0  0  0  0
 54 43  1  0  0  0  0
 58 46  1  0  0  0  0
M  END
$$$$
