ERS.pdb
 OpenBabel07022418173D

 52 51  0  0  1  0  0  0  0  0999 V2000
    1.6220   -3.6810    3.3420 N   0  0  0  0  0  0  0  0  0  0  0  0
    1.4120   -2.7420    2.2710 C   0  0  1  0  0  0  0  0  0  0  0  0
    1.3630   -3.3970    0.9320 C   0  0  0  0  0  0  0  0  0  0  0  0
    2.6200   -4.1520    0.5600 C   0  0  0  0  0  0  0  0  0  0  0  0
    3.7490   -3.1970    0.5510 C   0  0  0  0  0  0  0  0  0  0  0  0
    4.3330   -2.9400    1.6290 O   0  0  0  0  0  0  0  0  0  0  0  0
    0.2280   -1.9010    2.4550 C   0  0  0  0  0  0  0  0  0  0  0  0
   -0.4820   -2.0590    3.5070 O   0  0  0  0  0  0  0  0  0  0  0  0
    4.1620   -2.5910   -0.6210 O   0  0  0  0  0  0  0  0  0  0  0  0
    2.6070   -3.8650    3.5670 H   0  0  0  0  0  0  0  0  0  0  0  0
    0.9970   -4.5050    3.3180 H   0  0  0  0  0  0  0  0  0  0  0  0
    2.2940   -2.0390    2.2750 H   0  0  0  0  0  0  0  0  0  0  0  0
    1.1090   -2.6300    0.1660 H   0  0  0  0  0  0  0  0  0  0  0  0
    0.4900   -4.1080    0.9310 H   0  0  0  0  0  0  0  0  0  0  0  0
    2.7920   -5.0300    1.1790 H   0  0  0  0  0  0  0  0  0  0  0  0
    2.4640   -4.4800   -0.5090 H   0  0  0  0  0  0  0  0  0  0  0  0
    4.8780   -1.8500   -0.6420 H   0  0  0  0  0  0  0  0  0  0  0  0
    0.7490    3.5060   -1.0670 N   0  0  0  0  0  0  0  0  0  0  0  0
    0.1900    3.8370    0.1950 C   0  0  0  0  0  0  0  0  0  0  0  0
   -1.0500    4.2630    0.2160 N   0  0  0  0  0  0  0  0  0  0  0  0
    0.9270    3.7220    1.4050 N   0  0  0  0  0  0  0  0  0  0  0  0
    0.3430    3.2460    2.6170 C   0  0  0  0  0  0  0  0  0  0  0  0
   -0.0050    1.7940    2.6730 C   0  0  0  0  0  0  0  0  0  0  0  0
   -0.9850    1.3960    1.6320 C   0  0  0  0  0  0  0  0  0  0  0  0
   -1.3490   -0.0840    1.7170 C   0  0  2  0  0  0  0  0  0  0  0  0
   -0.1870   -0.9210    1.5450 N   0  0  0  0  0  0  0  0  0  0  0  0
   -2.3000   -0.3610    0.6260 C   0  0  0  0  0  0  0  0  0  0  0  0
   -3.3820    0.2540    0.5680 O   0  0  0  0  0  0  0  0  0  0  0  0
    1.4370    4.1500   -1.5360 H   0  0  0  0  0  0  0  0  0  0  0  0
    0.5150    2.6340   -1.5850 H   0  0  0  0  0  0  0  0  0  0  0  0
   -1.5180    4.5200    1.0910 H   0  0  0  0  0  0  0  0  0  0  0  0
    1.9500    4.0080    1.3720 H   0  0  0  0  0  0  0  0  0  0  0  0
   -0.5560    3.8840    2.8860 H   0  0  0  0  0  0  0  0  0  0  0  0
    1.0430    3.4530    3.4830 H   0  0  0  0  0  0  0  0  0  0  0  0
    0.8930    1.1370    2.7070 H   0  0  0  0  0  0  0  0  0  0  0  0
   -0.5050    1.6080    3.6700 H   0  0  0  0  0  0  0  0  0  0  0  0
   -1.8750    2.0400    1.6820 H   0  0  0  0  0  0  0  0  0  0  0  0
   -0.5160    1.5770    0.6240 H   0  0  0  0  0  0  0  0  0  0  0  0
   -1.8350   -0.3140    2.6880 H   0  0  0  0  0  0  0  0  0  0  0  0
    0.4150   -0.8010    0.6740 H   0  0  0  0  0  0  0  0  0  0  0  0
   -2.9860   -1.7510   -3.8020 O   0  0  0  0  0  0  0  0  0  0  0  0
   -2.1340   -1.4270   -2.7730 C   0  0  0  0  0  0  0  0  0  0  0  0
   -2.8610   -1.6570   -1.4590 C   0  0  2  0  0  0  0  0  0  0  0  0
   -1.9860   -1.3220   -0.3540 N   0  0  0  0  0  0  0  0  0  0  0  0
   -3.1540   -3.1170   -1.3840 C   0  0  0  0  0  0  0  0  0  0  0  0
   -3.9030   -3.6560   -2.2420 O   0  0  0  0  0  0  0  0  0  0  0  0
   -2.6360   -3.9470   -0.3970 O   0  0  0  0  0  0  0  0  0  0  0  0
   -2.7590   -1.3030   -4.6620 H   0  0  0  0  0  0  0  0  0  0  0  0
   -1.8750   -0.3500   -2.8640 H   0  0  0  0  0  0  0  0  0  0  0  0
   -1.2520   -2.0900   -2.8410 H   0  0  0  0  0  0  0  0  0  0  0  0
   -3.7980   -1.0770   -1.4470 H   0  0  0  0  0  0  0  0  0  0  0  0
   -1.0880   -1.8340   -0.3090 H   0  0  0  0  0  0  0  0  0  0  0  0
  1 10  1  0  0  0  0
  2 12  1  6  0  0  0
  2  7  1  0  0  0  0
  2  1  1  0  0  0  0
  3  2  1  0  0  0  0
  4  3  1  0  0  0  0
  4 15  1  0  0  0  0
  5  4  1  0  0  0  0
  5  6  2  0  0  0  0
  7  8  2  0  0  0  0
  9  5  1  0  0  0  0
 11  1  1  0  0  0  0
 13  3  1  0  0  0  0
 14  3  1  0  0  0  0
 16  4  1  0  0  0  0
 17  9  1  0  0  0  0
 18 19  1  0  0  0  0
 19 20  2  0  0  0  0
 19 21  1  0  0  0  0
 20 31  1  0  0  0  0
 21 22  1  0  0  0  0
 22 23  1  0  0  0  0
 22 33  1  0  0  0  0
 22 34  1  0  0  0  0
 23 35  1  0  0  0  0
 23 36  1  0  0  0  0
 24 37  1  0  0  0  0
 24 25  1  0  0  0  0
 24 23  1  0  0  0  0
 25 39  1  1  0  0  0
 26 25  1  0  0  0  0
 26  7  1  0  0  0  0
 27 25  1  0  0  0  0
 28 27  2  0  0  0  0
 29 18  1  0  0  0  0
 30 18  1  0  0  0  0
 32 21  1  0  0  0  0
 38 24  1  0  0  0  0
 40 26  1  0  0  0  0
 41 42  1  0  0  0  0
 42 43  1  0  0  0  0
 43 51  1  1  0  0  0
 43 45  1  0  0  0  0
 43 44  1  0  0  0  0
 44 52  1  0  0  0  0
 44 27  1  0  0  0  0
 45 47  1  0  0  0  0
 46 45  2  0  0  0  0
 48 41  1  0  0  0  0
 49 42  1  0  0  0  0
 50 42  1  0  0  0  0
M  END
$$$$
