ESD.pdb
 OpenBabel07022418203D

 42 41  0  0  1  0  0  0  0  0999 V2000
    0.5000   -2.8880    1.4630 N   0  0  0  0  0  0  0  0  0  0  0  0
    1.7040   -2.1810    1.9340 C   0  0  1  0  0  0  0  0  0  0  0  0
    2.9060   -3.0370    1.7630 C   0  0  0  0  0  0  0  0  0  0  0  0
    4.1850   -2.4340    2.2050 C   0  0  0  0  0  0  0  0  0  0  0  0
    5.3490   -3.3690    2.0030 C   0  0  0  0  0  0  0  0  0  0  0  0
    5.1840   -4.5140    1.5130 O   0  0  0  0  0  0  0  0  0  0  0  0
    1.7270   -0.8970    1.2210 C   0  0  0  0  0  0  0  0  0  0  0  0
    2.6390   -0.0620    1.4490 O   0  0  0  0  0  0  0  0  0  0  0  0
    6.6390   -3.0010    2.3500 O   0  0  0  0  0  0  0  0  0  0  0  0
   -0.3090   -2.4590    1.9600 H   0  0  0  0  0  0  0  0  0  0  0  0
    0.6190   -3.8770    1.8060 H   0  0  0  0  0  0  0  0  0  0  0  0
    1.5280   -2.0130    3.0280 H   0  0  0  0  0  0  0  0  0  0  0  0
    2.9530   -3.3170    0.6690 H   0  0  0  0  0  0  0  0  0  0  0  0
    2.7800   -4.0070    2.2870 H   0  0  0  0  0  0  0  0  0  0  0  0
    4.4160   -1.5420    1.5510 H   0  0  0  0  0  0  0  0  0  0  0  0
    4.2160   -2.0940    3.2360 H   0  0  0  0  0  0  0  0  0  0  0  0
    7.2880   -3.6770    2.7740 H   0  0  0  0  0  0  0  0  0  0  0  0
    1.9830   -0.0860   -2.3470 O   0  0  0  0  0  0  0  0  0  0  0  0
    0.9080    0.6600   -1.8900 C   0  0  0  0  0  0  0  0  0  0  0  0
    0.8650    0.7580   -0.3850 C   0  0  2  0  0  0  0  0  0  0  0  0
    0.7570   -0.5170    0.2560 N   0  0  0  0  0  0  0  0  0  0  0  0
   -0.3750    1.5300   -0.0380 C   0  0  0  0  0  0  0  0  0  0  0  0
   -0.5020    2.6940   -0.4980 O   0  0  0  0  0  0  0  0  0  0  0  0
    2.1720    0.1440   -3.2930 H   0  0  0  0  0  0  0  0  0  0  0  0
   -0.0700    0.2800   -2.2980 H   0  0  0  0  0  0  0  0  0  0  0  0
    1.0210    1.6800   -2.3120 H   0  0  0  0  0  0  0  0  0  0  0  0
    1.7260    1.3540   -0.0600 H   0  0  0  0  0  0  0  0  0  0  0  0
   -0.0290   -1.1540    0.0120 H   0  0  0  0  0  0  0  0  0  0  0  0
   -1.3930    1.0070    0.7740 N   0  0  0  0  0  0  0  0  0  0  0  0
   -2.6090    1.7070    1.1390 C   0  0  1  0  0  0  0  0  0  0  0  0
   -3.7980    0.8800    0.7090 C   0  0  0  0  0  0  0  0  0  0  0  0
   -3.8420    0.6300   -0.7340 C   0  0  0  0  0  0  0  0  0  0  0  0
   -2.9480    1.0870   -1.4850 O   0  0  0  0  0  0  0  0  0  0  0  0
   -2.6700    1.8130    2.6280 C   0  0  0  0  0  0  0  0  0  0  0  0
   -3.6690    2.3960    3.1180 O   0  0  0  0  0  0  0  0  0  0  0  0
   -4.8520   -0.1080   -1.3300 O   0  0  0  0  0  0  0  0  0  0  0  0
   -1.7150    1.3170    3.4820 O   0  0  0  0  0  0  0  0  0  0  0  0
   -1.2830    0.0420    1.1530 H   0  0  0  0  0  0  0  0  0  0  0  0
   -2.6560    2.6960    0.6640 H   0  0  0  0  0  0  0  0  0  0  0  0
   -3.7790   -0.1210    1.2160 H   0  0  0  0  0  0  0  0  0  0  0  0
   -4.7480    1.3540    1.0770 H   0  0  0  0  0  0  0  0  0  0  0  0
   -4.9610   -0.1600   -2.3520 H   0  0  0  0  0  0  0  0  0  0  0  0
  1 11  1  0  0  0  0
  1  2  1  0  0  0  0
  1 10  1  0  0  0  0
  2 12  1  1  0  0  0
  3  2  1  0  0  0  0
  3  4  1  0  0  0  0
  3 14  1  0  0  0  0
  4 16  1  0  0  0  0
  5  4  1  0  0  0  0
  5  9  1  0  0  0  0
  6  5  2  0  0  0  0
  7  8  2  0  0  0  0
  7  2  1  0  0  0  0
  9 17  1  0  0  0  0
 13  3  1  0  0  0  0
 15  4  1  0  0  0  0
 18 19  1  0  0  0  0
 19 20  1  0  0  0  0
 20 27  1  1  0  0  0
 20 22  1  0  0  0  0
 20 21  1  0  0  0  0
 21  7  1  0  0  0  0
 22 29  1  0  0  0  0
 23 22  2  0  0  0  0
 24 18  1  0  0  0  0
 25 19  1  0  0  0  0
 26 19  1  0  0  0  0
 28 21  1  0  0  0  0
 29 30  1  0  0  0  0
 29 38  1  0  0  0  0
 30 39  1  6  0  0  0
 30 34  1  0  0  0  0
 31 41  1  0  0  0  0
 31 30  1  0  0  0  0
 31 40  1  0  0  0  0
 32 31  1  0  0  0  0
 33 32  2  0  0  0  0
 34 35  2  0  0  0  0
 34 37  1  0  0  0  0
 36 32  1  0  0  0  0
 42 36  1  0  0  0  0
M  END
$$$$
