ESG.pdb
 OpenBabel07022418203D

 36 35  0  0  1  0  0  0  0  0999 V2000
    2.4970   -0.0870    3.8300 N   0  0  0  0  0  0  0  0  0  0  0  0
    2.3240   -0.5790    2.4310 C   0  0  1  0  0  0  0  0  0  0  0  0
    1.9160   -2.0000    2.5880 C   0  0  0  0  0  0  0  0  0  0  0  0
    1.7130   -2.8010    1.3600 C   0  0  0  0  0  0  0  0  0  0  0  0
    3.0030   -2.8240    0.5980 C   0  0  0  0  0  0  0  0  0  0  0  0
    4.0730   -3.2240    1.1490 O   0  0  0  0  0  0  0  0  0  0  0  0
    1.3080    0.2910    1.8490 C   0  0  0  0  0  0  0  0  0  0  0  0
    0.8560    1.2350    2.6190 O   0  0  0  0  0  0  0  0  0  0  0  0
    3.0050   -2.4010   -0.7080 O   0  0  0  0  0  0  0  0  0  0  0  0
    2.9780    0.8330    3.7950 H   0  0  0  0  0  0  0  0  0  0  0  0
    1.5540    0.0770    4.2630 H   0  0  0  0  0  0  0  0  0  0  0  0
    3.3300   -0.4480    1.9830 H   0  0  0  0  0  0  0  0  0  0  0  0
    0.9520   -2.0380    3.1860 H   0  0  0  0  0  0  0  0  0  0  0  0
    2.6260   -2.5770    3.2440 H   0  0  0  0  0  0  0  0  0  0  0  0
    1.6320   -3.8900    1.7270 H   0  0  0  0  0  0  0  0  0  0  0  0
    0.8360   -2.6430    0.7670 H   0  0  0  0  0  0  0  0  0  0  0  0
    3.8300   -1.9710   -1.1430 H   0  0  0  0  0  0  0  0  0  0  0  0
    0.1810    0.9210   -2.2130 O   0  0  0  0  0  0  0  0  0  0  0  0
    0.1140    1.8370   -1.1950 C   0  0  0  0  0  0  0  0  0  0  0  0
   -0.2190    1.2060    0.1410 C   0  0  2  0  0  0  0  0  0  0  0  0
    0.7600    0.2310    0.5380 N   0  0  0  0  0  0  0  0  0  0  0  0
   -1.5600    0.5970    0.0530 C   0  0  0  0  0  0  0  0  0  0  0  0
   -2.5470    1.3030   -0.3360 O   0  0  0  0  0  0  0  0  0  0  0  0
    0.4760    1.3950   -3.0320 H   0  0  0  0  0  0  0  0  0  0  0  0
   -0.6420    2.6220   -1.4000 H   0  0  0  0  0  0  0  0  0  0  0  0
    1.0900    2.3810   -1.0530 H   0  0  0  0  0  0  0  0  0  0  0  0
   -0.2860    1.9810    0.9400 H   0  0  0  0  0  0  0  0  0  0  0  0
    1.1050   -0.5170   -0.0890 H   0  0  0  0  0  0  0  0  0  0  0  0
   -1.8210   -0.7540    0.3860 N   0  0  0  0  0  0  0  0  0  0  0  0
   -3.1210   -1.3550    0.3080 C   0  0  0  0  0  0  0  0  0  0  0  0
   -3.6210   -1.2810   -1.0810 C   0  0  0  0  0  0  0  0  0  0  0  0
   -4.7550   -1.7350   -1.4350 O   0  0  0  0  0  0  0  0  0  0  0  0
   -2.8380   -0.6970   -2.0520 O   0  0  0  0  0  0  0  0  0  0  0  0
   -1.0190   -1.3330    0.7100 H   0  0  0  0  0  0  0  0  0  0  0  0
   -3.0770   -2.4210    0.6330 H   0  0  0  0  0  0  0  0  0  0  0  0
   -3.8180   -0.8440    1.0320 H   0  0  0  0  0  0  0  0  0  0  0  0
  1 11  1  0  0  0  0
  2 12  1  6  0  0  0
  2  3  1  0  0  0  0
  2  1  1  0  0  0  0
  3 13  1  0  0  0  0
  3 14  1  0  0  0  0
  4 15  1  0  0  0  0
  4  3  1  0  0  0  0
  5  6  2  0  0  0  0
  5  4  1  0  0  0  0
  7  2  1  0  0  0  0
  7  8  2  0  0  0  0
  9  5  1  0  0  0  0
 10  1  1  0  0  0  0
 16  4  1  0  0  0  0
 17  9  1  0  0  0  0
 18 19  1  0  0  0  0
 19 26  1  0  0  0  0
 19 20  1  0  0  0  0
 20 21  1  0  0  0  0
 20 27  1  1  0  0  0
 21  7  1  0  0  0  0
 22 20  1  0  0  0  0
 22 29  1  0  0  0  0
 23 22  2  0  0  0  0
 24 18  1  0  0  0  0
 25 19  1  0  0  0  0
 28 21  1  0  0  0  0
 29 34  1  0  0  0  0
 30 29  1  0  0  0  0
 30 35  1  0  0  0  0
 30 36  1  0  0  0  0
 31 30  1  0  0  0  0
 32 31  1  0  0  0  0
 33 31  2  0  0  0  0
M  END
$$$$
