ESL.pdb
 OpenBabel07022418203D

 48 47  0  0  1  0  0  0  0  0999 V2000
    1.2210   -2.8510   -1.1010 N   0  0  0  0  0  0  0  0  0  0  0  0
    2.2210   -2.8380   -0.0240 C   0  0  1  0  0  0  0  0  0  0  0  0
    3.5330   -3.2760   -0.5520 C   0  0  0  0  0  0  0  0  0  0  0  0
    4.6550   -3.3150    0.4380 C   0  0  0  0  0  0  0  0  0  0  0  0
    5.9240   -3.7700   -0.1790 C   0  0  0  0  0  0  0  0  0  0  0  0
    5.9700   -4.0680   -1.3920 O   0  0  0  0  0  0  0  0  0  0  0  0
    2.2390   -1.4810    0.5680 C   0  0  0  0  0  0  0  0  0  0  0  0
    2.9710   -1.1640    1.5390 O   0  0  0  0  0  0  0  0  0  0  0  0
    7.0550   -3.8600    0.6080 O   0  0  0  0  0  0  0  0  0  0  0  0
    1.3750   -3.6820   -1.6930 H   0  0  0  0  0  0  0  0  0  0  0  0
    0.2690   -2.9310   -0.6930 H   0  0  0  0  0  0  0  0  0  0  0  0
    1.8480   -3.6020    0.7120 H   0  0  0  0  0  0  0  0  0  0  0  0
    3.7720   -2.6840   -1.4560 H   0  0  0  0  0  0  0  0  0  0  0  0
    3.4100   -4.3330   -0.9300 H   0  0  0  0  0  0  0  0  0  0  0  0
    4.8560   -2.2460    0.7490 H   0  0  0  0  0  0  0  0  0  0  0  0
    4.4660   -3.9530    1.3020 H   0  0  0  0  0  0  0  0  0  0  0  0
    7.8540   -4.4580    0.3460 H   0  0  0  0  0  0  0  0  0  0  0  0
    3.0210    1.6590   -0.9160 O   0  0  0  0  0  0  0  0  0  0  0  0
    1.7860    1.9360   -0.3570 C   0  0  0  0  0  0  0  0  0  0  0  0
    1.4570    0.8570    0.6570 C   0  0  2  0  0  0  0  0  0  0  0  0
    1.4080   -0.4560    0.0480 N   0  0  0  0  0  0  0  0  0  0  0  0
    0.1140    1.0940    1.2610 C   0  0  0  0  0  0  0  0  0  0  0  0
   -0.1300    2.1900    1.8710 O   0  0  0  0  0  0  0  0  0  0  0  0
    3.0210    0.8390   -1.4540 H   0  0  0  0  0  0  0  0  0  0  0  0
    0.9800    2.0890   -1.0760 H   0  0  0  0  0  0  0  0  0  0  0  0
    1.9030    2.8800    0.2340 H   0  0  0  0  0  0  0  0  0  0  0  0
    2.1800    0.8990    1.5000 H   0  0  0  0  0  0  0  0  0  0  0  0
    0.7600   -0.5920   -0.7500 H   0  0  0  0  0  0  0  0  0  0  0  0
   -5.7550    0.6960    0.2720 C   0  0  0  0  0  0  0  0  0  0  0  0
   -4.6720    0.6870    1.3490 C   0  0  0  0  0  0  0  0  0  0  0  0
   -4.7520    2.0140    2.0630 C   0  0  0  0  0  0  0  0  0  0  0  0
   -3.3260    0.4180    0.7610 C   0  0  0  0  0  0  0  0  0  0  0  0
   -2.2590    0.4170    1.8040 C   0  0  2  0  0  0  0  0  0  0  0  0
   -0.9390    0.1550    1.1980 N   0  0  0  0  0  0  0  0  0  0  0  0
   -2.4360   -0.5680    2.8850 C   0  0  0  0  0  0  0  0  0  0  0  0
   -1.5400   -1.4270    3.0780 O   0  0  0  0  0  0  0  0  0  0  0  0
   -3.5270   -0.6390    3.7360 O   0  0  0  0  0  0  0  0  0  0  0  0
   -5.7790    1.7370   -0.1250 H   0  0  0  0  0  0  0  0  0  0  0  0
   -6.7240    0.4720    0.7620 H   0  0  0  0  0  0  0  0  0  0  0  0
   -5.5780   -0.0600   -0.5010 H   0  0  0  0  0  0  0  0  0  0  0  0
   -4.9710   -0.1300    2.0480 H   0  0  0  0  0  0  0  0  0  0  0  0
   -4.7410    1.8970    3.1680 H   0  0  0  0  0  0  0  0  0  0  0  0
   -5.6770    2.5700    1.8010 H   0  0  0  0  0  0  0  0  0  0  0  0
   -3.9090    2.6940    1.7570 H   0  0  0  0  0  0  0  0  0  0  0  0
   -3.1100    1.1030   -0.0740 H   0  0  0  0  0  0  0  0  0  0  0  0
   -3.3670   -0.6340    0.3550 H   0  0  0  0  0  0  0  0  0  0  0  0
   -2.2630    1.4200    2.2820 H   0  0  0  0  0  0  0  0  0  0  0  0
   -0.7640   -0.7470    0.7050 H   0  0  0  0  0  0  0  0  0  0  0  0
  1 11  1  0  0  0  0
  1  2  1  0  0  0  0
  2  7  1  0  0  0  0
  2 12  1  1  0  0  0
  3  2  1  0  0  0  0
  3  4  1  0  0  0  0
  4 15  1  0  0  0  0
  4 16  1  0  0  0  0
  5  4  1  0  0  0  0
  5  9  1  0  0  0  0
  6  5  2  0  0  0  0
  7  8  2  0  0  0  0
 10  1  1  0  0  0  0
 13  3  1  0  0  0  0
 14  3  1  0  0  0  0
 17  9  1  0  0  0  0
 18 19  1  0  0  0  0
 19 26  1  0  0  0  0
 19 20  1  0  0  0  0
 20 22  1  0  0  0  0
 20 27  1  1  0  0  0
 21  7  1  0  0  0  0
 21 20  1  0  0  0  0
 22 23  2  0  0  0  0
 24 18  1  0  0  0  0
 25 19  1  0  0  0  0
 28 21  1  0  0  0  0
 29 39  1  0  0  0  0
 29 30  1  0  0  0  0
 30 41  1  0  0  0  0
 30 31  1  0  0  0  0
 31 42  1  0  0  0  0
 32 30  1  0  0  0  0
 32 33  1  0  0  0  0
 33 47  1  1  0  0  0
 33 35  1  0  0  0  0
 34 22  1  0  0  0  0
 34 33  1  0  0  0  0
 35 36  2  0  0  0  0
 35 37  1  0  0  0  0
 38 29  1  0  0  0  0
 40 29  1  0  0  0  0
 43 31  1  0  0  0  0
 44 31  1  0  0  0  0
 45 32  1  0  0  0  0
 46 32  1  0  0  0  0
 48 34  1  0  0  0  0
M  END
$$$$
