ESN.pdb
 OpenBabel07022418203D

 43 42  0  0  1  0  0  0  0  0999 V2000
    1.6470   -3.8730    3.2350 N   0  0  0  0  0  0  0  0  0  0  0  0
    1.5230   -3.3090    1.9420 C   0  0  1  0  0  0  0  0  0  0  0  0
    0.1100   -3.3340    1.4610 C   0  0  0  0  0  0  0  0  0  0  0  0
   -0.8690   -2.5970    2.2850 C   0  0  0  0  0  0  0  0  0  0  0  0
   -1.1210   -3.0410    3.6420 C   0  0  0  0  0  0  0  0  0  0  0  0
   -0.6810   -4.0740    4.1620 O   0  0  0  0  0  0  0  0  0  0  0  0
    1.9930   -1.8920    1.8780 C   0  0  0  0  0  0  0  0  0  0  0  0
    2.4100   -1.3030    2.9100 O   0  0  0  0  0  0  0  0  0  0  0  0
   -1.9350   -2.2410    4.4530 O   0  0  0  0  0  0  0  0  0  0  0  0
    2.4750   -3.4880    3.7790 H   0  0  0  0  0  0  0  0  0  0  0  0
    1.8280   -4.8990    3.1880 H   0  0  0  0  0  0  0  0  0  0  0  0
    2.1640   -3.9330    1.2560 H   0  0  0  0  0  0  0  0  0  0  0  0
    0.1070   -2.9490    0.3940 H   0  0  0  0  0  0  0  0  0  0  0  0
   -0.1770   -4.4140    1.3460 H   0  0  0  0  0  0  0  0  0  0  0  0
   -0.5810   -1.5090    2.2300 H   0  0  0  0  0  0  0  0  0  0  0  0
   -1.8690   -2.6510    1.7460 H   0  0  0  0  0  0  0  0  0  0  0  0
   -1.8520   -2.2970    5.4640 H   0  0  0  0  0  0  0  0  0  0  0  0
    2.8510   -0.2140   -1.8450 O   0  0  0  0  0  0  0  0  0  0  0  0
    3.4250    0.2320   -0.6440 C   0  0  0  0  0  0  0  0  0  0  0  0
    2.3840    0.1290    0.4550 C   0  0  2  0  0  0  0  0  0  0  0  0
    1.9460   -1.2500    0.6090 N   0  0  0  0  0  0  0  0  0  0  0  0
    1.2330    0.9920   -0.0180 C   0  0  0  0  0  0  0  0  0  0  0  0
    1.4320    2.2260   -0.1500 O   0  0  0  0  0  0  0  0  0  0  0  0
    2.7640    0.5100   -2.5120 H   0  0  0  0  0  0  0  0  0  0  0  0
    3.6610    1.3050   -0.7820 H   0  0  0  0  0  0  0  0  0  0  0  0
    4.3260   -0.3690   -0.4180 H   0  0  0  0  0  0  0  0  0  0  0  0
    2.7540    0.5560    1.3860 H   0  0  0  0  0  0  0  0  0  0  0  0
    1.6020   -1.7390   -0.2450 H   0  0  0  0  0  0  0  0  0  0  0  0
   -0.6640    4.5420    0.7770 N   0  0  0  0  0  0  0  0  0  0  0  0
   -0.9270    3.1690    0.5750 C   0  0  0  0  0  0  0  0  0  0  0  0
   -0.9850    2.3660    1.5560 O   0  0  0  0  0  0  0  0  0  0  0  0
   -1.1470    2.6120   -0.7940 C   0  0  0  0  0  0  0  0  0  0  0  0
   -1.2240    1.0760   -0.7290 C   0  0  2  0  0  0  0  0  0  0  0  0
   -0.0190    0.4500   -0.3030 N   0  0  0  0  0  0  0  0  0  0  0  0
   -1.8010    0.5080   -1.9210 C   0  0  0  0  0  0  0  0  0  0  0  0
   -2.8830    0.9720   -2.4030 O   0  0  0  0  0  0  0  0  0  0  0  0
   -1.2220   -0.5600   -2.6050 O   0  0  0  0  0  0  0  0  0  0  0  0
   -0.1640    5.1260    0.0660 H   0  0  0  0  0  0  0  0  0  0  0  0
   -0.9870    4.9810    1.6760 H   0  0  0  0  0  0  0  0  0  0  0  0
   -2.1010    3.0270   -1.1620 H   0  0  0  0  0  0  0  0  0  0  0  0
   -0.3530    2.9310   -1.4900 H   0  0  0  0  0  0  0  0  0  0  0  0
   -2.0050    0.9780    0.1290 H   0  0  0  0  0  0  0  0  0  0  0  0
   -0.0850   -0.6160   -0.1800 H   0  0  0  0  0  0  0  0  0  0  0  0
  1 10  1  0  0  0  0
  2 12  1  6  0  0  0
  2  1  1  0  0  0  0
  3  2  1  0  0  0  0
  3  4  1  0  0  0  0
  4  5  1  0  0  0  0
  5  6  2  0  0  0  0
  5  9  1  0  0  0  0
  7  2  1  0  0  0  0
  7  8  2  0  0  0  0
  9 17  1  0  0  0  0
 11  1  1  0  0  0  0
 13  3  1  0  0  0  0
 14  3  1  0  0  0  0
 15  4  1  0  0  0  0
 16  4  1  0  0  0  0
 18 19  1  0  0  0  0
 19 26  1  0  0  0  0
 19 20  1  0  0  0  0
 20 21  1  0  0  0  0
 20 27  1  1  0  0  0
 21  7  1  0  0  0  0
 22 20  1  0  0  0  0
 23 22  2  0  0  0  0
 24 18  1  0  0  0  0
 25 19  1  0  0  0  0
 28 21  1  0  0  0  0
 29 39  1  0  0  0  0
 30 29  1  0  0  0  0
 30 31  2  0  0  0  0
 32 33  1  0  0  0  0
 32 30  1  0  0  0  0
 33 34  1  0  0  0  0
 33 42  1  1  0  0  0
 34 43  1  0  0  0  0
 34 22  1  0  0  0  0
 35 33  1  0  0  0  0
 36 35  1  0  0  0  0
 37 35  2  0  0  0  0
 38 29  1  0  0  0  0
 40 32  1  0  0  0  0
 41 32  1  0  0  0  0
M  END
$$$$
