ESP.pdb
 OpenBabel07022418203D

 43 43  0  0  1  0  0  0  0  0999 V2000
    2.6200   -4.3430   -0.3520 N   0  0  0  0  0  0  0  0  0  0  0  0
    2.5190   -2.8920   -0.3920 C   0  0  1  0  0  0  0  0  0  0  0  0
    2.1830   -2.4910   -1.7810 C   0  0  0  0  0  0  0  0  0  0  0  0
    3.2060   -2.9190   -2.8050 C   0  0  0  0  0  0  0  0  0  0  0  0
    4.4990   -2.2950   -2.4520 C   0  0  0  0  0  0  0  0  0  0  0  0
    5.2610   -2.8450   -1.6290 O   0  0  0  0  0  0  0  0  0  0  0  0
    1.6070   -2.3930    0.6390 C   0  0  0  0  0  0  0  0  0  0  0  0
    1.0590   -3.2420    1.4040 O   0  0  0  0  0  0  0  0  0  0  0  0
    4.8540   -1.0990   -3.0430 O   0  0  0  0  0  0  0  0  0  0  0  0
    2.0620   -4.7900   -1.1100 H   0  0  0  0  0  0  0  0  0  0  0  0
    3.5990   -4.6800   -0.2910 H   0  0  0  0  0  0  0  0  0  0  0  0
    3.5280   -2.4990   -0.1340 H   0  0  0  0  0  0  0  0  0  0  0  0
    1.2140   -2.9790   -2.0980 H   0  0  0  0  0  0  0  0  0  0  0  0
    2.0240   -1.4070   -1.9250 H   0  0  0  0  0  0  0  0  0  0  0  0
    3.2770   -4.0240   -2.8880 H   0  0  0  0  0  0  0  0  0  0  0  0
    2.8830   -2.5200   -3.7930 H   0  0  0  0  0  0  0  0  0  0  0  0
    5.7560   -0.6970   -2.8760 H   0  0  0  0  0  0  0  0  0  0  0  0
    1.7890    1.4830    2.0240 O   0  0  0  0  0  0  0  0  0  0  0  0
    1.2170    0.4320    2.7520 C   0  0  0  0  0  0  0  0  0  0  0  0
    0.4210   -0.4850    1.8200 C   0  0  2  0  0  0  0  0  0  0  0  0
    1.3260   -1.0250    0.8020 N   0  0  0  0  0  0  0  0  0  0  0  0
   -0.6120    0.3040    1.1140 C   0  0  0  0  0  0  0  0  0  0  0  0
   -0.4860    0.4870   -0.1250 O   0  0  0  0  0  0  0  0  0  0  0  0
    2.6010    1.8260    2.4630 H   0  0  0  0  0  0  0  0  0  0  0  0
    0.5680    0.8630    3.5080 H   0  0  0  0  0  0  0  0  0  0  0  0
    2.0460   -0.1310    3.2210 H   0  0  0  0  0  0  0  0  0  0  0  0
   -0.0120   -1.2740    2.4590 H   0  0  0  0  0  0  0  0  0  0  0  0
    1.7850   -0.3530    0.1660 H   0  0  0  0  0  0  0  0  0  0  0  0
   -1.7350    0.8510    1.8130 N   0  0  0  0  0  0  0  0  0  0  0  0
   -2.0070    0.6750    3.2150 C   0  0  0  0  0  0  0  0  0  0  0  0
   -3.5110    0.5080    3.2500 C   0  0  0  0  0  0  0  0  0  0  0  0
   -3.9790    1.4720    2.2010 C   0  0  0  0  0  0  0  0  0  0  0  0
   -2.7940    1.6820    1.2840 C   0  0  1  0  0  0  0  0  0  0  0  0
   -2.4010    3.1180    1.3240 C   0  0  0  0  0  0  0  0  0  0  0  0
   -1.2820    3.4710    1.7700 O   0  0  0  0  0  0  0  0  0  0  0  0
   -3.2580    4.1080    0.8700 O   0  0  0  0  0  0  0  0  0  0  0  0
   -1.4970   -0.2240    3.6330 H   0  0  0  0  0  0  0  0  0  0  0  0
   -1.7050    1.5660    3.7620 H   0  0  0  0  0  0  0  0  0  0  0  0
   -3.7710   -0.5060    2.9520 H   0  0  0  0  0  0  0  0  0  0  0  0
   -3.9300    0.7220    4.2530 H   0  0  0  0  0  0  0  0  0  0  0  0
   -4.3400    2.4420    2.6220 H   0  0  0  0  0  0  0  0  0  0  0  0
   -4.8190    1.0130    1.6360 H   0  0  0  0  0  0  0  0  0  0  0  0
   -3.0390    1.4250    0.2310 H   0  0  0  0  0  0  0  0  0  0  0  0
  1 11  1  0  0  0  0
  2  1  1  0  0  0  0
  2 12  1  1  0  0  0
  2  7  1  0  0  0  0
  3  2  1  0  0  0  0
  4  5  1  0  0  0  0
  4  3  1  0  0  0  0
  5  6  2  0  0  0  0
  7 21  1  0  0  0  0
  7  8  2  0  0  0  0
  9 17  1  0  0  0  0
  9  5  1  0  0  0  0
 10  1  1  0  0  0  0
 13  3  1  0  0  0  0
 14  3  1  0  0  0  0
 15  4  1  0  0  0  0
 16  4  1  0  0  0  0
 18 24  1  0  0  0  0
 18 19  1  0  0  0  0
 19 26  1  0  0  0  0
 19 25  1  0  0  0  0
 20 27  1  1  0  0  0
 20 19  1  0  0  0  0
 21 20  1  0  0  0  0
 22 29  1  0  0  0  0
 22 20  1  0  0  0  0
 23 22  2  0  0  0  0
 28 21  1  0  0  0  0
 29 30  1  0  0  0  0
 30 31  1  0  0  0  0
 30 37  1  0  0  0  0
 30 38  1  0  0  0  0
 31 40  1  0  0  0  0
 32 41  1  0  0  0  0
 32 31  1  0  0  0  0
 33 43  1  6  0  0  0
 33 34  1  0  0  0  0
 33 29  1  0  0  0  0
 33 32  1  0  0  0  0
 34 35  1  0  0  0  0
 36 34  2  0  0  0  0
 39 31  1  0  0  0  0
 42 32  1  0  0  0  0
M  END
$$$$
