ESV.pdb
 OpenBabel07022418203D

 45 44  0  0  1  0  0  0  0  0999 V2000
   -1.0230   -0.6780   -1.5660 N   0  0  0  0  0  0  0  0  0  0  0  0
    0.3980   -0.9150   -1.9060 C   0  0  1  0  0  0  0  0  0  0  0  0
    0.6190   -0.1780   -3.2000 C   0  0  0  0  0  0  0  0  0  0  0  0
    2.0140   -0.2840   -3.7410 C   0  0  0  0  0  0  0  0  0  0  0  0
    2.3320   -1.6880   -4.0390 C   0  0  0  0  0  0  0  0  0  0  0  0
    1.4750   -2.5770   -3.9010 O   0  0  0  0  0  0  0  0  0  0  0  0
    1.2390   -0.3460   -0.7980 C   0  0  0  0  0  0  0  0  0  0  0  0
    2.4760   -0.4980   -0.8740 O   0  0  0  0  0  0  0  0  0  0  0  0
    3.6000   -2.0450   -4.4820 O   0  0  0  0  0  0  0  0  0  0  0  0
   -1.5530   -1.1180   -2.3730 H   0  0  0  0  0  0  0  0  0  0  0  0
   -1.1670    0.3600   -1.6490 H   0  0  0  0  0  0  0  0  0  0  0  0
    0.5210   -1.9860   -1.9600 H   0  0  0  0  0  0  0  0  0  0  0  0
    0.2760    0.8800   -3.1200 H   0  0  0  0  0  0  0  0  0  0  0  0
   -0.0760   -0.6540   -3.9490 H   0  0  0  0  0  0  0  0  0  0  0  0
    2.0650    0.2890   -4.7190 H   0  0  0  0  0  0  0  0  0  0  0  0
    2.7560    0.1910   -3.0620 H   0  0  0  0  0  0  0  0  0  0  0  0
    3.9790   -2.9620   -4.3080 H   0  0  0  0  0  0  0  0  0  0  0  0
    1.7600    2.8810    0.1760 O   0  0  0  0  0  0  0  0  0  0  0  0
    1.3100    2.3940    1.4190 C   0  0  0  0  0  0  0  0  0  0  0  0
    1.4200    0.8810    1.3400 C   0  0  2  0  0  0  0  0  0  0  0  0
    0.6210    0.3350    0.2810 N   0  0  0  0  0  0  0  0  0  0  0  0
    1.0410    0.2690    2.6600 C   0  0  0  0  0  0  0  0  0  0  0  0
    1.6230    0.6150    3.7060 O   0  0  0  0  0  0  0  0  0  0  0  0
    1.2590    2.3480   -0.5150 H   0  0  0  0  0  0  0  0  0  0  0  0
    0.2670    2.6910    1.6050 H   0  0  0  0  0  0  0  0  0  0  0  0
    2.0160    2.7170    2.2110 H   0  0  0  0  0  0  0  0  0  0  0  0
    2.4720    0.6570    1.1510 H   0  0  0  0  0  0  0  0  0  0  0  0
   -0.4360    0.4240    0.2800 H   0  0  0  0  0  0  0  0  0  0  0  0
   -2.7490   -1.6380    3.3580 C   0  0  0  0  0  0  0  0  0  0  0  0
   -1.8070   -1.0770    4.3730 C   0  0  0  0  0  0  0  0  0  0  0  0
   -2.0550    0.4010    4.6380 C   0  0  0  0  0  0  0  0  0  0  0  0
   -0.3560   -1.3060    4.0090 C   0  0  2  0  0  0  0  0  0  0  0  0
    0.0200   -0.7130    2.7670 N   0  0  0  0  0  0  0  0  0  0  0  0
   -0.1040   -2.7780    3.9720 C   0  0  0  0  0  0  0  0  0  0  0  0
   -0.3890   -3.4420    5.0030 O   0  0  0  0  0  0  0  0  0  0  0  0
    0.4170   -3.4400    2.8870 O   0  0  0  0  0  0  0  0  0  0  0  0
   -3.3200   -2.5230    3.7080 H   0  0  0  0  0  0  0  0  0  0  0  0
   -2.1320   -2.0190    2.4940 H   0  0  0  0  0  0  0  0  0  0  0  0
   -3.5080   -0.8990    3.0080 H   0  0  0  0  0  0  0  0  0  0  0  0
   -1.9910   -1.6020    5.3330 H   0  0  0  0  0  0  0  0  0  0  0  0
   -1.5700    1.0300    3.8580 H   0  0  0  0  0  0  0  0  0  0  0  0
   -1.7060    0.6600    5.6590 H   0  0  0  0  0  0  0  0  0  0  0  0
   -3.1360    0.6470    4.6050 H   0  0  0  0  0  0  0  0  0  0  0  0
    0.2380   -0.9160    4.8670 H   0  0  0  0  0  0  0  0  0  0  0  0
   -0.4570   -0.9930    1.8850 H   0  0  0  0  0  0  0  0  0  0  0  0
  2 12  1  6  0  0  0
  2  1  1  0  0  0  0
  2  7  1  0  0  0  0
  3 13  1  0  0  0  0
  3  2  1  0  0  0  0
  4  3  1  0  0  0  0
  4 16  1  0  0  0  0
  5  6  2  0  0  0  0
  5  4  1  0  0  0  0
  7 21  1  0  0  0  0
  8  7  2  0  0  0  0
  9 17  1  0  0  0  0
  9  5  1  0  0  0  0
 10  1  1  0  0  0  0
 11  1  1  0  0  0  0
 14  3  1  0  0  0  0
 15  4  1  0  0  0  0
 18 19  1  0  0  0  0
 19 25  1  0  0  0  0
 19 26  1  0  0  0  0
 20 27  1  6  0  0  0
 20 19  1  0  0  0  0
 20 22  1  0  0  0  0
 21 20  1  0  0  0  0
 22 33  1  0  0  0  0
 22 23  2  0  0  0  0
 24 18  1  0  0  0  0
 28 21  1  0  0  0  0
 29 37  1  0  0  0  0
 29 30  1  0  0  0  0
 30 31  1  0  0  0  0
 30 40  1  0  0  0  0
 31 42  1  0  0  0  0
 32 30  1  0  0  0  0
 32 44  1  1  0  0  0
 33 32  1  0  0  0  0
 34 32  1  0  0  0  0
 34 35  1  0  0  0  0
 36 34  2  0  0  0  0
 38 29  1  0  0  0  0
 39 29  1  0  0  0  0
 41 31  1  0  0  0  0
 43 31  1  0  0  0  0
 45 33  1  0  0  0  0
M  END
$$$$
