ETG.pdb
 OpenBabel07022418203D

 39 38  0  0  1  0  0  0  0  0999 V2000
   -0.3910   -2.9980    2.0640 N   0  0  0  0  0  0  0  0  0  0  0  0
    1.0900   -2.8710    1.9810 C   0  0  1  0  0  0  0  0  0  0  0  0
    1.5220   -3.9300    1.0560 C   0  0  0  0  0  0  0  0  0  0  0  0
    2.9220   -4.1070    0.6940 C   0  0  0  0  0  0  0  0  0  0  0  0
    3.6310   -3.0880   -0.0500 C   0  0  0  0  0  0  0  0  0  0  0  0
    4.9170   -3.1230    0.0320 O   0  0  0  0  0  0  0  0  0  0  0  0
    1.3210   -1.4710    1.6040 C   0  0  0  0  0  0  0  0  0  0  0  0
    2.5010   -1.0300    1.8600 O   0  0  0  0  0  0  0  0  0  0  0  0
    3.1480   -2.0850   -0.8380 O   0  0  0  0  0  0  0  0  0  0  0  0
   -0.6530   -3.8560    2.5820 H   0  0  0  0  0  0  0  0  0  0  0  0
   -0.6860   -3.1410    1.0690 H   0  0  0  0  0  0  0  0  0  0  0  0
    1.3970   -3.0640    3.0510 H   0  0  0  0  0  0  0  0  0  0  0  0
    0.8330   -3.8840    0.1520 H   0  0  0  0  0  0  0  0  0  0  0  0
    1.1930   -4.9170    1.5180 H   0  0  0  0  0  0  0  0  0  0  0  0
    2.9940   -5.0560    0.0810 H   0  0  0  0  0  0  0  0  0  0  0  0
    3.5490   -4.3760    1.6030 H   0  0  0  0  0  0  0  0  0  0  0  0
    3.5960   -1.1670   -0.8400 H   0  0  0  0  0  0  0  0  0  0  0  0
   -0.6480    0.5100   -1.4700 C   0  0  0  0  0  0  0  0  0  0  0  0
    0.6790    0.8750   -0.8620 C   0  0  1  0  0  0  0  0  0  0  0  0
    0.9780    2.1890   -1.1870 O   0  0  0  0  0  0  0  0  0  0  0  0
    0.6530    0.7160    0.6660 C   0  0  2  0  0  0  0  0  0  0  0  0
    0.3460   -0.6380    1.0010 N   0  0  0  0  0  0  0  0  0  0  0  0
   -0.3180    1.6970    1.1730 C   0  0  0  0  0  0  0  0  0  0  0  0
   -0.1000    2.9120    0.9060 O   0  0  0  0  0  0  0  0  0  0  0  0
   -1.2110    1.4180   -1.8100 H   0  0  0  0  0  0  0  0  0  0  0  0
   -1.3290   -0.0280   -0.7880 H   0  0  0  0  0  0  0  0  0  0  0  0
   -0.4560   -0.1590   -2.3490 H   0  0  0  0  0  0  0  0  0  0  0  0
    1.4430    0.1630   -1.2260 H   0  0  0  0  0  0  0  0  0  0  0  0
    0.2680    2.6280   -1.7330 H   0  0  0  0  0  0  0  0  0  0  0  0
    1.6950    0.9770    0.9790 H   0  0  0  0  0  0  0  0  0  0  0  0
   -0.5900   -1.0560    0.8180 H   0  0  0  0  0  0  0  0  0  0  0  0
   -1.4620    1.3820    1.9250 N   0  0  0  0  0  0  0  0  0  0  0  0
   -2.3730    2.4120    2.3870 C   0  0  0  0  0  0  0  0  0  0  0  0
   -2.9470    3.1580    1.2520 C   0  0  0  0  0  0  0  0  0  0  0  0
   -2.6040    2.8400    0.0870 O   0  0  0  0  0  0  0  0  0  0  0  0
   -3.8310    4.1760    1.4480 O   0  0  0  0  0  0  0  0  0  0  0  0
   -1.6520    0.3820    2.1520 H   0  0  0  0  0  0  0  0  0  0  0  0
   -1.8600    3.0990    3.1140 H   0  0  0  0  0  0  0  0  0  0  0  0
   -3.2090    1.9370    2.9670 H   0  0  0  0  0  0  0  0  0  0  0  0
  1 10  1  0  0  0  0
  2  1  1  0  0  0  0
  2 12  1  1  0  0  0
  3 14  1  0  0  0  0
  3  2  1  0  0  0  0
  4  3  1  0  0  0  0
  4 16  1  0  0  0  0
  5  6  2  0  0  0  0
  5  4  1  0  0  0  0
  7  8  2  0  0  0  0
  7  2  1  0  0  0  0
  9  5  1  0  0  0  0
 11  1  1  0  0  0  0
 13  3  1  0  0  0  0
 15  4  1  0  0  0  0
 17  9  1  0  0  0  0
 18 19  1  0  0  0  0
 18 26  1  0  0  0  0
 19 28  1  6  0  0  0
 19 21  1  0  0  0  0
 20 19  1  0  0  0  0
 21 30  1  1  0  0  0
 21 22  1  0  0  0  0
 21 23  1  0  0  0  0
 22  7  1  0  0  0  0
 23 32  1  0  0  0  0
 24 23  2  0  0  0  0
 25 18  1  0  0  0  0
 27 18  1  0  0  0  0
 29 20  1  0  0  0  0
 31 22  1  0  0  0  0
 32 37  1  0  0  0  0
 32 33  1  0  0  0  0
 33 39  1  0  0  0  0
 33 38  1  0  0  0  0
 34 36  1  0  0  0  0
 34 33  1  0  0  0  0
 35 34  2  0  0  0  0
M  END
$$$$
