ETH.pdb
 OpenBabel07022418203D

 49 49  0  0  1  0  0  0  0  0999 V2000
   -2.3610   -0.6660    1.7700 N   0  0  0  0  0  0  0  0  0  0  0  0
   -2.0010    0.7160    1.4390 C   0  0  1  0  0  0  0  0  0  0  0  0
   -2.4760    1.6510    2.4960 C   0  0  0  0  0  0  0  0  0  0  0  0
   -2.1310    3.0870    2.3220 C   0  0  0  0  0  0  0  0  0  0  0  0
   -0.7180    3.4440    2.4840 C   0  0  0  0  0  0  0  0  0  0  0  0
    0.0670    2.6720    3.0720 O   0  0  0  0  0  0  0  0  0  0  0  0
   -0.6370    0.9070    1.0080 C   0  0  0  0  0  0  0  0  0  0  0  0
   -0.2490    1.9090    0.3060 O   0  0  0  0  0  0  0  0  0  0  0  0
   -0.2410    4.6390    1.9860 O   0  0  0  0  0  0  0  0  0  0  0  0
   -2.4510   -0.8140    2.7910 H   0  0  0  0  0  0  0  0  0  0  0  0
   -1.6780   -1.3170    1.3300 H   0  0  0  0  0  0  0  0  0  0  0  0
   -2.7300    0.9230    0.5550 H   0  0  0  0  0  0  0  0  0  0  0  0
   -3.6090    1.6010    2.5000 H   0  0  0  0  0  0  0  0  0  0  0  0
   -2.1120    1.3300    3.5180 H   0  0  0  0  0  0  0  0  0  0  0  0
   -2.5330    3.4570    1.3320 H   0  0  0  0  0  0  0  0  0  0  0  0
   -2.7350    3.6670    3.0800 H   0  0  0  0  0  0  0  0  0  0  0  0
    0.7580    4.8130    2.0040 H   0  0  0  0  0  0  0  0  0  0  0  0
    4.2400    0.3180    1.4470 C   0  0  0  0  0  0  0  0  0  0  0  0
    2.8280    0.1070    1.9260 C   0  0  1  0  0  0  0  0  0  0  0  0
    2.6280    1.0010    2.9710 O   0  0  0  0  0  0  0  0  0  0  0  0
    1.8070    0.2350    0.8470 C   0  0  2  0  0  0  0  0  0  0  0  0
    0.4540    0.0000    1.3070 N   0  0  0  0  0  0  0  0  0  0  0  0
    2.0630   -0.6560   -0.3060 C   0  0  0  0  0  0  0  0  0  0  0  0
    3.1380   -0.6990   -0.9510 O   0  0  0  0  0  0  0  0  0  0  0  0
    4.4240    1.3020    1.0170 H   0  0  0  0  0  0  0  0  0  0  0  0
    4.6040   -0.5390    0.8460 H   0  0  0  0  0  0  0  0  0  0  0  0
    4.8770    0.2800    2.3820 H   0  0  0  0  0  0  0  0  0  0  0  0
    2.7690   -0.9030    2.3700 H   0  0  0  0  0  0  0  0  0  0  0  0
    3.4960    1.1110    3.4600 H   0  0  0  0  0  0  0  0  0  0  0  0
    1.9030    1.2760    0.4100 H   0  0  0  0  0  0  0  0  0  0  0  0
    0.2100   -0.8380    1.8790 H   0  0  0  0  0  0  0  0  0  0  0  0
    1.0300   -1.5290   -0.7260 N   0  0  0  0  0  0  0  0  0  0  0  0
    1.2040   -2.4350   -1.8600 C   0  0  1  0  0  0  0  0  0  0  0  0
    0.9660   -3.8480   -1.3980 C   0  0  0  0  0  0  0  0  0  0  0  0
   -0.3960   -4.0630   -0.8520 C   0  0  0  0  0  0  0  0  0  0  0  0
   -0.8630   -3.9460    0.4410 C   0  0  0  0  0  0  0  0  0  0  0  0
   -2.1850   -4.2470    0.4820 N   0  0  0  0  0  0  0  0  0  0  0  0
   -2.5630   -4.5540   -0.7720 C   0  0  0  0  0  0  0  0  0  0  0  0
   -1.4830   -4.4410   -1.5660 N   0  0  0  0  0  0  0  0  0  0  0  0
    0.1270   -2.0970   -2.8370 C   0  0  0  0  0  0  0  0  0  0  0  0
   -0.7120   -1.1880   -2.6150 O   0  0  0  0  0  0  0  0  0  0  0  0
    0.0120   -2.7800   -4.0390 O   0  0  0  0  0  0  0  0  0  0  0  0
    0.0920   -1.5780   -0.2590 H   0  0  0  0  0  0  0  0  0  0  0  0
    2.2070   -2.3120   -2.3160 H   0  0  0  0  0  0  0  0  0  0  0  0
    1.6790   -4.1340   -0.5700 H   0  0  0  0  0  0  0  0  0  0  0  0
    1.1250   -4.5230   -2.2770 H   0  0  0  0  0  0  0  0  0  0  0  0
   -0.2760   -3.6600    1.3020 H   0  0  0  0  0  0  0  0  0  0  0  0
   -2.7890   -4.2350    1.3500 H   0  0  0  0  0  0  0  0  0  0  0  0
   -3.5840   -4.8420   -1.0620 H   0  0  0  0  0  0  0  0  0  0  0  0
  1 10  1  0  0  0  0
  2 12  1  6  0  0  0
  2  1  1  0  0  0  0
  2  3  1  0  0  0  0
  3 13  1  0  0  0  0
  3 14  1  0  0  0  0
  4  5  1  0  0  0  0
  4  3  1  0  0  0  0
  4 16  1  0  0  0  0
  5  6  2  0  0  0  0
  7 22  1  0  0  0  0
  7  2  1  0  0  0  0
  8  7  2  0  0  0  0
  9 17  1  0  0  0  0
  9  5  1  0  0  0  0
 11  1  1  0  0  0  0
 15  4  1  0  0  0  0
 18 19  1  0  0  0  0
 18 27  1  0  0  0  0
 19 28  1  1  0  0  0
 19 20  1  0  0  0  0
 20 29  1  0  0  0  0
 21 30  1  6  0  0  0
 21 22  1  0  0  0  0
 21 19  1  0  0  0  0
 22 31  1  0  0  0  0
 23 21  1  0  0  0  0
 24 23  2  0  0  0  0
 25 18  1  0  0  0  0
 26 18  1  0  0  0  0
 32 23  1  0  0  0  0
 32 43  1  0  0  0  0
 33 44  1  6  0  0  0
 33 34  1  0  0  0  0
 33 32  1  0  0  0  0
 34 35  1  0  0  0  0
 34 45  1  0  0  0  0
 35 36  2  0  0  0  0
 36 37  1  0  0  0  0
 36 47  1  0  0  0  0
 37 48  1  0  0  0  0
 38 37  1  0  0  0  0
 39 35  1  0  0  0  0
 39 38  2  0  0  0  0
 40 41  1  0  0  0  0
 40 33  1  0  0  0  0
 42 40  2  0  0  0  0
 46 34  1  0  0  0  0
 49 38  1  0  0  0  0
M  END
$$$$
