ETI.pdb
 OpenBabel07022418203D

 51 50  0  0  1  0  0  0  0  0999 V2000
    4.6140   -1.4380    0.4160 N   0  0  0  0  0  0  0  0  0  0  0  0
    3.6310   -0.5380   -0.2010 C   0  0  1  0  0  0  0  0  0  0  0  0
    3.2330   -1.2050   -1.5000 C   0  0  0  0  0  0  0  0  0  0  0  0
    4.4080   -1.3990   -2.4160 C   0  0  0  0  0  0  0  0  0  0  0  0
    5.0850   -0.1550   -2.8090 C   0  0  0  0  0  0  0  0  0  0  0  0
    5.8230    0.4320   -1.9890 O   0  0  0  0  0  0  0  0  0  0  0  0
    2.4850   -0.4320    0.7350 C   0  0  0  0  0  0  0  0  0  0  0  0
    2.4650   -1.0670    1.8450 O   0  0  0  0  0  0  0  0  0  0  0  0
    4.9270    0.3890   -4.0660 O   0  0  0  0  0  0  0  0  0  0  0  0
    4.2160   -2.4160    0.2800 H   0  0  0  0  0  0  0  0  0  0  0  0
    4.5730   -1.2940    1.4570 H   0  0  0  0  0  0  0  0  0  0  0  0
    4.1420    0.4260   -0.3690 H   0  0  0  0  0  0  0  0  0  0  0  0
    2.4840   -0.6020   -2.0240 H   0  0  0  0  0  0  0  0  0  0  0  0
    2.8030   -2.2100   -1.3240 H   0  0  0  0  0  0  0  0  0  0  0  0
    4.0050   -1.9480   -3.3180 H   0  0  0  0  0  0  0  0  0  0  0  0
    5.1470   -2.1360   -1.9820 H   0  0  0  0  0  0  0  0  0  0  0  0
    5.4350    1.1800   -4.3930 H   0  0  0  0  0  0  0  0  0  0  0  0
    1.3090    2.2170    2.7110 C   0  0  0  0  0  0  0  0  0  0  0  0
    0.0530    1.8350    1.9560 C   0  0  1  0  0  0  0  0  0  0  0  0
   -0.2410    2.7450    0.9470 O   0  0  0  0  0  0  0  0  0  0  0  0
    0.2480    0.4360    1.4250 C   0  0  2  0  0  0  0  0  0  0  0  0
    1.3390    0.3720    0.4710 N   0  0  0  0  0  0  0  0  0  0  0  0
   -0.9640   -0.0820    0.7420 C   0  0  0  0  0  0  0  0  0  0  0  0
   -0.9440   -0.4600   -0.4510 O   0  0  0  0  0  0  0  0  0  0  0  0
    2.1950    1.6230    2.4100 H   0  0  0  0  0  0  0  0  0  0  0  0
    1.5650    3.2780    2.5390 H   0  0  0  0  0  0  0  0  0  0  0  0
    1.2050    2.0860    3.8100 H   0  0  0  0  0  0  0  0  0  0  0  0
   -0.7820    1.8160    2.6850 H   0  0  0  0  0  0  0  0  0  0  0  0
    0.2170    3.6120    1.1070 H   0  0  0  0  0  0  0  0  0  0  0  0
    0.4700   -0.2060    2.3040 H   0  0  0  0  0  0  0  0  0  0  0  0
    1.3020    0.9050   -0.4110 H   0  0  0  0  0  0  0  0  0  0  0  0
   -2.5290   -4.1820    2.0540 C   0  0  0  0  0  0  0  0  0  0  0  0
   -2.5180   -2.8750    1.3260 C   0  0  0  0  0  0  0  0  0  0  0  0
   -3.6830   -1.9750    1.6120 C   0  0  2  0  0  0  0  0  0  0  0  0
   -4.9760   -2.6040    1.2350 C   0  0  0  0  0  0  0  0  0  0  0  0
   -3.4300   -0.6430    0.8880 C   0  0  2  0  0  0  0  0  0  0  0  0
   -2.1880   -0.1540    1.4560 N   0  0  0  0  0  0  0  0  0  0  0  0
   -4.5450    0.2840    1.0970 C   0  0  0  0  0  0  0  0  0  0  0  0
   -4.3750    1.3590    1.7150 O   0  0  0  0  0  0  0  0  0  0  0  0
   -5.8110   -0.0020    0.6200 O   0  0  0  0  0  0  0  0  0  0  0  0
   -1.9520   -4.0590    3.0090 H   0  0  0  0  0  0  0  0  0  0  0  0
   -3.5100   -4.5960    2.2670 H   0  0  0  0  0  0  0  0  0  0  0  0
   -1.9200   -4.9020    1.4350 H   0  0  0  0  0  0  0  0  0  0  0  0
   -2.4750   -3.0320    0.2250 H   0  0  0  0  0  0  0  0  0  0  0  0
   -1.5540   -2.3580    1.5910 H   0  0  0  0  0  0  0  0  0  0  0  0
   -3.6700   -1.6980    2.7070 H   0  0  0  0  0  0  0  0  0  0  0  0
   -5.7600   -2.3150    1.9880 H   0  0  0  0  0  0  0  0  0  0  0  0
   -5.2450   -2.2140    0.2150 H   0  0  0  0  0  0  0  0  0  0  0  0
   -4.9410   -3.7060    1.2020 H   0  0  0  0  0  0  0  0  0  0  0  0
   -3.3540   -0.9060   -0.1660 H   0  0  0  0  0  0  0  0  0  0  0  0
   -2.1760    0.1670    2.4490 H   0  0  0  0  0  0  0  0  0  0  0  0
  1 11  1  0  0  0  0
  2 12  1  6  0  0  0
  2  1  1  0  0  0  0
  2  7  1  0  0  0  0
  3 14  1  0  0  0  0
  3  2  1  0  0  0  0
  4 16  1  0  0  0  0
  4  3  1  0  0  0  0
  5  4  1  0  0  0  0
  5  6  2  0  0  0  0
  7  8  2  0  0  0  0
  9  5  1  0  0  0  0
 10  1  1  0  0  0  0
 13  3  1  0  0  0  0
 15  4  1  0  0  0  0
 17  9  1  0  0  0  0
 18 27  1  0  0  0  0
 19 28  1  1  0  0  0
 19 18  1  0  0  0  0
 20 29  1  0  0  0  0
 20 19  1  0  0  0  0
 21 19  1  0  0  0  0
 21 30  1  1  0  0  0
 22  7  1  0  0  0  0
 22 21  1  0  0  0  0
 23 21  1  0  0  0  0
 23 37  1  0  0  0  0
 24 23  2  0  0  0  0
 25 18  1  0  0  0  0
 26 18  1  0  0  0  0
 31 22  1  0  0  0  0
 32 42  1  0  0  0  0
 32 41  1  0  0  0  0
 33 45  1  0  0  0  0
 33 34  1  0  0  0  0
 33 32  1  0  0  0  0
 34 46  1  1  0  0  0
 35 34  1  0  0  0  0
 35 47  1  0  0  0  0
 36 50  1  6  0  0  0
 36 38  1  0  0  0  0
 36 37  1  0  0  0  0
 36 34  1  0  0  0  0
 37 51  1  0  0  0  0
 38 39  1  0  0  0  0
 40 38  2  0  0  0  0
 43 32  1  0  0  0  0
 44 33  1  0  0  0  0
 48 35  1  0  0  0  0
 49 35  1  0  0  0  0
M  END
$$$$
