ETL.pdb
 OpenBabel07022418203D

 51 50  0  0  1  0  0  0  0  0999 V2000
   -2.2640   -2.3920    1.9530 N   0  0  0  0  0  0  0  0  0  0  0  0
   -2.3020   -3.0270    0.6440 C   0  0  1  0  0  0  0  0  0  0  0  0
   -3.6890   -3.3800    0.3130 C   0  0  0  0  0  0  0  0  0  0  0  0
   -4.7180   -2.3190    0.2800 C   0  0  0  0  0  0  0  0  0  0  0  0
   -4.5640   -1.2350   -0.6780 C   0  0  0  0  0  0  0  0  0  0  0  0
   -3.6270   -1.2160   -1.4980 O   0  0  0  0  0  0  0  0  0  0  0  0
   -1.4410   -2.3780   -0.3080 C   0  0  0  0  0  0  0  0  0  0  0  0
   -1.2350   -2.9650   -1.4310 O   0  0  0  0  0  0  0  0  0  0  0  0
   -5.4480   -0.1510   -0.7430 O   0  0  0  0  0  0  0  0  0  0  0  0
   -2.8310   -2.9870    2.6030 H   0  0  0  0  0  0  0  0  0  0  0  0
   -1.2660   -2.4930    2.2910 H   0  0  0  0  0  0  0  0  0  0  0  0
   -1.7810   -4.0450    0.8630 H   0  0  0  0  0  0  0  0  0  0  0  0
   -4.0310   -4.1120    1.1170 H   0  0  0  0  0  0  0  0  0  0  0  0
   -3.7830   -3.9980   -0.6150 H   0  0  0  0  0  0  0  0  0  0  0  0
   -5.7430   -2.7720    0.0600 H   0  0  0  0  0  0  0  0  0  0  0  0
   -4.9040   -1.8790    1.3180 H   0  0  0  0  0  0  0  0  0  0  0  0
   -5.0570    0.7470   -1.0270 H   0  0  0  0  0  0  0  0  0  0  0  0
    0.7020    1.3460   -2.5080 C   0  0  0  0  0  0  0  0  0  0  0  0
   -0.2910    0.8790   -1.4670 C   0  0  1  0  0  0  0  0  0  0  0  0
   -1.5710    1.0110   -1.9910 O   0  0  0  0  0  0  0  0  0  0  0  0
    0.0670   -0.5280   -1.0920 C   0  0  2  0  0  0  0  0  0  0  0  0
   -0.7910   -1.1130   -0.0840 N   0  0  0  0  0  0  0  0  0  0  0  0
    1.4780   -0.4910   -0.5590 C   0  0  0  0  0  0  0  0  0  0  0  0
    2.4290   -0.0250   -1.2210 O   0  0  0  0  0  0  0  0  0  0  0  0
    0.1730    2.0360   -3.1890 H   0  0  0  0  0  0  0  0  0  0  0  0
    1.5130    1.9550   -2.0460 H   0  0  0  0  0  0  0  0  0  0  0  0
    1.1360    0.5050   -3.0910 H   0  0  0  0  0  0  0  0  0  0  0  0
   -0.2310    1.5730   -0.6010 H   0  0  0  0  0  0  0  0  0  0  0  0
   -1.5420    1.7620   -2.6390 H   0  0  0  0  0  0  0  0  0  0  0  0
    0.0540   -1.1400   -2.0290 H   0  0  0  0  0  0  0  0  0  0  0  0
   -0.9610   -0.6400    0.8210 H   0  0  0  0  0  0  0  0  0  0  0  0
    2.9510    1.9110    3.7800 C   0  0  0  0  0  0  0  0  0  0  0  0
    2.8480    1.2370    2.4010 C   0  0  0  0  0  0  0  0  0  0  0  0
    1.5100    1.6330    1.8550 C   0  0  0  0  0  0  0  0  0  0  0  0
    3.0700   -0.2140    2.6130 C   0  0  0  0  0  0  0  0  0  0  0  0
    3.0170   -1.0490    1.3750 C   0  0  2  0  0  0  0  0  0  0  0  0
    1.7540   -0.9960    0.7230 N   0  0  0  0  0  0  0  0  0  0  0  0
    3.4460   -2.4640    1.6500 C   0  0  0  0  0  0  0  0  0  0  0  0
    4.5370   -2.7120    2.2200 O   0  0  0  0  0  0  0  0  0  0  0  0
    2.6580   -3.5460    1.2880 O   0  0  0  0  0  0  0  0  0  0  0  0
    2.2100    1.4070    4.4200 H   0  0  0  0  0  0  0  0  0  0  0  0
    3.9720    1.8390    4.1770 H   0  0  0  0  0  0  0  0  0  0  0  0
    2.6050    2.9580    3.6410 H   0  0  0  0  0  0  0  0  0  0  0  0
    3.6290    1.6730    1.7220 H   0  0  0  0  0  0  0  0  0  0  0  0
    0.7390    0.8640    1.8940 H   0  0  0  0  0  0  0  0  0  0  0  0
    1.6120    2.0370    0.8100 H   0  0  0  0  0  0  0  0  0  0  0  0
    1.0920    2.5190    2.4190 H   0  0  0  0  0  0  0  0  0  0  0  0
    2.3110   -0.6490    3.3240 H   0  0  0  0  0  0  0  0  0  0  0  0
    4.0470   -0.4150    3.1180 H   0  0  0  0  0  0  0  0  0  0  0  0
    3.8300   -0.6330    0.6990 H   0  0  0  0  0  0  0  0  0  0  0  0
    0.9290   -1.3900    1.2600 H   0  0  0  0  0  0  0  0  0  0  0  0
  1 11  1  0  0  0  0
  1 10  1  0  0  0  0
  2 12  1  1  0  0  0
  2  1  1  0  0  0  0
  3  2  1  0  0  0  0
  3 13  1  0  0  0  0
  4  3  1  0  0  0  0
  4 16  1  0  0  0  0
  5  4  1  0  0  0  0
  6  5  2  0  0  0  0
  7 22  1  0  0  0  0
  7  2  1  0  0  0  0
  8  7  2  0  0  0  0
  9  5  1  0  0  0  0
 14  3  1  0  0  0  0
 15  4  1  0  0  0  0
 17  9  1  0  0  0  0
 18 26  1  0  0  0  0
 18 19  1  0  0  0  0
 19 21  1  0  0  0  0
 19 28  1  1  0  0  0
 20 19  1  0  0  0  0
 21 30  1  6  0  0  0
 21 23  1  0  0  0  0
 21 22  1  0  0  0  0
 22 31  1  0  0  0  0
 23 37  1  0  0  0  0
 24 23  2  0  0  0  0
 25 18  1  0  0  0  0
 27 18  1  0  0  0  0
 29 20  1  0  0  0  0
 32 42  1  0  0  0  0
 32 41  1  0  0  0  0
 33 35  1  0  0  0  0
 33 32  1  0  0  0  0
 34 45  1  0  0  0  0
 34 33  1  0  0  0  0
 34 47  1  0  0  0  0
 35 49  1  0  0  0  0
 35 48  1  0  0  0  0
 36 50  1  6  0  0  0
 36 38  1  0  0  0  0
 36 35  1  0  0  0  0
 37 51  1  0  0  0  0
 37 36  1  0  0  0  0
 38 39  1  0  0  0  0
 40 38  2  0  0  0  0
 43 32  1  0  0  0  0
 44 33  1  0  0  0  0
 46 34  1  0  0  0  0
M  END
$$$$
