ETM.pdb
 OpenBabel07022418203D

 49 48  0  0  1  0  0  0  0  0999 V2000
    0.6740   -1.8970    2.8940 N   0  0  0  0  0  0  0  0  0  0  0  0
    1.1210   -0.5390    3.1030 C   0  0  1  0  0  0  0  0  0  0  0  0
    2.5140   -0.5870    3.6860 C   0  0  0  0  0  0  0  0  0  0  0  0
    3.4660   -1.2900    2.7400 C   0  0  0  0  0  0  0  0  0  0  0  0
    4.8260   -1.3230    3.3340 C   0  0  0  0  0  0  0  0  0  0  0  0
    5.0060   -0.8160    4.4620 O   0  0  0  0  0  0  0  0  0  0  0  0
    1.1850    0.2240    1.8280 C   0  0  0  0  0  0  0  0  0  0  0  0
    1.5780    1.4030    1.8810 O   0  0  0  0  0  0  0  0  0  0  0  0
    5.8690   -1.9070    2.6430 O   0  0  0  0  0  0  0  0  0  0  0  0
   -0.3130   -2.0490    3.2080 H   0  0  0  0  0  0  0  0  0  0  0  0
    1.3040   -2.6100    3.3580 H   0  0  0  0  0  0  0  0  0  0  0  0
    0.4450   -0.0820    3.8480 H   0  0  0  0  0  0  0  0  0  0  0  0
    2.5140   -1.1470    4.6530 H   0  0  0  0  0  0  0  0  0  0  0  0
    2.8570    0.4410    3.9140 H   0  0  0  0  0  0  0  0  0  0  0  0
    3.5150   -0.7390    1.7550 H   0  0  0  0  0  0  0  0  0  0  0  0
    3.1300   -2.3050    2.5090 H   0  0  0  0  0  0  0  0  0  0  0  0
    6.7990   -1.7740    3.0480 H   0  0  0  0  0  0  0  0  0  0  0  0
    1.5800   -1.4470   -2.1780 C   0  0  0  0  0  0  0  0  0  0  0  0
    1.8330   -0.0720   -1.6690 C   0  0  1  0  0  0  0  0  0  0  0  0
    1.7610    0.7990   -2.7750 O   0  0  0  0  0  0  0  0  0  0  0  0
    0.8990    0.4340   -0.6260 C   0  0  2  0  0  0  0  0  0  0  0  0
    0.8270   -0.3150    0.5810 N   0  0  0  0  0  0  0  0  0  0  0  0
   -0.4590    0.7690   -1.1060 C   0  0  0  0  0  0  0  0  0  0  0  0
   -0.5940    1.3440   -2.1930 O   0  0  0  0  0  0  0  0  0  0  0  0
    0.5370   -1.7610   -2.1580 H   0  0  0  0  0  0  0  0  0  0  0  0
    1.8940   -1.5480   -3.2630 H   0  0  0  0  0  0  0  0  0  0  0  0
    2.2650   -2.1730   -1.6440 H   0  0  0  0  0  0  0  0  0  0  0  0
    2.8840    0.0360   -1.2850 H   0  0  0  0  0  0  0  0  0  0  0  0
    1.7110    1.7440   -2.5130 H   0  0  0  0  0  0  0  0  0  0  0  0
    1.3200    1.4590   -0.3160 H   0  0  0  0  0  0  0  0  0  0  0  0
    0.4990   -1.3090    0.5720 H   0  0  0  0  0  0  0  0  0  0  0  0
   -2.1980   -3.1130    0.6770 C   0  0  0  0  0  0  0  0  0  0  0  0
   -2.1020   -2.4400   -1.0200 S   0  0  0  0  0  0  0  0  0  0  0  0
   -3.6290   -1.6080   -1.4180 C   0  0  0  0  0  0  0  0  0  0  0  0
   -3.9040   -0.3870   -0.6230 C   0  0  0  0  0  0  0  0  0  0  0  0
   -2.9440    0.7350   -0.7180 C   0  0  2  0  0  0  0  0  0  0  0  0
   -1.5800    0.4370   -0.3260 N   0  0  0  0  0  0  0  0  0  0  0  0
   -3.4930    1.8460    0.1330 C   0  0  0  0  0  0  0  0  0  0  0  0
   -4.6470    2.2690   -0.0530 O   0  0  0  0  0  0  0  0  0  0  0  0
   -2.7240    2.4010    1.1250 O   0  0  0  0  0  0  0  0  0  0  0  0
   -3.2860   -3.2870    0.9110 H   0  0  0  0  0  0  0  0  0  0  0  0
   -1.6540   -4.0510    0.7860 H   0  0  0  0  0  0  0  0  0  0  0  0
   -1.8630   -2.3570    1.3990 H   0  0  0  0  0  0  0  0  0  0  0  0
   -4.4930   -2.3090   -1.2310 H   0  0  0  0  0  0  0  0  0  0  0  0
   -3.6700   -1.4220   -2.5230 H   0  0  0  0  0  0  0  0  0  0  0  0
   -4.8930    0.0100   -1.0070 H   0  0  0  0  0  0  0  0  0  0  0  0
   -4.1570   -0.6460    0.4490 H   0  0  0  0  0  0  0  0  0  0  0  0
   -2.9070    1.0850   -1.7830 H   0  0  0  0  0  0  0  0  0  0  0  0
   -1.4240   -0.0490    0.5840 H   0  0  0  0  0  0  0  0  0  0  0  0
  1  2  1  0  0  0  0
  1 10  1  0  0  0  0
  1 11  1  0  0  0  0
  2  3  1  0  0  0  0
  2 12  1  1  0  0  0
  3 14  1  0  0  0  0
  3 13  1  0  0  0  0
  4  5  1  0  0  0  0
  4  3  1  0  0  0  0
  5  6  2  0  0  0  0
  7  8  2  0  0  0  0
  7  2  1  0  0  0  0
  9 17  1  0  0  0  0
  9  5  1  0  0  0  0
 15  4  1  0  0  0  0
 16  4  1  0  0  0  0
 18 25  1  0  0  0  0
 18 19  1  0  0  0  0
 18 27  1  0  0  0  0
 19 28  1  1  0  0  0
 19 21  1  0  0  0  0
 20 29  1  0  0  0  0
 20 19  1  0  0  0  0
 21 30  1  1  0  0  0
 21 22  1  0  0  0  0
 22  7  1  0  0  0  0
 23 21  1  0  0  0  0
 23 37  1  0  0  0  0
 24 23  2  0  0  0  0
 26 18  1  0  0  0  0
 31 22  1  0  0  0  0
 32 42  1  0  0  0  0
 32 41  1  0  0  0  0
 32 43  1  0  0  0  0
 33 32  1  0  0  0  0
 34 44  1  0  0  0  0
 34 33  1  0  0  0  0
 34 35  1  0  0  0  0
 35 47  1  0  0  0  0
 36 48  1  6  0  0  0
 36 35  1  0  0  0  0
 36 37  1  0  0  0  0
 36 38  1  0  0  0  0
 37 49  1  0  0  0  0
 38 40  1  0  0  0  0
 39 38  2  0  0  0  0
 45 34  1  0  0  0  0
 46 35  1  0  0  0  0
M  END
$$$$
