ETN.pdb
 OpenBabel07022418203D

 46 45  0  0  1  0  0  0  0  0999 V2000
    4.1020   -3.1780   -0.1650 N   0  0  0  0  0  0  0  0  0  0  0  0
    3.4800   -1.9020   -0.7030 C   0  0  1  0  0  0  0  0  0  0  0  0
    3.0820   -2.2900   -2.0770 C   0  0  0  0  0  0  0  0  0  0  0  0
    2.4620   -1.3080   -2.9720 C   0  0  0  0  0  0  0  0  0  0  0  0
    1.2040   -0.6900   -2.5910 C   0  0  0  0  0  0  0  0  0  0  0  0
    1.0440    0.5820   -2.6440 O   0  0  0  0  0  0  0  0  0  0  0  0
    2.3960   -1.6340    0.2620 C   0  0  0  0  0  0  0  0  0  0  0  0
    1.9450   -2.5720    1.0230 O   0  0  0  0  0  0  0  0  0  0  0  0
    0.0940   -1.4130   -2.1490 O   0  0  0  0  0  0  0  0  0  0  0  0
    3.3430   -3.8610    0.0340 H   0  0  0  0  0  0  0  0  0  0  0  0
    4.5570   -2.8680    0.7160 H   0  0  0  0  0  0  0  0  0  0  0  0
    4.2900   -1.1670   -0.6440 H   0  0  0  0  0  0  0  0  0  0  0  0
    2.3970   -3.1860   -2.0120 H   0  0  0  0  0  0  0  0  0  0  0  0
    3.9780   -2.7170   -2.6360 H   0  0  0  0  0  0  0  0  0  0  0  0
    2.2740   -1.8500   -3.9610 H   0  0  0  0  0  0  0  0  0  0  0  0
    3.1670   -0.4900   -3.2810 H   0  0  0  0  0  0  0  0  0  0  0  0
   -0.8510   -1.0160   -2.2440 H   0  0  0  0  0  0  0  0  0  0  0  0
    2.3810   -0.1430    3.3260 C   0  0  0  0  0  0  0  0  0  0  0  0
    1.2560    0.5650    2.6510 C   0  0  1  0  0  0  0  0  0  0  0  0
    1.6840    1.8130    2.2300 O   0  0  0  0  0  0  0  0  0  0  0  0
    0.7360   -0.2190    1.4400 C   0  0  2  0  0  0  0  0  0  0  0  0
    1.7640   -0.3730    0.4590 N   0  0  0  0  0  0  0  0  0  0  0  0
   -0.5430    0.3530    0.9750 C   0  0  0  0  0  0  0  0  0  0  0  0
   -0.7170    0.8040   -0.1780 O   0  0  0  0  0  0  0  0  0  0  0  0
    3.1940   -0.3730    2.6120 H   0  0  0  0  0  0  0  0  0  0  0  0
    2.8200    0.5360    4.0810 H   0  0  0  0  0  0  0  0  0  0  0  0
    2.0690   -1.0690    3.8530 H   0  0  0  0  0  0  0  0  0  0  0  0
    0.4200    0.6620    3.3840 H   0  0  0  0  0  0  0  0  0  0  0  0
    1.2420    2.5440    2.7440 H   0  0  0  0  0  0  0  0  0  0  0  0
    0.4870   -1.2400    1.8530 H   0  0  0  0  0  0  0  0  0  0  0  0
    2.0640    0.4570   -0.1160 H   0  0  0  0  0  0  0  0  0  0  0  0
   -3.7160   -0.9690    3.4840 N   0  0  0  0  0  0  0  0  0  0  0  0
   -4.1200   -1.1100    2.1390 C   0  0  0  0  0  0  0  0  0  0  0  0
   -4.8250   -2.1430    1.8830 O   0  0  0  0  0  0  0  0  0  0  0  0
   -3.8170   -0.2090    1.0380 C   0  0  0  0  0  0  0  0  0  0  0  0
   -2.9060    0.9640    1.4120 C   0  0  2  0  0  0  0  0  0  0  0  0
   -1.6730    0.4050    1.8860 N   0  0  0  0  0  0  0  0  0  0  0  0
   -3.5700    1.8560    2.3730 C   0  0  0  0  0  0  0  0  0  0  0  0
   -3.0180    2.0720    3.4820 O   0  0  0  0  0  0  0  0  0  0  0  0
   -4.7800    2.4780    2.1300 O   0  0  0  0  0  0  0  0  0  0  0  0
   -4.1330   -0.3190    4.1860 H   0  0  0  0  0  0  0  0  0  0  0  0
   -2.9170   -1.5600    3.8720 H   0  0  0  0  0  0  0  0  0  0  0  0
   -3.3600   -0.7390    0.1770 H   0  0  0  0  0  0  0  0  0  0  0  0
   -4.7600    0.2400    0.6580 H   0  0  0  0  0  0  0  0  0  0  0  0
   -2.7300    1.5000    0.4420 H   0  0  0  0  0  0  0  0  0  0  0  0
   -1.4930    0.0240    2.8350 H   0  0  0  0  0  0  0  0  0  0  0  0
  1 10  1  0  0  0  0
  1 11  1  0  0  0  0
  2 12  1  6  0  0  0
  2  1  1  0  0  0  0
  2  7  1  0  0  0  0
  3 13  1  0  0  0  0
  3  2  1  0  0  0  0
  4  5  1  0  0  0  0
  4  3  1  0  0  0  0
  5  9  1  0  0  0  0
  6  5  2  0  0  0  0
  7 22  1  0  0  0  0
  7  8  2  0  0  0  0
 14  3  1  0  0  0  0
 15  4  1  0  0  0  0
 16  4  1  0  0  0  0
 17  9  1  0  0  0  0
 18 27  1  0  0  0  0
 18 26  1  0  0  0  0
 19 18  1  0  0  0  0
 19 28  1  1  0  0  0
 20 19  1  0  0  0  0
 20 29  1  0  0  0  0
 21 30  1  1  0  0  0
 21 19  1  0  0  0  0
 22 21  1  0  0  0  0
 23 21  1  0  0  0  0
 23 37  1  0  0  0  0
 24 23  2  0  0  0  0
 25 18  1  0  0  0  0
 31 22  1  0  0  0  0
 32 42  1  0  0  0  0
 32 41  1  0  0  0  0
 33 32  1  0  0  0  0
 34 33  2  0  0  0  0
 35 36  1  0  0  0  0
 35 33  1  0  0  0  0
 36 45  1  6  0  0  0
 36 37  1  0  0  0  0
 36 38  1  0  0  0  0
 37 46  1  0  0  0  0
 38 39  1  0  0  0  0
 40 38  2  0  0  0  0
 43 35  1  0  0  0  0
 44 35  1  0  0  0  0
M  END
$$$$
