ETQ.pdb
 OpenBabel07022418203D

 49 48  0  0  1  0  0  0  0  0999 V2000
    4.1900   -0.1520    3.4670 N   0  0  0  0  0  0  0  0  0  0  0  0
    2.8460    0.1720    2.9140 C   0  0  1  0  0  0  0  0  0  0  0  0
    3.0640    1.4830    2.2020 C   0  0  0  0  0  0  0  0  0  0  0  0
    1.8580    2.0500    1.5350 C   0  0  0  0  0  0  0  0  0  0  0  0
    2.1210    3.3450    0.8690 C   0  0  0  0  0  0  0  0  0  0  0  0
    3.2590    3.8450    0.9080 O   0  0  0  0  0  0  0  0  0  0  0  0
    2.4710   -0.9530    2.0760 C   0  0  0  0  0  0  0  0  0  0  0  0
    3.2980   -1.8420    1.6680 O   0  0  0  0  0  0  0  0  0  0  0  0
    1.1060    3.9940    0.2090 O   0  0  0  0  0  0  0  0  0  0  0  0
    4.3380   -1.1680    3.4760 H   0  0  0  0  0  0  0  0  0  0  0  0
    4.3100    0.2560    4.4090 H   0  0  0  0  0  0  0  0  0  0  0  0
    2.2050    0.3260    3.7980 H   0  0  0  0  0  0  0  0  0  0  0  0
    3.4880    2.2100    2.9280 H   0  0  0  0  0  0  0  0  0  0  0  0
    3.8280    1.2830    1.3930 H   0  0  0  0  0  0  0  0  0  0  0  0
    1.5800    1.3580    0.6780 H   0  0  0  0  0  0  0  0  0  0  0  0
    1.0220    2.1920    2.2280 H   0  0  0  0  0  0  0  0  0  0  0  0
    1.1780    4.9530   -0.1440 H   0  0  0  0  0  0  0  0  0  0  0  0
   -0.2090   -4.5130    0.7210 C   0  0  0  0  0  0  0  0  0  0  0  0
    0.1200   -3.3680    1.6540 C   0  0  1  0  0  0  0  0  0  0  0  0
    0.9720   -3.8530    2.6180 O   0  0  0  0  0  0  0  0  0  0  0  0
    0.7550   -2.2460    0.8370 C   0  0  2  0  0  0  0  0  0  0  0  0
    1.1270   -1.1350    1.6560 N   0  0  0  0  0  0  0  0  0  0  0  0
   -0.0910   -1.8530   -0.2860 C   0  0  0  0  0  0  0  0  0  0  0  0
   -0.4470   -2.6950   -1.1910 O   0  0  0  0  0  0  0  0  0  0  0  0
    0.5990   -4.5090   -0.0590 H   0  0  0  0  0  0  0  0  0  0  0  0
   -1.2080   -4.4050    0.2580 H   0  0  0  0  0  0  0  0  0  0  0  0
   -0.0920   -5.4860    1.2520 H   0  0  0  0  0  0  0  0  0  0  0  0
   -0.8310   -2.9780    2.0640 H   0  0  0  0  0  0  0  0  0  0  0  0
    1.7360   -4.3450    2.2810 H   0  0  0  0  0  0  0  0  0  0  0  0
    1.6900   -2.7010    0.4460 H   0  0  0  0  0  0  0  0  0  0  0  0
    0.3850   -0.4600    1.9410 H   0  0  0  0  0  0  0  0  0  0  0  0
   -4.6610   -2.6970   -0.0280 N   0  0  0  0  0  0  0  0  0  0  0  0
   -3.9320   -1.7530   -0.7860 C   0  0  0  0  0  0  0  0  0  0  0  0
   -3.6990   -1.9980   -1.9870 O   0  0  0  0  0  0  0  0  0  0  0  0
   -3.4670   -0.5210   -0.1700 C   0  0  0  0  0  0  0  0  0  0  0  0
   -2.6900    0.3800   -1.0670 C   0  0  0  0  0  0  0  0  0  0  0  0
   -1.4370   -0.2000   -1.6340 C   0  0  2  0  0  0  0  0  0  0  0  0
   -0.5880   -0.5470   -0.4800 N   0  0  0  0  0  0  0  0  0  0  0  0
   -0.7710    0.8820   -2.4190 C   0  0  0  0  0  0  0  0  0  0  0  0
   -1.2810    1.3660   -3.4560 O   0  0  0  0  0  0  0  0  0  0  0  0
    0.4480    1.3610   -1.9800 O   0  0  0  0  0  0  0  0  0  0  0  0
   -5.4540   -2.3830    0.5920 H   0  0  0  0  0  0  0  0  0  0  0  0
   -4.4260   -3.7070   -0.0740 H   0  0  0  0  0  0  0  0  0  0  0  0
   -2.8170   -0.7060    0.7370 H   0  0  0  0  0  0  0  0  0  0  0  0
   -4.3430    0.0320    0.2390 H   0  0  0  0  0  0  0  0  0  0  0  0
   -2.4310    1.3440   -0.5860 H   0  0  0  0  0  0  0  0  0  0  0  0
   -3.3400    0.6660   -1.9440 H   0  0  0  0  0  0  0  0  0  0  0  0
   -1.5660   -1.1100   -2.2320 H   0  0  0  0  0  0  0  0  0  0  0  0
   -0.3790    0.2100    0.1910 H   0  0  0  0  0  0  0  0  0  0  0  0
  1 10  1  0  0  0  0
  1 11  1  0  0  0  0
  2  1  1  0  0  0  0
  2 12  1  1  0  0  0
  3  2  1  0  0  0  0
  3 13  1  0  0  0  0
  4  3  1  0  0  0  0
  4 16  1  0  0  0  0
  5  6  2  0  0  0  0
  5  4  1  0  0  0  0
  7  2  1  0  0  0  0
  8  7  2  0  0  0  0
  9  5  1  0  0  0  0
 14  3  1  0  0  0  0
 15  4  1  0  0  0  0
 17  9  1  0  0  0  0
 18 27  1  0  0  0  0
 18 19  1  0  0  0  0
 19 28  1  1  0  0  0
 19 20  1  0  0  0  0
 21 30  1  6  0  0  0
 21 19  1  0  0  0  0
 21 22  1  0  0  0  0
 22 31  1  0  0  0  0
 22  7  1  0  0  0  0
 23 21  1  0  0  0  0
 24 23  2  0  0  0  0
 25 18  1  0  0  0  0
 26 18  1  0  0  0  0
 29 20  1  0  0  0  0
 32 42  1  0  0  0  0
 33 35  1  0  0  0  0
 33 32  1  0  0  0  0
 34 33  2  0  0  0  0
 35 45  1  0  0  0  0
 35 44  1  0  0  0  0
 36 46  1  0  0  0  0
 36 35  1  0  0  0  0
 37 48  1  6  0  0  0
 37 36  1  0  0  0  0
 37 38  1  0  0  0  0
 38 23  1  0  0  0  0
 38 49  1  0  0  0  0
 39 41  1  0  0  0  0
 39 37  1  0  0  0  0
 40 39  2  0  0  0  0
 43 32  1  0  0  0  0
 47 36  1  0  0  0  0
M  END
$$$$
