ETR.pdb
 OpenBabel07022418203D

 55 54  0  0  1  0  0  0  0  0999 V2000
    0.7520   -2.5850    5.3880 N   0  0  0  0  0  0  0  0  0  0  0  0
    1.5620   -2.0330    4.2790 C   0  0  1  0  0  0  0  0  0  0  0  0
    2.1600   -3.2170    3.6040 C   0  0  0  0  0  0  0  0  0  0  0  0
    3.0370   -2.9530    2.4350 C   0  0  0  0  0  0  0  0  0  0  0  0
    3.5430   -4.2790    1.9260 C   0  0  0  0  0  0  0  0  0  0  0  0
    3.2000   -5.3400    2.4930 O   0  0  0  0  0  0  0  0  0  0  0  0
    0.6810   -1.1990    3.4660 C   0  0  0  0  0  0  0  0  0  0  0  0
   -0.5760   -1.2550    3.7060 O   0  0  0  0  0  0  0  0  0  0  0  0
    4.3890   -4.3660    0.8310 O   0  0  0  0  0  0  0  0  0  0  0  0
    0.5630   -1.8780    6.1050 H   0  0  0  0  0  0  0  0  0  0  0  0
    1.1730   -3.4650    5.7400 H   0  0  0  0  0  0  0  0  0  0  0  0
    2.4000   -1.4340    4.7140 H   0  0  0  0  0  0  0  0  0  0  0  0
    2.8100   -3.7190    4.3820 H   0  0  0  0  0  0  0  0  0  0  0  0
    1.3940   -4.0060    3.3640 H   0  0  0  0  0  0  0  0  0  0  0  0
    3.9090   -2.3660    2.7170 H   0  0  0  0  0  0  0  0  0  0  0  0
    2.4990   -2.5250    1.5600 H   0  0  0  0  0  0  0  0  0  0  0  0
    5.1680   -5.0330    0.8610 H   0  0  0  0  0  0  0  0  0  0  0  0
    1.9960    2.2800    1.3800 C   0  0  0  0  0  0  0  0  0  0  0  0
    0.5830    1.9490    1.7820 C   0  0  1  0  0  0  0  0  0  0  0  0
   -0.2580    2.7610    1.0360 O   0  0  0  0  0  0  0  0  0  0  0  0
    0.2760    0.4760    1.6440 C   0  0  2  0  0  0  0  0  0  0  0  0
    1.1540   -0.3360    2.4330 N   0  0  0  0  0  0  0  0  0  0  0  0
    0.4050    0.1180    0.2150 C   0  0  0  0  0  0  0  0  0  0  0  0
    1.2460   -0.7570   -0.1090 O   0  0  0  0  0  0  0  0  0  0  0  0
    2.6410    2.4620    2.2650 H   0  0  0  0  0  0  0  0  0  0  0  0
    2.4600    1.5000    0.7510 H   0  0  0  0  0  0  0  0  0  0  0  0
    2.0470    3.2300    0.7750 H   0  0  0  0  0  0  0  0  0  0  0  0
    0.4650    2.2420    2.8480 H   0  0  0  0  0  0  0  0  0  0  0  0
    0.2250    3.4980    0.5850 H   0  0  0  0  0  0  0  0  0  0  0  0
   -0.7630    0.2940    2.0130 H   0  0  0  0  0  0  0  0  0  0  0  0
    2.1720   -0.3080    2.2720 H   0  0  0  0  0  0  0  0  0  0  0  0
   -5.6320    0.5640   -1.3370 N   0  0  0  0  0  0  0  0  0  0  0  0
   -4.8500   -0.6290   -1.3440 C   0  0  0  0  0  0  0  0  0  0  0  0
   -4.7000   -1.2890   -0.2470 N   0  0  0  0  0  0  0  0  0  0  0  0
   -4.2620   -1.0460   -2.5680 N   0  0  0  0  0  0  0  0  0  0  0  0
   -3.1980   -2.0250   -2.5950 C   0  0  0  0  0  0  0  0  0  0  0  0
   -1.9060   -1.5060   -1.9900 C   0  0  0  0  0  0  0  0  0  0  0  0
   -1.4570   -0.2960   -2.7770 C   0  0  0  0  0  0  0  0  0  0  0  0
   -0.1670    0.2780   -2.2290 C   0  0  2  0  0  0  0  0  0  0  0  0
   -0.3500    0.6810   -0.8460 N   0  0  0  0  0  0  0  0  0  0  0  0
    0.2970    1.4400   -3.0130 C   0  0  0  0  0  0  0  0  0  0  0  0
    0.4600    2.5380   -2.4310 O   0  0  0  0  0  0  0  0  0  0  0  0
    0.5650    1.3810   -4.3730 O   0  0  0  0  0  0  0  0  0  0  0  0
   -5.4980    1.2900   -2.1000 H   0  0  0  0  0  0  0  0  0  0  0  0
   -6.3460    0.7840   -0.6190 H   0  0  0  0  0  0  0  0  0  0  0  0
   -4.1340   -2.1520   -0.2550 H   0  0  0  0  0  0  0  0  0  0  0  0
   -4.6230   -0.6240   -3.4470 H   0  0  0  0  0  0  0  0  0  0  0  0
   -2.9970   -2.3660   -3.6300 H   0  0  0  0  0  0  0  0  0  0  0  0
   -3.5540   -2.9300   -2.0440 H   0  0  0  0  0  0  0  0  0  0  0  0
   -1.9930   -1.3050   -0.9180 H   0  0  0  0  0  0  0  0  0  0  0  0
   -1.1570   -2.3220   -2.1060 H   0  0  0  0  0  0  0  0  0  0  0  0
   -1.3310   -0.5830   -3.8400 H   0  0  0  0  0  0  0  0  0  0  0  0
   -2.2160    0.4930   -2.7500 H   0  0  0  0  0  0  0  0  0  0  0  0
    0.6070   -0.5050   -2.3080 H   0  0  0  0  0  0  0  0  0  0  0  0
   -1.0510    1.3930   -0.6270 H   0  0  0  0  0  0  0  0  0  0  0  0
  1 11  1  0  0  0  0
  1 10  1  0  0  0  0
  2 12  1  1  0  0  0
  2  1  1  0  0  0  0
  3  2  1  0  0  0  0
  3 13  1  0  0  0  0
  4 15  1  0  0  0  0
  4  3  1  0  0  0  0
  5  4  1  0  0  0  0
  5  6  2  0  0  0  0
  7  8  2  0  0  0  0
  7  2  1  0  0  0  0
  9 17  1  0  0  0  0
  9  5  1  0  0  0  0
 14  3  1  0  0  0  0
 16  4  1  0  0  0  0
 18 19  1  0  0  0  0
 18 25  1  0  0  0  0
 19 28  1  1  0  0  0
 20 19  1  0  0  0  0
 21 19  1  0  0  0  0
 21 30  1  1  0  0  0
 21 22  1  0  0  0  0
 22  7  1  0  0  0  0
 23 21  1  0  0  0  0
 24 23  2  0  0  0  0
 26 18  1  0  0  0  0
 27 18  1  0  0  0  0
 29 20  1  0  0  0  0
 31 22  1  0  0  0  0
 32 45  1  0  0  0  0
 33 32  1  0  0  0  0
 33 34  2  0  0  0  0
 35 33  1  0  0  0  0
 36 35  1  0  0  0  0
 36 49  1  0  0  0  0
 36 37  1  0  0  0  0
 37 50  1  0  0  0  0
 38 53  1  0  0  0  0
 38 39  1  0  0  0  0
 38 37  1  0  0  0  0
 39 54  1  6  0  0  0
 39 40  1  0  0  0  0
 40 55  1  0  0  0  0
 40 23  1  0  0  0  0
 41 42  1  0  0  0  0
 41 39  1  0  0  0  0
 43 41  2  0  0  0  0
 44 32  1  0  0  0  0
 46 34  1  0  0  0  0
 47 35  1  0  0  0  0
 48 36  1  0  0  0  0
 51 37  1  0  0  0  0
 52 38  1  0  0  0  0
M  END
$$$$
