ETS.pdb
 OpenBabel07022418203D

 43 42  0  0  1  0  0  0  0  0999 V2000
   -1.8990   -4.4490    0.1620 N   0  0  0  0  0  0  0  0  0  0  0  0
   -1.5930   -3.2010    0.8910 C   0  0  1  0  0  0  0  0  0  0  0  0
   -0.6950   -3.6000    2.0040 C   0  0  0  0  0  0  0  0  0  0  0  0
   -0.2240   -2.5420    2.9250 C   0  0  0  0  0  0  0  0  0  0  0  0
   -1.2550   -1.8100    3.6600 C   0  0  0  0  0  0  0  0  0  0  0  0
   -2.4750   -2.0550    3.5400 O   0  0  0  0  0  0  0  0  0  0  0  0
   -1.0340   -2.2620   -0.0920 C   0  0  0  0  0  0  0  0  0  0  0  0
   -0.7820   -2.7290   -1.2630 O   0  0  0  0  0  0  0  0  0  0  0  0
   -0.8770   -0.8010    4.5280 O   0  0  0  0  0  0  0  0  0  0  0  0
   -1.7640   -5.2790    0.7590 H   0  0  0  0  0  0  0  0  0  0  0  0
   -1.3260   -4.4920   -0.7070 H   0  0  0  0  0  0  0  0  0  0  0  0
   -2.5470   -2.8030    1.3460 H   0  0  0  0  0  0  0  0  0  0  0  0
    0.1910   -4.1840    1.6730 H   0  0  0  0  0  0  0  0  0  0  0  0
   -1.2840   -4.3350    2.6260 H   0  0  0  0  0  0  0  0  0  0  0  0
    0.4810   -1.8210    2.4790 H   0  0  0  0  0  0  0  0  0  0  0  0
    0.4010   -3.0630    3.7210 H   0  0  0  0  0  0  0  0  0  0  0  0
   -1.4500   -0.4350    5.2540 H   0  0  0  0  0  0  0  0  0  0  0  0
   -0.8640    1.8200   -2.4280 C   0  0  0  0  0  0  0  0  0  0  0  0
   -1.3380    0.9100   -1.3430 C   0  0  1  0  0  0  0  0  0  0  0  0
   -2.3840    0.1250   -1.8710 O   0  0  0  0  0  0  0  0  0  0  0  0
   -0.2290   -0.0300   -0.8380 C   0  0  2  0  0  0  0  0  0  0  0  0
   -0.7610   -0.8790    0.1690 N   0  0  0  0  0  0  0  0  0  0  0  0
    0.9920    0.7050   -0.5340 C   0  0  0  0  0  0  0  0  0  0  0  0
    1.4320    1.4280   -1.5040 O   0  0  0  0  0  0  0  0  0  0  0  0
   -0.2170    1.3080   -3.1520 H   0  0  0  0  0  0  0  0  0  0  0  0
   -1.7790    2.1620   -2.9850 H   0  0  0  0  0  0  0  0  0  0  0  0
   -0.4290    2.7470   -2.0030 H   0  0  0  0  0  0  0  0  0  0  0  0
   -1.7450    1.4500   -0.4840 H   0  0  0  0  0  0  0  0  0  0  0  0
   -2.1770   -0.1100   -2.8110 H   0  0  0  0  0  0  0  0  0  0  0  0
   -0.0210   -0.6730   -1.7470 H   0  0  0  0  0  0  0  0  0  0  0  0
   -0.9600   -0.4990    1.1090 H   0  0  0  0  0  0  0  0  0  0  0  0
    3.9870    3.2570    1.8820 O   0  0  0  0  0  0  0  0  0  0  0  0
    2.7810    2.5560    1.8710 C   0  0  0  0  0  0  0  0  0  0  0  0
    2.9030    1.4980    0.7840 C   0  0  2  0  0  0  0  0  0  0  0  0
    1.7010    0.6960    0.6740 N   0  0  0  0  0  0  0  0  0  0  0  0
    4.0570    0.6280    1.1500 C   0  0  0  0  0  0  0  0  0  0  0  0
    3.8930   -0.6120    1.3130 O   0  0  0  0  0  0  0  0  0  0  0  0
    5.3360    1.1270    1.3250 O   0  0  0  0  0  0  0  0  0  0  0  0
    4.2820    3.4720    0.9610 H   0  0  0  0  0  0  0  0  0  0  0  0
    2.7250    2.0250    2.8620 H   0  0  0  0  0  0  0  0  0  0  0  0
    1.9130    3.2180    1.7050 H   0  0  0  0  0  0  0  0  0  0  0  0
    3.0910    2.0300   -0.1570 H   0  0  0  0  0  0  0  0  0  0  0  0
    1.3330    0.1110    1.4510 H   0  0  0  0  0  0  0  0  0  0  0  0
  1 10  1  0  0  0  0
  1  2  1  0  0  0  0
  2 12  1  1  0  0  0
  2  3  1  0  0  0  0
  3 14  1  0  0  0  0
  3  4  1  0  0  0  0
  4  5  1  0  0  0  0
  4 16  1  0  0  0  0
  5  9  1  0  0  0  0
  6  5  2  0  0  0  0
  7 22  1  0  0  0  0
  7  2  1  0  0  0  0
  8  7  2  0  0  0  0
  9 17  1  0  0  0  0
 11  1  1  0  0  0  0
 13  3  1  0  0  0  0
 15  4  1  0  0  0  0
 18 27  1  0  0  0  0
 18 19  1  0  0  0  0
 19 21  1  0  0  0  0
 19 28  1  1  0  0  0
 20 19  1  0  0  0  0
 21 30  1  6  0  0  0
 21 23  1  0  0  0  0
 21 22  1  0  0  0  0
 22 31  1  0  0  0  0
 23 35  1  0  0  0  0
 24 23  2  0  0  0  0
 25 18  1  0  0  0  0
 26 18  1  0  0  0  0
 29 20  1  0  0  0  0
 33 32  1  0  0  0  0
 33 40  1  0  0  0  0
 34 42  1  6  0  0  0
 34 36  1  0  0  0  0
 34 33  1  0  0  0  0
 35 34  1  0  0  0  0
 35 43  1  0  0  0  0
 36 37  2  0  0  0  0
 36 38  1  0  0  0  0
 39 32  1  0  0  0  0
 41 33  1  0  0  0  0
M  END
$$$$
