ETT.pdb
 OpenBabel07022418203D

 46 45  0  0  1  0  0  0  0  0999 V2000
    1.1980   -2.6930    0.7510 N   0  0  0  0  0  0  0  0  0  0  0  0
    2.1020   -1.6940    1.3450 C   0  0  1  0  0  0  0  0  0  0  0  0
    3.4760   -2.0400    0.8880 C   0  0  0  0  0  0  0  0  0  0  0  0
    4.5690   -1.1560    1.3690 C   0  0  0  0  0  0  0  0  0  0  0  0
    4.7350   -1.0890    2.8190 C   0  0  0  0  0  0  0  0  0  0  0  0
    3.9810   -1.7610    3.5620 O   0  0  0  0  0  0  0  0  0  0  0  0
    1.6580   -0.3510    0.9060 C   0  0  0  0  0  0  0  0  0  0  0  0
    2.2520    0.6920    1.2650 O   0  0  0  0  0  0  0  0  0  0  0  0
    5.7040   -0.3020    3.4150 O   0  0  0  0  0  0  0  0  0  0  0  0
    0.3310   -2.7890    1.3200 H   0  0  0  0  0  0  0  0  0  0  0  0
    1.6770   -3.5900    0.5980 H   0  0  0  0  0  0  0  0  0  0  0  0
    1.9530   -1.7770    2.4250 H   0  0  0  0  0  0  0  0  0  0  0  0
    3.6950   -3.0740    1.2740 H   0  0  0  0  0  0  0  0  0  0  0  0
    3.5330   -2.1040   -0.2100 H   0  0  0  0  0  0  0  0  0  0  0  0
    4.5240   -0.1240    0.9690 H   0  0  0  0  0  0  0  0  0  0  0  0
    5.5280   -1.5820    0.9510 H   0  0  0  0  0  0  0  0  0  0  0  0
    5.9230   -0.3950    4.3790 H   0  0  0  0  0  0  0  0  0  0  0  0
    1.3480    1.1370   -2.5440 C   0  0  0  0  0  0  0  0  0  0  0  0
   -0.0240    1.1960   -1.9050 C   0  0  1  0  0  0  0  0  0  0  0  0
   -0.8240    0.2670   -2.5290 O   0  0  0  0  0  0  0  0  0  0  0  0
    0.0350    1.0510   -0.4160 C   0  0  2  0  0  0  0  0  0  0  0  0
    0.5320   -0.1900    0.0540 N   0  0  0  0  0  0  0  0  0  0  0  0
   -1.3320    1.2600    0.1290 C   0  0  0  0  0  0  0  0  0  0  0  0
   -1.9450    2.3130   -0.1780 O   0  0  0  0  0  0  0  0  0  0  0  0
    1.3750    1.6550   -3.5260 H   0  0  0  0  0  0  0  0  0  0  0  0
    2.1220    1.6250   -1.9190 H   0  0  0  0  0  0  0  0  0  0  0  0
    1.6340    0.0700   -2.7770 H   0  0  0  0  0  0  0  0  0  0  0  0
   -0.4470    2.1980   -2.1310 H   0  0  0  0  0  0  0  0  0  0  0  0
   -0.3880   -0.5910   -2.7140 H   0  0  0  0  0  0  0  0  0  0  0  0
    0.6560    1.8880   -0.0230 H   0  0  0  0  0  0  0  0  0  0  0  0
    0.0330   -1.0680   -0.2470 H   0  0  0  0  0  0  0  0  0  0  0  0
   -3.5230   -1.9830    1.7320 C   0  0  0  0  0  0  0  0  0  0  0  0
   -4.1100   -0.7270    1.0980 C   0  0  1  0  0  0  0  0  0  0  0  0
   -5.3910   -0.5780    1.6450 O   0  0  0  0  0  0  0  0  0  0  0  0
   -3.2690    0.4590    1.5300 C   0  0  2  0  0  0  0  0  0  0  0  0
   -1.9380    0.3130    0.9670 N   0  0  0  0  0  0  0  0  0  0  0  0
   -3.1630    0.4040    3.0070 C   0  0  0  0  0  0  0  0  0  0  0  0
   -4.2080    0.5120    3.6870 O   0  0  0  0  0  0  0  0  0  0  0  0
   -1.9610    0.2390    3.6690 O   0  0  0  0  0  0  0  0  0  0  0  0
   -3.3760   -1.8480    2.8180 H   0  0  0  0  0  0  0  0  0  0  0  0
   -2.5870   -2.2060    1.2030 H   0  0  0  0  0  0  0  0  0  0  0  0
   -4.2200   -2.8220    1.5150 H   0  0  0  0  0  0  0  0  0  0  0  0
   -4.1870   -0.8330    0.0170 H   0  0  0  0  0  0  0  0  0  0  0  0
   -6.0640   -0.5850    0.9200 H   0  0  0  0  0  0  0  0  0  0  0  0
   -3.7310    1.4090    1.2090 H   0  0  0  0  0  0  0  0  0  0  0  0
   -1.3990   -0.5480    1.1990 H   0  0  0  0  0  0  0  0  0  0  0  0
  1 10  1  0  0  0  0
  1  2  1  0  0  0  0
  2 12  1  1  0  0  0
  3 13  1  0  0  0  0
  3  2  1  0  0  0  0
  3  4  1  0  0  0  0
  4  5  1  0  0  0  0
  5  9  1  0  0  0  0
  5  6  2  0  0  0  0
  7  8  2  0  0  0  0
  7  2  1  0  0  0  0
  9 17  1  0  0  0  0
 11  1  1  0  0  0  0
 14  3  1  0  0  0  0
 15  4  1  0  0  0  0
 16  4  1  0  0  0  0
 18 26  1  0  0  0  0
 18 19  1  0  0  0  0
 19 28  1  6  0  0  0
 19 21  1  0  0  0  0
 20 19  1  0  0  0  0
 21 30  1  1  0  0  0
 21 22  1  0  0  0  0
 21 23  1  0  0  0  0
 22  7  1  0  0  0  0
 23 36  1  0  0  0  0
 24 23  2  0  0  0  0
 25 18  1  0  0  0  0
 27 18  1  0  0  0  0
 29 20  1  0  0  0  0
 31 22  1  0  0  0  0
 32 40  1  0  0  0  0
 33 43  1  6  0  0  0
 33 35  1  0  0  0  0
 33 34  1  0  0  0  0
 33 32  1  0  0  0  0
 35 45  1  6  0  0  0
 35 37  1  0  0  0  0
 36 46  1  0  0  0  0
 36 35  1  0  0  0  0
 37 39  2  0  0  0  0
 37 38  1  0  0  0  0
 41 32  1  0  0  0  0
 42 32  1  0  0  0  0
 44 34  1  0  0  0  0
M  END
$$$$
