ETY.pdb
 OpenBabel07022418203D

 53 53  0  0  1  0  0  0  0  0999 V2000
    2.0730    0.0440    4.3680 N   0  0  0  0  0  0  0  0  0  0  0  0
    2.4160    0.0130    2.9610 C   0  0  1  0  0  0  0  0  0  0  0  0
    2.8120   -1.3790    2.5800 C   0  0  0  0  0  0  0  0  0  0  0  0
    3.9840   -1.9390    3.3030 C   0  0  0  0  0  0  0  0  0  0  0  0
    3.8590   -2.0390    4.7550 C   0  0  0  0  0  0  0  0  0  0  0  0
    4.1830   -1.0780    5.4960 O   0  0  0  0  0  0  0  0  0  0  0  0
    1.2410    0.4910    2.1830 C   0  0  0  0  0  0  0  0  0  0  0  0
    0.1670    0.8410    2.7750 O   0  0  0  0  0  0  0  0  0  0  0  0
    3.3810   -3.1870    5.3620 O   0  0  0  0  0  0  0  0  0  0  0  0
    1.5730   -0.8420    4.6550 H   0  0  0  0  0  0  0  0  0  0  0  0
    1.3780    0.8110    4.5820 H   0  0  0  0  0  0  0  0  0  0  0  0
    3.2860    0.6940    2.8440 H   0  0  0  0  0  0  0  0  0  0  0  0
    1.9610   -2.0880    2.7020 H   0  0  0  0  0  0  0  0  0  0  0  0
    3.0620   -1.3620    1.4970 H   0  0  0  0  0  0  0  0  0  0  0  0
    4.9110   -1.3980    3.0010 H   0  0  0  0  0  0  0  0  0  0  0  0
    4.1320   -2.9870    2.9050 H   0  0  0  0  0  0  0  0  0  0  0  0
    3.3950   -3.2760    6.3790 H   0  0  0  0  0  0  0  0  0  0  0  0
   -0.5170    2.9420   -1.5780 C   0  0  0  0  0  0  0  0  0  0  0  0
    0.5420    2.2700   -0.7700 C   0  0  1  0  0  0  0  0  0  0  0  0
    1.0400    3.2230    0.1630 O   0  0  0  0  0  0  0  0  0  0  0  0
    0.0540    1.0640    0.0210 C   0  0  2  0  0  0  0  0  0  0  0  0
    1.2310    0.5870    0.7770 N   0  0  0  0  0  0  0  0  0  0  0  0
   -0.2800   -0.0060   -0.9490 C   0  0  0  0  0  0  0  0  0  0  0  0
    0.5240   -1.0140   -0.9740 O   0  0  0  0  0  0  0  0  0  0  0  0
   -1.5080    2.9970   -1.0960 H   0  0  0  0  0  0  0  0  0  0  0  0
   -0.1910    4.0170   -1.7560 H   0  0  0  0  0  0  0  0  0  0  0  0
   -0.6390    2.5420   -2.6020 H   0  0  0  0  0  0  0  0  0  0  0  0
    1.3940    2.0300   -1.4290 H   0  0  0  0  0  0  0  0  0  0  0  0
    1.3830    3.9980   -0.3590 H   0  0  0  0  0  0  0  0  0  0  0  0
   -0.7670    1.3280    0.6920 H   0  0  0  0  0  0  0  0  0  0  0  0
    2.0800    0.3150    0.2410 H   0  0  0  0  0  0  0  0  0  0  0  0
   -3.0350   -3.6100    2.9350 O   0  0  0  0  0  0  0  0  0  0  0  0
   -2.9770   -3.2260    1.6180 C   0  0  0  0  0  0  0  0  0  0  0  0
   -3.4450   -1.9720    1.2650 C   0  0  0  0  0  0  0  0  0  0  0  0
   -3.4070   -1.5450   -0.0420 C   0  0  0  0  0  0  0  0  0  0  0  0
   -2.9020   -2.3460   -1.0580 C   0  0  0  0  0  0  0  0  0  0  0  0
   -2.8910   -1.8340   -2.4320 C   0  0  0  0  0  0  0  0  0  0  0  0
   -1.5940   -1.1050   -2.7060 C   0  0  2  0  0  0  0  0  0  0  0  0
   -1.4000    0.0110   -1.8220 N   0  0  0  0  0  0  0  0  0  0  0  0
   -1.4870   -0.6490   -4.0960 C   0  0  0  0  0  0  0  0  0  0  0  0
   -1.2620    0.5520   -4.3640 O   0  0  0  0  0  0  0  0  0  0  0  0
   -2.4380   -3.5910   -0.7030 C   0  0  0  0  0  0  0  0  0  0  0  0
   -2.4740   -4.0220    0.6010 C   0  0  0  0  0  0  0  0  0  0  0  0
   -1.6300   -1.5190   -5.1820 O   0  0  0  0  0  0  0  0  0  0  0  0
   -2.9000   -2.9490    3.6980 H   0  0  0  0  0  0  0  0  0  0  0  0
   -3.8570   -1.2820    2.0040 H   0  0  0  0  0  0  0  0  0  0  0  0
   -3.7750   -0.5630   -0.3050 H   0  0  0  0  0  0  0  0  0  0  0  0
   -2.9730   -2.6540   -3.1700 H   0  0  0  0  0  0  0  0  0  0  0  0
   -3.7550   -1.1490   -2.5880 H   0  0  0  0  0  0  0  0  0  0  0  0
   -0.7790   -1.8610   -2.5290 H   0  0  0  0  0  0  0  0  0  0  0  0
   -2.0490    0.8110   -1.8000 H   0  0  0  0  0  0  0  0  0  0  0  0
   -2.0340   -4.2450   -1.4820 H   0  0  0  0  0  0  0  0  0  0  0  0
   -2.1100   -5.0030    0.8920 H   0  0  0  0  0  0  0  0  0  0  0  0
  1 11  1  0  0  0  0
  1 10  1  0  0  0  0
  2 12  1  6  0  0  0
  2  1  1  0  0  0  0
  3 13  1  0  0  0  0
  3  2  1  0  0  0  0
  3  4  1  0  0  0  0
  4  5  1  0  0  0  0
  5  9  1  0  0  0  0
  5  6  2  0  0  0  0
  7  8  2  0  0  0  0
  7  2  1  0  0  0  0
  9 17  1  0  0  0  0
 14  3  1  0  0  0  0
 15  4  1  0  0  0  0
 16  4  1  0  0  0  0
 18 25  1  0  0  0  0
 18 19  1  0  0  0  0
 19 28  1  6  0  0  0
 19 21  1  0  0  0  0
 19 20  1  0  0  0  0
 21 30  1  1  0  0  0
 21 22  1  0  0  0  0
 22  7  1  0  0  0  0
 23 21  1  0  0  0  0
 24 23  2  0  0  0  0
 26 18  1  0  0  0  0
 27 18  1  0  0  0  0
 29 20  1  0  0  0  0
 31 22  1  0  0  0  0
 32 45  1  0  0  0  0
 33 32  1  0  0  0  0
 34 33  1  0  0  0  0
 34 46  1  0  0  0  0
 35 34  2  0  0  0  0
 36 42  2  0  0  0  0
 36 35  1  0  0  0  0
 37 36  1  0  0  0  0
 38 50  1  1  0  0  0
 38 37  1  0  0  0  0
 38 39  1  0  0  0  0
 39 51  1  0  0  0  0
 39 23  1  0  0  0  0
 40 38  1  0  0  0  0
 41 40  1  0  0  0  0
 42 43  1  0  0  0  0
 43 53  1  0  0  0  0
 43 33  2  0  0  0  0
 44 40  2  0  0  0  0
 47 35  1  0  0  0  0
 48 37  1  0  0  0  0
 49 37  1  0  0  0  0
 52 42  1  0  0  0  0
M  END
$$$$
