EVA.pdb
 OpenBabel07022418213D

 44 43  0  0  1  0  0  0  0  0999 V2000
    4.3210   -0.6200   -0.9750 N   0  0  0  0  0  0  0  0  0  0  0  0
    2.9540   -1.0960   -0.9030 C   0  0  1  0  0  0  0  0  0  0  0  0
    2.9730   -2.4310   -0.2170 C   0  0  0  0  0  0  0  0  0  0  0  0
    3.8280   -3.3770   -1.0260 C   0  0  0  0  0  0  0  0  0  0  0  0
    3.8740   -4.7330   -0.3700 C   0  0  0  0  0  0  0  0  0  0  0  0
    4.5270   -5.6730   -0.8700 O   0  0  0  0  0  0  0  0  0  0  0  0
    2.0640   -0.1150   -0.2670 C   0  0  0  0  0  0  0  0  0  0  0  0
    2.5830    0.9690    0.1170 O   0  0  0  0  0  0  0  0  0  0  0  0
    3.1890   -4.9660    0.8100 O   0  0  0  0  0  0  0  0  0  0  0  0
    4.8480   -1.0370   -1.7780 H   0  0  0  0  0  0  0  0  0  0  0  0
    4.8430   -0.9570   -0.1120 H   0  0  0  0  0  0  0  0  0  0  0  0
    2.6120   -1.1870   -1.9760 H   0  0  0  0  0  0  0  0  0  0  0  0
    3.4960   -2.2890    0.7560 H   0  0  0  0  0  0  0  0  0  0  0  0
    1.9900   -2.8830   -0.0810 H   0  0  0  0  0  0  0  0  0  0  0  0
    4.8750   -3.0460   -1.1160 H   0  0  0  0  0  0  0  0  0  0  0  0
    3.3850   -3.5680   -2.0380 H   0  0  0  0  0  0  0  0  0  0  0  0
    3.4110   -5.7510    1.3920 H   0  0  0  0  0  0  0  0  0  0  0  0
   -2.1730    0.0110   -0.8760 C   0  0  0  0  0  0  0  0  0  0  0  0
   -1.2890    1.1320   -0.3730 C   0  0  0  0  0  0  0  0  0  0  0  0
   -0.7210    1.9420   -1.5150 C   0  0  0  0  0  0  0  0  0  0  0  0
   -0.2040    0.6240    0.5500 C   0  0  2  0  0  0  0  0  0  0  0  0
    0.6710   -0.3230   -0.0670 N   0  0  0  0  0  0  0  0  0  0  0  0
   -0.7960    0.1210    1.8180 C   0  0  0  0  0  0  0  0  0  0  0  0
   -0.5260   -1.0380    2.2630 O   0  0  0  0  0  0  0  0  0  0  0  0
   -1.7610   -0.9930   -0.6170 H   0  0  0  0  0  0  0  0  0  0  0  0
   -2.3220    0.1180   -1.9850 H   0  0  0  0  0  0  0  0  0  0  0  0
   -3.1920    0.0450   -0.4390 H   0  0  0  0  0  0  0  0  0  0  0  0
   -1.9490    1.8190    0.1970 H   0  0  0  0  0  0  0  0  0  0  0  0
   -0.5380    1.2400   -2.3770 H   0  0  0  0  0  0  0  0  0  0  0  0
    0.1690    2.5060   -1.2460 H   0  0  0  0  0  0  0  0  0  0  0  0
   -1.4700    2.6710   -1.9070 H   0  0  0  0  0  0  0  0  0  0  0  0
    0.4100    1.5140    0.8260 H   0  0  0  0  0  0  0  0  0  0  0  0
    0.3100   -1.2420   -0.4100 H   0  0  0  0  0  0  0  0  0  0  0  0
   -1.9370    1.5110    4.9010 C   0  0  0  0  0  0  0  0  0  0  0  0
   -2.2940    0.4930    3.8140 C   0  0  2  0  0  0  0  0  0  0  0  0
   -1.6810    0.9110    2.5750 N   0  0  0  0  0  0  0  0  0  0  0  0
   -3.7680    0.5510    3.6480 C   0  0  0  0  0  0  0  0  0  0  0  0
   -4.2760    0.9150    2.5770 O   0  0  0  0  0  0  0  0  0  0  0  0
   -4.6390    0.2010    4.6840 O   0  0  0  0  0  0  0  0  0  0  0  0
   -2.7180    2.2850    5.0060 H   0  0  0  0  0  0  0  0  0  0  0  0
   -1.7540    0.9950    5.8720 H   0  0  0  0  0  0  0  0  0  0  0  0
   -0.9880    2.0240    4.6440 H   0  0  0  0  0  0  0  0  0  0  0  0
   -1.9970   -0.5280    4.1150 H   0  0  0  0  0  0  0  0  0  0  0  0
   -1.9180    1.8670    2.2320 H   0  0  0  0  0  0  0  0  0  0  0  0
  1  2  1  0  0  0  0
  1 11  1  0  0  0  0
  2 12  1  6  0  0  0
  2  7  1  0  0  0  0
  2  3  1  0  0  0  0
  3 14  1  0  0  0  0
  3 13  1  0  0  0  0
  4  5  1  0  0  0  0
  4  3  1  0  0  0  0
  5  9  1  0  0  0  0
  6  5  2  0  0  0  0
  7 22  1  0  0  0  0
  7  8  2  0  0  0  0
  9 17  1  0  0  0  0
 10  1  1  0  0  0  0
 15  4  1  0  0  0  0
 16  4  1  0  0  0  0
 18 25  1  0  0  0  0
 18 27  1  0  0  0  0
 18 19  1  0  0  0  0
 19 28  1  0  0  0  0
 19 21  1  0  0  0  0
 20 30  1  0  0  0  0
 20 19  1  0  0  0  0
 21 32  1  1  0  0  0
 21 23  1  0  0  0  0
 22 21  1  0  0  0  0
 23 24  2  0  0  0  0
 23 36  1  0  0  0  0
 26 18  1  0  0  0  0
 29 20  1  0  0  0  0
 31 20  1  0  0  0  0
 33 22  1  0  0  0  0
 34 40  1  0  0  0  0
 34 41  1  0  0  0  0
 35 43  1  1  0  0  0
 35 34  1  0  0  0  0
 36 35  1  0  0  0  0
 37 35  1  0  0  0  0
 37 39  1  0  0  0  0
 38 37  2  0  0  0  0
 42 34  1  0  0  0  0
 44 36  1  0  0  0  0
M  END
$$$$
