EVE.pdb
 OpenBabel07022418213D

 50 49  0  0  1  0  0  0  0  0999 V2000
    2.5180   -0.6460    4.3240 N   0  0  0  0  0  0  0  0  0  0  0  0
    1.3350    0.1600    4.3840 C   0  0  1  0  0  0  0  0  0  0  0  0
    1.6520    1.5840    4.7850 C   0  0  0  0  0  0  0  0  0  0  0  0
    2.6030    2.2020    3.7630 C   0  0  0  0  0  0  0  0  0  0  0  0
    2.9270    3.6030    4.1360 C   0  0  0  0  0  0  0  0  0  0  0  0
    3.7040    3.7890    5.0950 O   0  0  0  0  0  0  0  0  0  0  0  0
    0.6310    0.2100    3.0760 C   0  0  0  0  0  0  0  0  0  0  0  0
   -0.4120    0.9020    3.0140 O   0  0  0  0  0  0  0  0  0  0  0  0
    2.4250    4.7190    3.4900 O   0  0  0  0  0  0  0  0  0  0  0  0
    3.0480   -0.5010    5.2110 H   0  0  0  0  0  0  0  0  0  0  0  0
    2.2570   -1.6550    4.2940 H   0  0  0  0  0  0  0  0  0  0  0  0
    0.5960   -0.2690    5.1070 H   0  0  0  0  0  0  0  0  0  0  0  0
    0.7210    2.1820    4.7520 H   0  0  0  0  0  0  0  0  0  0  0  0
    2.1360    1.6190    5.7860 H   0  0  0  0  0  0  0  0  0  0  0  0
    2.1530    2.2070    2.7530 H   0  0  0  0  0  0  0  0  0  0  0  0
    3.5220    1.5720    3.6960 H   0  0  0  0  0  0  0  0  0  0  0  0
    2.0880    5.5330    4.0260 H   0  0  0  0  0  0  0  0  0  0  0  0
    2.4710   -0.3680   -0.6210 C   0  0  0  0  0  0  0  0  0  0  0  0
    1.1850    0.3570   -0.3500 C   0  0  0  0  0  0  0  0  0  0  0  0
    0.5070    0.6800   -1.6360 C   0  0  0  0  0  0  0  0  0  0  0  0
    0.3120   -0.3630    0.6670 C   0  0  2  0  0  0  0  0  0  0  0  0
    1.0590   -0.4610    1.9260 N   0  0  0  0  0  0  0  0  0  0  0  0
   -0.1410   -1.6900    0.2260 C   0  0  0  0  0  0  0  0  0  0  0  0
    0.2060   -2.7250    0.9040 O   0  0  0  0  0  0  0  0  0  0  0  0
    3.2180   -0.1010    0.1690 H   0  0  0  0  0  0  0  0  0  0  0  0
    2.8860    0.0400   -1.5750 H   0  0  0  0  0  0  0  0  0  0  0  0
    2.3440   -1.4670   -0.7040 H   0  0  0  0  0  0  0  0  0  0  0  0
    1.5030    1.3550    0.0910 H   0  0  0  0  0  0  0  0  0  0  0  0
   -0.5240    1.0660   -1.5160 H   0  0  0  0  0  0  0  0  0  0  0  0
    1.0660    1.5630   -2.0830 H   0  0  0  0  0  0  0  0  0  0  0  0
    0.6160   -0.1030   -2.4140 H   0  0  0  0  0  0  0  0  0  0  0  0
   -0.5490    0.2950    0.8660 H   0  0  0  0  0  0  0  0  0  0  0  0
    1.9080   -1.0430    1.9210 H   0  0  0  0  0  0  0  0  0  0  0  0
   -0.9460   -1.9770   -0.9020 N   0  0  0  0  0  0  0  0  0  0  0  0
   -1.3250   -3.3350   -1.2390 C   0  0  1  0  0  0  0  0  0  0  0  0
   -2.8320   -3.4460   -1.1450 C   0  0  0  0  0  0  0  0  0  0  0  0
   -3.5220   -2.4950   -2.0940 C   0  0  0  0  0  0  0  0  0  0  0  0
   -4.9890   -2.6610   -1.9470 C   0  0  0  0  0  0  0  0  0  0  0  0
   -5.4720   -3.4940   -1.1280 O   0  0  0  0  0  0  0  0  0  0  0  0
   -0.8660   -3.7600   -2.5600 C   0  0  0  0  0  0  0  0  0  0  0  0
   -0.2160   -2.9900   -3.2900 O   0  0  0  0  0  0  0  0  0  0  0  0
   -5.9000   -1.9200   -2.6920 O   0  0  0  0  0  0  0  0  0  0  0  0
   -1.1420   -5.0230   -3.0260 O   0  0  0  0  0  0  0  0  0  0  0  0
   -1.2710   -1.1820   -1.4900 H   0  0  0  0  0  0  0  0  0  0  0  0
   -0.9130   -4.0710   -0.5080 H   0  0  0  0  0  0  0  0  0  0  0  0
   -3.1100   -4.4770   -1.3830 H   0  0  0  0  0  0  0  0  0  0  0  0
   -3.1180   -3.1970   -0.0950 H   0  0  0  0  0  0  0  0  0  0  0  0
   -3.2790   -2.8080   -3.1400 H   0  0  0  0  0  0  0  0  0  0  0  0
   -3.2360   -1.4510   -1.9660 H   0  0  0  0  0  0  0  0  0  0  0  0
   -6.8170   -1.6600   -2.3500 H   0  0  0  0  0  0  0  0  0  0  0  0
  1  2  1  0  0  0  0
  1 10  1  0  0  0  0
  2  3  1  0  0  0  0
  2 12  1  1  0  0  0
  3 14  1  0  0  0  0
  4  5  1  0  0  0  0
  4  3  1  0  0  0  0
  5  6  2  0  0  0  0
  7  2  1  0  0  0  0
  8  7  2  0  0  0  0
  9 17  1  0  0  0  0
  9  5  1  0  0  0  0
 11  1  1  0  0  0  0
 13  3  1  0  0  0  0
 15  4  1  0  0  0  0
 16  4  1  0  0  0  0
 18 19  1  0  0  0  0
 18 25  1  0  0  0  0
 19 28  1  0  0  0  0
 19 21  1  0  0  0  0
 20 29  1  0  0  0  0
 20 19  1  0  0  0  0
 21 32  1  1  0  0  0
 21 22  1  0  0  0  0
 22  7  1  0  0  0  0
 23 21  1  0  0  0  0
 23 24  2  0  0  0  0
 26 18  1  0  0  0  0
 27 18  1  0  0  0  0
 30 20  1  0  0  0  0
 31 20  1  0  0  0  0
 33 22  1  0  0  0  0
 34 23  1  0  0  0  0
 35 36  1  0  0  0  0
 35 34  1  0  0  0  0
 35 45  1  1  0  0  0
 36 47  1  0  0  0  0
 37 49  1  0  0  0  0
 37 38  1  0  0  0  0
 37 36  1  0  0  0  0
 38 39  2  0  0  0  0
 40 35  1  0  0  0  0
 41 40  2  0  0  0  0
 42 50  1  0  0  0  0
 42 38  1  0  0  0  0
 43 40  1  0  0  0  0
 44 34  1  0  0  0  0
 46 36  1  0  0  0  0
 48 37  1  0  0  0  0
M  END
$$$$
