EVF.pdb
 OpenBabel07022418213D

 54 54  0  0  1  0  0  0  0  0999 V2000
    0.4180   -3.2780    2.1520 N   0  0  0  0  0  0  0  0  0  0  0  0
    0.4510   -2.0760    2.9950 C   0  0  1  0  0  0  0  0  0  0  0  0
    1.6220   -2.2800    3.9430 C   0  0  0  0  0  0  0  0  0  0  0  0
    1.8090   -1.1310    4.8980 C   0  0  0  0  0  0  0  0  0  0  0  0
    2.9570   -1.3650    5.8140 C   0  0  0  0  0  0  0  0  0  0  0  0
    3.6650   -2.4020    5.7780 O   0  0  0  0  0  0  0  0  0  0  0  0
    0.6580   -0.8910    2.1260 C   0  0  0  0  0  0  0  0  0  0  0  0
    0.6110    0.2460    2.6370 O   0  0  0  0  0  0  0  0  0  0  0  0
    3.2590   -0.3800    6.7610 O   0  0  0  0  0  0  0  0  0  0  0  0
    0.4610   -4.0880    2.8190 H   0  0  0  0  0  0  0  0  0  0  0  0
   -0.5340   -3.3100    1.7200 H   0  0  0  0  0  0  0  0  0  0  0  0
   -0.4450   -1.9600    3.6080 H   0  0  0  0  0  0  0  0  0  0  0  0
    1.3950   -3.1790    4.5860 H   0  0  0  0  0  0  0  0  0  0  0  0
    2.5320   -2.5220    3.3840 H   0  0  0  0  0  0  0  0  0  0  0  0
    0.8920   -0.9170    5.4790 H   0  0  0  0  0  0  0  0  0  0  0  0
    2.0980   -0.2080    4.3190 H   0  0  0  0  0  0  0  0  0  0  0  0
    4.2310   -0.3040    7.0750 H   0  0  0  0  0  0  0  0  0  0  0  0
    2.6640    1.2850   -1.6320 C   0  0  0  0  0  0  0  0  0  0  0  0
    2.5360    0.0960   -0.7110 C   0  0  0  0  0  0  0  0  0  0  0  0
    3.5590    0.1870    0.3950 C   0  0  0  0  0  0  0  0  0  0  0  0
    1.1220    0.0850   -0.1670 C   0  0  2  0  0  0  0  0  0  0  0  0
    0.9090   -1.0270    0.7350 N   0  0  0  0  0  0  0  0  0  0  0  0
    0.2070    0.0270   -1.3280 C   0  0  0  0  0  0  0  0  0  0  0  0
    0.2030    0.8890   -2.2460 O   0  0  0  0  0  0  0  0  0  0  0  0
    3.6760    1.7610   -1.4550 H   0  0  0  0  0  0  0  0  0  0  0  0
    1.9540    2.1100   -1.3330 H   0  0  0  0  0  0  0  0  0  0  0  0
    2.5220    1.0310   -2.6860 H   0  0  0  0  0  0  0  0  0  0  0  0
    2.6540   -0.8170   -1.3110 H   0  0  0  0  0  0  0  0  0  0  0  0
    3.5610   -0.8350    0.8760 H   0  0  0  0  0  0  0  0  0  0  0  0
    4.5740    0.3300   -0.0220 H   0  0  0  0  0  0  0  0  0  0  0  0
    3.3140    0.9350    1.1510 H   0  0  0  0  0  0  0  0  0  0  0  0
    1.0080    1.0200    0.4040 H   0  0  0  0  0  0  0  0  0  0  0  0
    0.9420   -1.9870    0.3400 H   0  0  0  0  0  0  0  0  0  0  0  0
   -0.7460   -1.0230   -1.4910 N   0  0  0  0  0  0  0  0  0  0  0  0
   -1.6420   -1.1130   -2.5970 C   0  0  1  0  0  0  0  0  0  0  0  0
   -2.6480    0.0480   -2.6070 C   0  0  0  0  0  0  0  0  0  0  0  0
   -3.4520    0.0110   -1.3610 C   0  0  0  0  0  0  0  0  0  0  0  0
   -3.0640    0.6830   -0.2280 C   0  0  0  0  0  0  0  0  0  0  0  0
   -3.8540    0.6190    0.9270 C   0  0  0  0  0  0  0  0  0  0  0  0
   -5.0270   -0.1020    0.9750 C   0  0  0  0  0  0  0  0  0  0  0  0
   -5.4110   -0.7750   -0.1680 C   0  0  0  0  0  0  0  0  0  0  0  0
   -4.6320   -0.7160   -1.3180 C   0  0  0  0  0  0  0  0  0  0  0  0
   -1.0000   -1.1620   -3.9040 C   0  0  0  0  0  0  0  0  0  0  0  0
    0.2430   -1.1330   -4.0090 O   0  0  0  0  0  0  0  0  0  0  0  0
   -1.7500   -1.2410   -5.0540 O   0  0  0  0  0  0  0  0  0  0  0  0
   -0.7640   -1.7430   -0.7500 H   0  0  0  0  0  0  0  0  0  0  0  0
   -2.2930   -2.0260   -2.4190 H   0  0  0  0  0  0  0  0  0  0  0  0
   -3.3110   -0.1590   -3.4790 H   0  0  0  0  0  0  0  0  0  0  0  0
   -2.0980    0.9980   -2.6960 H   0  0  0  0  0  0  0  0  0  0  0  0
   -2.1480    1.2610   -0.2350 H   0  0  0  0  0  0  0  0  0  0  0  0
   -3.5630    1.1410    1.8280 H   0  0  0  0  0  0  0  0  0  0  0  0
   -5.6290   -0.1400    1.8770 H   0  0  0  0  0  0  0  0  0  0  0  0
   -6.3300   -1.3460   -0.1510 H   0  0  0  0  0  0  0  0  0  0  0  0
   -4.9510   -1.2500   -2.2050 H   0  0  0  0  0  0  0  0  0  0  0  0
  1 10  1  0  0  0  0
  1  2  1  0  0  0  0
  2 12  1  1  0  0  0
  2  3  1  0  0  0  0
  3 13  1  0  0  0  0
  3  4  1  0  0  0  0
  4 15  1  0  0  0  0
  4  5  1  0  0  0  0
  5  9  1  0  0  0  0
  6  5  2  0  0  0  0
  7  8  2  0  0  0  0
  7  2  1  0  0  0  0
  9 17  1  0  0  0  0
 11  1  1  0  0  0  0
 14  3  1  0  0  0  0
 16  4  1  0  0  0  0
 18 25  1  0  0  0  0
 18 26  1  0  0  0  0
 18 19  1  0  0  0  0
 19 21  1  0  0  0  0
 19 20  1  0  0  0  0
 20 29  1  0  0  0  0
 20 31  1  0  0  0  0
 21 32  1  1  0  0  0
 21 22  1  0  0  0  0
 22  7  1  0  0  0  0
 23 21  1  0  0  0  0
 24 23  2  0  0  0  0
 27 18  1  0  0  0  0
 28 19  1  0  0  0  0
 30 20  1  0  0  0  0
 33 22  1  0  0  0  0
 34 23  1  0  0  0  0
 34 46  1  0  0  0  0
 35 47  1  1  0  0  0
 35 34  1  0  0  0  0
 36 35  1  0  0  0  0
 36 37  1  0  0  0  0
 37 42  2  0  0  0  0
 37 38  1  0  0  0  0
 38 39  2  0  0  0  0
 39 40  1  0  0  0  0
 39 51  1  0  0  0  0
 40 52  1  0  0  0  0
 41 53  1  0  0  0  0
 41 40  2  0  0  0  0
 42 41  1  0  0  0  0
 43 35  1  0  0  0  0
 44 43  1  0  0  0  0
 45 43  2  0  0  0  0
 48 36  1  0  0  0  0
 49 36  1  0  0  0  0
 50 38  1  0  0  0  0
 54 42  1  0  0  0  0
M  END
$$$$
