EVG.pdb
 OpenBabel07022418213D

 41 40  0  0  1  0  0  0  0  0999 V2000
   -1.8970   -3.1050    2.2190 N   0  0  0  0  0  0  0  0  0  0  0  0
   -0.7680   -2.1660    2.1640 C   0  0  1  0  0  0  0  0  0  0  0  0
    0.4910   -2.9160    1.8230 C   0  0  0  0  0  0  0  0  0  0  0  0
    0.8550   -3.9740    2.7930 C   0  0  0  0  0  0  0  0  0  0  0  0
    1.0970   -3.5350    4.1590 C   0  0  0  0  0  0  0  0  0  0  0  0
    1.3950   -4.3720    5.0470 O   0  0  0  0  0  0  0  0  0  0  0  0
   -1.0980   -1.1520    1.1260 C   0  0  0  0  0  0  0  0  0  0  0  0
   -2.1760   -1.1830    0.4700 O   0  0  0  0  0  0  0  0  0  0  0  0
    1.0200   -2.2140    4.5630 O   0  0  0  0  0  0  0  0  0  0  0  0
   -2.1820   -3.2730    3.1930 H   0  0  0  0  0  0  0  0  0  0  0  0
   -1.6050   -4.0160    1.7700 H   0  0  0  0  0  0  0  0  0  0  0  0
   -0.7330   -1.6590    3.1370 H   0  0  0  0  0  0  0  0  0  0  0  0
    0.3330   -3.3840    0.8250 H   0  0  0  0  0  0  0  0  0  0  0  0
    1.3310   -2.2040    1.6810 H   0  0  0  0  0  0  0  0  0  0  0  0
    1.7750   -4.5040    2.4390 H   0  0  0  0  0  0  0  0  0  0  0  0
    0.0670   -4.7850    2.7940 H   0  0  0  0  0  0  0  0  0  0  0  0
    1.6510   -1.8100    5.2550 H   0  0  0  0  0  0  0  0  0  0  0  0
   -1.4730    2.5070    1.4750 C   0  0  0  0  0  0  0  0  0  0  0  0
   -0.3740    2.3120    0.4250 C   0  0  0  0  0  0  0  0  0  0  0  0
    0.9660    2.7020    0.9800 C   0  0  0  0  0  0  0  0  0  0  0  0
   -0.3970    0.9190   -0.1290 C   0  0  2  0  0  0  0  0  0  0  0  0
   -0.1990   -0.1080    0.8380 N   0  0  0  0  0  0  0  0  0  0  0  0
    0.6530    0.8470   -1.1850 C   0  0  0  0  0  0  0  0  0  0  0  0
    0.6940    1.6450   -2.1470 O   0  0  0  0  0  0  0  0  0  0  0  0
   -1.3800    1.7370    2.2840 H   0  0  0  0  0  0  0  0  0  0  0  0
   -2.4710    2.5010    0.9970 H   0  0  0  0  0  0  0  0  0  0  0  0
   -1.3650    3.4850    1.9840 H   0  0  0  0  0  0  0  0  0  0  0  0
   -0.6090    3.0250   -0.3930 H   0  0  0  0  0  0  0  0  0  0  0  0
    0.7780    3.3790    1.8530 H   0  0  0  0  0  0  0  0  0  0  0  0
    1.5370    1.8470    1.3850 H   0  0  0  0  0  0  0  0  0  0  0  0
    1.6130    3.2270    0.2580 H   0  0  0  0  0  0  0  0  0  0  0  0
   -1.3870    0.7690   -0.6310 H   0  0  0  0  0  0  0  0  0  0  0  0
    0.6990   -0.0940    1.3940 H   0  0  0  0  0  0  0  0  0  0  0  0
    1.6630   -0.1540   -1.1320 N   0  0  0  0  0  0  0  0  0  0  0  0
    2.7040   -0.2530   -2.1480 C   0  0  0  0  0  0  0  0  0  0  0  0
    2.0910   -0.4800   -3.4740 C   0  0  0  0  0  0  0  0  0  0  0  0
    0.8490   -0.5580   -3.5890 O   0  0  0  0  0  0  0  0  0  0  0  0
    2.8890   -0.6060   -4.5900 O   0  0  0  0  0  0  0  0  0  0  0  0
    1.6370   -0.8230   -0.3350 H   0  0  0  0  0  0  0  0  0  0  0  0
    3.3710    0.6320   -2.1320 H   0  0  0  0  0  0  0  0  0  0  0  0
    3.3260   -1.1440   -1.9250 H   0  0  0  0  0  0  0  0  0  0  0  0
  1 10  1  0  0  0  0
  2  1  1  0  0  0  0
  2 12  1  1  0  0  0
  3  2  1  0  0  0  0
  3  4  1  0  0  0  0
  4 16  1  0  0  0  0
  4  5  1  0  0  0  0
  5  9  1  0  0  0  0
  5  6  2  0  0  0  0
  7  2  1  0  0  0  0
  8  7  2  0  0  0  0
  9 17  1  0  0  0  0
 11  1  1  0  0  0  0
 13  3  1  0  0  0  0
 14  3  1  0  0  0  0
 15  4  1  0  0  0  0
 18 27  1  0  0  0  0
 18 25  1  0  0  0  0
 19 20  1  0  0  0  0
 19 18  1  0  0  0  0
 20 30  1  0  0  0  0
 20 29  1  0  0  0  0
 21 32  1  6  0  0  0
 21 19  1  0  0  0  0
 21 22  1  0  0  0  0
 22  7  1  0  0  0  0
 22 33  1  0  0  0  0
 23 34  1  0  0  0  0
 23 21  1  0  0  0  0
 24 23  2  0  0  0  0
 26 18  1  0  0  0  0
 28 19  1  0  0  0  0
 31 20  1  0  0  0  0
 34 39  1  0  0  0  0
 35 40  1  0  0  0  0
 35 41  1  0  0  0  0
 35 34  1  0  0  0  0
 36 35  1  0  0  0  0
 37 36  1  0  0  0  0
 38 36  2  0  0  0  0
M  END
$$$$
