EVK.pdb
 OpenBabel07022418213D

 55 54  0  0  1  0  0  0  0  0999 V2000
    3.2400   -3.6700    2.1030 N   0  0  0  0  0  0  0  0  0  0  0  0
    2.6810   -2.5290    1.4010 C   0  0  1  0  0  0  0  0  0  0  0  0
    2.1100   -3.0120    0.1030 C   0  0  0  0  0  0  0  0  0  0  0  0
    1.0300   -4.0280    0.2560 C   0  0  0  0  0  0  0  0  0  0  0  0
    0.5400   -4.4330   -1.0900 C   0  0  0  0  0  0  0  0  0  0  0  0
    1.0410   -3.9280   -2.1300 O   0  0  0  0  0  0  0  0  0  0  0  0
    1.7470   -1.7590    2.2180 C   0  0  0  0  0  0  0  0  0  0  0  0
    1.5170   -2.1240    3.3980 O   0  0  0  0  0  0  0  0  0  0  0  0
   -0.4720   -5.3690   -1.2670 O   0  0  0  0  0  0  0  0  0  0  0  0
    2.4380   -4.2540    2.4430 H   0  0  0  0  0  0  0  0  0  0  0  0
    3.7120   -3.2820    2.9620 H   0  0  0  0  0  0  0  0  0  0  0  0
    3.5470   -1.8640    1.1610 H   0  0  0  0  0  0  0  0  0  0  0  0
    1.6580   -2.1340   -0.4470 H   0  0  0  0  0  0  0  0  0  0  0  0
    2.8810   -3.4090   -0.5850 H   0  0  0  0  0  0  0  0  0  0  0  0
    1.3970   -4.9560    0.7470 H   0  0  0  0  0  0  0  0  0  0  0  0
    0.1970   -3.6600    0.8860 H   0  0  0  0  0  0  0  0  0  0  0  0
   -0.9580   -5.4660   -2.1550 H   0  0  0  0  0  0  0  0  0  0  0  0
    2.1040    1.3710    3.4730 C   0  0  0  0  0  0  0  0  0  0  0  0
    0.7780    1.5110    2.7580 C   0  0  0  0  0  0  0  0  0  0  0  0
   -0.1090    2.3630    3.6660 C   0  0  0  0  0  0  0  0  0  0  0  0
    0.1690    0.1460    2.5320 C   0  0  2  0  0  0  0  0  0  0  0  0
    1.0930   -0.6160    1.7240 N   0  0  0  0  0  0  0  0  0  0  0  0
   -1.1800    0.2010    1.9690 C   0  0  0  0  0  0  0  0  0  0  0  0
   -2.1040    0.8260    2.5500 O   0  0  0  0  0  0  0  0  0  0  0  0
    1.8650    1.0100    4.5090 H   0  0  0  0  0  0  0  0  0  0  0  0
    2.5740    2.3700    3.5110 H   0  0  0  0  0  0  0  0  0  0  0  0
    2.7960    0.6860    2.9510 H   0  0  0  0  0  0  0  0  0  0  0  0
    0.9380    2.0840    1.8440 H   0  0  0  0  0  0  0  0  0  0  0  0
   -0.9320    2.8180    3.1090 H   0  0  0  0  0  0  0  0  0  0  0  0
    0.5630    3.1400    4.0950 H   0  0  0  0  0  0  0  0  0  0  0  0
   -0.4430    1.7420    4.5260 H   0  0  0  0  0  0  0  0  0  0  0  0
    0.1190   -0.3430    3.5290 H   0  0  0  0  0  0  0  0  0  0  0  0
    1.2400   -0.2500    0.7350 H   0  0  0  0  0  0  0  0  0  0  0  0
   -1.5610   -0.4390    0.7270 N   0  0  0  0  0  0  0  0  0  0  0  0
   -2.8920   -0.3550    0.2200 C   0  0  1  0  0  0  0  0  0  0  0  0
   -3.2290    0.6740   -0.7780 C   0  0  0  0  0  0  0  0  0  0  0  0
   -2.5630    0.7210   -2.0920 C   0  0  0  0  0  0  0  0  0  0  0  0
   -1.1100    0.9800   -2.0460 C   0  0  0  0  0  0  0  0  0  0  0  0
   -0.6210    1.0350   -3.5020 C   0  0  0  0  0  0  0  0  0  0  0  0
    0.8060    1.2900   -3.4460 N   0  0  0  0  0  0  0  0  0  0  0  0
   -3.3710   -1.7010   -0.2160 C   0  0  0  0  0  0  0  0  0  0  0  0
   -4.5090   -1.9000   -0.6990 O   0  0  0  0  0  0  0  0  0  0  0  0
   -2.5170   -2.7830   -0.0820 O   0  0  0  0  0  0  0  0  0  0  0  0
   -0.7860   -0.9790    0.2930 H   0  0  0  0  0  0  0  0  0  0  0  0
   -3.6090   -0.1110    1.0990 H   0  0  0  0  0  0  0  0  0  0  0  0
   -4.3560    0.6440   -1.0170 H   0  0  0  0  0  0  0  0  0  0  0  0
   -3.1690    1.7230   -0.3050 H   0  0  0  0  0  0  0  0  0  0  0  0
   -3.0310    1.5170   -2.7670 H   0  0  0  0  0  0  0  0  0  0  0  0
   -2.7080   -0.2240   -2.6880 H   0  0  0  0  0  0  0  0  0  0  0  0
   -0.5760    0.1860   -1.5100 H   0  0  0  0  0  0  0  0  0  0  0  0
   -0.9180    1.9640   -1.5840 H   0  0  0  0  0  0  0  0  0  0  0  0
   -0.7860    0.0590   -4.0000 H   0  0  0  0  0  0  0  0  0  0  0  0
   -1.1820    1.8270   -4.0280 H   0  0  0  0  0  0  0  0  0  0  0  0
    1.2100    0.8840   -4.3270 H   0  0  0  0  0  0  0  0  0  0  0  0
    1.1970    0.7330   -2.6520 H   0  0  0  0  0  0  0  0  0  0  0  0
  1 10  1  0  0  0  0
  1 11  1  0  0  0  0
  2 12  1  6  0  0  0
  2  1  1  0  0  0  0
  2  7  1  0  0  0  0
  3  4  1  0  0  0  0
  3  2  1  0  0  0  0
  4 15  1  0  0  0  0
  4 16  1  0  0  0  0
  5  4  1  0  0  0  0
  6  5  2  0  0  0  0
  7  8  2  0  0  0  0
  9  5  1  0  0  0  0
 13  3  1  0  0  0  0
 14  3  1  0  0  0  0
 17  9  1  0  0  0  0
 18 26  1  0  0  0  0
 18 25  1  0  0  0  0
 19 18  1  0  0  0  0
 19 20  1  0  0  0  0
 20 30  1  0  0  0  0
 20 31  1  0  0  0  0
 21 19  1  0  0  0  0
 21 32  1  1  0  0  0
 22  7  1  0  0  0  0
 22 21  1  0  0  0  0
 23 21  1  0  0  0  0
 23 24  2  0  0  0  0
 27 18  1  0  0  0  0
 28 19  1  0  0  0  0
 29 20  1  0  0  0  0
 33 22  1  0  0  0  0
 34 23  1  0  0  0  0
 35 34  1  0  0  0  0
 35 45  1  1  0  0  0
 36 47  1  0  0  0  0
 36 35  1  0  0  0  0
 37 38  1  0  0  0  0
 37 36  1  0  0  0  0
 38 51  1  0  0  0  0
 38 50  1  0  0  0  0
 39 40  1  0  0  0  0
 39 38  1  0  0  0  0
 40 55  1  0  0  0  0
 41 43  1  0  0  0  0
 41 35  1  0  0  0  0
 42 41  2  0  0  0  0
 44 34  1  0  0  0  0
 46 36  1  0  0  0  0
 48 37  1  0  0  0  0
 49 37  1  0  0  0  0
 52 39  1  0  0  0  0
 53 39  1  0  0  0  0
 54 40  1  0  0  0  0
M  END
$$$$
