EVL.pdb
 OpenBabel07022418213D

 53 52  0  0  1  0  0  0  0  0999 V2000
   -1.3390   -1.3960    3.4300 N   0  0  0  0  0  0  0  0  0  0  0  0
   -0.0290   -1.0510    4.0520 C   0  0  1  0  0  0  0  0  0  0  0  0
    0.5980   -2.3340    4.4950 C   0  0  0  0  0  0  0  0  0  0  0  0
    1.8980   -2.2530    5.1700 C   0  0  0  0  0  0  0  0  0  0  0  0
    3.0490   -1.7190    4.4630 C   0  0  0  0  0  0  0  0  0  0  0  0
    3.8090   -0.8150    4.9520 O   0  0  0  0  0  0  0  0  0  0  0  0
    0.7920   -0.4330    2.9630 C   0  0  0  0  0  0  0  0  0  0  0  0
    1.6990    0.3520    3.2280 O   0  0  0  0  0  0  0  0  0  0  0  0
    3.3750   -2.1860    3.2030 O   0  0  0  0  0  0  0  0  0  0  0  0
   -2.1210   -1.1190    4.0310 H   0  0  0  0  0  0  0  0  0  0  0  0
   -1.3400   -2.3900    3.1800 H   0  0  0  0  0  0  0  0  0  0  0  0
   -0.1920   -0.4020    4.9140 H   0  0  0  0  0  0  0  0  0  0  0  0
   -0.1810   -2.8670    5.1160 H   0  0  0  0  0  0  0  0  0  0  0  0
    0.6930   -2.9840    3.5590 H   0  0  0  0  0  0  0  0  0  0  0  0
    2.1930   -3.3140    5.4720 H   0  0  0  0  0  0  0  0  0  0  0  0
    1.8320   -1.6960    6.1510 H   0  0  0  0  0  0  0  0  0  0  0  0
    4.2470   -1.9690    2.7300 H   0  0  0  0  0  0  0  0  0  0  0  0
    1.6140   -2.3210   -0.7380 C   0  0  0  0  0  0  0  0  0  0  0  0
    2.2540   -1.1320   -0.1220 C   0  0  0  0  0  0  0  0  0  0  0  0
    3.0170   -0.4240   -1.2550 C   0  0  0  0  0  0  0  0  0  0  0  0
    1.3160   -0.1580    0.5380 C   0  0  2  0  0  0  0  0  0  0  0  0
    0.5510   -0.7320    1.5990 N   0  0  0  0  0  0  0  0  0  0  0  0
    0.4570    0.5670   -0.3970 C   0  0  0  0  0  0  0  0  0  0  0  0
    0.9040    1.1850   -1.4180 O   0  0  0  0  0  0  0  0  0  0  0  0
    1.2990   -2.1820   -1.8020 H   0  0  0  0  0  0  0  0  0  0  0  0
    2.3860   -3.1400   -0.7690 H   0  0  0  0  0  0  0  0  0  0  0  0
    0.7630   -2.7460   -0.1720 H   0  0  0  0  0  0  0  0  0  0  0  0
    3.0460   -1.4630    0.5770 H   0  0  0  0  0  0  0  0  0  0  0  0
    2.4500   -0.4390   -2.1970 H   0  0  0  0  0  0  0  0  0  0  0  0
    4.0010   -0.9020   -1.4060 H   0  0  0  0  0  0  0  0  0  0  0  0
    3.1620    0.6350   -0.9570 H   0  0  0  0  0  0  0  0  0  0  0  0
    2.0110    0.6030    1.0060 H   0  0  0  0  0  0  0  0  0  0  0  0
   -0.2140   -1.3980    1.3920 H   0  0  0  0  0  0  0  0  0  0  0  0
   -3.2440   -1.8570   -2.8020 C   0  0  0  0  0  0  0  0  0  0  0  0
   -2.2100   -0.8390   -2.3460 C   0  0  0  0  0  0  0  0  0  0  0  0
   -1.5830   -0.2920   -3.6340 C   0  0  0  0  0  0  0  0  0  0  0  0
   -2.8800    0.2760   -1.5740 C   0  0  0  0  0  0  0  0  0  0  0  0
   -1.8820    1.3050   -1.0870 C   0  0  2  0  0  0  0  0  0  0  0  0
   -0.9500    0.6240   -0.2190 N   0  0  0  0  0  0  0  0  0  0  0  0
   -2.6660    2.3510   -0.3740 C   0  0  0  0  0  0  0  0  0  0  0  0
   -2.5140    2.5820    0.8320 O   0  0  0  0  0  0  0  0  0  0  0  0
   -3.5880    3.0740   -1.1060 O   0  0  0  0  0  0  0  0  0  0  0  0
   -3.4520   -2.5740   -1.9720 H   0  0  0  0  0  0  0  0  0  0  0  0
   -4.2080   -1.3350   -3.0350 H   0  0  0  0  0  0  0  0  0  0  0  0
   -2.9090   -2.3760   -3.7100 H   0  0  0  0  0  0  0  0  0  0  0  0
   -1.4050   -1.3310   -1.7880 H   0  0  0  0  0  0  0  0  0  0  0  0
   -1.2260   -1.1780   -4.2000 H   0  0  0  0  0  0  0  0  0  0  0  0
   -2.3930    0.2000   -4.2170 H   0  0  0  0  0  0  0  0  0  0  0  0
   -0.8130    0.4380   -3.3970 H   0  0  0  0  0  0  0  0  0  0  0  0
   -3.4340   -0.1500   -0.7050 H   0  0  0  0  0  0  0  0  0  0  0  0
   -3.6580    0.7390   -2.2250 H   0  0  0  0  0  0  0  0  0  0  0  0
   -1.4030    1.7510   -1.9680 H   0  0  0  0  0  0  0  0  0  0  0  0
   -1.3270    0.1160    0.6340 H   0  0  0  0  0  0  0  0  0  0  0  0
  1 10  1  0  0  0  0
  1  2  1  0  0  0  0
  2  3  1  0  0  0  0
  2 12  1  1  0  0  0
  3 13  1  0  0  0  0
  3  4  1  0  0  0  0
  4 15  1  0  0  0  0
  4 16  1  0  0  0  0
  5  6  2  0  0  0  0
  5  4  1  0  0  0  0
  7  8  2  0  0  0  0
  7  2  1  0  0  0  0
  9  5  1  0  0  0  0
 11  1  1  0  0  0  0
 14  3  1  0  0  0  0
 17  9  1  0  0  0  0
 18 27  1  0  0  0  0
 18 19  1  0  0  0  0
 19 21  1  0  0  0  0
 19 28  1  0  0  0  0
 20 31  1  0  0  0  0
 20 19  1  0  0  0  0
 21 32  1  1  0  0  0
 21 22  1  0  0  0  0
 22  7  1  0  0  0  0
 23 39  1  0  0  0  0
 23 21  1  0  0  0  0
 24 23  2  0  0  0  0
 25 18  1  0  0  0  0
 26 18  1  0  0  0  0
 29 20  1  0  0  0  0
 30 20  1  0  0  0  0
 33 22  1  0  0  0  0
 34 35  1  0  0  0  0
 34 43  1  0  0  0  0
 35 46  1  0  0  0  0
 35 37  1  0  0  0  0
 36 49  1  0  0  0  0
 36 35  1  0  0  0  0
 37 38  1  0  0  0  0
 37 50  1  0  0  0  0
 38 52  1  6  0  0  0
 38 40  1  0  0  0  0
 38 39  1  0  0  0  0
 39 53  1  0  0  0  0
 40 41  1  0  0  0  0
 42 40  2  0  0  0  0
 44 34  1  0  0  0  0
 45 34  1  0  0  0  0
 47 36  1  0  0  0  0
 48 36  1  0  0  0  0
 51 37  1  0  0  0  0
M  END
$$$$
