EVQ.pdb
 OpenBabel07022418213D

 51 50  0  0  1  0  0  0  0  0999 V2000
   -0.7830    0.7270    5.0010 N   0  0  0  0  0  0  0  0  0  0  0  0
   -0.7810   -0.0690    3.7850 C   0  0  1  0  0  0  0  0  0  0  0  0
   -2.0570    0.0010    3.0420 C   0  0  0  0  0  0  0  0  0  0  0  0
   -2.4930    1.3720    2.6460 C   0  0  0  0  0  0  0  0  0  0  0  0
   -1.6250    2.1160    1.7430 C   0  0  0  0  0  0  0  0  0  0  0  0
   -0.5990    1.6440    1.2440 O   0  0  0  0  0  0  0  0  0  0  0  0
    0.4770   -0.0740    3.0470 C   0  0  0  0  0  0  0  0  0  0  0  0
    1.4240    0.7390    3.3360 O   0  0  0  0  0  0  0  0  0  0  0  0
   -1.9480    3.4470    1.4040 O   0  0  0  0  0  0  0  0  0  0  0  0
   -1.6250    0.4400    5.5490 H   0  0  0  0  0  0  0  0  0  0  0  0
    0.0470    0.3830    5.5600 H   0  0  0  0  0  0  0  0  0  0  0  0
   -0.8010   -1.1540    4.2440 H   0  0  0  0  0  0  0  0  0  0  0  0
   -2.0600   -0.6660    2.1300 H   0  0  0  0  0  0  0  0  0  0  0  0
   -2.9150   -0.4420    3.6450 H   0  0  0  0  0  0  0  0  0  0  0  0
   -2.6830    2.0130    3.5610 H   0  0  0  0  0  0  0  0  0  0  0  0
   -3.5180    1.3460    2.1690 H   0  0  0  0  0  0  0  0  0  0  0  0
   -1.2630    4.1110    1.1100 H   0  0  0  0  0  0  0  0  0  0  0  0
    4.0590   -2.1990    0.7850 C   0  0  0  0  0  0  0  0  0  0  0  0
    2.7670   -2.2590    1.5600 C   0  0  0  0  0  0  0  0  0  0  0  0
    3.1130   -2.1620    3.0500 C   0  0  0  0  0  0  0  0  0  0  0  0
    1.9750   -0.9960    1.2380 C   0  0  2  0  0  0  0  0  0  0  0  0
    0.7200   -0.9900    1.9660 N   0  0  0  0  0  0  0  0  0  0  0  0
    1.7990   -0.8600   -0.2080 C   0  0  0  0  0  0  0  0  0  0  0  0
    2.8140   -0.8170   -0.9480 O   0  0  0  0  0  0  0  0  0  0  0  0
    4.4340   -1.1660    0.6500 H   0  0  0  0  0  0  0  0  0  0  0  0
    3.9800   -2.6730   -0.2350 H   0  0  0  0  0  0  0  0  0  0  0  0
    4.8830   -2.7350    1.3440 H   0  0  0  0  0  0  0  0  0  0  0  0
    2.1940   -3.1660    1.3580 H   0  0  0  0  0  0  0  0  0  0  0  0
    3.6070   -1.2140    3.2780 H   0  0  0  0  0  0  0  0  0  0  0  0
    3.7420   -3.0240    3.3000 H   0  0  0  0  0  0  0  0  0  0  0  0
    2.1600   -2.2820    3.5960 H   0  0  0  0  0  0  0  0  0  0  0  0
    2.5890   -0.1590    1.6080 H   0  0  0  0  0  0  0  0  0  0  0  0
   -0.0630   -1.6410    1.7470 H   0  0  0  0  0  0  0  0  0  0  0  0
   -3.8720   -2.0980   -2.0810 N   0  0  0  0  0  0  0  0  0  0  0  0
   -2.6390   -1.5600   -2.6050 C   0  0  0  0  0  0  0  0  0  0  0  0
   -2.6950   -0.4460   -3.1090 O   0  0  0  0  0  0  0  0  0  0  0  0
   -1.4590   -2.3810   -2.4880 C   0  0  0  0  0  0  0  0  0  0  0  0
   -0.1520   -1.8600   -2.9300 C   0  0  0  0  0  0  0  0  0  0  0  0
    0.3900   -0.6420   -2.2740 C   0  0  2  0  0  0  0  0  0  0  0  0
    0.5350   -0.7710   -0.8540 N   0  0  0  0  0  0  0  0  0  0  0  0
   -0.1850    0.6260   -2.6950 C   0  0  0  0  0  0  0  0  0  0  0  0
   -0.6150    1.4360   -1.8290 O   0  0  0  0  0  0  0  0  0  0  0  0
   -0.2960    1.0330   -4.0220 O   0  0  0  0  0  0  0  0  0  0  0  0
   -4.5090   -1.5330   -1.4880 H   0  0  0  0  0  0  0  0  0  0  0  0
   -4.1210   -3.0850   -2.3120 H   0  0  0  0  0  0  0  0  0  0  0  0
   -1.4110   -2.8550   -1.4620 H   0  0  0  0  0  0  0  0  0  0  0  0
   -1.6550   -3.3050   -3.1390 H   0  0  0  0  0  0  0  0  0  0  0  0
    0.6240   -2.6780   -2.9210 H   0  0  0  0  0  0  0  0  0  0  0  0
   -0.2690   -1.5890   -4.0270 H   0  0  0  0  0  0  0  0  0  0  0  0
    1.4870   -0.6090   -2.6510 H   0  0  0  0  0  0  0  0  0  0  0  0
   -0.2800   -0.8090   -0.1880 H   0  0  0  0  0  0  0  0  0  0  0  0
  1 10  1  0  0  0  0
  1 11  1  0  0  0  0
  2 12  1  1  0  0  0
  2  1  1  0  0  0  0
  3 14  1  0  0  0  0
  3  2  1  0  0  0  0
  4  3  1  0  0  0  0
  4 15  1  0  0  0  0
  5  4  1  0  0  0  0
  6  5  2  0  0  0  0
  7  8  2  0  0  0  0
  7  2  1  0  0  0  0
  9  5  1  0  0  0  0
 13  3  1  0  0  0  0
 16  4  1  0  0  0  0
 17  9  1  0  0  0  0
 18 27  1  0  0  0  0
 18 19  1  0  0  0  0
 19 20  1  0  0  0  0
 20 29  1  0  0  0  0
 20 30  1  0  0  0  0
 20 31  1  0  0  0  0
 21 19  1  0  0  0  0
 21 32  1  1  0  0  0
 21 22  1  0  0  0  0
 22  7  1  0  0  0  0
 23 21  1  0  0  0  0
 24 23  2  0  0  0  0
 25 18  1  0  0  0  0
 26 18  1  0  0  0  0
 28 19  1  0  0  0  0
 33 22  1  0  0  0  0
 34 44  1  0  0  0  0
 35 37  1  0  0  0  0
 35 34  1  0  0  0  0
 36 35  2  0  0  0  0
 37 46  1  0  0  0  0
 38 48  1  0  0  0  0
 38 37  1  0  0  0  0
 38 39  1  0  0  0  0
 39 50  1  6  0  0  0
 39 40  1  0  0  0  0
 40 23  1  0  0  0  0
 40 51  1  0  0  0  0
 41 39  1  0  0  0  0
 41 42  1  0  0  0  0
 43 41  2  0  0  0  0
 45 34  1  0  0  0  0
 47 37  1  0  0  0  0
 49 38  1  0  0  0  0
M  END
$$$$
