EWD.pdb
 OpenBabel07022418203D

 55 56  0  0  1  0  0  0  0  0999 V2000
    3.0530    0.0050    4.5560 N   0  0  0  0  0  0  0  0  0  0  0  0
    2.8240   -0.0150    3.1250 C   0  0  1  0  0  0  0  0  0  0  0  0
    3.3310   -1.3580    2.6340 C   0  0  0  0  0  0  0  0  0  0  0  0
    4.7760   -1.5880    2.8980 C   0  0  0  0  0  0  0  0  0  0  0  0
    5.6940   -0.6320    2.2750 C   0  0  0  0  0  0  0  0  0  0  0  0
    6.9500   -0.6960    2.4600 O   0  0  0  0  0  0  0  0  0  0  0  0
    1.3580    0.0820    2.8970 C   0  0  0  0  0  0  0  0  0  0  0  0
    0.5970    0.1640    3.8900 O   0  0  0  0  0  0  0  0  0  0  0  0
    5.2710    0.3980    1.4510 O   0  0  0  0  0  0  0  0  0  0  0  0
    2.2300   -0.4610    5.0040 H   0  0  0  0  0  0  0  0  0  0  0  0
    3.0560    1.0000    4.9000 H   0  0  0  0  0  0  0  0  0  0  0  0
    3.3590    0.8450    2.6730 H   0  0  0  0  0  0  0  0  0  0  0  0
    3.1200   -1.4980    1.5530 H   0  0  0  0  0  0  0  0  0  0  0  0
    2.7600   -2.1380    3.1770 H   0  0  0  0  0  0  0  0  0  0  0  0
    5.0650   -2.6020    2.5420 H   0  0  0  0  0  0  0  0  0  0  0  0
    4.9820   -1.5620    4.0090 H   0  0  0  0  0  0  0  0  0  0  0  0
    5.8330    0.6490    0.6250 H   0  0  0  0  0  0  0  0  0  0  0  0
    0.7880    0.0870    1.5980 N   0  0  0  0  0  0  0  0  0  0  0  0
   -0.6370    0.1800    1.3300 C   0  0  1  0  0  0  0  0  0  0  0  0
   -0.9500    1.4790    0.6410 C   0  0  0  0  0  0  0  0  0  0  0  0
   -2.3610    1.6670    0.2810 C   0  0  0  0  0  0  0  0  0  0  0  0
   -3.3340    2.2770    1.0860 C   0  0  0  0  0  0  0  0  0  0  0  0
   -4.5110    2.2370    0.4530 N   0  0  0  0  0  0  0  0  0  0  0  0
   -4.3970    1.6250   -0.7550 C   0  0  0  0  0  0  0  0  0  0  0  0
   -5.3140    1.3660   -1.7590 C   0  0  0  0  0  0  0  0  0  0  0  0
   -4.9100    0.7390   -2.9110 C   0  0  0  0  0  0  0  0  0  0  0  0
   -3.5790    0.3940   -3.0070 C   0  0  0  0  0  0  0  0  0  0  0  0
   -2.6490    0.6410   -2.0230 C   0  0  0  0  0  0  0  0  0  0  0  0
   -3.0660    1.2770   -0.8540 C   0  0  0  0  0  0  0  0  0  0  0  0
   -1.2220   -0.9500    0.6420 C   0  0  0  0  0  0  0  0  0  0  0  0
   -2.4730   -1.0240    0.5480 O   0  0  0  0  0  0  0  0  0  0  0  0
    1.4280    0.0190    0.7900 H   0  0  0  0  0  0  0  0  0  0  0  0
   -1.2000    0.2500    2.3240 H   0  0  0  0  0  0  0  0  0  0  0  0
   -0.6650    2.3570    1.2860 H   0  0  0  0  0  0  0  0  0  0  0  0
   -0.3450    1.5420   -0.3010 H   0  0  0  0  0  0  0  0  0  0  0  0
   -3.1020    2.6950    2.0540 H   0  0  0  0  0  0  0  0  0  0  0  0
   -5.4180    2.6070    0.7970 H   0  0  0  0  0  0  0  0  0  0  0  0
   -6.3480    1.6480   -1.6540 H   0  0  0  0  0  0  0  0  0  0  0  0
   -5.6200    0.5230   -3.7220 H   0  0  0  0  0  0  0  0  0  0  0  0
   -3.2770   -0.1000   -3.9250 H   0  0  0  0  0  0  0  0  0  0  0  0
   -1.6140    0.3760   -2.0900 H   0  0  0  0  0  0  0  0  0  0  0  0
   -0.4770   -2.0180    0.0440 N   0  0  0  0  0  0  0  0  0  0  0  0
   -1.1490   -3.1080   -0.6240 C   0  0  1  0  0  0  0  0  0  0  0  0
   -0.8540   -3.1580   -2.1080 C   0  0  0  0  0  0  0  0  0  0  0  0
    0.5930   -3.3360   -2.3710 C   0  0  0  0  0  0  0  0  0  0  0  0
    1.3720   -3.4400   -1.3980 O   0  0  0  0  0  0  0  0  0  0  0  0
   -0.8790   -4.4100    0.0290 C   0  0  0  0  0  0  0  0  0  0  0  0
   -0.1320   -4.4720    1.0580 O   0  0  0  0  0  0  0  0  0  0  0  0
    1.1370   -3.3950   -3.6300 O   0  0  0  0  0  0  0  0  0  0  0  0
   -1.4080   -5.6050   -0.4230 O   0  0  0  0  0  0  0  0  0  0  0  0
    0.5590   -1.9190    0.1450 H   0  0  0  0  0  0  0  0  0  0  0  0
   -2.2400   -2.9280   -0.5450 H   0  0  0  0  0  0  0  0  0  0  0  0
   -1.1430   -2.2030   -2.6070 H   0  0  0  0  0  0  0  0  0  0  0  0
   -1.4580   -3.9390   -2.6130 H   0  0  0  0  0  0  0  0  0  0  0  0
    2.0310   -2.9330   -3.8530 H   0  0  0  0  0  0  0  0  0  0  0  0
  1 11  1  0  0  0  0
  1 10  1  0  0  0  0
  2 12  1  6  0  0  0
  2  1  1  0  0  0  0
  3  4  1  0  0  0  0
  3  2  1  0  0  0  0
  3 14  1  0  0  0  0
  4 16  1  0  0  0  0
  5  6  2  0  0  0  0
  5  4  1  0  0  0  0
  7  2  1  0  0  0  0
  7  8  2  0  0  0  0
  9  5  1  0  0  0  0
 13  3  1  0  0  0  0
 15  4  1  0  0  0  0
 17  9  1  0  0  0  0
 18  7  1  0  0  0  0
 19 18  1  0  0  0  0
 19 33  1  1  0  0  0
 20 34  1  0  0  0  0
 20 19  1  0  0  0  0
 21 20  1  0  0  0  0
 21 22  2  0  0  0  0
 22 36  1  0  0  0  0
 23 37  1  0  0  0  0
 23 22  1  0  0  0  0
 24 23  1  0  0  0  0
 25 38  1  0  0  0  0
 25 24  2  0  0  0  0
 26 25  1  0  0  0  0
 27 26  2  0  0  0  0
 27 28  1  0  0  0  0
 28 29  2  0  0  0  0
 29 24  1  0  0  0  0
 29 21  1  0  0  0  0
 30 19  1  0  0  0  0
 31 30  2  0  0  0  0
 32 18  1  0  0  0  0
 35 20  1  0  0  0  0
 39 26  1  0  0  0  0
 40 27  1  0  0  0  0
 41 28  1  0  0  0  0
 42 51  1  0  0  0  0
 42 30  1  0  0  0  0
 43 52  1  1  0  0  0
 43 47  1  0  0  0  0
 43 42  1  0  0  0  0
 44 43  1  0  0  0  0
 45 44  1  0  0  0  0
 45 46  2  0  0  0  0
 47 48  1  0  0  0  0
 49 45  1  0  0  0  0
 50 47  2  0  0  0  0
 53 44  1  0  0  0  0
 54 44  1  0  0  0  0
 55 49  1  0  0  0  0
M  END
$$$$
