EWI.pdb
 OpenBabel07022418203D

 61 62  0  0  1  0  0  0  0  0999 V2000
    2.6270   -2.4430    2.5200 N   0  0  0  0  0  0  0  0  0  0  0  0
    2.5160   -1.1970    3.2910 C   0  0  1  0  0  0  0  0  0  0  0  0
    3.8690   -0.6520    3.6000 C   0  0  0  0  0  0  0  0  0  0  0  0
    3.8810    0.6310    4.3850 C   0  0  0  0  0  0  0  0  0  0  0  0
    5.3040    1.0540    4.6280 C   0  0  0  0  0  0  0  0  0  0  0  0
    6.0990    0.2590    5.1610 O   0  0  0  0  0  0  0  0  0  0  0  0
    1.6230   -0.2400    2.5650 C   0  0  0  0  0  0  0  0  0  0  0  0
    1.2870    0.8730    3.0420 O   0  0  0  0  0  0  0  0  0  0  0  0
    5.7360    2.3170    4.2600 O   0  0  0  0  0  0  0  0  0  0  0  0
    3.5770   -2.8560    2.5960 H   0  0  0  0  0  0  0  0  0  0  0  0
    1.9540   -3.1150    2.9390 H   0  0  0  0  0  0  0  0  0  0  0  0
    2.0170   -1.4480    4.2390 H   0  0  0  0  0  0  0  0  0  0  0  0
    4.4020   -1.4510    4.1920 H   0  0  0  0  0  0  0  0  0  0  0  0
    4.4850   -0.5530    2.6810 H   0  0  0  0  0  0  0  0  0  0  0  0
    3.3380    1.4350    3.8370 H   0  0  0  0  0  0  0  0  0  0  0  0
    3.4410    0.5300    5.3870 H   0  0  0  0  0  0  0  0  0  0  0  0
    6.6990    2.4880    3.9510 H   0  0  0  0  0  0  0  0  0  0  0  0
    1.0980   -0.5350    1.2800 N   0  0  0  0  0  0  0  0  0  0  0  0
    0.2280    0.4060    0.5720 C   0  0  1  0  0  0  0  0  0  0  0  0
    0.8240    0.8480   -0.7050 C   0  0  0  0  0  0  0  0  0  0  0  0
   -0.0420    1.7690   -1.4500 C   0  0  0  0  0  0  0  0  0  0  0  0
   -0.0870    3.1660   -1.3130 C   0  0  0  0  0  0  0  0  0  0  0  0
   -1.0360    3.6560   -2.1140 N   0  0  0  0  0  0  0  0  0  0  0  0
   -1.6480    2.6700   -2.8000 C   0  0  0  0  0  0  0  0  0  0  0  0
   -2.6660    2.6930   -3.7490 C   0  0  0  0  0  0  0  0  0  0  0  0
   -3.0640    1.4920   -4.2950 C   0  0  0  0  0  0  0  0  0  0  0  0
   -2.4610    0.3140   -3.9010 C   0  0  0  0  0  0  0  0  0  0  0  0
   -1.4590    0.3150   -2.9610 C   0  0  0  0  0  0  0  0  0  0  0  0
   -1.0320    1.4950   -2.3890 C   0  0  0  0  0  0  0  0  0  0  0  0
   -1.1340   -0.1100    0.4360 C   0  0  0  0  0  0  0  0  0  0  0  0
   -2.1110    0.5420    0.0090 O   0  0  0  0  0  0  0  0  0  0  0  0
    1.3340   -1.4370    0.8280 H   0  0  0  0  0  0  0  0  0  0  0  0
    0.1680    1.3350    1.2280 H   0  0  0  0  0  0  0  0  0  0  0  0
    1.8140    1.3730   -0.5610 H   0  0  0  0  0  0  0  0  0  0  0  0
    1.0630   -0.0060   -1.3920 H   0  0  0  0  0  0  0  0  0  0  0  0
    0.5880    3.6810   -0.6310 H   0  0  0  0  0  0  0  0  0  0  0  0
   -1.2830    4.6580   -2.2110 H   0  0  0  0  0  0  0  0  0  0  0  0
   -3.1180    3.6290   -4.0340 H   0  0  0  0  0  0  0  0  0  0  0  0
   -3.8690    1.4950   -5.0470 H   0  0  0  0  0  0  0  0  0  0  0  0
   -2.7850   -0.6110   -4.3410 H   0  0  0  0  0  0  0  0  0  0  0  0
   -0.9570   -0.5790   -2.6210 H   0  0  0  0  0  0  0  0  0  0  0  0
   -2.0820   -5.5800   -0.5220 C   0  0  0  0  0  0  0  0  0  0  0  0
   -1.9100   -4.3960    0.4000 C   0  0  0  0  0  0  0  0  0  0  0  0
   -2.7860   -3.2800   -0.1220 C   0  0  2  0  0  0  0  0  0  0  0  0
   -2.3710   -2.9070   -1.5390 C   0  0  0  0  0  0  0  0  0  0  0  0
   -2.7310   -2.0410    0.7060 C   0  0  2  0  0  0  0  0  0  0  0  0
   -1.4220   -1.4570    0.8080 N   0  0  0  0  0  0  0  0  0  0  0  0
   -3.3430   -2.2480    2.0640 C   0  0  0  0  0  0  0  0  0  0  0  0
   -4.4830   -2.7460    2.2240 O   0  0  0  0  0  0  0  0  0  0  0  0
   -2.6710   -1.8940    3.2310 O   0  0  0  0  0  0  0  0  0  0  0  0
   -2.1050   -6.5260    0.0770 H   0  0  0  0  0  0  0  0  0  0  0  0
   -3.0700   -5.4800   -1.0150 H   0  0  0  0  0  0  0  0  0  0  0  0
   -1.2750   -5.6300   -1.2850 H   0  0  0  0  0  0  0  0  0  0  0  0
   -2.2130   -4.7300    1.4100 H   0  0  0  0  0  0  0  0  0  0  0  0
   -0.8300   -4.1130    0.3730 H   0  0  0  0  0  0  0  0  0  0  0  0
   -3.8290   -3.6340   -0.1490 H   0  0  0  0  0  0  0  0  0  0  0  0
   -2.6330   -3.7710   -2.1980 H   0  0  0  0  0  0  0  0  0  0  0  0
   -1.2760   -2.6890   -1.5570 H   0  0  0  0  0  0  0  0  0  0  0  0
   -2.9660   -2.0520   -1.8570 H   0  0  0  0  0  0  0  0  0  0  0  0
   -3.3840   -1.2870    0.2200 H   0  0  0  0  0  0  0  0  0  0  0  0
   -0.6420   -2.0440    1.1720 H   0  0  0  0  0  0  0  0  0  0  0  0
  1 10  1  0  0  0  0
  1 11  1  0  0  0  0
  1  2  1  0  0  0  0
  2  3  1  0  0  0  0
  2 12  1  1  0  0  0
  3 13  1  0  0  0  0
  3  4  1  0  0  0  0
  4  5  1  0  0  0  0
  4 16  1  0  0  0  0
  5  6  2  0  0  0  0
  7  8  2  0  0  0  0
  7  2  1  0  0  0  0
  9  5  1  0  0  0  0
 14  3  1  0  0  0  0
 15  4  1  0  0  0  0
 17  9  1  0  0  0  0
 18  7  1  0  0  0  0
 19 33  1  1  0  0  0
 19 18  1  0  0  0  0
 20 34  1  0  0  0  0
 20 19  1  0  0  0  0
 21 22  2  0  0  0  0
 21 20  1  0  0  0  0
 22 36  1  0  0  0  0
 23 22  1  0  0  0  0
 24 29  1  0  0  0  0
 24 23  1  0  0  0  0
 25 24  2  0  0  0  0
 26 27  2  0  0  0  0
 26 25  1  0  0  0  0
 27 28  1  0  0  0  0
 28 41  1  0  0  0  0
 28 29  2  0  0  0  0
 29 21  1  0  0  0  0
 30 19  1  0  0  0  0
 30 47  1  0  0  0  0
 31 30  2  0  0  0  0
 32 18  1  0  0  0  0
 35 20  1  0  0  0  0
 37 23  1  0  0  0  0
 38 25  1  0  0  0  0
 39 26  1  0  0  0  0
 40 27  1  0  0  0  0
 42 51  1  0  0  0  0
 42 43  1  0  0  0  0
 43 54  1  0  0  0  0
 44 56  1  6  0  0  0
 44 43  1  0  0  0  0
 44 46  1  0  0  0  0
 45 44  1  0  0  0  0
 46 60  1  6  0  0  0
 46 47  1  0  0  0  0
 46 48  1  0  0  0  0
 47 61  1  0  0  0  0
 48 49  2  0  0  0  0
 48 50  1  0  0  0  0
 52 42  1  0  0  0  0
 53 42  1  0  0  0  0
 55 43  1  0  0  0  0
 57 45  1  0  0  0  0
 58 45  1  0  0  0  0
 59 45  1  0  0  0  0
M  END
$$$$
