EWK.pdb
 OpenBabel07022418203D

 63 64  0  0  1  0  0  0  0  0999 V2000
    3.7800    1.9750    1.1960 N   0  0  0  0  0  0  0  0  0  0  0  0
    3.2920    0.8820    2.0120 C   0  0  1  0  0  0  0  0  0  0  0  0
    2.9270    1.3820    3.3810 C   0  0  0  0  0  0  0  0  0  0  0  0
    4.0490    2.0040    4.1440 C   0  0  0  0  0  0  0  0  0  0  0  0
    5.1860    1.1170    4.3970 C   0  0  0  0  0  0  0  0  0  0  0  0
    6.1690    1.6070    5.0270 O   0  0  0  0  0  0  0  0  0  0  0  0
    2.0660    0.2530    1.4510 C   0  0  0  0  0  0  0  0  0  0  0  0
    1.5740   -0.7020    2.1020 O   0  0  0  0  0  0  0  0  0  0  0  0
    5.2870   -0.1950    4.0150 O   0  0  0  0  0  0  0  0  0  0  0  0
    3.1560    2.7860    1.3590 H   0  0  0  0  0  0  0  0  0  0  0  0
    3.8140    1.6950    0.2000 H   0  0  0  0  0  0  0  0  0  0  0  0
    4.0460    0.0510    2.0590 H   0  0  0  0  0  0  0  0  0  0  0  0
    2.4000    0.6200    3.9710 H   0  0  0  0  0  0  0  0  0  0  0  0
    2.1680    2.2020    3.2110 H   0  0  0  0  0  0  0  0  0  0  0  0
    3.6200    2.2610    5.1590 H   0  0  0  0  0  0  0  0  0  0  0  0
    4.3510    2.9940    3.7220 H   0  0  0  0  0  0  0  0  0  0  0  0
    6.1010   -0.7650    4.0400 H   0  0  0  0  0  0  0  0  0  0  0  0
    1.4260    0.6500    0.2570 N   0  0  0  0  0  0  0  0  0  0  0  0
    0.2190   -0.0140   -0.2390 C   0  0  1  0  0  0  0  0  0  0  0  0
   -0.8960    1.0150   -0.2070 C   0  0  0  0  0  0  0  0  0  0  0  0
   -1.1050    1.5020    1.1790 C   0  0  0  0  0  0  0  0  0  0  0  0
   -0.7290    2.6890    1.7710 C   0  0  0  0  0  0  0  0  0  0  0  0
   -1.1360    2.6990    3.0730 N   0  0  0  0  0  0  0  0  0  0  0  0
   -1.7690    1.5450    3.3450 C   0  0  0  0  0  0  0  0  0  0  0  0
   -2.3560    1.0790    4.4990 C   0  0  0  0  0  0  0  0  0  0  0  0
   -2.9470   -0.1670    4.4950 C   0  0  0  0  0  0  0  0  0  0  0  0
   -2.9570   -0.9480    3.3570 C   0  0  0  0  0  0  0  0  0  0  0  0
   -2.3590   -0.4440    2.2210 C   0  0  0  0  0  0  0  0  0  0  0  0
   -1.7540    0.8020    2.1800 C   0  0  0  0  0  0  0  0  0  0  0  0
    0.4190   -0.5950   -1.5660 C   0  0  0  0  0  0  0  0  0  0  0  0
    1.5300   -0.4890   -2.1300 O   0  0  0  0  0  0  0  0  0  0  0  0
    1.8450    1.4440   -0.2740 H   0  0  0  0  0  0  0  0  0  0  0  0
   -0.0910   -0.8300    0.4460 H   0  0  0  0  0  0  0  0  0  0  0  0
   -0.6310    1.8960   -0.8560 H   0  0  0  0  0  0  0  0  0  0  0  0
   -1.8480    0.6100   -0.5650 H   0  0  0  0  0  0  0  0  0  0  0  0
   -0.1950    3.4790    1.2670 H   0  0  0  0  0  0  0  0  0  0  0  0
   -0.9730    3.4810    3.7330 H   0  0  0  0  0  0  0  0  0  0  0  0
   -2.3860    1.6330    5.4250 H   0  0  0  0  0  0  0  0  0  0  0  0
   -3.4270   -0.5770    5.3980 H   0  0  0  0  0  0  0  0  0  0  0  0
   -3.4010   -1.9180    3.3030 H   0  0  0  0  0  0  0  0  0  0  0  0
   -2.3280   -1.0030    1.2840 H   0  0  0  0  0  0  0  0  0  0  0  0
   -0.6610   -1.2940   -2.2370 N   0  0  0  0  0  0  0  0  0  0  0  0
   -0.4840   -1.8680   -3.5320 C   0  0  1  0  0  0  0  0  0  0  0  0
   -0.3930   -3.3440   -3.6480 C   0  0  0  0  0  0  0  0  0  0  0  0
   -1.5030   -4.2060   -3.2290 C   0  0  0  0  0  0  0  0  0  0  0  0
   -1.9540   -4.2200   -1.8220 C   0  0  0  0  0  0  0  0  0  0  0  0
   -3.0970   -5.2750   -1.7670 C   0  0  0  0  0  0  0  0  0  0  0  0
   -4.1350   -4.8520   -2.6650 N   0  0  0  0  0  0  0  0  0  0  0  0
   -1.6040   -1.4110   -4.4030 C   0  0  0  0  0  0  0  0  0  0  0  0
   -1.6910   -1.7700   -5.6020 O   0  0  0  0  0  0  0  0  0  0  0  0
   -2.5980   -0.5680   -3.9230 O   0  0  0  0  0  0  0  0  0  0  0  0
   -1.5400   -1.2990   -1.6910 H   0  0  0  0  0  0  0  0  0  0  0  0
    0.4810   -1.4610   -3.9710 H   0  0  0  0  0  0  0  0  0  0  0  0
   -0.2570   -3.5370   -4.7730 H   0  0  0  0  0  0  0  0  0  0  0  0
    0.6010   -3.7220   -3.2560 H   0  0  0  0  0  0  0  0  0  0  0  0
   -2.4060   -4.0270   -3.8790 H   0  0  0  0  0  0  0  0  0  0  0  0
   -1.2080   -5.2860   -3.4660 H   0  0  0  0  0  0  0  0  0  0  0  0
   -2.4040   -3.3120   -1.4240 H   0  0  0  0  0  0  0  0  0  0  0  0
   -1.1860   -4.6370   -1.1210 H   0  0  0  0  0  0  0  0  0  0  0  0
   -2.6920   -6.2470   -2.1160 H   0  0  0  0  0  0  0  0  0  0  0  0
   -3.4170   -5.4050   -0.7240 H   0  0  0  0  0  0  0  0  0  0  0  0
   -5.0860   -5.2080   -2.3830 H   0  0  0  0  0  0  0  0  0  0  0  0
   -4.1550   -3.7950   -2.7670 H   0  0  0  0  0  0  0  0  0  0  0  0
  1 10  1  0  0  0  0
  1  2  1  0  0  0  0
  2 12  1  1  0  0  0
  2  3  1  0  0  0  0
  3 13  1  0  0  0  0
  3  4  1  0  0  0  0
  4  5  1  0  0  0  0
  4 15  1  0  0  0  0
  5  6  2  0  0  0  0
  7  2  1  0  0  0  0
  7  8  2  0  0  0  0
  9 17  1  0  0  0  0
  9  5  1  0  0  0  0
 11  1  1  0  0  0  0
 14  3  1  0  0  0  0
 16  4  1  0  0  0  0
 18  7  1  0  0  0  0
 19 20  1  0  0  0  0
 19 18  1  0  0  0  0
 19 33  1  1  0  0  0
 20 21  1  0  0  0  0
 21 22  2  0  0  0  0
 21 29  1  0  0  0  0
 22 23  1  0  0  0  0
 23 24  1  0  0  0  0
 23 37  1  0  0  0  0
 24 25  1  0  0  0  0
 25 38  1  0  0  0  0
 26 25  2  0  0  0  0
 26 39  1  0  0  0  0
 27 26  1  0  0  0  0
 28 27  2  0  0  0  0
 29 28  1  0  0  0  0
 29 24  2  0  0  0  0
 30 19  1  0  0  0  0
 31 30  2  0  0  0  0
 32 18  1  0  0  0  0
 34 20  1  0  0  0  0
 35 20  1  0  0  0  0
 36 22  1  0  0  0  0
 40 27  1  0  0  0  0
 41 28  1  0  0  0  0
 42 52  1  0  0  0  0
 42 30  1  0  0  0  0
 43 53  1  6  0  0  0
 43 42  1  0  0  0  0
 44 43  1  0  0  0  0
 44 55  1  0  0  0  0
 44 45  1  0  0  0  0
 45 46  1  0  0  0  0
 46 47  1  0  0  0  0
 46 58  1  0  0  0  0
 46 59  1  0  0  0  0
 47 61  1  0  0  0  0
 48 62  1  0  0  0  0
 48 47  1  0  0  0  0
 49 51  1  0  0  0  0
 49 43  1  0  0  0  0
 50 49  2  0  0  0  0
 54 44  1  0  0  0  0
 56 45  1  0  0  0  0
 57 45  1  0  0  0  0
 60 47  1  0  0  0  0
 63 48  1  0  0  0  0
M  END
$$$$
