EWP.pdb
 OpenBabel07022418213D

 56 58  0  0  1  0  0  0  0  0999 V2000
    0.6520   -0.8730    4.5000 N   0  0  0  0  0  0  0  0  0  0  0  0
    1.3720   -0.3880    3.3130 C   0  0  1  0  0  0  0  0  0  0  0  0
    2.7900   -0.9260    3.3090 C   0  0  0  0  0  0  0  0  0  0  0  0
    3.5180   -0.4460    4.5750 C   0  0  0  0  0  0  0  0  0  0  0  0
    3.5790    1.0240    4.6200 C   0  0  0  0  0  0  0  0  0  0  0  0
    4.0960    1.6460    3.6560 O   0  0  0  0  0  0  0  0  0  0  0  0
    0.5950   -0.8250    2.1370 C   0  0  0  0  0  0  0  0  0  0  0  0
   -0.4750   -1.5040    2.2830 O   0  0  0  0  0  0  0  0  0  0  0  0
    3.0890    1.7660    5.6800 O   0  0  0  0  0  0  0  0  0  0  0  0
    0.5150   -1.9090    4.4360 H   0  0  0  0  0  0  0  0  0  0  0  0
   -0.3120   -0.4800    4.4690 H   0  0  0  0  0  0  0  0  0  0  0  0
    1.4460    0.6980    3.4260 H   0  0  0  0  0  0  0  0  0  0  0  0
    2.7210   -2.0270    3.3950 H   0  0  0  0  0  0  0  0  0  0  0  0
    3.3570   -0.5990    2.4420 H   0  0  0  0  0  0  0  0  0  0  0  0
    4.5170   -0.9180    4.5500 H   0  0  0  0  0  0  0  0  0  0  0  0
    2.9810   -0.8300    5.4640 H   0  0  0  0  0  0  0  0  0  0  0  0
    3.2320    2.7500    5.8030 H   0  0  0  0  0  0  0  0  0  0  0  0
    0.9490   -0.5440    0.7940 N   0  0  0  0  0  0  0  0  0  0  0  0
    0.1310   -1.0050   -0.3360 C   0  0  1  0  0  0  0  0  0  0  0  0
   -0.4270    0.2880   -0.9570 C   0  0  0  0  0  0  0  0  0  0  0  0
   -1.2190    1.0450    0.0310 C   0  0  0  0  0  0  0  0  0  0  0  0
   -0.8680    2.1820    0.7350 C   0  0  0  0  0  0  0  0  0  0  0  0
   -1.8790    2.5530    1.5380 N   0  0  0  0  0  0  0  0  0  0  0  0
   -2.9060    1.6860    1.3890 C   0  0  0  0  0  0  0  0  0  0  0  0
   -4.1530    1.5980    1.9580 C   0  0  0  0  0  0  0  0  0  0  0  0
   -5.0420    0.5990    1.6350 C   0  0  0  0  0  0  0  0  0  0  0  0
   -4.6310   -0.3370    0.7000 C   0  0  0  0  0  0  0  0  0  0  0  0
   -3.3820   -0.2570    0.1250 C   0  0  0  0  0  0  0  0  0  0  0  0
   -2.4950    0.7470    0.4510 C   0  0  0  0  0  0  0  0  0  0  0  0
    0.9260   -1.7940   -1.2730 C   0  0  0  0  0  0  0  0  0  0  0  0
    2.1920   -1.9510   -1.1080 O   0  0  0  0  0  0  0  0  0  0  0  0
    1.8160    0.0070    0.6370 H   0  0  0  0  0  0  0  0  0  0  0  0
   -0.7490   -1.5820   -0.0250 H   0  0  0  0  0  0  0  0  0  0  0  0
   -0.9920    0.1050   -1.8750 H   0  0  0  0  0  0  0  0  0  0  0  0
    0.4350    0.9520   -1.2570 H   0  0  0  0  0  0  0  0  0  0  0  0
    0.0870    2.6630    0.6230 H   0  0  0  0  0  0  0  0  0  0  0  0
   -1.9290    3.3680    2.1930 H   0  0  0  0  0  0  0  0  0  0  0  0
   -4.4880    2.3390    2.7020 H   0  0  0  0  0  0  0  0  0  0  0  0
   -6.0400    0.5310    2.0940 H   0  0  0  0  0  0  0  0  0  0  0  0
   -5.2990   -1.1460    0.4140 H   0  0  0  0  0  0  0  0  0  0  0  0
   -3.0380   -0.9790   -0.6110 H   0  0  0  0  0  0  0  0  0  0  0  0
    0.3970   -2.4420   -2.4110 N   0  0  0  0  0  0  0  0  0  0  0  0
   -0.9930   -2.4270   -2.8080 C   0  0  0  0  0  0  0  0  0  0  0  0
   -1.2050   -3.7270   -3.5610 C   0  0  0  0  0  0  0  0  0  0  0  0
    0.1260   -4.4040   -3.5450 C   0  0  0  0  0  0  0  0  0  0  0  0
    1.0930   -3.2480   -3.4050 C   0  0  1  0  0  0  0  0  0  0  0  0
    1.1760   -2.5410   -4.6830 C   0  0  0  0  0  0  0  0  0  0  0  0
    1.7290   -3.1020   -5.6780 O   0  0  0  0  0  0  0  0  0  0  0  0
    0.6710   -1.2720   -4.8560 O   0  0  0  0  0  0  0  0  0  0  0  0
   -1.1740   -1.5900   -3.4960 H   0  0  0  0  0  0  0  0  0  0  0  0
   -1.6800   -2.4570   -1.9320 H   0  0  0  0  0  0  0  0  0  0  0  0
   -1.5580   -3.5090   -4.5910 H   0  0  0  0  0  0  0  0  0  0  0  0
   -1.9750   -4.3740   -3.0950 H   0  0  0  0  0  0  0  0  0  0  0  0
    0.2910   -4.9810   -4.4860 H   0  0  0  0  0  0  0  0  0  0  0  0
    0.1810   -5.0910   -2.6660 H   0  0  0  0  0  0  0  0  0  0  0  0
    2.0720   -3.6000   -3.0200 H   0  0  0  0  0  0  0  0  0  0  0  0
  2 12  1  1  0  0  0
  2  1  1  0  0  0  0
  3  2  1  0  0  0  0
  3 13  1  0  0  0  0
  3  4  1  0  0  0  0
  4  5  1  0  0  0  0
  4 16  1  0  0  0  0
  5  9  1  0  0  0  0
  6  5  2  0  0  0  0
  7  8  2  0  0  0  0
  7  2  1  0  0  0  0
  9 17  1  0  0  0  0
 10  1  1  0  0  0  0
 11  1  1  0  0  0  0
 14  3  1  0  0  0  0
 15  4  1  0  0  0  0
 18  7  1  0  0  0  0
 19 33  1  1  0  0  0
 19 18  1  0  0  0  0
 20 19  1  0  0  0  0
 20 21  1  0  0  0  0
 21 29  1  0  0  0  0
 21 22  2  0  0  0  0
 22 23  1  0  0  0  0
 23 37  1  0  0  0  0
 24 23  1  0  0  0  0
 24 25  1  0  0  0  0
 25 38  1  0  0  0  0
 26 25  2  0  0  0  0
 26 39  1  0  0  0  0
 27 26  1  0  0  0  0
 28 29  1  0  0  0  0
 28 27  2  0  0  0  0
 29 24  2  0  0  0  0
 30 31  2  0  0  0  0
 30 19  1  0  0  0  0
 32 18  1  0  0  0  0
 34 20  1  0  0  0  0
 35 20  1  0  0  0  0
 36 22  1  0  0  0  0
 40 27  1  0  0  0  0
 41 28  1  0  0  0  0
 42 30  1  0  0  0  0
 43 42  1  0  0  0  0
 43 51  1  0  0  0  0
 44 45  1  0  0  0  0
 44 53  1  0  0  0  0
 44 43  1  0  0  0  0
 45 46  1  0  0  0  0
 45 55  1  0  0  0  0
 46 56  1  1  0  0  0
 46 42  1  0  0  0  0
 47 46  1  0  0  0  0
 48 47  2  0  0  0  0
 49 47  1  0  0  0  0
 50 43  1  0  0  0  0
 52 44  1  0  0  0  0
 54 45  1  0  0  0  0
M  END
$$$$
