EWV.pdb
 OpenBabel07022418213D

 58 59  0  0  1  0  0  0  0  0999 V2000
   -0.2930   -0.6590    4.3400 N   0  0  0  0  0  0  0  0  0  0  0  0
    0.4780   -0.4500    3.1030 C   0  0  1  0  0  0  0  0  0  0  0  0
    1.3870   -1.6170    2.9400 C   0  0  0  0  0  0  0  0  0  0  0  0
    2.3620   -1.8140    4.0700 C   0  0  0  0  0  0  0  0  0  0  0  0
    3.2530   -0.6510    4.2160 C   0  0  0  0  0  0  0  0  0  0  0  0
    3.1800    0.3240    3.4540 O   0  0  0  0  0  0  0  0  0  0  0  0
   -0.5360   -0.5230    1.9900 C   0  0  0  0  0  0  0  0  0  0  0  0
   -1.7610   -0.7020    2.1910 O   0  0  0  0  0  0  0  0  0  0  0  0
    4.1880   -0.6800    5.2460 O   0  0  0  0  0  0  0  0  0  0  0  0
   -0.9530    0.1320    4.5150 H   0  0  0  0  0  0  0  0  0  0  0  0
   -0.9110   -1.5050    4.2120 H   0  0  0  0  0  0  0  0  0  0  0  0
    0.9290    0.5370    3.0710 H   0  0  0  0  0  0  0  0  0  0  0  0
    0.7460   -2.5300    2.8850 H   0  0  0  0  0  0  0  0  0  0  0  0
    1.9480   -1.4680    1.9810 H   0  0  0  0  0  0  0  0  0  0  0  0
    1.8450   -2.0640    5.0230 H   0  0  0  0  0  0  0  0  0  0  0  0
    3.0190   -2.6750    3.7510 H   0  0  0  0  0  0  0  0  0  0  0  0
    4.7970    0.1200    5.4410 H   0  0  0  0  0  0  0  0  0  0  0  0
   -0.1330   -0.3880    0.6260 N   0  0  0  0  0  0  0  0  0  0  0  0
   -1.0520   -0.4480   -0.4680 C   0  0  1  0  0  0  0  0  0  0  0  0
   -1.0190    0.8680   -1.2160 C   0  0  0  0  0  0  0  0  0  0  0  0
   -1.4020    2.0040   -0.3340 C   0  0  0  0  0  0  0  0  0  0  0  0
   -0.5930    2.9620    0.2590 C   0  0  0  0  0  0  0  0  0  0  0  0
   -1.3590    3.8200    0.9900 N   0  0  0  0  0  0  0  0  0  0  0  0
   -2.6470    3.4490    0.8910 C   0  0  0  0  0  0  0  0  0  0  0  0
   -3.7800    4.0030    1.4490 C   0  0  0  0  0  0  0  0  0  0  0  0
   -4.9980    3.4130    1.1800 C   0  0  0  0  0  0  0  0  0  0  0  0
   -5.0710    2.2960    0.3720 C   0  0  0  0  0  0  0  0  0  0  0  0
   -3.9220    1.7580   -0.1760 C   0  0  0  0  0  0  0  0  0  0  0  0
   -2.6880    2.3260    0.0740 C   0  0  0  0  0  0  0  0  0  0  0  0
   -0.7410   -1.5420   -1.4230 C   0  0  0  0  0  0  0  0  0  0  0  0
   -1.4640   -1.7140   -2.4370 O   0  0  0  0  0  0  0  0  0  0  0  0
    0.8800   -0.2380    0.4350 H   0  0  0  0  0  0  0  0  0  0  0  0
   -2.1070   -0.5910   -0.1210 H   0  0  0  0  0  0  0  0  0  0  0  0
   -1.7450    0.8510   -2.0750 H   0  0  0  0  0  0  0  0  0  0  0  0
   -0.0180    1.0790   -1.6390 H   0  0  0  0  0  0  0  0  0  0  0  0
    0.4750    2.9790    0.1280 H   0  0  0  0  0  0  0  0  0  0  0  0
   -0.9730    4.6270    1.5290 H   0  0  0  0  0  0  0  0  0  0  0  0
   -3.7880    4.8730    2.0880 H   0  0  0  0  0  0  0  0  0  0  0  0
   -5.9380    3.8030    1.5920 H   0  0  0  0  0  0  0  0  0  0  0  0
   -6.0190    1.8150    0.1460 H   0  0  0  0  0  0  0  0  0  0  0  0
   -3.9420    0.8790   -0.8170 H   0  0  0  0  0  0  0  0  0  0  0  0
    3.1610   -3.1760   -1.7530 C   0  0  0  0  0  0  0  0  0  0  0  0
    2.0560   -3.2740   -2.7750 C   0  0  0  0  0  0  0  0  0  0  0  0
    2.3450   -4.4720   -3.6540 C   0  0  0  0  0  0  0  0  0  0  0  0
    0.7040   -3.4910   -2.1300 C   0  0  2  0  0  0  0  0  0  0  0  0
    0.3530   -2.4090   -1.2340 N   0  0  0  0  0  0  0  0  0  0  0  0
    0.6440   -4.7570   -1.3780 C   0  0  0  0  0  0  0  0  0  0  0  0
    0.9110   -5.8350   -1.9510 O   0  0  0  0  0  0  0  0  0  0  0  0
    0.2950   -4.7610   -0.0470 O   0  0  0  0  0  0  0  0  0  0  0  0
    3.3110   -2.1360   -1.3930 H   0  0  0  0  0  0  0  0  0  0  0  0
    2.9900   -3.8390   -0.8830 H   0  0  0  0  0  0  0  0  0  0  0  0
    4.1080   -3.4940   -2.2320 H   0  0  0  0  0  0  0  0  0  0  0  0
    2.0040   -2.3560   -3.3940 H   0  0  0  0  0  0  0  0  0  0  0  0
    2.9640   -4.1620   -4.5420 H   0  0  0  0  0  0  0  0  0  0  0  0
    1.3980   -4.9050   -4.0730 H   0  0  0  0  0  0  0  0  0  0  0  0
    2.8850   -5.2560   -3.1000 H   0  0  0  0  0  0  0  0  0  0  0  0
   -0.0360   -3.4990   -2.9680 H   0  0  0  0  0  0  0  0  0  0  0  0
    0.9520   -2.2640   -0.3930 H   0  0  0  0  0  0  0  0  0  0  0  0
  1 10  1  0  0  0  0
  2 12  1  1  0  0  0
  2  1  1  0  0  0  0
  3  2  1  0  0  0  0
  3  4  1  0  0  0  0
  4  5  1  0  0  0  0
  4 15  1  0  0  0  0
  5  9  1  0  0  0  0
  6  5  2  0  0  0  0
  7  8  2  0  0  0  0
  7  2  1  0  0  0  0
  9 17  1  0  0  0  0
 11  1  1  0  0  0  0
 13  3  1  0  0  0  0
 14  3  1  0  0  0  0
 16  4  1  0  0  0  0
 18  7  1  0  0  0  0
 19 33  1  1  0  0  0
 19 18  1  0  0  0  0
 20 19  1  0  0  0  0
 20 21  1  0  0  0  0
 21 29  1  0  0  0  0
 21 22  2  0  0  0  0
 22 23  1  0  0  0  0
 23 37  1  0  0  0  0
 24 23  1  0  0  0  0
 24 25  1  0  0  0  0
 25 38  1  0  0  0  0
 26 25  2  0  0  0  0
 26 39  1  0  0  0  0
 27 26  1  0  0  0  0
 28 29  1  0  0  0  0
 28 27  2  0  0  0  0
 29 24  2  0  0  0  0
 30 46  1  0  0  0  0
 30 19  1  0  0  0  0
 31 30  2  0  0  0  0
 32 18  1  0  0  0  0
 34 20  1  0  0  0  0
 35 20  1  0  0  0  0
 36 22  1  0  0  0  0
 40 27  1  0  0  0  0
 41 28  1  0  0  0  0
 42 50  1  0  0  0  0
 42 51  1  0  0  0  0
 43 45  1  0  0  0  0
 43 42  1  0  0  0  0
 44 56  1  0  0  0  0
 44 43  1  0  0  0  0
 45 57  1  6  0  0  0
 45 47  1  0  0  0  0
 45 46  1  0  0  0  0
 46 58  1  0  0  0  0
 47 49  1  0  0  0  0
 48 47  2  0  0  0  0
 52 42  1  0  0  0  0
 53 43  1  0  0  0  0
 54 44  1  0  0  0  0
 55 44  1  0  0  0  0
M  END
$$$$
