EWY.pdb
 OpenBabel07022418213D

 63 65  0  0  1  0  0  0  0  0999 V2000
    0.7600   -1.2470    5.6800 N   0  0  0  0  0  0  0  0  0  0  0  0
    0.2650    0.1670    5.2870 C   0  0  1  0  0  0  0  0  0  0  0  0
    1.4660    0.9670    5.0520 C   0  0  0  0  0  0  0  0  0  0  0  0
    1.4880    2.3950    4.7860 C   0  0  0  0  0  0  0  0  0  0  0  0
    0.9230    3.0850    3.6700 C   0  0  0  0  0  0  0  0  0  0  0  0
    0.3740    2.6660    2.6490 O   0  0  0  0  0  0  0  0  0  0  0  0
   -0.5330   -0.2260    4.1210 C   0  0  0  0  0  0  0  0  0  0  0  0
   -1.7230   -0.6520    4.3790 O   0  0  0  0  0  0  0  0  0  0  0  0
    0.9710    4.5370    3.6760 O   0  0  0  0  0  0  0  0  0  0  0  0
    1.2570   -1.1410    6.5850 H   0  0  0  0  0  0  0  0  0  0  0  0
    1.3100   -1.6090    4.8980 H   0  0  0  0  0  0  0  0  0  0  0  0
   -0.3530    0.5010    6.1290 H   0  0  0  0  0  0  0  0  0  0  0  0
    2.1190    0.4900    4.2270 H   0  0  0  0  0  0  0  0  0  0  0  0
    2.1490    0.8000    5.9880 H   0  0  0  0  0  0  0  0  0  0  0  0
    1.2420    2.9620    5.7770 H   0  0  0  0  0  0  0  0  0  0  0  0
    2.6360    2.6590    4.7460 H   0  0  0  0  0  0  0  0  0  0  0  0
    0.2270    5.0340    3.2040 H   0  0  0  0  0  0  0  0  0  0  0  0
   -0.2040   -0.2250    2.7660 N   0  0  0  0  0  0  0  0  0  0  0  0
   -1.1200   -0.7120    1.7620 C   0  0  1  0  0  0  0  0  0  0  0  0
   -2.3250    0.0850    1.4780 C   0  0  0  0  0  0  0  0  0  0  0  0
   -2.2500    1.4750    1.0670 C   0  0  0  0  0  0  0  0  0  0  0  0
   -2.6090    2.5920    1.8490 C   0  0  0  0  0  0  0  0  0  0  0  0
   -2.4500    3.7070    1.1400 N   0  0  0  0  0  0  0  0  0  0  0  0
   -1.9950    3.4150   -0.1010 C   0  0  0  0  0  0  0  0  0  0  0  0
   -1.6920    4.2260   -1.1720 C   0  0  0  0  0  0  0  0  0  0  0  0
   -1.2470    3.6470   -2.3420 C   0  0  0  0  0  0  0  0  0  0  0  0
   -1.1080    2.2740   -2.4360 C   0  0  0  0  0  0  0  0  0  0  0  0
   -1.4230    1.4980   -1.3410 C   0  0  0  0  0  0  0  0  0  0  0  0
   -1.8750    2.0270   -0.1370 C   0  0  0  0  0  0  0  0  0  0  0  0
   -0.3930   -1.3380    0.6710 C   0  0  0  0  0  0  0  0  0  0  0  0
    0.8530   -1.2360    0.6180 O   0  0  0  0  0  0  0  0  0  0  0  0
    0.7390    0.1120    2.4920 H   0  0  0  0  0  0  0  0  0  0  0  0
   -1.5820   -1.6750    2.3370 H   0  0  0  0  0  0  0  0  0  0  0  0
   -2.8850   -0.4450    0.6270 H   0  0  0  0  0  0  0  0  0  0  0  0
   -3.1080   -0.0280    2.3130 H   0  0  0  0  0  0  0  0  0  0  0  0
   -2.9540    2.4550    2.8690 H   0  0  0  0  0  0  0  0  0  0  0  0
   -2.6430    4.6770    1.4780 H   0  0  0  0  0  0  0  0  0  0  0  0
   -1.7820    5.3020   -1.1540 H   0  0  0  0  0  0  0  0  0  0  0  0
   -0.9870    4.2310   -3.2340 H   0  0  0  0  0  0  0  0  0  0  0  0
   -0.7600    1.8200   -3.3530 H   0  0  0  0  0  0  0  0  0  0  0  0
   -1.3400    0.4230   -1.3560 H   0  0  0  0  0  0  0  0  0  0  0  0
    3.1150   -6.6150   -5.1070 O   0  0  0  0  0  0  0  0  0  0  0  0
    2.3010   -6.0160   -4.1500 C   0  0  0  0  0  0  0  0  0  0  0  0
    0.9400   -5.9110   -4.3620 C   0  0  0  0  0  0  0  0  0  0  0  0
    0.1280   -5.3280   -3.4350 C   0  0  0  0  0  0  0  0  0  0  0  0
    0.6250   -4.8190   -2.2480 C   0  0  0  0  0  0  0  0  0  0  0  0
   -0.1980   -4.1810   -1.2080 C   0  0  0  0  0  0  0  0  0  0  0  0
   -0.2260   -2.6790   -1.3970 C   0  0  2  0  0  0  0  0  0  0  0  0
   -1.0540   -2.0760   -0.3420 N   0  0  0  0  0  0  0  0  0  0  0  0
   -0.7800   -2.3700   -2.7210 C   0  0  0  0  0  0  0  0  0  0  0  0
   -1.8980   -1.8020   -2.7950 O   0  0  0  0  0  0  0  0  0  0  0  0
    1.9930   -4.9270   -2.0390 C   0  0  0  0  0  0  0  0  0  0  0  0
    2.8240   -5.5120   -2.9630 C   0  0  0  0  0  0  0  0  0  0  0  0
   -0.0940   -2.6910   -3.8730 O   0  0  0  0  0  0  0  0  0  0  0  0
    3.0400   -6.3730   -6.0840 H   0  0  0  0  0  0  0  0  0  0  0  0
    0.5670   -6.3160   -5.3030 H   0  0  0  0  0  0  0  0  0  0  0  0
   -0.9360   -5.2660   -3.6280 H   0  0  0  0  0  0  0  0  0  0  0  0
   -1.2200   -4.6210   -1.2900 H   0  0  0  0  0  0  0  0  0  0  0  0
    0.2110   -4.4770   -0.2330 H   0  0  0  0  0  0  0  0  0  0  0  0
    0.8180   -2.3370   -1.3100 H   0  0  0  0  0  0  0  0  0  0  0  0
   -2.0860   -2.2110   -0.3780 H   0  0  0  0  0  0  0  0  0  0  0  0
    2.3900   -4.5410   -1.1310 H   0  0  0  0  0  0  0  0  0  0  0  0
    3.8960   -5.6040   -2.8120 H   0  0  0  0  0  0  0  0  0  0  0  0
  1 10  1  0  0  0  0
  2  1  1  0  0  0  0
  2 12  1  1  0  0  0
  3  2  1  0  0  0  0
  3 14  1  0  0  0  0
  4  3  1  0  0  0  0
  4 15  1  0  0  0  0
  5  9  1  0  0  0  0
  5  4  1  0  0  0  0
  6  5  2  0  0  0  0
  7  8  2  0  0  0  0
  7  2  1  0  0  0  0
 11  1  1  0  0  0  0
 13  3  1  0  0  0  0
 16  4  1  0  0  0  0
 17  9  1  0  0  0  0
 18  7  1  0  0  0  0
 19 33  1  1  0  0  0
 19 18  1  0  0  0  0
 20 19  1  0  0  0  0
 20 35  1  0  0  0  0
 21 20  1  0  0  0  0
 21 22  2  0  0  0  0
 22 36  1  0  0  0  0
 23 37  1  0  0  0  0
 23 22  1  0  0  0  0
 24 23  1  0  0  0  0
 25 38  1  0  0  0  0
 25 24  2  0  0  0  0
 26 25  1  0  0  0  0
 27 26  2  0  0  0  0
 27 28  1  0  0  0  0
 28 29  2  0  0  0  0
 29 24  1  0  0  0  0
 29 21  1  0  0  0  0
 30 19  1  0  0  0  0
 31 30  2  0  0  0  0
 32 18  1  0  0  0  0
 34 20  1  0  0  0  0
 39 26  1  0  0  0  0
 40 27  1  0  0  0  0
 41 28  1  0  0  0  0
 42 43  1  0  0  0  0
 43 53  1  0  0  0  0
 44 43  2  0  0  0  0
 44 45  1  0  0  0  0
 45 46  2  0  0  0  0
 46 52  1  0  0  0  0
 46 47  1  0  0  0  0
 47 59  1  0  0  0  0
 48 60  1  1  0  0  0
 48 47  1  0  0  0  0
 48 49  1  0  0  0  0
 49 30  1  0  0  0  0
 50 48  1  0  0  0  0
 51 50  1  0  0  0  0
 52 62  1  0  0  0  0
 53 63  1  0  0  0  0
 53 52  2  0  0  0  0
 54 50  2  0  0  0  0
 55 42  1  0  0  0  0
 56 44  1  0  0  0  0
 57 45  1  0  0  0  0
 58 47  1  0  0  0  0
 61 49  1  0  0  0  0
M  END
$$$$
