EYA.pdb
 OpenBabel07022418213D

 49 49  0  0  1  0  0  0  0  0999 V2000
    2.7510   -3.4520    1.1760 N   0  0  0  0  0  0  0  0  0  0  0  0
    3.0270   -2.3130    2.1220 C   0  0  1  0  0  0  0  0  0  0  0  0
    4.0430   -1.5140    1.4160 C   0  0  0  0  0  0  0  0  0  0  0  0
    4.6180   -0.2940    1.9760 C   0  0  0  0  0  0  0  0  0  0  0  0
    3.8040    0.8690    2.2400 C   0  0  0  0  0  0  0  0  0  0  0  0
    2.7790    0.9260    2.9180 O   0  0  0  0  0  0  0  0  0  0  0  0
    1.7070   -1.7100    2.3290 C   0  0  0  0  0  0  0  0  0  0  0  0
    1.3170   -1.5120    3.5210 O   0  0  0  0  0  0  0  0  0  0  0  0
    4.2160    2.1100    1.6540 O   0  0  0  0  0  0  0  0  0  0  0  0
    2.6080   -4.3260    1.7130 H   0  0  0  0  0  0  0  0  0  0  0  0
    1.9900   -3.2150    0.5300 H   0  0  0  0  0  0  0  0  0  0  0  0
    3.4200   -2.8140    3.0340 H   0  0  0  0  0  0  0  0  0  0  0  0
    4.9170   -2.2290    1.2230 H   0  0  0  0  0  0  0  0  0  0  0  0
    3.6590   -1.3440    0.3600 H   0  0  0  0  0  0  0  0  0  0  0  0
    5.1810   -0.5210    2.9550 H   0  0  0  0  0  0  0  0  0  0  0  0
    5.4990   -0.0130    1.3070 H   0  0  0  0  0  0  0  0  0  0  0  0
    3.5760    2.8960    1.6470 H   0  0  0  0  0  0  0  0  0  0  0  0
    0.5710    1.7190   -4.2350 O   0  0  0  0  0  0  0  0  0  0  0  0
    0.3100    1.4740   -2.8730 C   0  0  0  0  0  0  0  0  0  0  0  0
    1.3440    1.3990   -1.9670 C   0  0  0  0  0  0  0  0  0  0  0  0
    1.0410    1.1580   -0.6480 C   0  0  0  0  0  0  0  0  0  0  0  0
   -0.2430    0.9860   -0.1880 C   0  0  0  0  0  0  0  0  0  0  0  0
   -0.5020    0.7350    1.2340 C   0  0  0  0  0  0  0  0  0  0  0  0
   -0.4850   -0.7290    1.6180 C   0  0  2  0  0  0  0  0  0  0  0  0
    0.8110   -1.3210    1.3150 N   0  0  0  0  0  0  0  0  0  0  0  0
   -1.5280   -1.5400    0.9990 C   0  0  0  0  0  0  0  0  0  0  0  0
   -1.2540   -2.5130    0.2810 O   0  0  0  0  0  0  0  0  0  0  0  0
   -1.2700    1.0610   -1.0960 C   0  0  0  0  0  0  0  0  0  0  0  0
   -0.9790    1.3030   -2.4160 C   0  0  0  0  0  0  0  0  0  0  0  0
    1.4960    1.5130   -4.5550 H   0  0  0  0  0  0  0  0  0  0  0  0
    2.3610    1.5340   -2.3330 H   0  0  0  0  0  0  0  0  0  0  0  0
    1.9090    1.1080    0.0320 H   0  0  0  0  0  0  0  0  0  0  0  0
    0.2560    1.2330    1.8710 H   0  0  0  0  0  0  0  0  0  0  0  0
   -1.4860    1.1430    1.5360 H   0  0  0  0  0  0  0  0  0  0  0  0
   -0.6460   -0.7240    2.7300 H   0  0  0  0  0  0  0  0  0  0  0  0
    1.0670   -1.4470    0.3150 H   0  0  0  0  0  0  0  0  0  0  0  0
   -2.3160    0.9380   -0.8090 H   0  0  0  0  0  0  0  0  0  0  0  0
   -1.7590    1.3730   -3.1840 H   0  0  0  0  0  0  0  0  0  0  0  0
   -4.5590   -2.8210    1.7460 C   0  0  0  0  0  0  0  0  0  0  0  0
   -3.9000   -2.0460    0.5910 C   0  0  2  0  0  0  0  0  0  0  0  0
   -2.8870   -1.2230    1.2170 N   0  0  0  0  0  0  0  0  0  0  0  0
   -4.9160   -1.2530   -0.1370 C   0  0  0  0  0  0  0  0  0  0  0  0
   -5.8560   -1.8050   -0.7540 O   0  0  0  0  0  0  0  0  0  0  0  0
   -4.8380    0.1210   -0.1420 O   0  0  0  0  0  0  0  0  0  0  0  0
   -5.6450   -2.8890    1.5770 H   0  0  0  0  0  0  0  0  0  0  0  0
   -4.0680   -3.8190    1.8100 H   0  0  0  0  0  0  0  0  0  0  0  0
   -4.3840   -2.3190    2.7150 H   0  0  0  0  0  0  0  0  0  0  0  0
   -3.4460   -2.7930   -0.1040 H   0  0  0  0  0  0  0  0  0  0  0  0
   -3.1990   -0.4180    1.8110 H   0  0  0  0  0  0  0  0  0  0  0  0
  1 10  1  0  0  0  0
  1  2  1  0  0  0  0
  2  7  1  0  0  0  0
  2 12  1  1  0  0  0
  3  4  1  0  0  0  0
  3  2  1  0  0  0  0
  4  5  1  0  0  0  0
  4 15  1  0  0  0  0
  5  6  2  0  0  0  0
  7  8  2  0  0  0  0
  9  5  1  0  0  0  0
 11  1  1  0  0  0  0
 13  3  1  0  0  0  0
 14  3  1  0  0  0  0
 16  4  1  0  0  0  0
 17  9  1  0  0  0  0
 18 19  1  0  0  0  0
 19 29  2  0  0  0  0
 19 20  1  0  0  0  0
 20 21  2  0  0  0  0
 21 22  1  0  0  0  0
 21 32  1  0  0  0  0
 22 23  1  0  0  0  0
 23 34  1  0  0  0  0
 23 24  1  0  0  0  0
 23 33  1  0  0  0  0
 24 35  1  1  0  0  0
 25 24  1  0  0  0  0
 25  7  1  0  0  0  0
 26 41  1  0  0  0  0
 26 24  1  0  0  0  0
 27 26  2  0  0  0  0
 28 37  1  0  0  0  0
 28 22  2  0  0  0  0
 29 28  1  0  0  0  0
 30 18  1  0  0  0  0
 31 20  1  0  0  0  0
 36 25  1  0  0  0  0
 38 29  1  0  0  0  0
 39 46  1  0  0  0  0
 39 47  1  0  0  0  0
 40 48  1  6  0  0  0
 40 41  1  0  0  0  0
 40 39  1  0  0  0  0
 41 49  1  0  0  0  0
 42 40  1  0  0  0  0
 43 42  2  0  0  0  0
 44 42  1  0  0  0  0
 45 39  1  0  0  0  0
M  END
$$$$
