EYC.pdb
 OpenBabel07022418213D

 50 50  0  0  1  0  0  0  0  0999 V2000
    3.0690    0.1010   -2.3160 N   0  0  0  0  0  0  0  0  0  0  0  0
    3.6690   -0.2450   -1.0150 C   0  0  1  0  0  0  0  0  0  0  0  0
    4.4230    0.9930   -0.5870 C   0  0  0  0  0  0  0  0  0  0  0  0
    5.1240    0.8490    0.7380 C   0  0  0  0  0  0  0  0  0  0  0  0
    6.0960   -0.2680    0.6420 C   0  0  0  0  0  0  0  0  0  0  0  0
    5.7560   -1.4580    0.7210 O   0  0  0  0  0  0  0  0  0  0  0  0
    2.5150   -0.4480   -0.0940 C   0  0  0  0  0  0  0  0  0  0  0  0
    2.6850   -0.8520    1.1050 O   0  0  0  0  0  0  0  0  0  0  0  0
    7.4320    0.0400    0.4560 O   0  0  0  0  0  0  0  0  0  0  0  0
    3.9090    0.2730   -2.9420 H   0  0  0  0  0  0  0  0  0  0  0  0
    2.5090   -0.6970   -2.6690 H   0  0  0  0  0  0  0  0  0  0  0  0
    4.3170   -1.1300   -1.0860 H   0  0  0  0  0  0  0  0  0  0  0  0
    5.2060    1.2760   -1.3250 H   0  0  0  0  0  0  0  0  0  0  0  0
    3.7390    1.8690   -0.4880 H   0  0  0  0  0  0  0  0  0  0  0  0
    4.3600    0.6740    1.5210 H   0  0  0  0  0  0  0  0  0  0  0  0
    5.6660    1.8060    1.0030 H   0  0  0  0  0  0  0  0  0  0  0  0
    8.1310   -0.6650    0.2340 H   0  0  0  0  0  0  0  0  0  0  0  0
   -4.8050    1.1310    4.4990 O   0  0  0  0  0  0  0  0  0  0  0  0
   -3.7660    1.0610    3.5460 C   0  0  0  0  0  0  0  0  0  0  0  0
   -2.4520    1.0730    3.9480 C   0  0  0  0  0  0  0  0  0  0  0  0
   -1.4340    1.0040    3.0220 C   0  0  0  0  0  0  0  0  0  0  0  0
   -1.7080    0.9190    1.6540 C   0  0  0  0  0  0  0  0  0  0  0  0
   -0.5790    0.8810    0.7450 C   0  0  0  0  0  0  0  0  0  0  0  0
    0.0610   -0.4260    0.4630 C   0  0  2  0  0  0  0  0  0  0  0  0
    1.1810   -0.2140   -0.4720 N   0  0  0  0  0  0  0  0  0  0  0  0
   -0.7660   -1.4690   -0.1420 C   0  0  0  0  0  0  0  0  0  0  0  0
   -0.4830   -1.9070   -1.3100 O   0  0  0  0  0  0  0  0  0  0  0  0
   -3.0330    0.9100    1.2930 C   0  0  0  0  0  0  0  0  0  0  0  0
   -4.0610    0.9780    2.2060 C   0  0  0  0  0  0  0  0  0  0  0  0
   -5.0870    2.1000    4.7170 H   0  0  0  0  0  0  0  0  0  0  0  0
   -2.2370    1.1400    5.0250 H   0  0  0  0  0  0  0  0  0  0  0  0
   -0.4200    1.0170    3.3940 H   0  0  0  0  0  0  0  0  0  0  0  0
   -0.9550    1.2800   -0.2490 H   0  0  0  0  0  0  0  0  0  0  0  0
    0.1980    1.5760    1.1520 H   0  0  0  0  0  0  0  0  0  0  0  0
    0.5150   -0.8010    1.4310 H   0  0  0  0  0  0  0  0  0  0  0  0
    0.9540    0.1180   -1.4350 H   0  0  0  0  0  0  0  0  0  0  0  0
   -3.2900    0.8450    0.2300 H   0  0  0  0  0  0  0  0  0  0  0  0
   -5.1030    0.9690    1.9040 H   0  0  0  0  0  0  0  0  0  0  0  0
   -1.9040   -2.1120    0.4170 N   0  0  0  0  0  0  0  0  0  0  0  0
   -2.6480   -3.1330   -0.2360 C   0  0  1  0  0  0  0  0  0  0  0  0
   -2.6140   -4.4650    0.4640 C   0  0  0  0  0  0  0  0  0  0  0  0
   -0.9620   -5.1440    0.6360 S   0  0  0  0  0  0  0  0  0  0  0  0
   -4.0630   -2.7570   -0.3820 C   0  0  0  0  0  0  0  0  0  0  0  0
   -4.9080   -3.5370   -0.9530 O   0  0  0  0  0  0  0  0  0  0  0  0
   -4.6060   -1.5690    0.0650 O   0  0  0  0  0  0  0  0  0  0  0  0
   -2.1960   -1.8120    1.3670 H   0  0  0  0  0  0  0  0  0  0  0  0
   -2.2130   -3.3240   -1.2540 H   0  0  0  0  0  0  0  0  0  0  0  0
   -3.1900   -5.1710   -0.2070 H   0  0  0  0  0  0  0  0  0  0  0  0
   -3.1910   -4.4600    1.4150 H   0  0  0  0  0  0  0  0  0  0  0  0
   -1.0970   -6.4010    1.2840 H   0  0  0  0  0  0  0  0  0  0  0  0
  1  2  1  0  0  0  0
  2 12  1  6  0  0  0
  2  3  1  0  0  0  0
  2  7  1  0  0  0  0
  3 14  1  0  0  0  0
  3  4  1  0  0  0  0
  4 16  1  0  0  0  0
  4 15  1  0  0  0  0
  5  6  2  0  0  0  0
  5  4  1  0  0  0  0
  7  8  2  0  0  0  0
  9  5  1  0  0  0  0
 10  1  1  0  0  0  0
 11  1  1  0  0  0  0
 13  3  1  0  0  0  0
 17  9  1  0  0  0  0
 18 30  1  0  0  0  0
 19 20  1  0  0  0  0
 19 18  1  0  0  0  0
 20 31  1  0  0  0  0
 21 32  1  0  0  0  0
 21 20  2  0  0  0  0
 22 21  1  0  0  0  0
 23 34  1  0  0  0  0
 23 22  1  0  0  0  0
 24 23  1  0  0  0  0
 24 35  1  1  0  0  0
 25  7  1  0  0  0  0
 25 24  1  0  0  0  0
 26 39  1  0  0  0  0
 26 24  1  0  0  0  0
 27 26  2  0  0  0  0
 28 22  2  0  0  0  0
 28 29  1  0  0  0  0
 29 19  2  0  0  0  0
 33 23  1  0  0  0  0
 36 25  1  0  0  0  0
 37 28  1  0  0  0  0
 38 29  1  0  0  0  0
 39 46  1  0  0  0  0
 40 47  1  6  0  0  0
 40 39  1  0  0  0  0
 40 41  1  0  0  0  0
 41 42  1  0  0  0  0
 41 49  1  0  0  0  0
 42 50  1  0  0  0  0
 43 40  1  0  0  0  0
 43 45  1  0  0  0  0
 44 43  2  0  0  0  0
 48 41  1  0  0  0  0
M  END
$$$$
