EYE.pdb
 OpenBabel07022418213D

 55 55  0  0  1  0  0  0  0  0999 V2000
    1.0180   -1.7710    2.9900 N   0  0  0  0  0  0  0  0  0  0  0  0
    0.1130   -0.8770    3.7480 C   0  0  1  0  0  0  0  0  0  0  0  0
    1.0330   -0.0930    4.6570 C   0  0  0  0  0  0  0  0  0  0  0  0
    0.2320    0.8660    5.5000 C   0  0  0  0  0  0  0  0  0  0  0  0
    1.1330    1.6320    6.4060 C   0  0  0  0  0  0  0  0  0  0  0  0
    2.3480    1.4070    6.3690 O   0  0  0  0  0  0  0  0  0  0  0  0
   -0.6410   -0.0480    2.7850 C   0  0  0  0  0  0  0  0  0  0  0  0
   -1.5400    0.7150    3.2040 O   0  0  0  0  0  0  0  0  0  0  0  0
    0.5980    2.5700    7.2600 O   0  0  0  0  0  0  0  0  0  0  0  0
    1.7570   -1.2380    2.4930 H   0  0  0  0  0  0  0  0  0  0  0  0
    0.4680   -2.4270    2.3990 H   0  0  0  0  0  0  0  0  0  0  0  0
   -0.5150   -1.5440    4.3630 H   0  0  0  0  0  0  0  0  0  0  0  0
    1.8470    0.4230    4.1080 H   0  0  0  0  0  0  0  0  0  0  0  0
    1.5390   -0.7860    5.3630 H   0  0  0  0  0  0  0  0  0  0  0  0
   -0.5170    0.3390    6.1320 H   0  0  0  0  0  0  0  0  0  0  0  0
   -0.2620    1.6370    4.8480 H   0  0  0  0  0  0  0  0  0  0  0  0
    1.1640    3.3160    7.6860 H   0  0  0  0  0  0  0  0  0  0  0  0
    4.1490   -0.5230   -3.2940 O   0  0  0  0  0  0  0  0  0  0  0  0
    3.0700   -0.0100   -2.5810 C   0  0  0  0  0  0  0  0  0  0  0  0
    3.2360    0.2940   -1.2490 C   0  0  0  0  0  0  0  0  0  0  0  0
    2.1420    0.8020   -0.5750 C   0  0  0  0  0  0  0  0  0  0  0  0
    0.9130    1.0100   -1.1760 C   0  0  0  0  0  0  0  0  0  0  0  0
   -0.2090    1.5870   -0.4060 C   0  0  0  0  0  0  0  0  0  0  0  0
   -1.0280    0.6550    0.3800 C   0  0  2  0  0  0  0  0  0  0  0  0
   -0.3650   -0.1000    1.3870 N   0  0  0  0  0  0  0  0  0  0  0  0
   -1.7940   -0.2450   -0.5360 C   0  0  0  0  0  0  0  0  0  0  0  0
   -2.4130    0.1960   -1.5400 O   0  0  0  0  0  0  0  0  0  0  0  0
    0.8120    0.6830   -2.5170 C   0  0  0  0  0  0  0  0  0  0  0  0
    1.8590    0.1760   -3.2410 C   0  0  0  0  0  0  0  0  0  0  0  0
    4.8050    0.1150   -3.7690 H   0  0  0  0  0  0  0  0  0  0  0  0
    4.2100    0.1270   -0.7740 H   0  0  0  0  0  0  0  0  0  0  0  0
    2.3210    1.0320    0.4870 H   0  0  0  0  0  0  0  0  0  0  0  0
    0.1150    2.5050    0.1450 H   0  0  0  0  0  0  0  0  0  0  0  0
   -0.9030    2.0340   -1.1900 H   0  0  0  0  0  0  0  0  0  0  0  0
   -1.8260    1.2750    0.8910 H   0  0  0  0  0  0  0  0  0  0  0  0
    0.3880   -0.7490    1.0910 H   0  0  0  0  0  0  0  0  0  0  0  0
   -0.1530    0.8430   -3.0320 H   0  0  0  0  0  0  0  0  0  0  0  0
    1.7950   -0.0870   -4.3010 H   0  0  0  0  0  0  0  0  0  0  0  0
   -1.8660   -1.6320   -0.3150 N   0  0  0  0  0  0  0  0  0  0  0  0
   -2.5900   -2.6150   -1.0940 C   0  0  1  0  0  0  0  0  0  0  0  0
   -1.7110   -3.7330   -1.6030 C   0  0  0  0  0  0  0  0  0  0  0  0
   -0.6270   -3.3140   -2.5300 C   0  0  0  0  0  0  0  0  0  0  0  0
   -1.1360   -2.7400   -3.8000 C   0  0  0  0  0  0  0  0  0  0  0  0
   -1.9820   -3.3810   -4.5200 O   0  0  0  0  0  0  0  0  0  0  0  0
   -3.5750   -3.2470   -0.1930 C   0  0  0  0  0  0  0  0  0  0  0  0
   -3.6650   -2.8910    0.9960 O   0  0  0  0  0  0  0  0  0  0  0  0
   -0.7270   -1.5110   -4.2500 O   0  0  0  0  0  0  0  0  0  0  0  0
   -4.4090   -4.2410   -0.6570 O   0  0  0  0  0  0  0  0  0  0  0  0
   -1.3090   -1.9630    0.5400 H   0  0  0  0  0  0  0  0  0  0  0  0
   -3.1050   -2.1050   -1.9460 H   0  0  0  0  0  0  0  0  0  0  0  0
   -2.3460   -4.4810   -2.1150 H   0  0  0  0  0  0  0  0  0  0  0  0
   -1.2150   -4.1640   -0.6950 H   0  0  0  0  0  0  0  0  0  0  0  0
    0.1090   -2.6390   -2.0520 H   0  0  0  0  0  0  0  0  0  0  0  0
   -0.0520   -4.2350   -2.7930 H   0  0  0  0  0  0  0  0  0  0  0  0
   -0.7860   -1.1800   -5.2110 H   0  0  0  0  0  0  0  0  0  0  0  0
  1  2  1  0  0  0  0
  2 12  1  1  0  0  0
  2  3  1  0  0  0  0
  3 14  1  0  0  0  0
  3  4  1  0  0  0  0
  4 15  1  0  0  0  0
  4  5  1  0  0  0  0
  5  9  1  0  0  0  0
  6  5  2  0  0  0  0
  7  8  2  0  0  0  0
  7  2  1  0  0  0  0
  9 17  1  0  0  0  0
 10  1  1  0  0  0  0
 11  1  1  0  0  0  0
 13  3  1  0  0  0  0
 16  4  1  0  0  0  0
 18 19  1  0  0  0  0
 19 20  1  0  0  0  0
 20 31  1  0  0  0  0
 20 21  2  0  0  0  0
 21 32  1  0  0  0  0
 22 21  1  0  0  0  0
 22 23  1  0  0  0  0
 23 33  1  0  0  0  0
 23 24  1  0  0  0  0
 24 35  1  1  0  0  0
 24 25  1  0  0  0  0
 25  7  1  0  0  0  0
 26 39  1  0  0  0  0
 26 24  1  0  0  0  0
 27 26  2  0  0  0  0
 28 22  2  0  0  0  0
 29 19  2  0  0  0  0
 29 28  1  0  0  0  0
 30 18  1  0  0  0  0
 34 23  1  0  0  0  0
 36 25  1  0  0  0  0
 37 28  1  0  0  0  0
 38 29  1  0  0  0  0
 39 49  1  0  0  0  0
 40 50  1  6  0  0  0
 40 39  1  0  0  0  0
 40 45  1  0  0  0  0
 41 40  1  0  0  0  0
 41 52  1  0  0  0  0
 42 53  1  0  0  0  0
 42 41  1  0  0  0  0
 43 42  1  0  0  0  0
 44 43  2  0  0  0  0
 45 46  1  0  0  0  0
 47 43  1  0  0  0  0
 48 45  2  0  0  0  0
 51 41  1  0  0  0  0
 54 42  1  0  0  0  0
 55 47  1  0  0  0  0
M  END
$$$$
