EYG.pdb
 OpenBabel07022418213D

 46 46  0  0  1  0  0  0  0  0999 V2000
    0.7410   -3.7410    1.0810 N   0  0  0  0  0  0  0  0  0  0  0  0
    1.6710   -2.8520    1.8580 C   0  0  1  0  0  0  0  0  0  0  0  0
    2.8630   -2.7200    0.9640 C   0  0  0  0  0  0  0  0  0  0  0  0
    4.0180   -1.9240    1.4350 C   0  0  0  0  0  0  0  0  0  0  0  0
    3.7680   -0.5060    1.6860 C   0  0  0  0  0  0  0  0  0  0  0  0
    4.1590    0.0370    2.7640 O   0  0  0  0  0  0  0  0  0  0  0  0
    0.9180   -1.6020    2.0950 C   0  0  0  0  0  0  0  0  0  0  0  0
    1.2820   -0.7440    2.9540 O   0  0  0  0  0  0  0  0  0  0  0  0
    3.1040    0.2860    0.7670 O   0  0  0  0  0  0  0  0  0  0  0  0
    1.3210   -4.5480    0.7030 H   0  0  0  0  0  0  0  0  0  0  0  0
    0.0370   -4.1170    1.7710 H   0  0  0  0  0  0  0  0  0  0  0  0
    1.9420   -3.3650    2.7960 H   0  0  0  0  0  0  0  0  0  0  0  0
    3.2080   -3.7560    0.6290 H   0  0  0  0  0  0  0  0  0  0  0  0
    2.5170   -2.2790   -0.0230 H   0  0  0  0  0  0  0  0  0  0  0  0
    4.4710   -2.3970    2.3560 H   0  0  0  0  0  0  0  0  0  0  0  0
    4.8740   -2.0410    0.6810 H   0  0  0  0  0  0  0  0  0  0  0  0
    2.8190    1.2330    0.9980 H   0  0  0  0  0  0  0  0  0  0  0  0
    3.2320    2.3390   -2.6370 O   0  0  0  0  0  0  0  0  0  0  0  0
    2.1100    1.9150   -1.9320 C   0  0  0  0  0  0  0  0  0  0  0  0
    1.5960    0.6330   -2.0990 C   0  0  0  0  0  0  0  0  0  0  0  0
    0.4900    0.1860   -1.4170 C   0  0  0  0  0  0  0  0  0  0  0  0
   -0.1630    1.0080   -0.5250 C   0  0  0  0  0  0  0  0  0  0  0  0
   -1.3470    0.5640    0.1960 C   0  0  0  0  0  0  0  0  0  0  0  0
   -1.0680   -0.1410    1.5040 C   0  0  2  0  0  0  0  0  0  0  0  0
   -0.2770   -1.3360    1.3280 N   0  0  0  0  0  0  0  0  0  0  0  0
   -2.3910   -0.5650    2.0620 C   0  0  0  0  0  0  0  0  0  0  0  0
   -2.6050   -1.7700    2.2700 O   0  0  0  0  0  0  0  0  0  0  0  0
    0.3360    2.2850   -0.3490 C   0  0  0  0  0  0  0  0  0  0  0  0
    1.4470    2.7320   -1.0340 C   0  0  0  0  0  0  0  0  0  0  0  0
    4.1200    2.4410   -2.1280 H   0  0  0  0  0  0  0  0  0  0  0  0
    2.1170    0.0010   -2.7990 H   0  0  0  0  0  0  0  0  0  0  0  0
    0.1700   -0.8350   -1.6210 H   0  0  0  0  0  0  0  0  0  0  0  0
   -1.9830    1.4390    0.4400 H   0  0  0  0  0  0  0  0  0  0  0  0
   -1.9440   -0.1740   -0.4210 H   0  0  0  0  0  0  0  0  0  0  0  0
   -0.5390    0.5210    2.2260 H   0  0  0  0  0  0  0  0  0  0  0  0
   -0.5660   -2.0450    0.6240 H   0  0  0  0  0  0  0  0  0  0  0  0
   -0.1280    3.0000    0.3440 H   0  0  0  0  0  0  0  0  0  0  0  0
    1.8450    3.7440   -0.8970 H   0  0  0  0  0  0  0  0  0  0  0  0
   -3.4010    0.4200    2.3520 N   0  0  0  0  0  0  0  0  0  0  0  0
   -4.6960    0.0550    2.8900 C   0  0  0  0  0  0  0  0  0  0  0  0
   -5.4290   -0.8620    1.9710 C   0  0  0  0  0  0  0  0  0  0  0  0
   -6.5770   -1.2400    2.3280 O   0  0  0  0  0  0  0  0  0  0  0  0
   -4.9520   -1.3210    0.7750 O   0  0  0  0  0  0  0  0  0  0  0  0
   -3.1190    1.4070    2.1420 H   0  0  0  0  0  0  0  0  0  0  0  0
   -4.6700   -0.3040    3.9200 H   0  0  0  0  0  0  0  0  0  0  0  0
   -5.3030    1.0040    2.8940 H   0  0  0  0  0  0  0  0  0  0  0  0
  1 11  1  0  0  0  0
  1  2  1  0  0  0  0
  2  7  1  0  0  0  0
  2 12  1  1  0  0  0
  3  4  1  0  0  0  0
  3  2  1  0  0  0  0
  4  5  1  0  0  0  0
  4 15  1  0  0  0  0
  5  6  2  0  0  0  0
  7  8  2  0  0  0  0
  9 17  1  0  0  0  0
  9  5  1  0  0  0  0
 10  1  1  0  0  0  0
 13  3  1  0  0  0  0
 14  3  1  0  0  0  0
 16  4  1  0  0  0  0
 18 30  1  0  0  0  0
 18 19  1  0  0  0  0
 19 29  1  0  0  0  0
 20 19  2  0  0  0  0
 20 21  1  0  0  0  0
 21 22  2  0  0  0  0
 22 28  1  0  0  0  0
 22 23  1  0  0  0  0
 23 33  1  0  0  0  0
 23 24  1  0  0  0  0
 24 26  1  0  0  0  0
 24 35  1  1  0  0  0
 25 24  1  0  0  0  0
 25  7  1  0  0  0  0
 26 27  2  0  0  0  0
 26 39  1  0  0  0  0
 28 37  1  0  0  0  0
 29 38  1  0  0  0  0
 29 28  2  0  0  0  0
 31 20  1  0  0  0  0
 32 21  1  0  0  0  0
 34 23  1  0  0  0  0
 36 25  1  0  0  0  0
 39 40  1  0  0  0  0
 40 46  1  0  0  0  0
 40 45  1  0  0  0  0
 41 42  1  0  0  0  0
 41 40  1  0  0  0  0
 43 41  2  0  0  0  0
 44 39  1  0  0  0  0
M  END
$$$$
