EYH.pdb
 OpenBabel07022418213D

 56 57  0  0  1  0  0  0  0  0999 V2000
    1.8310    0.0100    3.8360 N   0  0  0  0  0  0  0  0  0  0  0  0
    2.0890   -1.1700    2.9650 C   0  0  1  0  0  0  0  0  0  0  0  0
    2.4500   -2.2870    3.8470 C   0  0  0  0  0  0  0  0  0  0  0  0
    2.7900   -3.6070    3.2810 C   0  0  0  0  0  0  0  0  0  0  0  0
    1.7950   -4.4290    2.6530 C   0  0  0  0  0  0  0  0  0  0  0  0
    0.5690   -4.4590    2.9960 O   0  0  0  0  0  0  0  0  0  0  0  0
    1.0250   -1.3260    2.0060 C   0  0  0  0  0  0  0  0  0  0  0  0
    0.9050   -2.2990    1.2370 O   0  0  0  0  0  0  0  0  0  0  0  0
    2.0820   -5.3010    1.5800 O   0  0  0  0  0  0  0  0  0  0  0  0
    0.9380   -0.1330    4.3530 H   0  0  0  0  0  0  0  0  0  0  0  0
    1.8820    0.8700    3.2880 H   0  0  0  0  0  0  0  0  0  0  0  0
    3.0330   -0.8600    2.4310 H   0  0  0  0  0  0  0  0  0  0  0  0
    1.5190   -2.5030    4.5100 H   0  0  0  0  0  0  0  0  0  0  0  0
    3.1810   -1.9800    4.6540 H   0  0  0  0  0  0  0  0  0  0  0  0
    3.6330   -3.4370    2.5200 H   0  0  0  0  0  0  0  0  0  0  0  0
    3.3070   -4.2000    4.1330 H   0  0  0  0  0  0  0  0  0  0  0  0
    1.5160   -6.1440    1.4560 H   0  0  0  0  0  0  0  0  0  0  0  0
   -0.9380    5.8750    0.9620 O   0  0  0  0  0  0  0  0  0  0  0  0
   -1.2850    4.5040    0.9910 C   0  0  0  0  0  0  0  0  0  0  0  0
   -1.3090    3.8060    2.1980 C   0  0  0  0  0  0  0  0  0  0  0  0
   -1.6330    2.4750    2.2840 C   0  0  0  0  0  0  0  0  0  0  0  0
   -1.9480    1.7890    1.1480 C   0  0  0  0  0  0  0  0  0  0  0  0
   -2.2690    0.3260    1.1510 C   0  0  0  0  0  0  0  0  0  0  0  0
   -1.0780   -0.5200    0.8970 C   0  0  2  0  0  0  0  0  0  0  0  0
   -0.0130   -0.3360    1.8520 N   0  0  0  0  0  0  0  0  0  0  0  0
   -0.5970   -0.5270   -0.5260 C   0  0  0  0  0  0  0  0  0  0  0  0
    0.6200   -0.3660   -0.7860 O   0  0  0  0  0  0  0  0  0  0  0  0
   -1.9260    2.4780   -0.0420 C   0  0  0  0  0  0  0  0  0  0  0  0
   -1.6050    3.8080   -0.1460 C   0  0  0  0  0  0  0  0  0  0  0  0
   -0.0550    6.1010    0.5150 H   0  0  0  0  0  0  0  0  0  0  0  0
   -1.0390    4.4200    3.0750 H   0  0  0  0  0  0  0  0  0  0  0  0
   -1.6340    2.0120    3.2520 H   0  0  0  0  0  0  0  0  0  0  0  0
   -2.9830    0.1890    0.3080 H   0  0  0  0  0  0  0  0  0  0  0  0
   -2.7690    0.0290    2.0810 H   0  0  0  0  0  0  0  0  0  0  0  0
   -1.3740   -1.6100    1.0380 H   0  0  0  0  0  0  0  0  0  0  0  0
    0.0760    0.4950    2.4780 H   0  0  0  0  0  0  0  0  0  0  0  0
   -2.1750    1.9510   -0.9790 H   0  0  0  0  0  0  0  0  0  0  0  0
   -1.5900    4.3240   -1.0900 H   0  0  0  0  0  0  0  0  0  0  0  0
   -1.4720   -0.7290   -1.6090 N   0  0  0  0  0  0  0  0  0  0  0  0
   -0.9860   -0.7850   -3.0020 C   0  0  1  0  0  0  0  0  0  0  0  0
   -1.2330   -2.2050   -3.5220 C   0  0  0  0  0  0  0  0  0  0  0  0
   -0.4820   -3.1330   -2.6490 C   0  0  0  0  0  0  0  0  0  0  0  0
    0.8080   -3.6440   -2.8030 C   0  0  0  0  0  0  0  0  0  0  0  0
    1.0940   -4.4760   -1.7860 N   0  0  0  0  0  0  0  0  0  0  0  0
    0.0140   -4.5090   -0.9990 C   0  0  0  0  0  0  0  0  0  0  0  0
   -0.9280   -3.7140   -1.4980 N   0  0  0  0  0  0  0  0  0  0  0  0
   -1.7130    0.1930   -3.7950 C   0  0  0  0  0  0  0  0  0  0  0  0
   -2.6390    0.8670   -3.3290 O   0  0  0  0  0  0  0  0  0  0  0  0
   -1.3570    0.3970   -5.1500 O   0  0  0  0  0  0  0  0  0  0  0  0
   -2.4990   -0.8430   -1.4490 H   0  0  0  0  0  0  0  0  0  0  0  0
    0.0840   -0.6180   -3.0500 H   0  0  0  0  0  0  0  0  0  0  0  0
   -0.8140   -2.2610   -4.5530 H   0  0  0  0  0  0  0  0  0  0  0  0
   -2.3030   -2.4400   -3.4580 H   0  0  0  0  0  0  0  0  0  0  0  0
    1.4930   -3.4240   -3.5960 H   0  0  0  0  0  0  0  0  0  0  0  0
    1.9930   -5.0000   -1.6540 H   0  0  0  0  0  0  0  0  0  0  0  0
   -0.0350   -5.1190   -0.0800 H   0  0  0  0  0  0  0  0  0  0  0  0
  1 10  1  0  0  0  0
  2 12  1  6  0  0  0
  2  1  1  0  0  0  0
  2  3  1  0  0  0  0
  3 13  1  0  0  0  0
  3 14  1  0  0  0  0
  4  3  1  0  0  0  0
  4 16  1  0  0  0  0
  5  6  2  0  0  0  0
  5  4  1  0  0  0  0
  7  2  1  0  0  0  0
  8  7  2  0  0  0  0
  9  5  1  0  0  0  0
 11  1  1  0  0  0  0
 15  4  1  0  0  0  0
 17  9  1  0  0  0  0
 18 19  1  0  0  0  0
 19 20  1  0  0  0  0
 20 21  2  0  0  0  0
 20 31  1  0  0  0  0
 21 32  1  0  0  0  0
 22 23  1  0  0  0  0
 22 21  1  0  0  0  0
 23 34  1  0  0  0  0
 24 35  1  1  0  0  0
 24 23  1  0  0  0  0
 24 25  1  0  0  0  0
 25  7  1  0  0  0  0
 25 36  1  0  0  0  0
 26 24  1  0  0  0  0
 27 26  2  0  0  0  0
 28 22  2  0  0  0  0
 29 28  1  0  0  0  0
 29 19  2  0  0  0  0
 30 18  1  0  0  0  0
 33 23  1  0  0  0  0
 37 28  1  0  0  0  0
 38 29  1  0  0  0  0
 39 50  1  0  0  0  0
 39 26  1  0  0  0  0
 40 51  1  6  0  0  0
 40 39  1  0  0  0  0
 41 53  1  0  0  0  0
 41 40  1  0  0  0  0
 41 42  1  0  0  0  0
 42 46  1  0  0  0  0
 43 42  2  0  0  0  0
 43 44  1  0  0  0  0
 44 55  1  0  0  0  0
 44 45  1  0  0  0  0
 45 56  1  0  0  0  0
 46 45  2  0  0  0  0
 47 48  1  0  0  0  0
 47 40  1  0  0  0  0
 49 47  2  0  0  0  0
 52 41  1  0  0  0  0
 54 43  1  0  0  0  0
M  END
$$$$
