EYP.pdb
 OpenBabel07022418213D

 53 54  0  0  1  0  0  0  0  0999 V2000
    4.0510   -1.3360    2.7130 N   0  0  0  0  0  0  0  0  0  0  0  0
    3.1080   -0.4900    2.0300 C   0  0  1  0  0  0  0  0  0  0  0  0
    3.5540    0.0690    0.7280 C   0  0  0  0  0  0  0  0  0  0  0  0
    4.7530    0.9310    0.7210 C   0  0  0  0  0  0  0  0  0  0  0  0
    6.0200    0.3580    1.1420 C   0  0  0  0  0  0  0  0  0  0  0  0
    6.2440   -0.8190    1.4600 O   0  0  0  0  0  0  0  0  0  0  0  0
    1.8420   -1.2570    1.8660 C   0  0  0  0  0  0  0  0  0  0  0  0
    1.7800   -2.4310    2.3020 O   0  0  0  0  0  0  0  0  0  0  0  0
    7.1470    1.2110    1.2090 O   0  0  0  0  0  0  0  0  0  0  0  0
    3.7630   -1.3420    3.7380 H   0  0  0  0  0  0  0  0  0  0  0  0
    3.9160   -2.3200    2.3690 H   0  0  0  0  0  0  0  0  0  0  0  0
    2.9460    0.3940    2.7100 H   0  0  0  0  0  0  0  0  0  0  0  0
    3.6240   -0.7250   -0.0770 H   0  0  0  0  0  0  0  0  0  0  0  0
    2.6970    0.7070    0.3510 H   0  0  0  0  0  0  0  0  0  0  0  0
    4.5770    1.9170    1.2430 H   0  0  0  0  0  0  0  0  0  0  0  0
    4.9050    1.2600   -0.3570 H   0  0  0  0  0  0  0  0  0  0  0  0
    7.9670    0.9610    1.7460 H   0  0  0  0  0  0  0  0  0  0  0  0
   -2.2220    4.6040    0.0120 O   0  0  0  0  0  0  0  0  0  0  0  0
   -2.0390    3.2970    0.5050 C   0  0  0  0  0  0  0  0  0  0  0  0
   -1.0850    3.0090    1.4540 C   0  0  0  0  0  0  0  0  0  0  0  0
   -0.8920    1.7380    1.9460 C   0  0  0  0  0  0  0  0  0  0  0  0
   -1.6870    0.7180    1.4680 C   0  0  0  0  0  0  0  0  0  0  0  0
   -1.5550   -0.6840    1.9380 C   0  0  0  0  0  0  0  0  0  0  0  0
   -0.5570   -1.4770    1.0740 C   0  0  2  0  0  0  0  0  0  0  0  0
    0.6920   -0.7390    1.2420 N   0  0  0  0  0  0  0  0  0  0  0  0
   -1.0430   -1.4480   -0.3010 C   0  0  0  0  0  0  0  0  0  0  0  0
   -0.3800   -0.6630   -1.0790 O   0  0  0  0  0  0  0  0  0  0  0  0
   -2.6490    0.9870    0.5160 C   0  0  0  0  0  0  0  0  0  0  0  0
   -2.8160    2.2680    0.0450 C   0  0  0  0  0  0  0  0  0  0  0  0
   -2.0600    4.7610   -0.9770 H   0  0  0  0  0  0  0  0  0  0  0  0
   -0.4690    3.8480    1.8130 H   0  0  0  0  0  0  0  0  0  0  0  0
   -0.1430    1.5420    2.6840 H   0  0  0  0  0  0  0  0  0  0  0  0
   -2.4850   -1.2470    1.9540 H   0  0  0  0  0  0  0  0  0  0  0  0
   -1.1300   -0.6450    2.9660 H   0  0  0  0  0  0  0  0  0  0  0  0
   -0.5250   -2.4920    1.4610 H   0  0  0  0  0  0  0  0  0  0  0  0
    0.7230    0.2310    0.8720 H   0  0  0  0  0  0  0  0  0  0  0  0
   -3.2900    0.1830    0.1270 H   0  0  0  0  0  0  0  0  0  0  0  0
   -3.5750    2.4940   -0.7090 H   0  0  0  0  0  0  0  0  0  0  0  0
   -2.1040   -2.1380   -0.8920 N   0  0  0  0  0  0  0  0  0  0  0  0
   -2.5000   -1.9920   -2.2860 C   0  0  0  0  0  0  0  0  0  0  0  0
   -3.2460   -3.2560   -2.6030 C   0  0  0  0  0  0  0  0  0  0  0  0
   -4.0260   -3.4520   -1.3240 C   0  0  0  0  0  0  0  0  0  0  0  0
   -2.9660   -3.1100   -0.2780 C   0  0  1  0  0  0  0  0  0  0  0  0
   -2.2510   -4.3760    0.0370 C   0  0  0  0  0  0  0  0  0  0  0  0
   -1.0470   -4.5450   -0.2590 O   0  0  0  0  0  0  0  0  0  0  0  0
   -2.9260   -5.3970    0.6720 O   0  0  0  0  0  0  0  0  0  0  0  0
   -1.6290   -1.8280   -2.9520 H   0  0  0  0  0  0  0  0  0  0  0  0
   -3.2410   -1.1530   -2.3590 H   0  0  0  0  0  0  0  0  0  0  0  0
   -2.5690   -4.1150   -2.7070 H   0  0  0  0  0  0  0  0  0  0  0  0
   -3.9470   -3.1480   -3.4430 H   0  0  0  0  0  0  0  0  0  0  0  0
   -4.8840   -2.7750   -1.2270 H   0  0  0  0  0  0  0  0  0  0  0  0
   -4.3530   -4.4970   -1.2100 H   0  0  0  0  0  0  0  0  0  0  0  0
   -3.5330   -2.7700    0.5960 H   0  0  0  0  0  0  0  0  0  0  0  0
  1 10  1  0  0  0  0
  2 12  1  1  0  0  0
  2  1  1  0  0  0  0
  3  2  1  0  0  0  0
  4  3  1  0  0  0  0
  4  5  1  0  0  0  0
  4 15  1  0  0  0  0
  5  9  1  0  0  0  0
  5  6  2  0  0  0  0
  7  2  1  0  0  0  0
  7  8  2  0  0  0  0
  9 17  1  0  0  0  0
 11  1  1  0  0  0  0
 13  3  1  0  0  0  0
 14  3  1  0  0  0  0
 16  4  1  0  0  0  0
 18 19  1  0  0  0  0
 19 20  1  0  0  0  0
 20 31  1  0  0  0  0
 20 21  2  0  0  0  0
 21 32  1  0  0  0  0
 22 23  1  0  0  0  0
 22 21  1  0  0  0  0
 23 33  1  0  0  0  0
 23 34  1  0  0  0  0
 24 25  1  0  0  0  0
 24 35  1  1  0  0  0
 24 23  1  0  0  0  0
 25  7  1  0  0  0  0
 26 24  1  0  0  0  0
 27 26  2  0  0  0  0
 28 22  2  0  0  0  0
 29 19  2  0  0  0  0
 29 28  1  0  0  0  0
 30 18  1  0  0  0  0
 36 25  1  0  0  0  0
 37 28  1  0  0  0  0
 38 29  1  0  0  0  0
 39 26  1  0  0  0  0
 39 43  1  0  0  0  0
 40 39  1  0  0  0  0
 41 40  1  0  0  0  0
 41 42  1  0  0  0  0
 42 51  1  0  0  0  0
 42 52  1  0  0  0  0
 42 43  1  0  0  0  0
 43 44  1  0  0  0  0
 43 53  1  1  0  0  0
 44 46  1  0  0  0  0
 45 44  2  0  0  0  0
 47 40  1  0  0  0  0
 48 40  1  0  0  0  0
 49 41  1  0  0  0  0
 50 41  1  0  0  0  0
M  END
$$$$
