EYR.pdb
 OpenBabel07022418213D

 62 62  0  0  1  0  0  0  0  0999 V2000
   -0.5660    1.7920    5.7170 N   0  0  0  0  0  0  0  0  0  0  0  0
   -0.3440    0.9420    4.5050 C   0  0  1  0  0  0  0  0  0  0  0  0
   -0.9370   -0.4010    4.7560 C   0  0  0  0  0  0  0  0  0  0  0  0
   -0.8070   -1.4010    3.6590 C   0  0  0  0  0  0  0  0  0  0  0  0
    0.6060   -1.7210    3.3060 C   0  0  0  0  0  0  0  0  0  0  0  0
    1.5770   -1.2110    3.9130 O   0  0  0  0  0  0  0  0  0  0  0  0
   -0.9660    1.7170    3.4090 C   0  0  0  0  0  0  0  0  0  0  0  0
   -1.7900    2.6460    3.6710 O   0  0  0  0  0  0  0  0  0  0  0  0
    0.8990   -2.6210    2.2650 O   0  0  0  0  0  0  0  0  0  0  0  0
   -0.2270    2.7440    5.4530 H   0  0  0  0  0  0  0  0  0  0  0  0
    0.1010    1.4210    6.4470 H   0  0  0  0  0  0  0  0  0  0  0  0
    0.7340    0.8680    4.4190 H   0  0  0  0  0  0  0  0  0  0  0  0
   -2.0230   -0.2820    4.9790 H   0  0  0  0  0  0  0  0  0  0  0  0
   -0.3980   -0.8310    5.6500 H   0  0  0  0  0  0  0  0  0  0  0  0
   -1.3140   -2.3650    3.9460 H   0  0  0  0  0  0  0  0  0  0  0  0
   -1.3310   -1.0750    2.7510 H   0  0  0  0  0  0  0  0  0  0  0  0
    1.8780   -2.7830    1.9850 H   0  0  0  0  0  0  0  0  0  0  0  0
    4.2290   -0.0570   -1.1450 O   0  0  0  0  0  0  0  0  0  0  0  0
    3.1980    0.7170   -0.6740 C   0  0  0  0  0  0  0  0  0  0  0  0
    3.0650    1.1110    0.6300 C   0  0  0  0  0  0  0  0  0  0  0  0
    2.0110    1.8810    1.0270 C   0  0  0  0  0  0  0  0  0  0  0  0
    1.0390    2.2860    0.1000 C   0  0  0  0  0  0  0  0  0  0  0  0
   -0.1070    3.1320    0.5110 C   0  0  0  0  0  0  0  0  0  0  0  0
   -1.2210    2.1680    0.9750 C   0  0  2  0  0  0  0  0  0  0  0  0
   -0.6410    1.4280    2.0620 N   0  0  0  0  0  0  0  0  0  0  0  0
   -1.6590    1.3340   -0.1600 C   0  0  0  0  0  0  0  0  0  0  0  0
   -2.2380    1.8650   -1.1750 O   0  0  0  0  0  0  0  0  0  0  0  0
    1.1440    1.9070   -1.2210 C   0  0  0  0  0  0  0  0  0  0  0  0
    2.2200    1.1290   -1.5900 C   0  0  0  0  0  0  0  0  0  0  0  0
    4.1500   -0.8260   -1.7920 H   0  0  0  0  0  0  0  0  0  0  0  0
    3.8020    0.8050    1.3420 H   0  0  0  0  0  0  0  0  0  0  0  0
    1.8660    2.2170    2.0530 H   0  0  0  0  0  0  0  0  0  0  0  0
    0.2020    3.6790    1.4330 H   0  0  0  0  0  0  0  0  0  0  0  0
   -0.4570    3.8000   -0.2750 H   0  0  0  0  0  0  0  0  0  0  0  0
   -2.0400    2.8470    1.3250 H   0  0  0  0  0  0  0  0  0  0  0  0
    0.0220    0.6830    1.8590 H   0  0  0  0  0  0  0  0  0  0  0  0
    0.3900    2.2250   -1.9260 H   0  0  0  0  0  0  0  0  0  0  0  0
    2.2910    0.8360   -2.6390 H   0  0  0  0  0  0  0  0  0  0  0  0
    0.5920   -5.5860   -0.7390 N   0  0  0  0  0  0  0  0  0  0  0  0
    0.1820   -5.1020   -2.0040 C   0  0  0  0  0  0  0  0  0  0  0  0
    0.9710   -5.2080   -3.0080 N   0  0  0  0  0  0  0  0  0  0  0  0
   -1.0930   -4.5020   -2.1480 N   0  0  0  0  0  0  0  0  0  0  0  0
   -1.4150   -3.5960   -3.2300 C   0  0  0  0  0  0  0  0  0  0  0  0
   -0.6770   -2.3120   -3.1360 C   0  0  0  0  0  0  0  0  0  0  0  0
   -0.7560   -1.4700   -1.9530 C   0  0  0  0  0  0  0  0  0  0  0  0
   -1.9820   -0.8560   -1.4340 C   0  0  2  0  0  0  0  0  0  0  0  0
   -1.4950   -0.0560   -0.2370 N   0  0  0  0  0  0  0  0  0  0  0  0
   -3.0730   -1.6930   -0.9540 C   0  0  0  0  0  0  0  0  0  0  0  0
   -3.2840   -1.7990    0.3090 O   0  0  0  0  0  0  0  0  0  0  0  0
   -3.9380   -2.4020   -1.7380 O   0  0  0  0  0  0  0  0  0  0  0  0
    1.5780   -5.4590   -0.4470 H   0  0  0  0  0  0  0  0  0  0  0  0
   -0.0590   -6.0660   -0.0890 H   0  0  0  0  0  0  0  0  0  0  0  0
    0.7790   -4.8910   -3.9740 H   0  0  0  0  0  0  0  0  0  0  0  0
   -1.8060   -4.7500   -1.4240 H   0  0  0  0  0  0  0  0  0  0  0  0
   -2.4670   -3.4550   -3.4130 H   0  0  0  0  0  0  0  0  0  0  0  0
   -1.0610   -4.1310   -4.2110 H   0  0  0  0  0  0  0  0  0  0  0  0
    0.4250   -2.5900   -3.3190 H   0  0  0  0  0  0  0  0  0  0  0  0
   -0.8660   -1.6870   -4.0850 H   0  0  0  0  0  0  0  0  0  0  0  0
   -0.0250   -0.5870   -2.1240 H   0  0  0  0  0  0  0  0  0  0  0  0
   -0.2400   -1.9590   -1.0540 H   0  0  0  0  0  0  0  0  0  0  0  0
   -2.3810   -0.0850   -2.1140 H   0  0  0  0  0  0  0  0  0  0  0  0
   -1.0410   -0.6270    0.4820 H   0  0  0  0  0  0  0  0  0  0  0  0
  1 11  1  0  0  0  0
  2 12  1  6  0  0  0
  2  3  1  0  0  0  0
  2  1  1  0  0  0  0
  3 13  1  0  0  0  0
  3 14  1  0  0  0  0
  4 15  1  0  0  0  0
  4  3  1  0  0  0  0
  5  4  1  0  0  0  0
  5  6  2  0  0  0  0
  7  8  2  0  0  0  0
  7  2  1  0  0  0  0
  9  5  1  0  0  0  0
 10  1  1  0  0  0  0
 16  4  1  0  0  0  0
 17  9  1  0  0  0  0
 18 19  1  0  0  0  0
 19 20  1  0  0  0  0
 20 21  2  0  0  0  0
 20 31  1  0  0  0  0
 21 32  1  0  0  0  0
 22 23  1  0  0  0  0
 22 21  1  0  0  0  0
 23 24  1  0  0  0  0
 23 33  1  0  0  0  0
 24 35  1  1  0  0  0
 24 25  1  0  0  0  0
 25  7  1  0  0  0  0
 26 24  1  0  0  0  0
 27 26  2  0  0  0  0
 28 22  2  0  0  0  0
 29 28  1  0  0  0  0
 29 19  2  0  0  0  0
 30 18  1  0  0  0  0
 34 23  1  0  0  0  0
 36 25  1  0  0  0  0
 37 28  1  0  0  0  0
 38 29  1  0  0  0  0
 39 51  1  0  0  0  0
 39 52  1  0  0  0  0
 40 39  1  0  0  0  0
 41 40  2  0  0  0  0
 42 40  1  0  0  0  0
 42 54  1  0  0  0  0
 43 44  1  0  0  0  0
 43 42  1  0  0  0  0
 44 45  1  0  0  0  0
 45 46  1  0  0  0  0
 45 60  1  0  0  0  0
 46 61  1  6  0  0  0
 46 48  1  0  0  0  0
 46 47  1  0  0  0  0
 47 26  1  0  0  0  0
 47 62  1  0  0  0  0
 48 49  1  0  0  0  0
 50 48  2  0  0  0  0
 53 41  1  0  0  0  0
 55 43  1  0  0  0  0
 56 43  1  0  0  0  0
 57 44  1  0  0  0  0
 58 44  1  0  0  0  0
 59 45  1  0  0  0  0
M  END
$$$$
