EYT.pdb
 OpenBabel07022418213D

 53 53  0  0  1  0  0  0  0  0999 V2000
    1.9030   -1.7970    4.4160 N   0  0  0  0  0  0  0  0  0  0  0  0
    1.6780   -1.2510    3.1290 C   0  0  1  0  0  0  0  0  0  0  0  0
    1.9100   -2.1110    1.9480 C   0  0  0  0  0  0  0  0  0  0  0  0
    3.2550   -2.6680    1.7220 C   0  0  0  0  0  0  0  0  0  0  0  0
    3.7000   -3.5910    2.7600 C   0  0  0  0  0  0  0  0  0  0  0  0
    2.9130   -3.9690    3.6570 O   0  0  0  0  0  0  0  0  0  0  0  0
    0.2320   -0.8280    3.0920 C   0  0  0  0  0  0  0  0  0  0  0  0
   -0.5400   -1.0710    4.0390 O   0  0  0  0  0  0  0  0  0  0  0  0
    5.0030   -4.0990    2.8170 O   0  0  0  0  0  0  0  0  0  0  0  0
    2.4280   -1.1960    5.0830 H   0  0  0  0  0  0  0  0  0  0  0  0
    1.0390   -2.2090    4.8040 H   0  0  0  0  0  0  0  0  0  0  0  0
    2.2850   -0.3120    3.0180 H   0  0  0  0  0  0  0  0  0  0  0  0
    1.5860   -1.5390    1.0290 H   0  0  0  0  0  0  0  0  0  0  0  0
    1.1760   -2.9700    2.0080 H   0  0  0  0  0  0  0  0  0  0  0  0
    4.0250   -1.8970    1.4660 H   0  0  0  0  0  0  0  0  0  0  0  0
    3.1970   -3.2800    0.7640 H   0  0  0  0  0  0  0  0  0  0  0  0
    5.2270   -4.8200    3.4850 H   0  0  0  0  0  0  0  0  0  0  0  0
    0.8180    4.0640   -2.7880 O   0  0  0  0  0  0  0  0  0  0  0  0
    0.1540    3.4930   -1.6850 C   0  0  0  0  0  0  0  0  0  0  0  0
    0.8130    3.3910   -0.4980 C   0  0  0  0  0  0  0  0  0  0  0  0
    0.1790    2.8280    0.6150 C   0  0  0  0  0  0  0  0  0  0  0  0
   -1.1170    2.3680    0.5320 C   0  0  0  0  0  0  0  0  0  0  0  0
   -1.7840    1.7770    1.6890 C   0  0  0  0  0  0  0  0  0  0  0  0
   -1.6220    0.3030    1.8270 C   0  0  2  0  0  0  0  0  0  0  0  0
   -0.2590   -0.1400    1.9580 N   0  0  0  0  0  0  0  0  0  0  0  0
   -2.3350   -0.4560    0.7540 C   0  0  0  0  0  0  0  0  0  0  0  0
   -3.5380   -0.1590    0.5390 O   0  0  0  0  0  0  0  0  0  0  0  0
   -1.7480    2.4890   -0.6860 C   0  0  0  0  0  0  0  0  0  0  0  0
   -1.1300    3.0440   -1.7930 C   0  0  0  0  0  0  0  0  0  0  0  0
    0.5690    4.9710   -3.1400 H   0  0  0  0  0  0  0  0  0  0  0  0
    1.8320    3.7540   -0.4340 H   0  0  0  0  0  0  0  0  0  0  0  0
    0.7630    2.7850    1.5080 H   0  0  0  0  0  0  0  0  0  0  0  0
   -2.8700    1.9990    1.6800 H   0  0  0  0  0  0  0  0  0  0  0  0
   -1.3950    2.2440    2.6280 H   0  0  0  0  0  0  0  0  0  0  0  0
   -2.1440    0.0040    2.7760 H   0  0  0  0  0  0  0  0  0  0  0  0
    0.3990    0.0610    1.1790 H   0  0  0  0  0  0  0  0  0  0  0  0
   -2.7580    2.1450   -0.8010 H   0  0  0  0  0  0  0  0  0  0  0  0
   -1.6180    3.1430   -2.7540 H   0  0  0  0  0  0  0  0  0  0  0  0
   -0.2830   -2.1280   -2.2260 C   0  0  0  0  0  0  0  0  0  0  0  0
   -1.7490   -1.7920   -2.3710 C   0  0  1  0  0  0  0  0  0  0  0  0
   -2.3030   -2.4350   -3.4510 O   0  0  0  0  0  0  0  0  0  0  0  0
   -2.4150   -2.2130   -1.0550 C   0  0  2  0  0  0  0  0  0  0  0  0
   -1.7420   -1.4700   -0.0160 N   0  0  0  0  0  0  0  0  0  0  0  0
   -2.3360   -3.6640   -0.8710 C   0  0  0  0  0  0  0  0  0  0  0  0
   -1.7330   -4.1950    0.0960 O   0  0  0  0  0  0  0  0  0  0  0  0
   -2.9430   -4.5080   -1.7880 O   0  0  0  0  0  0  0  0  0  0  0  0
   -0.1050   -2.8460   -1.3990 H   0  0  0  0  0  0  0  0  0  0  0  0
    0.3070   -1.2080   -2.0650 H   0  0  0  0  0  0  0  0  0  0  0  0
    0.1240   -2.6170   -3.1430 H   0  0  0  0  0  0  0  0  0  0  0  0
   -1.8810   -0.6960   -2.4510 H   0  0  0  0  0  0  0  0  0  0  0  0
   -1.7990   -3.2600   -3.6770 H   0  0  0  0  0  0  0  0  0  0  0  0
   -3.4640   -1.8430   -1.1340 H   0  0  0  0  0  0  0  0  0  0  0  0
   -0.7420   -1.7100    0.1700 H   0  0  0  0  0  0  0  0  0  0  0  0
  1 11  1  0  0  0  0
  1 10  1  0  0  0  0
  2 12  1  6  0  0  0
  2  1  1  0  0  0  0
  3 14  1  0  0  0  0
  3  2  1  0  0  0  0
  4  3  1  0  0  0  0
  4  5  1  0  0  0  0
  5  9  1  0  0  0  0
  5  6  2  0  0  0  0
  7  2  1  0  0  0  0
  7  8  2  0  0  0  0
  9 17  1  0  0  0  0
 13  3  1  0  0  0  0
 15  4  1  0  0  0  0
 16  4  1  0  0  0  0
 18 19  1  0  0  0  0
 19 20  1  0  0  0  0
 20 31  1  0  0  0  0
 20 21  2  0  0  0  0
 21 32  1  0  0  0  0
 22 21  1  0  0  0  0
 22 23  1  0  0  0  0
 23 24  1  0  0  0  0
 23 34  1  0  0  0  0
 24 25  1  0  0  0  0
 24 35  1  1  0  0  0
 25  7  1  0  0  0  0
 26 24  1  0  0  0  0
 27 26  2  0  0  0  0
 28 22  2  0  0  0  0
 29 19  2  0  0  0  0
 29 28  1  0  0  0  0
 30 18  1  0  0  0  0
 33 23  1  0  0  0  0
 36 25  1  0  0  0  0
 37 28  1  0  0  0  0
 38 29  1  0  0  0  0
 39 48  1  0  0  0  0
 39 47  1  0  0  0  0
 40 50  1  6  0  0  0
 40 39  1  0  0  0  0
 40 42  1  0  0  0  0
 41 40  1  0  0  0  0
 42 52  1  6  0  0  0
 42 44  1  0  0  0  0
 42 43  1  0  0  0  0
 43 53  1  0  0  0  0
 43 26  1  0  0  0  0
 44 45  1  0  0  0  0
 46 44  2  0  0  0  0
 49 39  1  0  0  0  0
 51 41  1  0  0  0  0
M  END
$$$$
