EYV.pdb
 OpenBabel07022418213D

 55 55  0  0  1  0  0  0  0  0999 V2000
    3.4180   -0.5850    3.4780 N   0  0  0  0  0  0  0  0  0  0  0  0
    2.5480   -0.3090    2.3860 C   0  0  1  0  0  0  0  0  0  0  0  0
    2.6430   -1.2740    1.2440 C   0  0  0  0  0  0  0  0  0  0  0  0
    3.9440   -1.4100    0.5610 C   0  0  0  0  0  0  0  0  0  0  0  0
    5.0010   -1.9560    1.4120 C   0  0  0  0  0  0  0  0  0  0  0  0
    4.7860   -2.4250    2.5290 O   0  0  0  0  0  0  0  0  0  0  0  0
    1.1030   -0.3260    2.8150 C   0  0  0  0  0  0  0  0  0  0  0  0
    0.8780   -0.6160    4.0120 O   0  0  0  0  0  0  0  0  0  0  0  0
    6.3280   -1.9590    0.9670 O   0  0  0  0  0  0  0  0  0  0  0  0
    2.9720   -0.5380    4.4200 H   0  0  0  0  0  0  0  0  0  0  0  0
    4.2380    0.0810    3.5310 H   0  0  0  0  0  0  0  0  0  0  0  0
    2.8040    0.7380    2.0410 H   0  0  0  0  0  0  0  0  0  0  0  0
    2.2750   -2.2620    1.6670 H   0  0  0  0  0  0  0  0  0  0  0  0
    1.8410   -0.9740    0.5110 H   0  0  0  0  0  0  0  0  0  0  0  0
    4.2660   -0.4640    0.0440 H   0  0  0  0  0  0  0  0  0  0  0  0
    3.7860   -2.1520   -0.2900 H   0  0  0  0  0  0  0  0  0  0  0  0
    7.0780   -1.8890    1.6470 H   0  0  0  0  0  0  0  0  0  0  0  0
   -1.7610    3.2190   -3.1900 O   0  0  0  0  0  0  0  0  0  0  0  0
   -1.8270    2.7450   -1.8840 C   0  0  0  0  0  0  0  0  0  0  0  0
   -0.8260    3.0020   -0.9700 C   0  0  0  0  0  0  0  0  0  0  0  0
   -0.8700    2.5420    0.3290 C   0  0  0  0  0  0  0  0  0  0  0  0
   -1.9420    1.7980    0.7530 C   0  0  0  0  0  0  0  0  0  0  0  0
   -1.9850    1.3090    2.1440 C   0  0  0  0  0  0  0  0  0  0  0  0
   -1.3510   -0.0420    2.3270 C   0  0  2  0  0  0  0  0  0  0  0  0
    0.0540   -0.0370    1.9450 N   0  0  0  0  0  0  0  0  0  0  0  0
   -2.0150   -1.1080    1.5420 C   0  0  0  0  0  0  0  0  0  0  0  0
   -3.2700   -1.2950    1.7090 O   0  0  0  0  0  0  0  0  0  0  0  0
   -2.9570    1.5200   -0.1230 C   0  0  0  0  0  0  0  0  0  0  0  0
   -2.8860    1.9910   -1.4110 C   0  0  0  0  0  0  0  0  0  0  0  0
   -2.2880    2.7110   -3.8880 H   0  0  0  0  0  0  0  0  0  0  0  0
    0.0210    3.6010   -1.3380 H   0  0  0  0  0  0  0  0  0  0  0  0
   -0.0480    2.7790    1.0050 H   0  0  0  0  0  0  0  0  0  0  0  0
   -1.4260    2.0380    2.7650 H   0  0  0  0  0  0  0  0  0  0  0  0
   -3.0150    1.2810    2.5270 H   0  0  0  0  0  0  0  0  0  0  0  0
   -1.4530   -0.3060    3.3970 H   0  0  0  0  0  0  0  0  0  0  0  0
    0.2670    0.2020    0.9580 H   0  0  0  0  0  0  0  0  0  0  0  0
   -3.8070    0.9380    0.1900 H   0  0  0  0  0  0  0  0  0  0  0  0
   -3.6870    1.7750   -2.1080 H   0  0  0  0  0  0  0  0  0  0  0  0
   -2.6740   -1.4000   -1.9210 C   0  0  0  0  0  0  0  0  0  0  0  0
   -2.0210   -2.7280   -1.6260 C   0  0  0  0  0  0  0  0  0  0  0  0
   -0.5930   -2.7450   -2.1290 C   0  0  0  0  0  0  0  0  0  0  0  0
   -2.0760   -2.9830   -0.1350 C   0  0  2  0  0  0  0  0  0  0  0  0
   -1.3820   -1.9530    0.6110 N   0  0  0  0  0  0  0  0  0  0  0  0
   -1.5680   -4.3320    0.1820 C   0  0  0  0  0  0  0  0  0  0  0  0
   -2.0670   -5.3230   -0.3830 O   0  0  0  0  0  0  0  0  0  0  0  0
   -0.5490   -4.5000    1.0950 O   0  0  0  0  0  0  0  0  0  0  0  0
   -1.8670   -0.6560   -2.0060 H   0  0  0  0  0  0  0  0  0  0  0  0
   -3.1830   -1.4400   -2.9100 H   0  0  0  0  0  0  0  0  0  0  0  0
   -3.4320   -1.1510   -1.1450 H   0  0  0  0  0  0  0  0  0  0  0  0
   -2.5580   -3.5650   -2.1190 H   0  0  0  0  0  0  0  0  0  0  0  0
   -0.2850   -1.7120   -2.3170 H   0  0  0  0  0  0  0  0  0  0  0  0
    0.0200   -3.2170   -1.3320 H   0  0  0  0  0  0  0  0  0  0  0  0
   -0.5150   -3.3190   -3.0880 H   0  0  0  0  0  0  0  0  0  0  0  0
   -3.1480   -2.9670    0.1550 H   0  0  0  0  0  0  0  0  0  0  0  0
   -0.3800   -1.8400    0.4450 H   0  0  0  0  0  0  0  0  0  0  0  0
  1 11  1  0  0  0  0
  1 10  1  0  0  0  0
  2 12  1  6  0  0  0
  2  7  1  0  0  0  0
  2  1  1  0  0  0  0
  3 13  1  0  0  0  0
  3  2  1  0  0  0  0
  4  3  1  0  0  0  0
  4  5  1  0  0  0  0
  5  6  2  0  0  0  0
  7  8  2  0  0  0  0
  9  5  1  0  0  0  0
  9 17  1  0  0  0  0
 14  3  1  0  0  0  0
 15  4  1  0  0  0  0
 16  4  1  0  0  0  0
 18 19  1  0  0  0  0
 19 29  2  0  0  0  0
 19 20  1  0  0  0  0
 20 21  2  0  0  0  0
 21 22  1  0  0  0  0
 21 32  1  0  0  0  0
 22 23  1  0  0  0  0
 23 24  1  0  0  0  0
 23 34  1  0  0  0  0
 23 33  1  0  0  0  0
 24 35  1  1  0  0  0
 25 24  1  0  0  0  0
 25  7  1  0  0  0  0
 26 27  2  0  0  0  0
 26 24  1  0  0  0  0
 28 37  1  0  0  0  0
 28 22  2  0  0  0  0
 29 28  1  0  0  0  0
 30 18  1  0  0  0  0
 31 20  1  0  0  0  0
 36 25  1  0  0  0  0
 38 29  1  0  0  0  0
 39 40  1  0  0  0  0
 39 49  1  0  0  0  0
 40 42  1  0  0  0  0
 41 40  1  0  0  0  0
 41 52  1  0  0  0  0
 42 54  1  1  0  0  0
 42 44  1  0  0  0  0
 42 43  1  0  0  0  0
 43 26  1  0  0  0  0
 44 46  1  0  0  0  0
 45 44  2  0  0  0  0
 47 39  1  0  0  0  0
 48 39  1  0  0  0  0
 50 40  1  0  0  0  0
 51 41  1  0  0  0  0
 53 41  1  0  0  0  0
 55 43  1  0  0  0  0
M  END
$$$$
