EYY.pdb
 OpenBabel07022418213D

 60 61  0  0  1  0  0  0  0  0999 V2000
    0.7840   -2.0790    2.5430 N   0  0  0  0  0  0  0  0  0  0  0  0
   -0.2330   -1.4130    3.3030 C   0  0  1  0  0  0  0  0  0  0  0  0
    0.2740   -0.9940    4.6780 C   0  0  0  0  0  0  0  0  0  0  0  0
    0.7300   -2.2020    5.4730 C   0  0  0  0  0  0  0  0  0  0  0  0
    1.2210   -1.8020    6.8160 C   0  0  0  0  0  0  0  0  0  0  0  0
    0.4210   -1.4840    7.7380 O   0  0  0  0  0  0  0  0  0  0  0  0
   -0.7120   -0.1670    2.6500 C   0  0  0  0  0  0  0  0  0  0  0  0
   -1.5840    0.4950    3.2330 O   0  0  0  0  0  0  0  0  0  0  0  0
    2.5760   -1.7610    7.1100 O   0  0  0  0  0  0  0  0  0  0  0  0
    0.8700   -3.0630    2.9390 H   0  0  0  0  0  0  0  0  0  0  0  0
    0.4590   -2.1960    1.5710 H   0  0  0  0  0  0  0  0  0  0  0  0
   -1.0880   -2.1030    3.4630 H   0  0  0  0  0  0  0  0  0  0  0  0
   -0.5100   -0.4500    5.2430 H   0  0  0  0  0  0  0  0  0  0  0  0
    1.1440   -0.3100    4.6030 H   0  0  0  0  0  0  0  0  0  0  0  0
    1.5190   -2.7660    4.9690 H   0  0  0  0  0  0  0  0  0  0  0  0
   -0.1320   -2.8800    5.6300 H   0  0  0  0  0  0  0  0  0  0  0  0
    2.9500   -1.2060    7.8730 H   0  0  0  0  0  0  0  0  0  0  0  0
    4.5320    1.0270   -2.8890 O   0  0  0  0  0  0  0  0  0  0  0  0
    3.5150    1.3980   -2.0410 C   0  0  0  0  0  0  0  0  0  0  0  0
    2.3590    1.9490   -2.5330 C   0  0  0  0  0  0  0  0  0  0  0  0
    1.3510    2.3170   -1.7040 C   0  0  0  0  0  0  0  0  0  0  0  0
    1.4000    2.1720   -0.3100 C   0  0  0  0  0  0  0  0  0  0  0  0
    0.2820    2.5860    0.5770 C   0  0  0  0  0  0  0  0  0  0  0  0
   -0.7180    1.5020    0.8170 C   0  0  2  0  0  0  0  0  0  0  0  0
   -0.2510    0.3170    1.4190 N   0  0  0  0  0  0  0  0  0  0  0  0
   -1.5550    1.2580   -0.3960 C   0  0  0  0  0  0  0  0  0  0  0  0
   -2.0320    2.2090   -1.0640 O   0  0  0  0  0  0  0  0  0  0  0  0
    2.5650    1.6180    0.1690 C   0  0  0  0  0  0  0  0  0  0  0  0
    3.5990    1.2370   -0.6520 C   0  0  0  0  0  0  0  0  0  0  0  0
    5.3710    1.5900   -2.9660 H   0  0  0  0  0  0  0  0  0  0  0  0
    2.2820    2.0790   -3.6210 H   0  0  0  0  0  0  0  0  0  0  0  0
    0.4550    2.7480   -2.1290 H   0  0  0  0  0  0  0  0  0  0  0  0
    0.6510    3.0600    1.5270 H   0  0  0  0  0  0  0  0  0  0  0  0
   -0.2070    3.4480    0.0590 H   0  0  0  0  0  0  0  0  0  0  0  0
   -1.4720    1.9510    1.5410 H   0  0  0  0  0  0  0  0  0  0  0  0
    0.4940   -0.2620    0.9290 H   0  0  0  0  0  0  0  0  0  0  0  0
    2.6680    1.4770    1.2270 H   0  0  0  0  0  0  0  0  0  0  0  0
    4.5120    0.8050   -0.2910 H   0  0  0  0  0  0  0  0  0  0  0  0
   -0.1280   -6.0720   -0.9770 O   0  0  0  0  0  0  0  0  0  0  0  0
   -0.5980   -4.8590   -1.5070 C   0  0  0  0  0  0  0  0  0  0  0  0
    0.1480   -3.7020   -1.3630 C   0  0  0  0  0  0  0  0  0  0  0  0
   -0.2720   -2.4990   -1.8630 C   0  0  0  0  0  0  0  0  0  0  0  0
   -1.4830   -2.3910   -2.5440 C   0  0  0  0  0  0  0  0  0  0  0  0
   -1.8930   -1.0640   -3.0720 C   0  0  0  0  0  0  0  0  0  0  0  0
   -2.6870   -0.2600   -2.0630 C   0  0  2  0  0  0  0  0  0  0  0  0
   -1.8600   -0.0490   -0.8640 N   0  0  0  0  0  0  0  0  0  0  0  0
   -3.9050   -1.0460   -1.7260 C   0  0  0  0  0  0  0  0  0  0  0  0
   -4.7370   -1.3060   -2.6280 O   0  0  0  0  0  0  0  0  0  0  0  0
   -2.2190   -3.5470   -2.6830 C   0  0  0  0  0  0  0  0  0  0  0  0
   -1.7880   -4.7510   -2.1770 C   0  0  0  0  0  0  0  0  0  0  0  0
   -4.1700   -1.5120   -0.4520 O   0  0  0  0  0  0  0  0  0  0  0  0
   -0.8470   -6.7790   -0.8180 H   0  0  0  0  0  0  0  0  0  0  0  0
    1.1000   -3.8120   -0.8220 H   0  0  0  0  0  0  0  0  0  0  0  0
    0.3260   -1.6080   -1.7390 H   0  0  0  0  0  0  0  0  0  0  0  0
   -0.9610   -0.4770   -3.2590 H   0  0  0  0  0  0  0  0  0  0  0  0
   -2.3990   -1.1320   -4.0450 H   0  0  0  0  0  0  0  0  0  0  0  0
   -2.9760    0.6940   -2.5150 H   0  0  0  0  0  0  0  0  0  0  0  0
   -1.4770   -0.8580   -0.3300 H   0  0  0  0  0  0  0  0  0  0  0  0
   -3.1770   -3.4670   -3.2230 H   0  0  0  0  0  0  0  0  0  0  0  0
   -2.3950   -5.6220   -2.3100 H   0  0  0  0  0  0  0  0  0  0  0  0
  1 10  1  0  0  0  0
  1  2  1  0  0  0  0
  2 12  1  1  0  0  0
  2  3  1  0  0  0  0
  3 13  1  0  0  0  0
  3  4  1  0  0  0  0
  4 16  1  0  0  0  0
  4  5  1  0  0  0  0
  5  9  1  0  0  0  0
  5  6  2  0  0  0  0
  7  8  2  0  0  0  0
  7  2  1  0  0  0  0
  9 17  1  0  0  0  0
 11  1  1  0  0  0  0
 14  3  1  0  0  0  0
 15  4  1  0  0  0  0
 18 19  1  0  0  0  0
 19 29  1  0  0  0  0
 20 19  2  0  0  0  0
 20 21  1  0  0  0  0
 21 22  2  0  0  0  0
 22 28  1  0  0  0  0
 22 23  1  0  0  0  0
 23 24  1  0  0  0  0
 23 33  1  0  0  0  0
 24 25  1  0  0  0  0
 24 35  1  1  0  0  0
 25  7  1  0  0  0  0
 26 24  1  0  0  0  0
 27 26  2  0  0  0  0
 28 37  1  0  0  0  0
 29 38  1  0  0  0  0
 29 28  2  0  0  0  0
 30 18  1  0  0  0  0
 31 20  1  0  0  0  0
 32 21  1  0  0  0  0
 34 23  1  0  0  0  0
 36 25  1  0  0  0  0
 39 52  1  0  0  0  0
 40 41  1  0  0  0  0
 40 39  1  0  0  0  0
 41 53  1  0  0  0  0
 42 54  1  0  0  0  0
 42 41  2  0  0  0  0
 43 42  1  0  0  0  0
 44 43  1  0  0  0  0
 44 45  1  0  0  0  0
 45 57  1  6  0  0  0
 45 47  1  0  0  0  0
 45 46  1  0  0  0  0
 46 26  1  0  0  0  0
 46 58  1  0  0  0  0
 47 51  1  0  0  0  0
 48 47  2  0  0  0  0
 49 43  2  0  0  0  0
 49 50  1  0  0  0  0
 50 40  2  0  0  0  0
 55 44  1  0  0  0  0
 56 44  1  0  0  0  0
 59 49  1  0  0  0  0
 60 50  1  0  0  0  0
M  END
$$$$
