FAG.pdb
 OpenBabel07022418573D

 39 39  0  0  1  0  0  0  0  0999 V2000
    0.4600   -3.6080    0.3890 N   0  0  0  0  0  0  0  0  0  0  0  0
    0.1460   -2.2540    0.8780 C   0  0  1  0  0  0  0  0  0  0  0  0
    1.4680   -1.5500    1.1230 C   0  0  0  0  0  0  0  0  0  0  0  0
    2.2810   -2.2730    2.1340 C   0  0  0  0  0  0  0  0  0  0  0  0
    2.2400   -1.9290    3.4730 C   0  0  0  0  0  0  0  0  0  0  0  0
    3.0200   -2.6380    4.3760 C   0  0  0  0  0  0  0  0  0  0  0  0
    3.8470   -3.6830    3.9970 C   0  0  0  0  0  0  0  0  0  0  0  0
    3.8770   -4.0200    2.6500 C   0  0  0  0  0  0  0  0  0  0  0  0
    3.1060   -3.3230    1.7440 C   0  0  0  0  0  0  0  0  0  0  0  0
   -0.6460   -1.5810   -0.1660 C   0  0  0  0  0  0  0  0  0  0  0  0
   -0.8020   -2.0900   -1.2960 O   0  0  0  0  0  0  0  0  0  0  0  0
    0.3060   -3.6890   -0.6420 H   0  0  0  0  0  0  0  0  0  0  0  0
   -0.1460   -4.3290    0.8660 H   0  0  0  0  0  0  0  0  0  0  0  0
   -0.3740   -2.3890    1.8420 H   0  0  0  0  0  0  0  0  0  0  0  0
    2.0660   -1.6300    0.1690 H   0  0  0  0  0  0  0  0  0  0  0  0
    1.3540   -0.4680    1.3500 H   0  0  0  0  0  0  0  0  0  0  0  0
    1.5930   -1.1050    3.8110 H   0  0  0  0  0  0  0  0  0  0  0  0
    2.9850   -2.3650    5.4110 H   0  0  0  0  0  0  0  0  0  0  0  0
    4.4710   -4.2470    4.7100 H   0  0  0  0  0  0  0  0  0  0  0  0
    4.4960   -4.8280    2.2740 H   0  0  0  0  0  0  0  0  0  0  0  0
    3.1030   -3.5680    0.6760 H   0  0  0  0  0  0  0  0  0  0  0  0
   -3.5180    0.4330   -0.6110 C   0  0  0  0  0  0  0  0  0  0  0  0
   -2.0610    0.3560   -0.9910 C   0  0  2  0  0  0  0  0  0  0  0  0
   -1.2830   -0.3080    0.0530 N   0  0  0  0  0  0  0  0  0  0  0  0
   -1.5110    1.7060   -1.3050 C   0  0  0  0  0  0  0  0  0  0  0  0
   -2.0270    2.4400   -2.1770 O   0  0  0  0  0  0  0  0  0  0  0  0
   -3.7520   -0.3670    0.1050 H   0  0  0  0  0  0  0  0  0  0  0  0
   -4.1990    0.4360   -1.4840 H   0  0  0  0  0  0  0  0  0  0  0  0
   -3.7140    1.4030   -0.0770 H   0  0  0  0  0  0  0  0  0  0  0  0
   -1.9690   -0.2510   -1.9040 H   0  0  0  0  0  0  0  0  0  0  0  0
   -1.1480    0.0870    1.0100 H   0  0  0  0  0  0  0  0  0  0  0  0
   -0.3690    2.1420   -0.5750 N   0  0  0  0  0  0  0  0  0  0  0  0
    0.2700    3.4200   -0.7600 C   0  0  0  0  0  0  0  0  0  0  0  0
   -0.5670    4.5830   -0.5020 C   0  0  0  0  0  0  0  0  0  0  0  0
   -0.1890    5.7810   -0.5810 O   0  0  0  0  0  0  0  0  0  0  0  0
   -1.9120    4.3960   -0.1320 O   0  0  0  0  0  0  0  0  0  0  0  0
    0.0290    1.4720    0.1480 H   0  0  0  0  0  0  0  0  0  0  0  0
    0.7430    3.4220   -1.7730 H   0  0  0  0  0  0  0  0  0  0  0  0
    1.1370    3.4910   -0.0490 H   0  0  0  0  0  0  0  0  0  0  0  0
  1 13  1  0  0  0  0
  1  2  1  0  0  0  0
  2  3  1  0  0  0  0
  2 14  1  1  0  0  0
  3 16  1  0  0  0  0
  3  4  1  0  0  0  0
  4  5  1  0  0  0  0
  5 17  1  0  0  0  0
  5  6  2  0  0  0  0
  6 18  1  0  0  0  0
  7  6  1  0  0  0  0
  7 19  1  0  0  0  0
  8  7  2  0  0  0  0
  9  4  2  0  0  0  0
  9  8  1  0  0  0  0
 10 24  1  0  0  0  0
 10  2  1  0  0  0  0
 11 10  2  0  0  0  0
 12  1  1  0  0  0  0
 15  3  1  0  0  0  0
 20  8  1  0  0  0  0
 21  9  1  0  0  0  0
 22 29  1  0  0  0  0
 22 27  1  0  0  0  0
 23 30  1  6  0  0  0
 23 22  1  0  0  0  0
 23 24  1  0  0  0  0
 24 31  1  0  0  0  0
 25 23  1  0  0  0  0
 25 32  1  0  0  0  0
 26 25  2  0  0  0  0
 28 22  1  0  0  0  0
 32 37  1  0  0  0  0
 33 32  1  0  0  0  0
 33 34  1  0  0  0  0
 33 39  1  0  0  0  0
 34 36  1  0  0  0  0
 35 34  2  0  0  0  0
 38 33  1  0  0  0  0
M  END
$$$$
