FAN.pdb
 OpenBabel07022418573D

 46 46  0  0  1  0  0  0  0  0999 V2000
    4.4920   -2.5380    0.9080 N   0  0  0  0  0  0  0  0  0  0  0  0
    3.7170   -1.3120    0.5770 C   0  0  1  0  0  0  0  0  0  0  0  0
    3.5160   -1.3770   -0.8820 C   0  0  0  0  0  0  0  0  0  0  0  0
    2.7880   -0.3070   -1.5460 C   0  0  0  0  0  0  0  0  0  0  0  0
    1.4240   -0.4600   -1.7120 C   0  0  0  0  0  0  0  0  0  0  0  0
    0.6230    0.4710   -2.3290 C   0  0  0  0  0  0  0  0  0  0  0  0
    1.1980    1.6230   -2.8130 C   0  0  0  0  0  0  0  0  0  0  0  0
    2.5720    1.7770   -2.6460 C   0  0  0  0  0  0  0  0  0  0  0  0
    3.3570    0.8450   -2.0310 C   0  0  0  0  0  0  0  0  0  0  0  0
    2.5340   -1.3550    1.4350 C   0  0  0  0  0  0  0  0  0  0  0  0
    2.2750   -2.3840    2.1590 O   0  0  0  0  0  0  0  0  0  0  0  0
    4.3130   -2.7760    1.9090 H   0  0  0  0  0  0  0  0  0  0  0  0
    4.1520   -3.3490    0.3430 H   0  0  0  0  0  0  0  0  0  0  0  0
    4.4280   -0.4910    0.8720 H   0  0  0  0  0  0  0  0  0  0  0  0
    3.0330   -2.3440   -1.1430 H   0  0  0  0  0  0  0  0  0  0  0  0
    4.5370   -1.4160   -1.3680 H   0  0  0  0  0  0  0  0  0  0  0  0
    0.9050   -1.3610   -1.3450 H   0  0  0  0  0  0  0  0  0  0  0  0
   -0.4400    0.3040   -2.4340 H   0  0  0  0  0  0  0  0  0  0  0  0
    0.5890    2.3710   -3.3030 H   0  0  0  0  0  0  0  0  0  0  0  0
    2.9750    2.7100   -3.0510 H   0  0  0  0  0  0  0  0  0  0  0  0
    4.3960    1.0070   -1.9290 H   0  0  0  0  0  0  0  0  0  0  0  0
    0.6060    0.5000    3.6550 C   0  0  0  0  0  0  0  0  0  0  0  0
    0.4420   -0.4500    2.4640 C   0  0  2  0  0  0  0  0  0  0  0  0
    1.5780   -0.3050    1.5660 N   0  0  0  0  0  0  0  0  0  0  0  0
   -0.7980   -0.1540    1.7460 C   0  0  0  0  0  0  0  0  0  0  0  0
   -0.7950    0.1800    0.5430 O   0  0  0  0  0  0  0  0  0  0  0  0
   -0.4160    0.7240    4.0190 H   0  0  0  0  0  0  0  0  0  0  0  0
    1.0950    1.4340    3.3540 H   0  0  0  0  0  0  0  0  0  0  0  0
    1.1390   -0.0260    4.4900 H   0  0  0  0  0  0  0  0  0  0  0  0
    0.4140   -1.4740    2.9000 H   0  0  0  0  0  0  0  0  0  0  0  0
    1.7070    0.5550    1.0160 H   0  0  0  0  0  0  0  0  0  0  0  0
   -3.1780   -3.4350    1.8420 N   0  0  0  0  0  0  0  0  0  0  0  0
   -3.6940   -2.3280    1.1330 C   0  0  0  0  0  0  0  0  0  0  0  0
   -3.6480   -2.3910   -0.1430 O   0  0  0  0  0  0  0  0  0  0  0  0
   -4.2690   -1.1300    1.7740 C   0  0  0  0  0  0  0  0  0  0  0  0
   -3.3130    0.0510    1.7160 C   0  0  2  0  0  0  0  0  0  0  0  0
   -2.0720   -0.2330    2.3860 N   0  0  0  0  0  0  0  0  0  0  0  0
   -4.0230    1.1920    2.3350 C   0  0  0  0  0  0  0  0  0  0  0  0
   -5.1120    1.5630    1.8720 O   0  0  0  0  0  0  0  0  0  0  0  0
   -3.4830    1.8460    3.4230 O   0  0  0  0  0  0  0  0  0  0  0  0
   -2.1820   -3.6660    1.7990 H   0  0  0  0  0  0  0  0  0  0  0  0
   -3.8210   -4.0130    2.4090 H   0  0  0  0  0  0  0  0  0  0  0  0
   -5.1800   -0.8380    1.1980 H   0  0  0  0  0  0  0  0  0  0  0  0
   -4.5810   -1.3550    2.7930 H   0  0  0  0  0  0  0  0  0  0  0  0
   -3.0880    0.3310    0.6670 H   0  0  0  0  0  0  0  0  0  0  0  0
   -2.0560   -0.5160    3.3940 H   0  0  0  0  0  0  0  0  0  0  0  0
  1 12  1  0  0  0  0
  2 14  1  1  0  0  0
  2  1  1  0  0  0  0
  2 10  1  0  0  0  0
  3  2  1  0  0  0  0
  4  3  1  0  0  0  0
  5  4  1  0  0  0  0
  5 17  1  0  0  0  0
  6  5  2  0  0  0  0
  7  8  2  0  0  0  0
  7  6  1  0  0  0  0
  8  9  1  0  0  0  0
  9 21  1  0  0  0  0
  9  4  2  0  0  0  0
 10 24  1  0  0  0  0
 10 11  2  0  0  0  0
 13  1  1  0  0  0  0
 15  3  1  0  0  0  0
 16  3  1  0  0  0  0
 18  6  1  0  0  0  0
 19  7  1  0  0  0  0
 20  8  1  0  0  0  0
 22 27  1  0  0  0  0
 22 29  1  0  0  0  0
 23 30  1  1  0  0  0
 23 22  1  0  0  0  0
 24 23  1  0  0  0  0
 25 37  1  0  0  0  0
 25 23  1  0  0  0  0
 26 25  2  0  0  0  0
 28 22  1  0  0  0  0
 31 24  1  0  0  0  0
 32 42  1  0  0  0  0
 33 35  1  0  0  0  0
 33 32  1  0  0  0  0
 34 33  2  0  0  0  0
 35 44  1  0  0  0  0
 36 45  1  6  0  0  0
 36 35  1  0  0  0  0
 36 38  1  0  0  0  0
 36 37  1  0  0  0  0
 37 46  1  0  0  0  0
 38 40  1  0  0  0  0
 39 38  2  0  0  0  0
 41 32  1  0  0  0  0
 43 35  1  0  0  0  0
M  END
$$$$
