FAP.pdb
 OpenBabel07022418583D

 46 47  0  0  1  0  0  0  0  0999 V2000
    0.4590   -2.6320    0.0930 N   0  0  0  0  0  0  0  0  0  0  0  0
    1.5110   -2.0660    0.8760 C   0  0  1  0  0  0  0  0  0  0  0  0
    2.8220   -2.4620    0.3230 C   0  0  0  0  0  0  0  0  0  0  0  0
    3.1140   -2.0700   -1.0440 C   0  0  0  0  0  0  0  0  0  0  0  0
    2.7480   -2.9550   -2.0530 C   0  0  0  0  0  0  0  0  0  0  0  0
    3.0030   -2.6340   -3.3770 C   0  0  0  0  0  0  0  0  0  0  0  0
    3.6220   -1.4270   -3.6590 C   0  0  0  0  0  0  0  0  0  0  0  0
    3.9770   -0.5630   -2.6420 C   0  0  0  0  0  0  0  0  0  0  0  0
    3.7350   -0.8590   -1.3240 C   0  0  0  0  0  0  0  0  0  0  0  0
    1.3360   -0.6210    1.1030 C   0  0  0  0  0  0  0  0  0  0  0  0
    2.1530    0.0410    1.7590 O   0  0  0  0  0  0  0  0  0  0  0  0
   -0.3470   -2.9870    0.6080 H   0  0  0  0  0  0  0  0  0  0  0  0
    0.2970   -2.2260   -0.8260 H   0  0  0  0  0  0  0  0  0  0  0  0
    1.4320   -2.5410    1.9010 H   0  0  0  0  0  0  0  0  0  0  0  0
    3.6260   -2.0270    0.9860 H   0  0  0  0  0  0  0  0  0  0  0  0
    2.9330   -3.5620    0.4170 H   0  0  0  0  0  0  0  0  0  0  0  0
    2.2640   -3.9030   -1.8600 H   0  0  0  0  0  0  0  0  0  0  0  0
    2.7440   -3.2770   -4.2040 H   0  0  0  0  0  0  0  0  0  0  0  0
    3.8400   -1.1360   -4.6770 H   0  0  0  0  0  0  0  0  0  0  0  0
    4.4650    0.3920   -2.8390 H   0  0  0  0  0  0  0  0  0  0  0  0
    3.9820   -0.2380   -0.4890 H   0  0  0  0  0  0  0  0  0  0  0  0
   -0.4040    2.0960   -0.6200 C   0  0  0  0  0  0  0  0  0  0  0  0
   -0.0940    1.4050    0.6920 C   0  0  2  0  0  0  0  0  0  0  0  0
    0.1880    0.0200    0.5450 N   0  0  0  0  0  0  0  0  0  0  0  0
   -1.2060    1.6850    1.6120 C   0  0  0  0  0  0  0  0  0  0  0  0
   -1.5930    2.9170    1.6650 O   0  0  0  0  0  0  0  0  0  0  0  0
    0.4870    2.1920   -1.2640 H   0  0  0  0  0  0  0  0  0  0  0  0
   -0.7170    3.1340   -0.3510 H   0  0  0  0  0  0  0  0  0  0  0  0
   -1.2660    1.6390   -1.1400 H   0  0  0  0  0  0  0  0  0  0  0  0
    0.8250    1.9470    1.0920 H   0  0  0  0  0  0  0  0  0  0  0  0
   -0.5120   -0.5230   -0.0470 H   0  0  0  0  0  0  0  0  0  0  0  0
   -1.9020    0.7880    2.4440 N   0  0  0  0  0  0  0  0  0  0  0  0
   -1.7850   -0.6230    2.7010 C   0  0  0  0  0  0  0  0  0  0  0  0
   -3.1870   -1.0790    3.0600 C   0  0  0  0  0  0  0  0  0  0  0  0
   -4.0440    0.1650    3.0090 C   0  0  0  0  0  0  0  0  0  0  0  0
   -3.0200    1.2240    3.3160 C   0  0  1  0  0  0  0  0  0  0  0  0
   -2.6580    1.1530    4.7390 C   0  0  0  0  0  0  0  0  0  0  0  0
   -3.5260    1.4220    5.6400 O   0  0  0  0  0  0  0  0  0  0  0  0
   -1.4130    0.8090    5.2380 O   0  0  0  0  0  0  0  0  0  0  0  0
   -1.3480   -1.2300    1.9140 H   0  0  0  0  0  0  0  0  0  0  0  0
   -1.1600   -0.7950    3.6310 H   0  0  0  0  0  0  0  0  0  0  0  0
   -3.5640   -1.8650    2.3650 H   0  0  0  0  0  0  0  0  0  0  0  0
   -3.2320   -1.5170    4.0810 H   0  0  0  0  0  0  0  0  0  0  0  0
   -4.4260    0.2960    1.9550 H   0  0  0  0  0  0  0  0  0  0  0  0
   -4.8930    0.1380    3.7150 H   0  0  0  0  0  0  0  0  0  0  0  0
   -3.3650    2.2390    3.0130 H   0  0  0  0  0  0  0  0  0  0  0  0
  1 12  1  0  0  0  0
  1  2  1  0  0  0  0
  2 10  1  0  0  0  0
  2 14  1  1  0  0  0
  3 16  1  0  0  0  0
  3  2  1  0  0  0  0
  3 15  1  0  0  0  0
  4  3  1  0  0  0  0
  5 17  1  0  0  0  0
  5  4  2  0  0  0  0
  6  5  1  0  0  0  0
  7  6  2  0  0  0  0
  7  8  1  0  0  0  0
  8  9  2  0  0  0  0
  9  4  1  0  0  0  0
  9 21  1  0  0  0  0
 10 11  2  0  0  0  0
 13  1  1  0  0  0  0
 18  6  1  0  0  0  0
 19  7  1  0  0  0  0
 20  8  1  0  0  0  0
 22 28  1  0  0  0  0
 22 23  1  0  0  0  0
 23 30  1  1  0  0  0
 23 25  1  0  0  0  0
 24 23  1  0  0  0  0
 24 10  1  0  0  0  0
 25 26  2  0  0  0  0
 25 32  1  0  0  0  0
 27 22  1  0  0  0  0
 29 22  1  0  0  0  0
 31 24  1  0  0  0  0
 32 33  1  0  0  0  0
 32 36  1  0  0  0  0
 33 34  1  0  0  0  0
 33 41  1  0  0  0  0
 34 43  1  0  0  0  0
 35 34  1  0  0  0  0
 35 36  1  0  0  0  0
 35 45  1  0  0  0  0
 36 46  1  6  0  0  0
 36 37  1  0  0  0  0
 37 39  2  0  0  0  0
 37 38  1  0  0  0  0
 40 33  1  0  0  0  0
 42 34  1  0  0  0  0
 44 35  1  0  0  0  0
M  END
$$$$
