FAQ.pdb
 OpenBabel07022418573D

 49 49  0  0  1  0  0  0  0  0999 V2000
    2.6720   -1.4550   -0.1390 N   0  0  0  0  0  0  0  0  0  0  0  0
    2.8060   -1.2250    1.3060 C   0  0  1  0  0  0  0  0  0  0  0  0
    4.0990   -0.4380    1.4470 C   0  0  0  0  0  0  0  0  0  0  0  0
    4.4130   -0.0950    2.8530 C   0  0  0  0  0  0  0  0  0  0  0  0
    3.9770    1.0750    3.4000 C   0  0  0  0  0  0  0  0  0  0  0  0
    4.2460    1.4160    4.6920 C   0  0  0  0  0  0  0  0  0  0  0  0
    4.9810    0.5520    5.4740 C   0  0  0  0  0  0  0  0  0  0  0  0
    5.4280   -0.6280    4.9460 C   0  0  0  0  0  0  0  0  0  0  0  0
    5.1530   -0.9630    3.6410 C   0  0  0  0  0  0  0  0  0  0  0  0
    1.6440   -0.4930    1.7970 C   0  0  0  0  0  0  0  0  0  0  0  0
    1.4730   -0.2700    3.0370 O   0  0  0  0  0  0  0  0  0  0  0  0
    2.6820   -0.5320   -0.6080 H   0  0  0  0  0  0  0  0  0  0  0  0
    1.8250   -1.9910   -0.3610 H   0  0  0  0  0  0  0  0  0  0  0  0
    2.9500   -2.2110    1.7650 H   0  0  0  0  0  0  0  0  0  0  0  0
    4.9370   -1.0580    1.0580 H   0  0  0  0  0  0  0  0  0  0  0  0
    3.9990    0.4880    0.8330 H   0  0  0  0  0  0  0  0  0  0  0  0
    3.3930    1.7960    2.8190 H   0  0  0  0  0  0  0  0  0  0  0  0
    3.8960    2.3500    5.1120 H   0  0  0  0  0  0  0  0  0  0  0  0
    5.2290    0.7700    6.5110 H   0  0  0  0  0  0  0  0  0  0  0  0
    6.0120   -1.3280    5.5580 H   0  0  0  0  0  0  0  0  0  0  0  0
    5.5310   -1.9090    3.2610 H   0  0  0  0  0  0  0  0  0  0  0  0
   -0.3930    2.1900    0.9430 C   0  0  0  0  0  0  0  0  0  0  0  0
   -0.5220    0.7290    1.3430 C   0  0  2  0  0  0  0  0  0  0  0  0
    0.6530    0.0030    0.9110 N   0  0  0  0  0  0  0  0  0  0  0  0
   -1.7820    0.2370    0.7560 C   0  0  0  0  0  0  0  0  0  0  0  0
   -2.8470    0.7540    1.1590 O   0  0  0  0  0  0  0  0  0  0  0  0
   -1.2280    2.5140    0.3230 H   0  0  0  0  0  0  0  0  0  0  0  0
    0.5450    2.3130    0.3290 H   0  0  0  0  0  0  0  0  0  0  0  0
   -0.2450    2.8130    1.8290 H   0  0  0  0  0  0  0  0  0  0  0  0
   -0.6040    0.6950    2.4420 H   0  0  0  0  0  0  0  0  0  0  0  0
    0.7400   -0.1480   -0.1360 H   0  0  0  0  0  0  0  0  0  0  0  0
   -5.5530   -2.8940   -3.6910 N   0  0  0  0  0  0  0  0  0  0  0  0
   -4.3360   -2.2680   -3.4000 C   0  0  0  0  0  0  0  0  0  0  0  0
   -3.2450   -2.9200   -3.4820 O   0  0  0  0  0  0  0  0  0  0  0  0
   -4.2710   -0.8480   -2.9980 C   0  0  0  0  0  0  0  0  0  0  0  0
   -3.1200   -0.5970   -2.1230 C   0  0  0  0  0  0  0  0  0  0  0  0
   -3.1050   -1.2100   -0.7520 C   0  0  2  0  0  0  0  0  0  0  0  0
   -1.8030   -0.7730   -0.2210 N   0  0  0  0  0  0  0  0  0  0  0  0
   -3.2100   -2.6390   -0.6280 C   0  0  0  0  0  0  0  0  0  0  0  0
   -2.1950   -3.3440   -0.2970 O   0  0  0  0  0  0  0  0  0  0  0  0
   -4.3620   -3.4090   -0.8310 O   0  0  0  0  0  0  0  0  0  0  0  0
   -5.5430   -3.8720   -4.0700 H   0  0  0  0  0  0  0  0  0  0  0  0
   -6.4940   -2.4730   -3.5670 H   0  0  0  0  0  0  0  0  0  0  0  0
   -5.2410   -0.4800   -2.6120 H   0  0  0  0  0  0  0  0  0  0  0  0
   -4.1110   -0.2520   -3.9460 H   0  0  0  0  0  0  0  0  0  0  0  0
   -2.1440   -0.9080   -2.6080 H   0  0  0  0  0  0  0  0  0  0  0  0
   -2.9350    0.5110   -1.9400 H   0  0  0  0  0  0  0  0  0  0  0  0
   -3.8730   -0.6730   -0.0920 H   0  0  0  0  0  0  0  0  0  0  0  0
   -0.9230   -1.2270   -0.5870 H   0  0  0  0  0  0  0  0  0  0  0  0
  1  2  1  0  0  0  0
  2  3  1  0  0  0  0
  2 14  1  1  0  0  0
  2 10  1  0  0  0  0
  3  4  1  0  0  0  0
  4  5  2  0  0  0  0
  4  9  1  0  0  0  0
  5  6  1  0  0  0  0
  6 18  1  0  0  0  0
  6  7  2  0  0  0  0
  7 19  1  0  0  0  0
  8  7  1  0  0  0  0
  8 20  1  0  0  0  0
  9  8  2  0  0  0  0
 10 11  2  0  0  0  0
 12  1  1  0  0  0  0
 13  1  1  0  0  0  0
 15  3  1  0  0  0  0
 16  3  1  0  0  0  0
 17  5  1  0  0  0  0
 21  9  1  0  0  0  0
 22 23  1  0  0  0  0
 22 29  1  0  0  0  0
 23 30  1  1  0  0  0
 24 23  1  0  0  0  0
 24 10  1  0  0  0  0
 25 26  2  0  0  0  0
 25 23  1  0  0  0  0
 27 22  1  0  0  0  0
 28 22  1  0  0  0  0
 31 24  1  0  0  0  0
 32 43  1  0  0  0  0
 32 33  1  0  0  0  0
 33 35  1  0  0  0  0
 34 33  2  0  0  0  0
 35 44  1  0  0  0  0
 35 36  1  0  0  0  0
 36 47  1  0  0  0  0
 36 37  1  0  0  0  0
 37 39  1  0  0  0  0
 37 38  1  0  0  0  0
 37 48  1  1  0  0  0
 38 25  1  0  0  0  0
 39 40  1  0  0  0  0
 41 39  2  0  0  0  0
 42 32  1  0  0  0  0
 45 35  1  0  0  0  0
 46 36  1  0  0  0  0
 49 38  1  0  0  0  0
M  END
$$$$
