FAR.pdb
 OpenBabel07022418573D

 55 55  0  0  1  0  0  0  0  0999 V2000
    0.6230    0.0240    6.0400 N   0  0  0  0  0  0  0  0  0  0  0  0
    1.4970   -0.0630    4.8350 C   0  0  1  0  0  0  0  0  0  0  0  0
    2.0300   -1.4590    4.8600 C   0  0  0  0  0  0  0  0  0  0  0  0
    2.9410   -1.8370    3.7870 C   0  0  0  0  0  0  0  0  0  0  0  0
    2.5760   -2.4310    2.6010 C   0  0  0  0  0  0  0  0  0  0  0  0
    3.5150   -2.7620    1.6520 C   0  0  0  0  0  0  0  0  0  0  0  0
    4.8550   -2.5090    1.8590 C   0  0  0  0  0  0  0  0  0  0  0  0
    5.2390   -1.9130    3.0450 C   0  0  0  0  0  0  0  0  0  0  0  0
    4.2890   -1.5870    3.9870 C   0  0  0  0  0  0  0  0  0  0  0  0
    0.6890    0.1850    3.6330 C   0  0  0  0  0  0  0  0  0  0  0  0
   -0.5880    0.2220    3.7630 O   0  0  0  0  0  0  0  0  0  0  0  0
    0.5530    0.9870    6.3820 H   0  0  0  0  0  0  0  0  0  0  0  0
   -0.2680   -0.4650    5.8580 H   0  0  0  0  0  0  0  0  0  0  0  0
    2.2760    0.7080    5.0020 H   0  0  0  0  0  0  0  0  0  0  0  0
    1.1230   -2.1320    4.7690 H   0  0  0  0  0  0  0  0  0  0  0  0
    2.4380   -1.7280    5.8660 H   0  0  0  0  0  0  0  0  0  0  0  0
    1.5190   -2.6240    2.4470 H   0  0  0  0  0  0  0  0  0  0  0  0
    3.1500   -3.2250    0.7440 H   0  0  0  0  0  0  0  0  0  0  0  0
    5.5910   -2.7820    1.0870 H   0  0  0  0  0  0  0  0  0  0  0  0
    6.3080   -1.7120    3.2100 H   0  0  0  0  0  0  0  0  0  0  0  0
    4.6300   -1.1280    4.8890 H   0  0  0  0  0  0  0  0  0  0  0  0
    0.4000    2.1090    0.8580 C   0  0  0  0  0  0  0  0  0  0  0  0
    0.2330    0.6350    1.2460 C   0  0  2  0  0  0  0  0  0  0  0  0
    1.1670    0.3940    2.3250 N   0  0  0  0  0  0  0  0  0  0  0  0
    0.5110   -0.1780    0.0390 C   0  0  0  0  0  0  0  0  0  0  0  0
    1.4610   -0.9890   -0.0770 O   0  0  0  0  0  0  0  0  0  0  0  0
   -0.5610    2.6590    0.9070 H   0  0  0  0  0  0  0  0  0  0  0  0
    1.0850    2.6290    1.5570 H   0  0  0  0  0  0  0  0  0  0  0  0
    0.8690    2.1820   -0.1440 H   0  0  0  0  0  0  0  0  0  0  0  0
   -0.8270    0.5440    1.5950 H   0  0  0  0  0  0  0  0  0  0  0  0
    2.1720    0.3780    2.1460 H   0  0  0  0  0  0  0  0  0  0  0  0
   -6.3660    0.4750   -2.4750 N   0  0  0  0  0  0  0  0  0  0  0  0
   -5.4610   -0.5720   -2.2190 C   0  0  0  0  0  0  0  0  0  0  0  0
   -5.1800   -0.9080   -1.0020 N   0  0  0  0  0  0  0  0  0  0  0  0
   -4.8490   -1.2700   -3.2970 N   0  0  0  0  0  0  0  0  0  0  0  0
   -3.6190   -2.0410   -3.0890 C   0  0  0  0  0  0  0  0  0  0  0  0
   -2.5000   -1.0760   -2.7930 C   0  0  0  0  0  0  0  0  0  0  0  0
   -1.2120   -1.8220   -2.5720 C   0  0  0  0  0  0  0  0  0  0  0  0
   -0.0870   -0.8340   -2.2750 C   0  0  2  0  0  0  0  0  0  0  0  0
   -0.3520   -0.0530   -1.1080 N   0  0  0  0  0  0  0  0  0  0  0  0
    0.1450   -0.0070   -3.4860 C   0  0  0  0  0  0  0  0  0  0  0  0
    0.1150    1.2380   -3.5030 O   0  0  0  0  0  0  0  0  0  0  0  0
    0.4170   -0.6600   -4.6910 O   0  0  0  0  0  0  0  0  0  0  0  0
   -6.3080    1.0810   -3.3340 H   0  0  0  0  0  0  0  0  0  0  0  0
   -7.1260    0.6770   -1.8070 H   0  0  0  0  0  0  0  0  0  0  0  0
   -4.5170   -1.6750   -0.7740 H   0  0  0  0  0  0  0  0  0  0  0  0
   -5.3180   -1.2020   -4.2290 H   0  0  0  0  0  0  0  0  0  0  0  0
   -3.3880   -2.5180   -4.0660 H   0  0  0  0  0  0  0  0  0  0  0  0
   -3.7600   -2.7930   -2.3000 H   0  0  0  0  0  0  0  0  0  0  0  0
   -2.3530   -0.4670   -3.7320 H   0  0  0  0  0  0  0  0  0  0  0  0
   -2.7170   -0.4470   -1.9260 H   0  0  0  0  0  0  0  0  0  0  0  0
   -0.9550   -2.4310   -3.4410 H   0  0  0  0  0  0  0  0  0  0  0  0
   -1.3640   -2.5080   -1.7070 H   0  0  0  0  0  0  0  0  0  0  0  0
    0.8230   -1.4650   -2.1370 H   0  0  0  0  0  0  0  0  0  0  0  0
   -1.1640    0.6000   -1.0920 H   0  0  0  0  0  0  0  0  0  0  0  0
  1 12  1  0  0  0  0
  2  3  1  0  0  0  0
  2 14  1  1  0  0  0
  2  1  1  0  0  0  0
  3 16  1  0  0  0  0
  4  9  1  0  0  0  0
  4  3  1  0  0  0  0
  5  4  2  0  0  0  0
  6  7  2  0  0  0  0
  6  5  1  0  0  0  0
  7  8  1  0  0  0  0
  8 20  1  0  0  0  0
  8  9  2  0  0  0  0
  9 21  1  0  0  0  0
 10 11  2  0  0  0  0
 10  2  1  0  0  0  0
 13  1  1  0  0  0  0
 15  3  1  0  0  0  0
 17  5  1  0  0  0  0
 18  6  1  0  0  0  0
 19  7  1  0  0  0  0
 22 27  1  0  0  0  0
 22 23  1  0  0  0  0
 22 28  1  0  0  0  0
 23 30  1  1  0  0  0
 23 24  1  0  0  0  0
 24 10  1  0  0  0  0
 25 23  1  0  0  0  0
 26 25  2  0  0  0  0
 29 22  1  0  0  0  0
 31 24  1  0  0  0  0
 32 33  1  0  0  0  0
 32 45  1  0  0  0  0
 33 34  2  0  0  0  0
 34 46  1  0  0  0  0
 35 36  1  0  0  0  0
 35 33  1  0  0  0  0
 36 37  1  0  0  0  0
 36 49  1  0  0  0  0
 37 38  1  0  0  0  0
 37 51  1  0  0  0  0
 38 39  1  0  0  0  0
 38 53  1  0  0  0  0
 39 54  1  1  0  0  0
 39 40  1  0  0  0  0
 40 55  1  0  0  0  0
 40 25  1  0  0  0  0
 41 39  1  0  0  0  0
 42 41  1  0  0  0  0
 43 41  2  0  0  0  0
 44 32  1  0  0  0  0
 47 35  1  0  0  0  0
 48 36  1  0  0  0  0
 50 37  1  0  0  0  0
 52 38  1  0  0  0  0
M  END
$$$$
