FAV.pdb
 OpenBabel07022418583D

 48 48  0  0  1  0  0  0  0  0999 V2000
    1.2810   -2.8080    1.0870 N   0  0  0  0  0  0  0  0  0  0  0  0
    2.1910   -1.6790    0.9430 C   0  0  1  0  0  0  0  0  0  0  0  0
    3.4410   -2.1100    0.2210 C   0  0  0  0  0  0  0  0  0  0  0  0
    4.4200   -1.0450    0.0270 C   0  0  0  0  0  0  0  0  0  0  0  0
    4.3850   -0.2750   -1.1160 C   0  0  0  0  0  0  0  0  0  0  0  0
    5.3020    0.7420   -1.3200 C   0  0  0  0  0  0  0  0  0  0  0  0
    6.2770    1.0070   -0.3790 C   0  0  0  0  0  0  0  0  0  0  0  0
    6.3210    0.2420    0.7690 C   0  0  0  0  0  0  0  0  0  0  0  0
    5.4000   -0.7650    0.9540 C   0  0  0  0  0  0  0  0  0  0  0  0
    1.5010   -0.5570    0.3050 C   0  0  0  0  0  0  0  0  0  0  0  0
    2.0430    0.5540    0.0870 O   0  0  0  0  0  0  0  0  0  0  0  0
    1.1640   -3.3210    0.1840 H   0  0  0  0  0  0  0  0  0  0  0  0
    1.7030   -3.4940    1.7540 H   0  0  0  0  0  0  0  0  0  0  0  0
    2.4900   -1.3740    1.9680 H   0  0  0  0  0  0  0  0  0  0  0  0
    3.9370   -2.9510    0.7450 H   0  0  0  0  0  0  0  0  0  0  0  0
    3.0910   -2.5420   -0.7630 H   0  0  0  0  0  0  0  0  0  0  0  0
    3.6570   -0.4090   -1.9140 H   0  0  0  0  0  0  0  0  0  0  0  0
    5.2740    1.3560   -2.2330 H   0  0  0  0  0  0  0  0  0  0  0  0
    6.9920    1.8120   -0.5550 H   0  0  0  0  0  0  0  0  0  0  0  0
    7.1000    0.4760    1.4900 H   0  0  0  0  0  0  0  0  0  0  0  0
    5.4380   -1.3550    1.8460 H   0  0  0  0  0  0  0  0  0  0  0  0
   -0.9060   -0.0570   -2.1520 C   0  0  0  0  0  0  0  0  0  0  0  0
   -0.5560    0.4030   -0.7350 C   0  0  2  0  0  0  0  0  0  0  0  0
    0.1470   -0.6920   -0.1040 N   0  0  0  0  0  0  0  0  0  0  0  0
   -1.8640    0.6640   -0.0430 C   0  0  0  0  0  0  0  0  0  0  0  0
   -2.6380    1.5730   -0.4310 O   0  0  0  0  0  0  0  0  0  0  0  0
   -1.9540    0.2190   -2.4100 H   0  0  0  0  0  0  0  0  0  0  0  0
   -0.8170   -1.1580   -2.2360 H   0  0  0  0  0  0  0  0  0  0  0  0
   -0.2420    0.3890   -2.9090 H   0  0  0  0  0  0  0  0  0  0  0  0
    0.0510    1.3010   -0.8490 H   0  0  0  0  0  0  0  0  0  0  0  0
   -0.3720   -1.5830    0.0420 H   0  0  0  0  0  0  0  0  0  0  0  0
   -3.7410   -2.2160    2.2400 C   0  0  0  0  0  0  0  0  0  0  0  0
   -4.4180   -1.0470    1.5570 C   0  0  0  0  0  0  0  0  0  0  0  0
   -5.8210   -0.8900    2.0450 C   0  0  0  0  0  0  0  0  0  0  0  0
   -3.5630    0.1880    1.7130 C   0  0  2  0  0  0  0  0  0  0  0  0
   -2.2800   -0.1110    1.0820 N   0  0  0  0  0  0  0  0  0  0  0  0
   -3.3480    0.5690    3.1240 C   0  0  0  0  0  0  0  0  0  0  0  0
   -2.1750    0.5840    3.5730 O   0  0  0  0  0  0  0  0  0  0  0  0
   -4.3830    0.9120    3.9790 O   0  0  0  0  0  0  0  0  0  0  0  0
   -4.4570   -3.0810    2.1400 H   0  0  0  0  0  0  0  0  0  0  0  0
   -2.8520   -2.5100    1.6710 H   0  0  0  0  0  0  0  0  0  0  0  0
   -3.4900   -2.0100    3.2800 H   0  0  0  0  0  0  0  0  0  0  0  0
   -4.4770   -1.2320    0.4500 H   0  0  0  0  0  0  0  0  0  0  0  0
   -6.5790   -0.9670    1.2120 H   0  0  0  0  0  0  0  0  0  0  0  0
   -6.0330    0.0410    2.5790 H   0  0  0  0  0  0  0  0  0  0  0  0
   -6.0690   -1.7560    2.7140 H   0  0  0  0  0  0  0  0  0  0  0  0
   -4.0580    1.0460    1.2090 H   0  0  0  0  0  0  0  0  0  0  0  0
   -1.6690   -0.8750    1.4410 H   0  0  0  0  0  0  0  0  0  0  0  0
  1 13  1  0  0  0  0
  2  1  1  0  0  0  0
  2 14  1  1  0  0  0
  3 15  1  0  0  0  0
  3  2  1  0  0  0  0
  4  3  1  0  0  0  0
  4  9  1  0  0  0  0
  5  4  2  0  0  0  0
  6  5  1  0  0  0  0
  6  7  2  0  0  0  0
  7  8  1  0  0  0  0
  8  9  2  0  0  0  0
  8 20  1  0  0  0  0
  9 21  1  0  0  0  0
 10  2  1  0  0  0  0
 11 10  2  0  0  0  0
 12  1  1  0  0  0  0
 16  3  1  0  0  0  0
 17  5  1  0  0  0  0
 18  6  1  0  0  0  0
 19  7  1  0  0  0  0
 22 23  1  0  0  0  0
 23 30  1  6  0  0  0
 23 24  1  0  0  0  0
 23 25  1  0  0  0  0
 24 31  1  0  0  0  0
 24 10  1  0  0  0  0
 25 36  1  0  0  0  0
 26 25  2  0  0  0  0
 27 22  1  0  0  0  0
 28 22  1  0  0  0  0
 29 22  1  0  0  0  0
 32 42  1  0  0  0  0
 33 35  1  0  0  0  0
 33 34  1  0  0  0  0
 33 32  1  0  0  0  0
 34 45  1  0  0  0  0
 34 46  1  0  0  0  0
 35 47  1  6  0  0  0
 35 37  1  0  0  0  0
 36 48  1  0  0  0  0
 36 35  1  0  0  0  0
 37 38  2  0  0  0  0
 37 39  1  0  0  0  0
 40 32  1  0  0  0  0
 41 32  1  0  0  0  0
 43 33  1  0  0  0  0
 44 34  1  0  0  0  0
M  END
$$$$
