FAY.pdb
 OpenBabel07022418583D

 53 54  0  0  1  0  0  0  0  0999 V2000
   -0.9140    3.5450    3.1070 N   0  0  0  0  0  0  0  0  0  0  0  0
    0.1620    2.6280    2.6430 C   0  0  1  0  0  0  0  0  0  0  0  0
    0.3110    1.6270    3.7270 C   0  0  0  0  0  0  0  0  0  0  0  0
    1.3340    0.5850    3.5310 C   0  0  0  0  0  0  0  0  0  0  0  0
    1.0790   -0.6450    2.9710 C   0  0  0  0  0  0  0  0  0  0  0  0
    2.0680   -1.6020    2.8060 C   0  0  0  0  0  0  0  0  0  0  0  0
    3.3680   -1.3660    3.2000 C   0  0  0  0  0  0  0  0  0  0  0  0
    3.6360   -0.1370    3.7630 C   0  0  0  0  0  0  0  0  0  0  0  0
    2.6560    0.8190    3.9290 C   0  0  0  0  0  0  0  0  0  0  0  0
   -0.2910    2.1210    1.3380 C   0  0  0  0  0  0  0  0  0  0  0  0
   -1.4810    2.3570    0.9160 O   0  0  0  0  0  0  0  0  0  0  0  0
   -1.7320    2.9680    3.4400 H   0  0  0  0  0  0  0  0  0  0  0  0
   -1.2550    4.1190    2.3280 H   0  0  0  0  0  0  0  0  0  0  0  0
    1.0520    3.3080    2.5470 H   0  0  0  0  0  0  0  0  0  0  0  0
    0.4280    2.1170    4.7390 H   0  0  0  0  0  0  0  0  0  0  0  0
   -0.6880    1.1000    3.8250 H   0  0  0  0  0  0  0  0  0  0  0  0
    0.0670   -0.8480    2.6570 H   0  0  0  0  0  0  0  0  0  0  0  0
    1.8620   -2.5710    2.3630 H   0  0  0  0  0  0  0  0  0  0  0  0
    4.1320   -2.1200    3.0660 H   0  0  0  0  0  0  0  0  0  0  0  0
    4.6490    0.0570    4.0730 H   0  0  0  0  0  0  0  0  0  0  0  0
    2.8570    1.8000    4.3760 H   0  0  0  0  0  0  0  0  0  0  0  0
    0.7460    1.7010   -1.9050 C   0  0  0  0  0  0  0  0  0  0  0  0
   -0.0430    0.9110   -0.8470 C   0  0  2  0  0  0  0  0  0  0  0  0
    0.4970    1.3510    0.4250 N   0  0  0  0  0  0  0  0  0  0  0  0
    0.2750   -0.5010   -1.0540 C   0  0  0  0  0  0  0  0  0  0  0  0
    0.9450   -1.1150   -0.1910 O   0  0  0  0  0  0  0  0  0  0  0  0
    0.3280    2.7060   -2.0500 H   0  0  0  0  0  0  0  0  0  0  0  0
    0.7310    1.0850   -2.8320 H   0  0  0  0  0  0  0  0  0  0  0  0
    1.8040    1.7060   -1.5600 H   0  0  0  0  0  0  0  0  0  0  0  0
   -1.1180    1.1740   -0.9050 H   0  0  0  0  0  0  0  0  0  0  0  0
    1.4700    1.1260    0.7190 H   0  0  0  0  0  0  0  0  0  0  0  0
   -4.3700   -3.0300    2.1500 O   0  0  0  0  0  0  0  0  0  0  0  0
   -3.5370   -3.1540    1.0420 C   0  0  0  0  0  0  0  0  0  0  0  0
   -3.6980   -2.3720   -0.0870 C   0  0  0  0  0  0  0  0  0  0  0  0
   -2.8630   -2.5100   -1.1750 C   0  0  0  0  0  0  0  0  0  0  0  0
   -1.8360   -3.4250   -1.1890 C   0  0  0  0  0  0  0  0  0  0  0  0
   -0.9770   -3.5330   -2.3670 C   0  0  0  0  0  0  0  0  0  0  0  0
    0.2310   -2.6190   -2.3030 C   0  0  2  0  0  0  0  0  0  0  0  0
   -0.1370   -1.2390   -2.2030 N   0  0  0  0  0  0  0  0  0  0  0  0
    1.0200   -2.8150   -3.5360 C   0  0  0  0  0  0  0  0  0  0  0  0
    1.4500   -3.9520   -3.8270 O   0  0  0  0  0  0  0  0  0  0  0  0
   -1.6610   -4.2130   -0.0710 C   0  0  0  0  0  0  0  0  0  0  0  0
   -2.4960   -4.0750    1.0160 C   0  0  0  0  0  0  0  0  0  0  0  0
    1.2860   -1.7530   -4.3680 O   0  0  0  0  0  0  0  0  0  0  0  0
   -4.3500   -2.2200    2.7570 H   0  0  0  0  0  0  0  0  0  0  0  0
   -4.5070   -1.6470   -0.0850 H   0  0  0  0  0  0  0  0  0  0  0  0
   -3.0690   -1.8470   -2.0210 H   0  0  0  0  0  0  0  0  0  0  0  0
   -1.5100   -3.3810   -3.3300 H   0  0  0  0  0  0  0  0  0  0  0  0
   -0.5690   -4.5790   -2.3900 H   0  0  0  0  0  0  0  0  0  0  0  0
    0.8270   -2.9390   -1.4090 H   0  0  0  0  0  0  0  0  0  0  0  0
   -0.6930   -0.7450   -2.9280 H   0  0  0  0  0  0  0  0  0  0  0  0
   -0.8670   -4.9600   -0.0110 H   0  0  0  0  0  0  0  0  0  0  0  0
   -2.3790   -4.6830    1.9090 H   0  0  0  0  0  0  0  0  0  0  0  0
  1 12  1  0  0  0  0
  2 14  1  6  0  0  0
  2  1  1  0  0  0  0
  2  3  1  0  0  0  0
  3 16  1  0  0  0  0
  3 15  1  0  0  0  0
  4  3  1  0  0  0  0
  4  9  1  0  0  0  0
  5  4  2  0  0  0  0
  6  5  1  0  0  0  0
  6  7  2  0  0  0  0
  7  8  1  0  0  0  0
  8  9  2  0  0  0  0
  8 20  1  0  0  0  0
  9 21  1  0  0  0  0
 10  2  1  0  0  0  0
 11 10  2  0  0  0  0
 13  1  1  0  0  0  0
 17  5  1  0  0  0  0
 18  6  1  0  0  0  0
 19  7  1  0  0  0  0
 22 29  1  0  0  0  0
 22 23  1  0  0  0  0
 23 30  1  6  0  0  0
 23 24  1  0  0  0  0
 24 31  1  0  0  0  0
 24 10  1  0  0  0  0
 25 23  1  0  0  0  0
 25 26  2  0  0  0  0
 27 22  1  0  0  0  0
 28 22  1  0  0  0  0
 32 45  1  0  0  0  0
 33 32  1  0  0  0  0
 34 46  1  0  0  0  0
 34 33  2  0  0  0  0
 35 34  1  0  0  0  0
 36 35  2  0  0  0  0
 36 42  1  0  0  0  0
 37 38  1  0  0  0  0
 37 36  1  0  0  0  0
 38 39  1  0  0  0  0
 38 50  1  1  0  0  0
 39 25  1  0  0  0  0
 40 38  1  0  0  0  0
 41 40  1  0  0  0  0
 42 52  1  0  0  0  0
 42 43  2  0  0  0  0
 43 33  1  0  0  0  0
 43 53  1  0  0  0  0
 44 40  2  0  0  0  0
 47 35  1  0  0  0  0
 48 37  1  0  0  0  0
 49 37  1  0  0  0  0
 51 39  1  0  0  0  0
M  END
$$$$
