FCF.pdb
 OpenBabel07022418593D

 53 54  0  0  1  0  0  0  0  0999 V2000
    1.5770    0.1850    0.2430 N   0  0  0  0  0  0  0  0  0  0  0  0
    1.3720    0.7810    1.5490 C   0  0  1  0  0  0  0  0  0  0  0  0
    2.2840    1.9820    1.7200 C   0  0  0  0  0  0  0  0  0  0  0  0
    3.6840    1.4860    1.5870 C   0  0  0  0  0  0  0  0  0  0  0  0
    4.3110    1.4470    0.3580 C   0  0  0  0  0  0  0  0  0  0  0  0
    5.6080    0.9920    0.2120 C   0  0  0  0  0  0  0  0  0  0  0  0
    6.3360    0.5530    1.3000 C   0  0  0  0  0  0  0  0  0  0  0  0
    5.7080    0.5930    2.5280 C   0  0  0  0  0  0  0  0  0  0  0  0
    4.4100    1.0490    2.6750 C   0  0  0  0  0  0  0  0  0  0  0  0
   -0.0620    1.1620    1.6950 C   0  0  0  0  0  0  0  0  0  0  0  0
   -0.5110    1.7040    2.7370 O   0  0  0  0  0  0  0  0  0  0  0  0
    0.9820   -0.6300    0.0710 H   0  0  0  0  0  0  0  0  0  0  0  0
    1.4510    0.8770   -0.5250 H   0  0  0  0  0  0  0  0  0  0  0  0
    1.5760    0.0010    2.3090 H   0  0  0  0  0  0  0  0  0  0  0  0
    2.0890    2.6770    0.8710 H   0  0  0  0  0  0  0  0  0  0  0  0
    2.1380    2.4670    2.6830 H   0  0  0  0  0  0  0  0  0  0  0  0
    3.7480    1.7910   -0.5130 H   0  0  0  0  0  0  0  0  0  0  0  0
    6.1110    0.9580   -0.7580 H   0  0  0  0  0  0  0  0  0  0  0  0
    7.3560    0.1920    1.2070 H   0  0  0  0  0  0  0  0  0  0  0  0
    6.2780    0.2490    3.3860 H   0  0  0  0  0  0  0  0  0  0  0  0
    3.9210    1.0760    3.6530 H   0  0  0  0  0  0  0  0  0  0  0  0
   -0.9980    0.9270    0.6500 N   0  0  0  0  0  0  0  0  0  0  0  0
   -2.3780    1.2870    0.7760 C   0  0  1  0  0  0  0  0  0  0  0  0
   -2.8290    2.3020   -0.2370 C   0  0  0  0  0  0  0  0  0  0  0  0
   -4.5880    2.6400    0.0640 S   0  0  0  0  0  0  0  0  0  0  0  0
   -3.2350    0.0710    0.7700 C   0  0  0  0  0  0  0  0  0  0  0  0
   -4.4730    0.2630    0.8760 O   0  0  0  0  0  0  0  0  0  0  0  0
   -0.6990    0.4790   -0.2510 H   0  0  0  0  0  0  0  0  0  0  0  0
   -2.5210    1.7500    1.7800 H   0  0  0  0  0  0  0  0  0  0  0  0
   -2.7530    1.9400   -1.2800 H   0  0  0  0  0  0  0  0  0  0  0  0
   -2.2500    3.2320   -0.0620 H   0  0  0  0  0  0  0  0  0  0  0  0
   -5.2940    2.7890   -1.1660 H   0  0  0  0  0  0  0  0  0  0  0  0
   -2.7580   -1.2390    0.6560 N   0  0  0  0  0  0  0  0  0  0  0  0
   -3.5710   -2.4260    0.6480 C   0  0  1  0  0  0  0  0  0  0  0  0
   -3.4870   -3.2150   -0.6190 C   0  0  0  0  0  0  0  0  0  0  0  0
   -2.1370   -3.6960   -0.9440 C   0  0  0  0  0  0  0  0  0  0  0  0
   -1.6050   -4.8810   -0.5530 C   0  0  0  0  0  0  0  0  0  0  0  0
   -0.3250   -5.2540   -0.9050 C   0  0  0  0  0  0  0  0  0  0  0  0
    0.4540   -4.4070   -1.6790 C   0  0  0  0  0  0  0  0  0  0  0  0
   -0.0620   -3.2000   -2.0870 C   0  0  0  0  0  0  0  0  0  0  0  0
   -1.3420   -2.8580   -1.7200 C   0  0  0  0  0  0  0  0  0  0  0  0
   -3.2780   -3.3090    1.7900 C   0  0  0  0  0  0  0  0  0  0  0  0
   -3.9310   -4.3830    1.8890 O   0  0  0  0  0  0  0  0  0  0  0  0
   -2.3380   -3.0490    2.7660 O   0  0  0  0  0  0  0  0  0  0  0  0
   -1.7160   -1.3750    0.5680 H   0  0  0  0  0  0  0  0  0  0  0  0
   -4.6300   -2.0900    0.7540 H   0  0  0  0  0  0  0  0  0  0  0  0
   -3.8950   -2.6680   -1.5060 H   0  0  0  0  0  0  0  0  0  0  0  0
   -4.1370   -4.1070   -0.4960 H   0  0  0  0  0  0  0  0  0  0  0  0
   -2.1830   -5.5440    0.0390 H   0  0  0  0  0  0  0  0  0  0  0  0
    0.1280   -6.1920   -0.6100 H   0  0  0  0  0  0  0  0  0  0  0  0
    1.4610   -4.6490   -1.9820 H   0  0  0  0  0  0  0  0  0  0  0  0
    0.5410   -2.5210   -2.6980 H   0  0  0  0  0  0  0  0  0  0  0  0
   -1.7100   -1.8900   -2.0670 H   0  0  0  0  0  0  0  0  0  0  0  0
  1  2  1  0  0  0  0
  2 10  1  0  0  0  0
  2  3  1  0  0  0  0
  2 14  1  1  0  0  0
  3 16  1  0  0  0  0
  4  3  1  0  0  0  0
  4  9  1  0  0  0  0
  5  4  2  0  0  0  0
  6  5  1  0  0  0  0
  6  7  2  0  0  0  0
  7  8  1  0  0  0  0
  8  9  2  0  0  0  0
  8 20  1  0  0  0  0
  9 21  1  0  0  0  0
 10 11  2  0  0  0  0
 12  1  1  0  0  0  0
 13  1  1  0  0  0  0
 15  3  1  0  0  0  0
 17  5  1  0  0  0  0
 18  6  1  0  0  0  0
 19  7  1  0  0  0  0
 22 23  1  0  0  0  0
 22 10  1  0  0  0  0
 23 29  1  1  0  0  0
 24 31  1  0  0  0  0
 24 25  1  0  0  0  0
 24 23  1  0  0  0  0
 26 23  1  0  0  0  0
 26 27  2  0  0  0  0
 28 22  1  0  0  0  0
 30 24  1  0  0  0  0
 32 25  1  0  0  0  0
 33 26  1  0  0  0  0
 34 33  1  0  0  0  0
 34 46  1  1  0  0  0
 34 42  1  0  0  0  0
 35 48  1  0  0  0  0
 35 34  1  0  0  0  0
 36 35  1  0  0  0  0
 36 37  1  0  0  0  0
 37 49  1  0  0  0  0
 38 50  1  0  0  0  0
 38 37  2  0  0  0  0
 39 38  1  0  0  0  0
 40 41  1  0  0  0  0
 40 39  2  0  0  0  0
 41 36  2  0  0  0  0
 42 43  2  0  0  0  0
 42 44  1  0  0  0  0
 45 33  1  0  0  0  0
 47 35  1  0  0  0  0
 51 39  1  0  0  0  0
 52 40  1  0  0  0  0
 53 41  1  0  0  0  0
M  END
$$$$
