FCG.pdb
 OpenBabel07022418593D

 40 40  0  0  1  0  0  0  0  0999 V2000
    0.2080   -2.3490   -1.9600 N   0  0  0  0  0  0  0  0  0  0  0  0
    1.2390   -2.1780   -0.9230 C   0  0  1  0  0  0  0  0  0  0  0  0
    2.3960   -1.5160   -1.6390 C   0  0  0  0  0  0  0  0  0  0  0  0
    3.5580   -1.2530   -0.7350 C   0  0  0  0  0  0  0  0  0  0  0  0
    4.5230   -2.2220   -0.5620 C   0  0  0  0  0  0  0  0  0  0  0  0
    5.6180   -1.9900    0.2750 C   0  0  0  0  0  0  0  0  0  0  0  0
    5.7610   -0.8050    0.9410 C   0  0  0  0  0  0  0  0  0  0  0  0
    4.8060    0.1570    0.7720 C   0  0  0  0  0  0  0  0  0  0  0  0
    3.7050   -0.0630   -0.0640 C   0  0  0  0  0  0  0  0  0  0  0  0
    0.7540   -1.3240    0.1680 C   0  0  0  0  0  0  0  0  0  0  0  0
    1.4130   -1.0460    1.1980 O   0  0  0  0  0  0  0  0  0  0  0  0
    0.0620   -1.4320   -2.4070 H   0  0  0  0  0  0  0  0  0  0  0  0
   -0.6050   -2.7570   -1.4900 H   0  0  0  0  0  0  0  0  0  0  0  0
    1.5010   -3.1990   -0.6060 H   0  0  0  0  0  0  0  0  0  0  0  0
    2.1010   -0.5450   -2.0860 H   0  0  0  0  0  0  0  0  0  0  0  0
    2.7930   -2.2090   -2.4330 H   0  0  0  0  0  0  0  0  0  0  0  0
    4.3970   -3.1570   -1.0960 H   0  0  0  0  0  0  0  0  0  0  0  0
    6.3520   -2.7770    0.3820 H   0  0  0  0  0  0  0  0  0  0  0  0
    6.5990   -0.6270    1.5810 H   0  0  0  0  0  0  0  0  0  0  0  0
    4.8860    1.1100    1.2840 H   0  0  0  0  0  0  0  0  0  0  0  0
    2.9620    0.7310   -0.1790 H   0  0  0  0  0  0  0  0  0  0  0  0
   -0.5470   -0.7580    0.0830 N   0  0  0  0  0  0  0  0  0  0  0  0
   -1.0680    0.0760    1.1100 C   0  0  1  0  0  0  0  0  0  0  0  0
   -1.4220    1.4660    0.6390 C   0  0  0  0  0  0  0  0  0  0  0  0
    0.0680    2.2400   -0.0050 S   0  0  0  0  0  0  0  0  0  0  0  0
   -2.3120   -0.5260    1.6400 C   0  0  0  0  0  0  0  0  0  0  0  0
   -2.7100   -1.6080    1.1510 O   0  0  0  0  0  0  0  0  0  0  0  0
   -1.1770   -0.9410   -0.7550 H   0  0  0  0  0  0  0  0  0  0  0  0
   -0.2950    0.1720    1.9160 H   0  0  0  0  0  0  0  0  0  0  0  0
   -1.7210    2.0360    1.5670 H   0  0  0  0  0  0  0  0  0  0  0  0
   -2.2760    1.4940   -0.0340 H   0  0  0  0  0  0  0  0  0  0  0  0
    0.8910    2.7050    1.0510 H   0  0  0  0  0  0  0  0  0  0  0  0
   -3.0820    0.0580    2.6770 N   0  0  0  0  0  0  0  0  0  0  0  0
   -4.2920   -0.5480    3.1770 C   0  0  0  0  0  0  0  0  0  0  0  0
   -4.8670    0.2880    4.2480 C   0  0  0  0  0  0  0  0  0  0  0  0
   -5.9230   -0.0730    4.8090 O   0  0  0  0  0  0  0  0  0  0  0  0
   -4.2380    1.4560    4.6200 O   0  0  0  0  0  0  0  0  0  0  0  0
   -2.7430    0.9520    3.0730 H   0  0  0  0  0  0  0  0  0  0  0  0
   -4.1050   -1.5910    3.5400 H   0  0  0  0  0  0  0  0  0  0  0  0
   -5.0380   -0.6640    2.3530 H   0  0  0  0  0  0  0  0  0  0  0  0
  1 13  1  0  0  0  0
  1  2  1  0  0  0  0
  2 14  1  1  0  0  0
  2 10  1  0  0  0  0
  3  2  1  0  0  0  0
  3  4  1  0  0  0  0
  4  5  2  0  0  0  0
  4  9  1  0  0  0  0
  5  6  1  0  0  0  0
  6 18  1  0  0  0  0
  6  7  2  0  0  0  0
  7 19  1  0  0  0  0
  8  7  1  0  0  0  0
  8 20  1  0  0  0  0
  9  8  2  0  0  0  0
 10 11  2  0  0  0  0
 12  1  1  0  0  0  0
 15  3  1  0  0  0  0
 16  3  1  0  0  0  0
 17  5  1  0  0  0  0
 21  9  1  0  0  0  0
 22 10  1  0  0  0  0
 22 23  1  0  0  0  0
 23 26  1  0  0  0  0
 23 29  1  1  0  0  0
 24 23  1  0  0  0  0
 24 30  1  0  0  0  0
 25 24  1  0  0  0  0
 25 32  1  0  0  0  0
 26 33  1  0  0  0  0
 27 26  2  0  0  0  0
 28 22  1  0  0  0  0
 31 24  1  0  0  0  0
 33 38  1  0  0  0  0
 33 34  1  0  0  0  0
 34 39  1  0  0  0  0
 34 35  1  0  0  0  0
 35 37  2  0  0  0  0
 35 36  1  0  0  0  0
 40 34  1  0  0  0  0
M  END
$$$$
