FCN.pdb
 OpenBabel07022418593D

 47 47  0  0  1  0  0  0  0  0999 V2000
    0.9930   -3.9610    3.1210 N   0  0  0  0  0  0  0  0  0  0  0  0
    1.3790   -2.5530    2.7850 C   0  0  1  0  0  0  0  0  0  0  0  0
    2.1860   -2.6460    1.5820 C   0  0  0  0  0  0  0  0  0  0  0  0
    2.7560   -1.4760    0.9550 C   0  0  0  0  0  0  0  0  0  0  0  0
    2.1720   -0.9450   -0.1730 C   0  0  0  0  0  0  0  0  0  0  0  0
    2.6420    0.1860   -0.8250 C   0  0  0  0  0  0  0  0  0  0  0  0
    3.7490    0.8360   -0.3460 C   0  0  0  0  0  0  0  0  0  0  0  0
    4.3500    0.3150    0.7890 C   0  0  0  0  0  0  0  0  0  0  0  0
    3.8730   -0.8030    1.4210 C   0  0  0  0  0  0  0  0  0  0  0  0
    0.1400   -1.8070    2.7390 C   0  0  0  0  0  0  0  0  0  0  0  0
   -0.9560   -2.4090    3.0540 O   0  0  0  0  0  0  0  0  0  0  0  0
    0.7010   -4.0240    4.1130 H   0  0  0  0  0  0  0  0  0  0  0  0
    1.8810   -4.5350    3.0330 H   0  0  0  0  0  0  0  0  0  0  0  0
    1.9870   -2.2910    3.7130 H   0  0  0  0  0  0  0  0  0  0  0  0
    1.5840   -3.1980    0.7880 H   0  0  0  0  0  0  0  0  0  0  0  0
    3.0470   -3.3800    1.7440 H   0  0  0  0  0  0  0  0  0  0  0  0
    1.3060   -1.4280   -0.6190 H   0  0  0  0  0  0  0  0  0  0  0  0
    2.1580    0.5720   -1.7100 H   0  0  0  0  0  0  0  0  0  0  0  0
    4.1380    1.7180   -0.8390 H   0  0  0  0  0  0  0  0  0  0  0  0
    5.2340    0.8720    1.1290 H   0  0  0  0  0  0  0  0  0  0  0  0
    4.3610   -1.1740    2.2840 H   0  0  0  0  0  0  0  0  0  0  0  0
   -0.0800   -0.4440    2.3960 N   0  0  0  0  0  0  0  0  0  0  0  0
   -1.3760    0.1700    2.4530 C   0  0  1  0  0  0  0  0  0  0  0  0
   -1.2790    1.3360    3.4180 C   0  0  0  0  0  0  0  0  0  0  0  0
   -0.0820    2.5730    2.9270 S   0  0  0  0  0  0  0  0  0  0  0  0
   -2.0350    0.5240    1.1990 C   0  0  0  0  0  0  0  0  0  0  0  0
   -3.1670    1.1270    1.2780 O   0  0  0  0  0  0  0  0  0  0  0  0
    0.7530    0.0940    2.1010 H   0  0  0  0  0  0  0  0  0  0  0  0
   -2.0950   -0.5560    2.9780 H   0  0  0  0  0  0  0  0  0  0  0  0
   -2.2690    1.8490    3.5170 H   0  0  0  0  0  0  0  0  0  0  0  0
   -1.0330    0.9980    4.4440 H   0  0  0  0  0  0  0  0  0  0  0  0
    0.4610    3.2130    4.0480 H   0  0  0  0  0  0  0  0  0  0  0  0
   -1.9920   -3.0070   -1.7940 N   0  0  0  0  0  0  0  0  0  0  0  0
   -1.7370   -1.7050   -2.2970 C   0  0  0  0  0  0  0  0  0  0  0  0
   -0.6870   -1.4960   -2.9410 O   0  0  0  0  0  0  0  0  0  0  0  0
   -2.7080   -0.6200   -2.0540 C   0  0  0  0  0  0  0  0  0  0  0  0
   -2.0950    0.5630   -1.3620 C   0  0  2  0  0  0  0  0  0  0  0  0
   -1.5410    0.2590   -0.0940 N   0  0  0  0  0  0  0  0  0  0  0  0
   -2.9620    1.7160   -1.5170 C   0  0  0  0  0  0  0  0  0  0  0  0
   -3.5370    1.8450   -2.6550 O   0  0  0  0  0  0  0  0  0  0  0  0
   -3.2200    2.6640   -0.5880 O   0  0  0  0  0  0  0  0  0  0  0  0
   -1.2640   -3.7720   -1.8450 H   0  0  0  0  0  0  0  0  0  0  0  0
   -2.9060   -3.2810   -1.3470 H   0  0  0  0  0  0  0  0  0  0  0  0
   -3.6180   -0.9920   -1.5760 H   0  0  0  0  0  0  0  0  0  0  0  0
   -3.0350   -0.2500   -3.0730 H   0  0  0  0  0  0  0  0  0  0  0  0
   -1.1740    0.8530   -2.0070 H   0  0  0  0  0  0  0  0  0  0  0  0
   -0.5880   -0.2580   -0.0480 H   0  0  0  0  0  0  0  0  0  0  0  0
  1 12  1  0  0  0  0
  2  1  1  0  0  0  0
  2 14  1  1  0  0  0
  3 16  1  0  0  0  0
  3  2  1  0  0  0  0
  4  9  1  0  0  0  0
  4  3  1  0  0  0  0
  5  4  2  0  0  0  0
  6  7  2  0  0  0  0
  6  5  1  0  0  0  0
  7  8  1  0  0  0  0
  8 20  1  0  0  0  0
  8  9  2  0  0  0  0
  9 21  1  0  0  0  0
 10  2  1  0  0  0  0
 10 11  2  0  0  0  0
 13  1  1  0  0  0  0
 15  3  1  0  0  0  0
 17  5  1  0  0  0  0
 18  6  1  0  0  0  0
 19  7  1  0  0  0  0
 22 23  1  0  0  0  0
 22 10  1  0  0  0  0
 23 29  1  1  0  0  0
 23 24  1  0  0  0  0
 24 30  1  0  0  0  0
 24 31  1  0  0  0  0
 25 24  1  0  0  0  0
 25 32  1  0  0  0  0
 26 27  2  0  0  0  0
 26 23  1  0  0  0  0
 28 22  1  0  0  0  0
 33 43  1  0  0  0  0
 34 36  1  0  0  0  0
 34 33  1  0  0  0  0
 35 34  2  0  0  0  0
 36 44  1  0  0  0  0
 36 37  1  0  0  0  0
 37 46  1  6  0  0  0
 37 38  1  0  0  0  0
 38 47  1  0  0  0  0
 38 26  1  0  0  0  0
 39 37  1  0  0  0  0
 39 41  1  0  0  0  0
 40 39  2  0  0  0  0
 42 33  1  0  0  0  0
 45 36  1  0  0  0  0
M  END
$$$$
