FCQ.pdb
 OpenBabel07022418593D

 50 50  0  0  1  0  0  0  0  0999 V2000
    2.5690   -1.3560    5.2110 N   0  0  0  0  0  0  0  0  0  0  0  0
    2.6930   -1.5310    3.7410 C   0  0  1  0  0  0  0  0  0  0  0  0
    2.4990   -3.0070    3.5120 C   0  0  0  0  0  0  0  0  0  0  0  0
    2.5850   -3.4460    2.1260 C   0  0  0  0  0  0  0  0  0  0  0  0
    1.4730   -3.5510    1.3200 C   0  0  0  0  0  0  0  0  0  0  0  0
    1.6100   -3.9790    0.0140 C   0  0  0  0  0  0  0  0  0  0  0  0
    2.8360   -4.3090   -0.5220 C   0  0  0  0  0  0  0  0  0  0  0  0
    3.9290   -4.1940    0.3040 C   0  0  0  0  0  0  0  0  0  0  0  0
    3.8400   -3.7750    1.6040 C   0  0  0  0  0  0  0  0  0  0  0  0
    1.6550   -0.6670    3.1640 C   0  0  0  0  0  0  0  0  0  0  0  0
    0.7640   -0.1100    3.8990 O   0  0  0  0  0  0  0  0  0  0  0  0
    3.2720   -1.9160    5.7050 H   0  0  0  0  0  0  0  0  0  0  0  0
    1.5880   -1.6740    5.4310 H   0  0  0  0  0  0  0  0  0  0  0  0
    3.7030   -1.1870    3.4540 H   0  0  0  0  0  0  0  0  0  0  0  0
    1.5050   -3.3160    3.9120 H   0  0  0  0  0  0  0  0  0  0  0  0
    3.2560   -3.6060    4.0940 H   0  0  0  0  0  0  0  0  0  0  0  0
    0.4940   -3.3010    1.7050 H   0  0  0  0  0  0  0  0  0  0  0  0
    0.7370   -4.0610   -0.6160 H   0  0  0  0  0  0  0  0  0  0  0  0
    2.9460   -4.6450   -1.5480 H   0  0  0  0  0  0  0  0  0  0  0  0
    4.9130   -4.4540   -0.1120 H   0  0  0  0  0  0  0  0  0  0  0  0
    4.7380   -3.6980    2.2270 H   0  0  0  0  0  0  0  0  0  0  0  0
    1.5330   -0.3610    1.7720 N   0  0  0  0  0  0  0  0  0  0  0  0
    0.4800    0.5130    1.2920 C   0  0  1  0  0  0  0  0  0  0  0  0
    1.1720    1.8220    0.9210 C   0  0  0  0  0  0  0  0  0  0  0  0
    1.9560    2.4400    2.4370 S   0  0  0  0  0  0  0  0  0  0  0  0
   -0.2600   -0.0470    0.1430 C   0  0  0  0  0  0  0  0  0  0  0  0
    0.0560   -1.1700   -0.3250 O   0  0  0  0  0  0  0  0  0  0  0  0
    2.2240   -0.7810    1.1110 H   0  0  0  0  0  0  0  0  0  0  0  0
   -0.1830    0.7960    2.1480 H   0  0  0  0  0  0  0  0  0  0  0  0
    0.4270    2.5720    0.6060 H   0  0  0  0  0  0  0  0  0  0  0  0
    1.9430    1.6820    0.1650 H   0  0  0  0  0  0  0  0  0  0  0  0
    2.9850    3.3550    2.1580 H   0  0  0  0  0  0  0  0  0  0  0  0
   -5.4890    2.9130   -0.7810 N   0  0  0  0  0  0  0  0  0  0  0  0
   -4.6790    1.8960   -1.4060 C   0  0  0  0  0  0  0  0  0  0  0  0
   -4.3190    2.1480   -2.5680 O   0  0  0  0  0  0  0  0  0  0  0  0
   -4.3640    0.6890   -0.6290 C   0  0  0  0  0  0  0  0  0  0  0  0
   -3.4740   -0.2990   -1.2450 C   0  0  0  0  0  0  0  0  0  0  0  0
   -2.0920    0.0970   -1.6200 C   0  0  2  0  0  0  0  0  0  0  0  0
   -1.3360    0.6100   -0.4880 N   0  0  0  0  0  0  0  0  0  0  0  0
   -1.9290    0.8250   -2.8650 C   0  0  0  0  0  0  0  0  0  0  0  0
   -2.4410    0.3320   -3.9180 O   0  0  0  0  0  0  0  0  0  0  0  0
   -1.2570    2.0260   -3.0160 O   0  0  0  0  0  0  0  0  0  0  0  0
   -5.1810    3.8870   -0.8670 H   0  0  0  0  0  0  0  0  0  0  0  0
   -6.3320    2.6230   -0.2830 H   0  0  0  0  0  0  0  0  0  0  0  0
   -4.0810    0.9530    0.4280 H   0  0  0  0  0  0  0  0  0  0  0  0
   -5.3750    0.1780   -0.4750 H   0  0  0  0  0  0  0  0  0  0  0  0
   -3.4840   -1.2480   -0.6190 H   0  0  0  0  0  0  0  0  0  0  0  0
   -3.9650   -0.6570   -2.2060 H   0  0  0  0  0  0  0  0  0  0  0  0
   -1.5680   -0.9280   -1.8030 H   0  0  0  0  0  0  0  0  0  0  0  0
   -1.6190    1.5420   -0.1210 H   0  0  0  0  0  0  0  0  0  0  0  0
  1 13  1  0  0  0  0
  1 12  1  0  0  0  0
  2 14  1  6  0  0  0
  2  1  1  0  0  0  0
  3  2  1  0  0  0  0
  3 15  1  0  0  0  0
  3 16  1  0  0  0  0
  4  3  1  0  0  0  0
  5 17  1  0  0  0  0
  5  4  2  0  0  0  0
  6  5  1  0  0  0  0
  7  6  2  0  0  0  0
  7  8  1  0  0  0  0
  8  9  2  0  0  0  0
  9  4  1  0  0  0  0
  9 21  1  0  0  0  0
 10  2  1  0  0  0  0
 10 11  2  0  0  0  0
 18  6  1  0  0  0  0
 19  7  1  0  0  0  0
 20  8  1  0  0  0  0
 22 10  1  0  0  0  0
 23 22  1  0  0  0  0
 23 29  1  1  0  0  0
 24 23  1  0  0  0  0
 24 25  1  0  0  0  0
 26 23  1  0  0  0  0
 27 26  2  0  0  0  0
 28 22  1  0  0  0  0
 30 24  1  0  0  0  0
 31 24  1  0  0  0  0
 32 25  1  0  0  0  0
 33 44  1  0  0  0  0
 34 33  1  0  0  0  0
 34 36  1  0  0  0  0
 35 34  2  0  0  0  0
 36 46  1  0  0  0  0
 36 45  1  0  0  0  0
 37 36  1  0  0  0  0
 37 47  1  0  0  0  0
 38 49  1  6  0  0  0
 38 37  1  0  0  0  0
 38 39  1  0  0  0  0
 39 50  1  0  0  0  0
 39 26  1  0  0  0  0
 40 38  1  0  0  0  0
 41 40  2  0  0  0  0
 42 40  1  0  0  0  0
 43 33  1  0  0  0  0
 48 37  1  0  0  0  0
M  END
$$$$
