FCW.pdb
 OpenBabel07022418593D

 57 59  0  0  1  0  0  0  0  0999 V2000
    2.0880   -0.4410    3.3780 N   0  0  0  0  0  0  0  0  0  0  0  0
    2.3440    0.5460    2.3640 C   0  0  1  0  0  0  0  0  0  0  0  0
    3.1930   -0.0780    1.2610 C   0  0  0  0  0  0  0  0  0  0  0  0
    4.4740   -0.5470    1.8280 C   0  0  0  0  0  0  0  0  0  0  0  0
    4.6130   -1.8320    2.3250 C   0  0  0  0  0  0  0  0  0  0  0  0
    5.7990   -2.2990    2.8630 C   0  0  0  0  0  0  0  0  0  0  0  0
    6.9010   -1.4730    2.9180 C   0  0  0  0  0  0  0  0  0  0  0  0
    6.7630   -0.1980    2.4250 C   0  0  0  0  0  0  0  0  0  0  0  0
    5.5870    0.2800    1.8870 C   0  0  0  0  0  0  0  0  0  0  0  0
    1.0300    0.9860    1.7940 C   0  0  0  0  0  0  0  0  0  0  0  0
    1.0630    1.8310    0.8890 O   0  0  0  0  0  0  0  0  0  0  0  0
    1.5180   -0.0240    4.1320 H   0  0  0  0  0  0  0  0  0  0  0  0
    1.5920   -1.2540    2.9840 H   0  0  0  0  0  0  0  0  0  0  0  0
    2.8250    1.4520    2.7480 H   0  0  0  0  0  0  0  0  0  0  0  0
    3.3450    0.6410    0.4250 H   0  0  0  0  0  0  0  0  0  0  0  0
    2.6720   -0.9540    0.8240 H   0  0  0  0  0  0  0  0  0  0  0  0
    3.7300   -2.4700    2.2720 H   0  0  0  0  0  0  0  0  0  0  0  0
    5.8530   -3.3170    3.2390 H   0  0  0  0  0  0  0  0  0  0  0  0
    7.8400   -1.8150    3.3340 H   0  0  0  0  0  0  0  0  0  0  0  0
    7.6350    0.4580    2.4690 H   0  0  0  0  0  0  0  0  0  0  0  0
    5.4950    1.2800    1.5050 H   0  0  0  0  0  0  0  0  0  0  0  0
   -0.1770    0.4580    2.2740 N   0  0  0  0  0  0  0  0  0  0  0  0
   -1.4440    0.8890    1.7210 C   0  0  1  0  0  0  0  0  0  0  0  0
   -1.5930    2.3610    2.0180 C   0  0  0  0  0  0  0  0  0  0  0  0
   -3.1580    2.9870    1.3740 S   0  0  0  0  0  0  0  0  0  0  0  0
   -1.4710    0.5350    0.3000 C   0  0  0  0  0  0  0  0  0  0  0  0
   -0.4390    0.0030   -0.2260 O   0  0  0  0  0  0  0  0  0  0  0  0
   -0.1830   -0.2470    3.0290 H   0  0  0  0  0  0  0  0  0  0  0  0
   -2.2870    0.3760    2.2460 H   0  0  0  0  0  0  0  0  0  0  0  0
   -0.7370    2.9790    1.7420 H   0  0  0  0  0  0  0  0  0  0  0  0
   -1.6650    2.4550    3.1420 H   0  0  0  0  0  0  0  0  0  0  0  0
   -3.6300    4.0650    2.1410 H   0  0  0  0  0  0  0  0  0  0  0  0
   -2.5530    0.7180   -0.5970 N   0  0  0  0  0  0  0  0  0  0  0  0
   -2.4760    0.3290   -2.0090 C   0  0  1  0  0  0  0  0  0  0  0  0
   -3.5930   -0.6070   -2.3760 C   0  0  0  0  0  0  0  0  0  0  0  0
   -3.5900   -1.8670   -1.5940 C   0  0  0  0  0  0  0  0  0  0  0  0
   -4.4170   -2.2110   -0.5360 C   0  0  0  0  0  0  0  0  0  0  0  0
   -4.0950   -3.4280   -0.1030 N   0  0  0  0  0  0  0  0  0  0  0  0
   -3.0880   -3.9300   -0.8170 C   0  0  0  0  0  0  0  0  0  0  0  0
   -2.4270   -5.1370   -0.7380 C   0  0  0  0  0  0  0  0  0  0  0  0
   -1.3870   -5.4330   -1.6150 C   0  0  0  0  0  0  0  0  0  0  0  0
   -1.0690   -4.4640   -2.5450 C   0  0  0  0  0  0  0  0  0  0  0  0
   -1.7380   -3.2550   -2.6170 C   0  0  0  0  0  0  0  0  0  0  0  0
   -2.7530   -2.9760   -1.7540 C   0  0  0  0  0  0  0  0  0  0  0  0
   -2.6200    1.5840   -2.7920 C   0  0  0  0  0  0  0  0  0  0  0  0
   -2.5870    1.4960   -4.0490 O   0  0  0  0  0  0  0  0  0  0  0  0
   -2.7870    2.8200   -2.2040 O   0  0  0  0  0  0  0  0  0  0  0  0
   -3.4290    1.1350   -0.2290 H   0  0  0  0  0  0  0  0  0  0  0  0
   -1.5260   -0.1430   -2.2540 H   0  0  0  0  0  0  0  0  0  0  0  0
   -3.5520   -0.8820   -3.4480 H   0  0  0  0  0  0  0  0  0  0  0  0
   -4.5580   -0.0970   -2.1570 H   0  0  0  0  0  0  0  0  0  0  0  0
   -5.2010   -1.5920   -0.1230 H   0  0  0  0  0  0  0  0  0  0  0  0
   -4.5590   -3.9470    0.6950 H   0  0  0  0  0  0  0  0  0  0  0  0
   -2.6720   -5.8980   -0.0130 H   0  0  0  0  0  0  0  0  0  0  0  0
   -0.8590   -6.3850   -1.5620 H   0  0  0  0  0  0  0  0  0  0  0  0
   -0.2580   -4.6670   -3.2480 H   0  0  0  0  0  0  0  0  0  0  0  0
   -1.4440   -2.5270   -3.3700 H   0  0  0  0  0  0  0  0  0  0  0  0
  1 12  1  0  0  0  0
  2 14  1  1  0  0  0
  2  1  1  0  0  0  0
  3  4  1  0  0  0  0
  3  2  1  0  0  0  0
  4  9  2  0  0  0  0
  4  5  1  0  0  0  0
  5  6  2  0  0  0  0
  6  7  1  0  0  0  0
  6 18  1  0  0  0  0
  7 19  1  0  0  0  0
  8 20  1  0  0  0  0
  8  7  2  0  0  0  0
  9  8  1  0  0  0  0
 10 22  1  0  0  0  0
 10  2  1  0  0  0  0
 11 10  2  0  0  0  0
 13  1  1  0  0  0  0
 15  3  1  0  0  0  0
 16  3  1  0  0  0  0
 17  5  1  0  0  0  0
 21  9  1  0  0  0  0
 22 28  1  0  0  0  0
 23 24  1  0  0  0  0
 23 29  1  1  0  0  0
 23 22  1  0  0  0  0
 24 31  1  0  0  0  0
 25 24  1  0  0  0  0
 25 32  1  0  0  0  0
 26 23  1  0  0  0  0
 27 26  2  0  0  0  0
 30 24  1  0  0  0  0
 33 48  1  0  0  0  0
 33 26  1  0  0  0  0
 34 49  1  6  0  0  0
 34 33  1  0  0  0  0
 35 51  1  0  0  0  0
 35 34  1  0  0  0  0
 35 36  1  0  0  0  0
 36 37  2  0  0  0  0
 37 52  1  0  0  0  0
 37 38  1  0  0  0  0
 38 53  1  0  0  0  0
 39 40  1  0  0  0  0
 39 38  1  0  0  0  0
 40 54  1  0  0  0  0
 41 55  1  0  0  0  0
 41 40  2  0  0  0  0
 42 41  1  0  0  0  0
 43 42  2  0  0  0  0
 43 44  1  0  0  0  0
 44 36  1  0  0  0  0
 44 39  2  0  0  0  0
 45 47  1  0  0  0  0
 45 34  1  0  0  0  0
 46 45  2  0  0  0  0
 50 35  1  0  0  0  0
 56 42  1  0  0  0  0
 57 43  1  0  0  0  0
M  END
$$$$
