FCY.pdb
 OpenBabel07022418593D

 54 55  0  0  1  0  0  0  0  0999 V2000
   -0.9170    1.4700    3.6590 N   0  0  0  0  0  0  0  0  0  0  0  0
   -0.4810    2.1220    2.4410 C   0  0  1  0  0  0  0  0  0  0  0  0
    0.6220    3.0980    2.8380 C   0  0  0  0  0  0  0  0  0  0  0  0
    1.7610    2.3510    3.4770 C   0  0  0  0  0  0  0  0  0  0  0  0
    2.7870    1.8710    2.7040 C   0  0  0  0  0  0  0  0  0  0  0  0
    3.8230    1.1890    3.3030 C   0  0  0  0  0  0  0  0  0  0  0  0
    3.8780    0.9630    4.6620 C   0  0  0  0  0  0  0  0  0  0  0  0
    2.8280    1.4620    5.4030 C   0  0  0  0  0  0  0  0  0  0  0  0
    1.7860    2.1440    4.8290 C   0  0  0  0  0  0  0  0  0  0  0  0
   -0.0120    1.1680    1.4280 C   0  0  0  0  0  0  0  0  0  0  0  0
    0.3810    1.6570    0.3270 O   0  0  0  0  0  0  0  0  0  0  0  0
   -1.4960    0.6220    3.4700 H   0  0  0  0  0  0  0  0  0  0  0  0
   -1.3230    2.1130    4.3430 H   0  0  0  0  0  0  0  0  0  0  0  0
   -1.3280    2.7160    2.0550 H   0  0  0  0  0  0  0  0  0  0  0  0
    0.2570    3.8360    3.5760 H   0  0  0  0  0  0  0  0  0  0  0  0
    1.0500    3.6140    1.9610 H   0  0  0  0  0  0  0  0  0  0  0  0
    2.7820    2.0290    1.6170 H   0  0  0  0  0  0  0  0  0  0  0  0
    4.6580    0.7930    2.7070 H   0  0  0  0  0  0  0  0  0  0  0  0
    4.6960    0.4230    5.1450 H   0  0  0  0  0  0  0  0  0  0  0  0
    2.8750    1.2800    6.4860 H   0  0  0  0  0  0  0  0  0  0  0  0
    0.9940    2.5110    5.4490 H   0  0  0  0  0  0  0  0  0  0  0  0
    0.0380   -0.2230    1.5740 N   0  0  0  0  0  0  0  0  0  0  0  0
    0.5240   -1.0530    0.4930 C   0  0  1  0  0  0  0  0  0  0  0  0
    1.7720   -1.7620    1.0400 C   0  0  0  0  0  0  0  0  0  0  0  0
    1.3740   -2.7660    2.4720 S   0  0  0  0  0  0  0  0  0  0  0  0
   -0.4790   -2.0510    0.0630 C   0  0  0  0  0  0  0  0  0  0  0  0
   -1.5940   -2.0850    0.6380 O   0  0  0  0  0  0  0  0  0  0  0  0
   -0.2730   -0.6610    2.4550 H   0  0  0  0  0  0  0  0  0  0  0  0
    0.8160   -0.4630   -0.3940 H   0  0  0  0  0  0  0  0  0  0  0  0
    2.3230   -2.2760    0.2580 H   0  0  0  0  0  0  0  0  0  0  0  0
    2.4380   -0.9230    1.4000 H   0  0  0  0  0  0  0  0  0  0  0  0
    1.2690   -1.8970    3.5940 H   0  0  0  0  0  0  0  0  0  0  0  0
   -3.6590    1.3400   -3.9480 O   0  0  0  0  0  0  0  0  0  0  0  0
   -3.1670    0.0740   -3.6760 C   0  0  0  0  0  0  0  0  0  0  0  0
   -1.7900   -0.1680   -3.7460 C   0  0  0  0  0  0  0  0  0  0  0  0
   -1.2830   -1.4170   -3.4810 C   0  0  0  0  0  0  0  0  0  0  0  0
   -2.1240   -2.4470   -3.1430 C   0  0  0  0  0  0  0  0  0  0  0  0
   -1.5580   -3.7840   -2.8610 C   0  0  0  0  0  0  0  0  0  0  0  0
   -1.2100   -3.9620   -1.4060 C   0  0  2  0  0  0  0  0  0  0  0  0
   -0.2230   -2.9770   -0.9810 N   0  0  0  0  0  0  0  0  0  0  0  0
   -0.6530   -5.3050   -1.1750 C   0  0  0  0  0  0  0  0  0  0  0  0
   -1.3370   -6.3230   -1.4710 O   0  0  0  0  0  0  0  0  0  0  0  0
   -3.5080   -2.2600   -3.0580 C   0  0  0  0  0  0  0  0  0  0  0  0
   -3.9690   -0.9890   -3.3340 C   0  0  0  0  0  0  0  0  0  0  0  0
    0.6070   -5.5160   -0.6390 O   0  0  0  0  0  0  0  0  0  0  0  0
   -4.1820    1.8170   -3.2350 H   0  0  0  0  0  0  0  0  0  0  0  0
   -1.1710    0.6830   -4.0180 H   0  0  0  0  0  0  0  0  0  0  0  0
   -0.2240   -1.5740   -3.5420 H   0  0  0  0  0  0  0  0  0  0  0  0
   -0.6440   -3.9670   -3.4470 H   0  0  0  0  0  0  0  0  0  0  0  0
   -2.3270   -4.5400   -3.1050 H   0  0  0  0  0  0  0  0  0  0  0  0
   -2.1170   -3.8070   -0.7650 H   0  0  0  0  0  0  0  0  0  0  0  0
    0.7210   -2.9120   -1.4340 H   0  0  0  0  0  0  0  0  0  0  0  0
   -4.1870   -3.0570   -2.7940 H   0  0  0  0  0  0  0  0  0  0  0  0
   -5.0500   -0.7830   -3.2830 H   0  0  0  0  0  0  0  0  0  0  0  0
  1 13  1  0  0  0  0
  2 14  1  6  0  0  0
  2  3  1  0  0  0  0
  2  1  1  0  0  0  0
  3  4  1  0  0  0  0
  3 15  1  0  0  0  0
  4  9  1  0  0  0  0
  5  6  1  0  0  0  0
  5  4  2  0  0  0  0
  6  7  2  0  0  0  0
  7 19  1  0  0  0  0
  7  8  1  0  0  0  0
  8 20  1  0  0  0  0
  9  8  2  0  0  0  0
  9 21  1  0  0  0  0
 10 22  1  0  0  0  0
 10  2  1  0  0  0  0
 11 10  2  0  0  0  0
 12  1  1  0  0  0  0
 16  3  1  0  0  0  0
 17  5  1  0  0  0  0
 18  6  1  0  0  0  0
 22 28  1  0  0  0  0
 23 29  1  6  0  0  0
 23 24  1  0  0  0  0
 23 22  1  0  0  0  0
 24 31  1  0  0  0  0
 24 25  1  0  0  0  0
 25 32  1  0  0  0  0
 26 23  1  0  0  0  0
 26 27  2  0  0  0  0
 30 24  1  0  0  0  0
 33 34  1  0  0  0  0
 33 46  1  0  0  0  0
 34 44  1  0  0  0  0
 35 34  2  0  0  0  0
 35 36  1  0  0  0  0
 36 37  2  0  0  0  0
 37 43  1  0  0  0  0
 37 38  1  0  0  0  0
 38 39  1  0  0  0  0
 39 41  1  0  0  0  0
 39 40  1  0  0  0  0
 39 51  1  1  0  0  0
 40 26  1  0  0  0  0
 41 45  1  0  0  0  0
 42 41  2  0  0  0  0
 43 53  1  0  0  0  0
 44 54  1  0  0  0  0
 44 43  2  0  0  0  0
 47 35  1  0  0  0  0
 48 36  1  0  0  0  0
 49 38  1  0  0  0  0
 50 38  1  0  0  0  0
 52 40  1  0  0  0  0
M  END
$$$$
