FDD.pdb
 OpenBabel07022418583D

 48 48  0  0  1  0  0  0  0  0999 V2000
    4.1160   -0.2130    0.6210 N   0  0  0  0  0  0  0  0  0  0  0  0
    2.8150    0.1450    1.1480 C   0  0  1  0  0  0  0  0  0  0  0  0
    2.2930    1.2740    0.2830 C   0  0  0  0  0  0  0  0  0  0  0  0
    3.2670    2.3920    0.3950 C   0  0  0  0  0  0  0  0  0  0  0  0
    4.3360    2.5060   -0.4700 C   0  0  0  0  0  0  0  0  0  0  0  0
    5.2470    3.5470   -0.3720 C   0  0  0  0  0  0  0  0  0  0  0  0
    5.1110    4.5110    0.6050 C   0  0  0  0  0  0  0  0  0  0  0  0
    4.0540    4.4180    1.4790 C   0  0  0  0  0  0  0  0  0  0  0  0
    3.1520    3.3730    1.3680 C   0  0  0  0  0  0  0  0  0  0  0  0
    1.9300   -1.0430    1.1010 C   0  0  0  0  0  0  0  0  0  0  0  0
    2.3550   -2.1370    0.6440 O   0  0  0  0  0  0  0  0  0  0  0  0
    4.0690   -1.1170    0.0670 H   0  0  0  0  0  0  0  0  0  0  0  0
    4.7360   -0.4340    1.4300 H   0  0  0  0  0  0  0  0  0  0  0  0
    2.9550    0.5470    2.1540 H   0  0  0  0  0  0  0  0  0  0  0  0
    2.2580    0.9800   -0.7960 H   0  0  0  0  0  0  0  0  0  0  0  0
    1.2630    1.5770    0.5490 H   0  0  0  0  0  0  0  0  0  0  0  0
    4.4640    1.7760   -1.2320 H   0  0  0  0  0  0  0  0  0  0  0  0
    6.0950    3.6520   -1.0450 H   0  0  0  0  0  0  0  0  0  0  0  0
    5.8310    5.3290    0.6790 H   0  0  0  0  0  0  0  0  0  0  0  0
    3.9310    5.1650    2.2520 H   0  0  0  0  0  0  0  0  0  0  0  0
    2.3130    3.2750    2.0400 H   0  0  0  0  0  0  0  0  0  0  0  0
    0.5810   -1.0260    1.5570 N   0  0  0  0  0  0  0  0  0  0  0  0
   -0.2880   -2.1660    1.5180 C   0  0  1  0  0  0  0  0  0  0  0  0
   -0.7030   -2.5790    2.9130 C   0  0  0  0  0  0  0  0  0  0  0  0
   -1.4240   -1.5330    3.6430 C   0  0  0  0  0  0  0  0  0  0  0  0
   -1.7910   -1.8020    4.8190 O   0  0  0  0  0  0  0  0  0  0  0  0
   -1.5060   -1.9290    0.6970 C   0  0  0  0  0  0  0  0  0  0  0  0
   -1.6220   -0.7980    0.1610 O   0  0  0  0  0  0  0  0  0  0  0  0
   -1.7430   -0.2740    3.1680 O   0  0  0  0  0  0  0  0  0  0  0  0
    0.2270   -0.1220    1.9360 H   0  0  0  0  0  0  0  0  0  0  0  0
    0.2020   -3.0650    1.0770 H   0  0  0  0  0  0  0  0  0  0  0  0
   -1.2930   -3.5260    2.8240 H   0  0  0  0  0  0  0  0  0  0  0  0
    0.2490   -2.8710    3.4370 H   0  0  0  0  0  0  0  0  0  0  0  0
   -2.0500    0.4420    3.7970 H   0  0  0  0  0  0  0  0  0  0  0  0
   -2.5050   -2.9150    0.5100 N   0  0  0  0  0  0  0  0  0  0  0  0
   -3.7140   -2.6670   -0.3100 C   0  0  1  0  0  0  0  0  0  0  0  0
   -3.7280   -3.5990   -1.4750 C   0  0  0  0  0  0  0  0  0  0  0  0
   -4.8760   -3.3820   -2.3640 C   0  0  0  0  0  0  0  0  0  0  0  0
   -5.6460   -2.4100   -2.1860 O   0  0  0  0  0  0  0  0  0  0  0  0
   -4.9050   -2.7490    0.5640 C   0  0  0  0  0  0  0  0  0  0  0  0
   -6.0930   -2.5840    0.2550 O   0  0  0  0  0  0  0  0  0  0  0  0
   -5.1550   -4.2410   -3.4370 O   0  0  0  0  0  0  0  0  0  0  0  0
   -4.6730   -3.0510    1.9220 O   0  0  0  0  0  0  0  0  0  0  0  0
   -2.3620   -3.8370    0.9750 H   0  0  0  0  0  0  0  0  0  0  0  0
   -3.6290   -1.6310   -0.6740 H   0  0  0  0  0  0  0  0  0  0  0  0
   -2.8120   -3.4550   -2.1210 H   0  0  0  0  0  0  0  0  0  0  0  0
   -3.6380   -4.6760   -1.1600 H   0  0  0  0  0  0  0  0  0  0  0  0
   -5.6580   -3.8390   -4.2340 H   0  0  0  0  0  0  0  0  0  0  0  0
  1  2  1  0  0  0  0
  1 13  1  0  0  0  0
  2 14  1  1  0  0  0
  3  4  1  0  0  0  0
  3 16  1  0  0  0  0
  3  2  1  0  0  0  0
  4  9  1  0  0  0  0
  5  6  1  0  0  0  0
  5  4  2  0  0  0  0
  6  7  2  0  0  0  0
  7 19  1  0  0  0  0
  7  8  1  0  0  0  0
  8 20  1  0  0  0  0
  9  8  2  0  0  0  0
  9 21  1  0  0  0  0
 10  2  1  0  0  0  0
 10 22  1  0  0  0  0
 11 10  2  0  0  0  0
 12  1  1  0  0  0  0
 15  3  1  0  0  0  0
 17  5  1  0  0  0  0
 18  6  1  0  0  0  0
 22 30  1  0  0  0  0
 23 31  1  6  0  0  0
 23 22  1  0  0  0  0
 23 24  1  0  0  0  0
 24 33  1  0  0  0  0
 24 25  1  0  0  0  0
 25 26  2  0  0  0  0
 27 23  1  0  0  0  0
 28 27  2  0  0  0  0
 29 25  1  0  0  0  0
 29 34  1  0  0  0  0
 32 24  1  0  0  0  0
 35 27  1  0  0  0  0
 35 44  1  0  0  0  0
 36 45  1  6  0  0  0
 36 35  1  0  0  0  0
 36 40  1  0  0  0  0
 37 47  1  0  0  0  0
 37 36  1  0  0  0  0
 38 39  2  0  0  0  0
 38 37  1  0  0  0  0
 40 43  1  0  0  0  0
 41 40  2  0  0  0  0
 42 38  1  0  0  0  0
 46 37  1  0  0  0  0
 48 42  1  0  0  0  0
M  END
$$$$
