FDG.pdb
 OpenBabel07022418583D

 42 42  0  0  1  0  0  0  0  0999 V2000
    0.7000   -3.2760   -0.1820 N   0  0  0  0  0  0  0  0  0  0  0  0
    1.9020   -2.4930   -0.2370 C   0  0  1  0  0  0  0  0  0  0  0  0
    2.4240   -2.2570   -1.6010 C   0  0  0  0  0  0  0  0  0  0  0  0
    1.5680   -1.5620   -2.5340 C   0  0  0  0  0  0  0  0  0  0  0  0
    0.7020   -2.3350   -3.3200 C   0  0  0  0  0  0  0  0  0  0  0  0
   -0.1430   -1.7320   -4.2330 C   0  0  0  0  0  0  0  0  0  0  0  0
   -0.1130   -0.3530   -4.3490 C   0  0  0  0  0  0  0  0  0  0  0  0
    0.7440    0.4160   -3.5710 C   0  0  0  0  0  0  0  0  0  0  0  0
    1.5840   -0.1900   -2.6630 C   0  0  0  0  0  0  0  0  0  0  0  0
    1.7780   -1.2350    0.5780 C   0  0  0  0  0  0  0  0  0  0  0  0
    2.7160   -0.4070    0.6670 O   0  0  0  0  0  0  0  0  0  0  0  0
    0.4790   -3.6130    0.7700 H   0  0  0  0  0  0  0  0  0  0  0  0
    0.8610   -4.1240   -0.7680 H   0  0  0  0  0  0  0  0  0  0  0  0
    2.6770   -3.0990    0.3060 H   0  0  0  0  0  0  0  0  0  0  0  0
    3.3810   -1.6830   -1.5030 H   0  0  0  0  0  0  0  0  0  0  0  0
    2.7150   -3.2390   -2.0320 H   0  0  0  0  0  0  0  0  0  0  0  0
    0.6720   -3.4120   -3.2350 H   0  0  0  0  0  0  0  0  0  0  0  0
   -0.8220   -2.3060   -4.8530 H   0  0  0  0  0  0  0  0  0  0  0  0
   -0.7670    0.1220   -5.0570 H   0  0  0  0  0  0  0  0  0  0  0  0
    0.7730    1.5020   -3.6580 H   0  0  0  0  0  0  0  0  0  0  0  0
    2.2760    0.3370   -2.0250 H   0  0  0  0  0  0  0  0  0  0  0  0
    0.5900   -0.9270    1.2850 N   0  0  0  0  0  0  0  0  0  0  0  0
    0.4970    0.3460    2.0960 C   0  0  1  0  0  0  0  0  0  0  0  0
   -0.6310    1.0680    1.4450 C   0  0  0  0  0  0  0  0  0  0  0  0
   -0.9590    2.3820    1.9670 C   0  0  0  0  0  0  0  0  0  0  0  0
   -0.3000    3.0070    2.8130 O   0  0  0  0  0  0  0  0  0  0  0  0
    0.2970   -0.0520    3.4950 C   0  0  0  0  0  0  0  0  0  0  0  0
   -0.1040   -1.2660    3.6770 O   0  0  0  0  0  0  0  0  0  0  0  0
   -2.1130    3.0750    1.5250 O   0  0  0  0  0  0  0  0  0  0  0  0
   -0.2130   -1.5780    1.2430 H   0  0  0  0  0  0  0  0  0  0  0  0
    1.4540    0.8410    1.9790 H   0  0  0  0  0  0  0  0  0  0  0  0
   -0.3430    1.2220    0.3530 H   0  0  0  0  0  0  0  0  0  0  0  0
   -1.5480    0.4200    1.3530 H   0  0  0  0  0  0  0  0  0  0  0  0
   -2.0910    4.0950    1.4820 H   0  0  0  0  0  0  0  0  0  0  0  0
    0.4890    0.7050    4.6520 N   0  0  0  0  0  0  0  0  0  0  0  0
    0.2110    0.1000    5.9750 C   0  0  0  0  0  0  0  0  0  0  0  0
   -1.2110   -0.3070    6.0680 C   0  0  0  0  0  0  0  0  0  0  0  0
   -1.9610   -0.0970    5.1010 O   0  0  0  0  0  0  0  0  0  0  0  0
   -1.7000   -0.9110    7.2110 O   0  0  0  0  0  0  0  0  0  0  0  0
    0.8480    1.6680    4.5910 H   0  0  0  0  0  0  0  0  0  0  0  0
    0.8710   -0.8000    6.0440 H   0  0  0  0  0  0  0  0  0  0  0  0
    0.4360    0.8310    6.7550 H   0  0  0  0  0  0  0  0  0  0  0  0
  1 12  1  0  0  0  0
  2  1  1  0  0  0  0
  2 14  1  1  0  0  0
  2 10  1  0  0  0  0
  3 15  1  0  0  0  0
  3  2  1  0  0  0  0
  4  3  1  0  0  0  0
  5 17  1  0  0  0  0
  5  4  2  0  0  0  0
  6  5  1  0  0  0  0
  7  6  2  0  0  0  0
  7  8  1  0  0  0  0
  8  9  2  0  0  0  0
  9  4  1  0  0  0  0
  9 21  1  0  0  0  0
 10 11  2  0  0  0  0
 10 22  1  0  0  0  0
 13  1  1  0  0  0  0
 16  3  1  0  0  0  0
 18  6  1  0  0  0  0
 19  7  1  0  0  0  0
 20  8  1  0  0  0  0
 22 23  1  0  0  0  0
 23 31  1  6  0  0  0
 23 27  1  0  0  0  0
 24 25  1  0  0  0  0
 24 23  1  0  0  0  0
 25 26  2  0  0  0  0
 27 28  2  0  0  0  0
 27 35  1  0  0  0  0
 29 25  1  0  0  0  0
 30 22  1  0  0  0  0
 32 24  1  0  0  0  0
 33 24  1  0  0  0  0
 34 29  1  0  0  0  0
 35 36  1  0  0  0  0
 36 41  1  0  0  0  0
 36 37  1  0  0  0  0
 36 42  1  0  0  0  0
 37 39  1  0  0  0  0
 38 37  2  0  0  0  0
 40 35  1  0  0  0  0
M  END
$$$$
