FDI.pdb
 OpenBabel07022418583D

 54 54  0  0  1  0  0  0  0  0999 V2000
    0.4480    1.5680   -1.0280 N   0  0  0  0  0  0  0  0  0  0  0  0
    1.7450    1.0890   -0.5180 C   0  0  1  0  0  0  0  0  0  0  0  0
    2.6100    2.2440   -0.1230 C   0  0  0  0  0  0  0  0  0  0  0  0
    3.9120    1.7960    0.3930 C   0  0  0  0  0  0  0  0  0  0  0  0
    4.9670    1.5630   -0.4790 C   0  0  0  0  0  0  0  0  0  0  0  0
    6.2000    1.1600   -0.0230 C   0  0  0  0  0  0  0  0  0  0  0  0
    6.3600    0.9910    1.3350 C   0  0  0  0  0  0  0  0  0  0  0  0
    5.3140    1.2220    2.2030 C   0  0  0  0  0  0  0  0  0  0  0  0
    4.0730    1.6270    1.7640 C   0  0  0  0  0  0  0  0  0  0  0  0
    1.5330    0.1690    0.6210 C   0  0  0  0  0  0  0  0  0  0  0  0
    2.4390   -0.4770    1.1980 O   0  0  0  0  0  0  0  0  0  0  0  0
   -0.0110    0.7050   -1.4330 H   0  0  0  0  0  0  0  0  0  0  0  0
    0.6970    2.1730   -1.8500 H   0  0  0  0  0  0  0  0  0  0  0  0
    2.2410    0.5830   -1.3840 H   0  0  0  0  0  0  0  0  0  0  0  0
    2.0730    2.8400    0.6470 H   0  0  0  0  0  0  0  0  0  0  0  0
    2.7600    2.8900   -1.0250 H   0  0  0  0  0  0  0  0  0  0  0  0
    4.8430    1.6960   -1.5600 H   0  0  0  0  0  0  0  0  0  0  0  0
    7.0350    0.9760   -0.7210 H   0  0  0  0  0  0  0  0  0  0  0  0
    7.3290    0.6730    1.7090 H   0  0  0  0  0  0  0  0  0  0  0  0
    5.4470    1.0860    3.2900 H   0  0  0  0  0  0  0  0  0  0  0  0
    3.2600    1.8070    2.4560 H   0  0  0  0  0  0  0  0  0  0  0  0
    0.2130   -0.0460    1.1560 N   0  0  0  0  0  0  0  0  0  0  0  0
   -0.0500   -0.9300    2.2640 C   0  0  1  0  0  0  0  0  0  0  0  0
   -0.5470   -0.2460    3.5000 C   0  0  0  0  0  0  0  0  0  0  0  0
   -1.7980    0.5110    3.3420 C   0  0  0  0  0  0  0  0  0  0  0  0
   -2.3630    0.5890    2.2340 O   0  0  0  0  0  0  0  0  0  0  0  0
   -0.8970   -2.0460    1.8030 C   0  0  0  0  0  0  0  0  0  0  0  0
   -1.3060   -2.8950    2.6340 O   0  0  0  0  0  0  0  0  0  0  0  0
   -2.3400    1.1350    4.4460 O   0  0  0  0  0  0  0  0  0  0  0  0
   -0.5840    0.4600    0.7240 H   0  0  0  0  0  0  0  0  0  0  0  0
    0.9440   -1.4080    2.6000 H   0  0  0  0  0  0  0  0  0  0  0  0
   -0.6630   -1.0470    4.2870 H   0  0  0  0  0  0  0  0  0  0  0  0
    0.2570    0.4150    3.9360 H   0  0  0  0  0  0  0  0  0  0  0  0
   -3.2650    1.5390    4.4710 H   0  0  0  0  0  0  0  0  0  0  0  0
   -5.1630   -1.1660   -0.8760 C   0  0  0  0  0  0  0  0  0  0  0  0
   -4.0370   -1.7820   -0.0520 C   0  0  0  0  0  0  0  0  0  0  0  0
   -3.1660   -2.6570   -0.9140 C   0  0  2  0  0  0  0  0  0  0  0  0
   -4.0500   -3.7490   -1.4870 C   0  0  0  0  0  0  0  0  0  0  0  0
   -2.0510   -3.2310   -0.0930 C   0  0  2  0  0  0  0  0  0  0  0  0
   -1.2470   -2.1770    0.4560 N   0  0  0  0  0  0  0  0  0  0  0  0
   -1.1680   -4.1060   -0.9340 C   0  0  0  0  0  0  0  0  0  0  0  0
    0.0640   -3.8620   -1.0660 O   0  0  0  0  0  0  0  0  0  0  0  0
   -1.7750   -5.1900   -1.5550 O   0  0  0  0  0  0  0  0  0  0  0  0
   -4.8040   -0.9030   -1.8760 H   0  0  0  0  0  0  0  0  0  0  0  0
   -5.4450   -0.2230   -0.3400 H   0  0  0  0  0  0  0  0  0  0  0  0
   -6.0600   -1.7930   -0.8830 H   0  0  0  0  0  0  0  0  0  0  0  0
   -4.4390   -2.3670    0.7790 H   0  0  0  0  0  0  0  0  0  0  0  0
   -3.3950   -0.9290    0.2710 H   0  0  0  0  0  0  0  0  0  0  0  0
   -2.8000   -2.0390   -1.7510 H   0  0  0  0  0  0  0  0  0  0  0  0
   -3.6210   -4.0890   -2.4690 H   0  0  0  0  0  0  0  0  0  0  0  0
   -5.0430   -3.3350   -1.7350 H   0  0  0  0  0  0  0  0  0  0  0  0
   -4.1750   -4.5840   -0.7960 H   0  0  0  0  0  0  0  0  0  0  0  0
   -2.4350   -3.8250    0.7690 H   0  0  0  0  0  0  0  0  0  0  0  0
   -0.8950   -1.4490   -0.2180 H   0  0  0  0  0  0  0  0  0  0  0  0
  1  2  1  0  0  0  0
  2 14  1  6  0  0  0
  2  3  1  0  0  0  0
  2 10  1  0  0  0  0
  3  4  1  0  0  0  0
  3 15  1  0  0  0  0
  4  9  1  0  0  0  0
  5  6  1  0  0  0  0
  5  4  2  0  0  0  0
  6  7  2  0  0  0  0
  7 19  1  0  0  0  0
  7  8  1  0  0  0  0
  8 20  1  0  0  0  0
  9  8  2  0  0  0  0
  9 21  1  0  0  0  0
 10 22  1  0  0  0  0
 10 11  2  0  0  0  0
 12  1  1  0  0  0  0
 13  1  1  0  0  0  0
 16  3  1  0  0  0  0
 17  5  1  0  0  0  0
 18  6  1  0  0  0  0
 22 23  1  0  0  0  0
 23 31  1  1  0  0  0
 23 24  1  0  0  0  0
 24 33  1  0  0  0  0
 24 32  1  0  0  0  0
 25 24  1  0  0  0  0
 25 29  1  0  0  0  0
 26 25  2  0  0  0  0
 27 23  1  0  0  0  0
 27 28  2  0  0  0  0
 29 34  1  0  0  0  0
 30 22  1  0  0  0  0
 35 45  1  0  0  0  0
 35 36  1  0  0  0  0
 36 48  1  0  0  0  0
 36 47  1  0  0  0  0
 37 49  1  6  0  0  0
 37 39  1  0  0  0  0
 37 36  1  0  0  0  0
 38 37  1  0  0  0  0
 38 52  1  0  0  0  0
 39 40  1  0  0  0  0
 39 53  1  1  0  0  0
 40 27  1  0  0  0  0
 41 39  1  0  0  0  0
 42 41  1  0  0  0  0
 43 41  2  0  0  0  0
 44 35  1  0  0  0  0
 46 35  1  0  0  0  0
 50 38  1  0  0  0  0
 51 38  1  0  0  0  0
 54 40  1  0  0  0  0
M  END
$$$$
