FDM.pdb
 OpenBabel07022418583D

 52 52  0  0  1  0  0  0  0  0999 V2000
    3.9720   -1.5730    1.5400 N   0  0  0  0  0  0  0  0  0  0  0  0
    2.8130   -0.7040    1.4670 C   0  0  1  0  0  0  0  0  0  0  0  0
    2.7950    0.0240    0.1510 C   0  0  0  0  0  0  0  0  0  0  0  0
    4.0440    0.8310    0.0570 C   0  0  0  0  0  0  0  0  0  0  0  0
    5.2020    0.3470   -0.4950 C   0  0  0  0  0  0  0  0  0  0  0  0
    6.3340    1.1420   -0.5540 C   0  0  0  0  0  0  0  0  0  0  0  0
    6.3580    2.4350   -0.0700 C   0  0  0  0  0  0  0  0  0  0  0  0
    5.1860    2.9310    0.4920 C   0  0  0  0  0  0  0  0  0  0  0  0
    4.0590    2.1260    0.5450 C   0  0  0  0  0  0  0  0  0  0  0  0
    1.5990   -1.5100    1.7050 C   0  0  0  0  0  0  0  0  0  0  0  0
    1.6790   -2.7450    1.9530 O   0  0  0  0  0  0  0  0  0  0  0  0
    4.0120   -2.1120    0.6280 H   0  0  0  0  0  0  0  0  0  0  0  0
    3.7540   -2.3000    2.2620 H   0  0  0  0  0  0  0  0  0  0  0  0
    2.9630    0.0750    2.2520 H   0  0  0  0  0  0  0  0  0  0  0  0
    1.9350    0.7550    0.2130 H   0  0  0  0  0  0  0  0  0  0  0  0
    2.6370   -0.6280   -0.7200 H   0  0  0  0  0  0  0  0  0  0  0  0
    5.1990   -0.6720   -0.8810 H   0  0  0  0  0  0  0  0  0  0  0  0
    7.2480    0.7490   -0.9950 H   0  0  0  0  0  0  0  0  0  0  0  0
    7.2450    3.0590   -0.1160 H   0  0  0  0  0  0  0  0  0  0  0  0
    5.2150    3.9390    0.8670 H   0  0  0  0  0  0  0  0  0  0  0  0
    3.1340    2.5190    0.9890 H   0  0  0  0  0  0  0  0  0  0  0  0
    0.2850   -0.9640    1.6740 N   0  0  0  0  0  0  0  0  0  0  0  0
   -0.9050   -1.7350    1.9040 C   0  0  1  0  0  0  0  0  0  0  0  0
   -1.5570   -1.3200    3.1570 C   0  0  0  0  0  0  0  0  0  0  0  0
   -1.9490    0.0810    3.2960 C   0  0  0  0  0  0  0  0  0  0  0  0
   -1.6930    1.0190    2.5190 O   0  0  0  0  0  0  0  0  0  0  0  0
   -1.7240   -1.9210    0.6970 C   0  0  0  0  0  0  0  0  0  0  0  0
   -1.3020   -1.4450   -0.3810 O   0  0  0  0  0  0  0  0  0  0  0  0
   -2.7050    0.4240    4.4370 O   0  0  0  0  0  0  0  0  0  0  0  0
    0.2150    0.0570    1.4690 H   0  0  0  0  0  0  0  0  0  0  0  0
   -0.5660   -2.8320    2.1270 H   0  0  0  0  0  0  0  0  0  0  0  0
   -2.4270   -1.9530    3.4520 H   0  0  0  0  0  0  0  0  0  0  0  0
   -0.8100   -1.5280    3.9900 H   0  0  0  0  0  0  0  0  0  0  0  0
   -2.9020    1.4000    4.6420 H   0  0  0  0  0  0  0  0  0  0  0  0
   -3.0110    1.2320   -0.5550 C   0  0  0  0  0  0  0  0  0  0  0  0
   -4.1130    0.1930    0.4830 S   0  0  0  0  0  0  0  0  0  0  0  0
   -5.0830   -0.8050   -0.6540 C   0  0  0  0  0  0  0  0  0  0  0  0
   -4.2940   -1.8700   -1.3140 C   0  0  0  0  0  0  0  0  0  0  0  0
   -3.8200   -2.9000   -0.3680 C   0  0  2  0  0  0  0  0  0  0  0  0
   -2.9630   -2.6210    0.7000 N   0  0  0  0  0  0  0  0  0  0  0  0
   -3.4190   -4.1690   -1.0980 C   0  0  0  0  0  0  0  0  0  0  0  0
   -2.4160   -4.7770   -0.6860 O   0  0  0  0  0  0  0  0  0  0  0  0
   -4.1210   -4.6500   -2.1790 O   0  0  0  0  0  0  0  0  0  0  0  0
   -2.0110    1.1650   -0.1450 H   0  0  0  0  0  0  0  0  0  0  0  0
   -3.0590    0.9220   -1.6170 H   0  0  0  0  0  0  0  0  0  0  0  0
   -3.3990    2.2890   -0.4710 H   0  0  0  0  0  0  0  0  0  0  0  0
   -5.9780   -1.2410   -0.1080 H   0  0  0  0  0  0  0  0  0  0  0  0
   -5.4930   -0.0760   -1.4250 H   0  0  0  0  0  0  0  0  0  0  0  0
   -5.0010   -2.4040   -2.0280 H   0  0  0  0  0  0  0  0  0  0  0  0
   -3.5010   -1.4750   -1.9910 H   0  0  0  0  0  0  0  0  0  0  0  0
   -4.8180   -3.2530    0.1240 H   0  0  0  0  0  0  0  0  0  0  0  0
   -3.2320   -2.9650    1.6840 H   0  0  0  0  0  0  0  0  0  0  0  0
  1 13  1  0  0  0  0
  2  1  1  0  0  0  0
  2 10  1  0  0  0  0
  2 14  1  1  0  0  0
  3 15  1  0  0  0  0
  3  2  1  0  0  0  0
  4  3  1  0  0  0  0
  4  9  1  0  0  0  0
  5  4  2  0  0  0  0
  6  5  1  0  0  0  0
  6  7  2  0  0  0  0
  7  8  1  0  0  0  0
  8  9  2  0  0  0  0
  8 20  1  0  0  0  0
  9 21  1  0  0  0  0
 10 11  2  0  0  0  0
 12  1  1  0  0  0  0
 16  3  1  0  0  0  0
 17  5  1  0  0  0  0
 18  6  1  0  0  0  0
 19  7  1  0  0  0  0
 22 10  1  0  0  0  0
 22 23  1  0  0  0  0
 23 31  1  1  0  0  0
 23 24  1  0  0  0  0
 24 25  1  0  0  0  0
 24 32  1  0  0  0  0
 24 33  1  0  0  0  0
 25 29  1  0  0  0  0
 26 25  2  0  0  0  0
 27 40  1  0  0  0  0
 27 23  1  0  0  0  0
 28 27  2  0  0  0  0
 29 34  1  0  0  0  0
 30 22  1  0  0  0  0
 35 46  1  0  0  0  0
 35 44  1  0  0  0  0
 35 36  1  0  0  0  0
 37 47  1  0  0  0  0
 37 36  1  0  0  0  0
 38 37  1  0  0  0  0
 38 39  1  0  0  0  0
 39 51  1  1  0  0  0
 39 40  1  0  0  0  0
 40 52  1  0  0  0  0
 41 42  1  0  0  0  0
 41 39  1  0  0  0  0
 43 41  2  0  0  0  0
 45 35  1  0  0  0  0
 48 37  1  0  0  0  0
 49 38  1  0  0  0  0
 50 38  1  0  0  0  0
M  END
$$$$
