FDQ.pdb
 OpenBabel07022418583D

 52 52  0  0  1  0  0  0  0  0999 V2000
    1.9610   -0.5480   -1.4650 N   0  0  0  0  0  0  0  0  0  0  0  0
    2.3220   -1.4970   -0.4360 C   0  0  1  0  0  0  0  0  0  0  0  0
    3.7610   -1.3380   -0.0700 C   0  0  0  0  0  0  0  0  0  0  0  0
    4.1470   -0.0170    0.4480 C   0  0  0  0  0  0  0  0  0  0  0  0
    4.1620    0.2780    1.7940 C   0  0  0  0  0  0  0  0  0  0  0  0
    4.5190    1.5110    2.3030 C   0  0  0  0  0  0  0  0  0  0  0  0
    4.8800    2.4990    1.4250 C   0  0  0  0  0  0  0  0  0  0  0  0
    4.8840    2.2600    0.0710 C   0  0  0  0  0  0  0  0  0  0  0  0
    4.5230    1.0210   -0.4130 C   0  0  0  0  0  0  0  0  0  0  0  0
    1.4500   -1.3960    0.7530 C   0  0  0  0  0  0  0  0  0  0  0  0
    1.7490   -2.0230    1.7950 O   0  0  0  0  0  0  0  0  0  0  0  0
    2.6190   -0.6710   -2.2660 H   0  0  0  0  0  0  0  0  0  0  0  0
    1.0060   -0.7950   -1.8560 H   0  0  0  0  0  0  0  0  0  0  0  0
    2.2340   -2.5470   -0.8810 H   0  0  0  0  0  0  0  0  0  0  0  0
    4.0610   -2.0770    0.7330 H   0  0  0  0  0  0  0  0  0  0  0  0
    4.4110   -1.6290   -0.9400 H   0  0  0  0  0  0  0  0  0  0  0  0
    3.8830   -0.4760    2.5420 H   0  0  0  0  0  0  0  0  0  0  0  0
    4.5180    1.7060    3.3830 H   0  0  0  0  0  0  0  0  0  0  0  0
    5.1640    3.4760    1.8120 H   0  0  0  0  0  0  0  0  0  0  0  0
    5.1730    3.0600   -0.5940 H   0  0  0  0  0  0  0  0  0  0  0  0
    4.5240    0.8290   -1.4700 H   0  0  0  0  0  0  0  0  0  0  0  0
    0.2530   -0.5880    0.7340 N   0  0  0  0  0  0  0  0  0  0  0  0
   -0.6030   -0.5020    1.8980 C   0  0  1  0  0  0  0  0  0  0  0  0
   -1.0500    0.8710    2.2470 C   0  0  0  0  0  0  0  0  0  0  0  0
    0.0700    1.7870    2.5450 C   0  0  0  0  0  0  0  0  0  0  0  0
    1.2750    1.4420    2.5180 O   0  0  0  0  0  0  0  0  0  0  0  0
   -1.7930   -1.4240    1.7160 C   0  0  0  0  0  0  0  0  0  0  0  0
   -2.6500   -1.4910    2.6150 O   0  0  0  0  0  0  0  0  0  0  0  0
   -0.1620    3.1340    2.8850 O   0  0  0  0  0  0  0  0  0  0  0  0
    0.0650   -0.0920   -0.1540 H   0  0  0  0  0  0  0  0  0  0  0  0
   -0.0710   -0.9620    2.7640 H   0  0  0  0  0  0  0  0  0  0  0  0
   -1.7200    1.3250    1.4770 H   0  0  0  0  0  0  0  0  0  0  0  0
   -1.6750    0.8430    3.1790 H   0  0  0  0  0  0  0  0  0  0  0  0
    0.6080    3.7760    2.9620 H   0  0  0  0  0  0  0  0  0  0  0  0
   -5.7680    0.2920    0.2370 N   0  0  0  0  0  0  0  0  0  0  0  0
   -5.2450   -1.0100    0.0440 C   0  0  0  0  0  0  0  0  0  0  0  0
   -5.6980   -1.9170    0.7800 O   0  0  0  0  0  0  0  0  0  0  0  0
   -4.2260   -1.2860   -0.9670 C   0  0  0  0  0  0  0  0  0  0  0  0
   -3.7120   -2.6960   -0.9810 C   0  0  0  0  0  0  0  0  0  0  0  0
   -3.0570   -3.1000    0.3160 C   0  0  2  0  0  0  0  0  0  0  0  0
   -1.9410   -2.2030    0.5450 N   0  0  0  0  0  0  0  0  0  0  0  0
   -2.5850   -4.5060    0.1230 C   0  0  0  0  0  0  0  0  0  0  0  0
   -1.3740   -4.8370    0.1600 O   0  0  0  0  0  0  0  0  0  0  0  0
   -3.5170   -5.5050   -0.1100 O   0  0  0  0  0  0  0  0  0  0  0  0
   -6.7920    0.3990    0.3750 H   0  0  0  0  0  0  0  0  0  0  0  0
   -5.1270    1.1030    0.2360 H   0  0  0  0  0  0  0  0  0  0  0  0
   -3.4000   -0.5470   -0.8910 H   0  0  0  0  0  0  0  0  0  0  0  0
   -4.6960   -1.1240   -1.9810 H   0  0  0  0  0  0  0  0  0  0  0  0
   -2.9260   -2.7250   -1.7920 H   0  0  0  0  0  0  0  0  0  0  0  0
   -4.5260   -3.4110   -1.2080 H   0  0  0  0  0  0  0  0  0  0  0  0
   -3.7730   -3.1210    1.1260 H   0  0  0  0  0  0  0  0  0  0  0  0
   -1.1870   -2.1020   -0.1750 H   0  0  0  0  0  0  0  0  0  0  0  0
  1  2  1  0  0  0  0
  2 14  1  6  0  0  0
  2  3  1  0  0  0  0
  2 10  1  0  0  0  0
  3  4  1  0  0  0  0
  3 15  1  0  0  0  0
  4  5  1  0  0  0  0
  5  6  2  0  0  0  0
  5 17  1  0  0  0  0
  6 18  1  0  0  0  0
  7 19  1  0  0  0  0
  7  6  1  0  0  0  0
  8  7  2  0  0  0  0
  9  8  1  0  0  0  0
  9  4  2  0  0  0  0
 10 11  2  0  0  0  0
 12  1  1  0  0  0  0
 13  1  1  0  0  0  0
 16  3  1  0  0  0  0
 20  8  1  0  0  0  0
 21  9  1  0  0  0  0
 22 10  1  0  0  0  0
 22 23  1  0  0  0  0
 23 24  1  0  0  0  0
 23 31  1  1  0  0  0
 24 25  1  0  0  0  0
 24 33  1  0  0  0  0
 25 29  1  0  0  0  0
 26 25  2  0  0  0  0
 27 23  1  0  0  0  0
 27 28  2  0  0  0  0
 29 34  1  0  0  0  0
 30 22  1  0  0  0  0
 32 24  1  0  0  0  0
 35 45  1  0  0  0  0
 36 35  1  0  0  0  0
 36 37  2  0  0  0  0
 38 47  1  0  0  0  0
 38 36  1  0  0  0  0
 39 38  1  0  0  0  0
 39 40  1  0  0  0  0
 40 41  1  0  0  0  0
 40 51  1  1  0  0  0
 41 27  1  0  0  0  0
 42 43  1  0  0  0  0
 42 40  1  0  0  0  0
 44 42  2  0  0  0  0
 46 35  1  0  0  0  0
 48 38  1  0  0  0  0
 49 39  1  0  0  0  0
 50 39  1  0  0  0  0
 52 41  1  0  0  0  0
M  END
$$$$
