FDT.pdb
 OpenBabel07022418583D

 49 49  0  0  1  0  0  0  0  0999 V2000
    1.1580   -2.7040    3.4200 N   0  0  0  0  0  0  0  0  0  0  0  0
    1.9270   -1.5170    3.0050 C   0  0  1  0  0  0  0  0  0  0  0  0
    3.3250   -1.9950    2.7830 C   0  0  0  0  0  0  0  0  0  0  0  0
    4.2760   -0.9540    2.3570 C   0  0  0  0  0  0  0  0  0  0  0  0
    4.9540   -0.2230    3.3150 C   0  0  0  0  0  0  0  0  0  0  0  0
    5.8630    0.7630    2.9790 C   0  0  0  0  0  0  0  0  0  0  0  0
    6.1150    1.0390    1.6630 C   0  0  0  0  0  0  0  0  0  0  0  0
    5.4370    0.3070    0.6890 C   0  0  0  0  0  0  0  0  0  0  0  0
    4.5400   -0.6660    1.0260 C   0  0  0  0  0  0  0  0  0  0  0  0
    1.3420   -1.0210    1.7220 C   0  0  0  0  0  0  0  0  0  0  0  0
    1.8140    0.0370    1.2360 O   0  0  0  0  0  0  0  0  0  0  0  0
    1.6460   -3.1680    4.2160 H   0  0  0  0  0  0  0  0  0  0  0  0
    0.2040   -2.4610    3.7080 H   0  0  0  0  0  0  0  0  0  0  0  0
    1.8180   -0.7680    3.7910 H   0  0  0  0  0  0  0  0  0  0  0  0
    3.2820   -2.7620    1.9730 H   0  0  0  0  0  0  0  0  0  0  0  0
    3.7080   -2.5250    3.6790 H   0  0  0  0  0  0  0  0  0  0  0  0
    4.7410   -0.4560    4.3510 H   0  0  0  0  0  0  0  0  0  0  0  0
    6.3900    1.3340    3.7220 H   0  0  0  0  0  0  0  0  0  0  0  0
    6.8210    1.8050    1.3590 H   0  0  0  0  0  0  0  0  0  0  0  0
    5.6550    0.5450   -0.3280 H   0  0  0  0  0  0  0  0  0  0  0  0
    4.0390   -1.2120    0.2590 H   0  0  0  0  0  0  0  0  0  0  0  0
    0.3060   -1.6780    1.0470 N   0  0  0  0  0  0  0  0  0  0  0  0
   -0.1870   -1.0710   -0.2290 C   0  0  1  0  0  0  0  0  0  0  0  0
    0.1110   -2.1070   -1.2780 C   0  0  0  0  0  0  0  0  0  0  0  0
   -0.1980   -1.8410   -2.6600 C   0  0  0  0  0  0  0  0  0  0  0  0
   -0.5970   -0.7790   -3.1390 O   0  0  0  0  0  0  0  0  0  0  0  0
   -1.6180   -0.8050    0.0060 C   0  0  0  0  0  0  0  0  0  0  0  0
   -2.1440   -1.3980    1.0310 O   0  0  0  0  0  0  0  0  0  0  0  0
   -0.0400   -2.8800   -3.6090 O   0  0  0  0  0  0  0  0  0  0  0  0
   -0.1030   -2.5460    1.4140 H   0  0  0  0  0  0  0  0  0  0  0  0
    0.3330   -0.1300   -0.3870 H   0  0  0  0  0  0  0  0  0  0  0  0
    1.2120   -2.3740   -1.1220 H   0  0  0  0  0  0  0  0  0  0  0  0
   -0.3760   -3.0770   -0.9080 H   0  0  0  0  0  0  0  0  0  0  0  0
   -0.6380   -2.9360   -4.4350 H   0  0  0  0  0  0  0  0  0  0  0  0
   -5.6170    1.7260    0.3590 C   0  0  0  0  0  0  0  0  0  0  0  0
   -4.1570    1.5710    0.0070 C   0  0  1  0  0  0  0  0  0  0  0  0
   -3.3710    1.9790    1.0750 O   0  0  0  0  0  0  0  0  0  0  0  0
   -3.8570    0.1450   -0.3770 C   0  0  2  0  0  0  0  0  0  0  0  0
   -2.4610    0.0240   -0.7640 N   0  0  0  0  0  0  0  0  0  0  0  0
   -4.7620   -0.3470   -1.4430 C   0  0  0  0  0  0  0  0  0  0  0  0
   -6.0050   -0.3220   -1.2630 O   0  0  0  0  0  0  0  0  0  0  0  0
   -4.2800   -0.8400   -2.6480 O   0  0  0  0  0  0  0  0  0  0  0  0
   -6.1710    2.0040   -0.5650 H   0  0  0  0  0  0  0  0  0  0  0  0
   -5.7210    2.5040    1.1260 H   0  0  0  0  0  0  0  0  0  0  0  0
   -6.0210    0.7860    0.8140 H   0  0  0  0  0  0  0  0  0  0  0  0
   -3.9200    2.2750   -0.8370 H   0  0  0  0  0  0  0  0  0  0  0  0
   -2.8040    1.2470    1.3750 H   0  0  0  0  0  0  0  0  0  0  0  0
   -4.0520   -0.4730    0.5140 H   0  0  0  0  0  0  0  0  0  0  0  0
   -2.0820    0.5500   -1.5710 H   0  0  0  0  0  0  0  0  0  0  0  0
  1 13  1  0  0  0  0
  1 12  1  0  0  0  0
  2  1  1  0  0  0  0
  2 14  1  1  0  0  0
  3  2  1  0  0  0  0
  3 16  1  0  0  0  0
  4  3  1  0  0  0  0
  4  5  1  0  0  0  0
  5 17  1  0  0  0  0
  6  5  2  0  0  0  0
  6 18  1  0  0  0  0
  7  6  1  0  0  0  0
  8  9  1  0  0  0  0
  8  7  2  0  0  0  0
  9  4  2  0  0  0  0
 10  2  1  0  0  0  0
 11 10  2  0  0  0  0
 15  3  1  0  0  0  0
 19  7  1  0  0  0  0
 20  8  1  0  0  0  0
 21  9  1  0  0  0  0
 22 30  1  0  0  0  0
 22 10  1  0  0  0  0
 23 31  1  6  0  0  0
 23 27  1  0  0  0  0
 23 22  1  0  0  0  0
 24 32  1  0  0  0  0
 24 33  1  0  0  0  0
 24 23  1  0  0  0  0
 25 24  1  0  0  0  0
 26 25  2  0  0  0  0
 27 28  2  0  0  0  0
 29 25  1  0  0  0  0
 34 29  1  0  0  0  0
 35 45  1  0  0  0  0
 35 44  1  0  0  0  0
 36 46  1  6  0  0  0
 36 35  1  0  0  0  0
 36 37  1  0  0  0  0
 37 47  1  0  0  0  0
 38 36  1  0  0  0  0
 38 48  1  1  0  0  0
 39 38  1  0  0  0  0
 39 27  1  0  0  0  0
 40 41  1  0  0  0  0
 40 38  1  0  0  0  0
 42 40  2  0  0  0  0
 43 35  1  0  0  0  0
 49 39  1  0  0  0  0
M  END
$$$$
