FDV.pdb
 OpenBabel07022418583D

 51 51  0  0  1  0  0  0  0  0999 V2000
   -1.5420   -3.0540   -2.0860 N   0  0  0  0  0  0  0  0  0  0  0  0
   -0.3450   -3.4230   -1.2800 C   0  0  1  0  0  0  0  0  0  0  0  0
    0.6510   -3.8830   -2.2900 C   0  0  0  0  0  0  0  0  0  0  0  0
    1.9670   -4.2950   -1.8020 C   0  0  0  0  0  0  0  0  0  0  0  0
    3.0300   -3.4140   -1.9030 C   0  0  0  0  0  0  0  0  0  0  0  0
    4.2630   -3.7910   -1.4470 C   0  0  0  0  0  0  0  0  0  0  0  0
    4.4480   -5.0600   -0.8790 C   0  0  0  0  0  0  0  0  0  0  0  0
    3.4000   -5.9420   -0.7740 C   0  0  0  0  0  0  0  0  0  0  0  0
    2.1620   -5.5310   -1.2470 C   0  0  0  0  0  0  0  0  0  0  0  0
    0.0410   -2.3010   -0.4160 C   0  0  0  0  0  0  0  0  0  0  0  0
    0.8900   -2.5000    0.5260 O   0  0  0  0  0  0  0  0  0  0  0  0
   -1.2900   -2.2500   -2.7060 H   0  0  0  0  0  0  0  0  0  0  0  0
   -2.3640   -2.8900   -1.4690 H   0  0  0  0  0  0  0  0  0  0  0  0
   -0.6410   -4.3210   -0.6800 H   0  0  0  0  0  0  0  0  0  0  0  0
    0.1540   -4.7220   -2.8530 H   0  0  0  0  0  0  0  0  0  0  0  0
    0.7900   -3.1020   -3.0950 H   0  0  0  0  0  0  0  0  0  0  0  0
    2.8740   -2.4090   -2.3480 H   0  0  0  0  0  0  0  0  0  0  0  0
    5.1120   -3.1090   -1.5240 H   0  0  0  0  0  0  0  0  0  0  0  0
    5.4470   -5.3240   -0.5310 H   0  0  0  0  0  0  0  0  0  0  0  0
    3.5350   -6.9240   -0.3250 H   0  0  0  0  0  0  0  0  0  0  0  0
    1.3730   -6.2770   -1.1310 H   0  0  0  0  0  0  0  0  0  0  0  0
   -0.4600   -0.9780   -0.5310 N   0  0  0  0  0  0  0  0  0  0  0  0
   -0.0460    0.0290    0.3870 C   0  0  1  0  0  0  0  0  0  0  0  0
    0.9820    1.0070   -0.1440 C   0  0  0  0  0  0  0  0  0  0  0  0
    2.2370    0.3870   -0.5620 C   0  0  0  0  0  0  0  0  0  0  0  0
    2.4740    0.2240   -1.7830 O   0  0  0  0  0  0  0  0  0  0  0  0
   -1.1870    0.7850    0.9630 C   0  0  0  0  0  0  0  0  0  0  0  0
   -2.3390    0.4620    0.5260 O   0  0  0  0  0  0  0  0  0  0  0  0
    3.1710   -0.0220    0.3620 O   0  0  0  0  0  0  0  0  0  0  0  0
   -1.1440   -0.7620   -1.3220 H   0  0  0  0  0  0  0  0  0  0  0  0
    0.4680   -0.4810    1.2600 H   0  0  0  0  0  0  0  0  0  0  0  0
    0.5000    1.5550   -1.0060 H   0  0  0  0  0  0  0  0  0  0  0  0
    1.1940    1.7840    0.6170 H   0  0  0  0  0  0  0  0  0  0  0  0
    4.1430   -0.0960    0.0820 H   0  0  0  0  0  0  0  0  0  0  0  0
   -2.5000    0.7760    4.1840 C   0  0  0  0  0  0  0  0  0  0  0  0
   -2.3090    2.2520    3.9310 C   0  0  0  0  0  0  0  0  0  0  0  0
   -3.4650    2.9960    4.5320 C   0  0  0  0  0  0  0  0  0  0  0  0
   -2.1680    2.5010    2.4500 C   0  0  2  0  0  0  0  0  0  0  0  0
   -1.0270    1.7850    1.9200 N   0  0  0  0  0  0  0  0  0  0  0  0
   -2.1090    3.9390    2.1260 C   0  0  0  0  0  0  0  0  0  0  0  0
   -1.1910    4.4730    1.4740 O   0  0  0  0  0  0  0  0  0  0  0  0
   -3.1380    4.7800    2.5690 O   0  0  0  0  0  0  0  0  0  0  0  0
   -1.6150    0.2720    4.5930 H   0  0  0  0  0  0  0  0  0  0  0  0
   -3.3680    0.5960    4.8640 H   0  0  0  0  0  0  0  0  0  0  0  0
   -2.7810    0.2660    3.2320 H   0  0  0  0  0  0  0  0  0  0  0  0
   -1.3770    2.6030    4.4620 H   0  0  0  0  0  0  0  0  0  0  0  0
   -3.8120    2.4660    5.4450 H   0  0  0  0  0  0  0  0  0  0  0  0
   -3.1550    4.0150    4.8760 H   0  0  0  0  0  0  0  0  0  0  0  0
   -4.3570    3.0650    3.8640 H   0  0  0  0  0  0  0  0  0  0  0  0
   -3.1080    2.1110    1.9610 H   0  0  0  0  0  0  0  0  0  0  0  0
   -0.0720    2.0660    2.2920 H   0  0  0  0  0  0  0  0  0  0  0  0
  1 13  1  0  0  0  0
  1  2  1  0  0  0  0
  2 14  1  1  0  0  0
  2 10  1  0  0  0  0
  3  4  1  0  0  0  0
  3  2  1  0  0  0  0
  4  9  1  0  0  0  0
  5  4  2  0  0  0  0
  5  6  1  0  0  0  0
  6  7  2  0  0  0  0
  7  8  1  0  0  0  0
  7 19  1  0  0  0  0
  8 20  1  0  0  0  0
  9 21  1  0  0  0  0
  9  8  2  0  0  0  0
 10 11  2  0  0  0  0
 12  1  1  0  0  0  0
 15  3  1  0  0  0  0
 16  3  1  0  0  0  0
 17  5  1  0  0  0  0
 18  6  1  0  0  0  0
 22 10  1  0  0  0  0
 22 23  1  0  0  0  0
 23 27  1  0  0  0  0
 23 31  1  1  0  0  0
 24 23  1  0  0  0  0
 24 33  1  0  0  0  0
 25 24  1  0  0  0  0
 25 29  1  0  0  0  0
 26 25  2  0  0  0  0
 27 39  1  0  0  0  0
 28 27  2  0  0  0  0
 30 22  1  0  0  0  0
 32 24  1  0  0  0  0
 34 29  1  0  0  0  0
 35 43  1  0  0  0  0
 35 44  1  0  0  0  0
 36 35  1  0  0  0  0
 36 46  1  0  0  0  0
 36 37  1  0  0  0  0
 37 48  1  0  0  0  0
 37 47  1  0  0  0  0
 38 50  1  6  0  0  0
 38 36  1  0  0  0  0
 39 51  1  0  0  0  0
 39 38  1  0  0  0  0
 40 38  1  0  0  0  0
 40 42  1  0  0  0  0
 41 40  2  0  0  0  0
 45 35  1  0  0  0  0
 49 37  1  0  0  0  0
M  END
$$$$
