FDW.pdb
 OpenBabel07022418583D

 59 61  0  0  1  0  0  0  0  0999 V2000
    3.8050   -0.7440    3.0560 N   0  0  0  0  0  0  0  0  0  0  0  0
    2.5980    0.0820    3.1320 C   0  0  1  0  0  0  0  0  0  0  0  0
    2.8670    1.3110    2.3390 C   0  0  0  0  0  0  0  0  0  0  0  0
    3.1690    0.9820    0.9410 C   0  0  0  0  0  0  0  0  0  0  0  0
    4.4590    0.7350    0.5520 C   0  0  0  0  0  0  0  0  0  0  0  0
    4.6900    0.4310   -0.7900 C   0  0  0  0  0  0  0  0  0  0  0  0
    3.6690    0.3780   -1.6950 C   0  0  0  0  0  0  0  0  0  0  0  0
    2.3790    0.6270   -1.2950 C   0  0  0  0  0  0  0  0  0  0  0  0
    2.1440    0.9270    0.0230 C   0  0  0  0  0  0  0  0  0  0  0  0
    1.4370   -0.7200    2.6840 C   0  0  0  0  0  0  0  0  0  0  0  0
    1.6110   -1.9080    2.2760 O   0  0  0  0  0  0  0  0  0  0  0  0
    3.6980   -1.4960    2.3410 H   0  0  0  0  0  0  0  0  0  0  0  0
    4.0100   -1.2160    3.9660 H   0  0  0  0  0  0  0  0  0  0  0  0
    2.5130    0.3360    4.2250 H   0  0  0  0  0  0  0  0  0  0  0  0
    1.9690    1.9740    2.4360 H   0  0  0  0  0  0  0  0  0  0  0  0
    3.7620    1.8020    2.8130 H   0  0  0  0  0  0  0  0  0  0  0  0
    5.3120    0.7600    1.2180 H   0  0  0  0  0  0  0  0  0  0  0  0
    5.6970    0.2300   -1.1320 H   0  0  0  0  0  0  0  0  0  0  0  0
    3.9110    0.1350   -2.7330 H   0  0  0  0  0  0  0  0  0  0  0  0
    1.5930    0.5810   -2.0220 H   0  0  0  0  0  0  0  0  0  0  0  0
    1.1230    1.1270    0.3450 H   0  0  0  0  0  0  0  0  0  0  0  0
    0.0920   -0.2040    2.6930 N   0  0  0  0  0  0  0  0  0  0  0  0
   -0.9700   -1.0650    2.2440 C   0  0  1  0  0  0  0  0  0  0  0  0
   -1.9440   -1.2500    3.3890 C   0  0  0  0  0  0  0  0  0  0  0  0
   -2.4980    0.0620    3.7690 C   0  0  0  0  0  0  0  0  0  0  0  0
   -2.2320    1.1540    3.1970 O   0  0  0  0  0  0  0  0  0  0  0  0
   -1.7410   -0.4710    1.1360 C   0  0  0  0  0  0  0  0  0  0  0  0
   -1.5470    0.6490    0.6220 O   0  0  0  0  0  0  0  0  0  0  0  0
   -3.4020    0.1920    4.8460 O   0  0  0  0  0  0  0  0  0  0  0  0
    0.0130    0.7650    3.0280 H   0  0  0  0  0  0  0  0  0  0  0  0
   -0.5810   -2.0450    1.8850 H   0  0  0  0  0  0  0  0  0  0  0  0
   -2.7800   -1.8620    2.9980 H   0  0  0  0  0  0  0  0  0  0  0  0
   -1.4040   -1.7470    4.2200 H   0  0  0  0  0  0  0  0  0  0  0  0
   -3.4120    1.0490    5.3900 H   0  0  0  0  0  0  0  0  0  0  0  0
   -2.8210   -1.2430    0.5860 N   0  0  0  0  0  0  0  0  0  0  0  0
   -3.6490   -0.7970   -0.4830 C   0  0  1  0  0  0  0  0  0  0  0  0
   -3.4530   -1.6100   -1.7410 C   0  0  0  0  0  0  0  0  0  0  0  0
   -2.0860   -1.5830   -2.2780 C   0  0  0  0  0  0  0  0  0  0  0  0
   -1.6500   -0.7810   -3.3370 C   0  0  0  0  0  0  0  0  0  0  0  0
   -0.3400   -0.9950   -3.5480 N   0  0  0  0  0  0  0  0  0  0  0  0
    0.1030   -1.9070   -2.6710 C   0  0  0  0  0  0  0  0  0  0  0  0
    1.3710   -2.4480   -2.5050 C   0  0  0  0  0  0  0  0  0  0  0  0
    1.5800   -3.3980   -1.5120 C   0  0  0  0  0  0  0  0  0  0  0  0
    0.5140   -3.7810   -0.7110 C   0  0  0  0  0  0  0  0  0  0  0  0
   -0.7290   -3.2160   -0.9120 C   0  0  0  0  0  0  0  0  0  0  0  0
   -0.9610   -2.2730   -1.8880 C   0  0  0  0  0  0  0  0  0  0  0  0
   -5.0860   -0.7890   -0.1620 C   0  0  0  0  0  0  0  0  0  0  0  0
   -5.5510   -1.1390    0.9500 O   0  0  0  0  0  0  0  0  0  0  0  0
   -5.9790   -0.3730   -1.1350 O   0  0  0  0  0  0  0  0  0  0  0  0
   -3.0210   -2.1890    0.9940 H   0  0  0  0  0  0  0  0  0  0  0  0
   -3.3360    0.2550   -0.7680 H   0  0  0  0  0  0  0  0  0  0  0  0
   -4.1940   -1.3000   -2.5090 H   0  0  0  0  0  0  0  0  0  0  0  0
   -3.7240   -2.6700   -1.4890 H   0  0  0  0  0  0  0  0  0  0  0  0
   -2.3210   -0.1060   -3.8680 H   0  0  0  0  0  0  0  0  0  0  0  0
    0.2150   -0.5040   -4.2960 H   0  0  0  0  0  0  0  0  0  0  0  0
    2.2010   -2.1500   -3.1290 H   0  0  0  0  0  0  0  0  0  0  0  0
    2.5740   -3.8210   -1.3830 H   0  0  0  0  0  0  0  0  0  0  0  0
    0.7220   -4.5230    0.0480 H   0  0  0  0  0  0  0  0  0  0  0  0
   -1.5400   -3.5350   -0.2850 H   0  0  0  0  0  0  0  0  0  0  0  0
  1  2  1  0  0  0  0
  1 13  1  0  0  0  0
  2 14  1  1  0  0  0
  3 15  1  0  0  0  0
  3 16  1  0  0  0  0
  3  2  1  0  0  0  0
  4  3  1  0  0  0  0
  5  4  1  0  0  0  0
  5 17  1  0  0  0  0
  6  5  2  0  0  0  0
  7  8  2  0  0  0  0
  7  6  1  0  0  0  0
  8  9  1  0  0  0  0
  9 21  1  0  0  0  0
  9  4  2  0  0  0  0
 10 22  1  0  0  0  0
 10  2  1  0  0  0  0
 11 10  2  0  0  0  0
 12  1  1  0  0  0  0
 18  6  1  0  0  0  0
 19  7  1  0  0  0  0
 20  8  1  0  0  0  0
 22 30  1  0  0  0  0
 23 31  1  6  0  0  0
 23 22  1  0  0  0  0
 23 24  1  0  0  0  0
 24 25  1  0  0  0  0
 24 33  1  0  0  0  0
 25 29  1  0  0  0  0
 26 25  2  0  0  0  0
 27 23  1  0  0  0  0
 28 27  2  0  0  0  0
 29 34  1  0  0  0  0
 32 24  1  0  0  0  0
 35 50  1  0  0  0  0
 35 27  1  0  0  0  0
 36 51  1  6  0  0  0
 36 47  1  0  0  0  0
 36 35  1  0  0  0  0
 37 53  1  0  0  0  0
 37 36  1  0  0  0  0
 38 46  1  0  0  0  0
 38 37  1  0  0  0  0
 39 38  2  0  0  0  0
 40 39  1  0  0  0  0
 40 41  1  0  0  0  0
 41 42  2  0  0  0  0
 41 46  1  0  0  0  0
 42 43  1  0  0  0  0
 43 57  1  0  0  0  0
 43 44  2  0  0  0  0
 44 58  1  0  0  0  0
 45 44  1  0  0  0  0
 45 59  1  0  0  0  0
 46 45  2  0  0  0  0
 47 48  1  0  0  0  0
 49 47  2  0  0  0  0
 52 37  1  0  0  0  0
 54 39  1  0  0  0  0
 55 40  1  0  0  0  0
 56 42  1  0  0  0  0
M  END
$$$$
