FEC.pdb
 OpenBabel07022418583D

 49 49  0  0  1  0  0  0  0  0999 V2000
    1.4420   -2.7220    0.8350 N   0  0  0  0  0  0  0  0  0  0  0  0
    1.9040   -1.5700    1.6180 C   0  0  1  0  0  0  0  0  0  0  0  0
    3.3560   -1.3850    1.2420 C   0  0  0  0  0  0  0  0  0  0  0  0
    4.0060   -0.2500    1.9400 C   0  0  0  0  0  0  0  0  0  0  0  0
    4.0030    0.9920    1.3570 C   0  0  0  0  0  0  0  0  0  0  0  0
    4.6020    2.0530    2.0020 C   0  0  0  0  0  0  0  0  0  0  0  0
    5.2050    1.8800    3.2290 C   0  0  0  0  0  0  0  0  0  0  0  0
    5.1970    0.6180    3.8010 C   0  0  0  0  0  0  0  0  0  0  0  0
    4.6000   -0.4500    3.1620 C   0  0  0  0  0  0  0  0  0  0  0  0
    1.1020   -0.3750    1.2800 C   0  0  0  0  0  0  0  0  0  0  0  0
    1.2380    0.7410    1.8010 O   0  0  0  0  0  0  0  0  0  0  0  0
    2.0840   -3.5110    1.0620 H   0  0  0  0  0  0  0  0  0  0  0  0
    0.4770   -3.0010    1.1050 H   0  0  0  0  0  0  0  0  0  0  0  0
    1.8250   -1.8450    2.6910 H   0  0  0  0  0  0  0  0  0  0  0  0
    3.4220   -1.2810    0.1330 H   0  0  0  0  0  0  0  0  0  0  0  0
    3.8960   -2.3200    1.5210 H   0  0  0  0  0  0  0  0  0  0  0  0
    3.5280    1.1580    0.3690 H   0  0  0  0  0  0  0  0  0  0  0  0
    4.5880    3.0450    1.5140 H   0  0  0  0  0  0  0  0  0  0  0  0
    5.6730    2.7310    3.7220 H   0  0  0  0  0  0  0  0  0  0  0  0
    5.6780    0.5070    4.7670 H   0  0  0  0  0  0  0  0  0  0  0  0
    4.6070   -1.4470    3.6400 H   0  0  0  0  0  0  0  0  0  0  0  0
    0.0780   -0.4830    0.2700 N   0  0  0  0  0  0  0  0  0  0  0  0
   -0.7230    0.6410   -0.0930 C   0  0  1  0  0  0  0  0  0  0  0  0
   -0.6160    1.0020   -1.5570 C   0  0  0  0  0  0  0  0  0  0  0  0
   -1.0650   -0.1640   -2.4350 C   0  0  0  0  0  0  0  0  0  0  0  0
   -0.9600    0.1890   -3.8700 C   0  0  0  0  0  0  0  0  0  0  0  0
   -0.5550    1.2990   -4.2870 O   0  0  0  0  0  0  0  0  0  0  0  0
   -2.1460    0.3160    0.1710 C   0  0  0  0  0  0  0  0  0  0  0  0
   -3.0790    1.1420   -0.0730 O   0  0  0  0  0  0  0  0  0  0  0  0
   -1.3320   -0.7650   -4.8010 O   0  0  0  0  0  0  0  0  0  0  0  0
   -0.0610   -1.4270   -0.1980 H   0  0  0  0  0  0  0  0  0  0  0  0
   -0.3850    1.5190    0.5050 H   0  0  0  0  0  0  0  0  0  0  0  0
    0.4270    1.1990   -1.8040 H   0  0  0  0  0  0  0  0  0  0  0  0
   -1.2340    1.8890   -1.7720 H   0  0  0  0  0  0  0  0  0  0  0  0
   -0.4120   -1.0410   -2.2710 H   0  0  0  0  0  0  0  0  0  0  0  0
   -2.1210   -0.3750   -2.2120 H   0  0  0  0  0  0  0  0  0  0  0  0
   -1.2930   -0.6020   -5.8000 H   0  0  0  0  0  0  0  0  0  0  0  0
   -2.4900   -0.9500    0.7110 N   0  0  0  0  0  0  0  0  0  0  0  0
   -3.8380   -1.3350    0.9920 C   0  0  1  0  0  0  0  0  0  0  0  0
   -4.2480   -2.6000    0.2570 C   0  0  0  0  0  0  0  0  0  0  0  0
   -5.9670   -2.9650    0.7050 S   0  0  0  0  0  0  0  0  0  0  0  0
   -3.9930   -1.6050    2.4390 C   0  0  0  0  0  0  0  0  0  0  0  0
   -5.0830   -1.9630    2.9550 O   0  0  0  0  0  0  0  0  0  0  0  0
   -2.8910   -1.4590    3.2630 O   0  0  0  0  0  0  0  0  0  0  0  0
   -1.7350   -1.6520    0.9240 H   0  0  0  0  0  0  0  0  0  0  0  0
   -4.5250   -0.5060    0.7230 H   0  0  0  0  0  0  0  0  0  0  0  0
   -4.1880   -2.4860   -0.8330 H   0  0  0  0  0  0  0  0  0  0  0  0
   -3.6280   -3.4240    0.6610 H   0  0  0  0  0  0  0  0  0  0  0  0
   -6.5960   -3.6820   -0.3550 H   0  0  0  0  0  0  0  0  0  0  0  0
  1 12  1  0  0  0  0
  1 13  1  0  0  0  0
  1  2  1  0  0  0  0
  2 14  1  1  0  0  0
  3 16  1  0  0  0  0
  3  2  1  0  0  0  0
  3  4  1  0  0  0  0
  4  9  1  0  0  0  0
  5  4  2  0  0  0  0
  5  6  1  0  0  0  0
  6  7  2  0  0  0  0
  7 19  1  0  0  0  0
  7  8  1  0  0  0  0
  8 20  1  0  0  0  0
  9 21  1  0  0  0  0
  9  8  2  0  0  0  0
 10  2  1  0  0  0  0
 10 11  2  0  0  0  0
 15  3  1  0  0  0  0
 17  5  1  0  0  0  0
 18  6  1  0  0  0  0
 22 10  1  0  0  0  0
 23 28  1  0  0  0  0
 23 22  1  0  0  0  0
 23 32  1  1  0  0  0
 24 23  1  0  0  0  0
 25 35  1  0  0  0  0
 25 36  1  0  0  0  0
 25 24  1  0  0  0  0
 26 25  1  0  0  0  0
 27 26  2  0  0  0  0
 28 38  1  0  0  0  0
 29 28  2  0  0  0  0
 30 26  1  0  0  0  0
 31 22  1  0  0  0  0
 33 24  1  0  0  0  0
 34 24  1  0  0  0  0
 37 30  1  0  0  0  0
 38 45  1  0  0  0  0
 38 39  1  0  0  0  0
 39 46  1  6  0  0  0
 39 42  1  0  0  0  0
 40 48  1  0  0  0  0
 40 41  1  0  0  0  0
 40 39  1  0  0  0  0
 42 43  2  0  0  0  0
 42 44  1  0  0  0  0
 47 40  1  0  0  0  0
 49 41  1  0  0  0  0
M  END
$$$$
