FED.pdb
 OpenBabel07022418583D

 51 51  0  0  1  0  0  0  0  0999 V2000
    2.0440    2.1730   -1.0430 N   0  0  0  0  0  0  0  0  0  0  0  0
    2.8440    1.0030   -0.8870 C   0  0  1  0  0  0  0  0  0  0  0  0
    4.0050    1.2800    0.0610 C   0  0  0  0  0  0  0  0  0  0  0  0
    3.5440    1.6940    1.4130 C   0  0  0  0  0  0  0  0  0  0  0  0
    3.3170    0.7640    2.4040 C   0  0  0  0  0  0  0  0  0  0  0  0
    2.8890    1.1130    3.6690 C   0  0  0  0  0  0  0  0  0  0  0  0
    2.6780    2.4440    3.9570 C   0  0  0  0  0  0  0  0  0  0  0  0
    2.9020    3.3840    2.9720 C   0  0  0  0  0  0  0  0  0  0  0  0
    3.3300    3.0210    1.7130 C   0  0  0  0  0  0  0  0  0  0  0  0
    2.0430   -0.1570   -0.4200 C   0  0  0  0  0  0  0  0  0  0  0  0
    2.5880   -1.2620   -0.2340 O   0  0  0  0  0  0  0  0  0  0  0  0
    1.6650    2.5610   -0.1670 H   0  0  0  0  0  0  0  0  0  0  0  0
    2.4300    2.8460   -1.7090 H   0  0  0  0  0  0  0  0  0  0  0  0
    3.3150    0.7780   -1.8700 H   0  0  0  0  0  0  0  0  0  0  0  0
    4.6460    2.0860   -0.3240 H   0  0  0  0  0  0  0  0  0  0  0  0
    4.6410    0.3870    0.1920 H   0  0  0  0  0  0  0  0  0  0  0  0
    3.4850   -0.3020    2.1780 H   0  0  0  0  0  0  0  0  0  0  0  0
    2.7150    0.3490    4.4430 H   0  0  0  0  0  0  0  0  0  0  0  0
    2.3390    2.7120    4.9620 H   0  0  0  0  0  0  0  0  0  0  0  0
    2.7320    4.4440    3.2100 H   0  0  0  0  0  0  0  0  0  0  0  0
    3.4990    3.7900    0.9530 H   0  0  0  0  0  0  0  0  0  0  0  0
    0.6500   -0.0780   -0.1650 N   0  0  0  0  0  0  0  0  0  0  0  0
   -0.1680   -1.1790    0.2890 C   0  0  1  0  0  0  0  0  0  0  0  0
   -0.5600   -0.9370    1.7030 C   0  0  0  0  0  0  0  0  0  0  0  0
   -1.2930    0.3240    2.0020 C   0  0  0  0  0  0  0  0  0  0  0  0
   -2.5830    0.5530    1.3670 C   0  0  0  0  0  0  0  0  0  0  0  0
   -3.1290   -0.2620    0.6170 O   0  0  0  0  0  0  0  0  0  0  0  0
   -1.1480   -1.6880   -0.6390 C   0  0  0  0  0  0  0  0  0  0  0  0
   -1.3460   -1.1090   -1.7400 O   0  0  0  0  0  0  0  0  0  0  0  0
   -3.2910    1.7540    1.5880 O   0  0  0  0  0  0  0  0  0  0  0  0
    0.1660    0.8400   -0.3130 H   0  0  0  0  0  0  0  0  0  0  0  0
    0.6140   -2.0390    0.3690 H   0  0  0  0  0  0  0  0  0  0  0  0
    0.3770   -0.9040    2.3460 H   0  0  0  0  0  0  0  0  0  0  0  0
   -1.1200   -1.8000    2.1510 H   0  0  0  0  0  0  0  0  0  0  0  0
   -0.6340    1.2330    1.8280 H   0  0  0  0  0  0  0  0  0  0  0  0
   -1.4960    0.4190    3.1230 H   0  0  0  0  0  0  0  0  0  0  0  0
   -3.8840    2.0680    0.8330 H   0  0  0  0  0  0  0  0  0  0  0  0
   -1.8970   -2.8500   -0.3270 N   0  0  0  0  0  0  0  0  0  0  0  0
   -2.8710   -3.3970   -1.2090 C   0  0  1  0  0  0  0  0  0  0  0  0
   -2.5520   -4.7900   -1.6980 C   0  0  0  0  0  0  0  0  0  0  0  0
   -2.4350   -5.7670   -0.6130 C   0  0  0  0  0  0  0  0  0  0  0  0
   -2.5950   -5.4620    0.6110 O   0  0  0  0  0  0  0  0  0  0  0  0
   -4.2220   -3.4410   -0.6260 C   0  0  0  0  0  0  0  0  0  0  0  0
   -5.1470   -3.9090   -1.3390 O   0  0  0  0  0  0  0  0  0  0  0  0
   -2.1380   -7.0990   -0.8620 O   0  0  0  0  0  0  0  0  0  0  0  0
   -4.5580   -3.0090    0.6470 O   0  0  0  0  0  0  0  0  0  0  0  0
   -1.7160   -3.3070    0.5840 H   0  0  0  0  0  0  0  0  0  0  0  0
   -2.9160   -2.7360   -2.1190 H   0  0  0  0  0  0  0  0  0  0  0  0
   -1.6300   -4.8190   -2.3270 H   0  0  0  0  0  0  0  0  0  0  0  0
   -3.3850   -5.0830   -2.3780 H   0  0  0  0  0  0  0  0  0  0  0  0
   -1.8370   -7.7070   -0.0890 H   0  0  0  0  0  0  0  0  0  0  0  0
  1  2  1  0  0  0  0
  1 12  1  0  0  0  0
  2 14  1  6  0  0  0
  2 10  1  0  0  0  0
  2  3  1  0  0  0  0
  3 16  1  0  0  0  0
  3  4  1  0  0  0  0
  4  9  2  0  0  0  0
  4  5  1  0  0  0  0
  5  6  2  0  0  0  0
  6  7  1  0  0  0  0
  6 18  1  0  0  0  0
  7 19  1  0  0  0  0
  8 20  1  0  0  0  0
  8  7  2  0  0  0  0
  9  8  1  0  0  0  0
 10 11  2  0  0  0  0
 10 22  1  0  0  0  0
 13  1  1  0  0  0  0
 15  3  1  0  0  0  0
 17  5  1  0  0  0  0
 21  9  1  0  0  0  0
 22 23  1  0  0  0  0
 23 32  1  1  0  0  0
 23 24  1  0  0  0  0
 24 25  1  0  0  0  0
 24 34  1  0  0  0  0
 24 33  1  0  0  0  0
 25 36  1  0  0  0  0
 26 30  1  0  0  0  0
 26 25  1  0  0  0  0
 27 26  2  0  0  0  0
 28 38  1  0  0  0  0
 28 23  1  0  0  0  0
 29 28  2  0  0  0  0
 31 22  1  0  0  0  0
 35 25  1  0  0  0  0
 37 30  1  0  0  0  0
 38 47  1  0  0  0  0
 39 48  1  6  0  0  0
 39 43  1  0  0  0  0
 39 38  1  0  0  0  0
 40 39  1  0  0  0  0
 40 41  1  0  0  0  0
 41 42  2  0  0  0  0
 43 46  1  0  0  0  0
 44 43  2  0  0  0  0
 45 41  1  0  0  0  0
 45 51  1  0  0  0  0
 49 40  1  0  0  0  0
 50 40  1  0  0  0  0
M  END
$$$$
