FEF.pdb
 OpenBabel07022418583D

 58 59  0  0  1  0  0  0  0  0999 V2000
    0.3520    0.5720    3.5720 N   0  0  0  0  0  0  0  0  0  0  0  0
    1.0440    1.0900    2.4020 C   0  0  1  0  0  0  0  0  0  0  0  0
    2.2130    0.1730    2.1640 C   0  0  0  0  0  0  0  0  0  0  0  0
    2.9890    0.6120    0.9960 C   0  0  0  0  0  0  0  0  0  0  0  0
    4.0000    1.5460    1.1440 C   0  0  0  0  0  0  0  0  0  0  0  0
    4.7760    1.9910    0.0830 C   0  0  0  0  0  0  0  0  0  0  0  0
    4.5540    1.4990   -1.1790 C   0  0  0  0  0  0  0  0  0  0  0  0
    3.5490    0.5660   -1.3400 C   0  0  0  0  0  0  0  0  0  0  0  0
    2.7820    0.1320   -0.2710 C   0  0  0  0  0  0  0  0  0  0  0  0
    0.0880    1.0960    1.2390 C   0  0  0  0  0  0  0  0  0  0  0  0
    0.4700    1.5600    0.1380 O   0  0  0  0  0  0  0  0  0  0  0  0
    0.6170   -0.3820    3.8310 H   0  0  0  0  0  0  0  0  0  0  0  0
    0.3000    1.2510    4.3520 H   0  0  0  0  0  0  0  0  0  0  0  0
    1.3920    2.1050    2.6520 H   0  0  0  0  0  0  0  0  0  0  0  0
    1.8030   -0.8440    1.9490 H   0  0  0  0  0  0  0  0  0  0  0  0
    2.8570    0.1230    3.0780 H   0  0  0  0  0  0  0  0  0  0  0  0
    4.1900    1.9460    2.1290 H   0  0  0  0  0  0  0  0  0  0  0  0
    5.5620    2.7200    0.2130 H   0  0  0  0  0  0  0  0  0  0  0  0
    5.1290    1.8140   -2.0320 H   0  0  0  0  0  0  0  0  0  0  0  0
    3.3530    0.1620   -2.3260 H   0  0  0  0  0  0  0  0  0  0  0  0
    2.0010   -0.6120   -0.4410 H   0  0  0  0  0  0  0  0  0  0  0  0
   -1.2250    0.5900    1.3780 N   0  0  0  0  0  0  0  0  0  0  0  0
   -2.2590    0.5450    0.3890 C   0  0  1  0  0  0  0  0  0  0  0  0
   -2.1550    1.5290   -0.7350 C   0  0  0  0  0  0  0  0  0  0  0  0
   -2.2460    2.9510   -0.2690 C   0  0  0  0  0  0  0  0  0  0  0  0
   -3.5960    3.1410    0.3650 C   0  0  0  0  0  0  0  0  0  0  0  0
   -3.7300    3.0690    1.6060 O   0  0  0  0  0  0  0  0  0  0  0  0
   -2.6030   -0.8040   -0.0960 C   0  0  0  0  0  0  0  0  0  0  0  0
   -3.5370   -0.9760   -0.9470 O   0  0  0  0  0  0  0  0  0  0  0  0
   -4.6880    3.3950   -0.4420 O   0  0  0  0  0  0  0  0  0  0  0  0
   -1.4240    0.2020    2.3690 H   0  0  0  0  0  0  0  0  0  0  0  0
   -3.1900    0.9540    0.9770 H   0  0  0  0  0  0  0  0  0  0  0  0
   -3.0080    1.3340   -1.4580 H   0  0  0  0  0  0  0  0  0  0  0  0
   -1.2370    1.4140   -1.3550 H   0  0  0  0  0  0  0  0  0  0  0  0
   -2.1040    3.6750   -1.0980 H   0  0  0  0  0  0  0  0  0  0  0  0
   -1.4790    3.1650    0.4830 H   0  0  0  0  0  0  0  0  0  0  0  0
   -5.6120    3.6540   -0.0860 H   0  0  0  0  0  0  0  0  0  0  0  0
   -1.9750   -2.0150    0.3000 N   0  0  0  0  0  0  0  0  0  0  0  0
   -2.3430   -3.2950   -0.1850 C   0  0  1  0  0  0  0  0  0  0  0  0
   -1.3820   -4.0060   -1.0620 C   0  0  0  0  0  0  0  0  0  0  0  0
   -0.0700   -4.3220   -0.5460 C   0  0  0  0  0  0  0  0  0  0  0  0
    0.9390   -3.3820   -0.7350 C   0  0  0  0  0  0  0  0  0  0  0  0
    2.2200   -3.5740   -0.2940 C   0  0  0  0  0  0  0  0  0  0  0  0
    2.5670   -4.7180    0.3620 C   0  0  0  0  0  0  0  0  0  0  0  0
    1.5830   -5.6700    0.5640 C   0  0  0  0  0  0  0  0  0  0  0  0
    0.2920   -5.4750    0.1190 C   0  0  0  0  0  0  0  0  0  0  0  0
   -2.8690   -4.1340    0.9210 C   0  0  0  0  0  0  0  0  0  0  0  0
   -3.2690   -5.3120    0.7860 O   0  0  0  0  0  0  0  0  0  0  0  0
   -2.9230   -3.5810    2.1890 O   0  0  0  0  0  0  0  0  0  0  0  0
   -1.1970   -1.9450    0.9900 H   0  0  0  0  0  0  0  0  0  0  0  0
   -3.2570   -3.1340   -0.8440 H   0  0  0  0  0  0  0  0  0  0  0  0
   -1.2980   -3.4370   -2.0130 H   0  0  0  0  0  0  0  0  0  0  0  0
   -1.8740   -4.9760   -1.3620 H   0  0  0  0  0  0  0  0  0  0  0  0
    0.7280   -2.4430   -1.2570 H   0  0  0  0  0  0  0  0  0  0  0  0
    3.0010   -2.8170   -0.4540 H   0  0  0  0  0  0  0  0  0  0  0  0
    3.5910   -4.8440    0.7010 H   0  0  0  0  0  0  0  0  0  0  0  0
    1.8950   -6.5750    1.0920 H   0  0  0  0  0  0  0  0  0  0  0  0
   -0.4710   -6.2150    0.2760 H   0  0  0  0  0  0  0  0  0  0  0  0
  1 12  1  0  0  0  0
  1 13  1  0  0  0  0
  2 14  1  1  0  0  0
  2  1  1  0  0  0  0
  3  2  1  0  0  0  0
  3 16  1  0  0  0  0
  4  5  1  0  0  0  0
  4  3  1  0  0  0  0
  5 17  1  0  0  0  0
  6 18  1  0  0  0  0
  6  5  2  0  0  0  0
  7  6  1  0  0  0  0
  8  7  2  0  0  0  0
  8  9  1  0  0  0  0
  9  4  2  0  0  0  0
 10 22  1  0  0  0  0
 10  2  1  0  0  0  0
 11 10  2  0  0  0  0
 15  3  1  0  0  0  0
 19  7  1  0  0  0  0
 20  8  1  0  0  0  0
 21  9  1  0  0  0  0
 22 31  1  0  0  0  0
 23 32  1  1  0  0  0
 23 22  1  0  0  0  0
 24 25  1  0  0  0  0
 24 23  1  0  0  0  0
 25 26  1  0  0  0  0
 25 36  1  0  0  0  0
 26 27  2  0  0  0  0
 28 38  1  0  0  0  0
 28 23  1  0  0  0  0
 29 28  2  0  0  0  0
 30 37  1  0  0  0  0
 30 26  1  0  0  0  0
 33 24  1  0  0  0  0
 34 24  1  0  0  0  0
 35 25  1  0  0  0  0
 38 50  1  0  0  0  0
 39 51  1  6  0  0  0
 39 38  1  0  0  0  0
 39 47  1  0  0  0  0
 40 41  1  0  0  0  0
 40 39  1  0  0  0  0
 41 46  1  0  0  0  0
 42 41  2  0  0  0  0
 42 43  1  0  0  0  0
 43 44  2  0  0  0  0
 44 45  1  0  0  0  0
 44 56  1  0  0  0  0
 45 57  1  0  0  0  0
 46 58  1  0  0  0  0
 46 45  2  0  0  0  0
 47 49  1  0  0  0  0
 48 47  2  0  0  0  0
 52 40  1  0  0  0  0
 53 40  1  0  0  0  0
 54 42  1  0  0  0  0
 55 43  1  0  0  0  0
M  END
$$$$
