FEH.pdb
 OpenBabel07022418583D

 55 56  0  0  1  0  0  0  0  0999 V2000
    3.7560   -0.5830   -1.3130 N   0  0  0  0  0  0  0  0  0  0  0  0
    3.7180   -0.1810    0.0830 C   0  0  1  0  0  0  0  0  0  0  0  0
    4.5350    1.0350    0.3190 C   0  0  0  0  0  0  0  0  0  0  0  0
    4.5130    1.4650    1.7140 C   0  0  0  0  0  0  0  0  0  0  0  0
    5.4000    0.9750    2.6700 C   0  0  0  0  0  0  0  0  0  0  0  0
    5.4150    1.3640    3.9720 C   0  0  0  0  0  0  0  0  0  0  0  0
    4.4970    2.3050    4.3930 C   0  0  0  0  0  0  0  0  0  0  0  0
    3.6010    2.8140    3.4740 C   0  0  0  0  0  0  0  0  0  0  0  0
    3.6060    2.4050    2.1600 C   0  0  0  0  0  0  0  0  0  0  0  0
    2.3050   -0.0010    0.4840 C   0  0  0  0  0  0  0  0  0  0  0  0
    1.9570    0.2730    1.6800 O   0  0  0  0  0  0  0  0  0  0  0  0
    3.3660    0.1770   -1.9130 H   0  0  0  0  0  0  0  0  0  0  0  0
    3.1410   -1.4120   -1.4440 H   0  0  0  0  0  0  0  0  0  0  0  0
    4.1990   -1.0270    0.6530 H   0  0  0  0  0  0  0  0  0  0  0  0
    5.5980    0.7820    0.0370 H   0  0  0  0  0  0  0  0  0  0  0  0
    4.2670    1.8750   -0.3570 H   0  0  0  0  0  0  0  0  0  0  0  0
    6.1120    0.2400    2.3250 H   0  0  0  0  0  0  0  0  0  0  0  0
    6.1140    0.9710    4.7050 H   0  0  0  0  0  0  0  0  0  0  0  0
    4.5000    2.6210    5.4290 H   0  0  0  0  0  0  0  0  0  0  0  0
    2.8710    3.5530    3.7810 H   0  0  0  0  0  0  0  0  0  0  0  0
    2.8940    2.8270    1.4730 H   0  0  0  0  0  0  0  0  0  0  0  0
    1.2280   -0.1170   -0.4240 N   0  0  0  0  0  0  0  0  0  0  0  0
   -0.1840    0.0660   -0.0100 C   0  0  1  0  0  0  0  0  0  0  0  0
   -0.7100    1.2000   -0.8260 C   0  0  0  0  0  0  0  0  0  0  0  0
   -2.1270    1.5540   -0.5760 C   0  0  0  0  0  0  0  0  0  0  0  0
   -2.5000    2.7390   -1.4380 C   0  0  0  0  0  0  0  0  0  0  0  0
   -1.6510    3.2490   -2.2040 O   0  0  0  0  0  0  0  0  0  0  0  0
   -0.8400   -1.2290   -0.2950 C   0  0  0  0  0  0  0  0  0  0  0  0
   -0.2340   -2.1420   -0.9690 O   0  0  0  0  0  0  0  0  0  0  0  0
   -3.7660    3.2870   -1.4120 O   0  0  0  0  0  0  0  0  0  0  0  0
    1.3790   -0.3350   -1.4200 H   0  0  0  0  0  0  0  0  0  0  0  0
   -0.2450    0.2940    1.0600 H   0  0  0  0  0  0  0  0  0  0  0  0
   -0.5620    0.9740   -1.9230 H   0  0  0  0  0  0  0  0  0  0  0  0
   -0.0090    2.0670   -0.6610 H   0  0  0  0  0  0  0  0  0  0  0  0
   -2.7950    0.7070   -0.8930 H   0  0  0  0  0  0  0  0  0  0  0  0
   -2.3790    1.7910    0.4600 H   0  0  0  0  0  0  0  0  0  0  0  0
   -4.1570    3.7080   -2.2320 H   0  0  0  0  0  0  0  0  0  0  0  0
   -2.1390   -1.6020    0.1180 N   0  0  0  0  0  0  0  0  0  0  0  0
   -2.7300   -2.9010   -0.2030 C   0  0  1  0  0  0  0  0  0  0  0  0
   -3.0400   -3.6690    1.0420 C   0  0  0  0  0  0  0  0  0  0  0  0
   -3.6320   -4.9770    0.7080 C   0  0  0  0  0  0  0  0  0  0  0  0
   -4.9490   -5.3700    0.5910 C   0  0  0  0  0  0  0  0  0  0  0  0
   -5.0490   -6.6830    0.2990 N   0  0  0  0  0  0  0  0  0  0  0  0
   -3.7860   -7.1270    0.2300 C   0  0  0  0  0  0  0  0  0  0  0  0
   -2.9270   -6.1270    0.4710 N   0  0  0  0  0  0  0  0  0  0  0  0
   -3.9610   -2.7130   -1.0010 C   0  0  0  0  0  0  0  0  0  0  0  0
   -4.6030   -3.6760   -1.4710 O   0  0  0  0  0  0  0  0  0  0  0  0
   -4.4640   -1.4340   -1.2650 O   0  0  0  0  0  0  0  0  0  0  0  0
   -2.7030   -0.9550    0.6830 H   0  0  0  0  0  0  0  0  0  0  0  0
   -2.0300   -3.5220   -0.8070 H   0  0  0  0  0  0  0  0  0  0  0  0
   -2.1260   -3.8150    1.6790 H   0  0  0  0  0  0  0  0  0  0  0  0
   -3.7770   -3.1150    1.6850 H   0  0  0  0  0  0  0  0  0  0  0  0
   -5.8110   -4.7290    0.7180 H   0  0  0  0  0  0  0  0  0  0  0  0
   -5.9300   -7.2310    0.1570 H   0  0  0  0  0  0  0  0  0  0  0  0
   -3.5160   -8.1440    0.0120 H   0  0  0  0  0  0  0  0  0  0  0  0
  1  2  1  0  0  0  0
  2  3  1  0  0  0  0
  2 10  1  0  0  0  0
  2 14  1  1  0  0  0
  3  4  1  0  0  0  0
  4  9  2  0  0  0  0
  4  5  1  0  0  0  0
  5  6  2  0  0  0  0
  6  7  1  0  0  0  0
  6 18  1  0  0  0  0
  7 19  1  0  0  0  0
  8 20  1  0  0  0  0
  8  7  2  0  0  0  0
  9  8  1  0  0  0  0
 10 11  2  0  0  0  0
 12  1  1  0  0  0  0
 13  1  1  0  0  0  0
 15  3  1  0  0  0  0
 16  3  1  0  0  0  0
 17  5  1  0  0  0  0
 21  9  1  0  0  0  0
 22 23  1  0  0  0  0
 22 10  1  0  0  0  0
 23 32  1  1  0  0  0
 24 34  1  0  0  0  0
 24 25  1  0  0  0  0
 24 23  1  0  0  0  0
 25 36  1  0  0  0  0
 26 30  1  0  0  0  0
 26 25  1  0  0  0  0
 27 26  2  0  0  0  0
 28 23  1  0  0  0  0
 28 38  1  0  0  0  0
 29 28  2  0  0  0  0
 31 22  1  0  0  0  0
 33 24  1  0  0  0  0
 35 25  1  0  0  0  0
 37 30  1  0  0  0  0
 38 49  1  0  0  0  0
 39 50  1  6  0  0  0
 39 38  1  0  0  0  0
 39 40  1  0  0  0  0
 40 51  1  0  0  0  0
 40 52  1  0  0  0  0
 41 40  1  0  0  0  0
 42 41  2  0  0  0  0
 42 53  1  0  0  0  0
 43 42  1  0  0  0  0
 44 43  1  0  0  0  0
 44 45  2  0  0  0  0
 45 41  1  0  0  0  0
 46 39  1  0  0  0  0
 47 46  2  0  0  0  0
 48 46  1  0  0  0  0
 54 43  1  0  0  0  0
 55 44  1  0  0  0  0
M  END
$$$$
