FEK.pdb
 OpenBabel07022418583D

 59 59  0  0  1  0  0  0  0  0999 V2000
    2.3720    3.4910    2.9710 N   0  0  0  0  0  0  0  0  0  0  0  0
    1.4450    3.2640    1.8780 C   0  0  1  0  0  0  0  0  0  0  0  0
    2.1640    3.2610    0.5430 C   0  0  0  0  0  0  0  0  0  0  0  0
    3.2060    2.2170    0.4590 C   0  0  0  0  0  0  0  0  0  0  0  0
    2.9960    0.9350   -0.0020 C   0  0  0  0  0  0  0  0  0  0  0  0
    4.0140   -0.0030   -0.0550 C   0  0  0  0  0  0  0  0  0  0  0  0
    5.2870    0.3260    0.3600 C   0  0  0  0  0  0  0  0  0  0  0  0
    5.4960    1.6070    0.8210 C   0  0  0  0  0  0  0  0  0  0  0  0
    4.4960    2.5520    0.8810 C   0  0  0  0  0  0  0  0  0  0  0  0
    0.6870    2.0370    2.1520 C   0  0  0  0  0  0  0  0  0  0  0  0
    0.9530    1.3110    3.1450 O   0  0  0  0  0  0  0  0  0  0  0  0
    1.8650    4.0070    3.7140 H   0  0  0  0  0  0  0  0  0  0  0  0
    2.6490    2.5570    3.3700 H   0  0  0  0  0  0  0  0  0  0  0  0
    0.7570    4.1430    1.8500 H   0  0  0  0  0  0  0  0  0  0  0  0
    2.6630    4.2470    0.4530 H   0  0  0  0  0  0  0  0  0  0  0  0
    1.4060    3.1270   -0.2560 H   0  0  0  0  0  0  0  0  0  0  0  0
    1.9900    0.7130   -0.3190 H   0  0  0  0  0  0  0  0  0  0  0  0
    3.7740   -1.0000   -0.4330 H   0  0  0  0  0  0  0  0  0  0  0  0
    6.0770   -0.4210    0.3130 H   0  0  0  0  0  0  0  0  0  0  0  0
    6.5080    1.8620    1.1490 H   0  0  0  0  0  0  0  0  0  0  0  0
    4.6880    3.5610    1.2510 H   0  0  0  0  0  0  0  0  0  0  0  0
   -0.3620    1.6350    1.3150 N   0  0  0  0  0  0  0  0  0  0  0  0
   -1.1510    0.4000    1.5650 C   0  0  1  0  0  0  0  0  0  0  0  0
   -2.5130    0.9460    1.9430 C   0  0  0  0  0  0  0  0  0  0  0  0
   -3.5530   -0.0520    2.2650 C   0  0  0  0  0  0  0  0  0  0  0  0
   -4.8050    0.7090    2.6310 C   0  0  0  0  0  0  0  0  0  0  0  0
   -4.8060    1.9620    2.6160 O   0  0  0  0  0  0  0  0  0  0  0  0
   -1.1320   -0.3290    0.2800 C   0  0  0  0  0  0  0  0  0  0  0  0
   -0.6480    0.1970   -0.7880 O   0  0  0  0  0  0  0  0  0  0  0  0
   -5.9670    0.0580    2.9860 O   0  0  0  0  0  0  0  0  0  0  0  0
   -0.6470    2.1750    0.4750 H   0  0  0  0  0  0  0  0  0  0  0  0
   -0.7440   -0.1590    2.4190 H   0  0  0  0  0  0  0  0  0  0  0  0
   -2.8570    1.6870    1.1680 H   0  0  0  0  0  0  0  0  0  0  0  0
   -2.3670    1.5910    2.8590 H   0  0  0  0  0  0  0  0  0  0  0  0
   -3.3020   -0.6610    3.1560 H   0  0  0  0  0  0  0  0  0  0  0  0
   -3.7800   -0.7620    1.4430 H   0  0  0  0  0  0  0  0  0  0  0  0
   -6.6410    0.4680    3.6200 H   0  0  0  0  0  0  0  0  0  0  0  0
   -1.6220   -1.6480    0.0800 N   0  0  0  0  0  0  0  0  0  0  0  0
   -1.5660   -2.3100   -1.2270 C   0  0  1  0  0  0  0  0  0  0  0  0
   -0.7160   -3.5610   -1.1190 C   0  0  0  0  0  0  0  0  0  0  0  0
   -0.6300   -4.2430   -2.4460 C   0  0  0  0  0  0  0  0  0  0  0  0
    0.2650   -5.4600   -2.4360 C   0  0  0  0  0  0  0  0  0  0  0  0
   -0.1560   -6.5410   -1.4910 C   0  0  0  0  0  0  0  0  0  0  0  0
   -0.1700   -6.1720   -0.1110 N   0  0  0  0  0  0  0  0  0  0  0  0
   -2.9520   -2.6940   -1.5390 C   0  0  0  0  0  0  0  0  0  0  0  0
   -3.2890   -3.2070   -2.6550 O   0  0  0  0  0  0  0  0  0  0  0  0
   -4.0110   -2.5200   -0.6150 O   0  0  0  0  0  0  0  0  0  0  0  0
   -2.0210   -2.1750    0.8580 H   0  0  0  0  0  0  0  0  0  0  0  0
   -1.1350   -1.6310   -1.9850 H   0  0  0  0  0  0  0  0  0  0  0  0
    0.3070   -3.3520   -0.7780 H   0  0  0  0  0  0  0  0  0  0  0  0
   -1.2850   -4.2240   -0.4230 H   0  0  0  0  0  0  0  0  0  0  0  0
   -1.6210   -4.6420   -2.8070 H   0  0  0  0  0  0  0  0  0  0  0  0
   -0.2910   -3.5280   -3.2570 H   0  0  0  0  0  0  0  0  0  0  0  0
    1.3150   -5.1810   -2.1320 H   0  0  0  0  0  0  0  0  0  0  0  0
    0.3580   -5.8860   -3.4790 H   0  0  0  0  0  0  0  0  0  0  0  0
    0.5080   -7.4320   -1.6020 H   0  0  0  0  0  0  0  0  0  0  0  0
   -1.1750   -6.9430   -1.7770 H   0  0  0  0  0  0  0  0  0  0  0  0
   -0.1620   -7.0240    0.5070 H   0  0  0  0  0  0  0  0  0  0  0  0
    0.6310   -5.5400    0.1520 H   0  0  0  0  0  0  0  0  0  0  0  0
  1 13  1  0  0  0  0
  1 12  1  0  0  0  0
  2 14  1  6  0  0  0
  2 10  1  0  0  0  0
  2  1  1  0  0  0  0
  3  2  1  0  0  0  0
  4  3  1  0  0  0  0
  4  9  1  0  0  0  0
  5  4  2  0  0  0  0
  6  5  1  0  0  0  0
  6  7  2  0  0  0  0
  7  8  1  0  0  0  0
  8  9  2  0  0  0  0
  8 20  1  0  0  0  0
  9 21  1  0  0  0  0
 10 11  2  0  0  0  0
 15  3  1  0  0  0  0
 16  3  1  0  0  0  0
 17  5  1  0  0  0  0
 18  6  1  0  0  0  0
 19  7  1  0  0  0  0
 22 23  1  0  0  0  0
 22 10  1  0  0  0  0
 23 24  1  0  0  0  0
 23 32  1  1  0  0  0
 24 25  1  0  0  0  0
 24 34  1  0  0  0  0
 25 26  1  0  0  0  0
 25 35  1  0  0  0  0
 26 30  1  0  0  0  0
 27 26  2  0  0  0  0
 28 23  1  0  0  0  0
 29 28  2  0  0  0  0
 30 37  1  0  0  0  0
 31 22  1  0  0  0  0
 33 24  1  0  0  0  0
 36 25  1  0  0  0  0
 38 28  1  0  0  0  0
 38 48  1  0  0  0  0
 39 49  1  6  0  0  0
 39 40  1  0  0  0  0
 39 38  1  0  0  0  0
 40 50  1  0  0  0  0
 40 51  1  0  0  0  0
 41 42  1  0  0  0  0
 41 40  1  0  0  0  0
 42 54  1  0  0  0  0
 42 43  1  0  0  0  0
 43 44  1  0  0  0  0
 44 59  1  0  0  0  0
 44 58  1  0  0  0  0
 45 39  1  0  0  0  0
 45 47  1  0  0  0  0
 46 45  2  0  0  0  0
 52 41  1  0  0  0  0
 53 41  1  0  0  0  0
 55 42  1  0  0  0  0
 56 43  1  0  0  0  0
 57 43  1  0  0  0  0
M  END
$$$$
