FEP.pdb
 OpenBabel07022418583D

 52 53  0  0  1  0  0  0  0  0999 V2000
    2.7870   -1.0490    0.5840 N   0  0  0  0  0  0  0  0  0  0  0  0
    1.4740   -0.9690    1.1590 C   0  0  1  0  0  0  0  0  0  0  0  0
    1.5320   -0.0930    2.4160 C   0  0  0  0  0  0  0  0  0  0  0  0
    2.4570   -0.6620    3.4160 C   0  0  0  0  0  0  0  0  0  0  0  0
    3.7860   -0.3020    3.3760 C   0  0  0  0  0  0  0  0  0  0  0  0
    4.7030   -0.7920    4.2740 C   0  0  0  0  0  0  0  0  0  0  0  0
    4.3150   -1.6600    5.2440 C   0  0  0  0  0  0  0  0  0  0  0  0
    2.9730   -2.0270    5.2890 C   0  0  0  0  0  0  0  0  0  0  0  0
    2.0470   -1.5420    4.3940 C   0  0  0  0  0  0  0  0  0  0  0  0
    0.5720   -0.1960    0.2190 C   0  0  0  0  0  0  0  0  0  0  0  0
    1.1360    0.2770   -0.7940 O   0  0  0  0  0  0  0  0  0  0  0  0
    2.8780   -0.5260   -0.3290 H   0  0  0  0  0  0  0  0  0  0  0  0
    3.0040   -2.0680    0.3740 H   0  0  0  0  0  0  0  0  0  0  0  0
    1.0390   -1.9400    1.4240 H   0  0  0  0  0  0  0  0  0  0  0  0
    1.9420    0.8870    2.0910 H   0  0  0  0  0  0  0  0  0  0  0  0
    0.5110    0.0820    2.7920 H   0  0  0  0  0  0  0  0  0  0  0  0
    4.1620    0.3940    2.6220 H   0  0  0  0  0  0  0  0  0  0  0  0
    5.7380   -0.4940    4.2220 H   0  0  0  0  0  0  0  0  0  0  0  0
    5.0420   -2.0580    5.9690 H   0  0  0  0  0  0  0  0  0  0  0  0
    2.6680   -2.7150    6.0570 H   0  0  0  0  0  0  0  0  0  0  0  0
    0.9970   -1.8270    4.4280 H   0  0  0  0  0  0  0  0  0  0  0  0
   -0.8060   -0.0520    0.5160 N   0  0  0  0  0  0  0  0  0  0  0  0
   -1.7470    0.6490   -0.2610 C   0  0  1  0  0  0  0  0  0  0  0  0
   -1.0610    1.8570   -0.9600 C   0  0  0  0  0  0  0  0  0  0  0  0
   -0.5050    2.7770    0.0580 C   0  0  0  0  0  0  0  0  0  0  0  0
   -1.5760    3.3180    0.9530 C   0  0  0  0  0  0  0  0  0  0  0  0
   -1.8280    2.7820    2.0440 O   0  0  0  0  0  0  0  0  0  0  0  0
   -2.5560   -0.0680   -1.2220 C   0  0  0  0  0  0  0  0  0  0  0  0
   -3.4230    0.6750   -1.8560 O   0  0  0  0  0  0  0  0  0  0  0  0
   -2.2660    4.4360    0.5080 O   0  0  0  0  0  0  0  0  0  0  0  0
   -1.1070   -0.5190    1.4400 H   0  0  0  0  0  0  0  0  0  0  0  0
   -2.4320    1.2460    0.4610 H   0  0  0  0  0  0  0  0  0  0  0  0
   -0.3580    1.5760   -1.7200 H   0  0  0  0  0  0  0  0  0  0  0  0
   -1.9270    2.4240   -1.4490 H   0  0  0  0  0  0  0  0  0  0  0  0
    0.2670    2.3060    0.6890 H   0  0  0  0  0  0  0  0  0  0  0  0
   -0.0040    3.6500   -0.4510 H   0  0  0  0  0  0  0  0  0  0  0  0
   -3.1610    4.7070    0.9190 H   0  0  0  0  0  0  0  0  0  0  0  0
   -2.5340   -1.4150   -1.5580 N   0  0  0  0  0  0  0  0  0  0  0  0
   -3.3950   -1.9840   -2.5770 C   0  0  0  0  0  0  0  0  0  0  0  0
   -3.5750   -3.4120   -2.1570 C   0  0  0  0  0  0  0  0  0  0  0  0
   -2.7730   -3.6040   -0.9050 C   0  0  0  0  0  0  0  0  0  0  0  0
   -1.7340   -2.4720   -1.0570 C   0  0  1  0  0  0  0  0  0  0  0  0
   -0.6300   -2.8790   -1.9280 C   0  0  0  0  0  0  0  0  0  0  0  0
   -0.4190   -2.2740   -2.9970 O   0  0  0  0  0  0  0  0  0  0  0  0
    0.1890   -3.9300   -1.5870 O   0  0  0  0  0  0  0  0  0  0  0  0
   -4.3680   -1.4350   -2.5490 H   0  0  0  0  0  0  0  0  0  0  0  0
   -2.9310   -1.8980   -3.5920 H   0  0  0  0  0  0  0  0  0  0  0  0
   -3.1360   -4.0830   -2.9590 H   0  0  0  0  0  0  0  0  0  0  0  0
   -4.6370   -3.7010   -1.9950 H   0  0  0  0  0  0  0  0  0  0  0  0
   -3.3240   -3.5260    0.0310 H   0  0  0  0  0  0  0  0  0  0  0  0
   -2.1460   -4.5440   -0.9690 H   0  0  0  0  0  0  0  0  0  0  0  0
   -1.3920   -2.2470   -0.0200 H   0  0  0  0  0  0  0  0  0  0  0  0
  1  2  1  0  0  0  0
  2 14  1  1  0  0  0
  2  3  1  0  0  0  0
  3 16  1  0  0  0  0
  3  4  1  0  0  0  0
  4  9  1  0  0  0  0
  5  4  2  0  0  0  0
  5  6  1  0  0  0  0
  6  7  2  0  0  0  0
  7  8  1  0  0  0  0
  7 19  1  0  0  0  0
  8 20  1  0  0  0  0
  9 21  1  0  0  0  0
  9  8  2  0  0  0  0
 10 22  1  0  0  0  0
 10  2  1  0  0  0  0
 11 10  2  0  0  0  0
 12  1  1  0  0  0  0
 13  1  1  0  0  0  0
 15  3  1  0  0  0  0
 17  5  1  0  0  0  0
 18  6  1  0  0  0  0
 22 31  1  0  0  0  0
 23 32  1  1  0  0  0
 23 22  1  0  0  0  0
 24 23  1  0  0  0  0
 24 25  1  0  0  0  0
 25 35  1  0  0  0  0
 25 26  1  0  0  0  0
 26 27  2  0  0  0  0
 28 23  1  0  0  0  0
 29 28  2  0  0  0  0
 30 37  1  0  0  0  0
 30 26  1  0  0  0  0
 33 24  1  0  0  0  0
 34 24  1  0  0  0  0
 36 25  1  0  0  0  0
 38 28  1  0  0  0  0
 38 42  1  0  0  0  0
 39 46  1  0  0  0  0
 39 40  1  0  0  0  0
 39 38  1  0  0  0  0
 40 49  1  0  0  0  0
 40 41  1  0  0  0  0
 41 50  1  0  0  0  0
 42 41  1  0  0  0  0
 42 52  1  1  0  0  0
 43 45  1  0  0  0  0
 43 42  1  0  0  0  0
 44 43  2  0  0  0  0
 47 39  1  0  0  0  0
 48 40  1  0  0  0  0
 51 41  1  0  0  0  0
M  END
$$$$
