FEQ.pdb
 OpenBabel07022418583D

 55 55  0  0  1  0  0  0  0  0999 V2000
    0.6020    1.0010    3.6570 N   0  0  0  0  0  0  0  0  0  0  0  0
    1.2890    1.8100    2.7110 C   0  0  1  0  0  0  0  0  0  0  0  0
    2.7780    1.5890    2.7130 C   0  0  0  0  0  0  0  0  0  0  0  0
    3.0930    0.1910    2.3950 C   0  0  0  0  0  0  0  0  0  0  0  0
    3.2980   -0.1960    1.1000 C   0  0  0  0  0  0  0  0  0  0  0  0
    3.5890   -1.5240    0.8030 C   0  0  0  0  0  0  0  0  0  0  0  0
    3.6740   -2.4540    1.7980 C   0  0  0  0  0  0  0  0  0  0  0  0
    3.4690   -2.0830    3.1200 C   0  0  0  0  0  0  0  0  0  0  0  0
    3.1780   -0.7450    3.3930 C   0  0  0  0  0  0  0  0  0  0  0  0
    0.7800    1.6860    1.3140 C   0  0  0  0  0  0  0  0  0  0  0  0
    1.3080    2.3510    0.3930 O   0  0  0  0  0  0  0  0  0  0  0  0
    0.5450    1.3770    4.6040 H   0  0  0  0  0  0  0  0  0  0  0  0
    0.6790   -0.0170    3.5510 H   0  0  0  0  0  0  0  0  0  0  0  0
    1.1040    2.8840    3.0050 H   0  0  0  0  0  0  0  0  0  0  0  0
    3.2360    1.8710    3.6880 H   0  0  0  0  0  0  0  0  0  0  0  0
    3.2750    2.2610    1.9640 H   0  0  0  0  0  0  0  0  0  0  0  0
    3.2480    0.4970    0.2750 H   0  0  0  0  0  0  0  0  0  0  0  0
    3.7510   -1.8110   -0.2180 H   0  0  0  0  0  0  0  0  0  0  0  0
    3.8950   -3.4760    1.5850 H   0  0  0  0  0  0  0  0  0  0  0  0
    3.5370   -2.8290    3.8980 H   0  0  0  0  0  0  0  0  0  0  0  0
    3.0150   -0.4480    4.4200 H   0  0  0  0  0  0  0  0  0  0  0  0
   -0.3000    0.8280    0.9850 N   0  0  0  0  0  0  0  0  0  0  0  0
   -0.9090    0.6120   -0.2640 C   0  0  1  0  0  0  0  0  0  0  0  0
   -0.7010    1.6750   -1.3380 C   0  0  0  0  0  0  0  0  0  0  0  0
   -1.2730    3.0060   -1.0160 C   0  0  0  0  0  0  0  0  0  0  0  0
   -2.7580    2.8440   -0.8260 C   0  0  0  0  0  0  0  0  0  0  0  0
   -3.1980    2.8480    0.3630 O   0  0  0  0  0  0  0  0  0  0  0  0
   -0.8720   -0.7070   -0.8570 C   0  0  0  0  0  0  0  0  0  0  0  0
   -1.3790   -0.8500   -2.0120 O   0  0  0  0  0  0  0  0  0  0  0  0
   -3.5650    2.6950   -1.9370 O   0  0  0  0  0  0  0  0  0  0  0  0
   -0.6840    0.2810    1.8350 H   0  0  0  0  0  0  0  0  0  0  0  0
   -2.0570    0.8370   -0.0490 H   0  0  0  0  0  0  0  0  0  0  0  0
   -1.2150    1.2540   -2.2530 H   0  0  0  0  0  0  0  0  0  0  0  0
    0.3730    1.7270   -1.6710 H   0  0  0  0  0  0  0  0  0  0  0  0
   -1.0960    3.6650   -1.9010 H   0  0  0  0  0  0  0  0  0  0  0  0
   -0.8820    3.4320   -0.1100 H   0  0  0  0  0  0  0  0  0  0  0  0
   -4.5700    2.8010   -1.7880 H   0  0  0  0  0  0  0  0  0  0  0  0
   -4.8100   -4.7760    0.6820 N   0  0  0  0  0  0  0  0  0  0  0  0
   -3.8950   -4.4320   -0.3390 C   0  0  0  0  0  0  0  0  0  0  0  0
   -4.1970   -4.5550   -1.5410 O   0  0  0  0  0  0  0  0  0  0  0  0
   -2.5380   -3.9100    0.0030 C   0  0  0  0  0  0  0  0  0  0  0  0
   -1.7090   -3.7010   -1.2170 C   0  0  0  0  0  0  0  0  0  0  0  0
   -0.3270   -3.1790   -0.9520 C   0  0  2  0  0  0  0  0  0  0  0  0
   -0.3250   -1.8890   -0.2860 N   0  0  0  0  0  0  0  0  0  0  0  0
    0.3960   -3.0410   -2.2510 C   0  0  0  0  0  0  0  0  0  0  0  0
    0.5400   -4.0190   -3.0290 O   0  0  0  0  0  0  0  0  0  0  0  0
    0.9490   -1.8440   -2.6830 O   0  0  0  0  0  0  0  0  0  0  0  0
   -4.5920   -4.5830    1.6730 H   0  0  0  0  0  0  0  0  0  0  0  0
   -5.7070   -5.2270    0.4360 H   0  0  0  0  0  0  0  0  0  0  0  0
   -2.7200   -2.9780    0.5790 H   0  0  0  0  0  0  0  0  0  0  0  0
   -2.0700   -4.6310    0.7240 H   0  0  0  0  0  0  0  0  0  0  0  0
   -1.6400   -4.6770   -1.7520 H   0  0  0  0  0  0  0  0  0  0  0  0
   -2.2610   -2.9960   -1.8780 H   0  0  0  0  0  0  0  0  0  0  0  0
    0.2830   -3.9220   -0.3740 H   0  0  0  0  0  0  0  0  0  0  0  0
    0.0930   -1.7610    0.6730 H   0  0  0  0  0  0  0  0  0  0  0  0
  1 12  1  0  0  0  0
  2  3  1  0  0  0  0
  2 14  1  1  0  0  0
  2  1  1  0  0  0  0
  3 15  1  0  0  0  0
  4  3  1  0  0  0  0
  4  9  1  0  0  0  0
  5  4  2  0  0  0  0
  6  5  1  0  0  0  0
  6  7  2  0  0  0  0
  7  8  1  0  0  0  0
  8  9  2  0  0  0  0
  8 20  1  0  0  0  0
  9 21  1  0  0  0  0
 10  2  1  0  0  0  0
 11 10  2  0  0  0  0
 13  1  1  0  0  0  0
 16  3  1  0  0  0  0
 17  5  1  0  0  0  0
 18  6  1  0  0  0  0
 19  7  1  0  0  0  0
 22 10  1  0  0  0  0
 22 31  1  0  0  0  0
 23 32  1  1  0  0  0
 23 22  1  0  0  0  0
 24 25  1  0  0  0  0
 24 23  1  0  0  0  0
 25 26  1  0  0  0  0
 25 36  1  0  0  0  0
 26 27  2  0  0  0  0
 28 44  1  0  0  0  0
 28 23  1  0  0  0  0
 29 28  2  0  0  0  0
 30 37  1  0  0  0  0
 30 26  1  0  0  0  0
 33 24  1  0  0  0  0
 34 24  1  0  0  0  0
 35 25  1  0  0  0  0
 38 48  1  0  0  0  0
 39 41  1  0  0  0  0
 39 38  1  0  0  0  0
 40 39  2  0  0  0  0
 41 50  1  0  0  0  0
 41 51  1  0  0  0  0
 42 43  1  0  0  0  0
 42 41  1  0  0  0  0
 43 54  1  1  0  0  0
 43 44  1  0  0  0  0
 44 55  1  0  0  0  0
 45 43  1  0  0  0  0
 46 45  2  0  0  0  0
 47 45  1  0  0  0  0
 49 38  1  0  0  0  0
 52 42  1  0  0  0  0
 53 42  1  0  0  0  0
M  END
$$$$
