FER.pdb
 OpenBabel07022418583D

 61 61  0  0  1  0  0  0  0  0999 V2000
    2.5000    1.4000    1.8760 N   0  0  0  0  0  0  0  0  0  0  0  0
    2.7530    0.0020    2.2450 C   0  0  1  0  0  0  0  0  0  0  0  0
    3.0530   -0.0330    3.7490 C   0  0  0  0  0  0  0  0  0  0  0  0
    4.2160    0.7670    4.1060 C   0  0  0  0  0  0  0  0  0  0  0  0
    4.0520    2.0910    4.4360 C   0  0  0  0  0  0  0  0  0  0  0  0
    5.1500    2.8630    4.7770 C   0  0  0  0  0  0  0  0  0  0  0  0
    6.3920    2.2930    4.7820 C   0  0  0  0  0  0  0  0  0  0  0  0
    6.5600    0.9710    4.4530 C   0  0  0  0  0  0  0  0  0  0  0  0
    5.4700    0.2090    4.1160 C   0  0  0  0  0  0  0  0  0  0  0  0
    1.5170   -0.8120    2.0830 C   0  0  0  0  0  0  0  0  0  0  0  0
    1.6060   -2.0290    2.3680 O   0  0  0  0  0  0  0  0  0  0  0  0
    2.1550    1.4610    0.9050 H   0  0  0  0  0  0  0  0  0  0  0  0
    1.7820    1.7430    2.5800 H   0  0  0  0  0  0  0  0  0  0  0  0
    3.5810   -0.4050    1.6530 H   0  0  0  0  0  0  0  0  0  0  0  0
    3.1830   -1.1210    4.0140 H   0  0  0  0  0  0  0  0  0  0  0  0
    2.1110    0.2770    4.2520 H   0  0  0  0  0  0  0  0  0  0  0  0
    3.0590    2.5680    4.4380 H   0  0  0  0  0  0  0  0  0  0  0  0
    5.0030    3.8950    5.0310 H   0  0  0  0  0  0  0  0  0  0  0  0
    7.2910    2.8680    5.0470 H   0  0  0  0  0  0  0  0  0  0  0  0
    7.5450    0.5470    4.4650 H   0  0  0  0  0  0  0  0  0  0  0  0
    5.6640   -0.8320    3.8650 H   0  0  0  0  0  0  0  0  0  0  0  0
    0.2830   -0.3040    1.6380 N   0  0  0  0  0  0  0  0  0  0  0  0
   -0.9220   -1.0870    1.4770 C   0  0  1  0  0  0  0  0  0  0  0  0
   -1.9660   -0.5960    2.4550 C   0  0  0  0  0  0  0  0  0  0  0  0
   -2.2980    0.8690    2.2140 C   0  0  0  0  0  0  0  0  0  0  0  0
   -3.3290    1.3250    3.1900 C   0  0  0  0  0  0  0  0  0  0  0  0
   -3.7670    2.5000    3.1910 O   0  0  0  0  0  0  0  0  0  0  0  0
   -1.4140   -1.1030    0.0880 C   0  0  0  0  0  0  0  0  0  0  0  0
   -0.8130   -0.4880   -0.8150 O   0  0  0  0  0  0  0  0  0  0  0  0
   -3.8180    0.4310    4.1200 O   0  0  0  0  0  0  0  0  0  0  0  0
    0.2490    0.7140    1.4100 H   0  0  0  0  0  0  0  0  0  0  0  0
   -0.7440   -2.1670    1.7550 H   0  0  0  0  0  0  0  0  0  0  0  0
   -1.4720   -0.6250    3.4670 H   0  0  0  0  0  0  0  0  0  0  0  0
   -2.8490   -1.2230    2.5230 H   0  0  0  0  0  0  0  0  0  0  0  0
   -2.6850    1.0460    1.1900 H   0  0  0  0  0  0  0  0  0  0  0  0
   -1.3930    1.5010    2.3250 H   0  0  0  0  0  0  0  0  0  0  0  0
   -4.3100    0.6820    4.9510 H   0  0  0  0  0  0  0  0  0  0  0  0
    0.8100   -2.7880   -5.2840 N   0  0  0  0  0  0  0  0  0  0  0  0
   -0.5850   -2.7740   -5.4490 C   0  0  0  0  0  0  0  0  0  0  0  0
   -1.0850   -2.2310   -6.5260 N   0  0  0  0  0  0  0  0  0  0  0  0
   -1.4980   -3.3200   -4.5070 N   0  0  0  0  0  0  0  0  0  0  0  0
   -2.8440   -2.8150   -4.5030 C   0  0  0  0  0  0  0  0  0  0  0  0
   -3.7050   -3.4810   -3.4550 C   0  0  0  0  0  0  0  0  0  0  0  0
   -3.1970   -3.2970   -2.0710 C   0  0  0  0  0  0  0  0  0  0  0  0
   -3.0960   -1.8540   -1.6300 C   0  0  2  0  0  0  0  0  0  0  0  0
   -2.5820   -1.8190   -0.2520 N   0  0  0  0  0  0  0  0  0  0  0  0
   -4.4350   -1.2400   -1.6460 C   0  0  0  0  0  0  0  0  0  0  0  0
   -5.1010   -1.1300   -2.7010 O   0  0  0  0  0  0  0  0  0  0  0  0
   -4.9770   -0.7700   -0.4660 O   0  0  0  0  0  0  0  0  0  0  0  0
    1.3800   -2.0360   -5.7300 H   0  0  0  0  0  0  0  0  0  0  0  0
    1.3440   -3.5070   -4.7360 H   0  0  0  0  0  0  0  0  0  0  0  0
   -0.4810   -1.8160   -7.2500 H   0  0  0  0  0  0  0  0  0  0  0  0
   -1.1310   -4.0620   -3.8710 H   0  0  0  0  0  0  0  0  0  0  0  0
   -2.9030   -1.7290   -4.3270 H   0  0  0  0  0  0  0  0  0  0  0  0
   -3.3050   -3.0370   -5.4880 H   0  0  0  0  0  0  0  0  0  0  0  0
   -4.7470   -3.2270   -3.6340 H   0  0  0  0  0  0  0  0  0  0  0  0
   -3.6260   -4.5880   -3.6730 H   0  0  0  0  0  0  0  0  0  0  0  0
   -2.1860   -3.7260   -2.0020 H   0  0  0  0  0  0  0  0  0  0  0  0
   -3.8360   -3.8480   -1.3700 H   0  0  0  0  0  0  0  0  0  0  0  0
   -2.4470   -1.2590   -2.2980 H   0  0  0  0  0  0  0  0  0  0  0  0
   -3.0710   -2.3270    0.5160 H   0  0  0  0  0  0  0  0  0  0  0  0
  1  2  1  0  0  0  0
  1 13  1  0  0  0  0
  2 14  1  6  0  0  0
  2  3  1  0  0  0  0
  3 15  1  0  0  0  0
  3  4  1  0  0  0  0
  3 16  1  0  0  0  0
  4  9  2  0  0  0  0
  4  5  1  0  0  0  0
  5 17  1  0  0  0  0
  5  6  2  0  0  0  0
  6  7  1  0  0  0  0
  6 18  1  0  0  0  0
  7 19  1  0  0  0  0
  8 20  1  0  0  0  0
  8  7  2  0  0  0  0
  9  8  1  0  0  0  0
 10  2  1  0  0  0  0
 10 11  2  0  0  0  0
 12  1  1  0  0  0  0
 21  9  1  0  0  0  0
 22 10  1  0  0  0  0
 23 22  1  0  0  0  0
 23 32  1  1  0  0  0
 23 24  1  0  0  0  0
 24 34  1  0  0  0  0
 24 33  1  0  0  0  0
 25 36  1  0  0  0  0
 25 24  1  0  0  0  0
 25 26  1  0  0  0  0
 26 27  2  0  0  0  0
 26 30  1  0  0  0  0
 28 23  1  0  0  0  0
 29 28  2  0  0  0  0
 30 37  1  0  0  0  0
 31 22  1  0  0  0  0
 35 25  1  0  0  0  0
 38 51  1  0  0  0  0
 39 38  1  0  0  0  0
 39 41  1  0  0  0  0
 40 39  2  0  0  0  0
 41 42  1  0  0  0  0
 41 53  1  0  0  0  0
 42 54  1  0  0  0  0
 42 43  1  0  0  0  0
 43 44  1  0  0  0  0
 44 58  1  0  0  0  0
 44 45  1  0  0  0  0
 44 59  1  0  0  0  0
 45 60  1  6  0  0  0
 45 46  1  0  0  0  0
 46 28  1  0  0  0  0
 46 61  1  0  0  0  0
 47 45  1  0  0  0  0
 47 49  1  0  0  0  0
 48 47  2  0  0  0  0
 50 38  1  0  0  0  0
 52 40  1  0  0  0  0
 55 42  1  0  0  0  0
 56 43  1  0  0  0  0
 57 43  1  0  0  0  0
M  END
$$$$
