FES.pdb
 OpenBabel07022418583D

 49 49  0  0  1  0  0  0  0  0999 V2000
    0.9330   -1.8280    3.9180 N   0  0  0  0  0  0  0  0  0  0  0  0
    1.8820   -1.3310    2.9460 C   0  0  1  0  0  0  0  0  0  0  0  0
    2.6330   -2.5090    2.3850 C   0  0  0  0  0  0  0  0  0  0  0  0
    3.6350   -2.1660    1.3750 C   0  0  0  0  0  0  0  0  0  0  0  0
    3.3770   -2.1310    0.0200 C   0  0  0  0  0  0  0  0  0  0  0  0
    4.3890   -1.7860   -0.8500 C   0  0  0  0  0  0  0  0  0  0  0  0
    5.6440   -1.4760   -0.4250 C   0  0  0  0  0  0  0  0  0  0  0  0
    5.9100   -1.5090    0.9220 C   0  0  0  0  0  0  0  0  0  0  0  0
    4.9130   -1.8520    1.8170 C   0  0  0  0  0  0  0  0  0  0  0  0
    1.1410   -0.5700    1.9060 C   0  0  0  0  0  0  0  0  0  0  0  0
    1.8190   -0.0460    1.0020 O   0  0  0  0  0  0  0  0  0  0  0  0
    0.9500   -2.8580    3.9860 H   0  0  0  0  0  0  0  0  0  0  0  0
    0.9670   -1.3470    4.8220 H   0  0  0  0  0  0  0  0  0  0  0  0
    2.5460   -0.6310    3.4960 H   0  0  0  0  0  0  0  0  0  0  0  0
    1.8870   -3.2180    1.9660 H   0  0  0  0  0  0  0  0  0  0  0  0
    3.1300   -3.0350    3.2230 H   0  0  0  0  0  0  0  0  0  0  0  0
    2.3750   -2.3840   -0.2940 H   0  0  0  0  0  0  0  0  0  0  0  0
    4.1830   -1.7600   -1.9030 H   0  0  0  0  0  0  0  0  0  0  0  0
    6.4580   -1.2000   -1.1030 H   0  0  0  0  0  0  0  0  0  0  0  0
    6.9080   -1.2630    1.2820 H   0  0  0  0  0  0  0  0  0  0  0  0
    5.1930   -1.8570    2.8580 H   0  0  0  0  0  0  0  0  0  0  0  0
   -0.2480   -0.4630    1.9630 N   0  0  0  0  0  0  0  0  0  0  0  0
   -1.1270    0.2340    1.0730 C   0  0  1  0  0  0  0  0  0  0  0  0
   -0.4130    1.3680    0.3930 C   0  0  0  0  0  0  0  0  0  0  0  0
    0.0540    2.3640    1.4240 C   0  0  0  0  0  0  0  0  0  0  0  0
   -1.0700    3.0180    2.1500 C   0  0  0  0  0  0  0  0  0  0  0  0
   -0.8380    3.5850    3.2290 O   0  0  0  0  0  0  0  0  0  0  0  0
   -1.8250   -0.6890    0.1820 C   0  0  0  0  0  0  0  0  0  0  0  0
   -1.6160   -1.9240    0.2820 O   0  0  0  0  0  0  0  0  0  0  0  0
   -2.3320    2.9800    1.6010 O   0  0  0  0  0  0  0  0  0  0  0  0
   -0.7310   -0.9630    2.7710 H   0  0  0  0  0  0  0  0  0  0  0  0
   -1.9170    0.7850    1.7100 H   0  0  0  0  0  0  0  0  0  0  0  0
   -1.1180    1.8950   -0.3240 H   0  0  0  0  0  0  0  0  0  0  0  0
    0.4270    1.0740   -0.2460 H   0  0  0  0  0  0  0  0  0  0  0  0
    0.6900    1.9320    2.2240 H   0  0  0  0  0  0  0  0  0  0  0  0
    0.6930    3.1640    0.9560 H   0  0  0  0  0  0  0  0  0  0  0  0
   -3.0110    3.7010    1.8700 H   0  0  0  0  0  0  0  0  0  0  0  0
   -5.1430   -1.4980   -0.0670 O   0  0  0  0  0  0  0  0  0  0  0  0
   -4.9170   -1.1440   -1.3960 C   0  0  0  0  0  0  0  0  0  0  0  0
   -3.4290   -1.1930   -1.6900 C   0  0  2  0  0  0  0  0  0  0  0  0
   -2.7440   -0.2620   -0.8120 N   0  0  0  0  0  0  0  0  0  0  0  0
   -3.1440   -0.9470   -3.1050 C   0  0  0  0  0  0  0  0  0  0  0  0
   -2.3790   -0.0230   -3.4420 O   0  0  0  0  0  0  0  0  0  0  0  0
   -3.7210   -1.7360   -4.0720 O   0  0  0  0  0  0  0  0  0  0  0  0
   -6.0950   -1.7720    0.0530 H   0  0  0  0  0  0  0  0  0  0  0  0
   -5.3940   -1.9020   -2.0280 H   0  0  0  0  0  0  0  0  0  0  0  0
   -5.2910   -0.1040   -1.5920 H   0  0  0  0  0  0  0  0  0  0  0  0
   -3.0860   -2.2240   -1.3740 H   0  0  0  0  0  0  0  0  0  0  0  0
   -2.9470    0.7700   -0.9280 H   0  0  0  0  0  0  0  0  0  0  0  0
  1 12  1  0  0  0  0
  1 13  1  0  0  0  0
  2 14  1  1  0  0  0
  2  1  1  0  0  0  0
  3  2  1  0  0  0  0
  3 16  1  0  0  0  0
  4  9  1  0  0  0  0
  4  3  1  0  0  0  0
  5  4  2  0  0  0  0
  6  7  2  0  0  0  0
  6  5  1  0  0  0  0
  7  8  1  0  0  0  0
  8 20  1  0  0  0  0
  8  9  2  0  0  0  0
  9 21  1  0  0  0  0
 10 22  1  0  0  0  0
 10  2  1  0  0  0  0
 11 10  2  0  0  0  0
 15  3  1  0  0  0  0
 17  5  1  0  0  0  0
 18  6  1  0  0  0  0
 19  7  1  0  0  0  0
 22 31  1  0  0  0  0
 23 32  1  1  0  0  0
 23 22  1  0  0  0  0
 24 23  1  0  0  0  0
 24 25  1  0  0  0  0
 25 26  1  0  0  0  0
 25 35  1  0  0  0  0
 26 27  2  0  0  0  0
 28 29  2  0  0  0  0
 28 23  1  0  0  0  0
 30 37  1  0  0  0  0
 30 26  1  0  0  0  0
 33 24  1  0  0  0  0
 34 24  1  0  0  0  0
 36 25  1  0  0  0  0
 38 45  1  0  0  0  0
 39 38  1  0  0  0  0
 40 39  1  0  0  0  0
 40 48  1  1  0  0  0
 40 41  1  0  0  0  0
 41 28  1  0  0  0  0
 42 40  1  0  0  0  0
 43 42  1  0  0  0  0
 44 42  2  0  0  0  0
 46 39  1  0  0  0  0
 47 39  1  0  0  0  0
 49 41  1  0  0  0  0
M  END
$$$$
