FFC.pdb
 OpenBabel07022419003D

 53 54  0  0  1  0  0  0  0  0999 V2000
    2.5150    2.9320   -0.4100 N   0  0  0  0  0  0  0  0  0  0  0  0
    1.6560    1.9150   -0.9720 C   0  0  1  0  0  0  0  0  0  0  0  0
    2.5930    0.7790   -1.4040 C   0  0  0  0  0  0  0  0  0  0  0  0
    3.3260    0.3000   -0.1890 C   0  0  0  0  0  0  0  0  0  0  0  0
    2.8550   -0.6970    0.6360 C   0  0  0  0  0  0  0  0  0  0  0  0
    3.5630   -1.1110    1.7450 C   0  0  0  0  0  0  0  0  0  0  0  0
    4.7720   -0.5400    2.0690 C   0  0  0  0  0  0  0  0  0  0  0  0
    5.2550    0.4580    1.2520 C   0  0  0  0  0  0  0  0  0  0  0  0
    4.5500    0.8740    0.1420 C   0  0  0  0  0  0  0  0  0  0  0  0
    0.7200    1.3640    0.0280 C   0  0  0  0  0  0  0  0  0  0  0  0
    0.7740    1.7050    1.2490 O   0  0  0  0  0  0  0  0  0  0  0  0
    3.0510    3.4120   -1.1660 H   0  0  0  0  0  0  0  0  0  0  0  0
    1.9240    3.6900    0.0410 H   0  0  0  0  0  0  0  0  0  0  0  0
    1.1540    2.3470   -1.8480 H   0  0  0  0  0  0  0  0  0  0  0  0
    1.9350   -0.0270   -1.7700 H   0  0  0  0  0  0  0  0  0  0  0  0
    3.3300    1.1310   -2.1360 H   0  0  0  0  0  0  0  0  0  0  0  0
    1.9120   -1.1300    0.3730 H   0  0  0  0  0  0  0  0  0  0  0  0
    3.1860   -1.8910    2.3840 H   0  0  0  0  0  0  0  0  0  0  0  0
    5.3530   -0.8460    2.9360 H   0  0  0  0  0  0  0  0  0  0  0  0
    6.1990    0.9210    1.4830 H   0  0  0  0  0  0  0  0  0  0  0  0
    4.9290    1.6560   -0.4970 H   0  0  0  0  0  0  0  0  0  0  0  0
   -0.2990    0.4210   -0.3150 N   0  0  0  0  0  0  0  0  0  0  0  0
   -1.1940   -0.0890    0.7050 C   0  0  1  0  0  0  0  0  0  0  0  0
   -2.5240    0.5900    0.4580 C   0  0  0  0  0  0  0  0  0  0  0  0
   -3.5890    0.2150    1.3870 C   0  0  0  0  0  0  0  0  0  0  0  0
   -3.7360    0.9460    2.5430 C   0  0  0  0  0  0  0  0  0  0  0  0
   -4.7000    0.6980    3.4980 C   0  0  0  0  0  0  0  0  0  0  0  0
   -5.5590   -0.3530    3.2620 C   0  0  0  0  0  0  0  0  0  0  0  0
   -5.4220   -1.0960    2.1040 C   0  0  0  0  0  0  0  0  0  0  0  0
   -4.4510   -0.8300    1.1620 C   0  0  0  0  0  0  0  0  0  0  0  0
   -1.2900   -1.5440    0.7510 C   0  0  0  0  0  0  0  0  0  0  0  0
   -2.0360   -2.0730    1.6150 O   0  0  0  0  0  0  0  0  0  0  0  0
   -0.4110    0.0900   -1.2900 H   0  0  0  0  0  0  0  0  0  0  0  0
   -0.8690    0.2710    1.7210 H   0  0  0  0  0  0  0  0  0  0  0  0
   -2.8970    0.3770   -0.5850 H   0  0  0  0  0  0  0  0  0  0  0  0
   -2.3980    1.6910    0.5020 H   0  0  0  0  0  0  0  0  0  0  0  0
   -3.0670    1.7960    2.7670 H   0  0  0  0  0  0  0  0  0  0  0  0
   -4.7630    1.3100    4.3850 H   0  0  0  0  0  0  0  0  0  0  0  0
   -6.3110   -0.5490    4.0040 H   0  0  0  0  0  0  0  0  0  0  0  0
   -6.1170   -1.9210    1.9470 H   0  0  0  0  0  0  0  0  0  0  0  0
   -4.3710   -1.4470    0.2470 H   0  0  0  0  0  0  0  0  0  0  0  0
   -0.6020   -2.4370   -0.1130 N   0  0  0  0  0  0  0  0  0  0  0  0
   -0.7390   -3.8740   -0.0280 C   0  0  1  0  0  0  0  0  0  0  0  0
   -1.3220   -4.4660   -1.2930 C   0  0  0  0  0  0  0  0  0  0  0  0
   -0.2990   -4.1310   -2.7460 S   0  0  0  0  0  0  0  0  0  0  0  0
    0.5620   -4.5020    0.2010 C   0  0  0  0  0  0  0  0  0  0  0  0
    0.5980   -5.7730    0.3020 O   0  0  0  0  0  0  0  0  0  0  0  0
    1.7720   -3.8490    0.3210 O   0  0  0  0  0  0  0  0  0  0  0  0
    0.0220   -2.0130   -0.8300 H   0  0  0  0  0  0  0  0  0  0  0  0
   -1.4240   -4.1810    0.7910 H   0  0  0  0  0  0  0  0  0  0  0  0
   -2.3830   -4.1650   -1.4350 H   0  0  0  0  0  0  0  0  0  0  0  0
   -1.3290   -5.5720   -1.1450 H   0  0  0  0  0  0  0  0  0  0  0  0
   -1.1710   -3.9510   -3.8450 H   0  0  0  0  0  0  0  0  0  0  0  0
  1 13  1  0  0  0  0
  2 14  1  6  0  0  0
  2  1  1  0  0  0  0
  2 10  1  0  0  0  0
  3  2  1  0  0  0  0
  3  4  1  0  0  0  0
  4  9  2  0  0  0  0
  4  5  1  0  0  0  0
  5  6  2  0  0  0  0
  6  7  1  0  0  0  0
  6 18  1  0  0  0  0
  7 19  1  0  0  0  0
  8 20  1  0  0  0  0
  8  7  2  0  0  0  0
  9  8  1  0  0  0  0
 10 11  2  0  0  0  0
 12  1  1  0  0  0  0
 15  3  1  0  0  0  0
 16  3  1  0  0  0  0
 17  5  1  0  0  0  0
 21  9  1  0  0  0  0
 22 10  1  0  0  0  0
 22 23  1  0  0  0  0
 23 31  1  0  0  0  0
 23 34  1  1  0  0  0
 24 36  1  0  0  0  0
 24 23  1  0  0  0  0
 24 25  1  0  0  0  0
 25 26  1  0  0  0  0
 26 37  1  0  0  0  0
 26 27  2  0  0  0  0
 27 38  1  0  0  0  0
 28 27  1  0  0  0  0
 28 39  1  0  0  0  0
 29 28  2  0  0  0  0
 30 25  2  0  0  0  0
 30 29  1  0  0  0  0
 31 32  2  0  0  0  0
 33 22  1  0  0  0  0
 35 24  1  0  0  0  0
 40 29  1  0  0  0  0
 41 30  1  0  0  0  0
 42 43  1  0  0  0  0
 42 31  1  0  0  0  0
 43 46  1  0  0  0  0
 43 50  1  1  0  0  0
 44 52  1  0  0  0  0
 44 43  1  0  0  0  0
 45 44  1  0  0  0  0
 46 47  2  0  0  0  0
 46 48  1  0  0  0  0
 49 42  1  0  0  0  0
 51 44  1  0  0  0  0
 53 45  1  0  0  0  0
M  END
$$$$
