FFE.pdb
 OpenBabel07022419003D

 58 59  0  0  1  0  0  0  0  0999 V2000
    2.2040   -0.7730    1.2100 N   0  0  0  0  0  0  0  0  0  0  0  0
    1.8400    0.4690    1.9060 C   0  0  1  0  0  0  0  0  0  0  0  0
    2.8490    1.5090    1.4660 C   0  0  0  0  0  0  0  0  0  0  0  0
    4.2360    1.1500    1.8080 C   0  0  0  0  0  0  0  0  0  0  0  0
    4.7710    1.5620    3.0220 C   0  0  0  0  0  0  0  0  0  0  0  0
    6.0700    1.1980    3.2970 C   0  0  0  0  0  0  0  0  0  0  0  0
    6.8290    0.4490    2.4090 C   0  0  0  0  0  0  0  0  0  0  0  0
    6.2720    0.0500    1.2020 C   0  0  0  0  0  0  0  0  0  0  0  0
    4.9570    0.4050    0.8980 C   0  0  0  0  0  0  0  0  0  0  0  0
    0.5110    0.9550    1.5280 C   0  0  0  0  0  0  0  0  0  0  0  0
    0.0930    1.9940    2.0880 O   0  0  0  0  0  0  0  0  0  0  0  0
    1.6980   -1.5950    1.6030 H   0  0  0  0  0  0  0  0  0  0  0  0
    2.0580   -0.6850    0.1800 H   0  0  0  0  0  0  0  0  0  0  0  0
    1.8850    0.2490    2.9690 H   0  0  0  0  0  0  0  0  0  0  0  0
    2.6460    2.5160    1.8850 H   0  0  0  0  0  0  0  0  0  0  0  0
    2.7950    1.6280    0.3500 H   0  0  0  0  0  0  0  0  0  0  0  0
    4.1500    2.1450    3.6910 H   0  0  0  0  0  0  0  0  0  0  0  0
    6.4700    1.5340    4.2590 H   0  0  0  0  0  0  0  0  0  0  0  0
    7.8600    0.1750    2.6550 H   0  0  0  0  0  0  0  0  0  0  0  0
    6.8550   -0.5370    0.4980 H   0  0  0  0  0  0  0  0  0  0  0  0
    4.5550    0.0730   -0.0590 H   0  0  0  0  0  0  0  0  0  0  0  0
   -0.3500    0.3590    0.5860 N   0  0  0  0  0  0  0  0  0  0  0  0
   -1.6230    0.8540    0.2470 C   0  0  1  0  0  0  0  0  0  0  0  0
   -1.8320    1.3470   -1.1410 C   0  0  0  0  0  0  0  0  0  0  0  0
   -1.5880    0.2840   -2.1610 C   0  0  0  0  0  0  0  0  0  0  0  0
   -0.3260    0.0880   -2.7070 C   0  0  0  0  0  0  0  0  0  0  0  0
   -0.0850   -0.8860   -3.6490 C   0  0  0  0  0  0  0  0  0  0  0  0
   -1.0920   -1.6980   -4.0820 C   0  0  0  0  0  0  0  0  0  0  0  0
   -2.3490   -1.5390   -3.5720 C   0  0  0  0  0  0  0  0  0  0  0  0
   -2.5730   -0.5600   -2.6290 C   0  0  0  0  0  0  0  0  0  0  0  0
   -2.7590   -0.0370    0.6030 C   0  0  0  0  0  0  0  0  0  0  0  0
   -3.9320    0.3380    0.3460 O   0  0  0  0  0  0  0  0  0  0  0  0
    0.0040   -0.5070    0.1230 H   0  0  0  0  0  0  0  0  0  0  0  0
   -1.7980    1.7690    0.9010 H   0  0  0  0  0  0  0  0  0  0  0  0
   -1.2260    2.2220   -1.4260 H   0  0  0  0  0  0  0  0  0  0  0  0
   -2.8840    1.6740   -1.2900 H   0  0  0  0  0  0  0  0  0  0  0  0
    0.4950    0.6950   -2.4030 H   0  0  0  0  0  0  0  0  0  0  0  0
    0.9170   -1.0310   -4.0730 H   0  0  0  0  0  0  0  0  0  0  0  0
   -0.8790   -2.4720   -4.8380 H   0  0  0  0  0  0  0  0  0  0  0  0
   -3.1430   -2.1970   -3.9290 H   0  0  0  0  0  0  0  0  0  0  0  0
   -3.5750   -0.4640   -2.2500 H   0  0  0  0  0  0  0  0  0  0  0  0
   -2.5470   -1.3210    1.2360 N   0  0  0  0  0  0  0  0  0  0  0  0
   -3.6580   -2.1600    1.5670 C   0  0  1  0  0  0  0  0  0  0  0  0
   -3.7810   -3.4060    0.7630 C   0  0  0  0  0  0  0  0  0  0  0  0
   -2.6860   -4.3920    0.8160 C   0  0  0  0  0  0  0  0  0  0  0  0
   -1.3580   -3.9610    0.3880 C   0  0  0  0  0  0  0  0  0  0  0  0
   -0.4150   -3.9030    1.2180 O   0  0  0  0  0  0  0  0  0  0  0  0
   -3.7760   -2.3990    3.0240 C   0  0  0  0  0  0  0  0  0  0  0  0
   -4.6970   -3.1100    3.4510 O   0  0  0  0  0  0  0  0  0  0  0  0
   -1.0980   -3.6090   -0.9260 O   0  0  0  0  0  0  0  0  0  0  0  0
   -2.8700   -1.8330    3.8800 O   0  0  0  0  0  0  0  0  0  0  0  0
   -1.5550   -1.5220    1.4080 H   0  0  0  0  0  0  0  0  0  0  0  0
   -4.6020   -1.5630    1.3190 H   0  0  0  0  0  0  0  0  0  0  0  0
   -4.7290   -3.9330    1.0300 H   0  0  0  0  0  0  0  0  0  0  0  0
   -3.9180   -3.0990   -0.3150 H   0  0  0  0  0  0  0  0  0  0  0  0
   -3.0000   -5.2540    0.1450 H   0  0  0  0  0  0  0  0  0  0  0  0
   -2.6450   -4.8990    1.8300 H   0  0  0  0  0  0  0  0  0  0  0  0
   -0.1550   -3.3550   -1.2330 H   0  0  0  0  0  0  0  0  0  0  0  0
  1 12  1  0  0  0  0
  1  2  1  0  0  0  0
  2 14  1  1  0  0  0
  3  4  1  0  0  0  0
  3 15  1  0  0  0  0
  3  2  1  0  0  0  0
  4  5  1  0  0  0  0
  5  6  2  0  0  0  0
  5 17  1  0  0  0  0
  6 18  1  0  0  0  0
  7 19  1  0  0  0  0
  7  6  1  0  0  0  0
  8  7  2  0  0  0  0
  9  8  1  0  0  0  0
  9  4  2  0  0  0  0
 10  2  1  0  0  0  0
 10 11  2  0  0  0  0
 13  1  1  0  0  0  0
 16  3  1  0  0  0  0
 20  8  1  0  0  0  0
 21  9  1  0  0  0  0
 22 10  1  0  0  0  0
 23 22  1  0  0  0  0
 23 31  1  0  0  0  0
 23 34  1  1  0  0  0
 24 23  1  0  0  0  0
 25 24  1  0  0  0  0
 26 37  1  0  0  0  0
 26 25  2  0  0  0  0
 27 26  1  0  0  0  0
 28 27  2  0  0  0  0
 28 29  1  0  0  0  0
 29 30  2  0  0  0  0
 30 41  1  0  0  0  0
 30 25  1  0  0  0  0
 31 42  1  0  0  0  0
 32 31  2  0  0  0  0
 33 22  1  0  0  0  0
 35 24  1  0  0  0  0
 36 24  1  0  0  0  0
 38 27  1  0  0  0  0
 39 28  1  0  0  0  0
 40 29  1  0  0  0  0
 42 52  1  0  0  0  0
 42 43  1  0  0  0  0
 43 53  1  6  0  0  0
 43 48  1  0  0  0  0
 44 45  1  0  0  0  0
 44 54  1  0  0  0  0
 44 43  1  0  0  0  0
 45 57  1  0  0  0  0
 46 45  1  0  0  0  0
 46 47  2  0  0  0  0
 48 49  2  0  0  0  0
 48 51  1  0  0  0  0
 50 46  1  0  0  0  0
 55 44  1  0  0  0  0
 56 45  1  0  0  0  0
 58 50  1  0  0  0  0
M  END
$$$$
