FFH.pdb
 OpenBabel07022419003D

 59 61  0  0  1  0  0  0  0  0999 V2000
    1.3530    1.9780    3.0720 N   0  0  0  0  0  0  0  0  0  0  0  0
    1.3350    1.6700    1.6570 C   0  0  1  0  0  0  0  0  0  0  0  0
    2.5050    0.7940    1.3070 C   0  0  0  0  0  0  0  0  0  0  0  0
    3.8050    1.3900    1.5890 C   0  0  0  0  0  0  0  0  0  0  0  0
    4.3400    1.1510    2.8670 C   0  0  0  0  0  0  0  0  0  0  0  0
    5.5500    1.6560    3.2520 C   0  0  0  0  0  0  0  0  0  0  0  0
    6.2650    2.4230    2.3520 C   0  0  0  0  0  0  0  0  0  0  0  0
    5.7440    2.6680    1.0770 C   0  0  0  0  0  0  0  0  0  0  0  0
    4.5290    2.1540    0.7090 C   0  0  0  0  0  0  0  0  0  0  0  0
    0.0360    1.0080    1.3530 C   0  0  0  0  0  0  0  0  0  0  0  0
   -0.7990    0.8160    2.2740 O   0  0  0  0  0  0  0  0  0  0  0  0
    0.4850    2.5310    3.2940 H   0  0  0  0  0  0  0  0  0  0  0  0
    2.1600    2.5680    3.3490 H   0  0  0  0  0  0  0  0  0  0  0  0
    1.3310    2.6230    1.0740 H   0  0  0  0  0  0  0  0  0  0  0  0
    2.4490    0.6200    0.1950 H   0  0  0  0  0  0  0  0  0  0  0  0
    2.3840   -0.1870    1.7720 H   0  0  0  0  0  0  0  0  0  0  0  0
    3.8010    0.5520    3.5950 H   0  0  0  0  0  0  0  0  0  0  0  0
    5.9340    1.4480    4.2550 H   0  0  0  0  0  0  0  0  0  0  0  0
    7.2140    2.8150    2.6640 H   0  0  0  0  0  0  0  0  0  0  0  0
    6.3640    3.2800    0.4280 H   0  0  0  0  0  0  0  0  0  0  0  0
    4.1310    2.3390   -0.2590 H   0  0  0  0  0  0  0  0  0  0  0  0
   -0.3440    0.5650    0.0780 N   0  0  0  0  0  0  0  0  0  0  0  0
   -1.6170   -0.0770   -0.1900 C   0  0  1  0  0  0  0  0  0  0  0  0
   -2.5030    0.6970   -1.0810 C   0  0  0  0  0  0  0  0  0  0  0  0
   -3.7730   -0.0280   -1.3000 C   0  0  0  0  0  0  0  0  0  0  0  0
   -3.9920   -0.8770   -2.3810 C   0  0  0  0  0  0  0  0  0  0  0  0
   -5.1570   -1.5580   -2.6050 C   0  0  0  0  0  0  0  0  0  0  0  0
   -6.1840   -1.3900   -1.6940 C   0  0  0  0  0  0  0  0  0  0  0  0
   -6.0160   -0.5560   -0.6010 C   0  0  0  0  0  0  0  0  0  0  0  0
   -4.8330    0.1150   -0.4030 C   0  0  0  0  0  0  0  0  0  0  0  0
   -1.4030   -1.4970   -0.5400 C   0  0  0  0  0  0  0  0  0  0  0  0
   -2.3760   -2.2340   -0.7420 O   0  0  0  0  0  0  0  0  0  0  0  0
    0.3230    0.7070   -0.7070 H   0  0  0  0  0  0  0  0  0  0  0  0
   -2.1530   -0.1190    0.8100 H   0  0  0  0  0  0  0  0  0  0  0  0
   -2.7720    1.6440   -0.5380 H   0  0  0  0  0  0  0  0  0  0  0  0
   -2.0920    0.9180   -2.0840 H   0  0  0  0  0  0  0  0  0  0  0  0
   -3.1680   -0.9880   -3.0790 H   0  0  0  0  0  0  0  0  0  0  0  0
   -5.2860   -2.2190   -3.4750 H   0  0  0  0  0  0  0  0  0  0  0  0
   -7.1040   -1.9310   -1.8760 H   0  0  0  0  0  0  0  0  0  0  0  0
   -6.8220   -0.4330    0.1010 H   0  0  0  0  0  0  0  0  0  0  0  0
   -4.6590    0.7830    0.4470 H   0  0  0  0  0  0  0  0  0  0  0  0
   -0.0970   -2.0080   -0.6430 N   0  0  0  0  0  0  0  0  0  0  0  0
    0.2730   -3.3680   -0.9590 C   0  0  1  0  0  0  0  0  0  0  0  0
   -0.7380   -4.3840   -0.4380 C   0  0  0  0  0  0  0  0  0  0  0  0
   -0.8060   -4.2840    1.0300 C   0  0  0  0  0  0  0  0  0  0  0  0
    0.0250   -5.0320    1.8620 C   0  0  0  0  0  0  0  0  0  0  0  0
   -0.2640   -4.7290    3.1250 N   0  0  0  0  0  0  0  0  0  0  0  0
   -1.2460   -3.8170    3.1290 C   0  0  0  0  0  0  0  0  0  0  0  0
   -1.5540   -3.5670    1.8560 N   0  0  0  0  0  0  0  0  0  0  0  0
    0.5660   -3.4990   -2.3790 C   0  0  0  0  0  0  0  0  0  0  0  0
    0.9120   -4.6040   -2.8840 O   0  0  0  0  0  0  0  0  0  0  0  0
    0.4790   -2.4170   -3.2460 O   0  0  0  0  0  0  0  0  0  0  0  0
    0.6770   -1.2870   -0.4620 H   0  0  0  0  0  0  0  0  0  0  0  0
    1.2460   -3.5870   -0.3700 H   0  0  0  0  0  0  0  0  0  0  0  0
   -1.7030   -4.3570   -0.9550 H   0  0  0  0  0  0  0  0  0  0  0  0
   -0.2940   -5.3890   -0.7160 H   0  0  0  0  0  0  0  0  0  0  0  0
    0.7830   -5.7450    1.5240 H   0  0  0  0  0  0  0  0  0  0  0  0
    0.2240   -5.1590    3.9560 H   0  0  0  0  0  0  0  0  0  0  0  0
   -1.6880   -3.3820    4.0330 H   0  0  0  0  0  0  0  0  0  0  0  0
  1 12  1  0  0  0  0
  1 13  1  0  0  0  0
  2 14  1  6  0  0  0
  2  1  1  0  0  0  0
  3  4  1  0  0  0  0
  3  2  1  0  0  0  0
  3 16  1  0  0  0  0
  4  5  1  0  0  0  0
  5  6  2  0  0  0  0
  5 17  1  0  0  0  0
  6 18  1  0  0  0  0
  7 19  1  0  0  0  0
  7  6  1  0  0  0  0
  8  7  2  0  0  0  0
  9  8  1  0  0  0  0
  9  4  2  0  0  0  0
 10  2  1  0  0  0  0
 10 11  2  0  0  0  0
 15  3  1  0  0  0  0
 20  8  1  0  0  0  0
 21  9  1  0  0  0  0
 22 10  1  0  0  0  0
 23 22  1  0  0  0  0
 23 34  1  1  0  0  0
 24 35  1  0  0  0  0
 24 23  1  0  0  0  0
 25 24  1  0  0  0  0
 25 30  1  0  0  0  0
 26 25  2  0  0  0  0
 27 26  1  0  0  0  0
 27 28  2  0  0  0  0
 28 29  1  0  0  0  0
 29 30  2  0  0  0  0
 29 40  1  0  0  0  0
 30 41  1  0  0  0  0
 31 23  1  0  0  0  0
 32 31  2  0  0  0  0
 33 22  1  0  0  0  0
 36 24  1  0  0  0  0
 37 26  1  0  0  0  0
 38 27  1  0  0  0  0
 39 28  1  0  0  0  0
 42 31  1  0  0  0  0
 42 53  1  0  0  0  0
 43 42  1  0  0  0  0
 43 44  1  0  0  0  0
 43 54  1  1  0  0  0
 44 45  1  0  0  0  0
 45 49  1  0  0  0  0
 45 46  2  0  0  0  0
 46 47  1  0  0  0  0
 47 48  1  0  0  0  0
 47 58  1  0  0  0  0
 48 59  1  0  0  0  0
 49 48  2  0  0  0  0
 50 43  1  0  0  0  0
 51 50  1  0  0  0  0
 52 50  2  0  0  0  0
 55 44  1  0  0  0  0
 56 44  1  0  0  0  0
 57 46  1  0  0  0  0
M  END
$$$$
