FFL.pdb
 OpenBabel07022419003D

 61 62  0  0  1  0  0  0  0  0999 V2000
    2.5650   -2.0700    0.4050 N   0  0  0  0  0  0  0  0  0  0  0  0
    2.8600   -0.9610    1.3020 C   0  0  1  0  0  0  0  0  0  0  0  0
    4.1050   -0.2820    0.8310 C   0  0  0  0  0  0  0  0  0  0  0  0
    4.4750    0.8630    1.6890 C   0  0  0  0  0  0  0  0  0  0  0  0
    5.2530    0.6290    2.8010 C   0  0  0  0  0  0  0  0  0  0  0  0
    5.6420    1.6580    3.6320 C   0  0  0  0  0  0  0  0  0  0  0  0
    5.2710    2.9620    3.3880 C   0  0  0  0  0  0  0  0  0  0  0  0
    4.4930    3.2080    2.2780 C   0  0  0  0  0  0  0  0  0  0  0  0
    4.1060    2.1750    1.4490 C   0  0  0  0  0  0  0  0  0  0  0  0
    1.7350   -0.0130    1.3830 C   0  0  0  0  0  0  0  0  0  0  0  0
    1.7310    0.9950    2.1340 O   0  0  0  0  0  0  0  0  0  0  0  0
    2.3170   -1.7540   -0.5510 H   0  0  0  0  0  0  0  0  0  0  0  0
    1.8850   -2.7400    0.8050 H   0  0  0  0  0  0  0  0  0  0  0  0
    3.0910   -1.4260    2.2980 H   0  0  0  0  0  0  0  0  0  0  0  0
    4.9340   -1.0410    0.9190 H   0  0  0  0  0  0  0  0  0  0  0  0
    4.0450    0.0360   -0.2360 H   0  0  0  0  0  0  0  0  0  0  0  0
    5.5740   -0.3780    3.0400 H   0  0  0  0  0  0  0  0  0  0  0  0
    6.2490    1.4670    4.4970 H   0  0  0  0  0  0  0  0  0  0  0  0
    5.5890    3.7740    4.0600 H   0  0  0  0  0  0  0  0  0  0  0  0
    4.1870    4.2200    2.0610 H   0  0  0  0  0  0  0  0  0  0  0  0
    3.4950    2.3580    0.5660 H   0  0  0  0  0  0  0  0  0  0  0  0
    0.5410   -0.1660    0.6010 N   0  0  0  0  0  0  0  0  0  0  0  0
   -0.5690    0.7590    0.6710 C   0  0  1  0  0  0  0  0  0  0  0  0
   -0.8760    1.4330   -0.6340 C   0  0  0  0  0  0  0  0  0  0  0  0
   -1.2310    0.5430   -1.7380 C   0  0  0  0  0  0  0  0  0  0  0  0
   -2.5420    0.2290   -2.0190 C   0  0  0  0  0  0  0  0  0  0  0  0
   -2.8390   -0.6200   -3.0670 C   0  0  0  0  0  0  0  0  0  0  0  0
   -1.8240   -1.1610   -3.8410 C   0  0  0  0  0  0  0  0  0  0  0  0
   -0.5110   -0.8460   -3.5590 C   0  0  0  0  0  0  0  0  0  0  0  0
   -0.2050   -0.0020   -2.5190 C   0  0  0  0  0  0  0  0  0  0  0  0
   -1.8060    0.0570    1.1430 C   0  0  0  0  0  0  0  0  0  0  0  0
   -2.8750    0.6760    1.2450 O   0  0  0  0  0  0  0  0  0  0  0  0
    0.4610   -0.9720   -0.0460 H   0  0  0  0  0  0  0  0  0  0  0  0
   -0.3110    1.5890    1.3940 H   0  0  0  0  0  0  0  0  0  0  0  0
    0.0320    2.0450   -0.9070 H   0  0  0  0  0  0  0  0  0  0  0  0
   -1.6590    2.1980   -0.4260 H   0  0  0  0  0  0  0  0  0  0  0  0
   -3.3760    0.6360   -1.4360 H   0  0  0  0  0  0  0  0  0  0  0  0
   -3.8910   -0.8600   -3.2790 H   0  0  0  0  0  0  0  0  0  0  0  0
   -2.0420   -1.8300   -4.6670 H   0  0  0  0  0  0  0  0  0  0  0  0
    0.3080   -1.2630   -4.1600 H   0  0  0  0  0  0  0  0  0  0  0  0
    0.8340    0.2290   -2.3180 H   0  0  0  0  0  0  0  0  0  0  0  0
   -4.5120   -2.1020   -0.4450 C   0  0  0  0  0  0  0  0  0  0  0  0
   -3.2650   -2.9170   -0.3160 C   0  0  0  0  0  0  0  0  0  0  0  0
   -3.3070   -4.1360   -1.2100 C   0  0  0  0  0  0  0  0  0  0  0  0
   -3.0580   -3.3170    1.1230 C   0  0  0  0  0  0  0  0  0  0  0  0
   -2.9230   -2.0720    1.9500 C   0  0  2  0  0  0  0  0  0  0  0  0
   -1.7850   -1.3240    1.4850 N   0  0  0  0  0  0  0  0  0  0  0  0
   -2.8110   -2.3920    3.4060 C   0  0  0  0  0  0  0  0  0  0  0  0
   -1.8610   -2.0660    4.1360 O   0  0  0  0  0  0  0  0  0  0  0  0
   -3.8590   -3.1090    3.9620 O   0  0  0  0  0  0  0  0  0  0  0  0
   -5.3490   -2.5980    0.1260 H   0  0  0  0  0  0  0  0  0  0  0  0
   -4.4490   -1.0620   -0.1450 H   0  0  0  0  0  0  0  0  0  0  0  0
   -4.8390   -2.1840   -1.5220 H   0  0  0  0  0  0  0  0  0  0  0  0
   -2.4110   -2.3080   -0.6480 H   0  0  0  0  0  0  0  0  0  0  0  0
   -4.3640   -4.4400   -1.3530 H   0  0  0  0  0  0  0  0  0  0  0  0
   -2.7710   -3.9410   -2.1590 H   0  0  0  0  0  0  0  0  0  0  0  0
   -2.7680   -4.9700   -0.7070 H   0  0  0  0  0  0  0  0  0  0  0  0
   -2.0580   -3.8290    1.1520 H   0  0  0  0  0  0  0  0  0  0  0  0
   -3.8620   -3.9900    1.4800 H   0  0  0  0  0  0  0  0  0  0  0  0
   -3.8660   -1.4940    1.8620 H   0  0  0  0  0  0  0  0  0  0  0  0
   -0.8410   -1.7870    1.3720 H   0  0  0  0  0  0  0  0  0  0  0  0
  1 13  1  0  0  0  0
  1  2  1  0  0  0  0
  2 10  1  0  0  0  0
  2 14  1  1  0  0  0
  3 15  1  0  0  0  0
  3  2  1  0  0  0  0
  3  4  1  0  0  0  0
  4  5  1  0  0  0  0
  5 17  1  0  0  0  0
  5  6  2  0  0  0  0
  6 18  1  0  0  0  0
  7  6  1  0  0  0  0
  7 19  1  0  0  0  0
  8  7  2  0  0  0  0
  9  4  2  0  0  0  0
  9  8  1  0  0  0  0
 10 11  2  0  0  0  0
 12  1  1  0  0  0  0
 16  3  1  0  0  0  0
 20  8  1  0  0  0  0
 21  9  1  0  0  0  0
 22 23  1  0  0  0  0
 22 10  1  0  0  0  0
 23 31  1  0  0  0  0
 23 34  1  1  0  0  0
 24 36  1  0  0  0  0
 24 23  1  0  0  0  0
 25 24  1  0  0  0  0
 26 25  1  0  0  0  0
 26 37  1  0  0  0  0
 27 26  2  0  0  0  0
 28 29  2  0  0  0  0
 28 27  1  0  0  0  0
 29 30  1  0  0  0  0
 30 41  1  0  0  0  0
 30 25  2  0  0  0  0
 31 32  2  0  0  0  0
 31 47  1  0  0  0  0
 33 22  1  0  0  0  0
 35 24  1  0  0  0  0
 38 27  1  0  0  0  0
 39 28  1  0  0  0  0
 40 29  1  0  0  0  0
 42 43  1  0  0  0  0
 42 52  1  0  0  0  0
 42 51  1  0  0  0  0
 43 45  1  0  0  0  0
 44 57  1  0  0  0  0
 44 43  1  0  0  0  0
 45 58  1  0  0  0  0
 45 59  1  0  0  0  0
 45 46  1  0  0  0  0
 46 60  1  6  0  0  0
 46 48  1  0  0  0  0
 47 46  1  0  0  0  0
 48 50  2  0  0  0  0
 48 49  1  0  0  0  0
 53 42  1  0  0  0  0
 54 43  1  0  0  0  0
 55 44  1  0  0  0  0
 56 44  1  0  0  0  0
 61 47  1  0  0  0  0
M  END
$$$$
