FFN.pdb
 OpenBabel07022419003D

 56 57  0  0  1  0  0  0  0  0999 V2000
    2.9080   -3.0000    1.2560 N   0  0  0  0  0  0  0  0  0  0  0  0
    2.0630   -1.9800    1.9090 C   0  0  1  0  0  0  0  0  0  0  0  0
    2.9920   -1.1140    2.6840 C   0  0  0  0  0  0  0  0  0  0  0  0
    2.3560   -0.0130    3.4170 C   0  0  0  0  0  0  0  0  0  0  0  0
    1.8620   -0.1670    4.6850 C   0  0  0  0  0  0  0  0  0  0  0  0
    1.2940    0.8670    5.3550 C   0  0  0  0  0  0  0  0  0  0  0  0
    1.1980    2.1150    4.7700 C   0  0  0  0  0  0  0  0  0  0  0  0
    1.6990    2.2660    3.4860 C   0  0  0  0  0  0  0  0  0  0  0  0
    2.2720    1.2250    2.8070 C   0  0  0  0  0  0  0  0  0  0  0  0
    1.2720   -1.3030    0.8720 C   0  0  0  0  0  0  0  0  0  0  0  0
    1.5690   -1.5000   -0.3560 O   0  0  0  0  0  0  0  0  0  0  0  0
    3.5080   -2.5770    0.5280 H   0  0  0  0  0  0  0  0  0  0  0  0
    3.4610   -3.5190    1.9810 H   0  0  0  0  0  0  0  0  0  0  0  0
    1.4000   -2.5630    2.6080 H   0  0  0  0  0  0  0  0  0  0  0  0
    3.5320   -1.7540    3.4140 H   0  0  0  0  0  0  0  0  0  0  0  0
    3.7560   -0.6880    2.0020 H   0  0  0  0  0  0  0  0  0  0  0  0
    1.9260   -1.1520    5.1760 H   0  0  0  0  0  0  0  0  0  0  0  0
    0.9030    0.7490    6.3570 H   0  0  0  0  0  0  0  0  0  0  0  0
    0.7460    2.9620    5.2880 H   0  0  0  0  0  0  0  0  0  0  0  0
    1.6460    3.2310    2.9810 H   0  0  0  0  0  0  0  0  0  0  0  0
    2.6720    1.3330    1.7920 H   0  0  0  0  0  0  0  0  0  0  0  0
    0.1840   -0.4350    1.1440 N   0  0  0  0  0  0  0  0  0  0  0  0
   -0.6050    0.2490    0.1390 C   0  0  1  0  0  0  0  0  0  0  0  0
    0.2490    1.0930   -0.7410 C   0  0  0  0  0  0  0  0  0  0  0  0
   -0.5340    1.7980   -1.7710 C   0  0  0  0  0  0  0  0  0  0  0  0
   -1.0990    3.0130   -1.5090 C   0  0  0  0  0  0  0  0  0  0  0  0
   -1.8170    3.6890   -2.4610 C   0  0  0  0  0  0  0  0  0  0  0  0
   -1.9990    3.1710   -3.7260 C   0  0  0  0  0  0  0  0  0  0  0  0
   -1.4280    1.9330   -4.0060 C   0  0  0  0  0  0  0  0  0  0  0  0
   -0.7060    1.2640   -3.0310 C   0  0  0  0  0  0  0  0  0  0  0  0
   -1.4940   -0.6860   -0.5890 C   0  0  0  0  0  0  0  0  0  0  0  0
   -2.2830   -0.3230   -1.4980 O   0  0  0  0  0  0  0  0  0  0  0  0
   -0.0390   -0.3150    2.1830 H   0  0  0  0  0  0  0  0  0  0  0  0
   -1.2760    0.9550    0.7310 H   0  0  0  0  0  0  0  0  0  0  0  0
    0.7290    1.8600   -0.0530 H   0  0  0  0  0  0  0  0  0  0  0  0
    1.0630    0.5290   -1.2010 H   0  0  0  0  0  0  0  0  0  0  0  0
   -0.9780    3.4590   -0.5180 H   0  0  0  0  0  0  0  0  0  0  0  0
   -2.2650    4.6570   -2.2470 H   0  0  0  0  0  0  0  0  0  0  0  0
   -2.5640    3.6880   -4.4970 H   0  0  0  0  0  0  0  0  0  0  0  0
   -1.5500    1.4870   -4.9970 H   0  0  0  0  0  0  0  0  0  0  0  0
   -0.2440    0.2860   -3.2280 H   0  0  0  0  0  0  0  0  0  0  0  0
   -1.0280   -6.1340   -0.6040 N   0  0  0  0  0  0  0  0  0  0  0  0
   -0.6870   -4.7880   -0.9170 C   0  0  0  0  0  0  0  0  0  0  0  0
    0.3670   -4.3480   -0.3990 O   0  0  0  0  0  0  0  0  0  0  0  0
   -1.5410   -3.9840   -1.8020 C   0  0  0  0  0  0  0  0  0  0  0  0
   -2.4090   -2.9940   -1.0410 C   0  0  2  0  0  0  0  0  0  0  0  0
   -1.5310   -2.1030   -0.3140 N   0  0  0  0  0  0  0  0  0  0  0  0
   -3.3970   -3.6600   -0.1880 C   0  0  0  0  0  0  0  0  0  0  0  0
   -3.4620   -3.4670    1.0470 O   0  0  0  0  0  0  0  0  0  0  0  0
   -4.3070   -4.5420   -0.7400 O   0  0  0  0  0  0  0  0  0  0  0  0
   -1.7900   -6.3660    0.0500 H   0  0  0  0  0  0  0  0  0  0  0  0
   -0.4730   -6.8840   -1.0640 H   0  0  0  0  0  0  0  0  0  0  0  0
   -2.2180   -4.6790   -2.3630 H   0  0  0  0  0  0  0  0  0  0  0  0
   -0.9080   -3.5030   -2.5470 H   0  0  0  0  0  0  0  0  0  0  0  0
   -2.9950   -2.4400   -1.8210 H   0  0  0  0  0  0  0  0  0  0  0  0
   -0.8880   -2.4260    0.4360 H   0  0  0  0  0  0  0  0  0  0  0  0
  1  2  1  0  0  0  0
  1 13  1  0  0  0  0
  2 14  1  1  0  0  0
  2  3  1  0  0  0  0
  3 15  1  0  0  0  0
  3  4  1  0  0  0  0
  4  5  1  0  0  0  0
  5 17  1  0  0  0  0
  5  6  2  0  0  0  0
  6 18  1  0  0  0  0
  7 19  1  0  0  0  0
  7  6  1  0  0  0  0
  8  7  2  0  0  0  0
  9  4  2  0  0  0  0
  9  8  1  0  0  0  0
 10 22  1  0  0  0  0
 10  2  1  0  0  0  0
 11 10  2  0  0  0  0
 12  1  1  0  0  0  0
 16  3  1  0  0  0  0
 20  8  1  0  0  0  0
 21  9  1  0  0  0  0
 22 33  1  0  0  0  0
 23 34  1  1  0  0  0
 23 22  1  0  0  0  0
 24 35  1  0  0  0  0
 24 23  1  0  0  0  0
 25 26  1  0  0  0  0
 25 24  1  0  0  0  0
 26 37  1  0  0  0  0
 27 38  1  0  0  0  0
 27 26  2  0  0  0  0
 28 27  1  0  0  0  0
 29 28  2  0  0  0  0
 29 30  1  0  0  0  0
 30 25  2  0  0  0  0
 31 47  1  0  0  0  0
 31 23  1  0  0  0  0
 32 31  2  0  0  0  0
 36 24  1  0  0  0  0
 39 28  1  0  0  0  0
 40 29  1  0  0  0  0
 41 30  1  0  0  0  0
 42 51  1  0  0  0  0
 43 42  1  0  0  0  0
 43 44  2  0  0  0  0
 45 46  1  0  0  0  0
 45 43  1  0  0  0  0
 46 55  1  6  0  0  0
 46 47  1  0  0  0  0
 46 48  1  0  0  0  0
 47 56  1  0  0  0  0
 48 49  1  0  0  0  0
 50 48  2  0  0  0  0
 52 42  1  0  0  0  0
 53 45  1  0  0  0  0
 54 45  1  0  0  0  0
M  END
$$$$
