FFP.pdb
 OpenBabel07022419003D

 56 58  0  0  1  0  0  0  0  0999 V2000
    2.8090   -1.2970   -1.2700 N   0  0  0  0  0  0  0  0  0  0  0  0
    2.8570   -0.9300    0.1340 C   0  0  1  0  0  0  0  0  0  0  0  0
    3.7870    0.2140    0.3680 C   0  0  0  0  0  0  0  0  0  0  0  0
    3.8760    0.6330    1.7870 C   0  0  0  0  0  0  0  0  0  0  0  0
    4.7960    0.0600    2.6590 C   0  0  0  0  0  0  0  0  0  0  0  0
    4.8730    0.4650    3.9740 C   0  0  0  0  0  0  0  0  0  0  0  0
    4.0570    1.4480    4.4950 C   0  0  0  0  0  0  0  0  0  0  0  0
    3.1450    2.0170    3.6340 C   0  0  0  0  0  0  0  0  0  0  0  0
    3.0600    1.6170    2.3120 C   0  0  0  0  0  0  0  0  0  0  0  0
    1.4930   -0.7420    0.6790 C   0  0  0  0  0  0  0  0  0  0  0  0
    1.3250   -0.4620    1.8800 O   0  0  0  0  0  0  0  0  0  0  0  0
    3.4360   -2.1140   -1.4410 H   0  0  0  0  0  0  0  0  0  0  0  0
    3.1290   -0.4840   -1.8670 H   0  0  0  0  0  0  0  0  0  0  0  0
    3.2820   -1.8130    0.6950 H   0  0  0  0  0  0  0  0  0  0  0  0
    3.4890    1.1020   -0.2290 H   0  0  0  0  0  0  0  0  0  0  0  0
    4.8090   -0.0910    0.0670 H   0  0  0  0  0  0  0  0  0  0  0  0
    5.4570   -0.7140    2.3000 H   0  0  0  0  0  0  0  0  0  0  0  0
    5.6030    0.0050    4.6550 H   0  0  0  0  0  0  0  0  0  0  0  0
    4.0880    1.7910    5.5180 H   0  0  0  0  0  0  0  0  0  0  0  0
    2.4940    2.7860    4.0070 H   0  0  0  0  0  0  0  0  0  0  0  0
    2.3350    2.0780    1.6400 H   0  0  0  0  0  0  0  0  0  0  0  0
    0.3270   -0.8790   -0.1660 N   0  0  0  0  0  0  0  0  0  0  0  0
   -1.0160   -0.7090    0.3040 C   0  0  1  0  0  0  0  0  0  0  0  0
   -1.4130    0.7220   -0.0690 C   0  0  0  0  0  0  0  0  0  0  0  0
   -2.7560    1.1100    0.3140 C   0  0  0  0  0  0  0  0  0  0  0  0
   -3.0000    1.6020    1.5990 C   0  0  0  0  0  0  0  0  0  0  0  0
   -4.2390    2.0170    2.0270 C   0  0  0  0  0  0  0  0  0  0  0  0
   -5.3210    1.9590    1.1660 C   0  0  0  0  0  0  0  0  0  0  0  0
   -5.1220    1.4810   -0.1080 C   0  0  0  0  0  0  0  0  0  0  0  0
   -3.8790    1.0680   -0.5260 C   0  0  0  0  0  0  0  0  0  0  0  0
   -2.0090   -1.6950   -0.0400 C   0  0  0  0  0  0  0  0  0  0  0  0
   -3.2280   -1.3500    0.3470 O   0  0  0  0  0  0  0  0  0  0  0  0
    0.5600   -1.1120   -1.1760 H   0  0  0  0  0  0  0  0  0  0  0  0
   -0.9060   -0.6380    1.4410 H   0  0  0  0  0  0  0  0  0  0  0  0
   -0.6860    1.3760    0.4550 H   0  0  0  0  0  0  0  0  0  0  0  0
   -1.2150    0.8850   -1.1690 H   0  0  0  0  0  0  0  0  0  0  0  0
   -2.1760    1.6590    2.2930 H   0  0  0  0  0  0  0  0  0  0  0  0
   -4.3600    2.3870    3.0350 H   0  0  0  0  0  0  0  0  0  0  0  0
   -6.2940    2.2860    1.5060 H   0  0  0  0  0  0  0  0  0  0  0  0
   -5.9680    1.4380   -0.7730 H   0  0  0  0  0  0  0  0  0  0  0  0
   -3.7410    0.6970   -1.5250 H   0  0  0  0  0  0  0  0  0  0  0  0
   -1.9900   -2.9220   -0.6900 N   0  0  0  0  0  0  0  0  0  0  0  0
   -3.2660   -3.6670   -1.0850 C   0  0  0  0  0  0  0  0  0  0  0  0
   -2.9340   -3.8480   -2.5570 C   0  0  0  0  0  0  0  0  0  0  0  0
   -1.3860   -3.8070   -2.6640 C   0  0  0  0  0  0  0  0  0  0  0  0
   -1.0560   -3.8770   -1.1890 C   0  0  1  0  0  0  0  0  0  0  0  0
    0.2980   -3.9410   -0.7770 C   0  0  0  0  0  0  0  0  0  0  0  0
    0.6580   -3.7730    0.4090 O   0  0  0  0  0  0  0  0  0  0  0  0
    1.3390   -4.2010   -1.6900 O   0  0  0  0  0  0  0  0  0  0  0  0
   -3.1710   -4.6210   -0.5510 H   0  0  0  0  0  0  0  0  0  0  0  0
   -4.1300   -3.0560   -0.8780 H   0  0  0  0  0  0  0  0  0  0  0  0
   -3.3120   -4.8450   -2.8600 H   0  0  0  0  0  0  0  0  0  0  0  0
   -3.3900   -3.0890   -3.1980 H   0  0  0  0  0  0  0  0  0  0  0  0
   -1.0100   -4.6630   -3.2420 H   0  0  0  0  0  0  0  0  0  0  0  0
   -1.0670   -2.8210   -3.0570 H   0  0  0  0  0  0  0  0  0  0  0  0
   -1.5720   -4.9080   -0.8550 H   0  0  0  0  0  0  0  0  0  0  0  0
  1  2  1  0  0  0  0
  2  3  1  0  0  0  0
  2 10  1  0  0  0  0
  2 14  1  1  0  0  0
  3  4  1  0  0  0  0
  4  9  2  0  0  0  0
  4  5  1  0  0  0  0
  5  6  2  0  0  0  0
  6  7  1  0  0  0  0
  6 18  1  0  0  0  0
  7 19  1  0  0  0  0
  8 20  1  0  0  0  0
  8  7  2  0  0  0  0
  9  8  1  0  0  0  0
 10 11  2  0  0  0  0
 12  1  1  0  0  0  0
 13  1  1  0  0  0  0
 15  3  1  0  0  0  0
 16  3  1  0  0  0  0
 17  5  1  0  0  0  0
 21  9  1  0  0  0  0
 22 23  1  0  0  0  0
 22 10  1  0  0  0  0
 23 34  1  1  0  0  0
 24 23  1  0  0  0  0
 24 25  1  0  0  0  0
 24 35  1  0  0  0  0
 25 26  1  0  0  0  0
 26 27  2  0  0  0  0
 26 37  1  0  0  0  0
 27 38  1  0  0  0  0
 28 39  1  0  0  0  0
 28 27  1  0  0  0  0
 29 28  2  0  0  0  0
 30 29  1  0  0  0  0
 30 25  2  0  0  0  0
 31 23  1  0  0  0  0
 31 32  2  0  0  0  0
 33 22  1  0  0  0  0
 36 24  1  0  0  0  0
 40 29  1  0  0  0  0
 41 30  1  0  0  0  0
 42 31  1  0  0  0  0
 43 51  1  0  0  0  0
 43 42  1  0  0  0  0
 43 50  1  0  0  0  0
 44 43  1  0  0  0  0
 45 44  1  0  0  0  0
 45 46  1  0  0  0  0
 46 56  1  1  0  0  0
 46 47  1  0  0  0  0
 46 42  1  0  0  0  0
 47 48  1  0  0  0  0
 49 47  2  0  0  0  0
 52 44  1  0  0  0  0
 53 44  1  0  0  0  0
 54 45  1  0  0  0  0
 55 45  1  0  0  0  0
M  END
$$$$
