FFS.pdb
 OpenBabel07022419003D

 53 54  0  0  1  0  0  0  0  0999 V2000
    2.8320    3.5430    0.1900 N   0  0  0  0  0  0  0  0  0  0  0  0
    2.7520    2.0890   -0.0990 C   0  0  1  0  0  0  0  0  0  0  0  0
    3.7750    1.4310    0.7390 C   0  0  0  0  0  0  0  0  0  0  0  0
    3.8810   -0.0240    0.6010 C   0  0  0  0  0  0  0  0  0  0  0  0
    4.6690   -0.5740   -0.3850 C   0  0  0  0  0  0  0  0  0  0  0  0
    4.8000   -1.9380   -0.5060 C   0  0  0  0  0  0  0  0  0  0  0  0
    4.1400   -2.7790    0.3630 C   0  0  0  0  0  0  0  0  0  0  0  0
    3.3500   -2.2280    1.3520 C   0  0  0  0  0  0  0  0  0  0  0  0
    3.2260   -0.8590    1.4640 C   0  0  0  0  0  0  0  0  0  0  0  0
    1.3510    1.7280    0.1000 C   0  0  0  0  0  0  0  0  0  0  0  0
    0.5190    2.5770    0.6040 O   0  0  0  0  0  0  0  0  0  0  0  0
    1.9320    4.0100   -0.0270 H   0  0  0  0  0  0  0  0  0  0  0  0
    2.9800    3.6230    1.2220 H   0  0  0  0  0  0  0  0  0  0  0  0
    3.0780    2.0150   -1.1690 H   0  0  0  0  0  0  0  0  0  0  0  0
    4.7790    1.8410    0.4000 H   0  0  0  0  0  0  0  0  0  0  0  0
    3.7070    1.7280    1.8230 H   0  0  0  0  0  0  0  0  0  0  0  0
    5.2180    0.0490   -1.1070 H   0  0  0  0  0  0  0  0  0  0  0  0
    5.4350   -2.3400   -1.3030 H   0  0  0  0  0  0  0  0  0  0  0  0
    4.2440   -3.8670    0.2670 H   0  0  0  0  0  0  0  0  0  0  0  0
    2.8180   -2.8920    2.0520 H   0  0  0  0  0  0  0  0  0  0  0  0
    2.5960   -0.4470    2.2530 H   0  0  0  0  0  0  0  0  0  0  0  0
    0.7440    0.4830   -0.2140 N   0  0  0  0  0  0  0  0  0  0  0  0
   -0.6700    0.2530    0.0130 C   0  0  1  0  0  0  0  0  0  0  0  0
   -1.3580    0.0310   -1.3260 C   0  0  0  0  0  0  0  0  0  0  0  0
   -2.7720   -0.2290   -1.2400 C   0  0  0  0  0  0  0  0  0  0  0  0
   -3.7080    0.7830   -1.1810 C   0  0  0  0  0  0  0  0  0  0  0  0
   -5.0660    0.5210   -1.1300 C   0  0  0  0  0  0  0  0  0  0  0  0
   -5.5430   -0.7680   -1.1380 C   0  0  0  0  0  0  0  0  0  0  0  0
   -4.6440   -1.7870   -1.1970 C   0  0  0  0  0  0  0  0  0  0  0  0
   -3.2970   -1.5300   -1.2460 C   0  0  0  0  0  0  0  0  0  0  0  0
   -0.8070   -0.9100    0.9190 C   0  0  0  0  0  0  0  0  0  0  0  0
    0.1690   -1.6810    1.1770 O   0  0  0  0  0  0  0  0  0  0  0  0
    1.3020   -0.2890   -0.6160 H   0  0  0  0  0  0  0  0  0  0  0  0
   -1.0830    1.1350    0.5350 H   0  0  0  0  0  0  0  0  0  0  0  0
   -1.1880    0.9570   -1.9130 H   0  0  0  0  0  0  0  0  0  0  0  0
   -0.8510   -0.8500   -1.7820 H   0  0  0  0  0  0  0  0  0  0  0  0
   -3.4330    1.8310   -1.1700 H   0  0  0  0  0  0  0  0  0  0  0  0
   -5.8010    1.3180   -1.0830 H   0  0  0  0  0  0  0  0  0  0  0  0
   -6.5950   -1.0170   -1.1000 H   0  0  0  0  0  0  0  0  0  0  0  0
   -4.9980   -2.8210   -1.2040 H   0  0  0  0  0  0  0  0  0  0  0  0
   -2.6290   -2.3980   -1.2920 H   0  0  0  0  0  0  0  0  0  0  0  0
   -2.1480   -4.6840    2.5170 O   0  0  0  0  0  0  0  0  0  0  0  0
   -1.9960   -3.5870    1.6700 C   0  0  0  0  0  0  0  0  0  0  0  0
   -2.2300   -2.2850    2.3960 C   0  0  2  0  0  0  0  0  0  0  0  0
   -2.0720   -1.1580    1.5160 N   0  0  0  0  0  0  0  0  0  0  0  0
   -1.2280   -2.1560    3.4960 C   0  0  0  0  0  0  0  0  0  0  0  0
   -0.4460   -1.2040    3.6270 O   0  0  0  0  0  0  0  0  0  0  0  0
   -1.2000   -3.1990    4.4260 O   0  0  0  0  0  0  0  0  0  0  0  0
   -2.3100   -5.4690    1.9350 H   0  0  0  0  0  0  0  0  0  0  0  0
   -2.7900   -3.7160    0.8810 H   0  0  0  0  0  0  0  0  0  0  0  0
   -1.0410   -3.6330    1.1220 H   0  0  0  0  0  0  0  0  0  0  0  0
   -3.2470   -2.2780    2.8790 H   0  0  0  0  0  0  0  0  0  0  0  0
   -2.8620   -0.4870    1.3060 H   0  0  0  0  0  0  0  0  0  0  0  0
  1 13  1  0  0  0  0
  2 14  1  6  0  0  0
  2 10  1  0  0  0  0
  2  1  1  0  0  0  0
  2  3  1  0  0  0  0
  3 16  1  0  0  0  0
  4  3  1  0  0  0  0
  4  9  1  0  0  0  0
  5  4  2  0  0  0  0
  6  5  1  0  0  0  0
  6  7  2  0  0  0  0
  7  8  1  0  0  0  0
  8  9  2  0  0  0  0
  8 20  1  0  0  0  0
  9 21  1  0  0  0  0
 10 11  2  0  0  0  0
 12  1  1  0  0  0  0
 15  3  1  0  0  0  0
 17  5  1  0  0  0  0
 18  6  1  0  0  0  0
 19  7  1  0  0  0  0
 22 23  1  0  0  0  0
 22 10  1  0  0  0  0
 23 34  1  1  0  0  0
 23 31  1  0  0  0  0
 24 25  1  0  0  0  0
 24 23  1  0  0  0  0
 25 26  1  0  0  0  0
 26 37  1  0  0  0  0
 26 27  2  0  0  0  0
 27 38  1  0  0  0  0
 28 27  1  0  0  0  0
 28 39  1  0  0  0  0
 29 28  2  0  0  0  0
 30 25  2  0  0  0  0
 30 29  1  0  0  0  0
 31 32  2  0  0  0  0
 31 45  1  0  0  0  0
 33 22  1  0  0  0  0
 35 24  1  0  0  0  0
 36 24  1  0  0  0  0
 40 29  1  0  0  0  0
 41 30  1  0  0  0  0
 43 44  1  0  0  0  0
 43 42  1  0  0  0  0
 44 52  1  1  0  0  0
 44 46  1  0  0  0  0
 45 44  1  0  0  0  0
 46 47  2  0  0  0  0
 46 48  1  0  0  0  0
 49 42  1  0  0  0  0
 50 43  1  0  0  0  0
 51 43  1  0  0  0  0
 53 45  1  0  0  0  0
M  END
$$$$
