FFW.pdb
 OpenBabel07022419003D

 66 69  0  0  1  0  0  0  0  0999 V2000
    1.1540    2.5950    2.5340 N   0  0  0  0  0  0  0  0  0  0  0  0
    0.6120    1.2990    2.8350 C   0  0  1  0  0  0  0  0  0  0  0  0
   -0.5170    1.2700    3.8070 C   0  0  0  0  0  0  0  0  0  0  0  0
   -1.7200    2.0270    3.4610 C   0  0  0  0  0  0  0  0  0  0  0  0
   -1.7770    3.3470    3.8500 C   0  0  0  0  0  0  0  0  0  0  0  0
   -2.8910    4.1050    3.5720 C   0  0  0  0  0  0  0  0  0  0  0  0
   -3.9660    3.5620    2.9050 C   0  0  0  0  0  0  0  0  0  0  0  0
   -3.8910    2.2210    2.5170 C   0  0  0  0  0  0  0  0  0  0  0  0
   -2.7800    1.4580    2.7930 C   0  0  0  0  0  0  0  0  0  0  0  0
    0.4910    0.3860    1.6870 C   0  0  0  0  0  0  0  0  0  0  0  0
   -0.2850   -0.6210    1.8830 O   0  0  0  0  0  0  0  0  0  0  0  0
    1.9150    2.5650    1.8520 H   0  0  0  0  0  0  0  0  0  0  0  0
    1.3880    3.0870    3.4240 H   0  0  0  0  0  0  0  0  0  0  0  0
    1.4850    0.8050    3.4450 H   0  0  0  0  0  0  0  0  0  0  0  0
   -0.1190    1.6840    4.7820 H   0  0  0  0  0  0  0  0  0  0  0  0
   -0.7390    0.1920    4.0250 H   0  0  0  0  0  0  0  0  0  0  0  0
   -0.9390    3.8210    4.3890 H   0  0  0  0  0  0  0  0  0  0  0  0
   -2.9450    5.1650    3.8810 H   0  0  0  0  0  0  0  0  0  0  0  0
   -4.8520    4.1480    2.6770 H   0  0  0  0  0  0  0  0  0  0  0  0
   -4.7360    1.8200    2.0000 H   0  0  0  0  0  0  0  0  0  0  0  0
   -2.7390    0.3920    2.4810 H   0  0  0  0  0  0  0  0  0  0  0  0
    1.1160    0.4880    0.4290 N   0  0  0  0  0  0  0  0  0  0  0  0
    0.8900   -0.5020   -0.6320 C   0  0  1  0  0  0  0  0  0  0  0  0
    0.7050    0.0780   -1.9840 C   0  0  0  0  0  0  0  0  0  0  0  0
   -0.4510    1.0070   -2.1030 C   0  0  0  0  0  0  0  0  0  0  0  0
   -0.3050    2.3740   -1.9110 C   0  0  0  0  0  0  0  0  0  0  0  0
   -1.3690    3.2480   -2.0230 C   0  0  0  0  0  0  0  0  0  0  0  0
   -2.6130    2.7820   -2.3280 C   0  0  0  0  0  0  0  0  0  0  0  0
   -2.7970    1.4350   -2.5240 C   0  0  0  0  0  0  0  0  0  0  0  0
   -1.7220    0.5720   -2.4100 C   0  0  0  0  0  0  0  0  0  0  0  0
    1.9340   -1.5720   -0.5610 C   0  0  0  0  0  0  0  0  0  0  0  0
    2.7940   -1.5090    0.3380 O   0  0  0  0  0  0  0  0  0  0  0  0
    1.7570    1.3000    0.2790 H   0  0  0  0  0  0  0  0  0  0  0  0
   -0.1010   -0.9840   -0.3350 H   0  0  0  0  0  0  0  0  0  0  0  0
    1.5920    0.6300   -2.3660 H   0  0  0  0  0  0  0  0  0  0  0  0
    0.4860   -0.7680   -2.6760 H   0  0  0  0  0  0  0  0  0  0  0  0
    0.6580    2.7550   -1.6650 H   0  0  0  0  0  0  0  0  0  0  0  0
   -1.2190    4.3300   -1.8690 H   0  0  0  0  0  0  0  0  0  0  0  0
   -3.4370    3.4870   -2.4100 H   0  0  0  0  0  0  0  0  0  0  0  0
   -3.8070    1.0830   -2.7690 H   0  0  0  0  0  0  0  0  0  0  0  0
   -1.8950   -0.4830   -2.5660 H   0  0  0  0  0  0  0  0  0  0  0  0
    1.9570   -2.6400   -1.4790 N   0  0  0  0  0  0  0  0  0  0  0  0
    2.9100   -3.7170   -1.4700 C   0  0  1  0  0  0  0  0  0  0  0  0
    2.2010   -5.0050   -1.1230 C   0  0  0  0  0  0  0  0  0  0  0  0
    1.5730   -4.9330    0.2010 C   0  0  0  0  0  0  0  0  0  0  0  0
    2.1610   -5.3760    1.3750 C   0  0  0  0  0  0  0  0  0  0  0  0
    1.3450   -5.1200    2.4000 N   0  0  0  0  0  0  0  0  0  0  0  0
    0.2350   -4.5190    1.9250 C   0  0  0  0  0  0  0  0  0  0  0  0
   -0.9190   -4.0520    2.5220 C   0  0  0  0  0  0  0  0  0  0  0  0
   -1.9140   -3.4790    1.7500 C   0  0  0  0  0  0  0  0  0  0  0  0
   -1.7760   -3.3650    0.3870 C   0  0  0  0  0  0  0  0  0  0  0  0
   -0.6340   -3.8260   -0.2130 C   0  0  0  0  0  0  0  0  0  0  0  0
    0.3590   -4.3930    0.5410 C   0  0  0  0  0  0  0  0  0  0  0  0
    3.6950   -3.8390   -2.7200 C   0  0  0  0  0  0  0  0  0  0  0  0
    3.5410   -3.0340   -3.6630 O   0  0  0  0  0  0  0  0  0  0  0  0
    4.6220   -4.8630   -2.8590 O   0  0  0  0  0  0  0  0  0  0  0  0
    1.1910   -2.5850   -2.2260 H   0  0  0  0  0  0  0  0  0  0  0  0
    3.6660   -3.5800   -0.6400 H   0  0  0  0  0  0  0  0  0  0  0  0
    1.4910   -5.3180   -1.9230 H   0  0  0  0  0  0  0  0  0  0  0  0
    3.0030   -5.7970   -1.0760 H   0  0  0  0  0  0  0  0  0  0  0  0
    3.1330   -5.8610    1.4730 H   0  0  0  0  0  0  0  0  0  0  0  0
    1.5410   -5.3520    3.4220 H   0  0  0  0  0  0  0  0  0  0  0  0
   -1.0120   -4.1490    3.6040 H   0  0  0  0  0  0  0  0  0  0  0  0
   -2.7990   -3.1260    2.2580 H   0  0  0  0  0  0  0  0  0  0  0  0
   -2.5870   -2.9050   -0.1640 H   0  0  0  0  0  0  0  0  0  0  0  0
   -0.5650   -3.7400   -1.2720 H   0  0  0  0  0  0  0  0  0  0  0  0
  1  2  1  0  0  0  0
  1 13  1  0  0  0  0
  2 14  1  1  0  0  0
  2  3  1  0  0  0  0
  3 16  1  0  0  0  0
  3 15  1  0  0  0  0
  4  3  1  0  0  0  0
  4  5  1  0  0  0  0
  5 17  1  0  0  0  0
  6  5  2  0  0  0  0
  6 18  1  0  0  0  0
  7  6  1  0  0  0  0
  8  9  1  0  0  0  0
  8  7  2  0  0  0  0
  9  4  2  0  0  0  0
 10 11  2  0  0  0  0
 10  2  1  0  0  0  0
 12  1  1  0  0  0  0
 19  7  1  0  0  0  0
 20  8  1  0  0  0  0
 21  9  1  0  0  0  0
 22 10  1  0  0  0  0
 23 31  1  0  0  0  0
 23 34  1  1  0  0  0
 23 22  1  0  0  0  0
 24 23  1  0  0  0  0
 25 24  1  0  0  0  0
 25 26  1  0  0  0  0
 26 37  1  0  0  0  0
 27 26  2  0  0  0  0
 27 38  1  0  0  0  0
 28 27  1  0  0  0  0
 29 30  1  0  0  0  0
 29 28  2  0  0  0  0
 30 25  2  0  0  0  0
 31 32  2  0  0  0  0
 33 22  1  0  0  0  0
 35 24  1  0  0  0  0
 36 24  1  0  0  0  0
 39 28  1  0  0  0  0
 40 29  1  0  0  0  0
 41 30  1  0  0  0  0
 42 43  1  0  0  0  0
 42 31  1  0  0  0  0
 43 44  1  0  0  0  0
 43 58  1  1  0  0  0
 44 60  1  0  0  0  0
 44 45  1  0  0  0  0
 45 53  1  0  0  0  0
 45 46  2  0  0  0  0
 46 61  1  0  0  0  0
 46 47  1  0  0  0  0
 47 62  1  0  0  0  0
 48 47  1  0  0  0  0
 48 49  1  0  0  0  0
 49 63  1  0  0  0  0
 50 64  1  0  0  0  0
 50 49  2  0  0  0  0
 51 50  1  0  0  0  0
 52 51  2  0  0  0  0
 52 53  1  0  0  0  0
 53 48  2  0  0  0  0
 54 43  1  0  0  0  0
 55 54  2  0  0  0  0
 56 54  1  0  0  0  0
 57 42  1  0  0  0  0
 59 44  1  0  0  0  0
 65 51  1  0  0  0  0
 66 52  1  0  0  0  0
M  END
$$$$
