FFY.pdb
 OpenBabel07022419003D

 63 65  0  0  1  0  0  0  0  0999 V2000
    4.9770    0.5030   -0.3440 N   0  0  0  0  0  0  0  0  0  0  0  0
    3.8050   -0.1850    0.0930 C   0  0  1  0  0  0  0  0  0  0  0  0
    3.7110   -0.1420    1.6270 C   0  0  0  0  0  0  0  0  0  0  0  0
    3.6810    1.2990    2.0180 C   0  0  0  0  0  0  0  0  0  0  0  0
    4.8970    1.9350    2.2620 C   0  0  0  0  0  0  0  0  0  0  0  0
    4.9670    3.2500    2.6240 C   0  0  0  0  0  0  0  0  0  0  0  0
    3.8010    3.9770    2.7530 C   0  0  0  0  0  0  0  0  0  0  0  0
    2.5950    3.3710    2.5180 C   0  0  0  0  0  0  0  0  0  0  0  0
    2.5350    2.0460    2.1540 C   0  0  0  0  0  0  0  0  0  0  0  0
    2.5300    0.3530   -0.4240 C   0  0  0  0  0  0  0  0  0  0  0  0
    2.4420    1.4900   -0.9860 O   0  0  0  0  0  0  0  0  0  0  0  0
    5.7940   -0.1490   -0.2410 H   0  0  0  0  0  0  0  0  0  0  0  0
    4.9130    0.7350   -1.3590 H   0  0  0  0  0  0  0  0  0  0  0  0
    3.8890   -1.2460   -0.2280 H   0  0  0  0  0  0  0  0  0  0  0  0
    2.7210   -0.5740    1.8780 H   0  0  0  0  0  0  0  0  0  0  0  0
    4.5120   -0.7070    2.1000 H   0  0  0  0  0  0  0  0  0  0  0  0
    5.8030    1.3510    2.1570 H   0  0  0  0  0  0  0  0  0  0  0  0
    5.9270    3.7420    2.8130 H   0  0  0  0  0  0  0  0  0  0  0  0
    3.8850    5.0310    3.0440 H   0  0  0  0  0  0  0  0  0  0  0  0
    1.6900    3.9290    2.6150 H   0  0  0  0  0  0  0  0  0  0  0  0
    1.6080    1.5290    1.9590 H   0  0  0  0  0  0  0  0  0  0  0  0
    1.3020   -0.3920   -0.3240 N   0  0  0  0  0  0  0  0  0  0  0  0
    0.0350    0.0870   -0.8170 C   0  0  1  0  0  0  0  0  0  0  0  0
   -0.4010   -0.4590   -2.1110 C   0  0  0  0  0  0  0  0  0  0  0  0
   -0.5940   -1.8770   -2.2890 C   0  0  0  0  0  0  0  0  0  0  0  0
    0.4480   -2.7090   -2.6460 C   0  0  0  0  0  0  0  0  0  0  0  0
    0.3000   -4.0530   -2.8630 C   0  0  0  0  0  0  0  0  0  0  0  0
   -0.9640   -4.6130   -2.7170 C   0  0  0  0  0  0  0  0  0  0  0  0
   -2.0180   -3.8230   -2.3650 C   0  0  0  0  0  0  0  0  0  0  0  0
   -1.8280   -2.4640   -2.1530 C   0  0  0  0  0  0  0  0  0  0  0  0
   -0.9390    0.1520    0.2850 C   0  0  0  0  0  0  0  0  0  0  0  0
   -0.4750   -0.1070    1.4400 O   0  0  0  0  0  0  0  0  0  0  0  0
    1.4020   -1.3200    0.1430 H   0  0  0  0  0  0  0  0  0  0  0  0
    0.1730    1.2250   -1.0650 H   0  0  0  0  0  0  0  0  0  0  0  0
    0.3150   -0.0210   -2.8900 H   0  0  0  0  0  0  0  0  0  0  0  0
   -1.3530    0.1070   -2.3790 H   0  0  0  0  0  0  0  0  0  0  0  0
    1.4170   -2.2630   -2.7540 H   0  0  0  0  0  0  0  0  0  0  0  0
    1.1040   -4.7160   -3.1420 H   0  0  0  0  0  0  0  0  0  0  0  0
   -1.0980   -5.6870   -2.8870 H   0  0  0  0  0  0  0  0  0  0  0  0
   -2.9860   -4.2940   -2.2610 H   0  0  0  0  0  0  0  0  0  0  0  0
   -2.6990   -1.8860   -1.8760 H   0  0  0  0  0  0  0  0  0  0  0  0
   -4.6670   -5.6510    0.3850 O   0  0  0  0  0  0  0  0  0  0  0  0
   -4.2540   -4.4060    0.8210 C   0  0  0  0  0  0  0  0  0  0  0  0
   -2.9270   -4.0840    0.8230 C   0  0  0  0  0  0  0  0  0  0  0  0
   -2.5550   -2.8140    1.2720 C   0  0  0  0  0  0  0  0  0  0  0  0
   -3.4650   -1.8870    1.7070 C   0  0  0  0  0  0  0  0  0  0  0  0
   -3.1640   -0.5470    2.2120 C   0  0  0  0  0  0  0  0  0  0  0  0
   -3.2020    0.5620    1.2220 C   0  0  2  0  0  0  0  0  0  0  0  0
   -2.2900    0.4770    0.1380 N   0  0  0  0  0  0  0  0  0  0  0  0
   -2.9770    1.8300    2.0250 C   0  0  0  0  0  0  0  0  0  0  0  0
   -3.7090    2.0540    3.0230 O   0  0  0  0  0  0  0  0  0  0  0  0
   -4.8030   -2.2660    1.6830 C   0  0  0  0  0  0  0  0  0  0  0  0
   -5.1870   -3.5040    1.2470 C   0  0  0  0  0  0  0  0  0  0  0  0
   -2.0080    2.7430    1.7090 O   0  0  0  0  0  0  0  0  0  0  0  0
   -4.9820   -5.8440   -0.5660 H   0  0  0  0  0  0  0  0  0  0  0  0
   -2.1980   -4.7890    0.4900 H   0  0  0  0  0  0  0  0  0  0  0  0
   -1.5170   -2.5750    1.2720 H   0  0  0  0  0  0  0  0  0  0  0  0
   -2.1940   -0.6120    2.7530 H   0  0  0  0  0  0  0  0  0  0  0  0
   -3.9200   -0.3160    3.0460 H   0  0  0  0  0  0  0  0  0  0  0  0
   -4.2740    0.6550    0.8420 H   0  0  0  0  0  0  0  0  0  0  0  0
   -2.5930    0.6610   -0.8760 H   0  0  0  0  0  0  0  0  0  0  0  0
   -5.5570   -1.5530    2.0220 H   0  0  0  0  0  0  0  0  0  0  0  0
   -6.2600   -3.7370    1.2540 H   0  0  0  0  0  0  0  0  0  0  0  0
  1 12  1  0  0  0  0
  1  2  1  0  0  0  0
  2 14  1  6  0  0  0
  2  3  1  0  0  0  0
  3 15  1  0  0  0  0
  3  4  1  0  0  0  0
  3 16  1  0  0  0  0
  4  9  2  0  0  0  0
  4  5  1  0  0  0  0
  5  6  2  0  0  0  0
  6  7  1  0  0  0  0
  6 18  1  0  0  0  0
  7 19  1  0  0  0  0
  8 20  1  0  0  0  0
  8  7  2  0  0  0  0
  9  8  1  0  0  0  0
 10 22  1  0  0  0  0
 10  2  1  0  0  0  0
 11 10  2  0  0  0  0
 13  1  1  0  0  0  0
 17  5  1  0  0  0  0
 21  9  1  0  0  0  0
 22 33  1  0  0  0  0
 23 34  1  6  0  0  0
 23 22  1  0  0  0  0
 23 31  1  0  0  0  0
 24 23  1  0  0  0  0
 25 30  1  0  0  0  0
 25 24  1  0  0  0  0
 26 25  2  0  0  0  0
 27 28  2  0  0  0  0
 27 26  1  0  0  0  0
 28 29  1  0  0  0  0
 29 40  1  0  0  0  0
 29 30  2  0  0  0  0
 30 41  1  0  0  0  0
 31 32  2  0  0  0  0
 35 24  1  0  0  0  0
 36 24  1  0  0  0  0
 37 26  1  0  0  0  0
 38 27  1  0  0  0  0
 39 28  1  0  0  0  0
 42 43  1  0  0  0  0
 43 44  2  0  0  0  0
 43 53  1  0  0  0  0
 44 45  1  0  0  0  0
 45 46  2  0  0  0  0
 46 47  1  0  0  0  0
 47 58  1  0  0  0  0
 47 59  1  0  0  0  0
 48 60  1  6  0  0  0
 48 50  1  0  0  0  0
 48 47  1  0  0  0  0
 49 31  1  0  0  0  0
 49 48  1  0  0  0  0
 50 51  1  0  0  0  0
 52 46  1  0  0  0  0
 52 62  1  0  0  0  0
 53 63  1  0  0  0  0
 53 52  2  0  0  0  0
 54 50  2  0  0  0  0
 55 42  1  0  0  0  0
 56 44  1  0  0  0  0
 57 45  1  0  0  0  0
 61 49  1  0  0  0  0
M  END
$$$$
