FGA.pdb
 OpenBabel07022418593D

 39 39  0  0  1  0  0  0  0  0999 V2000
   -1.9200   -0.3720   -1.8690 N   0  0  0  0  0  0  0  0  0  0  0  0
   -1.0410   -1.0790   -0.9590 C   0  0  1  0  0  0  0  0  0  0  0  0
   -0.5690   -2.3640   -1.5620 C   0  0  0  0  0  0  0  0  0  0  0  0
    0.3390   -3.1460   -0.6920 C   0  0  0  0  0  0  0  0  0  0  0  0
   -0.1560   -4.0740    0.2330 C   0  0  0  0  0  0  0  0  0  0  0  0
    0.7070   -4.7940    1.0280 C   0  0  0  0  0  0  0  0  0  0  0  0
    2.0700   -4.6320    0.9450 C   0  0  0  0  0  0  0  0  0  0  0  0
    2.5780   -3.7280    0.0460 C   0  0  0  0  0  0  0  0  0  0  0  0
    1.7020   -3.0170   -0.7410 C   0  0  0  0  0  0  0  0  0  0  0  0
    0.0690   -0.1670   -0.5730 C   0  0  0  0  0  0  0  0  0  0  0  0
    0.9640   -0.5300    0.2590 O   0  0  0  0  0  0  0  0  0  0  0  0
   -2.9190   -0.5170   -1.6850 H   0  0  0  0  0  0  0  0  0  0  0  0
   -1.6670   -0.6960   -2.8350 H   0  0  0  0  0  0  0  0  0  0  0  0
   -1.6160   -1.3620   -0.0280 H   0  0  0  0  0  0  0  0  0  0  0  0
   -1.4630   -3.0050   -1.7540 H   0  0  0  0  0  0  0  0  0  0  0  0
   -0.1200   -2.2060   -2.5830 H   0  0  0  0  0  0  0  0  0  0  0  0
   -1.2260   -4.2100    0.3080 H   0  0  0  0  0  0  0  0  0  0  0  0
    0.3420   -5.5230    1.7560 H   0  0  0  0  0  0  0  0  0  0  0  0
    2.7760   -5.1790    1.5520 H   0  0  0  0  0  0  0  0  0  0  0  0
    3.6530   -3.5560   -0.0650 H   0  0  0  0  0  0  0  0  0  0  0  0
    2.1300   -2.3180   -1.4400 H   0  0  0  0  0  0  0  0  0  0  0  0
    0.1910    1.1450   -1.1050 N   0  0  0  0  0  0  0  0  0  0  0  0
    1.2800    1.9840   -0.6820 C   0  0  0  0  0  0  0  0  0  0  0  0
    1.2560    2.3220    0.7610 C   0  0  0  0  0  0  0  0  0  0  0  0
    2.1900    3.0180    1.2840 O   0  0  0  0  0  0  0  0  0  0  0  0
   -0.5320    1.4750   -1.8070 H   0  0  0  0  0  0  0  0  0  0  0  0
    1.2970    2.9320   -1.2610 H   0  0  0  0  0  0  0  0  0  0  0  0
    2.2210    1.4480   -0.9260 H   0  0  0  0  0  0  0  0  0  0  0  0
   -0.9250    3.1180    3.4480 C   0  0  0  0  0  0  0  0  0  0  0  0
    0.2450    2.2620    3.0520 C   0  0  2  0  0  0  0  0  0  0  0  0
    0.2210    1.9110    1.6420 N   0  0  0  0  0  0  0  0  0  0  0  0
    0.3050    1.0780    3.9180 C   0  0  0  0  0  0  0  0  0  0  0  0
    0.3330   -0.1090    3.5040 O   0  0  0  0  0  0  0  0  0  0  0  0
    0.3320    1.2740    5.2900 O   0  0  0  0  0  0  0  0  0  0  0  0
   -1.8430    2.8860    2.8820 H   0  0  0  0  0  0  0  0  0  0  0  0
   -0.6510    4.2010    3.3820 H   0  0  0  0  0  0  0  0  0  0  0  0
   -1.1430    2.9130    4.5120 H   0  0  0  0  0  0  0  0  0  0  0  0
    1.1640    2.8550    3.2260 H   0  0  0  0  0  0  0  0  0  0  0  0
   -0.5920    1.3540    1.2700 H   0  0  0  0  0  0  0  0  0  0  0  0
  1 12  1  0  0  0  0
  1  2  1  0  0  0  0
  2 10  1  0  0  0  0
  2 14  1  1  0  0  0
  3  2  1  0  0  0  0
  3  4  1  0  0  0  0
  4  5  1  0  0  0  0
  5 17  1  0  0  0  0
  5  6  2  0  0  0  0
  6 18  1  0  0  0  0
  7  6  1  0  0  0  0
  7 19  1  0  0  0  0
  8  7  2  0  0  0  0
  9  4  2  0  0  0  0
  9  8  1  0  0  0  0
 10 11  2  0  0  0  0
 13  1  1  0  0  0  0
 15  3  1  0  0  0  0
 16  3  1  0  0  0  0
 20  8  1  0  0  0  0
 21  9  1  0  0  0  0
 22 23  1  0  0  0  0
 22 10  1  0  0  0  0
 23 24  1  0  0  0  0
 24 25  2  0  0  0  0
 24 31  1  0  0  0  0
 26 22  1  0  0  0  0
 27 23  1  0  0  0  0
 28 23  1  0  0  0  0
 29 37  1  0  0  0  0
 30 38  1  1  0  0  0
 30 29  1  0  0  0  0
 30 32  1  0  0  0  0
 31 30  1  0  0  0  0
 32 34  1  0  0  0  0
 33 32  2  0  0  0  0
 35 29  1  0  0  0  0
 36 29  1  0  0  0  0
 39 31  1  0  0  0  0
M  END
$$$$
