FGC.pdb
 OpenBabel07022418593D

 40 40  0  0  1  0  0  0  0  0999 V2000
    1.3380   -3.6150    0.3870 N   0  0  0  0  0  0  0  0  0  0  0  0
    1.6970   -2.5300   -0.5200 C   0  0  1  0  0  0  0  0  0  0  0  0
    0.6850   -2.2580   -1.5520 C   0  0  0  0  0  0  0  0  0  0  0  0
   -0.6520   -1.8680   -1.1550 C   0  0  0  0  0  0  0  0  0  0  0  0
   -1.6890   -2.7320   -0.8770 C   0  0  0  0  0  0  0  0  0  0  0  0
   -2.9300   -2.2430   -0.5310 C   0  0  0  0  0  0  0  0  0  0  0  0
   -3.2010   -0.9010   -0.4440 C   0  0  0  0  0  0  0  0  0  0  0  0
   -2.1690   -0.0320   -0.7200 C   0  0  0  0  0  0  0  0  0  0  0  0
   -0.9380   -0.5040   -1.0630 C   0  0  0  0  0  0  0  0  0  0  0  0
    2.3080   -1.3910    0.1690 C   0  0  0  0  0  0  0  0  0  0  0  0
    2.6480   -1.6090    1.3880 O   0  0  0  0  0  0  0  0  0  0  0  0
    1.4170   -4.5450   -0.0590 H   0  0  0  0  0  0  0  0  0  0  0  0
    1.8200   -3.5380    1.3080 H   0  0  0  0  0  0  0  0  0  0  0  0
    2.5800   -2.9960   -1.1000 H   0  0  0  0  0  0  0  0  0  0  0  0
    0.6140   -3.1790   -2.1960 H   0  0  0  0  0  0  0  0  0  0  0  0
    1.1140   -1.4920   -2.2660 H   0  0  0  0  0  0  0  0  0  0  0  0
   -1.4930   -3.7780   -0.9410 H   0  0  0  0  0  0  0  0  0  0  0  0
   -3.7310   -2.9450   -0.3170 H   0  0  0  0  0  0  0  0  0  0  0  0
   -4.1860   -0.5250   -0.1700 H   0  0  0  0  0  0  0  0  0  0  0  0
   -2.3520    1.0450   -0.6600 H   0  0  0  0  0  0  0  0  0  0  0  0
   -0.1560    0.2200   -1.2720 H   0  0  0  0  0  0  0  0  0  0  0  0
    2.5250   -0.1290   -0.4340 N   0  0  0  0  0  0  0  0  0  0  0  0
    3.1310    0.9500    0.2670 C   0  0  0  0  0  0  0  0  0  0  0  0
    2.4640    1.4610    1.4590 C   0  0  0  0  0  0  0  0  0  0  0  0
    3.0330    2.4050    2.0740 O   0  0  0  0  0  0  0  0  0  0  0  0
    2.2180   -0.0210   -1.4310 H   0  0  0  0  0  0  0  0  0  0  0  0
    3.3240    1.7570   -0.4920 H   0  0  0  0  0  0  0  0  0  0  0  0
    4.1940    0.6610    0.5890 H   0  0  0  0  0  0  0  0  0  0  0  0
    1.2630    1.0150    1.9920 N   0  0  0  0  0  0  0  0  0  0  0  0
    0.6440    1.5490    3.1800 C   0  0  1  0  0  0  0  0  0  0  0  0
   -0.7570    1.9690    3.1080 C   0  0  0  0  0  0  0  0  0  0  0  0
   -1.9100    0.6460    2.6660 S   0  0  0  0  0  0  0  0  0  0  0  0
    0.7840    0.5410    4.2780 C   0  0  0  0  0  0  0  0  0  0  0  0
    0.3310    0.7460    5.4330 O   0  0  0  0  0  0  0  0  0  0  0  0
    1.4250   -0.6660    4.0550 O   0  0  0  0  0  0  0  0  0  0  0  0
    0.7350    0.2500    1.5220 H   0  0  0  0  0  0  0  0  0  0  0  0
    1.2780    2.4010    3.5090 H   0  0  0  0  0  0  0  0  0  0  0  0
   -0.9450    2.8960    2.5200 H   0  0  0  0  0  0  0  0  0  0  0  0
   -1.0550    2.2620    4.1610 H   0  0  0  0  0  0  0  0  0  0  0  0
   -3.0870    1.1250    2.0960 H   0  0  0  0  0  0  0  0  0  0  0  0
  1 13  1  0  0  0  0
  2 14  1  6  0  0  0
  2 10  1  0  0  0  0
  2  1  1  0  0  0  0
  3  4  1  0  0  0  0
  3  2  1  0  0  0  0
  4  9  2  0  0  0  0
  4  5  1  0  0  0  0
  5  6  2  0  0  0  0
  6  7  1  0  0  0  0
  6 18  1  0  0  0  0
  7 19  1  0  0  0  0
  8 20  1  0  0  0  0
  8  7  2  0  0  0  0
  9  8  1  0  0  0  0
 10 11  2  0  0  0  0
 12  1  1  0  0  0  0
 15  3  1  0  0  0  0
 16  3  1  0  0  0  0
 17  5  1  0  0  0  0
 21  9  1  0  0  0  0
 22 10  1  0  0  0  0
 22 23  1  0  0  0  0
 23 28  1  0  0  0  0
 23 24  1  0  0  0  0
 24 29  1  0  0  0  0
 24 25  2  0  0  0  0
 26 22  1  0  0  0  0
 27 23  1  0  0  0  0
 29 30  1  0  0  0  0
 30 37  1  1  0  0  0
 30 33  1  0  0  0  0
 31 30  1  0  0  0  0
 31 39  1  0  0  0  0
 32 31  1  0  0  0  0
 33 34  1  0  0  0  0
 35 33  2  0  0  0  0
 36 29  1  0  0  0  0
 38 31  1  0  0  0  0
 40 32  1  0  0  0  0
M  END
$$$$
