FGG.pdb
 OpenBabel07022418593D

 36 36  0  0  1  0  0  0  0  0999 V2000
   -1.9910   -0.9240   -1.0520 N   0  0  0  0  0  0  0  0  0  0  0  0
   -1.8190   -1.6590    0.1860 C   0  0  1  0  0  0  0  0  0  0  0  0
   -0.9780   -2.8490    0.0970 C   0  0  0  0  0  0  0  0  0  0  0  0
    0.4010   -2.7680   -0.3190 C   0  0  0  0  0  0  0  0  0  0  0  0
    1.4070   -2.6230    0.6100 C   0  0  0  0  0  0  0  0  0  0  0  0
    2.7540   -2.5640    0.2330 C   0  0  0  0  0  0  0  0  0  0  0  0
    3.1010   -2.6500   -1.0800 C   0  0  0  0  0  0  0  0  0  0  0  0
    2.0960   -2.7930   -2.0110 C   0  0  0  0  0  0  0  0  0  0  0  0
    0.7450   -2.8540   -1.6500 C   0  0  0  0  0  0  0  0  0  0  0  0
   -1.6480   -0.7200    1.2890 C   0  0  0  0  0  0  0  0  0  0  0  0
   -1.1180   -0.9830    2.3930 O   0  0  0  0  0  0  0  0  0  0  0  0
   -1.7100   -1.4330   -1.8950 H   0  0  0  0  0  0  0  0  0  0  0  0
   -2.9680   -0.5850   -1.2120 H   0  0  0  0  0  0  0  0  0  0  0  0
   -2.9120   -2.0510    0.3690 H   0  0  0  0  0  0  0  0  0  0  0  0
   -1.0950   -3.4390    1.0670 H   0  0  0  0  0  0  0  0  0  0  0  0
   -1.4930   -3.5580   -0.6330 H   0  0  0  0  0  0  0  0  0  0  0  0
    1.2280   -2.5470    1.6730 H   0  0  0  0  0  0  0  0  0  0  0  0
    3.5390   -2.4510    0.9730 H   0  0  0  0  0  0  0  0  0  0  0  0
    4.1540   -2.6030   -1.3750 H   0  0  0  0  0  0  0  0  0  0  0  0
    2.3520   -2.8620   -3.0520 H   0  0  0  0  0  0  0  0  0  0  0  0
    0.0280   -2.9710   -2.4570 H   0  0  0  0  0  0  0  0  0  0  0  0
   -2.1360    0.6120    1.0930 N   0  0  0  0  0  0  0  0  0  0  0  0
   -2.0590    1.6440    2.0770 C   0  0  0  0  0  0  0  0  0  0  0  0
   -0.7270    2.0810    2.4840 C   0  0  0  0  0  0  0  0  0  0  0  0
   -0.6120    2.9670    3.4000 O   0  0  0  0  0  0  0  0  0  0  0  0
   -2.5900    0.8690    0.1560 H   0  0  0  0  0  0  0  0  0  0  0  0
   -2.5930    2.5570    1.7130 H   0  0  0  0  0  0  0  0  0  0  0  0
   -2.6480    1.3690    3.0070 H   0  0  0  0  0  0  0  0  0  0  0  0
    0.4570    1.5840    1.9210 N   0  0  0  0  0  0  0  0  0  0  0  0
    1.7440    2.0990    2.4110 C   0  0  0  0  0  0  0  0  0  0  0  0
    2.8540    1.4740    1.6620 C   0  0  0  0  0  0  0  0  0  0  0  0
    4.0600    1.7070    1.9140 O   0  0  0  0  0  0  0  0  0  0  0  0
    2.5610    0.5930    0.6380 O   0  0  0  0  0  0  0  0  0  0  0  0
    0.4590    0.8740    1.1750 H   0  0  0  0  0  0  0  0  0  0  0  0
    1.6950    3.1990    2.2530 H   0  0  0  0  0  0  0  0  0  0  0  0
    1.8400    1.9210    3.4990 H   0  0  0  0  0  0  0  0  0  0  0  0
  1  2  1  0  0  0  0
  2 14  1  1  0  0  0
  2 10  1  0  0  0  0
  3  2  1  0  0  0  0
  3 15  1  0  0  0  0
  4  3  1  0  0  0  0
  4  5  1  0  0  0  0
  5 17  1  0  0  0  0
  6  5  2  0  0  0  0
  6 18  1  0  0  0  0
  7  6  1  0  0  0  0
  8  9  1  0  0  0  0
  8  7  2  0  0  0  0
  9  4  2  0  0  0  0
 10 11  2  0  0  0  0
 12  1  1  0  0  0  0
 13  1  1  0  0  0  0
 16  3  1  0  0  0  0
 19  7  1  0  0  0  0
 20  8  1  0  0  0  0
 21  9  1  0  0  0  0
 22 10  1  0  0  0  0
 22 23  1  0  0  0  0
 23 24  1  0  0  0  0
 23 28  1  0  0  0  0
 24 25  2  0  0  0  0
 26 22  1  0  0  0  0
 27 23  1  0  0  0  0
 29 30  1  0  0  0  0
 29 24  1  0  0  0  0
 30 36  1  0  0  0  0
 31 32  1  0  0  0  0
 31 30  1  0  0  0  0
 33 31  2  0  0  0  0
 34 29  1  0  0  0  0
 35 30  1  0  0  0  0
M  END
$$$$
