FGK.pdb
 OpenBabel07022418593D

 50 50  0  0  1  0  0  0  0  0999 V2000
    4.1910   -0.2670    2.3100 N   0  0  0  0  0  0  0  0  0  0  0  0
    3.3730   -0.0110    1.1130 C   0  0  1  0  0  0  0  0  0  0  0  0
    3.3700   -1.2500    0.2820 C   0  0  0  0  0  0  0  0  0  0  0  0
    2.6000   -1.1610   -0.9720 C   0  0  0  0  0  0  0  0  0  0  0  0
    1.2750   -1.5250   -1.0670 C   0  0  0  0  0  0  0  0  0  0  0  0
    0.5570   -1.4400   -2.2360 C   0  0  0  0  0  0  0  0  0  0  0  0
    1.1840   -0.9700   -3.3760 C   0  0  0  0  0  0  0  0  0  0  0  0
    2.5040   -0.5930   -3.3380 C   0  0  0  0  0  0  0  0  0  0  0  0
    3.1910   -0.6900   -2.1560 C   0  0  0  0  0  0  0  0  0  0  0  0
    2.0380    0.4570    1.5270 C   0  0  0  0  0  0  0  0  0  0  0  0
    1.1690    0.6810    0.6630 O   0  0  0  0  0  0  0  0  0  0  0  0
    5.1860   -0.3530    1.9750 H   0  0  0  0  0  0  0  0  0  0  0  0
    3.8610   -1.2000    2.6730 H   0  0  0  0  0  0  0  0  0  0  0  0
    3.8900    0.7820    0.5320 H   0  0  0  0  0  0  0  0  0  0  0  0
    2.8500   -2.0410    0.8990 H   0  0  0  0  0  0  0  0  0  0  0  0
    4.4010   -1.6090    0.0860 H   0  0  0  0  0  0  0  0  0  0  0  0
    0.7980   -1.8970   -0.1590 H   0  0  0  0  0  0  0  0  0  0  0  0
   -0.4670   -1.7270   -2.2900 H   0  0  0  0  0  0  0  0  0  0  0  0
    0.5820   -0.9140   -4.2960 H   0  0  0  0  0  0  0  0  0  0  0  0
    2.9620   -0.2330   -4.2370 H   0  0  0  0  0  0  0  0  0  0  0  0
    4.2290   -0.4080   -2.0740 H   0  0  0  0  0  0  0  0  0  0  0  0
    1.7390    0.6560    2.8850 N   0  0  0  0  0  0  0  0  0  0  0  0
    0.4840    1.1050    3.3960 C   0  0  0  0  0  0  0  0  0  0  0  0
   -0.6580    0.2350    3.1600 C   0  0  0  0  0  0  0  0  0  0  0  0
   -1.7890    0.6730    3.6100 O   0  0  0  0  0  0  0  0  0  0  0  0
    2.5310    0.4470    3.5700 H   0  0  0  0  0  0  0  0  0  0  0  0
    0.3040    2.1250    2.9190 H   0  0  0  0  0  0  0  0  0  0  0  0
    0.5580    1.3800    4.4900 H   0  0  0  0  0  0  0  0  0  0  0  0
   -0.5870   -1.0050    2.4990 N   0  0  0  0  0  0  0  0  0  0  0  0
   -1.8100   -1.7720    2.3370 C   0  0  1  0  0  0  0  0  0  0  0  0
   -2.1070   -2.1210    0.8980 C   0  0  0  0  0  0  0  0  0  0  0  0
   -2.2830   -0.9500   -0.0060 C   0  0  0  0  0  0  0  0  0  0  0  0
   -3.4140   -0.0560    0.3860 C   0  0  0  0  0  0  0  0  0  0  0  0
   -3.5880    1.1220   -0.5210 C   0  0  0  0  0  0  0  0  0  0  0  0
   -2.4820    1.9900   -0.6050 N   0  0  0  0  0  0  0  0  0  0  0  0
   -1.6810   -3.0670    3.0520 C   0  0  0  0  0  0  0  0  0  0  0  0
   -0.6260   -3.3230    3.6580 O   0  0  0  0  0  0  0  0  0  0  0  0
   -2.7120   -3.9860    3.0540 O   0  0  0  0  0  0  0  0  0  0  0  0
    0.3070   -1.3860    2.1360 H   0  0  0  0  0  0  0  0  0  0  0  0
   -2.6810   -1.2120    2.7480 H   0  0  0  0  0  0  0  0  0  0  0  0
   -1.2900   -2.7930    0.5570 H   0  0  0  0  0  0  0  0  0  0  0  0
   -3.0130   -2.7830    0.9180 H   0  0  0  0  0  0  0  0  0  0  0  0
   -1.3600   -0.3640   -0.0150 H   0  0  0  0  0  0  0  0  0  0  0  0
   -2.4640   -1.3660   -1.0410 H   0  0  0  0  0  0  0  0  0  0  0  0
   -3.3520    0.2180    1.4360 H   0  0  0  0  0  0  0  0  0  0  0  0
   -4.3650   -0.6620    0.2910 H   0  0  0  0  0  0  0  0  0  0  0  0
   -3.8950    0.8170   -1.5380 H   0  0  0  0  0  0  0  0  0  0  0  0
   -4.4630    1.7090   -0.1170 H   0  0  0  0  0  0  0  0  0  0  0  0
   -2.1590    2.4450    0.2420 H   0  0  0  0  0  0  0  0  0  0  0  0
   -1.7970    1.8190   -1.3480 H   0  0  0  0  0  0  0  0  0  0  0  0
  1 13  1  0  0  0  0
  2 14  1  6  0  0  0
  2 10  1  0  0  0  0
  2  1  1  0  0  0  0
  3 15  1  0  0  0  0
  3  2  1  0  0  0  0
  4  3  1  0  0  0  0
  5  4  1  0  0  0  0
  5 17  1  0  0  0  0
  6  5  2  0  0  0  0
  7  8  2  0  0  0  0
  7  6  1  0  0  0  0
  8  9  1  0  0  0  0
  9 21  1  0  0  0  0
  9  4  2  0  0  0  0
 10 22  1  0  0  0  0
 11 10  2  0  0  0  0
 12  1  1  0  0  0  0
 16  3  1  0  0  0  0
 18  6  1  0  0  0  0
 19  7  1  0  0  0  0
 20  8  1  0  0  0  0
 22 23  1  0  0  0  0
 22 26  1  0  0  0  0
 23 28  1  0  0  0  0
 24 23  1  0  0  0  0
 24 25  2  0  0  0  0
 27 23  1  0  0  0  0
 29 24  1  0  0  0  0
 30 29  1  0  0  0  0
 30 40  1  1  0  0  0
 30 36  1  0  0  0  0
 31 42  1  0  0  0  0
 31 30  1  0  0  0  0
 32 33  1  0  0  0  0
 32 31  1  0  0  0  0
 33 45  1  0  0  0  0
 34 48  1  0  0  0  0
 34 33  1  0  0  0  0
 35 34  1  0  0  0  0
 35 49  1  0  0  0  0
 36 38  2  0  0  0  0
 36 37  1  0  0  0  0
 39 29  1  0  0  0  0
 41 31  1  0  0  0  0
 43 32  1  0  0  0  0
 44 32  1  0  0  0  0
 46 33  1  0  0  0  0
 47 34  1  0  0  0  0
 50 35  1  0  0  0  0
M  END
$$$$
