FGL.pdb
 OpenBabel07022418593D

 48 48  0  0  1  0  0  0  0  0999 V2000
    2.6030   -1.9440    1.9330 N   0  0  0  0  0  0  0  0  0  0  0  0
    3.5340   -0.9790    1.4470 C   0  0  1  0  0  0  0  0  0  0  0  0
    4.2160   -1.5360    0.2210 C   0  0  0  0  0  0  0  0  0  0  0  0
    3.2920   -1.8530   -0.8690 C   0  0  0  0  0  0  0  0  0  0  0  0
    2.7370   -3.1130   -0.9360 C   0  0  0  0  0  0  0  0  0  0  0  0
    1.8530   -3.4440   -1.9630 C   0  0  0  0  0  0  0  0  0  0  0  0
    1.5100   -2.5260   -2.9360 C   0  0  0  0  0  0  0  0  0  0  0  0
    2.0690   -1.2540   -2.8700 C   0  0  0  0  0  0  0  0  0  0  0  0
    2.9300   -0.9580   -1.8540 C   0  0  0  0  0  0  0  0  0  0  0  0
    2.9590    0.3500    1.2380 C   0  0  0  0  0  0  0  0  0  0  0  0
    3.6280    1.3190    0.8170 O   0  0  0  0  0  0  0  0  0  0  0  0
    2.2890   -1.7760    2.9140 H   0  0  0  0  0  0  0  0  0  0  0  0
    1.8460   -2.1880    1.2870 H   0  0  0  0  0  0  0  0  0  0  0  0
    4.3390   -0.8720    2.2260 H   0  0  0  0  0  0  0  0  0  0  0  0
    5.0390   -0.8410   -0.0920 H   0  0  0  0  0  0  0  0  0  0  0  0
    4.7230   -2.4740    0.5280 H   0  0  0  0  0  0  0  0  0  0  0  0
    2.9470   -3.8910   -0.2210 H   0  0  0  0  0  0  0  0  0  0  0  0
    1.4040   -4.4280   -2.0370 H   0  0  0  0  0  0  0  0  0  0  0  0
    0.8400   -2.7320   -3.7390 H   0  0  0  0  0  0  0  0  0  0  0  0
    1.8460   -0.4880   -3.5960 H   0  0  0  0  0  0  0  0  0  0  0  0
    3.3650    0.0270   -1.8010 H   0  0  0  0  0  0  0  0  0  0  0  0
    1.5530    0.5890    1.5220 N   0  0  0  0  0  0  0  0  0  0  0  0
    0.9710    1.8680    1.3280 C   0  0  0  0  0  0  0  0  0  0  0  0
   -0.4560    2.0000    1.6460 C   0  0  0  0  0  0  0  0  0  0  0  0
   -1.0560    3.1160    1.4990 O   0  0  0  0  0  0  0  0  0  0  0  0
    1.0240   -0.2330    1.8700 H   0  0  0  0  0  0  0  0  0  0  0  0
    1.5790    2.6780    1.8120 H   0  0  0  0  0  0  0  0  0  0  0  0
    1.0870    2.1050    0.2220 H   0  0  0  0  0  0  0  0  0  0  0  0
   -1.9290   -1.4470    0.5590 C   0  0  0  0  0  0  0  0  0  0  0  0
   -3.2470   -0.9790    1.0110 C   0  0  0  0  0  0  0  0  0  0  0  0
   -4.2780   -1.3570   -0.0700 C   0  0  0  0  0  0  0  0  0  0  0  0
   -3.4430    0.4380    1.3450 C   0  0  0  0  0  0  0  0  0  0  0  0
   -2.6450    1.0470    2.4400 C   0  0  2  0  0  0  0  0  0  0  0  0
   -1.2420    0.9480    2.1190 N   0  0  0  0  0  0  0  0  0  0  0  0
   -3.0040    0.5930    3.7670 C   0  0  0  0  0  0  0  0  0  0  0  0
   -2.1580    0.1500    4.5730 O   0  0  0  0  0  0  0  0  0  0  0  0
   -4.3140    0.6330    4.2000 O   0  0  0  0  0  0  0  0  0  0  0  0
   -1.3590   -0.6380    0.0770 H   0  0  0  0  0  0  0  0  0  0  0  0
   -2.0920   -2.1890   -0.2870 H   0  0  0  0  0  0  0  0  0  0  0  0
   -1.3390   -2.0420    1.2830 H   0  0  0  0  0  0  0  0  0  0  0  0
   -3.5530   -1.5810    1.9180 H   0  0  0  0  0  0  0  0  0  0  0  0
   -5.2940   -1.2200    0.2990 H   0  0  0  0  0  0  0  0  0  0  0  0
   -4.1440   -2.4440   -0.3400 H   0  0  0  0  0  0  0  0  0  0  0  0
   -4.0330   -0.7820   -0.9840 H   0  0  0  0  0  0  0  0  0  0  0  0
   -4.5380    0.6530    1.5180 H   0  0  0  0  0  0  0  0  0  0  0  0
   -3.2240    1.0620    0.4210 H   0  0  0  0  0  0  0  0  0  0  0  0
   -2.8690    2.1630    2.3770 H   0  0  0  0  0  0  0  0  0  0  0  0
   -0.8280    0.0170    2.2810 H   0  0  0  0  0  0  0  0  0  0  0  0
  1 12  1  0  0  0  0
  2  1  1  0  0  0  0
  2 14  1  1  0  0  0
  3 16  1  0  0  0  0
  3  2  1  0  0  0  0
  4  3  1  0  0  0  0
  5  4  1  0  0  0  0
  5 17  1  0  0  0  0
  6  5  2  0  0  0  0
  7  8  2  0  0  0  0
  7  6  1  0  0  0  0
  8  9  1  0  0  0  0
  9 21  1  0  0  0  0
  9  4  2  0  0  0  0
 10  2  1  0  0  0  0
 10 22  1  0  0  0  0
 11 10  2  0  0  0  0
 13  1  1  0  0  0  0
 15  3  1  0  0  0  0
 18  6  1  0  0  0  0
 19  7  1  0  0  0  0
 20  8  1  0  0  0  0
 22 26  1  0  0  0  0
 23 22  1  0  0  0  0
 23 24  1  0  0  0  0
 23 27  1  0  0  0  0
 24 34  1  0  0  0  0
 25 24  2  0  0  0  0
 28 23  1  0  0  0  0
 29 30  1  0  0  0  0
 29 40  1  0  0  0  0
 30 32  1  0  0  0  0
 30 41  1  0  0  0  0
 31 42  1  0  0  0  0
 31 30  1  0  0  0  0
 32 45  1  0  0  0  0
 32 33  1  0  0  0  0
 33 47  1  6  0  0  0
 33 35  1  0  0  0  0
 34 48  1  0  0  0  0
 34 33  1  0  0  0  0
 35 37  2  0  0  0  0
 35 36  1  0  0  0  0
 38 29  1  0  0  0  0
 39 29  1  0  0  0  0
 43 31  1  0  0  0  0
 44 31  1  0  0  0  0
 46 32  1  0  0  0  0
M  END
$$$$
