FGM.pdb
 OpenBabel07022418593D

 46 46  0  0  1  0  0  0  0  0999 V2000
    3.6080   -0.8560    1.4930 N   0  0  0  0  0  0  0  0  0  0  0  0
    3.1870   -0.6830    0.1290 C   0  0  1  0  0  0  0  0  0  0  0  0
    2.7960   -1.8850   -0.6110 C   0  0  0  0  0  0  0  0  0  0  0  0
    1.6940   -2.6970   -0.1220 C   0  0  0  0  0  0  0  0  0  0  0  0
    1.9590   -3.6610    0.8350 C   0  0  0  0  0  0  0  0  0  0  0  0
    0.9950   -4.4810    1.3240 C   0  0  0  0  0  0  0  0  0  0  0  0
   -0.2950   -4.3710    0.8710 C   0  0  0  0  0  0  0  0  0  0  0  0
   -0.6110   -3.4310   -0.0770 C   0  0  0  0  0  0  0  0  0  0  0  0
    0.3910   -2.6070   -0.5600 C   0  0  0  0  0  0  0  0  0  0  0  0
    2.3560    0.5260   -0.0960 C   0  0  0  0  0  0  0  0  0  0  0  0
    1.6160    0.6200   -1.0990 O   0  0  0  0  0  0  0  0  0  0  0  0
    4.4380   -1.4920    1.4950 H   0  0  0  0  0  0  0  0  0  0  0  0
    2.8820   -1.3360    2.0840 H   0  0  0  0  0  0  0  0  0  0  0  0
    4.1910   -0.3650   -0.3850 H   0  0  0  0  0  0  0  0  0  0  0  0
    2.6880   -1.6190   -1.6960 H   0  0  0  0  0  0  0  0  0  0  0  0
    3.7060   -2.5700   -0.6300 H   0  0  0  0  0  0  0  0  0  0  0  0
    2.9770   -3.7890    1.2310 H   0  0  0  0  0  0  0  0  0  0  0  0
    1.2190   -5.2430    2.0850 H   0  0  0  0  0  0  0  0  0  0  0  0
   -1.0590   -5.0200    1.2580 H   0  0  0  0  0  0  0  0  0  0  0  0
   -1.6050   -3.3100   -0.4680 H   0  0  0  0  0  0  0  0  0  0  0  0
    0.1700   -1.8650   -1.3050 H   0  0  0  0  0  0  0  0  0  0  0  0
    2.3910    1.6200    0.8280 N   0  0  0  0  0  0  0  0  0  0  0  0
    1.6740    2.8300    0.7280 C   0  0  0  0  0  0  0  0  0  0  0  0
    0.2110    2.8030    0.7790 C   0  0  0  0  0  0  0  0  0  0  0  0
   -0.4260    3.9360    0.6630 O   0  0  0  0  0  0  0  0  0  0  0  0
    3.0520    1.4270    1.6570 H   0  0  0  0  0  0  0  0  0  0  0  0
    2.0860    3.6220    1.4300 H   0  0  0  0  0  0  0  0  0  0  0  0
    1.9310    3.2800   -0.2840 H   0  0  0  0  0  0  0  0  0  0  0  0
   -2.1710   -1.4630    2.5890 C   0  0  0  0  0  0  0  0  0  0  0  0
   -3.2420   -1.4480    1.1660 S   0  0  0  0  0  0  0  0  0  0  0  0
   -2.7840   -0.3900   -0.1660 C   0  0  0  0  0  0  0  0  0  0  0  0
   -2.8360    1.0590   -0.0110 C   0  0  0  0  0  0  0  0  0  0  0  0
   -2.0460    1.7700    0.9970 C   0  0  2  0  0  0  0  0  0  0  0  0
   -0.6200    1.6670    0.9470 N   0  0  0  0  0  0  0  0  0  0  0  0
   -2.5640    1.6660    2.4070 C   0  0  0  0  0  0  0  0  0  0  0  0
   -3.7930    1.6700    2.6680 O   0  0  0  0  0  0  0  0  0  0  0  0
   -1.7270    1.5610    3.5130 O   0  0  0  0  0  0  0  0  0  0  0  0
   -1.2270   -0.9030    2.3960 H   0  0  0  0  0  0  0  0  0  0  0  0
   -1.8710   -2.4990    2.8530 H   0  0  0  0  0  0  0  0  0  0  0  0
   -2.6850   -1.0270    3.4720 H   0  0  0  0  0  0  0  0  0  0  0  0
   -3.4620   -0.6480   -1.0430 H   0  0  0  0  0  0  0  0  0  0  0  0
   -1.7790   -0.7330   -0.5560 H   0  0  0  0  0  0  0  0  0  0  0  0
   -3.9090    1.4260    0.0970 H   0  0  0  0  0  0  0  0  0  0  0  0
   -2.5580    1.5000   -1.0260 H   0  0  0  0  0  0  0  0  0  0  0  0
   -2.2670    2.8830    0.7830 H   0  0  0  0  0  0  0  0  0  0  0  0
   -0.1010    0.7430    1.0330 H   0  0  0  0  0  0  0  0  0  0  0  0
  1 12  1  0  0  0  0
  1 13  1  0  0  0  0
  2 14  1  6  0  0  0
  2  1  1  0  0  0  0
  3  4  1  0  0  0  0
  3  2  1  0  0  0  0
  4  5  1  0  0  0  0
  5 17  1  0  0  0  0
  5  6  2  0  0  0  0
  6 18  1  0  0  0  0
  7 19  1  0  0  0  0
  7  6  1  0  0  0  0
  8  7  2  0  0  0  0
  9  4  2  0  0  0  0
  9  8  1  0  0  0  0
 10  2  1  0  0  0  0
 10 22  1  0  0  0  0
 11 10  2  0  0  0  0
 15  3  1  0  0  0  0
 16  3  1  0  0  0  0
 20  8  1  0  0  0  0
 21  9  1  0  0  0  0
 22 26  1  0  0  0  0
 23 24  1  0  0  0  0
 23 22  1  0  0  0  0
 23 27  1  0  0  0  0
 24 34  1  0  0  0  0
 25 24  2  0  0  0  0
 28 23  1  0  0  0  0
 29 39  1  0  0  0  0
 29 40  1  0  0  0  0
 30 29  1  0  0  0  0
 31 32  1  0  0  0  0
 31 30  1  0  0  0  0
 32 43  1  0  0  0  0
 32 33  1  0  0  0  0
 33 45  1  6  0  0  0
 33 35  1  0  0  0  0
 34 33  1  0  0  0  0
 34 46  1  0  0  0  0
 35 36  2  0  0  0  0
 35 37  1  0  0  0  0
 38 29  1  0  0  0  0
 41 31  1  0  0  0  0
 42 31  1  0  0  0  0
 44 32  1  0  0  0  0
M  END
$$$$
