FGR.pdb
 OpenBabel07022418593D

 52 52  0  0  1  0  0  0  0  0999 V2000
    1.3150   -1.1410    4.7260 N   0  0  0  0  0  0  0  0  0  0  0  0
    1.8070   -0.4170    3.5470 C   0  0  1  0  0  0  0  0  0  0  0  0
    2.2670   -1.4100    2.5460 C   0  0  0  0  0  0  0  0  0  0  0  0
    2.8040   -0.8230    1.2980 C   0  0  0  0  0  0  0  0  0  0  0  0
    1.9460   -0.6420    0.2440 C   0  0  0  0  0  0  0  0  0  0  0  0
    2.4250   -0.0870   -0.9080 C   0  0  0  0  0  0  0  0  0  0  0  0
    3.7520    0.2960   -1.0390 C   0  0  0  0  0  0  0  0  0  0  0  0
    4.6140    0.1170    0.0110 C   0  0  0  0  0  0  0  0  0  0  0  0
    4.1220   -0.4430    1.1700 C   0  0  0  0  0  0  0  0  0  0  0  0
    0.7700    0.5360    3.1000 C   0  0  0  0  0  0  0  0  0  0  0  0
    0.8650    1.1950    2.0110 O   0  0  0  0  0  0  0  0  0  0  0  0
    2.0230   -1.8460    5.0210 H   0  0  0  0  0  0  0  0  0  0  0  0
    0.4420   -1.6740    4.4400 H   0  0  0  0  0  0  0  0  0  0  0  0
    2.7210    0.1400    3.9080 H   0  0  0  0  0  0  0  0  0  0  0  0
    1.4190   -2.0900    2.2670 H   0  0  0  0  0  0  0  0  0  0  0  0
    3.0610   -2.0650    2.9780 H   0  0  0  0  0  0  0  0  0  0  0  0
    0.8960   -0.9370    0.2990 H   0  0  0  0  0  0  0  0  0  0  0  0
    1.8050    0.0910   -1.7890 H   0  0  0  0  0  0  0  0  0  0  0  0
    4.1330    0.7340   -1.9490 H   0  0  0  0  0  0  0  0  0  0  0  0
    5.6590    0.4120   -0.0760 H   0  0  0  0  0  0  0  0  0  0  0  0
    4.8290   -0.5780    1.9990 H   0  0  0  0  0  0  0  0  0  0  0  0
   -0.3860    0.7530    3.8950 N   0  0  0  0  0  0  0  0  0  0  0  0
   -1.4660    1.6170    3.6540 C   0  0  0  0  0  0  0  0  0  0  0  0
   -2.3130    1.4180    2.4740 C   0  0  0  0  0  0  0  0  0  0  0  0
   -3.3100    2.2230    2.2830 O   0  0  0  0  0  0  0  0  0  0  0  0
   -0.4090    0.1640    4.7950 H   0  0  0  0  0  0  0  0  0  0  0  0
   -2.1870    1.6000    4.5380 H   0  0  0  0  0  0  0  0  0  0  0  0
   -1.0560    2.6710    3.6850 H   0  0  0  0  0  0  0  0  0  0  0  0
    0.3770   -4.1070   -3.5320 N   0  0  0  0  0  0  0  0  0  0  0  0
   -0.5190   -3.5250   -2.5620 C   0  0  0  0  0  0  0  0  0  0  0  0
   -1.3230   -4.2820   -1.9090 N   0  0  0  0  0  0  0  0  0  0  0  0
   -0.5350   -2.1290   -2.3100 N   0  0  0  0  0  0  0  0  0  0  0  0
   -1.6840   -1.4640   -1.7270 C   0  0  0  0  0  0  0  0  0  0  0  0
   -1.4640    0.0100   -1.5480 C   0  0  0  0  0  0  0  0  0  0  0  0
   -2.6220    0.7280   -0.9680 C   0  0  0  0  0  0  0  0  0  0  0  0
   -3.1180    0.3240    0.3630 C   0  0  2  0  0  0  0  0  0  0  0  0
   -2.1940    0.4220    1.4680 N   0  0  0  0  0  0  0  0  0  0  0  0
   -3.8430   -0.9840    0.3750 C   0  0  0  0  0  0  0  0  0  0  0  0
   -4.6850   -1.2630   -0.5150 O   0  0  0  0  0  0  0  0  0  0  0  0
   -3.6230   -1.9450    1.3660 O   0  0  0  0  0  0  0  0  0  0  0  0
    0.0010   -4.9350   -4.0440 H   0  0  0  0  0  0  0  0  0  0  0  0
    1.3320   -3.7150   -3.7000 H   0  0  0  0  0  0  0  0  0  0  0  0
   -1.9660   -3.8690   -1.2140 H   0  0  0  0  0  0  0  0  0  0  0  0
    0.3420   -1.6140   -2.5760 H   0  0  0  0  0  0  0  0  0  0  0  0
   -2.5960   -1.6610   -2.3210 H   0  0  0  0  0  0  0  0  0  0  0  0
   -1.8490   -1.8960   -0.7210 H   0  0  0  0  0  0  0  0  0  0  0  0
   -1.3800    0.4060   -2.6160 H   0  0  0  0  0  0  0  0  0  0  0  0
   -0.4870    0.2870   -1.1140 H   0  0  0  0  0  0  0  0  0  0  0  0
   -2.3530    1.8230   -0.9680 H   0  0  0  0  0  0  0  0  0  0  0  0
   -3.4690    0.6540   -1.6890 H   0  0  0  0  0  0  0  0  0  0  0  0
   -3.9610    1.0640    0.5860 H   0  0  0  0  0  0  0  0  0  0  0  0
   -1.4010   -0.2450    1.5700 H   0  0  0  0  0  0  0  0  0  0  0  0
  1 12  1  0  0  0  0
  2 14  1  1  0  0  0
  2  1  1  0  0  0  0
  3 16  1  0  0  0  0
  3  2  1  0  0  0  0
  4  3  1  0  0  0  0
  5 17  1  0  0  0  0
  5  4  2  0  0  0  0
  6  5  1  0  0  0  0
  7  6  2  0  0  0  0
  7  8  1  0  0  0  0
  8  9  2  0  0  0  0
  9  4  1  0  0  0  0
  9 21  1  0  0  0  0
 10  2  1  0  0  0  0
 10 22  1  0  0  0  0
 11 10  2  0  0  0  0
 13  1  1  0  0  0  0
 15  3  1  0  0  0  0
 18  6  1  0  0  0  0
 19  7  1  0  0  0  0
 20  8  1  0  0  0  0
 22 26  1  0  0  0  0
 23 28  1  0  0  0  0
 23 22  1  0  0  0  0
 23 27  1  0  0  0  0
 24 23  1  0  0  0  0
 25 24  2  0  0  0  0
 29 30  1  0  0  0  0
 30 32  1  0  0  0  0
 30 31  2  0  0  0  0
 31 43  1  0  0  0  0
 32 33  1  0  0  0  0
 33 34  1  0  0  0  0
 33 46  1  0  0  0  0
 34 48  1  0  0  0  0
 34 35  1  0  0  0  0
 35 36  1  0  0  0  0
 36 38  1  0  0  0  0
 36 51  1  1  0  0  0
 36 37  1  0  0  0  0
 37 52  1  0  0  0  0
 37 24  1  0  0  0  0
 38 40  1  0  0  0  0
 39 38  2  0  0  0  0
 41 29  1  0  0  0  0
 42 29  1  0  0  0  0
 44 32  1  0  0  0  0
 45 33  1  0  0  0  0
 47 34  1  0  0  0  0
 49 35  1  0  0  0  0
 50 35  1  0  0  0  0
M  END
$$$$
