FGY.pdb
 OpenBabel07022418593D

 50 51  0  0  1  0  0  0  0  0999 V2000
   -0.0350    2.2090    0.5210 N   0  0  0  0  0  0  0  0  0  0  0  0
    1.0270    1.9920    1.4960 C   0  0  1  0  0  0  0  0  0  0  0  0
    0.6910    2.7880    2.7320 C   0  0  0  0  0  0  0  0  0  0  0  0
    1.6810    2.6630    3.8150 C   0  0  0  0  0  0  0  0  0  0  0  0
    2.7500    3.5160    3.8420 C   0  0  0  0  0  0  0  0  0  0  0  0
    3.7030    3.4590    4.8250 C   0  0  0  0  0  0  0  0  0  0  0  0
    3.5700    2.5080    5.8130 C   0  0  0  0  0  0  0  0  0  0  0  0
    2.4920    1.6270    5.8110 C   0  0  0  0  0  0  0  0  0  0  0  0
    1.5570    1.7160    4.8080 C   0  0  0  0  0  0  0  0  0  0  0  0
    1.1470    0.5510    1.8390 C   0  0  0  0  0  0  0  0  0  0  0  0
    2.0320    0.1150    2.6180 O   0  0  0  0  0  0  0  0  0  0  0  0
    0.1210    1.6710   -0.3600 H   0  0  0  0  0  0  0  0  0  0  0  0
   -0.9540    1.9570    0.9460 H   0  0  0  0  0  0  0  0  0  0  0  0
    1.9870    2.3280    1.0580 H   0  0  0  0  0  0  0  0  0  0  0  0
    0.6480    3.8570    2.4330 H   0  0  0  0  0  0  0  0  0  0  0  0
   -0.3210    2.4890    3.0980 H   0  0  0  0  0  0  0  0  0  0  0  0
    2.8820    4.2830    3.0670 H   0  0  0  0  0  0  0  0  0  0  0  0
    4.5480    4.1410    4.8380 H   0  0  0  0  0  0  0  0  0  0  0  0
    4.3050    2.4400    6.6000 H   0  0  0  0  0  0  0  0  0  0  0  0
    2.4100    0.8940    6.5930 H   0  0  0  0  0  0  0  0  0  0  0  0
    0.7270    1.0130    4.8410 H   0  0  0  0  0  0  0  0  0  0  0  0
    0.2300   -0.4240    1.2760 N   0  0  0  0  0  0  0  0  0  0  0  0
    0.3900   -1.7940    1.6390 C   0  0  0  0  0  0  0  0  0  0  0  0
   -0.5870   -2.6950    1.0150 C   0  0  0  0  0  0  0  0  0  0  0  0
   -0.5190   -3.9460    1.2840 O   0  0  0  0  0  0  0  0  0  0  0  0
   -0.4750   -0.0030    0.6430 H   0  0  0  0  0  0  0  0  0  0  0  0
    1.4510   -2.1210    1.4040 H   0  0  0  0  0  0  0  0  0  0  0  0
    0.3390   -1.9320    2.7590 H   0  0  0  0  0  0  0  0  0  0  0  0
    0.1190   -0.7590   -5.6100 O   0  0  0  0  0  0  0  0  0  0  0  0
   -0.2940   -1.5560   -4.5530 C   0  0  0  0  0  0  0  0  0  0  0  0
   -1.5450   -2.1140   -4.6230 C   0  0  0  0  0  0  0  0  0  0  0  0
   -2.0130   -2.9110   -3.6120 C   0  0  0  0  0  0  0  0  0  0  0  0
   -1.2450   -3.1890   -2.4750 C   0  0  0  0  0  0  0  0  0  0  0  0
   -1.7760   -4.0600   -1.3960 C   0  0  0  0  0  0  0  0  0  0  0  0
   -2.5080   -3.2190   -0.4180 C   0  0  2  0  0  0  0  0  0  0  0  0
   -1.5830   -2.2380    0.1440 N   0  0  0  0  0  0  0  0  0  0  0  0
   -3.2340   -3.9350    0.6390 C   0  0  0  0  0  0  0  0  0  0  0  0
   -3.0200   -3.6070    1.8310 O   0  0  0  0  0  0  0  0  0  0  0  0
    0.0030   -2.6110   -2.4440 C   0  0  0  0  0  0  0  0  0  0  0  0
    0.4930   -1.7990   -3.4640 C   0  0  0  0  0  0  0  0  0  0  0  0
   -4.1390   -4.9460    0.4220 O   0  0  0  0  0  0  0  0  0  0  0  0
    0.9130   -1.0250   -6.1560 H   0  0  0  0  0  0  0  0  0  0  0  0
   -2.1690   -1.9260   -5.4790 H   0  0  0  0  0  0  0  0  0  0  0  0
   -2.9870   -3.3520   -3.6530 H   0  0  0  0  0  0  0  0  0  0  0  0
   -2.4210   -4.8750   -1.8370 H   0  0  0  0  0  0  0  0  0  0  0  0
   -0.9170   -4.6000   -0.9160 H   0  0  0  0  0  0  0  0  0  0  0  0
   -3.3180   -2.6690   -1.0020 H   0  0  0  0  0  0  0  0  0  0  0  0
   -1.7160   -1.2620   -0.1350 H   0  0  0  0  0  0  0  0  0  0  0  0
    0.6430   -2.7960   -1.5870 H   0  0  0  0  0  0  0  0  0  0  0  0
    1.4840   -1.3670   -3.3920 H   0  0  0  0  0  0  0  0  0  0  0  0
  1 13  1  0  0  0  0
  1  2  1  0  0  0  0
  2 14  1  6  0  0  0
  2 10  1  0  0  0  0
  2  3  1  0  0  0  0
  3 16  1  0  0  0  0
  3  4  1  0  0  0  0
  4  5  2  0  0  0  0
  4  9  1  0  0  0  0
  5  6  1  0  0  0  0
  6 18  1  0  0  0  0
  6  7  2  0  0  0  0
  7 19  1  0  0  0  0
  8  7  1  0  0  0  0
  8 20  1  0  0  0  0
  9 21  1  0  0  0  0
  9  8  2  0  0  0  0
 10 11  2  0  0  0  0
 12  1  1  0  0  0  0
 15  3  1  0  0  0  0
 17  5  1  0  0  0  0
 22 23  1  0  0  0  0
 22 10  1  0  0  0  0
 23 28  1  0  0  0  0
 24 25  2  0  0  0  0
 24 23  1  0  0  0  0
 26 22  1  0  0  0  0
 27 23  1  0  0  0  0
 29 30  1  0  0  0  0
 30 40  1  0  0  0  0
 31 30  2  0  0  0  0
 31 32  1  0  0  0  0
 32 33  2  0  0  0  0
 33 39  1  0  0  0  0
 33 34  1  0  0  0  0
 34 46  1  0  0  0  0
 34 35  1  0  0  0  0
 35 47  1  6  0  0  0
 35 36  1  0  0  0  0
 35 37  1  0  0  0  0
 36 24  1  0  0  0  0
 37 38  1  0  0  0  0
 39 49  1  0  0  0  0
 40 50  1  0  0  0  0
 40 39  2  0  0  0  0
 41 37  2  0  0  0  0
 42 29  1  0  0  0  0
 43 31  1  0  0  0  0
 44 32  1  0  0  0  0
 45 34  1  0  0  0  0
 48 36  1  0  0  0  0
M  END
$$$$
