FHA.pdb
 OpenBabel07022418593D

 49 50  0  0  1  0  0  0  0  0999 V2000
    0.8310   -2.8130    1.0360 N   0  0  0  0  0  0  0  0  0  0  0  0
    1.4420   -1.7250    1.8230 C   0  0  1  0  0  0  0  0  0  0  0  0
    2.9200   -1.9430    1.8660 C   0  0  0  0  0  0  0  0  0  0  0  0
    3.5640   -0.8640    2.6520 C   0  0  0  0  0  0  0  0  0  0  0  0
    4.0580    0.2810    2.0740 C   0  0  0  0  0  0  0  0  0  0  0  0
    4.6550    1.2990    2.7790 C   0  0  0  0  0  0  0  0  0  0  0  0
    4.7710    1.1730    4.1630 C   0  0  0  0  0  0  0  0  0  0  0  0
    4.2810    0.0300    4.7630 C   0  0  0  0  0  0  0  0  0  0  0  0
    3.6860   -0.9780    4.0340 C   0  0  0  0  0  0  0  0  0  0  0  0
    1.0200   -0.4260    1.2420 C   0  0  0  0  0  0  0  0  0  0  0  0
    1.3640    0.6850    1.7210 O   0  0  0  0  0  0  0  0  0  0  0  0
    1.5520   -3.4360    0.6450 H   0  0  0  0  0  0  0  0  0  0  0  0
    0.1930   -3.3640    1.6420 H   0  0  0  0  0  0  0  0  0  0  0  0
    0.9890   -1.7670    2.8490 H   0  0  0  0  0  0  0  0  0  0  0  0
    3.3960   -1.9190    0.8700 H   0  0  0  0  0  0  0  0  0  0  0  0
    3.1290   -2.9410    2.3210 H   0  0  0  0  0  0  0  0  0  0  0  0
    3.9620    0.3570    0.9830 H   0  0  0  0  0  0  0  0  0  0  0  0
    5.0340    2.1950    2.2780 H   0  0  0  0  0  0  0  0  0  0  0  0
    5.2370    1.9600    4.7310 H   0  0  0  0  0  0  0  0  0  0  0  0
    4.3920   -0.0410    5.8560 H   0  0  0  0  0  0  0  0  0  0  0  0
    3.3010   -1.8730    4.5230 H   0  0  0  0  0  0  0  0  0  0  0  0
    0.1850   -0.3970    0.0890 N   0  0  0  0  0  0  0  0  0  0  0  0
   -0.2890    0.8010   -0.5640 C   0  0  1  0  0  0  0  0  0  0  0  0
    0.1440    0.7710   -1.9910 C   0  0  0  0  0  0  0  0  0  0  0  0
   -0.4480   -0.4500   -2.6320 C   0  0  0  0  0  0  0  0  0  0  0  0
    0.1710   -1.7060   -2.6980 C   0  0  0  0  0  0  0  0  0  0  0  0
   -0.6700   -2.5150   -3.3490 N   0  0  0  0  0  0  0  0  0  0  0  0
   -1.7880   -1.8540   -3.7040 C   0  0  0  0  0  0  0  0  0  0  0  0
   -1.6190   -0.6010   -3.2530 N   0  0  0  0  0  0  0  0  0  0  0  0
   -1.7940    0.8820   -0.4890 C   0  0  0  0  0  0  0  0  0  0  0  0
   -2.4120    1.8380   -1.0220 O   0  0  0  0  0  0  0  0  0  0  0  0
   -0.1010   -1.3160   -0.3030 H   0  0  0  0  0  0  0  0  0  0  0  0
    0.1070    1.7230   -0.0840 H   0  0  0  0  0  0  0  0  0  0  0  0
   -0.1080    1.6910   -2.5500 H   0  0  0  0  0  0  0  0  0  0  0  0
    1.2520    0.6590   -2.0150 H   0  0  0  0  0  0  0  0  0  0  0  0
    1.1360   -1.9340   -2.2920 H   0  0  0  0  0  0  0  0  0  0  0  0
   -0.5240   -3.5360   -3.5770 H   0  0  0  0  0  0  0  0  0  0  0  0
   -2.6480   -2.2690   -4.2460 H   0  0  0  0  0  0  0  0  0  0  0  0
   -4.6680   -1.3060   -0.2460 C   0  0  0  0  0  0  0  0  0  0  0  0
   -4.0170   -0.0500    0.2600 C   0  0  2  0  0  0  0  0  0  0  0  0
   -2.5740   -0.1000    0.1750 N   0  0  0  0  0  0  0  0  0  0  0  0
   -4.4480    0.2580    1.6670 C   0  0  0  0  0  0  0  0  0  0  0  0
   -5.6720    0.3360    1.8960 O   0  0  0  0  0  0  0  0  0  0  0  0
   -3.5530    0.4510    2.6960 O   0  0  0  0  0  0  0  0  0  0  0  0
   -4.3020   -1.5480   -1.2650 H   0  0  0  0  0  0  0  0  0  0  0  0
   -5.7600   -1.2340   -0.2790 H   0  0  0  0  0  0  0  0  0  0  0  0
   -4.3270   -2.1670    0.4040 H   0  0  0  0  0  0  0  0  0  0  0  0
   -4.3370    0.7980   -0.3870 H   0  0  0  0  0  0  0  0  0  0  0  0
   -2.0900   -0.8930    0.6170 H   0  0  0  0  0  0  0  0  0  0  0  0
  1 13  1  0  0  0  0
  1  2  1  0  0  0  0
  2  3  1  0  0  0  0
  2 14  1  1  0  0  0
  3 16  1  0  0  0  0
  3  4  1  0  0  0  0
  4  9  1  0  0  0  0
  5  4  2  0  0  0  0
  5  6  1  0  0  0  0
  6  7  2  0  0  0  0
  7 19  1  0  0  0  0
  7  8  1  0  0  0  0
  8 20  1  0  0  0  0
  9 21  1  0  0  0  0
  9  8  2  0  0  0  0
 10 11  2  0  0  0  0
 10  2  1  0  0  0  0
 12  1  1  0  0  0  0
 15  3  1  0  0  0  0
 17  5  1  0  0  0  0
 18  6  1  0  0  0  0
 22 10  1  0  0  0  0
 23 30  1  0  0  0  0
 23 33  1  1  0  0  0
 23 22  1  0  0  0  0
 24 23  1  0  0  0  0
 25 24  1  0  0  0  0
 26 25  2  0  0  0  0
 26 36  1  0  0  0  0
 27 26  1  0  0  0  0
 28 27  1  0  0  0  0
 28 29  2  0  0  0  0
 29 25  1  0  0  0  0
 30 41  1  0  0  0  0
 31 30  2  0  0  0  0
 32 22  1  0  0  0  0
 34 24  1  0  0  0  0
 35 24  1  0  0  0  0
 37 27  1  0  0  0  0
 38 28  1  0  0  0  0
 39 40  1  0  0  0  0
 39 47  1  0  0  0  0
 40 48  1  6  0  0  0
 40 42  1  0  0  0  0
 41 40  1  0  0  0  0
 41 49  1  0  0  0  0
 42 43  2  0  0  0  0
 42 44  1  0  0  0  0
 45 39  1  0  0  0  0
 46 39  1  0  0  0  0
M  END
$$$$
