FHC.pdb
 OpenBabel07022418593D

 50 51  0  0  1  0  0  0  0  0999 V2000
    1.6730    1.2740    1.6010 N   0  0  0  0  0  0  0  0  0  0  0  0
    2.3290    0.2440    0.8760 C   0  0  1  0  0  0  0  0  0  0  0  0
    3.4510   -0.4240    1.6370 C   0  0  0  0  0  0  0  0  0  0  0  0
    4.5180    0.5040    2.0290 C   0  0  0  0  0  0  0  0  0  0  0  0
    5.5850    0.7190    1.1810 C   0  0  0  0  0  0  0  0  0  0  0  0
    6.6170    1.5890    1.5120 C   0  0  0  0  0  0  0  0  0  0  0  0
    6.6120    2.2740    2.7090 C   0  0  0  0  0  0  0  0  0  0  0  0
    5.5440    2.0580    3.5550 C   0  0  0  0  0  0  0  0  0  0  0  0
    4.5080    1.1880    3.2290 C   0  0  0  0  0  0  0  0  0  0  0  0
    1.4300   -0.8240    0.3910 C   0  0  0  0  0  0  0  0  0  0  0  0
    1.9260   -1.7710   -0.2580 O   0  0  0  0  0  0  0  0  0  0  0  0
    1.3470    1.0190    2.5420 H   0  0  0  0  0  0  0  0  0  0  0  0
    2.0660    2.2170    1.5030 H   0  0  0  0  0  0  0  0  0  0  0  0
    2.8020    0.7080   -0.0300 H   0  0  0  0  0  0  0  0  0  0  0  0
    2.9750   -0.9300    2.5230 H   0  0  0  0  0  0  0  0  0  0  0  0
    3.8310   -1.2410    0.9920 H   0  0  0  0  0  0  0  0  0  0  0  0
    5.5930    0.1840    0.2410 H   0  0  0  0  0  0  0  0  0  0  0  0
    7.4530    1.7520    0.8370 H   0  0  0  0  0  0  0  0  0  0  0  0
    7.4190    2.9540    2.9660 H   0  0  0  0  0  0  0  0  0  0  0  0
    5.5510    2.6030    4.4960 H   0  0  0  0  0  0  0  0  0  0  0  0
    3.6950    1.0560    3.9320 H   0  0  0  0  0  0  0  0  0  0  0  0
    0.0360   -0.8130    0.6330 N   0  0  0  0  0  0  0  0  0  0  0  0
   -0.8490   -1.8750    0.1490 C   0  0  1  0  0  0  0  0  0  0  0  0
   -1.4760   -2.5390    1.3370 C   0  0  0  0  0  0  0  0  0  0  0  0
   -2.2720   -1.6110    2.1620 C   0  0  0  0  0  0  0  0  0  0  0  0
   -1.7760   -0.8790    3.2200 C   0  0  0  0  0  0  0  0  0  0  0  0
   -2.7920   -0.1690    3.7050 N   0  0  0  0  0  0  0  0  0  0  0  0
   -3.9120   -0.4120    3.0090 C   0  0  0  0  0  0  0  0  0  0  0  0
   -3.5720   -1.3050    2.0590 N   0  0  0  0  0  0  0  0  0  0  0  0
   -1.8670   -1.3100   -0.7840 C   0  0  0  0  0  0  0  0  0  0  0  0
   -1.9230   -0.0930   -1.0840 O   0  0  0  0  0  0  0  0  0  0  0  0
   -0.3320   -0.0040    1.1780 H   0  0  0  0  0  0  0  0  0  0  0  0
   -0.2710   -2.6420   -0.4060 H   0  0  0  0  0  0  0  0  0  0  0  0
   -0.6680   -3.0350    1.9090 H   0  0  0  0  0  0  0  0  0  0  0  0
   -2.1170   -3.3860    0.9530 H   0  0  0  0  0  0  0  0  0  0  0  0
   -0.7700   -0.8600    3.6080 H   0  0  0  0  0  0  0  0  0  0  0  0
   -2.7400    0.4990    4.5260 H   0  0  0  0  0  0  0  0  0  0  0  0
   -4.9080    0.0110    3.1560 H   0  0  0  0  0  0  0  0  0  0  0  0
   -2.8210   -2.1780   -1.3640 N   0  0  0  0  0  0  0  0  0  0  0  0
   -3.8330   -1.6710   -2.2790 C   0  0  1  0  0  0  0  0  0  0  0  0
   -3.6020   -2.4120   -3.6010 C   0  0  0  0  0  0  0  0  0  0  0  0
   -1.9150   -2.0090   -4.1330 S   0  0  0  0  0  0  0  0  0  0  0  0
   -5.1580   -2.0120   -1.7010 C   0  0  0  0  0  0  0  0  0  0  0  0
   -5.2890   -2.6240   -0.6230 O   0  0  0  0  0  0  0  0  0  0  0  0
   -6.3340   -1.6490   -2.3660 O   0  0  0  0  0  0  0  0  0  0  0  0
   -2.7950   -3.1940   -1.1290 H   0  0  0  0  0  0  0  0  0  0  0  0
   -3.7040   -0.5940   -2.4020 H   0  0  0  0  0  0  0  0  0  0  0  0
   -3.6470   -3.4970   -3.4170 H   0  0  0  0  0  0  0  0  0  0  0  0
   -4.3430   -2.0390   -4.3210 H   0  0  0  0  0  0  0  0  0  0  0  0
   -1.8830   -1.7640   -5.5230 H   0  0  0  0  0  0  0  0  0  0  0  0
  1 12  1  0  0  0  0
  2 14  1  6  0  0  0
  2  1  1  0  0  0  0
  2  3  1  0  0  0  0
  3  4  1  0  0  0  0
  3 15  1  0  0  0  0
  4  9  1  0  0  0  0
  5  6  1  0  0  0  0
  5  4  2  0  0  0  0
  6  7  2  0  0  0  0
  7 19  1  0  0  0  0
  7  8  1  0  0  0  0
  8 20  1  0  0  0  0
  9  8  2  0  0  0  0
  9 21  1  0  0  0  0
 10 22  1  0  0  0  0
 10  2  1  0  0  0  0
 11 10  2  0  0  0  0
 13  1  1  0  0  0  0
 16  3  1  0  0  0  0
 17  5  1  0  0  0  0
 18  6  1  0  0  0  0
 22 32  1  0  0  0  0
 23 33  1  6  0  0  0
 23 22  1  0  0  0  0
 23 24  1  0  0  0  0
 24 34  1  0  0  0  0
 24 25  1  0  0  0  0
 25 26  2  0  0  0  0
 26 36  1  0  0  0  0
 26 27  1  0  0  0  0
 27 37  1  0  0  0  0
 28 38  1  0  0  0  0
 28 27  1  0  0  0  0
 29 25  1  0  0  0  0
 29 28  2  0  0  0  0
 30 23  1  0  0  0  0
 31 30  2  0  0  0  0
 35 24  1  0  0  0  0
 39 46  1  0  0  0  0
 39 30  1  0  0  0  0
 40 47  1  6  0  0  0
 40 43  1  0  0  0  0
 40 39  1  0  0  0  0
 41 48  1  0  0  0  0
 41 40  1  0  0  0  0
 42 41  1  0  0  0  0
 43 44  1  0  0  0  0
 45 43  2  0  0  0  0
 49 41  1  0  0  0  0
 50 42  1  0  0  0  0
M  END
$$$$
