FHD.pdb
 OpenBabel07022418593D

 52 53  0  0  1  0  0  0  0  0999 V2000
    1.5200   -0.6600   -2.1540 N   0  0  0  0  0  0  0  0  0  0  0  0
    2.1690   -0.0680   -0.9900 C   0  0  1  0  0  0  0  0  0  0  0  0
    2.7770    1.2500   -1.3040 C   0  0  0  0  0  0  0  0  0  0  0  0
    3.4270    1.8400   -0.1330 C   0  0  0  0  0  0  0  0  0  0  0  0
    4.7370    1.5560    0.1870 C   0  0  0  0  0  0  0  0  0  0  0  0
    5.3370    2.1310    1.2780 C   0  0  0  0  0  0  0  0  0  0  0  0
    4.6130    3.0010    2.0560 C   0  0  0  0  0  0  0  0  0  0  0  0
    3.3000    3.2890    1.7400 C   0  0  0  0  0  0  0  0  0  0  0  0
    2.7140    2.7140    0.6560 C   0  0  0  0  0  0  0  0  0  0  0  0
    1.2530   -0.0220    0.1670 C   0  0  0  0  0  0  0  0  0  0  0  0
    1.5740    0.3550    1.3220 O   0  0  0  0  0  0  0  0  0  0  0  0
    0.7340   -0.1010   -2.5130 H   0  0  0  0  0  0  0  0  0  0  0  0
    1.2720   -1.6590   -1.9850 H   0  0  0  0  0  0  0  0  0  0  0  0
    3.0010   -0.7690   -0.7180 H   0  0  0  0  0  0  0  0  0  0  0  0
    2.0800    1.9580   -1.8030 H   0  0  0  0  0  0  0  0  0  0  0  0
    3.5800    1.0670   -2.0730 H   0  0  0  0  0  0  0  0  0  0  0  0
    5.2800    0.8540   -0.4630 H   0  0  0  0  0  0  0  0  0  0  0  0
    6.3500    1.8960    1.5040 H   0  0  0  0  0  0  0  0  0  0  0  0
    5.0310    3.4850    2.9280 H   0  0  0  0  0  0  0  0  0  0  0  0
    2.7270    3.9870    2.3690 H   0  0  0  0  0  0  0  0  0  0  0  0
    1.6710    2.9470    0.4110 H   0  0  0  0  0  0  0  0  0  0  0  0
   -0.1150   -0.4300   -0.0040 N   0  0  0  0  0  0  0  0  0  0  0  0
   -1.0580   -0.3920    1.1460 C   0  0  1  0  0  0  0  0  0  0  0  0
   -2.2180    0.3960    0.6750 C   0  0  0  0  0  0  0  0  0  0  0  0
   -3.2960    0.6600    1.6270 C   0  0  0  0  0  0  0  0  0  0  0  0
   -3.4540    0.3990    2.9620 C   0  0  0  0  0  0  0  0  0  0  0  0
   -4.6450    0.9100    3.3420 N   0  0  0  0  0  0  0  0  0  0  0  0
   -5.2060    1.4740    2.2610 C   0  0  0  0  0  0  0  0  0  0  0  0
   -4.4120    1.3420    1.1920 N   0  0  0  0  0  0  0  0  0  0  0  0
   -1.4290   -1.8550    1.3210 C   0  0  0  0  0  0  0  0  0  0  0  0
   -2.2450   -2.2410    2.1890 O   0  0  0  0  0  0  0  0  0  0  0  0
   -0.4060   -0.7420   -0.9480 H   0  0  0  0  0  0  0  0  0  0  0  0
   -0.5500   -0.0050    2.0200 H   0  0  0  0  0  0  0  0  0  0  0  0
   -2.6050   -0.0640   -0.2800 H   0  0  0  0  0  0  0  0  0  0  0  0
   -1.8080    1.3940    0.3290 H   0  0  0  0  0  0  0  0  0  0  0  0
   -2.7430   -0.1040    3.5850 H   0  0  0  0  0  0  0  0  0  0  0  0
   -4.9970    0.8380    4.3210 H   0  0  0  0  0  0  0  0  0  0  0  0
   -6.1830    1.9580    2.3170 H   0  0  0  0  0  0  0  0  0  0  0  0
   -0.8680   -2.8780    0.5070 N   0  0  0  0  0  0  0  0  0  0  0  0
   -1.2370   -4.2460    0.6930 C   0  0  1  0  0  0  0  0  0  0  0  0
   -1.7250   -4.8850   -0.5860 C   0  0  0  0  0  0  0  0  0  0  0  0
   -2.9140   -4.1680   -1.1010 C   0  0  0  0  0  0  0  0  0  0  0  0
   -3.4610   -4.5790   -2.1760 O   0  0  0  0  0  0  0  0  0  0  0  0
   -0.0730   -5.0800    1.1400 C   0  0  0  0  0  0  0  0  0  0  0  0
    1.0690   -4.6210    1.3230 O   0  0  0  0  0  0  0  0  0  0  0  0
   -3.4960   -3.0700   -0.5050 O   0  0  0  0  0  0  0  0  0  0  0  0
   -0.2860   -6.4330    1.3590 O   0  0  0  0  0  0  0  0  0  0  0  0
   -0.1820   -2.6190   -0.2280 H   0  0  0  0  0  0  0  0  0  0  0  0
   -2.0210   -4.3910    1.4650 H   0  0  0  0  0  0  0  0  0  0  0  0
   -0.8680   -4.8050   -1.3130 H   0  0  0  0  0  0  0  0  0  0  0  0
   -1.9950   -5.9390   -0.3980 H   0  0  0  0  0  0  0  0  0  0  0  0
   -4.4970   -2.8840   -0.5580 H   0  0  0  0  0  0  0  0  0  0  0  0
  1 13  1  0  0  0  0
  1  2  1  0  0  0  0
  2 14  1  1  0  0  0
  2 10  1  0  0  0  0
  3  2  1  0  0  0  0
  3  4  1  0  0  0  0
  4  5  2  0  0  0  0
  4  9  1  0  0  0  0
  5  6  1  0  0  0  0
  6 18  1  0  0  0  0
  6  7  2  0  0  0  0
  7 19  1  0  0  0  0
  8  7  1  0  0  0  0
  8 20  1  0  0  0  0
  9  8  2  0  0  0  0
 10 11  2  0  0  0  0
 12  1  1  0  0  0  0
 15  3  1  0  0  0  0
 16  3  1  0  0  0  0
 17  5  1  0  0  0  0
 21  9  1  0  0  0  0
 22 10  1  0  0  0  0
 22 23  1  0  0  0  0
 23 30  1  0  0  0  0
 23 33  1  1  0  0  0
 24 23  1  0  0  0  0
 24 25  1  0  0  0  0
 25 26  2  0  0  0  0
 26 27  1  0  0  0  0
 26 36  1  0  0  0  0
 27 37  1  0  0  0  0
 28 38  1  0  0  0  0
 28 27  1  0  0  0  0
 29 25  1  0  0  0  0
 29 28  2  0  0  0  0
 30 31  2  0  0  0  0
 32 22  1  0  0  0  0
 34 24  1  0  0  0  0
 35 24  1  0  0  0  0
 39 40  1  0  0  0  0
 39 30  1  0  0  0  0
 40 44  1  0  0  0  0
 40 49  1  1  0  0  0
 41 51  1  0  0  0  0
 41 40  1  0  0  0  0
 42 41  1  0  0  0  0
 42 46  1  0  0  0  0
 43 42  2  0  0  0  0
 44 45  2  0  0  0  0
 44 47  1  0  0  0  0
 48 39  1  0  0  0  0
 50 41  1  0  0  0  0
 52 46  1  0  0  0  0
M  END
$$$$
