FHI.pdb
 OpenBabel07022418593D

 58 59  0  0  1  0  0  0  0  0999 V2000
    2.4160    3.1130   -2.2100 N   0  0  0  0  0  0  0  0  0  0  0  0
    2.1770    1.7400   -1.6320 C   0  0  1  0  0  0  0  0  0  0  0  0
    3.4110    1.3990   -0.8560 C   0  0  0  0  0  0  0  0  0  0  0  0
    3.4700    0.1110   -0.1850 C   0  0  0  0  0  0  0  0  0  0  0  0
    3.8860   -1.0180   -0.9030 C   0  0  0  0  0  0  0  0  0  0  0  0
    4.0130   -2.2460   -0.2970 C   0  0  0  0  0  0  0  0  0  0  0  0
    3.7400   -2.4380    1.0410 C   0  0  0  0  0  0  0  0  0  0  0  0
    3.3260   -1.3180    1.7550 C   0  0  0  0  0  0  0  0  0  0  0  0
    3.1980   -0.0920    1.1530 C   0  0  0  0  0  0  0  0  0  0  0  0
    0.9260    1.8480   -0.8840 C   0  0  0  0  0  0  0  0  0  0  0  0
    0.5400    2.9690   -0.4340 O   0  0  0  0  0  0  0  0  0  0  0  0
    3.3330    3.0310   -2.6990 H   0  0  0  0  0  0  0  0  0  0  0  0
    1.6970    3.1810   -2.9650 H   0  0  0  0  0  0  0  0  0  0  0  0
    2.1260    1.0840   -2.5360 H   0  0  0  0  0  0  0  0  0  0  0  0
    3.6310    2.2340   -0.1130 H   0  0  0  0  0  0  0  0  0  0  0  0
    4.2530    1.4150   -1.6120 H   0  0  0  0  0  0  0  0  0  0  0  0
    4.1060   -0.8690   -1.9720 H   0  0  0  0  0  0  0  0  0  0  0  0
    4.3390   -3.1170   -0.8660 H   0  0  0  0  0  0  0  0  0  0  0  0
    3.8460   -3.4060    1.5000 H   0  0  0  0  0  0  0  0  0  0  0  0
    3.1290   -1.5000    2.8030 H   0  0  0  0  0  0  0  0  0  0  0  0
    2.8750    0.7660    1.7270 H   0  0  0  0  0  0  0  0  0  0  0  0
    0.0650    0.7300   -0.6230 N   0  0  0  0  0  0  0  0  0  0  0  0
   -1.1740    0.9220    0.1060 C   0  0  1  0  0  0  0  0  0  0  0  0
   -2.2900    1.2910   -0.8680 C   0  0  0  0  0  0  0  0  0  0  0  0
   -3.5420    1.4850   -0.1130 C   0  0  0  0  0  0  0  0  0  0  0  0
   -3.9990    2.6660    0.4810 C   0  0  0  0  0  0  0  0  0  0  0  0
   -5.1760    2.4600    1.0850 N   0  0  0  0  0  0  0  0  0  0  0  0
   -5.4720    1.1770    0.8860 C   0  0  0  0  0  0  0  0  0  0  0  0
   -4.5080    0.5740    0.1720 N   0  0  0  0  0  0  0  0  0  0  0  0
   -1.5270   -0.1340    1.0550 C   0  0  0  0  0  0  0  0  0  0  0  0
   -2.5920   -0.0760    1.7700 O   0  0  0  0  0  0  0  0  0  0  0  0
    0.3840   -0.1840   -0.9840 H   0  0  0  0  0  0  0  0  0  0  0  0
   -1.0570    1.8730    0.6780 H   0  0  0  0  0  0  0  0  0  0  0  0
   -1.9670    2.2410   -1.3450 H   0  0  0  0  0  0  0  0  0  0  0  0
   -2.4770    0.5010   -1.6150 H   0  0  0  0  0  0  0  0  0  0  0  0
   -3.4490    3.5960    0.4340 H   0  0  0  0  0  0  0  0  0  0  0  0
   -5.7460    3.1540    1.6050 H   0  0  0  0  0  0  0  0  0  0  0  0
   -6.3780    0.6980    1.2610 H   0  0  0  0  0  0  0  0  0  0  0  0
    0.1180   -5.5880    0.5180 C   0  0  0  0  0  0  0  0  0  0  0  0
    0.1910   -4.1670    1.0140 C   0  0  0  0  0  0  0  0  0  0  0  0
   -1.1320   -3.6940    1.5760 C   0  0  2  0  0  0  0  0  0  0  0  0
   -2.2220   -3.7510    0.5110 C   0  0  0  0  0  0  0  0  0  0  0  0
   -1.0760   -2.3260    2.1510 C   0  0  2  0  0  0  0  0  0  0  0  0
   -0.6970   -1.2990    1.2340 N   0  0  0  0  0  0  0  0  0  0  0  0
   -0.3030   -2.2120    3.4150 C   0  0  0  0  0  0  0  0  0  0  0  0
   -0.4220   -3.0520    4.3310 O   0  0  0  0  0  0  0  0  0  0  0  0
    0.5600   -1.1450    3.5550 O   0  0  0  0  0  0  0  0  0  0  0  0
   -0.0200   -6.3150    1.3600 H   0  0  0  0  0  0  0  0  0  0  0  0
    1.1310   -5.8230    0.0800 H   0  0  0  0  0  0  0  0  0  0  0  0
   -0.6090   -5.7420   -0.2860 H   0  0  0  0  0  0  0  0  0  0  0  0
    0.5660   -3.5330    0.1970 H   0  0  0  0  0  0  0  0  0  0  0  0
    0.9650   -4.1590    1.8090 H   0  0  0  0  0  0  0  0  0  0  0  0
   -1.4460   -4.4060    2.3660 H   0  0  0  0  0  0  0  0  0  0  0  0
   -3.1680   -3.3990    0.9630 H   0  0  0  0  0  0  0  0  0  0  0  0
   -2.0020   -3.0500   -0.3370 H   0  0  0  0  0  0  0  0  0  0  0  0
   -2.4010   -4.7850    0.1730 H   0  0  0  0  0  0  0  0  0  0  0  0
   -2.1480   -2.1020    2.4880 H   0  0  0  0  0  0  0  0  0  0  0  0
    0.1710   -1.3310    0.6650 H   0  0  0  0  0  0  0  0  0  0  0  0
  1  2  1  0  0  0  0
  2 14  1  6  0  0  0
  2 10  1  0  0  0  0
  2  3  1  0  0  0  0
  3  4  1  0  0  0  0
  3 15  1  0  0  0  0
  4  9  1  0  0  0  0
  5  6  1  0  0  0  0
  5  4  2  0  0  0  0
  6  7  2  0  0  0  0
  7 19  1  0  0  0  0
  7  8  1  0  0  0  0
  8 20  1  0  0  0  0
  9 21  1  0  0  0  0
  9  8  2  0  0  0  0
 10 22  1  0  0  0  0
 10 11  2  0  0  0  0
 12  1  1  0  0  0  0
 13  1  1  0  0  0  0
 16  3  1  0  0  0  0
 17  5  1  0  0  0  0
 18  6  1  0  0  0  0
 22 23  1  0  0  0  0
 23 33  1  1  0  0  0
 23 30  1  0  0  0  0
 24 25  1  0  0  0  0
 24 23  1  0  0  0  0
 25 29  1  0  0  0  0
 25 26  2  0  0  0  0
 26 27  1  0  0  0  0
 27 37  1  0  0  0  0
 28 27  1  0  0  0  0
 28 38  1  0  0  0  0
 29 28  2  0  0  0  0
 30 44  1  0  0  0  0
 30 31  2  0  0  0  0
 32 22  1  0  0  0  0
 34 24  1  0  0  0  0
 35 24  1  0  0  0  0
 36 26  1  0  0  0  0
 39 40  1  0  0  0  0
 39 48  1  0  0  0  0
 40 41  1  0  0  0  0
 40 52  1  0  0  0  0
 41 43  1  0  0  0  0
 41 53  1  1  0  0  0
 42 54  1  0  0  0  0
 42 41  1  0  0  0  0
 43 57  1  1  0  0  0
 43 45  1  0  0  0  0
 44 43  1  0  0  0  0
 45 47  2  0  0  0  0
 45 46  1  0  0  0  0
 49 39  1  0  0  0  0
 50 39  1  0  0  0  0
 51 40  1  0  0  0  0
 55 42  1  0  0  0  0
 56 42  1  0  0  0  0
 58 44  1  0  0  0  0
M  END
$$$$
