FHK.pdb
 OpenBabel07022418593D

 60 61  0  0  1  0  0  0  0  0999 V2000
    4.1900    0.3080   -1.0500 N   0  0  0  0  0  0  0  0  0  0  0  0
    3.5860    0.3350    0.2870 C   0  0  1  0  0  0  0  0  0  0  0  0
    4.1630    1.5050    1.0130 C   0  0  0  0  0  0  0  0  0  0  0  0
    3.6560    1.6860    2.3750 C   0  0  0  0  0  0  0  0  0  0  0  0
    4.2130    1.0670    3.4710 C   0  0  0  0  0  0  0  0  0  0  0  0
    3.7060    1.2850    4.7560 C   0  0  0  0  0  0  0  0  0  0  0  0
    2.6380    2.1250    4.9440 C   0  0  0  0  0  0  0  0  0  0  0  0
    2.0970    2.7330    3.8370 C   0  0  0  0  0  0  0  0  0  0  0  0
    2.5840    2.5270    2.5850 C   0  0  0  0  0  0  0  0  0  0  0  0
    2.1330    0.3210    0.1350 C   0  0  0  0  0  0  0  0  0  0  0  0
    1.6170    0.5250   -1.0200 O   0  0  0  0  0  0  0  0  0  0  0  0
    5.1460   -0.1130   -1.0340 H   0  0  0  0  0  0  0  0  0  0  0  0
    4.1540    1.2390   -1.5030 H   0  0  0  0  0  0  0  0  0  0  0  0
    3.9780   -0.5960    0.7920 H   0  0  0  0  0  0  0  0  0  0  0  0
    5.2670    1.2890    1.1160 H   0  0  0  0  0  0  0  0  0  0  0  0
    4.1370    2.4450    0.4100 H   0  0  0  0  0  0  0  0  0  0  0  0
    5.0610    0.3940    3.3640 H   0  0  0  0  0  0  0  0  0  0  0  0
    4.1520    0.7940    5.5990 H   0  0  0  0  0  0  0  0  0  0  0  0
    2.2230    2.3160    5.9070 H   0  0  0  0  0  0  0  0  0  0  0  0
    1.2570    3.3960    3.9680 H   0  0  0  0  0  0  0  0  0  0  0  0
    2.1160    3.0360    1.7350 H   0  0  0  0  0  0  0  0  0  0  0  0
    1.1940    0.0940    1.1780 N   0  0  0  0  0  0  0  0  0  0  0  0
   -0.2780    0.1050    0.9090 C   0  0  1  0  0  0  0  0  0  0  0  0
   -0.6930    1.4770    0.5650 C   0  0  0  0  0  0  0  0  0  0  0  0
   -2.1280    1.5990    0.2790 C   0  0  0  0  0  0  0  0  0  0  0  0
   -3.1660    1.8400    1.1910 C   0  0  0  0  0  0  0  0  0  0  0  0
   -4.3350    1.8830    0.5400 N   0  0  0  0  0  0  0  0  0  0  0  0
   -4.0800    1.6770   -0.7630 C   0  0  0  0  0  0  0  0  0  0  0  0
   -2.7570    1.5070   -0.9150 N   0  0  0  0  0  0  0  0  0  0  0  0
   -0.6130   -1.0070    0.0310 C   0  0  0  0  0  0  0  0  0  0  0  0
    0.3260   -1.7010   -0.5380 O   0  0  0  0  0  0  0  0  0  0  0  0
    1.5700   -0.0880    2.1290 H   0  0  0  0  0  0  0  0  0  0  0  0
   -0.7280   -0.1530    1.9110 H   0  0  0  0  0  0  0  0  0  0  0  0
   -0.0680    1.9400   -0.2450 H   0  0  0  0  0  0  0  0  0  0  0  0
   -0.5220    2.0980    1.5060 H   0  0  0  0  0  0  0  0  0  0  0  0
   -3.0480    1.9700    2.2390 H   0  0  0  0  0  0  0  0  0  0  0  0
   -5.3010    2.0480    0.9580 H   0  0  0  0  0  0  0  0  0  0  0  0
   -4.8180    1.6520   -1.5530 H   0  0  0  0  0  0  0  0  0  0  0  0
   -1.9050   -1.4420   -0.2780 N   0  0  0  0  0  0  0  0  0  0  0  0
   -2.1440   -2.5780   -1.1530 C   0  0  1  0  0  0  0  0  0  0  0  0
   -2.7840   -3.7050   -0.3780 C   0  0  0  0  0  0  0  0  0  0  0  0
   -3.0460   -4.9180   -1.1820 C   0  0  0  0  0  0  0  0  0  0  0  0
   -1.8790   -5.5910   -1.8110 C   0  0  0  0  0  0  0  0  0  0  0  0
   -0.8440   -6.1030   -0.8500 C   0  0  0  0  0  0  0  0  0  0  0  0
   -0.2280   -5.0980   -0.0320 N   0  0  0  0  0  0  0  0  0  0  0  0
   -2.9570   -2.2360   -2.3430 C   0  0  0  0  0  0  0  0  0  0  0  0
   -3.2130   -3.1280   -3.2230 O   0  0  0  0  0  0  0  0  0  0  0  0
   -3.4710   -0.9730   -2.5630 O   0  0  0  0  0  0  0  0  0  0  0  0
   -2.7370   -0.9800    0.1190 H   0  0  0  0  0  0  0  0  0  0  0  0
   -1.1620   -2.9320   -1.5060 H   0  0  0  0  0  0  0  0  0  0  0  0
   -3.7970   -3.3050   -0.0820 H   0  0  0  0  0  0  0  0  0  0  0  0
   -2.1730   -3.9480    0.4860 H   0  0  0  0  0  0  0  0  0  0  0  0
   -3.4440   -5.6860   -0.4280 H   0  0  0  0  0  0  0  0  0  0  0  0
   -3.9240   -4.8400   -1.8880 H   0  0  0  0  0  0  0  0  0  0  0  0
   -1.3700   -5.0190   -2.6150 H   0  0  0  0  0  0  0  0  0  0  0  0
   -2.2840   -6.5120   -2.3290 H   0  0  0  0  0  0  0  0  0  0  0  0
   -1.2770   -6.8600   -0.1460 H   0  0  0  0  0  0  0  0  0  0  0  0
   -0.0280   -6.6210   -1.4210 H   0  0  0  0  0  0  0  0  0  0  0  0
    0.6010   -4.6550   -0.4510 H   0  0  0  0  0  0  0  0  0  0  0  0
   -0.0480   -5.3990    0.9460 H   0  0  0  0  0  0  0  0  0  0  0  0
  1 12  1  0  0  0  0
  1  2  1  0  0  0  0
  2 14  1  1  0  0  0
  2  3  1  0  0  0  0
  3 15  1  0  0  0  0
  3  4  1  0  0  0  0
  4  9  2  0  0  0  0
  4  5  1  0  0  0  0
  5  6  2  0  0  0  0
  6  7  1  0  0  0  0
  6 18  1  0  0  0  0
  7 19  1  0  0  0  0
  8 20  1  0  0  0  0
  8  7  2  0  0  0  0
  9  8  1  0  0  0  0
 10  2  1  0  0  0  0
 10 22  1  0  0  0  0
 11 10  2  0  0  0  0
 13  1  1  0  0  0  0
 16  3  1  0  0  0  0
 17  5  1  0  0  0  0
 21  9  1  0  0  0  0
 22 32  1  0  0  0  0
 23 22  1  0  0  0  0
 23 33  1  1  0  0  0
 24 23  1  0  0  0  0
 24 35  1  0  0  0  0
 25 24  1  0  0  0  0
 25 26  2  0  0  0  0
 26 36  1  0  0  0  0
 27 37  1  0  0  0  0
 27 26  1  0  0  0  0
 28 27  1  0  0  0  0
 29 28  2  0  0  0  0
 29 25  1  0  0  0  0
 30 23  1  0  0  0  0
 31 30  2  0  0  0  0
 34 24  1  0  0  0  0
 38 28  1  0  0  0  0
 39 30  1  0  0  0  0
 39 49  1  0  0  0  0
 40 50  1  6  0  0  0
 40 41  1  0  0  0  0
 40 39  1  0  0  0  0
 41 51  1  0  0  0  0
 41 52  1  0  0  0  0
 42 53  1  0  0  0  0
 42 41  1  0  0  0  0
 43 42  1  0  0  0  0
 43 44  1  0  0  0  0
 44 57  1  0  0  0  0
 44 45  1  0  0  0  0
 45 60  1  0  0  0  0
 46 40  1  0  0  0  0
 47 46  2  0  0  0  0
 48 46  1  0  0  0  0
 54 42  1  0  0  0  0
 55 43  1  0  0  0  0
 56 43  1  0  0  0  0
 58 44  1  0  0  0  0
 59 45  1  0  0  0  0
M  END
$$$$
