FHN.pdb
 OpenBabel07022418593D

 53 54  0  0  1  0  0  0  0  0999 V2000
    1.7100   -0.2870   -2.3930 N   0  0  0  0  0  0  0  0  0  0  0  0
    2.2510    0.2800   -1.1760 C   0  0  1  0  0  0  0  0  0  0  0  0
    2.8290    1.6490   -1.4420 C   0  0  0  0  0  0  0  0  0  0  0  0
    3.3910    2.2590   -0.2210 C   0  0  0  0  0  0  0  0  0  0  0  0
    4.6970    1.9980    0.1110 C   0  0  0  0  0  0  0  0  0  0  0  0
    5.2630    2.5510    1.2230 C   0  0  0  0  0  0  0  0  0  0  0  0
    4.5540    3.3950    2.0660 C   0  0  0  0  0  0  0  0  0  0  0  0
    3.2470    3.6590    1.7380 C   0  0  0  0  0  0  0  0  0  0  0  0
    2.6810    3.1010    0.6190 C   0  0  0  0  0  0  0  0  0  0  0  0
    1.3120    0.2210   -0.0510 C   0  0  0  0  0  0  0  0  0  0  0  0
    1.7080    0.6090    1.0760 O   0  0  0  0  0  0  0  0  0  0  0  0
    1.1370   -1.1200   -2.2410 H   0  0  0  0  0  0  0  0  0  0  0  0
    1.3190    0.4210   -3.0380 H   0  0  0  0  0  0  0  0  0  0  0  0
    3.1260   -0.3780   -0.8970 H   0  0  0  0  0  0  0  0  0  0  0  0
    3.6880    1.4800   -2.1560 H   0  0  0  0  0  0  0  0  0  0  0  0
    2.0700    2.3220   -1.9130 H   0  0  0  0  0  0  0  0  0  0  0  0
    5.3060    1.3360   -0.5220 H   0  0  0  0  0  0  0  0  0  0  0  0
    6.2980    2.3410    1.4820 H   0  0  0  0  0  0  0  0  0  0  0  0
    5.0360    3.8190    2.9450 H   0  0  0  0  0  0  0  0  0  0  0  0
    2.6630    4.3040    2.3590 H   0  0  0  0  0  0  0  0  0  0  0  0
    1.6480    3.2900    0.3320 H   0  0  0  0  0  0  0  0  0  0  0  0
   -0.0150   -0.2390   -0.1310 N   0  0  0  0  0  0  0  0  0  0  0  0
   -0.8770   -0.2590    1.0520 C   0  0  1  0  0  0  0  0  0  0  0  0
   -2.0480    0.6580    0.8230 C   0  0  0  0  0  0  0  0  0  0  0  0
   -2.9840    0.7170    1.9500 C   0  0  0  0  0  0  0  0  0  0  0  0
   -4.1040   -0.0610    2.1430 C   0  0  0  0  0  0  0  0  0  0  0  0
   -4.6640    0.3470    3.2890 N   0  0  0  0  0  0  0  0  0  0  0  0
   -3.9600    1.3490    3.8430 C   0  0  0  0  0  0  0  0  0  0  0  0
   -2.9340    1.5690    3.0180 N   0  0  0  0  0  0  0  0  0  0  0  0
   -1.3840   -1.6220    1.3190 C   0  0  0  0  0  0  0  0  0  0  0  0
   -2.1150   -1.9260    2.2840 O   0  0  0  0  0  0  0  0  0  0  0  0
   -0.3990   -0.5650   -1.0180 H   0  0  0  0  0  0  0  0  0  0  0  0
   -0.3110    0.1520    1.9270 H   0  0  0  0  0  0  0  0  0  0  0  0
   -1.7230    1.6970    0.5840 H   0  0  0  0  0  0  0  0  0  0  0  0
   -2.6270    0.3310   -0.0860 H   0  0  0  0  0  0  0  0  0  0  0  0
   -4.5070   -0.8670    1.5130 H   0  0  0  0  0  0  0  0  0  0  0  0
   -5.5370   -0.0270    3.7430 H   0  0  0  0  0  0  0  0  0  0  0  0
   -4.1670    1.8840    4.7720 H   0  0  0  0  0  0  0  0  0  0  0  0
   -3.3900   -6.3600   -1.7580 N   0  0  0  0  0  0  0  0  0  0  0  0
   -2.7690   -5.8490   -0.5840 C   0  0  0  0  0  0  0  0  0  0  0  0
   -2.7440   -6.6040    0.4080 O   0  0  0  0  0  0  0  0  0  0  0  0
   -2.2160   -4.4970   -0.6310 C   0  0  0  0  0  0  0  0  0  0  0  0
   -1.4840   -4.0530    0.6140 C   0  0  2  0  0  0  0  0  0  0  0  0
   -1.0180   -2.6600    0.4200 N   0  0  0  0  0  0  0  0  0  0  0  0
   -0.2720   -4.9250    0.7960 C   0  0  0  0  0  0  0  0  0  0  0  0
   -0.3160   -6.1560    1.0000 O   0  0  0  0  0  0  0  0  0  0  0  0
    0.9860   -4.3050    0.7310 O   0  0  0  0  0  0  0  0  0  0  0  0
   -2.8410   -6.2860   -2.6560 H   0  0  0  0  0  0  0  0  0  0  0  0
   -4.3350   -6.7920   -1.7760 H   0  0  0  0  0  0  0  0  0  0  0  0
   -1.5480   -4.3610   -1.5350 H   0  0  0  0  0  0  0  0  0  0  0  0
   -3.0210   -3.7230   -0.8150 H   0  0  0  0  0  0  0  0  0  0  0  0
   -2.1140   -4.0840    1.5140 H   0  0  0  0  0  0  0  0  0  0  0  0
   -0.4120   -2.4980   -0.4090 H   0  0  0  0  0  0  0  0  0  0  0  0
  1 12  1  0  0  0  0
  1  2  1  0  0  0  0
  2 14  1  1  0  0  0
  2 10  1  0  0  0  0
  3  2  1  0  0  0  0
  3  4  1  0  0  0  0
  4  5  2  0  0  0  0
  4  9  1  0  0  0  0
  5  6  1  0  0  0  0
  6 18  1  0  0  0  0
  6  7  2  0  0  0  0
  7 19  1  0  0  0  0
  8  7  1  0  0  0  0
  8 20  1  0  0  0  0
  9  8  2  0  0  0  0
 10 11  2  0  0  0  0
 13  1  1  0  0  0  0
 15  3  1  0  0  0  0
 16  3  1  0  0  0  0
 17  5  1  0  0  0  0
 21  9  1  0  0  0  0
 22 10  1  0  0  0  0
 22 23  1  0  0  0  0
 23 30  1  0  0  0  0
 23 33  1  1  0  0  0
 24 23  1  0  0  0  0
 24 25  1  0  0  0  0
 25 26  2  0  0  0  0
 25 29  1  0  0  0  0
 26 27  1  0  0  0  0
 27 37  1  0  0  0  0
 27 28  1  0  0  0  0
 28 38  1  0  0  0  0
 29 28  2  0  0  0  0
 30 31  2  0  0  0  0
 32 22  1  0  0  0  0
 34 24  1  0  0  0  0
 35 24  1  0  0  0  0
 36 26  1  0  0  0  0
 39 40  1  0  0  0  0
 40 41  2  0  0  0  0
 42 40  1  0  0  0  0
 42 43  1  0  0  0  0
 43 45  1  0  0  0  0
 43 52  1  1  0  0  0
 44 43  1  0  0  0  0
 44 30  1  0  0  0  0
 45 46  1  0  0  0  0
 47 45  2  0  0  0  0
 48 39  1  0  0  0  0
 49 39  1  0  0  0  0
 50 42  1  0  0  0  0
 51 42  1  0  0  0  0
 53 44  1  0  0  0  0
M  END
$$$$
