FHQ.pdb
 OpenBabel07022418593D

 56 57  0  0  1  0  0  0  0  0999 V2000
    2.7320    1.8430    1.1900 N   0  0  0  0  0  0  0  0  0  0  0  0
    2.8510    0.4780    1.6020 C   0  0  1  0  0  0  0  0  0  0  0  0
    3.0870    0.4700    3.1150 C   0  0  0  0  0  0  0  0  0  0  0  0
    4.3290    1.2100    3.4600 C   0  0  0  0  0  0  0  0  0  0  0  0
    4.3350    2.5620    3.7350 C   0  0  0  0  0  0  0  0  0  0  0  0
    5.4850    3.2560    4.0560 C   0  0  0  0  0  0  0  0  0  0  0  0
    6.6810    2.5780    4.1070 C   0  0  0  0  0  0  0  0  0  0  0  0
    6.6970    1.2280    3.8370 C   0  0  0  0  0  0  0  0  0  0  0  0
    5.5390    0.5410    3.5160 C   0  0  0  0  0  0  0  0  0  0  0  0
    1.6050   -0.2750    1.3360 C   0  0  0  0  0  0  0  0  0  0  0  0
    1.5580   -1.5030    1.6520 O   0  0  0  0  0  0  0  0  0  0  0  0
    2.3650    1.9530    0.2160 H   0  0  0  0  0  0  0  0  0  0  0  0
    2.0760    2.3850    1.7990 H   0  0  0  0  0  0  0  0  0  0  0  0
    3.7060    0.0190    1.0790 H   0  0  0  0  0  0  0  0  0  0  0  0
    2.2600    0.9370    3.6520 H   0  0  0  0  0  0  0  0  0  0  0  0
    3.2440   -0.5790    3.4790 H   0  0  0  0  0  0  0  0  0  0  0  0
    3.3860    3.0860    3.6920 H   0  0  0  0  0  0  0  0  0  0  0  0
    5.4780    4.3260    4.2720 H   0  0  0  0  0  0  0  0  0  0  0  0
    7.5710    3.1270    4.3590 H   0  0  0  0  0  0  0  0  0  0  0  0
    7.6710    0.7310    3.8890 H   0  0  0  0  0  0  0  0  0  0  0  0
    5.5820   -0.5170    3.3080 H   0  0  0  0  0  0  0  0  0  0  0  0
    0.4540    0.2840    0.7510 N   0  0  0  0  0  0  0  0  0  0  0  0
   -0.7630   -0.5530    0.5190 C   0  0  1  0  0  0  0  0  0  0  0  0
   -1.7930    0.0080    1.4660 C   0  0  0  0  0  0  0  0  0  0  0  0
   -3.1010   -0.6550    1.4310 C   0  0  0  0  0  0  0  0  0  0  0  0
   -3.4390   -1.7380    2.1870 C   0  0  0  0  0  0  0  0  0  0  0  0
   -4.7060   -2.0730    1.8920 N   0  0  0  0  0  0  0  0  0  0  0  0
   -5.1400   -1.2040    0.9640 C   0  0  0  0  0  0  0  0  0  0  0  0
   -4.1640   -0.3350    0.6790 N   0  0  0  0  0  0  0  0  0  0  0  0
   -1.1150   -0.5270   -0.9010 C   0  0  0  0  0  0  0  0  0  0  0  0
   -0.4770    0.2720   -1.6700 O   0  0  0  0  0  0  0  0  0  0  0  0
    0.4520    1.2870    0.4770 H   0  0  0  0  0  0  0  0  0  0  0  0
   -0.5300   -1.5860    0.8910 H   0  0  0  0  0  0  0  0  0  0  0  0
   -1.3720   -0.1280    2.5060 H   0  0  0  0  0  0  0  0  0  0  0  0
   -1.8770    1.1190    1.3650 H   0  0  0  0  0  0  0  0  0  0  0  0
   -2.8530   -2.2900    2.9180 H   0  0  0  0  0  0  0  0  0  0  0  0
   -5.2970   -2.8510    2.2780 H   0  0  0  0  0  0  0  0  0  0  0  0
   -6.1300   -1.1820    0.4950 H   0  0  0  0  0  0  0  0  0  0  0  0
   -2.5680   -6.3190   -3.2920 N   0  0  0  0  0  0  0  0  0  0  0  0
   -2.1160   -5.0220   -3.6460 C   0  0  0  0  0  0  0  0  0  0  0  0
   -1.2560   -4.9830   -4.5920 O   0  0  0  0  0  0  0  0  0  0  0  0
   -2.5930   -3.7860   -2.9810 C   0  0  0  0  0  0  0  0  0  0  0  0
   -1.9440   -2.5550   -3.5630 C   0  0  0  0  0  0  0  0  0  0  0  0
   -2.4200   -1.2860   -2.8930 C   0  0  2  0  0  0  0  0  0  0  0  0
   -2.1040   -1.3280   -1.4750 N   0  0  0  0  0  0  0  0  0  0  0  0
   -3.8410   -1.1330   -3.1930 C   0  0  0  0  0  0  0  0  0  0  0  0
   -4.6850   -1.0650   -2.2780 O   0  0  0  0  0  0  0  0  0  0  0  0
   -4.2820   -1.0610   -4.5050 O   0  0  0  0  0  0  0  0  0  0  0  0
   -2.0180   -7.1810   -3.3300 H   0  0  0  0  0  0  0  0  0  0  0  0
   -3.5690   -6.4170   -2.9550 H   0  0  0  0  0  0  0  0  0  0  0  0
   -2.5460   -3.8200   -1.8870 H   0  0  0  0  0  0  0  0  0  0  0  0
   -3.6910   -3.7050   -3.2350 H   0  0  0  0  0  0  0  0  0  0  0  0
   -2.1630   -2.4560   -4.6450 H   0  0  0  0  0  0  0  0  0  0  0  0
   -0.8470   -2.6810   -3.4680 H   0  0  0  0  0  0  0  0  0  0  0  0
   -1.7860   -0.4730   -3.3320 H   0  0  0  0  0  0  0  0  0  0  0  0
   -2.6330   -1.9850   -0.8900 H   0  0  0  0  0  0  0  0  0  0  0  0
  1  2  1  0  0  0  0
  1 13  1  0  0  0  0
  2 14  1  6  0  0  0
  2  3  1  0  0  0  0
  3  4  1  0  0  0  0
  3 16  1  0  0  0  0
  3 15  1  0  0  0  0
  4  9  2  0  0  0  0
  4  5  1  0  0  0  0
  5  6  2  0  0  0  0
  6  7  1  0  0  0  0
  6 18  1  0  0  0  0
  7 19  1  0  0  0  0
  8 20  1  0  0  0  0
  8  7  2  0  0  0  0
  9  8  1  0  0  0  0
 10  2  1  0  0  0  0
 10 11  2  0  0  0  0
 12  1  1  0  0  0  0
 17  5  1  0  0  0  0
 21  9  1  0  0  0  0
 22 10  1  0  0  0  0
 23 22  1  0  0  0  0
 23 33  1  1  0  0  0
 23 24  1  0  0  0  0
 24 34  1  0  0  0  0
 25 24  1  0  0  0  0
 25 26  2  0  0  0  0
 26 36  1  0  0  0  0
 27 26  1  0  0  0  0
 27 37  1  0  0  0  0
 28 27  1  0  0  0  0
 29 28  2  0  0  0  0
 29 25  1  0  0  0  0
 30 23  1  0  0  0  0
 31 30  2  0  0  0  0
 32 22  1  0  0  0  0
 35 24  1  0  0  0  0
 38 28  1  0  0  0  0
 39 50  1  0  0  0  0
 40 39  1  0  0  0  0
 40 42  1  0  0  0  0
 41 40  2  0  0  0  0
 42 51  1  0  0  0  0
 43 54  1  0  0  0  0
 43 42  1  0  0  0  0
 43 44  1  0  0  0  0
 44 55  1  6  0  0  0
 44 45  1  0  0  0  0
 45 30  1  0  0  0  0
 45 56  1  0  0  0  0
 46 44  1  0  0  0  0
 46 47  1  0  0  0  0
 48 46  2  0  0  0  0
 49 39  1  0  0  0  0
 52 42  1  0  0  0  0
 53 43  1  0  0  0  0
M  END
$$$$
