FHR.pdb
 OpenBabel07022418593D

 62 63  0  0  1  0  0  0  0  0999 V2000
    3.7170    1.1120    0.0700 N   0  0  0  0  0  0  0  0  0  0  0  0
    3.5090    0.7570    1.4460 C   0  0  1  0  0  0  0  0  0  0  0  0
    4.0180    1.7660    2.4190 C   0  0  0  0  0  0  0  0  0  0  0  0
    5.4540    2.0280    2.3290 C   0  0  0  0  0  0  0  0  0  0  0  0
    6.3610    1.2940    3.0650 C   0  0  0  0  0  0  0  0  0  0  0  0
    7.7160    1.4840    3.0300 C   0  0  0  0  0  0  0  0  0  0  0  0
    8.2160    2.4780    2.2000 C   0  0  0  0  0  0  0  0  0  0  0  0
    7.3280    3.2270    1.4520 C   0  0  0  0  0  0  0  0  0  0  0  0
    5.9560    3.0130    1.5070 C   0  0  0  0  0  0  0  0  0  0  0  0
    2.0860    0.4690    1.7580 C   0  0  0  0  0  0  0  0  0  0  0  0
    1.7680    0.1780    2.9340 O   0  0  0  0  0  0  0  0  0  0  0  0
    3.2860    1.9980   -0.2250 H   0  0  0  0  0  0  0  0  0  0  0  0
    3.3890    0.3440   -0.5500 H   0  0  0  0  0  0  0  0  0  0  0  0
    4.1260   -0.1760    1.6150 H   0  0  0  0  0  0  0  0  0  0  0  0
    3.8140    1.3730    3.4450 H   0  0  0  0  0  0  0  0  0  0  0  0
    3.4320    2.7150    2.2390 H   0  0  0  0  0  0  0  0  0  0  0  0
    5.9750    0.5040    3.7260 H   0  0  0  0  0  0  0  0  0  0  0  0
    8.3490    0.8580    3.6440 H   0  0  0  0  0  0  0  0  0  0  0  0
    9.2820    2.6080    2.1900 H   0  0  0  0  0  0  0  0  0  0  0  0
    7.7360    3.9950    0.8140 H   0  0  0  0  0  0  0  0  0  0  0  0
    5.3160    3.6420    0.8890 H   0  0  0  0  0  0  0  0  0  0  0  0
    1.0590    0.5100    0.7660 N   0  0  0  0  0  0  0  0  0  0  0  0
   -0.3320    0.2300    1.0620 C   0  0  1  0  0  0  0  0  0  0  0  0
   -1.1660    1.4730    0.8430 C   0  0  0  0  0  0  0  0  0  0  0  0
   -1.0820    1.9490   -0.5540 C   0  0  0  0  0  0  0  0  0  0  0  0
   -1.7290    3.0540   -1.0520 C   0  0  0  0  0  0  0  0  0  0  0  0
   -1.4270    3.1900   -2.3550 N   0  0  0  0  0  0  0  0  0  0  0  0
   -0.5900    2.1760   -2.6930 C   0  0  0  0  0  0  0  0  0  0  0  0
   -0.3950    1.4450   -1.6010 N   0  0  0  0  0  0  0  0  0  0  0  0
   -0.7750   -0.9060    0.2570 C   0  0  0  0  0  0  0  0  0  0  0  0
    0.0530   -1.4500   -0.5360 O   0  0  0  0  0  0  0  0  0  0  0  0
    1.3990    0.7620   -0.2020 H   0  0  0  0  0  0  0  0  0  0  0  0
   -0.3790    0.0240    2.1650 H   0  0  0  0  0  0  0  0  0  0  0  0
   -0.8070    2.2350    1.5560 H   0  0  0  0  0  0  0  0  0  0  0  0
   -2.2230    1.1920    1.0400 H   0  0  0  0  0  0  0  0  0  0  0  0
   -2.3810    3.7280   -0.5170 H   0  0  0  0  0  0  0  0  0  0  0  0
   -1.7280    3.9020   -3.0530 H   0  0  0  0  0  0  0  0  0  0  0  0
   -0.1480    1.9750   -3.6560 H   0  0  0  0  0  0  0  0  0  0  0  0
   -7.2860   -4.6610    1.0120 N   0  0  0  0  0  0  0  0  0  0  0  0
   -6.3540   -5.4200    0.2670 C   0  0  0  0  0  0  0  0  0  0  0  0
   -6.1320   -6.6780    0.5560 N   0  0  0  0  0  0  0  0  0  0  0  0
   -5.6510   -4.7990   -0.8130 N   0  0  0  0  0  0  0  0  0  0  0  0
   -4.3520   -5.2760   -1.1860 C   0  0  0  0  0  0  0  0  0  0  0  0
   -3.2630   -5.0590   -0.2240 C   0  0  0  0  0  0  0  0  0  0  0  0
   -2.8920   -3.7370    0.2780 C   0  0  0  0  0  0  0  0  0  0  0  0
   -2.4240   -2.6440   -0.5910 C   0  0  2  0  0  0  0  0  0  0  0  0
   -2.0640   -1.4740    0.2740 N   0  0  0  0  0  0  0  0  0  0  0  0
   -3.4980   -2.1230   -1.4540 C   0  0  0  0  0  0  0  0  0  0  0  0
   -3.9770   -0.9620   -1.1550 O   0  0  0  0  0  0  0  0  0  0  0  0
   -4.0590   -2.7010   -2.5410 O   0  0  0  0  0  0  0  0  0  0  0  0
   -7.0220   -4.3330    1.9600 H   0  0  0  0  0  0  0  0  0  0  0  0
   -8.2260   -4.4170    0.6490 H   0  0  0  0  0  0  0  0  0  0  0  0
   -6.6490   -7.1220    1.3430 H   0  0  0  0  0  0  0  0  0  0  0  0
   -6.1120   -4.0050   -1.3040 H   0  0  0  0  0  0  0  0  0  0  0  0
   -4.1570   -5.1610   -2.2510 H   0  0  0  0  0  0  0  0  0  0  0  0
   -4.5140   -6.4430   -1.1400 H   0  0  0  0  0  0  0  0  0  0  0  0
   -2.3660   -5.6360   -0.6280 H   0  0  0  0  0  0  0  0  0  0  0  0
   -3.5130   -5.6830    0.6950 H   0  0  0  0  0  0  0  0  0  0  0  0
   -2.1890   -3.9050    1.1590 H   0  0  0  0  0  0  0  0  0  0  0  0
   -3.8240   -3.3660    0.8610 H   0  0  0  0  0  0  0  0  0  0  0  0
   -1.5800   -2.9520   -1.2110 H   0  0  0  0  0  0  0  0  0  0  0  0
   -2.7770   -1.0710    0.8990 H   0  0  0  0  0  0  0  0  0  0  0  0
  1  2  1  0  0  0  0
  2 14  1  1  0  0  0
  2 10  1  0  0  0  0
  2  3  1  0  0  0  0
  3 15  1  0  0  0  0
  4  3  1  0  0  0  0
  4  5  1  0  0  0  0
  5 17  1  0  0  0  0
  6  5  2  0  0  0  0
  6 18  1  0  0  0  0
  7  6  1  0  0  0  0
  8  9  1  0  0  0  0
  8  7  2  0  0  0  0
  9  4  2  0  0  0  0
 10 11  2  0  0  0  0
 12  1  1  0  0  0  0
 13  1  1  0  0  0  0
 16  3  1  0  0  0  0
 19  7  1  0  0  0  0
 20  8  1  0  0  0  0
 21  9  1  0  0  0  0
 22 23  1  0  0  0  0
 22 10  1  0  0  0  0
 23 33  1  1  0  0  0
 24 35  1  0  0  0  0
 24 23  1  0  0  0  0
 24 34  1  0  0  0  0
 25 24  1  0  0  0  0
 26 25  2  0  0  0  0
 26 36  1  0  0  0  0
 27 26  1  0  0  0  0
 28 27  1  0  0  0  0
 28 29  2  0  0  0  0
 29 25  1  0  0  0  0
 30 47  1  0  0  0  0
 30 23  1  0  0  0  0
 31 30  2  0  0  0  0
 32 22  1  0  0  0  0
 37 27  1  0  0  0  0
 38 28  1  0  0  0  0
 39 51  1  0  0  0  0
 40 41  2  0  0  0  0
 40 39  1  0  0  0  0
 41 53  1  0  0  0  0
 42 40  1  0  0  0  0
 43 56  1  0  0  0  0
 43 42  1  0  0  0  0
 43 44  1  0  0  0  0
 44 45  1  0  0  0  0
 44 58  1  0  0  0  0
 45 60  1  0  0  0  0
 45 59  1  0  0  0  0
 46 61  1  6  0  0  0
 46 47  1  0  0  0  0
 46 45  1  0  0  0  0
 47 62  1  0  0  0  0
 48 49  1  0  0  0  0
 48 46  1  0  0  0  0
 50 48  2  0  0  0  0
 52 39  1  0  0  0  0
 54 42  1  0  0  0  0
 55 43  1  0  0  0  0
 57 44  1  0  0  0  0
M  END
$$$$
