FHY.pdb
 OpenBabel07022418593D

 60 62  0  0  1  0  0  0  0  0999 V2000
    2.6200   -0.1590    4.6770 N   0  0  0  0  0  0  0  0  0  0  0  0
    1.8830    0.7340    3.8120 C   0  0  1  0  0  0  0  0  0  0  0  0
    2.8900    1.6070    3.1130 C   0  0  0  0  0  0  0  0  0  0  0  0
    3.8420    0.7690    2.3060 C   0  0  0  0  0  0  0  0  0  0  0  0
    4.9970    0.3100    2.8930 C   0  0  0  0  0  0  0  0  0  0  0  0
    5.8890   -0.4610    2.1780 C   0  0  0  0  0  0  0  0  0  0  0  0
    5.6390   -0.7800    0.8730 C   0  0  0  0  0  0  0  0  0  0  0  0
    4.4820   -0.3300    0.2590 C   0  0  0  0  0  0  0  0  0  0  0  0
    3.6030    0.4390    0.9910 C   0  0  0  0  0  0  0  0  0  0  0  0
    1.0230   -0.0420    2.9100 C   0  0  0  0  0  0  0  0  0  0  0  0
    1.0060   -1.3020    2.9400 O   0  0  0  0  0  0  0  0  0  0  0  0
    3.1020   -0.8540    4.0770 H   0  0  0  0  0  0  0  0  0  0  0  0
    2.0140   -0.6020    5.3940 H   0  0  0  0  0  0  0  0  0  0  0  0
    1.2930    1.4040    4.4920 H   0  0  0  0  0  0  0  0  0  0  0  0
    2.4350    2.3990    2.5010 H   0  0  0  0  0  0  0  0  0  0  0  0
    3.4800    2.1150    3.9040 H   0  0  0  0  0  0  0  0  0  0  0  0
    5.1980    0.5670    3.9430 H   0  0  0  0  0  0  0  0  0  0  0  0
    6.8060   -0.8250    2.6460 H   0  0  0  0  0  0  0  0  0  0  0  0
    6.3120   -1.3810    0.2800 H   0  0  0  0  0  0  0  0  0  0  0  0
    4.3050   -0.5970   -0.7800 H   0  0  0  0  0  0  0  0  0  0  0  0
    2.7110    0.7940    0.5360 H   0  0  0  0  0  0  0  0  0  0  0  0
    0.1630    0.5760    1.9530 N   0  0  0  0  0  0  0  0  0  0  0  0
   -0.6850   -0.1990    1.0650 C   0  0  1  0  0  0  0  0  0  0  0  0
   -2.1250    0.0980    1.5110 C   0  0  0  0  0  0  0  0  0  0  0  0
   -2.2530   -0.3280    2.9210 C   0  0  0  0  0  0  0  0  0  0  0  0
   -2.6340   -1.5660    3.3890 C   0  0  0  0  0  0  0  0  0  0  0  0
   -2.6300   -1.5630    4.7350 N   0  0  0  0  0  0  0  0  0  0  0  0
   -2.2510   -0.3370    5.1270 C   0  0  0  0  0  0  0  0  0  0  0  0
   -2.0230    0.4130    4.0090 N   0  0  0  0  0  0  0  0  0  0  0  0
   -0.5420    0.2260   -0.3440 C   0  0  0  0  0  0  0  0  0  0  0  0
    0.2490    1.1620   -0.6230 O   0  0  0  0  0  0  0  0  0  0  0  0
    0.1810    1.6180    1.9310 H   0  0  0  0  0  0  0  0  0  0  0  0
   -0.5590   -1.2880    1.2230 H   0  0  0  0  0  0  0  0  0  0  0  0
   -2.3240    1.1980    1.4170 H   0  0  0  0  0  0  0  0  0  0  0  0
   -2.8460   -0.4050    0.8380 H   0  0  0  0  0  0  0  0  0  0  0  0
   -2.8930   -2.4030    2.7750 H   0  0  0  0  0  0  0  0  0  0  0  0
   -2.8690   -2.3400    5.3770 H   0  0  0  0  0  0  0  0  0  0  0  0
   -2.1390    0.0220    6.1440 H   0  0  0  0  0  0  0  0  0  0  0  0
   -4.3100   -5.4600   -3.2640 O   0  0  0  0  0  0  0  0  0  0  0  0
   -3.4020   -4.4100   -3.3320 C   0  0  0  0  0  0  0  0  0  0  0  0
   -2.3730   -4.2600   -2.4170 C   0  0  0  0  0  0  0  0  0  0  0  0
   -1.4870   -3.2060   -2.5100 C   0  0  0  0  0  0  0  0  0  0  0  0
   -1.5930   -2.2510   -3.5280 C   0  0  0  0  0  0  0  0  0  0  0  0
   -0.6190   -1.1330   -3.5940 C   0  0  0  0  0  0  0  0  0  0  0  0
   -1.1000    0.0660   -2.7940 C   0  0  2  0  0  0  0  0  0  0  0  0
   -1.2590   -0.3720   -1.4120 N   0  0  0  0  0  0  0  0  0  0  0  0
   -2.4070    0.4800   -3.3550 C   0  0  0  0  0  0  0  0  0  0  0  0
   -2.5200    0.9040   -4.5240 O   0  0  0  0  0  0  0  0  0  0  0  0
   -2.6200   -2.4280   -4.4150 C   0  0  0  0  0  0  0  0  0  0  0  0
   -3.5270   -3.4810   -4.3440 C   0  0  0  0  0  0  0  0  0  0  0  0
   -3.5280    0.3900   -2.5490 O   0  0  0  0  0  0  0  0  0  0  0  0
   -4.7300   -5.7780   -2.3950 H   0  0  0  0  0  0  0  0  0  0  0  0
   -2.3150   -5.0100   -1.6420 H   0  0  0  0  0  0  0  0  0  0  0  0
   -0.6810   -3.0980   -1.7860 H   0  0  0  0  0  0  0  0  0  0  0  0
    0.3550   -1.4470   -3.1600 H   0  0  0  0  0  0  0  0  0  0  0  0
   -0.4450   -0.8590   -4.6570 H   0  0  0  0  0  0  0  0  0  0  0  0
   -0.3780    0.9000   -2.8720 H   0  0  0  0  0  0  0  0  0  0  0  0
   -1.9050   -1.1390   -1.1630 H   0  0  0  0  0  0  0  0  0  0  0  0
   -2.7550   -1.7370   -5.2150 H   0  0  0  0  0  0  0  0  0  0  0  0
   -4.3320   -3.5840   -5.0740 H   0  0  0  0  0  0  0  0  0  0  0  0
  1 13  1  0  0  0  0
  2 14  1  1  0  0  0
  2  1  1  0  0  0  0
  3  2  1  0  0  0  0
  3 16  1  0  0  0  0
  4  5  1  0  0  0  0
  4  3  1  0  0  0  0
  5 17  1  0  0  0  0
  6 18  1  0  0  0  0
  6  5  2  0  0  0  0
  7  6  1  0  0  0  0
  8  7  2  0  0  0  0
  8  9  1  0  0  0  0
  9  4  2  0  0  0  0
 10 11  2  0  0  0  0
 10  2  1  0  0  0  0
 12  1  1  0  0  0  0
 15  3  1  0  0  0  0
 19  7  1  0  0  0  0
 20  8  1  0  0  0  0
 21  9  1  0  0  0  0
 22 10  1  0  0  0  0
 23 33  1  1  0  0  0
 23 24  1  0  0  0  0
 23 22  1  0  0  0  0
 24 25  1  0  0  0  0
 25 26  2  0  0  0  0
 25 29  1  0  0  0  0
 26 27  1  0  0  0  0
 27 28  1  0  0  0  0
 27 37  1  0  0  0  0
 28 38  1  0  0  0  0
 29 28  2  0  0  0  0
 30 23  1  0  0  0  0
 31 30  2  0  0  0  0
 32 22  1  0  0  0  0
 34 24  1  0  0  0  0
 35 24  1  0  0  0  0
 36 26  1  0  0  0  0
 39 52  1  0  0  0  0
 40 39  1  0  0  0  0
 40 41  1  0  0  0  0
 41 53  1  0  0  0  0
 42 41  2  0  0  0  0
 42 54  1  0  0  0  0
 43 42  1  0  0  0  0
 44 43  1  0  0  0  0
 44 55  1  0  0  0  0
 44 45  1  0  0  0  0
 45 57  1  6  0  0  0
 45 46  1  0  0  0  0
 46 58  1  0  0  0  0
 46 30  1  0  0  0  0
 47 45  1  0  0  0  0
 47 51  1  0  0  0  0
 48 47  2  0  0  0  0
 49 50  1  0  0  0  0
 49 43  2  0  0  0  0
 50 40  2  0  0  0  0
 56 44  1  0  0  0  0
 59 49  1  0  0  0  0
 60 50  1  0  0  0  0
M  END
$$$$
