FIA.pdb
 OpenBabel07022418593D

 51 51  0  0  1  0  0  0  0  0999 V2000
    0.9060   -3.5950    0.7980 N   0  0  0  0  0  0  0  0  0  0  0  0
    0.6930   -2.4470    1.6920 C   0  0  1  0  0  0  0  0  0  0  0  0
    2.0680   -2.1600    2.2580 C   0  0  0  0  0  0  0  0  0  0  0  0
    3.0720   -1.8730    1.2220 C   0  0  0  0  0  0  0  0  0  0  0  0
    3.8290   -2.9050    0.6410 C   0  0  0  0  0  0  0  0  0  0  0  0
    4.7760   -2.6970   -0.3240 C   0  0  0  0  0  0  0  0  0  0  0  0
    4.9940   -1.4050   -0.7440 C   0  0  0  0  0  0  0  0  0  0  0  0
    4.2870   -0.3490   -0.2160 C   0  0  0  0  0  0  0  0  0  0  0  0
    3.3260   -0.6040    0.7700 C   0  0  0  0  0  0  0  0  0  0  0  0
    0.0260   -1.3180    1.0650 C   0  0  0  0  0  0  0  0  0  0  0  0
    0.1170   -1.1280   -0.1560 O   0  0  0  0  0  0  0  0  0  0  0  0
    0.0990   -3.7000    0.1390 H   0  0  0  0  0  0  0  0  0  0  0  0
    1.0910   -4.4390    1.3520 H   0  0  0  0  0  0  0  0  0  0  0  0
    0.0400   -2.8350    2.5020 H   0  0  0  0  0  0  0  0  0  0  0  0
    1.9630   -1.2920    2.9510 H   0  0  0  0  0  0  0  0  0  0  0  0
    2.4390   -3.0090    2.8640 H   0  0  0  0  0  0  0  0  0  0  0  0
    3.6150   -3.8980    1.0090 H   0  0  0  0  0  0  0  0  0  0  0  0
    5.3530   -3.4810   -0.7670 H   0  0  0  0  0  0  0  0  0  0  0  0
    5.7410   -1.1680   -1.5170 H   0  0  0  0  0  0  0  0  0  0  0  0
    4.4210    0.6760   -0.5100 H   0  0  0  0  0  0  0  0  0  0  0  0
    2.7820    0.2120    1.1770 H   0  0  0  0  0  0  0  0  0  0  0  0
    0.6400    1.7850    3.0510 C   0  0  0  0  0  0  0  0  0  0  0  0
   -0.1450    2.6470    2.1390 C   0  0  0  0  0  0  0  0  0  0  0  0
   -0.6590    1.9410    0.9120 C   0  0  2  0  0  0  0  0  0  0  0  0
   -1.4400    2.9840    0.1210 C   0  0  0  0  0  0  0  0  0  0  0  0
   -1.4340    0.7150    1.1740 C   0  0  2  0  0  0  0  0  0  0  0  0
   -0.7720   -0.3760    1.8190 N   0  0  0  0  0  0  0  0  0  0  0  0
   -2.2000    0.2430    0.0080 C   0  0  0  0  0  0  0  0  0  0  0  0
   -2.6090    1.0410   -0.8960 O   0  0  0  0  0  0  0  0  0  0  0  0
    1.4860    2.3790    3.4810 H   0  0  0  0  0  0  0  0  0  0  0  0
    1.0430    0.9160    2.5340 H   0  0  0  0  0  0  0  0  0  0  0  0
    0.0290    1.4050    3.9150 H   0  0  0  0  0  0  0  0  0  0  0  0
   -0.9600    3.2090    2.6610 H   0  0  0  0  0  0  0  0  0  0  0  0
    0.5660    3.4410    1.7470 H   0  0  0  0  0  0  0  0  0  0  0  0
    0.2650    1.7500    0.2860 H   0  0  0  0  0  0  0  0  0  0  0  0
   -2.5150    2.9910    0.3720 H   0  0  0  0  0  0  0  0  0  0  0  0
   -1.2390    2.9200   -0.9690 H   0  0  0  0  0  0  0  0  0  0  0  0
   -1.0840    4.0240    0.3930 H   0  0  0  0  0  0  0  0  0  0  0  0
   -2.2450    1.0760    1.9590 H   0  0  0  0  0  0  0  0  0  0  0  0
   -0.8350   -0.5390    2.8400 H   0  0  0  0  0  0  0  0  0  0  0  0
   -2.5510   -2.5580   -2.1500 C   0  0  0  0  0  0  0  0  0  0  0  0
   -3.3010   -1.5160   -1.3840 C   0  0  2  0  0  0  0  0  0  0  0  0
   -2.5410   -1.1160   -0.1890 N   0  0  0  0  0  0  0  0  0  0  0  0
   -4.6100   -2.0830   -0.9290 C   0  0  0  0  0  0  0  0  0  0  0  0
   -5.4420   -2.4980   -1.7710 O   0  0  0  0  0  0  0  0  0  0  0  0
   -4.9220   -2.1580    0.4060 O   0  0  0  0  0  0  0  0  0  0  0  0
   -1.8340   -3.0750   -1.4590 H   0  0  0  0  0  0  0  0  0  0  0  0
   -3.2980   -3.2900   -2.5520 H   0  0  0  0  0  0  0  0  0  0  0  0
   -1.9840   -2.1090   -2.9880 H   0  0  0  0  0  0  0  0  0  0  0  0
   -3.5150   -0.6350   -2.0070 H   0  0  0  0  0  0  0  0  0  0  0  0
   -2.2890   -1.8570    0.5140 H   0  0  0  0  0  0  0  0  0  0  0  0
  1 13  1  0  0  0  0
  1  2  1  0  0  0  0
  2  3  1  0  0  0  0
  2 14  1  1  0  0  0
  3 16  1  0  0  0  0
  3 15  1  0  0  0  0
  4  3  1  0  0  0  0
  5 17  1  0  0  0  0
  5  4  2  0  0  0  0
  6  5  1  0  0  0  0
  7  6  2  0  0  0  0
  7  8  1  0  0  0  0
  8  9  2  0  0  0  0
  9 21  1  0  0  0  0
  9  4  1  0  0  0  0
 10  2  1  0  0  0  0
 10 27  1  0  0  0  0
 11 10  2  0  0  0  0
 12  1  1  0  0  0  0
 18  6  1  0  0  0  0
 19  7  1  0  0  0  0
 20  8  1  0  0  0  0
 22 30  1  0  0  0  0
 22 32  1  0  0  0  0
 23 33  1  0  0  0  0
 23 22  1  0  0  0  0
 24 35  1  6  0  0  0
 24 26  1  0  0  0  0
 24 23  1  0  0  0  0
 25 36  1  0  0  0  0
 25 38  1  0  0  0  0
 25 24  1  0  0  0  0
 26 27  1  0  0  0  0
 26 39  1  1  0  0  0
 27 40  1  0  0  0  0
 28 26  1  0  0  0  0
 29 28  2  0  0  0  0
 31 22  1  0  0  0  0
 34 23  1  0  0  0  0
 37 25  1  0  0  0  0
 41 47  1  0  0  0  0
 41 42  1  0  0  0  0
 42 50  1  6  0  0  0
 42 44  1  0  0  0  0
 42 43  1  0  0  0  0
 43 28  1  0  0  0  0
 43 51  1  0  0  0  0
 44 46  1  0  0  0  0
 45 44  2  0  0  0  0
 48 41  1  0  0  0  0
 49 41  1  0  0  0  0
M  END
$$$$
