FIC.pdb
 OpenBabel07022418593D

 52 52  0  0  1  0  0  0  0  0999 V2000
    2.4810   -2.4040    2.8640 N   0  0  0  0  0  0  0  0  0  0  0  0
    2.7710   -1.4530    1.8130 C   0  0  1  0  0  0  0  0  0  0  0  0
    3.3960   -2.1120    0.6250 C   0  0  0  0  0  0  0  0  0  0  0  0
    3.7180   -1.2160   -0.4910 C   0  0  0  0  0  0  0  0  0  0  0  0
    2.8600   -0.9690   -1.5420 C   0  0  0  0  0  0  0  0  0  0  0  0
    3.1590   -0.1210   -2.5900 C   0  0  0  0  0  0  0  0  0  0  0  0
    4.3710    0.5210   -2.6040 C   0  0  0  0  0  0  0  0  0  0  0  0
    5.2440    0.2980   -1.5790 C   0  0  0  0  0  0  0  0  0  0  0  0
    4.9430   -0.5480   -0.5360 C   0  0  0  0  0  0  0  0  0  0  0  0
    1.4630   -0.7920    1.4460 C   0  0  0  0  0  0  0  0  0  0  0  0
    1.5000    0.1190    0.6000 O   0  0  0  0  0  0  0  0  0  0  0  0
    2.6010   -3.3770    2.5180 H   0  0  0  0  0  0  0  0  0  0  0  0
    2.9590   -2.2000    3.7490 H   0  0  0  0  0  0  0  0  0  0  0  0
    3.4130   -0.6630    2.2530 H   0  0  0  0  0  0  0  0  0  0  0  0
    4.3490   -2.5840    0.9950 H   0  0  0  0  0  0  0  0  0  0  0  0
    2.7630   -2.9760    0.3110 H   0  0  0  0  0  0  0  0  0  0  0  0
    1.8900   -1.4520   -1.5880 H   0  0  0  0  0  0  0  0  0  0  0  0
    2.4460    0.0480   -3.4070 H   0  0  0  0  0  0  0  0  0  0  0  0
    4.6170    1.1870   -3.4180 H   0  0  0  0  0  0  0  0  0  0  0  0
    6.1990    0.8130   -1.6040 H   0  0  0  0  0  0  0  0  0  0  0  0
    5.6630   -0.6920    0.2510 H   0  0  0  0  0  0  0  0  0  0  0  0
   -1.0640    1.1700    4.0320 C   0  0  0  0  0  0  0  0  0  0  0  0
   -0.3160    1.5010    2.7800 C   0  0  0  0  0  0  0  0  0  0  0  0
   -0.9270    0.8620    1.5290 C   0  0  2  0  0  0  0  0  0  0  0  0
   -2.3410    1.4520    1.4990 C   0  0  0  0  0  0  0  0  0  0  0  0
   -1.0210   -0.6170    1.7670 C   0  0  2  0  0  0  0  0  0  0  0  0
    0.2900   -1.2160    2.0560 N   0  0  0  0  0  0  0  0  0  0  0  0
   -1.6520   -1.3740    0.6640 C   0  0  0  0  0  0  0  0  0  0  0  0
   -0.9460   -2.2480    0.0190 O   0  0  0  0  0  0  0  0  0  0  0  0
   -0.9050    0.1410    4.4040 H   0  0  0  0  0  0  0  0  0  0  0  0
   -2.1320    1.3730    3.9400 H   0  0  0  0  0  0  0  0  0  0  0  0
   -0.7210    1.8240    4.8910 H   0  0  0  0  0  0  0  0  0  0  0  0
   -0.4640    2.6100    2.6160 H   0  0  0  0  0  0  0  0  0  0  0  0
    0.7500    1.3370    2.8530 H   0  0  0  0  0  0  0  0  0  0  0  0
   -0.3710    1.1810    0.6550 H   0  0  0  0  0  0  0  0  0  0  0  0
   -2.2540    2.5410    1.8290 H   0  0  0  0  0  0  0  0  0  0  0  0
   -2.7570    1.4790    0.4920 H   0  0  0  0  0  0  0  0  0  0  0  0
   -2.9960    0.9210    2.1820 H   0  0  0  0  0  0  0  0  0  0  0  0
   -1.6230   -0.7200    2.7150 H   0  0  0  0  0  0  0  0  0  0  0  0
    0.2870   -2.0180    2.7790 H   0  0  0  0  0  0  0  0  0  0  0  0
   -2.9750   -1.2700    0.2050 N   0  0  0  0  0  0  0  0  0  0  0  0
   -3.4320   -2.0890   -0.8990 C   0  0  1  0  0  0  0  0  0  0  0  0
   -4.6330   -2.8790   -0.3800 C   0  0  0  0  0  0  0  0  0  0  0  0
   -5.8730   -1.6680    0.1310 S   0  0  0  0  0  0  0  0  0  0  0  0
   -3.9370   -1.2620   -2.0260 C   0  0  0  0  0  0  0  0  0  0  0  0
   -3.9470   -0.0060   -1.9800 O   0  0  0  0  0  0  0  0  0  0  0  0
   -4.4150   -1.8750   -3.1680 O   0  0  0  0  0  0  0  0  0  0  0  0
   -3.6610   -0.6330    0.6400 H   0  0  0  0  0  0  0  0  0  0  0  0
   -2.6620   -2.7510   -1.2980 H   0  0  0  0  0  0  0  0  0  0  0  0
   -4.2840   -3.4470    0.5000 H   0  0  0  0  0  0  0  0  0  0  0  0
   -5.0080   -3.5460   -1.1840 H   0  0  0  0  0  0  0  0  0  0  0  0
   -6.0770   -1.7620    1.5150 H   0  0  0  0  0  0  0  0  0  0  0  0
  1 13  1  0  0  0  0
  2 14  1  1  0  0  0
  2  1  1  0  0  0  0
  3 15  1  0  0  0  0
  3  2  1  0  0  0  0
  4  3  1  0  0  0  0
  5  4  2  0  0  0  0
  6  5  1  0  0  0  0
  7  6  2  0  0  0  0
  7  8  1  0  0  0  0
  8  9  2  0  0  0  0
  9  4  1  0  0  0  0
  9 21  1  0  0  0  0
 10  2  1  0  0  0  0
 10 27  1  0  0  0  0
 11 10  2  0  0  0  0
 12  1  1  0  0  0  0
 16  3  1  0  0  0  0
 17  5  1  0  0  0  0
 18  6  1  0  0  0  0
 19  7  1  0  0  0  0
 20  8  1  0  0  0  0
 22 30  1  0  0  0  0
 22 32  1  0  0  0  0
 23 34  1  0  0  0  0
 23 22  1  0  0  0  0
 24 35  1  6  0  0  0
 24 26  1  0  0  0  0
 24 23  1  0  0  0  0
 25 24  1  0  0  0  0
 25 36  1  0  0  0  0
 25 38  1  0  0  0  0
 26 27  1  0  0  0  0
 26 39  1  1  0  0  0
 27 40  1  0  0  0  0
 28 26  1  0  0  0  0
 29 28  2  0  0  0  0
 31 22  1  0  0  0  0
 33 23  1  0  0  0  0
 37 25  1  0  0  0  0
 41 48  1  0  0  0  0
 41 28  1  0  0  0  0
 42 49  1  6  0  0  0
 42 43  1  0  0  0  0
 42 41  1  0  0  0  0
 43 44  1  0  0  0  0
 43 50  1  0  0  0  0
 44 52  1  0  0  0  0
 45 46  1  0  0  0  0
 45 42  1  0  0  0  0
 47 45  2  0  0  0  0
 51 43  1  0  0  0  0
M  END
$$$$
