FID.pdb
 OpenBabel07022418593D

 54 54  0  0  1  0  0  0  0  0999 V2000
    1.8220    0.4180    2.0850 N   0  0  0  0  0  0  0  0  0  0  0  0
    0.5950    1.1220    2.3680 C   0  0  1  0  0  0  0  0  0  0  0  0
    0.7580    2.6000    2.1690 C   0  0  0  0  0  0  0  0  0  0  0  0
    1.1510    2.8860    0.7690 C   0  0  0  0  0  0  0  0  0  0  0  0
    0.2130    3.1360   -0.2240 C   0  0  0  0  0  0  0  0  0  0  0  0
    0.6700    3.3950   -1.4960 C   0  0  0  0  0  0  0  0  0  0  0  0
    2.0120    3.4070   -1.7860 C   0  0  0  0  0  0  0  0  0  0  0  0
    2.9430    3.1580   -0.8010 C   0  0  0  0  0  0  0  0  0  0  0  0
    2.5150    2.9000    0.4640 C   0  0  0  0  0  0  0  0  0  0  0  0
   -0.5290    0.5670    1.5730 C   0  0  0  0  0  0  0  0  0  0  0  0
   -1.6760    1.0680    1.6280 O   0  0  0  0  0  0  0  0  0  0  0  0
    2.0010    0.4540    1.0760 H   0  0  0  0  0  0  0  0  0  0  0  0
    1.8810   -0.5290    2.4700 H   0  0  0  0  0  0  0  0  0  0  0  0
    0.4120    0.9590    3.4670 H   0  0  0  0  0  0  0  0  0  0  0  0
   -0.2180    3.1320    2.3630 H   0  0  0  0  0  0  0  0  0  0  0  0
    1.5290    3.0320    2.8240 H   0  0  0  0  0  0  0  0  0  0  0  0
   -0.8410    3.1240    0.0240 H   0  0  0  0  0  0  0  0  0  0  0  0
   -0.0640    3.5910   -2.2680 H   0  0  0  0  0  0  0  0  0  0  0  0
    2.3590    3.6130   -2.7980 H   0  0  0  0  0  0  0  0  0  0  0  0
    4.0100    3.1660   -1.0250 H   0  0  0  0  0  0  0  0  0  0  0  0
    3.2280    2.6980    1.2690 H   0  0  0  0  0  0  0  0  0  0  0  0
   -0.6990   -0.0700   -3.6860 C   0  0  0  0  0  0  0  0  0  0  0  0
   -0.8700    0.0910   -2.1900 C   0  0  0  0  0  0  0  0  0  0  0  0
   -1.0990   -1.2780   -1.5270 C   0  0  2  0  0  0  0  0  0  0  0  0
   -2.3630   -1.8090   -2.1800 C   0  0  0  0  0  0  0  0  0  0  0  0
   -1.3660   -1.1570   -0.0790 C   0  0  2  0  0  0  0  0  0  0  0  0
   -0.3620   -0.5500    0.7180 N   0  0  0  0  0  0  0  0  0  0  0  0
   -1.6520   -2.5150    0.4530 C   0  0  0  0  0  0  0  0  0  0  0  0
   -2.5040   -3.2880   -0.0470 O   0  0  0  0  0  0  0  0  0  0  0  0
    0.1230    0.5980   -4.0340 H   0  0  0  0  0  0  0  0  0  0  0  0
   -1.6390    0.1260   -4.2410 H   0  0  0  0  0  0  0  0  0  0  0  0
   -0.3880   -1.1000   -3.9050 H   0  0  0  0  0  0  0  0  0  0  0  0
   -1.7540    0.7410   -2.0390 H   0  0  0  0  0  0  0  0  0  0  0  0
   -0.0110    0.6050   -1.7250 H   0  0  0  0  0  0  0  0  0  0  0  0
   -0.3030   -1.9810   -1.7980 H   0  0  0  0  0  0  0  0  0  0  0  0
   -2.3260   -2.9110   -2.3290 H   0  0  0  0  0  0  0  0  0  0  0  0
   -2.5950   -1.2900   -3.1360 H   0  0  0  0  0  0  0  0  0  0  0  0
   -3.2140   -1.6080   -1.5020 H   0  0  0  0  0  0  0  0  0  0  0  0
   -2.3100   -0.5560    0.0500 H   0  0  0  0  0  0  0  0  0  0  0  0
    0.5940   -0.9660    0.6730 H   0  0  0  0  0  0  0  0  0  0  0  0
   -0.9190   -2.9590    1.5880 N   0  0  0  0  0  0  0  0  0  0  0  0
   -1.1650   -4.2730    2.1360 C   0  0  1  0  0  0  0  0  0  0  0  0
    0.0610   -5.1200    2.2460 C   0  0  0  0  0  0  0  0  0  0  0  0
    1.1130   -4.5580    3.1040 C   0  0  0  0  0  0  0  0  0  0  0  0
    0.9780   -3.4620    3.6950 O   0  0  0  0  0  0  0  0  0  0  0  0
   -1.6820   -4.0920    3.5380 C   0  0  0  0  0  0  0  0  0  0  0  0
   -1.9550   -5.1280    4.1780 O   0  0  0  0  0  0  0  0  0  0  0  0
    2.3060   -5.2360    3.2850 O   0  0  0  0  0  0  0  0  0  0  0  0
   -1.8460   -2.8450    4.0890 O   0  0  0  0  0  0  0  0  0  0  0  0
   -0.2030   -2.3460    2.0340 H   0  0  0  0  0  0  0  0  0  0  0  0
   -1.9320   -4.8280    1.5960 H   0  0  0  0  0  0  0  0  0  0  0  0
    0.4900   -5.4170    1.2750 H   0  0  0  0  0  0  0  0  0  0  0  0
   -0.2630   -6.0830    2.7310 H   0  0  0  0  0  0  0  0  0  0  0  0
    3.0200   -4.8680    3.9230 H   0  0  0  0  0  0  0  0  0  0  0  0
  1  2  1  0  0  0  0
  1 13  1  0  0  0  0
  2 14  1  1  0  0  0
  3 15  1  0  0  0  0
  3  2  1  0  0  0  0
  3 16  1  0  0  0  0
  4  3  1  0  0  0  0
  5 17  1  0  0  0  0
  5  4  2  0  0  0  0
  6  5  1  0  0  0  0
  7  6  2  0  0  0  0
  7  8  1  0  0  0  0
  8  9  2  0  0  0  0
  9  4  1  0  0  0  0
  9 21  1  0  0  0  0
 10 11  2  0  0  0  0
 10  2  1  0  0  0  0
 12  1  1  0  0  0  0
 18  6  1  0  0  0  0
 19  7  1  0  0  0  0
 20  8  1  0  0  0  0
 22 23  1  0  0  0  0
 23 33  1  0  0  0  0
 23 34  1  0  0  0  0
 23 24  1  0  0  0  0
 24 35  1  6  0  0  0
 24 26  1  0  0  0  0
 25 24  1  0  0  0  0
 25 38  1  0  0  0  0
 26 39  1  1  0  0  0
 26 28  1  0  0  0  0
 26 27  1  0  0  0  0
 27 10  1  0  0  0  0
 28 41  1  0  0  0  0
 29 28  2  0  0  0  0
 30 22  1  0  0  0  0
 31 22  1  0  0  0  0
 32 22  1  0  0  0  0
 36 25  1  0  0  0  0
 37 25  1  0  0  0  0
 40 27  1  0  0  0  0
 41 50  1  0  0  0  0
 41 42  1  0  0  0  0
 42 51  1  6  0  0  0
 42 43  1  0  0  0  0
 42 46  1  0  0  0  0
 43 53  1  0  0  0  0
 43 44  1  0  0  0  0
 44 48  1  0  0  0  0
 44 45  2  0  0  0  0
 46 49  2  0  0  0  0
 46 47  1  0  0  0  0
 48 54  1  0  0  0  0
 52 43  1  0  0  0  0
M  END
$$$$
