FIE.pdb
 OpenBabel07022418593D

 57 57  0  0  1  0  0  0  0  0999 V2000
   -1.7840    0.0320    3.2890 N   0  0  0  0  0  0  0  0  0  0  0  0
   -0.8520    1.0500    2.8900 C   0  0  1  0  0  0  0  0  0  0  0  0
   -0.1470    1.5390    4.1120 C   0  0  0  0  0  0  0  0  0  0  0  0
    0.8570    2.6030    3.8580 C   0  0  0  0  0  0  0  0  0  0  0  0
    2.1920    2.3660    3.6120 C   0  0  0  0  0  0  0  0  0  0  0  0
    3.0850    3.4110    3.3740 C   0  0  0  0  0  0  0  0  0  0  0  0
    2.6600    4.7220    3.3780 C   0  0  0  0  0  0  0  0  0  0  0  0
    1.3270    4.9630    3.6240 C   0  0  0  0  0  0  0  0  0  0  0  0
    0.4520    3.9220    3.8580 C   0  0  0  0  0  0  0  0  0  0  0  0
    0.0950    0.5440    1.8410 C   0  0  0  0  0  0  0  0  0  0  0  0
    0.9810    1.3170    1.3670 O   0  0  0  0  0  0  0  0  0  0  0  0
   -2.1250    0.2830    4.2540 H   0  0  0  0  0  0  0  0  0  0  0  0
   -2.5890    0.0190    2.6500 H   0  0  0  0  0  0  0  0  0  0  0  0
   -1.3900    1.9070    2.4380 H   0  0  0  0  0  0  0  0  0  0  0  0
    0.3800    0.6740    4.5780 H   0  0  0  0  0  0  0  0  0  0  0  0
   -0.8570    1.8890    4.8910 H   0  0  0  0  0  0  0  0  0  0  0  0
    2.5510    1.3570    3.6060 H   0  0  0  0  0  0  0  0  0  0  0  0
    4.1310    3.2380    3.1800 H   0  0  0  0  0  0  0  0  0  0  0  0
    3.3560    5.5470    3.1920 H   0  0  0  0  0  0  0  0  0  0  0  0
    1.0040    5.9950    3.6240 H   0  0  0  0  0  0  0  0  0  0  0  0
   -0.5930    4.1690    4.0470 H   0  0  0  0  0  0  0  0  0  0  0  0
    2.4560   -3.9500   -0.9420 C   0  0  0  0  0  0  0  0  0  0  0  0
    2.8530   -2.9230    0.0430 C   0  0  0  0  0  0  0  0  0  0  0  0
    1.8170   -2.3210    0.8960 C   0  0  2  0  0  0  0  0  0  0  0  0
    1.0470   -3.3010    1.7550 C   0  0  0  0  0  0  0  0  0  0  0  0
    0.9780   -1.2150    0.3380 C   0  0  2  0  0  0  0  0  0  0  0  0
    0.0260   -0.7870    1.3590 N   0  0  0  0  0  0  0  0  0  0  0  0
    0.2920   -1.5100   -0.9390 C   0  0  0  0  0  0  0  0  0  0  0  0
    0.9390   -1.8170   -1.9710 O   0  0  0  0  0  0  0  0  0  0  0  0
    2.9980   -4.9210   -0.6830 H   0  0  0  0  0  0  0  0  0  0  0  0
    1.3940   -4.2610   -0.9370 H   0  0  0  0  0  0  0  0  0  0  0  0
    2.8290   -3.7430   -1.9700 H   0  0  0  0  0  0  0  0  0  0  0  0
    3.6480   -3.3520    0.7300 H   0  0  0  0  0  0  0  0  0  0  0  0
    3.3940   -2.0890   -0.4680 H   0  0  0  0  0  0  0  0  0  0  0  0
    2.4410   -1.7610    1.7040 H   0  0  0  0  0  0  0  0  0  0  0  0
    0.6070   -2.7220    2.5920 H   0  0  0  0  0  0  0  0  0  0  0  0
    1.8140   -3.9880    2.1950 H   0  0  0  0  0  0  0  0  0  0  0  0
    0.2420   -3.8130    1.2390 H   0  0  0  0  0  0  0  0  0  0  0  0
    1.6470   -0.3580    0.1330 H   0  0  0  0  0  0  0  0  0  0  0  0
   -0.7040   -1.4010    1.7590 H   0  0  0  0  0  0  0  0  0  0  0  0
   -1.1210   -1.4660   -1.0790 N   0  0  0  0  0  0  0  0  0  0  0  0
   -1.7710   -1.7650   -2.3670 C   0  0  1  0  0  0  0  0  0  0  0  0
   -2.6410   -2.9770   -2.2210 C   0  0  0  0  0  0  0  0  0  0  0  0
   -3.3290   -3.3390   -3.4950 C   0  0  0  0  0  0  0  0  0  0  0  0
   -2.4530   -3.6580   -4.6250 C   0  0  0  0  0  0  0  0  0  0  0  0
   -1.2210   -3.6930   -4.5000 O   0  0  0  0  0  0  0  0  0  0  0  0
   -2.5580   -0.6160   -2.8170 C   0  0  0  0  0  0  0  0  0  0  0  0
   -3.1400   -0.5800   -3.9120 O   0  0  0  0  0  0  0  0  0  0  0  0
   -2.9730   -3.9390   -5.9060 O   0  0  0  0  0  0  0  0  0  0  0  0
   -2.6720    0.5050   -1.9890 O   0  0  0  0  0  0  0  0  0  0  0  0
   -1.7210   -1.2220   -0.2780 H   0  0  0  0  0  0  0  0  0  0  0  0
   -0.9430   -2.0060   -3.0570 H   0  0  0  0  0  0  0  0  0  0  0  0
   -2.0720   -3.8610   -1.8410 H   0  0  0  0  0  0  0  0  0  0  0  0
   -3.4520   -2.7390   -1.4810 H   0  0  0  0  0  0  0  0  0  0  0  0
   -4.0700   -2.5810   -3.8190 H   0  0  0  0  0  0  0  0  0  0  0  0
   -3.9520   -4.2900   -3.3370 H   0  0  0  0  0  0  0  0  0  0  0  0
   -2.4420   -4.4670   -6.5770 H   0  0  0  0  0  0  0  0  0  0  0  0
  1 12  1  0  0  0  0
  2 14  1  6  0  0  0
  2  1  1  0  0  0  0
  2  3  1  0  0  0  0
  3 15  1  0  0  0  0
  3 16  1  0  0  0  0
  4  3  1  0  0  0  0
  5  4  2  0  0  0  0
  6  7  2  0  0  0  0
  6  5  1  0  0  0  0
  7  8  1  0  0  0  0
  8  9  2  0  0  0  0
  9  4  1  0  0  0  0
  9 21  1  0  0  0  0
 10  2  1  0  0  0  0
 11 10  2  0  0  0  0
 13  1  1  0  0  0  0
 17  5  1  0  0  0  0
 18  6  1  0  0  0  0
 19  7  1  0  0  0  0
 20  8  1  0  0  0  0
 22 31  1  0  0  0  0
 22 30  1  0  0  0  0
 22 23  1  0  0  0  0
 23 33  1  0  0  0  0
 23 24  1  0  0  0  0
 24 35  1  1  0  0  0
 24 25  1  0  0  0  0
 25 37  1  0  0  0  0
 25 36  1  0  0  0  0
 26 39  1  6  0  0  0
 26 24  1  0  0  0  0
 26 27  1  0  0  0  0
 27 40  1  0  0  0  0
 27 10  1  0  0  0  0
 28 26  1  0  0  0  0
 29 28  2  0  0  0  0
 32 22  1  0  0  0  0
 34 23  1  0  0  0  0
 38 25  1  0  0  0  0
 41 28  1  0  0  0  0
 41 51  1  0  0  0  0
 42 52  1  6  0  0  0
 42 43  1  0  0  0  0
 42 41  1  0  0  0  0
 43 53  1  0  0  0  0
 43 54  1  0  0  0  0
 44 56  1  0  0  0  0
 44 43  1  0  0  0  0
 45 46  2  0  0  0  0
 45 44  1  0  0  0  0
 47 42  1  0  0  0  0
 47 50  1  0  0  0  0
 48 47  2  0  0  0  0
 49 45  1  0  0  0  0
 55 44  1  0  0  0  0
 57 49  1  0  0  0  0
M  END
$$$$
