FIG.pdb
 OpenBabel07022418593D

 48 48  0  0  1  0  0  0  0  0999 V2000
   -0.0190   -4.0330    2.4430 N   0  0  0  0  0  0  0  0  0  0  0  0
    0.6480   -2.8650    1.7870 C   0  0  1  0  0  0  0  0  0  0  0  0
    0.9620   -3.3230    0.4200 C   0  0  0  0  0  0  0  0  0  0  0  0
    1.6470   -2.4320   -0.4950 C   0  0  0  0  0  0  0  0  0  0  0  0
    3.0340   -2.3060   -0.4340 C   0  0  0  0  0  0  0  0  0  0  0  0
    3.7460   -1.5100   -1.3060 C   0  0  0  0  0  0  0  0  0  0  0  0
    3.0730   -0.8040   -2.2830 C   0  0  0  0  0  0  0  0  0  0  0  0
    1.7040   -0.9080   -2.3690 C   0  0  0  0  0  0  0  0  0  0  0  0
    1.0190   -1.7180   -1.4760 C   0  0  0  0  0  0  0  0  0  0  0  0
   -0.2020   -1.6900    1.9800 C   0  0  0  0  0  0  0  0  0  0  0  0
   -1.2650   -1.7870    2.6920 O   0  0  0  0  0  0  0  0  0  0  0  0
    0.0980   -3.9490    3.4770 H   0  0  0  0  0  0  0  0  0  0  0  0
   -1.0380   -3.8890    2.2590 H   0  0  0  0  0  0  0  0  0  0  0  0
    1.5790   -2.7580    2.4280 H   0  0  0  0  0  0  0  0  0  0  0  0
    1.5270   -4.3100    0.5510 H   0  0  0  0  0  0  0  0  0  0  0  0
   -0.0260   -3.6990   -0.0170 H   0  0  0  0  0  0  0  0  0  0  0  0
    3.5910   -2.8440    0.3170 H   0  0  0  0  0  0  0  0  0  0  0  0
    4.8250   -1.4110   -1.2580 H   0  0  0  0  0  0  0  0  0  0  0  0
    3.6340   -0.1860   -2.9570 H   0  0  0  0  0  0  0  0  0  0  0  0
    1.1750   -0.3560   -3.1340 H   0  0  0  0  0  0  0  0  0  0  0  0
   -0.0330   -1.7570   -1.6010 H   0  0  0  0  0  0  0  0  0  0  0  0
    1.9710    1.1380    2.8140 C   0  0  0  0  0  0  0  0  0  0  0  0
    0.7800    2.0120    2.9980 C   0  0  0  0  0  0  0  0  0  0  0  0
   -0.1960    2.0280    1.8560 C   0  0  2  0  0  0  0  0  0  0  0  0
   -1.3050    3.0050    2.2840 C   0  0  0  0  0  0  0  0  0  0  0  0
   -0.8490    0.7020    1.7150 C   0  0  2  0  0  0  0  0  0  0  0  0
    0.0360   -0.4040    1.4480 N   0  0  0  0  0  0  0  0  0  0  0  0
   -2.0270    0.7040    0.8020 C   0  0  0  0  0  0  0  0  0  0  0  0
   -2.8120    1.6640    0.7260 O   0  0  0  0  0  0  0  0  0  0  0  0
    2.4200    1.3120    1.8130 H   0  0  0  0  0  0  0  0  0  0  0  0
    1.7550    0.1010    3.0590 H   0  0  0  0  0  0  0  0  0  0  0  0
    2.7190    1.4690    3.6010 H   0  0  0  0  0  0  0  0  0  0  0  0
    0.2300    1.6460    3.9150 H   0  0  0  0  0  0  0  0  0  0  0  0
    1.0900    3.0570    3.2880 H   0  0  0  0  0  0  0  0  0  0  0  0
    0.2690    2.4020    0.9290 H   0  0  0  0  0  0  0  0  0  0  0  0
   -1.6790    3.5830    1.4120 H   0  0  0  0  0  0  0  0  0  0  0  0
   -2.0980    2.4500    2.8190 H   0  0  0  0  0  0  0  0  0  0  0  0
   -0.8760    3.7550    2.9730 H   0  0  0  0  0  0  0  0  0  0  0  0
   -1.3580    0.4770    2.7300 H   0  0  0  0  0  0  0  0  0  0  0  0
    0.8800   -0.2170    0.8510 H   0  0  0  0  0  0  0  0  0  0  0  0
   -2.2760   -0.4240   -0.0110 N   0  0  0  0  0  0  0  0  0  0  0  0
   -3.4080   -0.4810   -0.9220 C   0  0  0  0  0  0  0  0  0  0  0  0
   -3.4520   -1.7740   -1.6170 C   0  0  0  0  0  0  0  0  0  0  0  0
   -4.3360   -1.9950   -2.4760 O   0  0  0  0  0  0  0  0  0  0  0  0
   -2.5270   -2.7490   -1.3300 O   0  0  0  0  0  0  0  0  0  0  0  0
   -1.6520   -1.2520    0.0280 H   0  0  0  0  0  0  0  0  0  0  0  0
   -4.3210   -0.4430   -0.2580 H   0  0  0  0  0  0  0  0  0  0  0  0
   -3.4430    0.3880   -1.6070 H   0  0  0  0  0  0  0  0  0  0  0  0
  1 12  1  0  0  0  0
  2 10  1  0  0  0  0
  2 14  1  1  0  0  0
  2  1  1  0  0  0  0
  3 15  1  0  0  0  0
  3  2  1  0  0  0  0
  4  5  1  0  0  0  0
  4  3  1  0  0  0  0
  5 17  1  0  0  0  0
  6 18  1  0  0  0  0
  6  5  2  0  0  0  0
  7  6  1  0  0  0  0
  8  7  2  0  0  0  0
  8  9  1  0  0  0  0
  9  4  2  0  0  0  0
 10 11  2  0  0  0  0
 13  1  1  0  0  0  0
 16  3  1  0  0  0  0
 19  7  1  0  0  0  0
 20  8  1  0  0  0  0
 21  9  1  0  0  0  0
 22 23  1  0  0  0  0
 22 31  1  0  0  0  0
 22 32  1  0  0  0  0
 23 34  1  0  0  0  0
 23 33  1  0  0  0  0
 24 35  1  6  0  0  0
 24 25  1  0  0  0  0
 24 23  1  0  0  0  0
 25 37  1  0  0  0  0
 25 38  1  0  0  0  0
 26 24  1  0  0  0  0
 26 39  1  1  0  0  0
 27 26  1  0  0  0  0
 27 10  1  0  0  0  0
 28 26  1  0  0  0  0
 29 28  2  0  0  0  0
 30 22  1  0  0  0  0
 36 25  1  0  0  0  0
 40 27  1  0  0  0  0
 41 46  1  0  0  0  0
 41 28  1  0  0  0  0
 42 47  1  0  0  0  0
 42 41  1  0  0  0  0
 43 45  1  0  0  0  0
 43 42  1  0  0  0  0
 44 43  2  0  0  0  0
 48 42  1  0  0  0  0
M  END
$$$$
