FIK.pdb
 OpenBabel07022419003D

 62 62  0  0  1  0  0  0  0  0999 V2000
   -1.9870    0.3650    3.4700 N   0  0  0  0  0  0  0  0  0  0  0  0
   -1.0010    1.3820    3.1440 C   0  0  1  0  0  0  0  0  0  0  0  0
   -0.3240    1.8040    4.4220 C   0  0  0  0  0  0  0  0  0  0  0  0
    0.7110    2.8430    4.2200 C   0  0  0  0  0  0  0  0  0  0  0  0
    2.0410    2.5810    3.9830 C   0  0  0  0  0  0  0  0  0  0  0  0
    2.9870    3.5730    3.7960 C   0  0  0  0  0  0  0  0  0  0  0  0
    2.6120    4.8900    3.8430 C   0  0  0  0  0  0  0  0  0  0  0  0
    1.2910    5.1900    4.0780 C   0  0  0  0  0  0  0  0  0  0  0  0
    0.3420    4.1790    4.2650 C   0  0  0  0  0  0  0  0  0  0  0  0
   -0.0710    0.9390    2.0950 C   0  0  0  0  0  0  0  0  0  0  0  0
    0.8180    1.7210    1.6720 O   0  0  0  0  0  0  0  0  0  0  0  0
   -2.1460    0.3290    4.5020 H   0  0  0  0  0  0  0  0  0  0  0  0
   -2.8880    0.5200    2.9550 H   0  0  0  0  0  0  0  0  0  0  0  0
   -1.5670    2.2640    2.7650 H   0  0  0  0  0  0  0  0  0  0  0  0
    0.1750    0.9000    4.8290 H   0  0  0  0  0  0  0  0  0  0  0  0
   -1.0740    2.1340    5.1680 H   0  0  0  0  0  0  0  0  0  0  0  0
    2.3460    1.5440    3.9450 H   0  0  0  0  0  0  0  0  0  0  0  0
    4.0320    3.3290    3.6110 H   0  0  0  0  0  0  0  0  0  0  0  0
    3.3710    5.6480    3.6940 H   0  0  0  0  0  0  0  0  0  0  0  0
    1.0140    6.2340    4.1120 H   0  0  0  0  0  0  0  0  0  0  0  0
   -0.6830    4.4900    4.4460 H   0  0  0  0  0  0  0  0  0  0  0  0
    3.8030   -3.1710    0.4770 C   0  0  0  0  0  0  0  0  0  0  0  0
    2.7410   -2.2320   -0.1090 C   0  0  0  0  0  0  0  0  0  0  0  0
    1.7430   -1.8300    0.9270 C   0  0  2  0  0  0  0  0  0  0  0  0
    1.0170   -3.0190    1.4940 C   0  0  0  0  0  0  0  0  0  0  0  0
    0.8440   -0.7190    0.4750 C   0  0  2  0  0  0  0  0  0  0  0  0
   -0.1080   -0.3540    1.5070 N   0  0  0  0  0  0  0  0  0  0  0  0
    0.1390   -1.0510   -0.7980 C   0  0  0  0  0  0  0  0  0  0  0  0
    0.7360   -1.3710   -1.8530 O   0  0  0  0  0  0  0  0  0  0  0  0
    4.5580   -3.3300   -0.3210 H   0  0  0  0  0  0  0  0  0  0  0  0
    4.2840   -2.7140    1.3510 H   0  0  0  0  0  0  0  0  0  0  0  0
    3.3580   -4.1740    0.6870 H   0  0  0  0  0  0  0  0  0  0  0  0
    3.2920   -1.3690   -0.5290 H   0  0  0  0  0  0  0  0  0  0  0  0
    2.3130   -2.7940   -0.9670 H   0  0  0  0  0  0  0  0  0  0  0  0
    2.3470   -1.4140    1.7890 H   0  0  0  0  0  0  0  0  0  0  0  0
    1.7360   -3.5970    2.1440 H   0  0  0  0  0  0  0  0  0  0  0  0
    0.6730   -3.7350    0.7290 H   0  0  0  0  0  0  0  0  0  0  0  0
    0.1740   -2.7700    2.1400 H   0  0  0  0  0  0  0  0  0  0  0  0
    1.4920    0.1560    0.2760 H   0  0  0  0  0  0  0  0  0  0  0  0
   -0.8230   -1.0280    1.8260 H   0  0  0  0  0  0  0  0  0  0  0  0
   -1.2910   -1.0210   -0.8780 N   0  0  0  0  0  0  0  0  0  0  0  0
   -2.0160   -1.3400   -2.1090 C   0  0  1  0  0  0  0  0  0  0  0  0
   -2.8470   -2.5760   -1.8860 C   0  0  0  0  0  0  0  0  0  0  0  0
   -3.6400   -3.0180   -3.0640 C   0  0  0  0  0  0  0  0  0  0  0  0
   -2.8690   -3.3770   -4.2820 C   0  0  0  0  0  0  0  0  0  0  0  0
   -1.9110   -4.5070   -4.1410 C   0  0  0  0  0  0  0  0  0  0  0  0
   -0.8980   -4.2960   -3.1600 N   0  0  0  0  0  0  0  0  0  0  0  0
   -2.7920   -0.1870   -2.5830 C   0  0  0  0  0  0  0  0  0  0  0  0
   -3.4910   -0.2020   -3.6250 O   0  0  0  0  0  0  0  0  0  0  0  0
   -2.7820    1.0170   -1.8680 O   0  0  0  0  0  0  0  0  0  0  0  0
   -1.8210   -0.7660   -0.0420 H   0  0  0  0  0  0  0  0  0  0  0  0
   -1.2480   -1.5680   -2.8710 H   0  0  0  0  0  0  0  0  0  0  0  0
   -2.2490   -3.3860   -1.4300 H   0  0  0  0  0  0  0  0  0  0  0  0
   -3.5970   -2.3010   -1.0870 H   0  0  0  0  0  0  0  0  0  0  0  0
   -4.4410   -2.2910   -3.2760 H   0  0  0  0  0  0  0  0  0  0  0  0
   -4.1790   -3.9570   -2.7420 H   0  0  0  0  0  0  0  0  0  0  0  0
   -2.3250   -2.5260   -4.7390 H   0  0  0  0  0  0  0  0  0  0  0  0
   -3.6220   -3.6850   -5.0650 H   0  0  0  0  0  0  0  0  0  0  0  0
   -1.3810   -4.5940   -5.1360 H   0  0  0  0  0  0  0  0  0  0  0  0
   -2.4490   -5.4820   -4.0110 H   0  0  0  0  0  0  0  0  0  0  0  0
   -0.8470   -5.0770   -2.4950 H   0  0  0  0  0  0  0  0  0  0  0  0
    0.0090   -3.9610   -3.5250 H   0  0  0  0  0  0  0  0  0  0  0  0
  1 12  1  0  0  0  0
  2 14  1  6  0  0  0
  2  1  1  0  0  0  0
  2  3  1  0  0  0  0
  3 15  1  0  0  0  0
  3 16  1  0  0  0  0
  4  9  1  0  0  0  0
  4  3  1  0  0  0  0
  5  4  2  0  0  0  0
  6  7  2  0  0  0  0
  6  5  1  0  0  0  0
  7  8  1  0  0  0  0
  8 20  1  0  0  0  0
  8  9  2  0  0  0  0
  9 21  1  0  0  0  0
 10  2  1  0  0  0  0
 11 10  2  0  0  0  0
 13  1  1  0  0  0  0
 17  5  1  0  0  0  0
 18  6  1  0  0  0  0
 19  7  1  0  0  0  0
 22 32  1  0  0  0  0
 22 31  1  0  0  0  0
 23 22  1  0  0  0  0
 23 24  1  0  0  0  0
 24 25  1  0  0  0  0
 24 35  1  1  0  0  0
 25 38  1  0  0  0  0
 25 36  1  0  0  0  0
 26 39  1  6  0  0  0
 26 24  1  0  0  0  0
 26 27  1  0  0  0  0
 27 40  1  0  0  0  0
 27 10  1  0  0  0  0
 28 26  1  0  0  0  0
 29 28  2  0  0  0  0
 30 22  1  0  0  0  0
 33 23  1  0  0  0  0
 34 23  1  0  0  0  0
 37 25  1  0  0  0  0
 41 28  1  0  0  0  0
 41 51  1  0  0  0  0
 42 52  1  6  0  0  0
 42 43  1  0  0  0  0
 42 41  1  0  0  0  0
 43 53  1  0  0  0  0
 43 54  1  0  0  0  0
 44 56  1  0  0  0  0
 44 43  1  0  0  0  0
 45 46  1  0  0  0  0
 45 44  1  0  0  0  0
 46 60  1  0  0  0  0
 46 47  1  0  0  0  0
 47 61  1  0  0  0  0
 48 42  1  0  0  0  0
 48 50  1  0  0  0  0
 49 48  2  0  0  0  0
 55 44  1  0  0  0  0
 57 45  1  0  0  0  0
 58 45  1  0  0  0  0
 59 46  1  0  0  0  0
 62 47  1  0  0  0  0
M  END
$$$$
