FIL.pdb
 OpenBabel07022418593D

 60 60  0  0  1  0  0  0  0  0999 V2000
    0.6830    0.6630   -2.0800 N   0  0  0  0  0  0  0  0  0  0  0  0
    1.6640    0.7980   -1.0120 C   0  0  1  0  0  0  0  0  0  0  0  0
    2.0580    2.2360   -0.8460 C   0  0  0  0  0  0  0  0  0  0  0  0
    3.0530    2.4330    0.2240 C   0  0  0  0  0  0  0  0  0  0  0  0
    4.4090    2.3000   -0.0010 C   0  0  0  0  0  0  0  0  0  0  0  0
    5.3090    2.5190    1.0390 C   0  0  0  0  0  0  0  0  0  0  0  0
    4.8770    2.8700    2.3050 C   0  0  0  0  0  0  0  0  0  0  0  0
    3.5090    3.0020    2.5200 C   0  0  0  0  0  0  0  0  0  0  0  0
    2.6180    2.7820    1.4790 C   0  0  0  0  0  0  0  0  0  0  0  0
    1.1640    0.2510    0.2610 C   0  0  0  0  0  0  0  0  0  0  0  0
    1.8290    0.1830    1.3250 O   0  0  0  0  0  0  0  0  0  0  0  0
    0.5600   -0.3340   -2.3640 H   0  0  0  0  0  0  0  0  0  0  0  0
    1.1130    1.1450   -2.9160 H   0  0  0  0  0  0  0  0  0  0  0  0
    2.5730    0.2390   -1.3820 H   0  0  0  0  0  0  0  0  0  0  0  0
    1.1770    2.9030   -0.7290 H   0  0  0  0  0  0  0  0  0  0  0  0
    2.5640    2.5630   -1.8000 H   0  0  0  0  0  0  0  0  0  0  0  0
    4.7480    2.0290   -0.9770 H   0  0  0  0  0  0  0  0  0  0  0  0
    6.3780    2.4230    0.8970 H   0  0  0  0  0  0  0  0  0  0  0  0
    5.5820    3.0390    3.1100 H   0  0  0  0  0  0  0  0  0  0  0  0
    3.1500    3.2760    3.5040 H   0  0  0  0  0  0  0  0  0  0  0  0
    1.5540    2.8850    1.6250 H   0  0  0  0  0  0  0  0  0  0  0  0
   -0.9070    1.5580    3.5020 C   0  0  0  0  0  0  0  0  0  0  0  0
   -1.8250    1.3190    2.3220 C   0  0  0  0  0  0  0  0  0  0  0  0
   -1.9970   -0.1550    2.0380 C   0  0  2  0  0  0  0  0  0  0  0  0
   -2.5840   -0.8070    3.2700 C   0  0  0  0  0  0  0  0  0  0  0  0
   -0.7220   -0.8210    1.5950 C   0  0  2  0  0  0  0  0  0  0  0  0
   -0.1760   -0.2710    0.3900 N   0  0  0  0  0  0  0  0  0  0  0  0
   -0.9310   -2.2880    1.3730 C   0  0  0  0  0  0  0  0  0  0  0  0
   -1.4090   -3.0430    2.2610 O   0  0  0  0  0  0  0  0  0  0  0  0
   -1.4610    2.0680    4.3430 H   0  0  0  0  0  0  0  0  0  0  0  0
   -0.0340    2.1720    3.2490 H   0  0  0  0  0  0  0  0  0  0  0  0
   -0.5740    0.5810    3.9040 H   0  0  0  0  0  0  0  0  0  0  0  0
   -1.4290    1.8740    1.4580 H   0  0  0  0  0  0  0  0  0  0  0  0
   -2.8240    1.7130    2.5870 H   0  0  0  0  0  0  0  0  0  0  0  0
   -2.7380   -0.2040    1.1920 H   0  0  0  0  0  0  0  0  0  0  0  0
   -1.7810   -1.2090    3.9370 H   0  0  0  0  0  0  0  0  0  0  0  0
   -3.2230   -1.6550    2.9700 H   0  0  0  0  0  0  0  0  0  0  0  0
   -3.2050   -0.1040    3.8590 H   0  0  0  0  0  0  0  0  0  0  0  0
   -0.0090   -0.7670    2.4560 H   0  0  0  0  0  0  0  0  0  0  0  0
   -0.7720   -0.2360   -0.4680 H   0  0  0  0  0  0  0  0  0  0  0  0
   -3.6790   -4.5650   -2.6810 C   0  0  0  0  0  0  0  0  0  0  0  0
   -2.9810   -4.1260   -1.3770 C   0  0  0  0  0  0  0  0  0  0  0  0
   -3.0410   -2.6160   -1.4010 C   0  0  0  0  0  0  0  0  0  0  0  0
   -1.5770   -4.6250   -1.3540 C   0  0  0  0  0  0  0  0  0  0  0  0
   -0.7700   -4.2950   -0.1430 C   0  0  2  0  0  0  0  0  0  0  0  0
   -0.5890   -2.8960    0.1200 N   0  0  0  0  0  0  0  0  0  0  0  0
    0.5540   -4.9660   -0.3110 C   0  0  0  0  0  0  0  0  0  0  0  0
    1.5880   -4.2620   -0.2040 O   0  0  0  0  0  0  0  0  0  0  0  0
    0.5480   -6.3120   -0.5720 O   0  0  0  0  0  0  0  0  0  0  0  0
   -3.0440   -4.2730   -3.5310 H   0  0  0  0  0  0  0  0  0  0  0  0
   -4.6100   -3.9810   -2.7460 H   0  0  0  0  0  0  0  0  0  0  0  0
   -3.8790   -5.6370   -2.6910 H   0  0  0  0  0  0  0  0  0  0  0  0
   -3.5980   -4.4920   -0.5530 H   0  0  0  0  0  0  0  0  0  0  0  0
   -2.1510   -2.2400   -1.9330 H   0  0  0  0  0  0  0  0  0  0  0  0
   -3.1740   -2.1780   -0.3830 H   0  0  0  0  0  0  0  0  0  0  0  0
   -3.9130   -2.3040   -2.0530 H   0  0  0  0  0  0  0  0  0  0  0  0
   -1.6070   -5.7500   -1.4470 H   0  0  0  0  0  0  0  0  0  0  0  0
   -1.0530   -4.2980   -2.3040 H   0  0  0  0  0  0  0  0  0  0  0  0
   -1.2740   -4.7260    0.7530 H   0  0  0  0  0  0  0  0  0  0  0  0
   -0.1910   -2.2500   -0.5960 H   0  0  0  0  0  0  0  0  0  0  0  0
  1  2  1  0  0  0  0
  2 14  1  6  0  0  0
  2  3  1  0  0  0  0
  2 10  1  0  0  0  0
  3 15  1  0  0  0  0
  3  4  1  0  0  0  0
  4  9  1  0  0  0  0
  5  4  2  0  0  0  0
  5  6  1  0  0  0  0
  6  7  2  0  0  0  0
  7  8  1  0  0  0  0
  7 19  1  0  0  0  0
  8 20  1  0  0  0  0
  9 21  1  0  0  0  0
  9  8  2  0  0  0  0
 10 27  1  0  0  0  0
 10 11  2  0  0  0  0
 12  1  1  0  0  0  0
 13  1  1  0  0  0  0
 16  3  1  0  0  0  0
 17  5  1  0  0  0  0
 18  6  1  0  0  0  0
 22 32  1  0  0  0  0
 22 30  1  0  0  0  0
 23 34  1  0  0  0  0
 23 22  1  0  0  0  0
 24 35  1  6  0  0  0
 24 23  1  0  0  0  0
 24 25  1  0  0  0  0
 25 38  1  0  0  0  0
 25 36  1  0  0  0  0
 26 24  1  0  0  0  0
 26 39  1  1  0  0  0
 27 26  1  0  0  0  0
 28 26  1  0  0  0  0
 28 29  2  0  0  0  0
 31 22  1  0  0  0  0
 33 23  1  0  0  0  0
 37 25  1  0  0  0  0
 40 27  1  0  0  0  0
 41 42  1  0  0  0  0
 42 44  1  0  0  0  0
 42 53  1  0  0  0  0
 43 42  1  0  0  0  0
 43 55  1  0  0  0  0
 44 45  1  0  0  0  0
 45 46  1  0  0  0  0
 45 59  1  1  0  0  0
 46 28  1  0  0  0  0
 47 48  1  0  0  0  0
 47 45  1  0  0  0  0
 49 47  2  0  0  0  0
 50 41  1  0  0  0  0
 51 41  1  0  0  0  0
 52 41  1  0  0  0  0
 54 43  1  0  0  0  0
 56 43  1  0  0  0  0
 57 44  1  0  0  0  0
 58 44  1  0  0  0  0
 60 46  1  0  0  0  0
M  END
$$$$
