FIR.pdb
 OpenBabel07022418593D

 64 64  0  0  1  0  0  0  0  0999 V2000
    2.3120   -2.5650    0.0160 N   0  0  0  0  0  0  0  0  0  0  0  0
    2.5940   -1.5550    1.0230 C   0  0  1  0  0  0  0  0  0  0  0  0
    4.0010   -1.0430    0.8860 C   0  0  0  0  0  0  0  0  0  0  0  0
    4.3330   -0.0110    1.8900 C   0  0  0  0  0  0  0  0  0  0  0  0
    4.8160   -0.3880    3.1410 C   0  0  0  0  0  0  0  0  0  0  0  0
    5.1580    0.5280    4.1120 C   0  0  0  0  0  0  0  0  0  0  0  0
    5.0310    1.8790    3.8740 C   0  0  0  0  0  0  0  0  0  0  0  0
    4.5550    2.2720    2.6430 C   0  0  0  0  0  0  0  0  0  0  0  0
    4.2140    1.3550    1.6740 C   0  0  0  0  0  0  0  0  0  0  0  0
    1.6160   -0.4650    1.0110 C   0  0  0  0  0  0  0  0  0  0  0  0
    1.6610    0.4530    1.8490 O   0  0  0  0  0  0  0  0  0  0  0  0
    3.1450   -3.2100    0.0140 H   0  0  0  0  0  0  0  0  0  0  0  0
    1.5010   -3.1720    0.3040 H   0  0  0  0  0  0  0  0  0  0  0  0
    2.5390   -2.0970    2.0090 H   0  0  0  0  0  0  0  0  0  0  0  0
    4.6730   -1.9190    1.0700 H   0  0  0  0  0  0  0  0  0  0  0  0
    4.1690   -0.6390   -0.1340 H   0  0  0  0  0  0  0  0  0  0  0  0
    4.9240   -1.4400    3.3460 H   0  0  0  0  0  0  0  0  0  0  0  0
    5.5340    0.2250    5.0870 H   0  0  0  0  0  0  0  0  0  0  0  0
    5.2980    2.6250    4.6370 H   0  0  0  0  0  0  0  0  0  0  0  0
    4.4600    3.3370    2.4680 H   0  0  0  0  0  0  0  0  0  0  0  0
    3.8410    1.6590    0.7040 H   0  0  0  0  0  0  0  0  0  0  0  0
   -1.2730    3.5150   -0.0250 C   0  0  0  0  0  0  0  0  0  0  0  0
   -1.4400    2.5810   -1.1760 C   0  0  0  0  0  0  0  0  0  0  0  0
   -0.4320    1.4580   -1.2300 C   0  0  2  0  0  0  0  0  0  0  0  0
   -0.7860    0.6510   -2.4650 C   0  0  0  0  0  0  0  0  0  0  0  0
   -0.4190    0.6930    0.0290 C   0  0  2  0  0  0  0  0  0  0  0  0
    0.5520   -0.3900    0.0390 N   0  0  0  0  0  0  0  0  0  0  0  0
   -1.6850    0.1410    0.5270 C   0  0  0  0  0  0  0  0  0  0  0  0
   -2.7250    0.8340    0.6440 O   0  0  0  0  0  0  0  0  0  0  0  0
   -1.3260    4.5720   -0.4390 H   0  0  0  0  0  0  0  0  0  0  0  0
   -2.1200    3.4740    0.6860 H   0  0  0  0  0  0  0  0  0  0  0  0
   -0.2990    3.3860    0.4980 H   0  0  0  0  0  0  0  0  0  0  0  0
   -1.4290    3.1550   -2.1530 H   0  0  0  0  0  0  0  0  0  0  0  0
   -2.4530    2.1350   -1.1590 H   0  0  0  0  0  0  0  0  0  0  0  0
    0.6000    1.8620   -1.4300 H   0  0  0  0  0  0  0  0  0  0  0  0
   -1.8490    0.7030   -2.7050 H   0  0  0  0  0  0  0  0  0  0  0  0
   -0.2580    1.1060   -3.3560 H   0  0  0  0  0  0  0  0  0  0  0  0
   -0.4030   -0.3810   -2.4140 H   0  0  0  0  0  0  0  0  0  0  0  0
   -0.0280    1.4310    0.8240 H   0  0  0  0  0  0  0  0  0  0  0  0
    0.5360   -1.1520   -0.6520 H   0  0  0  0  0  0  0  0  0  0  0  0
   -2.6180   -1.7630   -3.6850 N   0  0  0  0  0  0  0  0  0  0  0  0
   -3.0590   -2.3380   -2.4800 C   0  0  0  0  0  0  0  0  0  0  0  0
   -4.3240   -2.3880   -2.2100 N   0  0  0  0  0  0  0  0  0  0  0  0
   -2.1200   -2.8740   -1.5440 N   0  0  0  0  0  0  0  0  0  0  0  0
   -2.4590   -4.0180   -0.7610 C   0  0  0  0  0  0  0  0  0  0  0  0
   -3.5060   -3.8840    0.2560 C   0  0  0  0  0  0  0  0  0  0  0  0
   -3.3950   -3.0680    1.4460 C   0  0  0  0  0  0  0  0  0  0  0  0
   -3.1290   -1.6400    1.4610 C   0  0  2  0  0  0  0  0  0  0  0  0
   -1.8540   -1.2400    0.9410 N   0  0  0  0  0  0  0  0  0  0  0  0
   -3.1690   -1.1550    2.9350 C   0  0  0  0  0  0  0  0  0  0  0  0
   -4.1930   -1.3890    3.5910 O   0  0  0  0  0  0  0  0  0  0  0  0
   -2.1050   -0.4970    3.4670 O   0  0  0  0  0  0  0  0  0  0  0  0
   -3.0590   -0.8860   -4.0210 H   0  0  0  0  0  0  0  0  0  0  0  0
   -1.8660   -2.1930   -4.2410 H   0  0  0  0  0  0  0  0  0  0  0  0
   -5.0210   -2.0030   -2.8800 H   0  0  0  0  0  0  0  0  0  0  0  0
   -1.2010   -2.4120   -1.4730 H   0  0  0  0  0  0  0  0  0  0  0  0
   -2.7130   -4.8590   -1.4710 H   0  0  0  0  0  0  0  0  0  0  0  0
   -1.5170   -4.3990   -0.2660 H   0  0  0  0  0  0  0  0  0  0  0  0
   -3.6820   -4.9720    0.6370 H   0  0  0  0  0  0  0  0  0  0  0  0
   -4.5200   -3.6470   -0.2250 H   0  0  0  0  0  0  0  0  0  0  0  0
   -2.6990   -3.5930    2.2370 H   0  0  0  0  0  0  0  0  0  0  0  0
   -4.3970   -3.2020    2.0120 H   0  0  0  0  0  0  0  0  0  0  0  0
   -3.9400   -0.9680    1.0360 H   0  0  0  0  0  0  0  0  0  0  0  0
   -1.0880   -1.9060    0.8660 H   0  0  0  0  0  0  0  0  0  0  0  0
  1 13  1  0  0  0  0
  1  2  1  0  0  0  0
  2 14  1  1  0  0  0
  3  2  1  0  0  0  0
  3 15  1  0  0  0  0
  3  4  1  0  0  0  0
  4  5  1  0  0  0  0
  5 17  1  0  0  0  0
  5  6  2  0  0  0  0
  6 18  1  0  0  0  0
  7  6  1  0  0  0  0
  7 19  1  0  0  0  0
  8  7  2  0  0  0  0
  9  4  2  0  0  0  0
  9  8  1  0  0  0  0
 10  2  1  0  0  0  0
 10 11  2  0  0  0  0
 12  1  1  0  0  0  0
 16  3  1  0  0  0  0
 20  8  1  0  0  0  0
 21  9  1  0  0  0  0
 22 32  1  0  0  0  0
 22 31  1  0  0  0  0
 23 34  1  0  0  0  0
 23 22  1  0  0  0  0
 24 35  1  6  0  0  0
 24 23  1  0  0  0  0
 24 26  1  0  0  0  0
 25 38  1  0  0  0  0
 25 24  1  0  0  0  0
 26 27  1  0  0  0  0
 26 28  1  0  0  0  0
 26 39  1  1  0  0  0
 27 10  1  0  0  0  0
 28 29  2  0  0  0  0
 28 49  1  0  0  0  0
 30 22  1  0  0  0  0
 33 23  1  0  0  0  0
 36 25  1  0  0  0  0
 37 25  1  0  0  0  0
 40 27  1  0  0  0  0
 41 42  1  0  0  0  0
 42 43  2  0  0  0  0
 42 44  1  0  0  0  0
 44 56  1  0  0  0  0
 44 45  1  0  0  0  0
 45 58  1  0  0  0  0
 45 46  1  0  0  0  0
 46 59  1  0  0  0  0
 46 47  1  0  0  0  0
 47 48  1  0  0  0  0
 47 62  1  0  0  0  0
 47 61  1  0  0  0  0
 48 63  1  6  0  0  0
 48 50  1  0  0  0  0
 49 48  1  0  0  0  0
 50 52  2  0  0  0  0
 50 51  1  0  0  0  0
 53 41  1  0  0  0  0
 54 41  1  0  0  0  0
 55 43  1  0  0  0  0
 57 45  1  0  0  0  0
 60 46  1  0  0  0  0
 64 49  1  0  0  0  0
M  END
$$$$
