FIT.pdb
 OpenBabel07022419003D

 55 55  0  0  1  0  0  0  0  0999 V2000
   -0.5380   -2.3590    3.8500 N   0  0  0  0  0  0  0  0  0  0  0  0
    0.5160   -2.0440    2.8730 C   0  0  1  0  0  0  0  0  0  0  0  0
    0.8750   -3.3210    2.2190 C   0  0  0  0  0  0  0  0  0  0  0  0
    1.9310   -3.2610    1.2020 C   0  0  0  0  0  0  0  0  0  0  0  0
    1.6910   -3.0930   -0.1430 C   0  0  0  0  0  0  0  0  0  0  0  0
    2.7540   -3.0430   -1.0180 C   0  0  0  0  0  0  0  0  0  0  0  0
    4.0680   -3.1610   -0.5590 C   0  0  0  0  0  0  0  0  0  0  0  0
    4.2990   -3.3280    0.7780 C   0  0  0  0  0  0  0  0  0  0  0  0
    3.2380   -3.3760    1.6390 C   0  0  0  0  0  0  0  0  0  0  0  0
   -0.0670   -1.0500    1.9250 C   0  0  0  0  0  0  0  0  0  0  0  0
    0.6200   -0.6890    0.9650 O   0  0  0  0  0  0  0  0  0  0  0  0
   -0.5150   -3.3560    4.1090 H   0  0  0  0  0  0  0  0  0  0  0  0
   -0.5360   -1.6970    4.6460 H   0  0  0  0  0  0  0  0  0  0  0  0
    1.3900   -1.5810    3.4060 H   0  0  0  0  0  0  0  0  0  0  0  0
    1.1910   -4.0870    2.9710 H   0  0  0  0  0  0  0  0  0  0  0  0
   -0.0440   -3.7170    1.6860 H   0  0  0  0  0  0  0  0  0  0  0  0
    0.6760   -3.0070   -0.5030 H   0  0  0  0  0  0  0  0  0  0  0  0
    2.6520   -2.9160   -2.0750 H   0  0  0  0  0  0  0  0  0  0  0  0
    4.8970   -3.1220   -1.2400 H   0  0  0  0  0  0  0  0  0  0  0  0
    5.3170   -3.4230    1.1650 H   0  0  0  0  0  0  0  0  0  0  0  0
    3.4390   -3.5120    2.7150 H   0  0  0  0  0  0  0  0  0  0  0  0
   -0.0090    3.5790    2.2100 C   0  0  0  0  0  0  0  0  0  0  0  0
   -0.2990    2.1540    1.7920 C   0  0  0  0  0  0  0  0  0  0  0  0
   -1.7490    1.8240    1.8120 C   0  0  2  0  0  0  0  0  0  0  0  0
   -2.3900    1.9670    3.1580 C   0  0  0  0  0  0  0  0  0  0  0  0
   -2.0270    0.4170    1.3040 C   0  0  2  0  0  0  0  0  0  0  0  0
   -1.3600   -0.5210    2.1020 N   0  0  0  0  0  0  0  0  0  0  0  0
   -2.0300    0.3110   -0.1450 C   0  0  0  0  0  0  0  0  0  0  0  0
   -2.4840    1.3600   -0.7620 O   0  0  0  0  0  0  0  0  0  0  0  0
   -0.9040    4.2160    2.2260 H   0  0  0  0  0  0  0  0  0  0  0  0
    0.4460    3.6390    3.2220 H   0  0  0  0  0  0  0  0  0  0  0  0
    0.7240    4.0750    1.5280 H   0  0  0  0  0  0  0  0  0  0  0  0
    0.2690    1.5080    2.5050 H   0  0  0  0  0  0  0  0  0  0  0  0
    0.1220    1.9940    0.7830 H   0  0  0  0  0  0  0  0  0  0  0  0
   -2.3210    2.5290    1.1330 H   0  0  0  0  0  0  0  0  0  0  0  0
   -3.2370    1.2530    3.2140 H   0  0  0  0  0  0  0  0  0  0  0  0
   -2.8440    2.9780    3.2960 H   0  0  0  0  0  0  0  0  0  0  0  0
   -1.6950    1.7090    3.9780 H   0  0  0  0  0  0  0  0  0  0  0  0
   -3.1760    0.2230    1.5370 H   0  0  0  0  0  0  0  0  0  0  0  0
   -1.8660   -0.8990    2.9640 H   0  0  0  0  0  0  0  0  0  0  0  0
    0.4400    0.5130   -2.9350 C   0  0  0  0  0  0  0  0  0  0  0  0
   -0.4140   -0.7180   -3.1470 C   0  0  1  0  0  0  0  0  0  0  0  0
    0.2660   -1.8860   -2.9260 O   0  0  0  0  0  0  0  0  0  0  0  0
   -1.7100   -0.6670   -2.4290 C   0  0  2  0  0  0  0  0  0  0  0  0
   -1.6240   -0.7530   -0.9790 N   0  0  0  0  0  0  0  0  0  0  0  0
   -2.5970   -1.7270   -2.9510 C   0  0  0  0  0  0  0  0  0  0  0  0
   -3.1400   -2.5280   -2.1620 O   0  0  0  0  0  0  0  0  0  0  0  0
   -2.8410   -1.8550   -4.3020 O   0  0  0  0  0  0  0  0  0  0  0  0
    1.4690    0.2620   -3.2170 H   0  0  0  0  0  0  0  0  0  0  0  0
    0.0600    1.3160   -3.5700 H   0  0  0  0  0  0  0  0  0  0  0  0
    0.4410    0.8540   -1.8870 H   0  0  0  0  0  0  0  0  0  0  0  0
   -0.6610   -0.7080   -4.2520 H   0  0  0  0  0  0  0  0  0  0  0  0
    0.8120   -2.1930   -3.6690 H   0  0  0  0  0  0  0  0  0  0  0  0
   -2.1760    0.3310   -2.6780 H   0  0  0  0  0  0  0  0  0  0  0  0
   -1.2750   -1.6300   -0.5510 H   0  0  0  0  0  0  0  0  0  0  0  0
  1 12  1  0  0  0  0
  1 13  1  0  0  0  0
  2 14  1  1  0  0  0
  2  1  1  0  0  0  0
  3  2  1  0  0  0  0
  3 15  1  0  0  0  0
  4  9  1  0  0  0  0
  4  3  1  0  0  0  0
  5  4  2  0  0  0  0
  6  7  2  0  0  0  0
  6  5  1  0  0  0  0
  7  8  1  0  0  0  0
  8 20  1  0  0  0  0
  8  9  2  0  0  0  0
  9 21  1  0  0  0  0
 10 27  1  0  0  0  0
 10  2  1  0  0  0  0
 11 10  2  0  0  0  0
 16  3  1  0  0  0  0
 17  5  1  0  0  0  0
 18  6  1  0  0  0  0
 19  7  1  0  0  0  0
 22 30  1  0  0  0  0
 22 31  1  0  0  0  0
 23 24  1  0  0  0  0
 23 22  1  0  0  0  0
 23 33  1  0  0  0  0
 24 35  1  6  0  0  0
 24 25  1  0  0  0  0
 25 36  1  0  0  0  0
 25 37  1  0  0  0  0
 25 38  1  0  0  0  0
 26 39  1  1  0  0  0
 26 24  1  0  0  0  0
 26 27  1  0  0  0  0
 27 40  1  0  0  0  0
 28 26  1  0  0  0  0
 29 28  2  0  0  0  0
 32 22  1  0  0  0  0
 34 23  1  0  0  0  0
 41 51  1  0  0  0  0
 42 52  1  6  0  0  0
 42 41  1  0  0  0  0
 42 43  1  0  0  0  0
 42 44  1  0  0  0  0
 44 54  1  6  0  0  0
 44 45  1  0  0  0  0
 45 55  1  0  0  0  0
 45 28  1  0  0  0  0
 46 44  1  0  0  0  0
 46 47  1  0  0  0  0
 48 46  2  0  0  0  0
 49 41  1  0  0  0  0
 50 41  1  0  0  0  0
 53 43  1  0  0  0  0
M  END
$$$$
