FIW.pdb
 OpenBabel07022419003D

 65 67  0  0  1  0  0  0  0  0999 V2000
    2.6060   -5.0710    1.6230 N   0  0  0  0  0  0  0  0  0  0  0  0
    1.8930   -3.8220    1.8610 C   0  0  1  0  0  0  0  0  0  0  0  0
    2.8460   -2.7890    2.3160 C   0  0  0  0  0  0  0  0  0  0  0  0
    3.9570   -2.4550    1.4340 C   0  0  0  0  0  0  0  0  0  0  0  0
    5.1410   -3.1610    1.4840 C   0  0  0  0  0  0  0  0  0  0  0  0
    6.2060   -2.8390    0.6690 C   0  0  0  0  0  0  0  0  0  0  0  0
    6.0750   -1.7810   -0.2190 C   0  0  0  0  0  0  0  0  0  0  0  0
    4.9020   -1.0690   -0.2800 C   0  0  0  0  0  0  0  0  0  0  0  0
    3.8560   -1.4130    0.5480 C   0  0  0  0  0  0  0  0  0  0  0  0
    0.9880   -3.5030    0.7620 C   0  0  0  0  0  0  0  0  0  0  0  0
    1.0510   -4.2190   -0.2890 O   0  0  0  0  0  0  0  0  0  0  0  0
    2.8850   -5.5590    2.4850 H   0  0  0  0  0  0  0  0  0  0  0  0
    2.0940   -5.6750    0.9480 H   0  0  0  0  0  0  0  0  0  0  0  0
    1.2640   -4.0740    2.7970 H   0  0  0  0  0  0  0  0  0  0  0  0
    2.2890   -1.8740    2.6080 H   0  0  0  0  0  0  0  0  0  0  0  0
    3.3070   -3.1750    3.2770 H   0  0  0  0  0  0  0  0  0  0  0  0
    5.3010   -4.0030    2.1630 H   0  0  0  0  0  0  0  0  0  0  0  0
    7.1550   -3.3720    0.6780 H   0  0  0  0  0  0  0  0  0  0  0  0
    6.8980   -1.4910   -0.8820 H   0  0  0  0  0  0  0  0  0  0  0  0
    4.8300   -0.2380   -0.9870 H   0  0  0  0  0  0  0  0  0  0  0  0
    2.9420   -0.8080    0.4580 H   0  0  0  0  0  0  0  0  0  0  0  0
   -4.0430   -1.3630   -1.0260 C   0  0  0  0  0  0  0  0  0  0  0  0
   -3.3330   -2.6620   -0.9210 C   0  0  0  0  0  0  0  0  0  0  0  0
   -2.2030   -2.7680    0.0250 C   0  0  2  0  0  0  0  0  0  0  0  0
   -2.5390   -2.4780    1.4690 C   0  0  0  0  0  0  0  0  0  0  0  0
   -0.8680   -2.2250   -0.3820 C   0  0  2  0  0  0  0  0  0  0  0  0
    0.0220   -2.4680    0.7400 N   0  0  0  0  0  0  0  0  0  0  0  0
   -0.7870   -0.8710   -0.8340 C   0  0  0  0  0  0  0  0  0  0  0  0
   -1.4220   -0.3490   -1.7950 O   0  0  0  0  0  0  0  0  0  0  0  0
   -5.1520   -1.4550   -0.7910 H   0  0  0  0  0  0  0  0  0  0  0  0
   -3.7120   -0.5590   -0.3490 H   0  0  0  0  0  0  0  0  0  0  0  0
   -4.0520   -1.0140   -2.0820 H   0  0  0  0  0  0  0  0  0  0  0  0
   -4.1130   -3.4270   -0.6220 H   0  0  0  0  0  0  0  0  0  0  0  0
   -2.9790   -3.0600   -1.9080 H   0  0  0  0  0  0  0  0  0  0  0  0
   -2.0100   -3.9060    0.0750 H   0  0  0  0  0  0  0  0  0  0  0  0
   -2.0030   -3.1370    2.1630 H   0  0  0  0  0  0  0  0  0  0  0  0
   -2.3150   -1.4370    1.7650 H   0  0  0  0  0  0  0  0  0  0  0  0
   -3.6270   -2.6360    1.6760 H   0  0  0  0  0  0  0  0  0  0  0  0
   -0.4560   -2.8970   -1.2060 H   0  0  0  0  0  0  0  0  0  0  0  0
   -0.0240   -1.8700    1.5910 H   0  0  0  0  0  0  0  0  0  0  0  0
    0.0750    0.0650   -0.1930 N   0  0  0  0  0  0  0  0  0  0  0  0
    0.1970    1.4540   -0.6050 C   0  0  1  0  0  0  0  0  0  0  0  0
    0.0760    2.4420    0.5020 C   0  0  0  0  0  0  0  0  0  0  0  0
   -1.2240    2.3890    1.2050 C   0  0  0  0  0  0  0  0  0  0  0  0
   -1.5250    1.8480    2.4180 C   0  0  0  0  0  0  0  0  0  0  0  0
   -2.8460    2.0440    2.6310 N   0  0  0  0  0  0  0  0  0  0  0  0
   -3.3830    2.6930    1.5810 C   0  0  0  0  0  0  0  0  0  0  0  0
   -4.6540    3.1440    1.2660 C   0  0  0  0  0  0  0  0  0  0  0  0
   -4.9280    3.7990    0.0890 C   0  0  0  0  0  0  0  0  0  0  0  0
   -3.9230    4.0350   -0.8380 C   0  0  0  0  0  0  0  0  0  0  0  0
   -2.6620    3.5880   -0.5250 C   0  0  0  0  0  0  0  0  0  0  0  0
   -2.3810    2.9210    0.6720 C   0  0  0  0  0  0  0  0  0  0  0  0
    1.4500    1.7150   -1.3700 C   0  0  0  0  0  0  0  0  0  0  0  0
    1.6430    2.9070   -1.7320 O   0  0  0  0  0  0  0  0  0  0  0  0
    2.3770    0.7530   -1.6920 O   0  0  0  0  0  0  0  0  0  0  0  0
    0.6590   -0.2260    0.6230 H   0  0  0  0  0  0  0  0  0  0  0  0
   -0.6190    1.6240   -1.3710 H   0  0  0  0  0  0  0  0  0  0  0  0
    0.1710    3.4670    0.0550 H   0  0  0  0  0  0  0  0  0  0  0  0
    0.9180    2.3520    1.2120 H   0  0  0  0  0  0  0  0  0  0  0  0
   -0.8420    1.3490    3.1040 H   0  0  0  0  0  0  0  0  0  0  0  0
   -3.4130    1.7500    3.4740 H   0  0  0  0  0  0  0  0  0  0  0  0
   -5.4330    2.9500    2.0020 H   0  0  0  0  0  0  0  0  0  0  0  0
   -5.9270    4.1450   -0.1400 H   0  0  0  0  0  0  0  0  0  0  0  0
   -4.1830    4.5540   -1.7450 H   0  0  0  0  0  0  0  0  0  0  0  0
   -1.8690    3.7530   -1.2180 H   0  0  0  0  0  0  0  0  0  0  0  0
  1  2  1  0  0  0  0
  1 12  1  0  0  0  0
  2  3  1  0  0  0  0
  2 14  1  1  0  0  0
  3 15  1  0  0  0  0
  3 16  1  0  0  0  0
  4  5  1  0  0  0  0
  4  3  1  0  0  0  0
  5 17  1  0  0  0  0
  6 18  1  0  0  0  0
  6  5  2  0  0  0  0
  7  6  1  0  0  0  0
  8  7  2  0  0  0  0
  8  9  1  0  0  0  0
  9  4  2  0  0  0  0
 10  2  1  0  0  0  0
 11 10  2  0  0  0  0
 13  1  1  0  0  0  0
 19  7  1  0  0  0  0
 20  8  1  0  0  0  0
 21  9  1  0  0  0  0
 22 23  1  0  0  0  0
 22 30  1  0  0  0  0
 22 31  1  0  0  0  0
 23 33  1  0  0  0  0
 23 24  1  0  0  0  0
 24 35  1  1  0  0  0
 24 25  1  0  0  0  0
 25 38  1  0  0  0  0
 25 37  1  0  0  0  0
 25 36  1  0  0  0  0
 26 39  1  6  0  0  0
 26 24  1  0  0  0  0
 26 27  1  0  0  0  0
 27 10  1  0  0  0  0
 27 40  1  0  0  0  0
 28 26  1  0  0  0  0
 28 41  1  0  0  0  0
 29 28  2  0  0  0  0
 32 22  1  0  0  0  0
 34 23  1  0  0  0  0
 41 56  1  0  0  0  0
 42 57  1  6  0  0  0
 42 41  1  0  0  0  0
 42 43  1  0  0  0  0
 43 44  1  0  0  0  0
 43 59  1  0  0  0  0
 44 45  2  0  0  0  0
 45 46  1  0  0  0  0
 45 60  1  0  0  0  0
 46 61  1  0  0  0  0
 47 46  1  0  0  0  0
 48 47  1  0  0  0  0
 48 62  1  0  0  0  0
 49 48  2  0  0  0  0
 50 51  2  0  0  0  0
 50 49  1  0  0  0  0
 51 52  1  0  0  0  0
 52 44  1  0  0  0  0
 52 47  2  0  0  0  0
 53 42  1  0  0  0  0
 54 53  2  0  0  0  0
 55 53  1  0  0  0  0
 58 43  1  0  0  0  0
 63 49  1  0  0  0  0
 64 50  1  0  0  0  0
 65 51  1  0  0  0  0
M  END
$$$$
