FKD.pdb
 OpenBabel07022419003D

 56 56  0  0  1  0  0  0  0  0999 V2000
    2.4180   -0.7800   -2.8240 N   0  0  0  0  0  0  0  0  0  0  0  0
    2.3960   -0.8550   -1.3570 C   0  0  1  0  0  0  0  0  0  0  0  0
    3.4970    0.0070   -0.8050 C   0  0  0  0  0  0  0  0  0  0  0  0
    3.5070   -0.0230    0.6650 C   0  0  0  0  0  0  0  0  0  0  0  0
    4.1780   -0.9980    1.3650 C   0  0  0  0  0  0  0  0  0  0  0  0
    4.2180   -1.0260    2.7330 C   0  0  0  0  0  0  0  0  0  0  0  0
    3.5810   -0.0700    3.4810 C   0  0  0  0  0  0  0  0  0  0  0  0
    2.8930    0.9290    2.8050 C   0  0  0  0  0  0  0  0  0  0  0  0
    2.8610    0.9470    1.4270 C   0  0  0  0  0  0  0  0  0  0  0  0
    1.0620   -0.4670   -0.8380 C   0  0  0  0  0  0  0  0  0  0  0  0
    0.2830    0.1940   -1.6120 O   0  0  0  0  0  0  0  0  0  0  0  0
    3.4220   -0.5540   -3.0880 H   0  0  0  0  0  0  0  0  0  0  0  0
    2.2050   -1.7090   -3.2330 H   0  0  0  0  0  0  0  0  0  0  0  0
    2.6150   -1.9090   -1.1020 H   0  0  0  0  0  0  0  0  0  0  0  0
    3.3160    1.0660   -1.1400 H   0  0  0  0  0  0  0  0  0  0  0  0
    4.4920   -0.3000   -1.2190 H   0  0  0  0  0  0  0  0  0  0  0  0
    4.6910   -1.7670    0.7980 H   0  0  0  0  0  0  0  0  0  0  0  0
    4.7610   -1.8150    3.2580 H   0  0  0  0  0  0  0  0  0  0  0  0
    3.6210   -0.1060    4.5500 H   0  0  0  0  0  0  0  0  0  0  0  0
    2.3840    1.6940    3.4020 H   0  0  0  0  0  0  0  0  0  0  0  0
    2.3270    1.7230    0.8860 H   0  0  0  0  0  0  0  0  0  0  0  0
    0.6320   -0.8070    0.4720 N   0  0  0  0  0  0  0  0  0  0  0  0
   -0.6960   -0.4150    0.9890 C   0  0  1  0  0  0  0  0  0  0  0  0
   -0.8160    1.0590    1.0590 C   0  0  0  0  0  0  0  0  0  0  0  0
   -2.0370    1.7240    1.5320 C   0  0  0  0  0  0  0  0  0  0  0  0
   -2.4810    1.5410    2.9200 C   0  0  0  0  0  0  0  0  0  0  0  0
   -2.9140    0.2420    3.4500 C   0  0  0  0  0  0  0  0  0  0  0  0
   -3.3260    0.3770    4.8770 N   0  0  0  0  0  0  0  0  0  0  0  0
   -1.7610   -1.0900    0.2430 C   0  0  0  0  0  0  0  0  0  0  0  0
   -2.9580   -0.8190    0.4780 O   0  0  0  0  0  0  0  0  0  0  0  0
    1.2900   -1.3620    1.0550 H   0  0  0  0  0  0  0  0  0  0  0  0
   -0.6850   -0.8350    2.0160 H   0  0  0  0  0  0  0  0  0  0  0  0
   -0.4560    1.5430    0.0790 H   0  0  0  0  0  0  0  0  0  0  0  0
    0.0210    1.3750    1.7990 H   0  0  0  0  0  0  0  0  0  0  0  0
   -2.9090    1.4770    0.8040 H   0  0  0  0  0  0  0  0  0  0  0  0
   -1.8910    2.8440    1.3030 H   0  0  0  0  0  0  0  0  0  0  0  0
   -1.6440    1.8950    3.6380 H   0  0  0  0  0  0  0  0  0  0  0  0
   -3.2680    2.3540    3.1710 H   0  0  0  0  0  0  0  0  0  0  0  0
   -2.3110   -0.6330    3.3420 H   0  0  0  0  0  0  0  0  0  0  0  0
   -3.9040   -0.0040    2.9420 H   0  0  0  0  0  0  0  0  0  0  0  0
   -2.4880    0.1170    5.4580 H   0  0  0  0  0  0  0  0  0  0  0  0
   -4.0370   -0.3850    5.0760 H   0  0  0  0  0  0  0  0  0  0  0  0
   -1.5460   -2.0780   -0.7770 N   0  0  0  0  0  0  0  0  0  0  0  0
   -2.6460   -2.7010   -1.4720 C   0  0  1  0  0  0  0  0  0  0  0  0
   -2.6010   -2.3040   -2.9260 C   0  0  0  0  0  0  0  0  0  0  0  0
   -1.3460   -2.7400   -3.5710 C   0  0  0  0  0  0  0  0  0  0  0  0
   -0.4460   -3.3870   -2.9890 O   0  0  0  0  0  0  0  0  0  0  0  0
   -2.6090   -4.1870   -1.3370 C   0  0  0  0  0  0  0  0  0  0  0  0
   -1.6840   -4.7170   -0.6730 O   0  0  0  0  0  0  0  0  0  0  0  0
   -1.1420   -2.4190   -4.9060 O   0  0  0  0  0  0  0  0  0  0  0  0
   -3.5620   -4.9850   -1.9200 O   0  0  0  0  0  0  0  0  0  0  0  0
   -0.5520   -2.3110   -0.9630 H   0  0  0  0  0  0  0  0  0  0  0  0
   -3.6320   -2.3270   -1.0930 H   0  0  0  0  0  0  0  0  0  0  0  0
   -3.5030   -2.6880   -3.4620 H   0  0  0  0  0  0  0  0  0  0  0  0
   -2.6450   -1.1770   -2.9330 H   0  0  0  0  0  0  0  0  0  0  0  0
   -0.4140   -2.9080   -5.4500 H   0  0  0  0  0  0  0  0  0  0  0  0
  1  2  1  0  0  0  0
  2 14  1  1  0  0  0
  2 10  1  0  0  0  0
  2  3  1  0  0  0  0
  3  4  1  0  0  0  0
  4  5  2  0  0  0  0
  4  9  1  0  0  0  0
  5  6  1  0  0  0  0
  6 18  1  0  0  0  0
  6  7  2  0  0  0  0
  7 19  1  0  0  0  0
  8 20  1  0  0  0  0
  8  7  1  0  0  0  0
  9  8  2  0  0  0  0
 10 22  1  0  0  0  0
 11 10  2  0  0  0  0
 12  1  1  0  0  0  0
 13  1  1  0  0  0  0
 15  3  1  0  0  0  0
 16  3  1  0  0  0  0
 17  5  1  0  0  0  0
 21  9  1  0  0  0  0
 22 23  1  0  0  0  0
 22 31  1  0  0  0  0
 23 24  1  0  0  0  0
 23 32  1  1  0  0  0
 24 25  1  0  0  0  0
 24 34  1  0  0  0  0
 25 26  1  0  0  0  0
 26 38  1  0  0  0  0
 26 27  1  0  0  0  0
 26 37  1  0  0  0  0
 27 28  1  0  0  0  0
 28 42  1  0  0  0  0
 28 41  1  0  0  0  0
 29 30  2  0  0  0  0
 29 23  1  0  0  0  0
 33 24  1  0  0  0  0
 35 25  1  0  0  0  0
 36 25  1  0  0  0  0
 39 27  1  0  0  0  0
 40 27  1  0  0  0  0
 43 29  1  0  0  0  0
 44 48  1  0  0  0  0
 44 53  1  1  0  0  0
 44 43  1  0  0  0  0
 45 44  1  0  0  0  0
 46 47  2  0  0  0  0
 46 45  1  0  0  0  0
 48 49  1  0  0  0  0
 50 46  1  0  0  0  0
 51 48  2  0  0  0  0
 52 43  1  0  0  0  0
 54 45  1  0  0  0  0
 55 45  1  0  0  0  0
 56 50  1  0  0  0  0
M  END
$$$$
