FKI.pdb
 OpenBabel07022419003D

 62 62  0  0  1  0  0  0  0  0999 V2000
    2.8880   -0.6080    4.2020 N   0  0  0  0  0  0  0  0  0  0  0  0
    2.6370    0.0130    2.9330 C   0  0  1  0  0  0  0  0  0  0  0  0
    3.5450   -0.5500    1.8830 C   0  0  0  0  0  0  0  0  0  0  0  0
    4.9510   -0.2640    2.3370 C   0  0  0  0  0  0  0  0  0  0  0  0
    5.6550   -1.1460    3.1300 C   0  0  0  0  0  0  0  0  0  0  0  0
    6.9440   -0.8940    3.5520 C   0  0  0  0  0  0  0  0  0  0  0  0
    7.5300    0.2910    3.1520 C   0  0  0  0  0  0  0  0  0  0  0  0
    6.8360    1.1620    2.3690 C   0  0  0  0  0  0  0  0  0  0  0  0
    5.5660    0.9080    1.9570 C   0  0  0  0  0  0  0  0  0  0  0  0
    1.2000   -0.0980    2.5760 C   0  0  0  0  0  0  0  0  0  0  0  0
    0.3820   -0.6960    3.3190 O   0  0  0  0  0  0  0  0  0  0  0  0
    3.4120    0.0380    4.8440 H   0  0  0  0  0  0  0  0  0  0  0  0
    2.0110   -0.9590    4.6520 H   0  0  0  0  0  0  0  0  0  0  0  0
    2.8660    1.0980    3.0200 H   0  0  0  0  0  0  0  0  0  0  0  0
    3.3430   -0.1020    0.9090 H   0  0  0  0  0  0  0  0  0  0  0  0
    3.4800   -1.6450    1.7850 H   0  0  0  0  0  0  0  0  0  0  0  0
    5.2060   -2.0780    3.4500 H   0  0  0  0  0  0  0  0  0  0  0  0
    7.5100   -1.5730    4.1750 H   0  0  0  0  0  0  0  0  0  0  0  0
    8.5440    0.5150    3.4690 H   0  0  0  0  0  0  0  0  0  0  0  0
    7.3090    2.0850    2.0650 H   0  0  0  0  0  0  0  0  0  0  0  0
    4.9840    1.5810    1.3310 H   0  0  0  0  0  0  0  0  0  0  0  0
    0.6350    0.4350    1.4140 N   0  0  0  0  0  0  0  0  0  0  0  0
   -0.7640    0.3520    1.0210 C   0  0  1  0  0  0  0  0  0  0  0  0
   -1.4380    1.6470    0.9010 C   0  0  0  0  0  0  0  0  0  0  0  0
   -2.8780    1.5710    0.5130 C   0  0  0  0  0  0  0  0  0  0  0  0
   -3.6700    0.7600    1.5370 C   0  0  0  0  0  0  0  0  0  0  0  0
   -5.1420    0.6990    1.1120 C   0  0  0  0  0  0  0  0  0  0  0  0
   -5.9260   -0.0530    2.0430 N   0  0  0  0  0  0  0  0  0  0  0  0
   -0.7220   -0.3230   -0.3030 C   0  0  0  0  0  0  0  0  0  0  0  0
    0.4010   -0.4280   -0.9110 O   0  0  0  0  0  0  0  0  0  0  0  0
    1.2350    0.9460    0.7380 H   0  0  0  0  0  0  0  0  0  0  0  0
   -1.2390   -0.2390    1.8200 H   0  0  0  0  0  0  0  0  0  0  0  0
   -0.9390    2.2540    0.0830 H   0  0  0  0  0  0  0  0  0  0  0  0
   -1.4040    2.3150    1.7760 H   0  0  0  0  0  0  0  0  0  0  0  0
   -3.1050    1.3470   -0.5210 H   0  0  0  0  0  0  0  0  0  0  0  0
   -3.3170    2.6320    0.6490 H   0  0  0  0  0  0  0  0  0  0  0  0
   -3.2700   -0.2630    1.6700 H   0  0  0  0  0  0  0  0  0  0  0  0
   -3.6560    1.2500    2.5290 H   0  0  0  0  0  0  0  0  0  0  0  0
   -5.2430    0.2640    0.1110 H   0  0  0  0  0  0  0  0  0  0  0  0
   -5.5620    1.7230    1.0650 H   0  0  0  0  0  0  0  0  0  0  0  0
   -5.9340    0.3530    3.0060 H   0  0  0  0  0  0  0  0  0  0  0  0
   -5.4740   -1.0060    2.1600 H   0  0  0  0  0  0  0  0  0  0  0  0
   -3.0740   -3.8310   -4.2880 C   0  0  0  0  0  0  0  0  0  0  0  0
   -1.8890   -3.8720   -3.3690 C   0  0  0  0  0  0  0  0  0  0  0  0
   -1.9140   -2.9900   -2.1940 C   0  0  2  0  0  0  0  0  0  0  0  0
   -3.1120   -3.2630   -1.3070 C   0  0  0  0  0  0  0  0  0  0  0  0
   -1.6890   -1.5370   -2.3180 C   0  0  2  0  0  0  0  0  0  0  0  0
   -1.7830   -0.8840   -0.9960 N   0  0  0  0  0  0  0  0  0  0  0  0
   -2.3510   -0.7810   -3.3550 C   0  0  0  0  0  0  0  0  0  0  0  0
   -3.0240    0.2860   -3.0650 O   0  0  0  0  0  0  0  0  0  0  0  0
   -2.3910   -1.0150   -4.7170 O   0  0  0  0  0  0  0  0  0  0  0  0
   -3.5820   -4.8270   -4.3650 H   0  0  0  0  0  0  0  0  0  0  0  0
   -2.7930   -3.5990   -5.3360 H   0  0  0  0  0  0  0  0  0  0  0  0
   -3.8770   -3.1380   -3.9990 H   0  0  0  0  0  0  0  0  0  0  0  0
   -1.8390   -4.9450   -3.0020 H   0  0  0  0  0  0  0  0  0  0  0  0
   -0.9580   -3.8020   -3.9790 H   0  0  0  0  0  0  0  0  0  0  0  0
   -1.0570   -3.4230   -1.5150 H   0  0  0  0  0  0  0  0  0  0  0  0
   -2.8530   -2.9040   -0.2880 H   0  0  0  0  0  0  0  0  0  0  0  0
   -4.0170   -2.7310   -1.6640 H   0  0  0  0  0  0  0  0  0  0  0  0
   -3.2900   -4.3600   -1.2000 H   0  0  0  0  0  0  0  0  0  0  0  0
   -0.5780   -1.4320   -2.5440 H   0  0  0  0  0  0  0  0  0  0  0  0
   -2.7330   -0.8900   -0.5830 H   0  0  0  0  0  0  0  0  0  0  0  0
  1 13  1  0  0  0  0
  1 12  1  0  0  0  0
  2 14  1  1  0  0  0
  2  1  1  0  0  0  0
  3  4  1  0  0  0  0
  3  2  1  0  0  0  0
  4  5  1  0  0  0  0
  5 17  1  0  0  0  0
  5  6  2  0  0  0  0
  6 18  1  0  0  0  0
  7 19  1  0  0  0  0
  7  6  1  0  0  0  0
  8  7  2  0  0  0  0
  9  4  2  0  0  0  0
  9  8  1  0  0  0  0
 10  2  1  0  0  0  0
 10 11  2  0  0  0  0
 15  3  1  0  0  0  0
 16  3  1  0  0  0  0
 20  8  1  0  0  0  0
 21  9  1  0  0  0  0
 22 10  1  0  0  0  0
 23 22  1  0  0  0  0
 23 32  1  1  0  0  0
 24 23  1  0  0  0  0
 24 34  1  0  0  0  0
 25 36  1  0  0  0  0
 25 24  1  0  0  0  0
 25 26  1  0  0  0  0
 26 37  1  0  0  0  0
 26 38  1  0  0  0  0
 27 26  1  0  0  0  0
 27 28  1  0  0  0  0
 28 42  1  0  0  0  0
 28 41  1  0  0  0  0
 29 23  1  0  0  0  0
 30 29  2  0  0  0  0
 31 22  1  0  0  0  0
 33 24  1  0  0  0  0
 35 25  1  0  0  0  0
 39 27  1  0  0  0  0
 40 27  1  0  0  0  0
 43 54  1  0  0  0  0
 43 44  1  0  0  0  0
 44 55  1  0  0  0  0
 44 45  1  0  0  0  0
 45 57  1  1  0  0  0
 45 46  1  0  0  0  0
 46 60  1  0  0  0  0
 46 58  1  0  0  0  0
 47 61  1  6  0  0  0
 47 45  1  0  0  0  0
 47 48  1  0  0  0  0
 48 62  1  0  0  0  0
 48 29  1  0  0  0  0
 49 50  1  0  0  0  0
 49 47  1  0  0  0  0
 51 49  2  0  0  0  0
 52 43  1  0  0  0  0
 53 43  1  0  0  0  0
 56 44  1  0  0  0  0
 59 46  1  0  0  0  0
M  END
$$$$
