FKQ.pdb
 OpenBabel07022419003D

 60 60  0  0  1  0  0  0  0  0999 V2000
    3.0830    0.1520   -0.2070 N   0  0  0  0  0  0  0  0  0  0  0  0
    2.9390   -0.2850    1.1910 C   0  0  1  0  0  0  0  0  0  0  0  0
    3.6010    0.6950    2.1150 C   0  0  0  0  0  0  0  0  0  0  0  0
    3.4800    0.2980    3.5170 C   0  0  0  0  0  0  0  0  0  0  0  0
    4.4200   -0.5500    4.0690 C   0  0  0  0  0  0  0  0  0  0  0  0
    4.2960   -0.9020    5.4120 C   0  0  0  0  0  0  0  0  0  0  0  0
    3.2570   -0.4150    6.1770 C   0  0  0  0  0  0  0  0  0  0  0  0
    2.3200    0.4310    5.6270 C   0  0  0  0  0  0  0  0  0  0  0  0
    2.4310    0.7920    4.2840 C   0  0  0  0  0  0  0  0  0  0  0  0
    1.5220   -0.4930    1.5260 C   0  0  0  0  0  0  0  0  0  0  0  0
    1.2040   -0.9670    2.6370 O   0  0  0  0  0  0  0  0  0  0  0  0
    2.6100    1.0440   -0.3890 H   0  0  0  0  0  0  0  0  0  0  0  0
    2.8500   -0.6200   -0.8610 H   0  0  0  0  0  0  0  0  0  0  0  0
    3.4560   -1.2650    1.2390 H   0  0  0  0  0  0  0  0  0  0  0  0
    4.6900    0.6880    1.8620 H   0  0  0  0  0  0  0  0  0  0  0  0
    3.2490    1.7380    1.9530 H   0  0  0  0  0  0  0  0  0  0  0  0
    5.2270   -0.9260    3.4670 H   0  0  0  0  0  0  0  0  0  0  0  0
    5.0220   -1.5650    5.8630 H   0  0  0  0  0  0  0  0  0  0  0  0
    3.1810   -0.7000    7.2130 H   0  0  0  0  0  0  0  0  0  0  0  0
    1.5190    0.7970    6.2480 H   0  0  0  0  0  0  0  0  0  0  0  0
    1.7080    1.4520    3.8390 H   0  0  0  0  0  0  0  0  0  0  0  0
    0.4590   -0.1810    0.6440 N   0  0  0  0  0  0  0  0  0  0  0  0
   -0.9710   -0.4380    1.0960 C   0  0  1  0  0  0  0  0  0  0  0  0
   -1.6640    0.8550    0.9390 C   0  0  0  0  0  0  0  0  0  0  0  0
   -3.0380    1.1250    1.3210 C   0  0  0  0  0  0  0  0  0  0  0  0
   -4.1440    0.3580    0.7340 C   0  0  0  0  0  0  0  0  0  0  0  0
   -5.5040    0.9660    1.2330 C   0  0  0  0  0  0  0  0  0  0  0  0
   -6.5870    0.2140    0.6580 N   0  0  0  0  0  0  0  0  0  0  0  0
   -1.4230   -1.5710    0.2550 C   0  0  0  0  0  0  0  0  0  0  0  0
   -2.5140   -2.1900    0.3820 O   0  0  0  0  0  0  0  0  0  0  0  0
    0.6260    0.2160   -0.2720 H   0  0  0  0  0  0  0  0  0  0  0  0
   -0.9630   -0.7510    2.1520 H   0  0  0  0  0  0  0  0  0  0  0  0
   -1.5630    1.1020   -0.1940 H   0  0  0  0  0  0  0  0  0  0  0  0
   -0.9520    1.6710    1.3460 H   0  0  0  0  0  0  0  0  0  0  0  0
   -3.2980    2.2310    1.1990 H   0  0  0  0  0  0  0  0  0  0  0  0
   -3.1600    1.0120    2.4650 H   0  0  0  0  0  0  0  0  0  0  0  0
   -4.1590   -0.6550    1.2590 H   0  0  0  0  0  0  0  0  0  0  0  0
   -4.2190    0.3060   -0.3340 H   0  0  0  0  0  0  0  0  0  0  0  0
   -5.5530    0.8750    2.3360 H   0  0  0  0  0  0  0  0  0  0  0  0
   -5.5470    2.0190    0.8870 H   0  0  0  0  0  0  0  0  0  0  0  0
   -6.4520   -0.7940    0.8260 H   0  0  0  0  0  0  0  0  0  0  0  0
   -6.7060    0.3700   -0.3480 H   0  0  0  0  0  0  0  0  0  0  0  0
    0.8190   -1.4320   -6.0330 N   0  0  0  0  0  0  0  0  0  0  0  0
   -0.1630   -1.9440   -5.1600 C   0  0  0  0  0  0  0  0  0  0  0  0
   -1.3120   -2.1230   -5.6380 O   0  0  0  0  0  0  0  0  0  0  0  0
    0.1090   -2.2680   -3.7370 C   0  0  0  0  0  0  0  0  0  0  0  0
   -1.1330   -2.7830   -3.1080 C   0  0  0  0  0  0  0  0  0  0  0  0
   -0.9830   -3.1470   -1.6590 C   0  0  2  0  0  0  0  0  0  0  0  0
   -0.5840   -2.0600   -0.8250 N   0  0  0  0  0  0  0  0  0  0  0  0
   -0.0650   -4.2890   -1.4540 C   0  0  0  0  0  0  0  0  0  0  0  0
    0.8750   -4.1650   -0.6350 O   0  0  0  0  0  0  0  0  0  0  0  0
   -0.1760   -5.5050   -2.1160 O   0  0  0  0  0  0  0  0  0  0  0  0
    0.5720   -0.6830   -6.6960 H   0  0  0  0  0  0  0  0  0  0  0  0
    1.7800   -1.8020   -6.0110 H   0  0  0  0  0  0  0  0  0  0  0  0
    0.9470   -2.9930   -3.7340 H   0  0  0  0  0  0  0  0  0  0  0  0
    0.5010   -1.3420   -3.2720 H   0  0  0  0  0  0  0  0  0  0  0  0
   -1.4390   -3.7030   -3.6480 H   0  0  0  0  0  0  0  0  0  0  0  0
   -1.9400   -2.0580   -3.2210 H   0  0  0  0  0  0  0  0  0  0  0  0
   -1.9930   -3.5000   -1.3180 H   0  0  0  0  0  0  0  0  0  0  0  0
    0.3220   -1.6030   -0.9830 H   0  0  0  0  0  0  0  0  0  0  0  0
  1  2  1  0  0  0  0
  2 14  1  1  0  0  0
  2 10  1  0  0  0  0
  2  3  1  0  0  0  0
  3  4  1  0  0  0  0
  4  5  2  0  0  0  0
  4  9  1  0  0  0  0
  5  6  1  0  0  0  0
  6 18  1  0  0  0  0
  6  7  2  0  0  0  0
  7 19  1  0  0  0  0
  8  7  1  0  0  0  0
  8 20  1  0  0  0  0
  9  8  2  0  0  0  0
 10 11  2  0  0  0  0
 12  1  1  0  0  0  0
 13  1  1  0  0  0  0
 15  3  1  0  0  0  0
 16  3  1  0  0  0  0
 17  5  1  0  0  0  0
 21  9  1  0  0  0  0
 22 23  1  0  0  0  0
 22 10  1  0  0  0  0
 23 32  1  1  0  0  0
 24 23  1  0  0  0  0
 24 25  1  0  0  0  0
 24 34  1  0  0  0  0
 25 36  1  0  0  0  0
 26 27  1  0  0  0  0
 26 37  1  0  0  0  0
 26 25  1  0  0  0  0
 27 39  1  0  0  0  0
 28 41  1  0  0  0  0
 28 27  1  0  0  0  0
 29 30  2  0  0  0  0
 29 23  1  0  0  0  0
 31 22  1  0  0  0  0
 33 24  1  0  0  0  0
 35 25  1  0  0  0  0
 38 26  1  0  0  0  0
 40 27  1  0  0  0  0
 42 28  1  0  0  0  0
 43 54  1  0  0  0  0
 43 44  1  0  0  0  0
 44 46  1  0  0  0  0
 45 44  2  0  0  0  0
 46 55  1  0  0  0  0
 46 56  1  0  0  0  0
 46 47  1  0  0  0  0
 47 48  1  0  0  0  0
 48 50  1  0  0  0  0
 48 59  1  1  0  0  0
 48 49  1  0  0  0  0
 49 29  1  0  0  0  0
 50 51  1  0  0  0  0
 52 50  2  0  0  0  0
 53 43  1  0  0  0  0
 57 47  1  0  0  0  0
 58 47  1  0  0  0  0
 60 49  1  0  0  0  0
M  END
$$$$
