FLD.pdb
 OpenBabel07022419003D

 54 54  0  0  1  0  0  0  0  0999 V2000
   -0.0650    2.1100   -0.2930 N   0  0  0  0  0  0  0  0  0  0  0  0
    1.1800    1.4540   -0.6270 C   0  0  1  0  0  0  0  0  0  0  0  0
    2.3770    2.1930   -0.1280 C   0  0  0  0  0  0  0  0  0  0  0  0
    2.4290    2.3750    1.3230 C   0  0  0  0  0  0  0  0  0  0  0  0
    1.8520    3.4900    1.8760 C   0  0  0  0  0  0  0  0  0  0  0  0
    1.8860    3.6900    3.2400 C   0  0  0  0  0  0  0  0  0  0  0  0
    2.5180    2.7330    4.0300 C   0  0  0  0  0  0  0  0  0  0  0  0
    3.1020    1.6080    3.4950 C   0  0  0  0  0  0  0  0  0  0  0  0
    3.0480    1.4440    2.1260 C   0  0  0  0  0  0  0  0  0  0  0  0
    1.1730    0.0060   -0.3160 C   0  0  0  0  0  0  0  0  0  0  0  0
    2.2230   -0.6350   -0.5780 O   0  0  0  0  0  0  0  0  0  0  0  0
   -0.8210    1.6780   -0.8610 H   0  0  0  0  0  0  0  0  0  0  0  0
   -0.3320    2.0450    0.6930 H   0  0  0  0  0  0  0  0  0  0  0  0
    1.2390    1.5040   -1.7570 H   0  0  0  0  0  0  0  0  0  0  0  0
    2.3670    3.1950   -0.6370 H   0  0  0  0  0  0  0  0  0  0  0  0
    3.2880    1.6870   -0.5320 H   0  0  0  0  0  0  0  0  0  0  0  0
    1.3740    4.2040    1.2240 H   0  0  0  0  0  0  0  0  0  0  0  0
    1.4260    4.5750    3.6640 H   0  0  0  0  0  0  0  0  0  0  0  0
    2.5360    2.9030    5.0920 H   0  0  0  0  0  0  0  0  0  0  0  0
    3.6010    0.8490    4.0960 H   0  0  0  0  0  0  0  0  0  0  0  0
    3.4870    0.5880    1.6590 H   0  0  0  0  0  0  0  0  0  0  0  0
    2.1600   -2.3500    2.5270 C   0  0  0  0  0  0  0  0  0  0  0  0
    0.8080   -1.7430    2.9180 C   0  0  0  0  0  0  0  0  0  0  0  0
    0.5670   -2.1660    4.3530 C   0  0  0  0  0  0  0  0  0  0  0  0
   -0.2130   -2.3130    2.0030 C   0  0  0  0  0  0  0  0  0  0  0  0
    0.0170   -2.0270    0.5550 C   0  0  2  0  0  0  0  0  0  0  0  0
    0.0290   -0.6180    0.2520 N   0  0  0  0  0  0  0  0  0  0  0  0
   -0.9700   -2.7580   -0.3120 C   0  0  0  0  0  0  0  0  0  0  0  0
   -1.0970   -4.0000   -0.1690 O   0  0  0  0  0  0  0  0  0  0  0  0
    2.7810   -2.5330    3.4520 H   0  0  0  0  0  0  0  0  0  0  0  0
    2.7610   -1.6790    1.9020 H   0  0  0  0  0  0  0  0  0  0  0  0
    2.0160   -3.3640    2.0850 H   0  0  0  0  0  0  0  0  0  0  0  0
    0.8560   -0.6400    2.9180 H   0  0  0  0  0  0  0  0  0  0  0  0
    1.2450   -1.5480    5.0040 H   0  0  0  0  0  0  0  0  0  0  0  0
    0.8980   -3.2180    4.5190 H   0  0  0  0  0  0  0  0  0  0  0  0
   -0.4540   -1.9790    4.6940 H   0  0  0  0  0  0  0  0  0  0  0  0
   -1.2020   -1.8570    2.2790 H   0  0  0  0  0  0  0  0  0  0  0  0
   -0.3250   -3.3940    2.2160 H   0  0  0  0  0  0  0  0  0  0  0  0
    1.0160   -2.4360    0.2830 H   0  0  0  0  0  0  0  0  0  0  0  0
   -0.7850    0.0180    0.4280 H   0  0  0  0  0  0  0  0  0  0  0  0
   -1.7610   -2.1120   -1.2820 N   0  0  0  0  0  0  0  0  0  0  0  0
   -2.7290   -2.8100   -2.1380 C   0  0  1  0  0  0  0  0  0  0  0  0
   -4.0890   -2.2280   -2.0180 C   0  0  0  0  0  0  0  0  0  0  0  0
   -5.0550   -2.9730   -2.8420 C   0  0  0  0  0  0  0  0  0  0  0  0
   -4.8340   -4.0360   -3.4700 O   0  0  0  0  0  0  0  0  0  0  0  0
   -2.2460   -2.6190   -3.5300 C   0  0  0  0  0  0  0  0  0  0  0  0
   -1.1830   -1.9320   -3.7120 O   0  0  0  0  0  0  0  0  0  0  0  0
   -6.3860   -2.5040   -2.9870 O   0  0  0  0  0  0  0  0  0  0  0  0
   -2.8380   -3.1160   -4.6480 O   0  0  0  0  0  0  0  0  0  0  0  0
   -1.6430   -1.0840   -1.3850 H   0  0  0  0  0  0  0  0  0  0  0  0
   -2.7690   -3.8900   -1.9460 H   0  0  0  0  0  0  0  0  0  0  0  0
   -4.1400   -1.1580   -2.3510 H   0  0  0  0  0  0  0  0  0  0  0  0
   -4.4920   -2.2240   -0.9850 H   0  0  0  0  0  0  0  0  0  0  0  0
   -6.9320   -2.7540   -3.8130 H   0  0  0  0  0  0  0  0  0  0  0  0
  1 13  1  0  0  0  0
  2 14  1  6  0  0  0
  2 10  1  0  0  0  0
  2  1  1  0  0  0  0
  2  3  1  0  0  0  0
  3  4  1  0  0  0  0
  4  5  2  0  0  0  0
  4  9  1  0  0  0  0
  5  6  1  0  0  0  0
  6 18  1  0  0  0  0
  6  7  2  0  0  0  0
  7 19  1  0  0  0  0
  8  7  1  0  0  0  0
  8 20  1  0  0  0  0
  9  8  2  0  0  0  0
 10 27  1  0  0  0  0
 11 10  2  0  0  0  0
 12  1  1  0  0  0  0
 15  3  1  0  0  0  0
 16  3  1  0  0  0  0
 17  5  1  0  0  0  0
 21  9  1  0  0  0  0
 22 23  1  0  0  0  0
 22 30  1  0  0  0  0
 23 24  1  0  0  0  0
 24 35  1  0  0  0  0
 24 36  1  0  0  0  0
 24 34  1  0  0  0  0
 25 38  1  0  0  0  0
 25 37  1  0  0  0  0
 25 23  1  0  0  0  0
 26 39  1  6  0  0  0
 26 25  1  0  0  0  0
 27 40  1  0  0  0  0
 27 26  1  0  0  0  0
 28 29  2  0  0  0  0
 28 26  1  0  0  0  0
 31 22  1  0  0  0  0
 32 22  1  0  0  0  0
 33 23  1  0  0  0  0
 41 28  1  0  0  0  0
 42 43  1  0  0  0  0
 42 51  1  1  0  0  0
 42 41  1  0  0  0  0
 43 53  1  0  0  0  0
 44 43  1  0  0  0  0
 45 44  2  0  0  0  0
 46 42  1  0  0  0  0
 47 46  1  0  0  0  0
 48 44  1  0  0  0  0
 49 46  2  0  0  0  0
 50 41  1  0  0  0  0
 52 43  1  0  0  0  0
 54 48  1  0  0  0  0
M  END
$$$$
