FLK.pdb
 OpenBabel07022419003D

 62 62  0  0  1  0  0  0  0  0999 V2000
    1.6040   -0.4280    2.7950 N   0  0  0  0  0  0  0  0  0  0  0  0
    1.9270    0.3090    1.5930 C   0  0  1  0  0  0  0  0  0  0  0  0
    2.9010   -0.5510    0.7970 C   0  0  0  0  0  0  0  0  0  0  0  0
    4.1000   -0.7680    1.6490 C   0  0  0  0  0  0  0  0  0  0  0  0
    4.2140   -1.8340    2.5150 C   0  0  0  0  0  0  0  0  0  0  0  0
    5.3300   -2.0290    3.3020 C   0  0  0  0  0  0  0  0  0  0  0  0
    6.3950   -1.1520    3.2550 C   0  0  0  0  0  0  0  0  0  0  0  0
    6.2950   -0.0830    2.3960 C   0  0  0  0  0  0  0  0  0  0  0  0
    5.1810    0.1100    1.6110 C   0  0  0  0  0  0  0  0  0  0  0  0
    0.7390    0.6830    0.8220 C   0  0  0  0  0  0  0  0  0  0  0  0
    0.8310    1.3180   -0.2360 O   0  0  0  0  0  0  0  0  0  0  0  0
    1.3060   -1.4050    2.6010 H   0  0  0  0  0  0  0  0  0  0  0  0
    2.2770   -0.3130    3.5570 H   0  0  0  0  0  0  0  0  0  0  0  0
    2.5120    1.2030    1.9130 H   0  0  0  0  0  0  0  0  0  0  0  0
    3.2570   -0.0030   -0.1110 H   0  0  0  0  0  0  0  0  0  0  0  0
    2.4730   -1.5000    0.4790 H   0  0  0  0  0  0  0  0  0  0  0  0
    3.4110   -2.5580    2.5970 H   0  0  0  0  0  0  0  0  0  0  0  0
    5.4130   -2.8760    3.9860 H   0  0  0  0  0  0  0  0  0  0  0  0
    7.2780   -1.3130    3.8840 H   0  0  0  0  0  0  0  0  0  0  0  0
    7.1120    0.6150    2.3410 H   0  0  0  0  0  0  0  0  0  0  0  0
    5.0960    0.9600    0.9240 H   0  0  0  0  0  0  0  0  0  0  0  0
   -0.9150    2.9730    2.3740 C   0  0  0  0  0  0  0  0  0  0  0  0
   -2.1500    2.9010    1.5260 C   0  0  0  0  0  0  0  0  0  0  0  0
   -2.4790    4.3510    1.1530 C   0  0  0  0  0  0  0  0  0  0  0  0
   -2.0520    2.0310    0.3330 C   0  0  0  0  0  0  0  0  0  0  0  0
   -1.7720    0.6030    0.6550 C   0  0  2  0  0  0  0  0  0  0  0  0
   -0.5550    0.2970    1.3160 N   0  0  0  0  0  0  0  0  0  0  0  0
   -2.0010   -0.2380   -0.5830 C   0  0  0  0  0  0  0  0  0  0  0  0
   -3.0480   -0.0230   -1.2340 O   0  0  0  0  0  0  0  0  0  0  0  0
   -1.0670    3.7650    3.1620 H   0  0  0  0  0  0  0  0  0  0  0  0
   -0.7260    2.0330    2.8780 H   0  0  0  0  0  0  0  0  0  0  0  0
   -0.0680    3.2350    1.7190 H   0  0  0  0  0  0  0  0  0  0  0  0
   -3.0410    2.5780    2.1550 H   0  0  0  0  0  0  0  0  0  0  0  0
   -1.5450    4.7470    0.6880 H   0  0  0  0  0  0  0  0  0  0  0  0
   -2.6270    4.9010    2.1070 H   0  0  0  0  0  0  0  0  0  0  0  0
   -3.3550    4.4080    0.4950 H   0  0  0  0  0  0  0  0  0  0  0  0
   -1.3660    2.4400   -0.4490 H   0  0  0  0  0  0  0  0  0  0  0  0
   -3.0840    2.0370   -0.1470 H   0  0  0  0  0  0  0  0  0  0  0  0
   -2.5980    0.3270    1.4050 H   0  0  0  0  0  0  0  0  0  0  0  0
   -0.5250   -0.2490    2.2300 H   0  0  0  0  0  0  0  0  0  0  0  0
   -1.0680   -1.2170   -0.9700 N   0  0  0  0  0  0  0  0  0  0  0  0
   -1.1290   -2.1030   -2.0820 C   0  0  1  0  0  0  0  0  0  0  0  0
   -2.4990   -2.3920   -2.6410 C   0  0  0  0  0  0  0  0  0  0  0  0
   -3.4110   -3.0620   -1.6810 C   0  0  0  0  0  0  0  0  0  0  0  0
   -2.9110   -4.4450   -1.2200 C   0  0  0  0  0  0  0  0  0  0  0  0
   -4.0330   -4.9180   -0.2730 C   0  0  0  0  0  0  0  0  0  0  0  0
   -5.2390   -4.9600   -1.0870 N   0  0  0  0  0  0  0  0  0  0  0  0
   -0.1560   -1.8580   -3.1470 C   0  0  0  0  0  0  0  0  0  0  0  0
   -0.1690   -2.6120   -4.1470 O   0  0  0  0  0  0  0  0  0  0  0  0
    0.7600   -0.8300   -3.0700 O   0  0  0  0  0  0  0  0  0  0  0  0
   -0.2120   -1.2710   -0.3110 H   0  0  0  0  0  0  0  0  0  0  0  0
   -0.8660   -3.1420   -1.6240 H   0  0  0  0  0  0  0  0  0  0  0  0
   -2.9450   -1.4440   -2.9790 H   0  0  0  0  0  0  0  0  0  0  0  0
   -2.3570   -3.0000   -3.5810 H   0  0  0  0  0  0  0  0  0  0  0  0
   -3.4870   -2.4940   -0.7390 H   0  0  0  0  0  0  0  0  0  0  0  0
   -4.4210   -3.2760   -2.1160 H   0  0  0  0  0  0  0  0  0  0  0  0
   -2.0400   -4.2940   -0.5550 H   0  0  0  0  0  0  0  0  0  0  0  0
   -2.7590   -5.1340   -2.0470 H   0  0  0  0  0  0  0  0  0  0  0  0
   -4.1730   -4.0830    0.4460 H   0  0  0  0  0  0  0  0  0  0  0  0
   -3.7920   -5.8750    0.1880 H   0  0  0  0  0  0  0  0  0  0  0  0
   -5.8530   -4.1450   -0.9490 H   0  0  0  0  0  0  0  0  0  0  0  0
   -5.0450   -5.2180   -2.0600 H   0  0  0  0  0  0  0  0  0  0  0  0
  1 13  1  0  0  0  0
  2 14  1  1  0  0  0
  2  1  1  0  0  0  0
  3  2  1  0  0  0  0
  3  4  1  0  0  0  0
  4  5  1  0  0  0  0
  5 17  1  0  0  0  0
  5  6  2  0  0  0  0
  6 18  1  0  0  0  0
  7  6  1  0  0  0  0
  7 19  1  0  0  0  0
  8  7  2  0  0  0  0
  9  4  2  0  0  0  0
  9  8  1  0  0  0  0
 10 27  1  0  0  0  0
 10  2  1  0  0  0  0
 11 10  2  0  0  0  0
 12  1  1  0  0  0  0
 15  3  1  0  0  0  0
 16  3  1  0  0  0  0
 20  8  1  0  0  0  0
 21  9  1  0  0  0  0
 22 31  1  0  0  0  0
 22 30  1  0  0  0  0
 23 33  1  0  0  0  0
 23 22  1  0  0  0  0
 24 23  1  0  0  0  0
 24 35  1  0  0  0  0
 25 26  1  0  0  0  0
 25 23  1  0  0  0  0
 26 27  1  0  0  0  0
 26 39  1  1  0  0  0
 27 40  1  0  0  0  0
 28 26  1  0  0  0  0
 29 28  2  0  0  0  0
 32 22  1  0  0  0  0
 34 24  1  0  0  0  0
 36 24  1  0  0  0  0
 37 25  1  0  0  0  0
 38 25  1  0  0  0  0
 41 28  1  0  0  0  0
 41 51  1  0  0  0  0
 42 52  1  1  0  0  0
 42 41  1  0  0  0  0
 43 42  1  0  0  0  0
 43 44  1  0  0  0  0
 44 45  1  0  0  0  0
 44 55  1  0  0  0  0
 45 57  1  0  0  0  0
 45 46  1  0  0  0  0
 46 60  1  0  0  0  0
 46 59  1  0  0  0  0
 47 61  1  0  0  0  0
 47 46  1  0  0  0  0
 48 50  1  0  0  0  0
 48 42  1  0  0  0  0
 49 48  2  0  0  0  0
 53 43  1  0  0  0  0
 54 43  1  0  0  0  0
 56 44  1  0  0  0  0
 58 45  1  0  0  0  0
 62 47  1  0  0  0  0
M  END
$$$$
