FLL.pdb
 OpenBabel07022419003D

 60 60  0  0  1  0  0  0  0  0999 V2000
    2.5000    1.7370    1.3510 N   0  0  0  0  0  0  0  0  0  0  0  0
    1.9330    0.4140    1.4570 C   0  0  1  0  0  0  0  0  0  0  0  0
    2.5080   -0.3250    2.6140 C   0  0  0  0  0  0  0  0  0  0  0  0
    3.9820   -0.4270    2.3960 C   0  0  0  0  0  0  0  0  0  0  0  0
    4.5470   -1.4890    1.7200 C   0  0  0  0  0  0  0  0  0  0  0  0
    5.9110   -1.5610    1.5310 C   0  0  0  0  0  0  0  0  0  0  0  0
    6.7540   -0.5800    2.0090 C   0  0  0  0  0  0  0  0  0  0  0  0
    6.2130    0.4900    2.6870 C   0  0  0  0  0  0  0  0  0  0  0  0
    4.8460    0.5430    2.8650 C   0  0  0  0  0  0  0  0  0  0  0  0
    0.4610    0.5160    1.4560 C   0  0  0  0  0  0  0  0  0  0  0  0
   -0.0270    1.6670    1.3700 O   0  0  0  0  0  0  0  0  0  0  0  0
    1.8680    2.4070    0.8730 H   0  0  0  0  0  0  0  0  0  0  0  0
    3.4400    1.7220    0.8630 H   0  0  0  0  0  0  0  0  0  0  0  0
    2.2190   -0.1300    0.5280 H   0  0  0  0  0  0  0  0  0  0  0  0
    2.3570    0.1340    3.5890 H   0  0  0  0  0  0  0  0  0  0  0  0
    2.1320   -1.3670    2.6510 H   0  0  0  0  0  0  0  0  0  0  0  0
    3.8710   -2.2590    1.3470 H   0  0  0  0  0  0  0  0  0  0  0  0
    6.2980   -2.4280    0.9880 H   0  0  0  0  0  0  0  0  0  0  0  0
    7.8370   -0.6570    1.8480 H   0  0  0  0  0  0  0  0  0  0  0  0
    6.8520    1.2740    3.0720 H   0  0  0  0  0  0  0  0  0  0  0  0
    4.4130    1.3870    3.4000 H   0  0  0  0  0  0  0  0  0  0  0  0
   -2.6620    0.1360    4.3860 C   0  0  0  0  0  0  0  0  0  0  0  0
   -2.1730    1.1750    3.3500 C   0  0  0  0  0  0  0  0  0  0  0  0
   -3.0570    2.4030    3.6160 C   0  0  0  0  0  0  0  0  0  0  0  0
   -2.4880    0.7240    1.9690 C   0  0  0  0  0  0  0  0  0  0  0  0
   -1.8360   -0.5970    1.5760 C   0  0  2  0  0  0  0  0  0  0  0  0
   -0.4070   -0.5830    1.5460 N   0  0  0  0  0  0  0  0  0  0  0  0
   -2.4800   -1.2750    0.4540 C   0  0  0  0  0  0  0  0  0  0  0  0
   -3.7260   -1.3860    0.3120 O   0  0  0  0  0  0  0  0  0  0  0  0
   -3.6620   -0.2440    4.1110 H   0  0  0  0  0  0  0  0  0  0  0  0
   -2.7720    0.6440    5.3710 H   0  0  0  0  0  0  0  0  0  0  0  0
   -1.9230   -0.6640    4.5200 H   0  0  0  0  0  0  0  0  0  0  0  0
   -1.1580    1.3800    3.6300 H   0  0  0  0  0  0  0  0  0  0  0  0
   -2.6890    2.9780    4.4850 H   0  0  0  0  0  0  0  0  0  0  0  0
   -4.1230    2.0960    3.7320 H   0  0  0  0  0  0  0  0  0  0  0  0
   -2.9470    3.0440    2.7260 H   0  0  0  0  0  0  0  0  0  0  0  0
   -3.6160    0.5880    1.9440 H   0  0  0  0  0  0  0  0  0  0  0  0
   -2.3090    1.5050    1.2090 H   0  0  0  0  0  0  0  0  0  0  0  0
   -2.1300   -1.2210    2.5270 H   0  0  0  0  0  0  0  0  0  0  0  0
    0.0820   -1.5210    1.5980 H   0  0  0  0  0  0  0  0  0  0  0  0
   -2.1370   -3.7550   -4.7750 C   0  0  0  0  0  0  0  0  0  0  0  0
   -2.4430   -2.3860   -4.3020 C   0  0  0  0  0  0  0  0  0  0  0  0
   -1.8010   -1.4290   -5.3450 C   0  0  0  0  0  0  0  0  0  0  0  0
   -1.9490   -1.9290   -2.9900 C   0  0  0  0  0  0  0  0  0  0  0  0
   -2.3650   -2.5640   -1.7280 C   0  0  2  0  0  0  0  0  0  0  0  0
   -1.7200   -1.8740   -0.5860 N   0  0  0  0  0  0  0  0  0  0  0  0
   -1.9710   -3.9500   -1.5920 C   0  0  0  0  0  0  0  0  0  0  0  0
   -2.4640   -4.9080   -2.2120 O   0  0  0  0  0  0  0  0  0  0  0  0
   -0.9440   -4.3000   -0.6930 O   0  0  0  0  0  0  0  0  0  0  0  0
   -1.9430   -3.7410   -5.9240 H   0  0  0  0  0  0  0  0  0  0  0  0
   -2.9840   -4.4690   -4.7240 H   0  0  0  0  0  0  0  0  0  0  0  0
   -1.2250   -4.2250   -4.3970 H   0  0  0  0  0  0  0  0  0  0  0  0
   -3.5660   -2.2740   -4.3970 H   0  0  0  0  0  0  0  0  0  0  0  0
   -0.7100   -1.6530   -5.3400 H   0  0  0  0  0  0  0  0  0  0  0  0
   -1.9190   -0.3890   -5.0370 H   0  0  0  0  0  0  0  0  0  0  0  0
   -2.1830   -1.6510   -6.3430 H   0  0  0  0  0  0  0  0  0  0  0  0
   -0.7970   -2.0090   -3.0790 H   0  0  0  0  0  0  0  0  0  0  0  0
   -2.0200   -0.7800   -2.9120 H   0  0  0  0  0  0  0  0  0  0  0  0
   -3.4760   -2.5050   -1.5910 H   0  0  0  0  0  0  0  0  0  0  0  0
   -0.6830   -1.8600   -0.6000 H   0  0  0  0  0  0  0  0  0  0  0  0
  1  2  1  0  0  0  0
  2 14  1  6  0  0  0
  2  3  1  0  0  0  0
  3 16  1  0  0  0  0
  3 15  1  0  0  0  0
  4  3  1  0  0  0  0
  4  9  1  0  0  0  0
  5  4  2  0  0  0  0
  6  5  1  0  0  0  0
  6  7  2  0  0  0  0
  7  8  1  0  0  0  0
  8  9  2  0  0  0  0
  8 20  1  0  0  0  0
  9 21  1  0  0  0  0
 10  2  1  0  0  0  0
 10 27  1  0  0  0  0
 11 10  2  0  0  0  0
 12  1  1  0  0  0  0
 13  1  1  0  0  0  0
 17  5  1  0  0  0  0
 18  6  1  0  0  0  0
 19  7  1  0  0  0  0
 22 32  1  0  0  0  0
 22 31  1  0  0  0  0
 23 24  1  0  0  0  0
 23 33  1  0  0  0  0
 23 22  1  0  0  0  0
 24 35  1  0  0  0  0
 24 34  1  0  0  0  0
 25 23  1  0  0  0  0
 26 25  1  0  0  0  0
 26 39  1  1  0  0  0
 27 26  1  0  0  0  0
 27 40  1  0  0  0  0
 28 26  1  0  0  0  0
 29 28  2  0  0  0  0
 30 22  1  0  0  0  0
 36 24  1  0  0  0  0
 37 25  1  0  0  0  0
 38 25  1  0  0  0  0
 41 51  1  0  0  0  0
 41 52  1  0  0  0  0
 41 42  1  0  0  0  0
 42 44  1  0  0  0  0
 43 54  1  0  0  0  0
 43 55  1  0  0  0  0
 43 42  1  0  0  0  0
 44 58  1  0  0  0  0
 44 45  1  0  0  0  0
 45 47  1  0  0  0  0
 45 59  1  1  0  0  0
 45 46  1  0  0  0  0
 46 28  1  0  0  0  0
 47 49  1  0  0  0  0
 48 47  2  0  0  0  0
 50 41  1  0  0  0  0
 53 42  1  0  0  0  0
 56 43  1  0  0  0  0
 57 44  1  0  0  0  0
 60 46  1  0  0  0  0
M  END
$$$$
