FLT.pdb
 OpenBabel07022419003D

 55 55  0  0  1  0  0  0  0  0999 V2000
    1.5700   -3.3170    1.2030 N   0  0  0  0  0  0  0  0  0  0  0  0
    0.4420   -2.6620    1.7860 C   0  0  1  0  0  0  0  0  0  0  0  0
    0.7240   -2.2630    3.2030 C   0  0  0  0  0  0  0  0  0  0  0  0
    1.8500   -1.3430    3.3770 C   0  0  0  0  0  0  0  0  0  0  0  0
    1.6920    0.0190    3.3640 C   0  0  0  0  0  0  0  0  0  0  0  0
    2.7450    0.8720    3.5270 C   0  0  0  0  0  0  0  0  0  0  0  0
    4.0040    0.3590    3.7110 C   0  0  0  0  0  0  0  0  0  0  0  0
    4.1690   -1.0110    3.7260 C   0  0  0  0  0  0  0  0  0  0  0  0
    3.1090   -1.8660    3.5610 C   0  0  0  0  0  0  0  0  0  0  0  0
   -0.0710   -1.5460    0.9410 C   0  0  0  0  0  0  0  0  0  0  0  0
    0.4930   -1.3200   -0.1380 O   0  0  0  0  0  0  0  0  0  0  0  0
    1.4630   -4.3420    1.0740 H   0  0  0  0  0  0  0  0  0  0  0  0
    1.9740   -2.8680    0.3760 H   0  0  0  0  0  0  0  0  0  0  0  0
   -0.3770   -3.4380    1.8460 H   0  0  0  0  0  0  0  0  0  0  0  0
   -0.2190   -1.8550    3.6270 H   0  0  0  0  0  0  0  0  0  0  0  0
    0.9040   -3.2170    3.7660 H   0  0  0  0  0  0  0  0  0  0  0  0
    0.6760    0.3930    3.2150 H   0  0  0  0  0  0  0  0  0  0  0  0
    2.5790    1.9380    3.5100 H   0  0  0  0  0  0  0  0  0  0  0  0
    4.8620    1.0100    3.8440 H   0  0  0  0  0  0  0  0  0  0  0  0
    5.1600   -1.4200    3.8710 H   0  0  0  0  0  0  0  0  0  0  0  0
    3.3130   -2.9330    3.5840 H   0  0  0  0  0  0  0  0  0  0  0  0
    0.6400    3.3190    0.6720 C   0  0  0  0  0  0  0  0  0  0  0  0
    0.2580    1.8410    0.3670 C   0  0  0  0  0  0  0  0  0  0  0  0
    0.3660    1.8020   -1.1660 C   0  0  0  0  0  0  0  0  0  0  0  0
   -1.1500    1.6560    0.7900 C   0  0  0  0  0  0  0  0  0  0  0  0
   -1.7710    0.3240    0.6440 C   0  0  2  0  0  0  0  0  0  0  0  0
   -1.1760   -0.7610    1.3580 N   0  0  0  0  0  0  0  0  0  0  0  0
   -2.2420   -0.0150   -0.7290 C   0  0  0  0  0  0  0  0  0  0  0  0
   -2.6340    0.9060   -1.5010 O   0  0  0  0  0  0  0  0  0  0  0  0
    0.3430    3.5880    1.6840 H   0  0  0  0  0  0  0  0  0  0  0  0
    1.6990    3.4560    0.4370 H   0  0  0  0  0  0  0  0  0  0  0  0
    0.0470    3.9200   -0.0420 H   0  0  0  0  0  0  0  0  0  0  0  0
    1.0040    1.1940    0.8120 H   0  0  0  0  0  0  0  0  0  0  0  0
    0.0700    0.8710   -1.6130 H   0  0  0  0  0  0  0  0  0  0  0  0
    1.4470    2.0660   -1.3660 H   0  0  0  0  0  0  0  0  0  0  0  0
   -0.2000    2.6840   -1.5620 H   0  0  0  0  0  0  0  0  0  0  0  0
   -1.8060    2.3850    0.2160 H   0  0  0  0  0  0  0  0  0  0  0  0
   -1.2840    2.0250    1.8570 H   0  0  0  0  0  0  0  0  0  0  0  0
   -2.8070    0.4650    1.1880 H   0  0  0  0  0  0  0  0  0  0  0  0
   -1.5580   -1.0580    2.3120 H   0  0  0  0  0  0  0  0  0  0  0  0
   -0.3680   -2.1680   -3.2050 C   0  0  0  0  0  0  0  0  0  0  0  0
   -1.7680   -2.6810   -3.1160 C   0  0  1  0  0  0  0  0  0  0  0  0
   -1.7620   -3.7990   -2.2550 O   0  0  0  0  0  0  0  0  0  0  0  0
   -2.7350   -1.6830   -2.5520 C   0  0  2  0  0  0  0  0  0  0  0  0
   -2.2790   -1.3210   -1.2140 N   0  0  0  0  0  0  0  0  0  0  0  0
   -4.0540   -2.3890   -2.3410 C   0  0  0  0  0  0  0  0  0  0  0  0
   -4.6840   -2.8180   -3.3380 O   0  0  0  0  0  0  0  0  0  0  0  0
   -4.6020   -2.5850   -1.0880 O   0  0  0  0  0  0  0  0  0  0  0  0
   -0.0540   -2.1930   -4.2860 H   0  0  0  0  0  0  0  0  0  0  0  0
    0.3430   -2.8380   -2.6600 H   0  0  0  0  0  0  0  0  0  0  0  0
   -0.2570   -1.1700   -2.7760 H   0  0  0  0  0  0  0  0  0  0  0  0
   -2.1040   -3.0910   -4.0960 H   0  0  0  0  0  0  0  0  0  0  0  0
   -1.0520   -3.7340   -1.5690 H   0  0  0  0  0  0  0  0  0  0  0  0
   -2.9650   -0.8260   -3.1840 H   0  0  0  0  0  0  0  0  0  0  0  0
   -1.9910   -2.1150   -0.6210 H   0  0  0  0  0  0  0  0  0  0  0  0
  1  2  1  0  0  0  0
  2 14  1  1  0  0  0
  2  3  1  0  0  0  0
  3  4  1  0  0  0  0
  3 15  1  0  0  0  0
  3 16  1  0  0  0  0
  4  9  1  0  0  0  0
  5  4  2  0  0  0  0
  5  6  1  0  0  0  0
  6  7  2  0  0  0  0
  7  8  1  0  0  0  0
  7 19  1  0  0  0  0
  8 20  1  0  0  0  0
  9 21  1  0  0  0  0
  9  8  2  0  0  0  0
 10 27  1  0  0  0  0
 10  2  1  0  0  0  0
 11 10  2  0  0  0  0
 12  1  1  0  0  0  0
 13  1  1  0  0  0  0
 17  5  1  0  0  0  0
 18  6  1  0  0  0  0
 22 30  1  0  0  0  0
 23 22  1  0  0  0  0
 23 25  1  0  0  0  0
 23 33  1  0  0  0  0
 24 23  1  0  0  0  0
 25 38  1  0  0  0  0
 26 25  1  0  0  0  0
 26 39  1  1  0  0  0
 26 27  1  0  0  0  0
 27 40  1  0  0  0  0
 28 26  1  0  0  0  0
 29 28  2  0  0  0  0
 31 22  1  0  0  0  0
 32 22  1  0  0  0  0
 34 24  1  0  0  0  0
 35 24  1  0  0  0  0
 36 24  1  0  0  0  0
 37 25  1  0  0  0  0
 41 42  1  0  0  0  0
 41 51  1  0  0  0  0
 41 50  1  0  0  0  0
 42 52  1  6  0  0  0
 42 44  1  0  0  0  0
 42 43  1  0  0  0  0
 43 53  1  0  0  0  0
 44 54  1  6  0  0  0
 44 46  1  0  0  0  0
 44 45  1  0  0  0  0
 45 28  1  0  0  0  0
 45 55  1  0  0  0  0
 46 48  1  0  0  0  0
 47 46  2  0  0  0  0
 49 41  1  0  0  0  0
M  END
$$$$
