FLV.pdb
 OpenBabel07022419003D

 57 57  0  0  1  0  0  0  0  0999 V2000
   -2.6390    1.0940    2.3060 N   0  0  0  0  0  0  0  0  0  0  0  0
   -1.5130    0.2150    2.5870 C   0  0  1  0  0  0  0  0  0  0  0  0
   -2.0410   -1.1740    2.7450 C   0  0  0  0  0  0  0  0  0  0  0  0
   -1.0220   -2.1970    3.0410 C   0  0  0  0  0  0  0  0  0  0  0  0
   -0.6290   -2.4650    4.3600 C   0  0  0  0  0  0  0  0  0  0  0  0
    0.3130   -3.4170    4.6710 C   0  0  0  0  0  0  0  0  0  0  0  0
    0.9150   -4.1550    3.6740 C   0  0  0  0  0  0  0  0  0  0  0  0
    0.5560   -3.9220    2.3640 C   0  0  0  0  0  0  0  0  0  0  0  0
   -0.3870   -2.9670    2.0690 C   0  0  0  0  0  0  0  0  0  0  0  0
   -0.4690    0.3150    1.5520 C   0  0  0  0  0  0  0  0  0  0  0  0
    0.5390   -0.4130    1.6330 O   0  0  0  0  0  0  0  0  0  0  0  0
   -2.4900    2.0630    2.6540 H   0  0  0  0  0  0  0  0  0  0  0  0
   -3.5540    0.6800    2.5800 H   0  0  0  0  0  0  0  0  0  0  0  0
   -1.0160    0.5490    3.5460 H   0  0  0  0  0  0  0  0  0  0  0  0
   -2.7860   -1.2300    3.5820 H   0  0  0  0  0  0  0  0  0  0  0  0
   -2.5250   -1.4820    1.7820 H   0  0  0  0  0  0  0  0  0  0  0  0
   -1.1240   -1.8640    5.1220 H   0  0  0  0  0  0  0  0  0  0  0  0
    0.5840   -3.5870    5.6990 H   0  0  0  0  0  0  0  0  0  0  0  0
    1.6570   -4.9030    3.9370 H   0  0  0  0  0  0  0  0  0  0  0  0
    1.0330   -4.5040    1.5980 H   0  0  0  0  0  0  0  0  0  0  0  0
   -0.6980   -2.7610    1.0550 H   0  0  0  0  0  0  0  0  0  0  0  0
    1.2060    2.8290    2.1080 C   0  0  0  0  0  0  0  0  0  0  0  0
    1.9750    2.7360    0.8460 C   0  0  0  0  0  0  0  0  0  0  0  0
    1.7610    4.0490    0.0930 C   0  0  0  0  0  0  0  0  0  0  0  0
    1.7250    1.5800   -0.0450 C   0  0  0  0  0  0  0  0  0  0  0  0
    0.3390    1.4170   -0.5690 C   0  0  2  0  0  0  0  0  0  0  0  0
   -0.6080    1.2280    0.4830 N   0  0  0  0  0  0  0  0  0  0  0  0
    0.2890    0.3260   -1.5720 C   0  0  0  0  0  0  0  0  0  0  0  0
    1.0830    0.3380   -2.5810 O   0  0  0  0  0  0  0  0  0  0  0  0
    1.3920    2.0270    2.8480 H   0  0  0  0  0  0  0  0  0  0  0  0
    1.6130    3.7560    2.6400 H   0  0  0  0  0  0  0  0  0  0  0  0
    0.1310    3.0610    2.0080 H   0  0  0  0  0  0  0  0  0  0  0  0
    3.0600    2.7390    1.1200 H   0  0  0  0  0  0  0  0  0  0  0  0
    2.2560    4.8310    0.7150 H   0  0  0  0  0  0  0  0  0  0  0  0
    2.2630    4.0350   -0.8840 H   0  0  0  0  0  0  0  0  0  0  0  0
    0.6720    4.2230    0.0260 H   0  0  0  0  0  0  0  0  0  0  0  0
    2.4110    1.7450   -0.9500 H   0  0  0  0  0  0  0  0  0  0  0  0
    2.0830    0.6130    0.3500 H   0  0  0  0  0  0  0  0  0  0  0  0
    0.0520    2.3440   -1.1790 H   0  0  0  0  0  0  0  0  0  0  0  0
   -1.5060    1.8070    0.4960 H   0  0  0  0  0  0  0  0  0  0  0  0
   -0.1360   -4.1450   -3.1140 C   0  0  0  0  0  0  0  0  0  0  0  0
   -0.1780   -3.1300   -1.9880 C   0  0  0  0  0  0  0  0  0  0  0  0
    1.2320   -3.0570   -1.4090 C   0  0  0  0  0  0  0  0  0  0  0  0
   -0.5530   -1.7940   -2.5840 C   0  0  2  0  0  0  0  0  0  0  0  0
   -0.5970   -0.7830   -1.5220 N   0  0  0  0  0  0  0  0  0  0  0  0
   -1.8500   -1.8910   -3.2740 C   0  0  0  0  0  0  0  0  0  0  0  0
   -2.8610   -1.2080   -2.9620 O   0  0  0  0  0  0  0  0  0  0  0  0
   -2.0050   -2.7700   -4.3300 O   0  0  0  0  0  0  0  0  0  0  0  0
   -1.1110   -4.6340   -3.2910 H   0  0  0  0  0  0  0  0  0  0  0  0
    0.6640   -4.8880   -2.8950 H   0  0  0  0  0  0  0  0  0  0  0  0
    0.1520   -3.5970   -4.0330 H   0  0  0  0  0  0  0  0  0  0  0  0
   -0.8980   -3.4530   -1.2040 H   0  0  0  0  0  0  0  0  0  0  0  0
    1.6830   -4.0510   -1.5340 H   0  0  0  0  0  0  0  0  0  0  0  0
    1.8120   -2.3390   -2.0290 H   0  0  0  0  0  0  0  0  0  0  0  0
    1.2480   -2.8130   -0.3420 H   0  0  0  0  0  0  0  0  0  0  0  0
    0.2180   -1.5490   -3.3340 H   0  0  0  0  0  0  0  0  0  0  0  0
   -1.2640   -0.8560   -0.7260 H   0  0  0  0  0  0  0  0  0  0  0  0
  1 13  1  0  0  0  0
  1  2  1  0  0  0  0
  1 12  1  0  0  0  0
  2  3  1  0  0  0  0
  2 14  1  1  0  0  0
  3  4  1  0  0  0  0
  3 15  1  0  0  0  0
  4  5  1  0  0  0  0
  5  6  2  0  0  0  0
  5 17  1  0  0  0  0
  6 18  1  0  0  0  0
  7 19  1  0  0  0  0
  7  6  1  0  0  0  0
  8  7  2  0  0  0  0
  9  8  1  0  0  0  0
  9  4  2  0  0  0  0
 10 11  2  0  0  0  0
 10  2  1  0  0  0  0
 16  3  1  0  0  0  0
 20  8  1  0  0  0  0
 21  9  1  0  0  0  0
 22 31  1  0  0  0  0
 22 30  1  0  0  0  0
 23 33  1  0  0  0  0
 23 22  1  0  0  0  0
 24 34  1  0  0  0  0
 24 23  1  0  0  0  0
 25 38  1  0  0  0  0
 25 23  1  0  0  0  0
 26 39  1  6  0  0  0
 26 25  1  0  0  0  0
 26 27  1  0  0  0  0
 27 40  1  0  0  0  0
 27 10  1  0  0  0  0
 28 45  1  0  0  0  0
 28 26  1  0  0  0  0
 29 28  2  0  0  0  0
 32 22  1  0  0  0  0
 35 24  1  0  0  0  0
 36 24  1  0  0  0  0
 37 25  1  0  0  0  0
 41 50  1  0  0  0  0
 41 42  1  0  0  0  0
 42 43  1  0  0  0  0
 42 52  1  0  0  0  0
 43 55  1  0  0  0  0
 44 56  1  6  0  0  0
 44 42  1  0  0  0  0
 44 45  1  0  0  0  0
 45 57  1  0  0  0  0
 46 47  1  0  0  0  0
 46 44  1  0  0  0  0
 48 46  2  0  0  0  0
 49 41  1  0  0  0  0
 51 41  1  0  0  0  0
 53 43  1  0  0  0  0
 54 43  1  0  0  0  0
M  END
$$$$
