FLY.pdb
 OpenBabel07022419003D

 62 63  0  0  1  0  0  0  0  0999 V2000
    0.2070    0.0580    4.9460 N   0  0  0  0  0  0  0  0  0  0  0  0
    1.3340    0.3640    4.0710 C   0  0  1  0  0  0  0  0  0  0  0  0
    2.4270   -0.6270    4.4070 C   0  0  0  0  0  0  0  0  0  0  0  0
    3.6520   -0.4470    3.5910 C   0  0  0  0  0  0  0  0  0  0  0  0
    4.6460    0.4260    4.0150 C   0  0  0  0  0  0  0  0  0  0  0  0
    5.7740    0.5700    3.2450 C   0  0  0  0  0  0  0  0  0  0  0  0
    5.9700   -0.1150    2.0620 C   0  0  0  0  0  0  0  0  0  0  0  0
    4.9760   -0.9760    1.6570 C   0  0  0  0  0  0  0  0  0  0  0  0
    3.8260   -1.1410    2.4150 C   0  0  0  0  0  0  0  0  0  0  0  0
    0.8770    0.2500    2.6650 C   0  0  0  0  0  0  0  0  0  0  0  0
    1.7060    0.5260    1.7850 O   0  0  0  0  0  0  0  0  0  0  0  0
    0.3850    0.5940    5.8320 H   0  0  0  0  0  0  0  0  0  0  0  0
    0.2010   -0.9630    5.1910 H   0  0  0  0  0  0  0  0  0  0  0  0
    1.7470    1.3770    4.2880 H   0  0  0  0  0  0  0  0  0  0  0  0
    2.0700   -1.6730    4.2760 H   0  0  0  0  0  0  0  0  0  0  0  0
    2.7370   -0.4960    5.4650 H   0  0  0  0  0  0  0  0  0  0  0  0
    4.4790    0.9600    4.9490 H   0  0  0  0  0  0  0  0  0  0  0  0
    6.5570    1.2550    3.5740 H   0  0  0  0  0  0  0  0  0  0  0  0
    6.8510   -0.0050    1.4560 H   0  0  0  0  0  0  0  0  0  0  0  0
    5.0820   -1.5390    0.7320 H   0  0  0  0  0  0  0  0  0  0  0  0
    3.0380   -1.8350    2.0860 H   0  0  0  0  0  0  0  0  0  0  0  0
   -0.5690    2.7970    1.6720 C   0  0  0  0  0  0  0  0  0  0  0  0
   -0.9730    2.1890    0.3860 C   0  0  0  0  0  0  0  0  0  0  0  0
   -2.4790    2.3670    0.2350 C   0  0  0  0  0  0  0  0  0  0  0  0
   -0.5180    0.8280    0.0570 C   0  0  0  0  0  0  0  0  0  0  0  0
   -0.9320   -0.2690    1.0120 C   0  0  2  0  0  0  0  0  0  0  0  0
   -0.4450   -0.1550    2.3410 N   0  0  0  0  0  0  0  0  0  0  0  0
   -0.7080   -1.5940    0.4370 C   0  0  0  0  0  0  0  0  0  0  0  0
   -0.1180   -2.5040    1.1160 O   0  0  0  0  0  0  0  0  0  0  0  0
   -1.0390    2.3570    2.5750 H   0  0  0  0  0  0  0  0  0  0  0  0
   -0.9840    3.8620    1.6510 H   0  0  0  0  0  0  0  0  0  0  0  0
    0.5220    2.9640    1.7580 H   0  0  0  0  0  0  0  0  0  0  0  0
   -0.5520    2.8690   -0.4240 H   0  0  0  0  0  0  0  0  0  0  0  0
   -2.6570    3.4630    0.1870 H   0  0  0  0  0  0  0  0  0  0  0  0
   -2.8490    1.9300   -0.7130 H   0  0  0  0  0  0  0  0  0  0  0  0
   -3.0230    1.9960    1.1220 H   0  0  0  0  0  0  0  0  0  0  0  0
   -1.0230    0.5460   -0.9190 H   0  0  0  0  0  0  0  0  0  0  0  0
    0.5530    0.8310   -0.1970 H   0  0  0  0  0  0  0  0  0  0  0  0
   -2.0650   -0.0520    1.1080 H   0  0  0  0  0  0  0  0  0  0  0  0
   -1.0550   -0.3710    3.1860 H   0  0  0  0  0  0  0  0  0  0  0  0
   -5.5120   -1.0570   -5.1800 O   0  0  0  0  0  0  0  0  0  0  0  0
   -4.7050   -1.7700   -4.2900 C   0  0  0  0  0  0  0  0  0  0  0  0
   -3.8600   -2.7710   -4.7190 C   0  0  0  0  0  0  0  0  0  0  0  0
   -3.0600   -3.4790   -3.8450 C   0  0  0  0  0  0  0  0  0  0  0  0
   -3.0780   -3.2070   -2.4930 C   0  0  0  0  0  0  0  0  0  0  0  0
   -2.2070   -3.9810   -1.5590 C   0  0  0  0  0  0  0  0  0  0  0  0
   -0.8580   -3.3160   -1.3950 C   0  0  2  0  0  0  0  0  0  0  0  0
   -1.0990   -1.9930   -0.8630 N   0  0  0  0  0  0  0  0  0  0  0  0
   -0.0660   -3.3210   -2.6160 C   0  0  0  0  0  0  0  0  0  0  0  0
    0.2160   -4.3970   -3.1820 O   0  0  0  0  0  0  0  0  0  0  0  0
   -3.9170   -2.2100   -2.0490 C   0  0  0  0  0  0  0  0  0  0  0  0
   -4.7080   -1.5140   -2.9370 C   0  0  0  0  0  0  0  0  0  0  0  0
    0.3860   -2.1420   -3.1690 O   0  0  0  0  0  0  0  0  0  0  0  0
   -5.7260   -0.0990   -4.9510 H   0  0  0  0  0  0  0  0  0  0  0  0
   -3.8300   -3.0020   -5.7800 H   0  0  0  0  0  0  0  0  0  0  0  0
   -2.4060   -4.2660   -4.2430 H   0  0  0  0  0  0  0  0  0  0  0  0
   -2.0800   -5.0000   -1.9910 H   0  0  0  0  0  0  0  0  0  0  0  0
   -2.7430   -4.0530   -0.6010 H   0  0  0  0  0  0  0  0  0  0  0  0
   -0.3310   -3.8930   -0.5890 H   0  0  0  0  0  0  0  0  0  0  0  0
   -1.5830   -1.3200   -1.4790 H   0  0  0  0  0  0  0  0  0  0  0  0
   -3.9720   -1.9560   -1.0120 H   0  0  0  0  0  0  0  0  0  0  0  0
   -5.3740   -0.7240   -2.5970 H   0  0  0  0  0  0  0  0  0  0  0  0
  1 13  1  0  0  0  0
  1 12  1  0  0  0  0
  2 14  1  1  0  0  0
  2  3  1  0  0  0  0
  2  1  1  0  0  0  0
  3 16  1  0  0  0  0
  4  5  1  0  0  0  0
  4  3  1  0  0  0  0
  5 17  1  0  0  0  0
  6 18  1  0  0  0  0
  6  5  2  0  0  0  0
  7  6  1  0  0  0  0
  8  7  2  0  0  0  0
  8  9  1  0  0  0  0
  9  4  2  0  0  0  0
 10  2  1  0  0  0  0
 11 10  2  0  0  0  0
 15  3  1  0  0  0  0
 19  7  1  0  0  0  0
 20  8  1  0  0  0  0
 21  9  1  0  0  0  0
 22 32  1  0  0  0  0
 22 30  1  0  0  0  0
 23 22  1  0  0  0  0
 24 23  1  0  0  0  0
 24 36  1  0  0  0  0
 25 23  1  0  0  0  0
 25 26  1  0  0  0  0
 26 39  1  1  0  0  0
 26 27  1  0  0  0  0
 27 10  1  0  0  0  0
 27 40  1  0  0  0  0
 28 26  1  0  0  0  0
 28 29  2  0  0  0  0
 31 22  1  0  0  0  0
 33 23  1  0  0  0  0
 34 24  1  0  0  0  0
 35 24  1  0  0  0  0
 37 25  1  0  0  0  0
 38 25  1  0  0  0  0
 41 54  1  0  0  0  0
 41 42  1  0  0  0  0
 42 52  1  0  0  0  0
 43 42  2  0  0  0  0
 43 44  1  0  0  0  0
 44 45  2  0  0  0  0
 45 51  1  0  0  0  0
 45 46  1  0  0  0  0
 46 47  1  0  0  0  0
 46 58  1  0  0  0  0
 47 48  1  0  0  0  0
 47 59  1  1  0  0  0
 48 28  1  0  0  0  0
 49 47  1  0  0  0  0
 50 49  2  0  0  0  0
 51 61  1  0  0  0  0
 52 62  1  0  0  0  0
 52 51  2  0  0  0  0
 53 49  1  0  0  0  0
 55 43  1  0  0  0  0
 56 44  1  0  0  0  0
 57 46  1  0  0  0  0
 60 48  1  0  0  0  0
M  END
$$$$
