FMA.pdb
 OpenBabel07022419003D

 49 49  0  0  1  0  0  0  0  0999 V2000
    5.0700   -1.2330    0.1150 N   0  0  0  0  0  0  0  0  0  0  0  0
    3.9150   -0.4600    0.6470 C   0  0  1  0  0  0  0  0  0  0  0  0
    3.9370    0.8090   -0.1820 C   0  0  0  0  0  0  0  0  0  0  0  0
    2.8820    1.7630    0.1580 C   0  0  0  0  0  0  0  0  0  0  0  0
    1.6770    1.7440   -0.4750 C   0  0  0  0  0  0  0  0  0  0  0  0
    0.6950    2.6790   -0.1370 C   0  0  0  0  0  0  0  0  0  0  0  0
    0.9510    3.6110    0.8310 C   0  0  0  0  0  0  0  0  0  0  0  0
    2.1650    3.6310    1.4690 C   0  0  0  0  0  0  0  0  0  0  0  0
    3.1200    2.7070    1.1270 C   0  0  0  0  0  0  0  0  0  0  0  0
    2.7440   -1.3170    0.3880 C   0  0  0  0  0  0  0  0  0  0  0  0
    2.8190   -2.3300   -0.3730 O   0  0  0  0  0  0  0  0  0  0  0  0
    5.0160   -2.2140    0.4780 H   0  0  0  0  0  0  0  0  0  0  0  0
    5.9570   -0.7550    0.3200 H   0  0  0  0  0  0  0  0  0  0  0  0
    4.0770   -0.1820    1.6890 H   0  0  0  0  0  0  0  0  0  0  0  0
    4.9250    1.2880    0.0440 H   0  0  0  0  0  0  0  0  0  0  0  0
    3.9820    0.5810   -1.2740 H   0  0  0  0  0  0  0  0  0  0  0  0
    1.4890    1.0070   -1.2320 H   0  0  0  0  0  0  0  0  0  0  0  0
   -0.2750    2.6560   -0.6540 H   0  0  0  0  0  0  0  0  0  0  0  0
    0.1940    4.3530    1.1100 H   0  0  0  0  0  0  0  0  0  0  0  0
    2.3270    4.3880    2.2310 H   0  0  0  0  0  0  0  0  0  0  0  0
    4.0700    2.7650    1.6650 H   0  0  0  0  0  0  0  0  0  0  0  0
   -3.1090   -2.2460    2.9400 C   0  0  0  0  0  0  0  0  0  0  0  0
   -1.6360   -1.2010    3.0320 S   0  0  0  0  0  0  0  0  0  0  0  0
   -0.1710   -2.2370    3.1190 C   0  0  0  0  0  0  0  0  0  0  0  0
    0.0910   -2.9240    1.8290 C   0  0  0  0  0  0  0  0  0  0  0  0
    0.3280   -1.9630    0.6730 C   0  0  2  0  0  0  0  0  0  0  0  0
    1.4430   -1.0870    0.9670 N   0  0  0  0  0  0  0  0  0  0  0  0
   -0.9010   -1.2850    0.2670 C   0  0  0  0  0  0  0  0  0  0  0  0
   -0.9760   -0.0220    0.4000 O   0  0  0  0  0  0  0  0  0  0  0  0
   -3.4920   -2.4320    3.9910 H   0  0  0  0  0  0  0  0  0  0  0  0
   -2.9390   -3.2190    2.4510 H   0  0  0  0  0  0  0  0  0  0  0  0
   -3.9660   -1.6900    2.4540 H   0  0  0  0  0  0  0  0  0  0  0  0
   -0.3950   -3.0050    3.9230 H   0  0  0  0  0  0  0  0  0  0  0  0
    0.7100   -1.6980    3.5290 H   0  0  0  0  0  0  0  0  0  0  0  0
   -0.7650   -3.5780    1.5690 H   0  0  0  0  0  0  0  0  0  0  0  0
    0.9530   -3.6060    1.9760 H   0  0  0  0  0  0  0  0  0  0  0  0
    0.6390   -2.6530   -0.1710 H   0  0  0  0  0  0  0  0  0  0  0  0
    1.3690   -0.2670    1.5910 H   0  0  0  0  0  0  0  0  0  0  0  0
   -3.1310   -1.0080   -2.1990 C   0  0  0  0  0  0  0  0  0  0  0  0
   -3.2160   -1.2580   -0.6760 C   0  0  2  0  0  0  0  0  0  0  0  0
   -2.0300   -1.9750   -0.2850 N   0  0  0  0  0  0  0  0  0  0  0  0
   -4.4500   -2.0040   -0.3620 C   0  0  0  0  0  0  0  0  0  0  0  0
   -4.4390   -3.1370    0.1660 O   0  0  0  0  0  0  0  0  0  0  0  0
   -5.6920   -1.4490   -0.6530 O   0  0  0  0  0  0  0  0  0  0  0  0
   -4.0170   -1.5050   -2.6740 H   0  0  0  0  0  0  0  0  0  0  0  0
   -3.2160    0.0610   -2.4350 H   0  0  0  0  0  0  0  0  0  0  0  0
   -2.2170   -1.4800   -2.5880 H   0  0  0  0  0  0  0  0  0  0  0  0
   -3.1820   -0.2360   -0.2430 H   0  0  0  0  0  0  0  0  0  0  0  0
   -1.9570   -3.0000   -0.3900 H   0  0  0  0  0  0  0  0  0  0  0  0
  1 13  1  0  0  0  0
  1 12  1  0  0  0  0
  1  2  1  0  0  0  0
  2 14  1  1  0  0  0
  3 15  1  0  0  0  0
  3  4  1  0  0  0  0
  3  2  1  0  0  0  0
  4  9  1  0  0  0  0
  5  6  1  0  0  0  0
  5  4  2  0  0  0  0
  6  7  2  0  0  0  0
  7 19  1  0  0  0  0
  7  8  1  0  0  0  0
  8 20  1  0  0  0  0
  9  8  2  0  0  0  0
  9 21  1  0  0  0  0
 10  2  1  0  0  0  0
 10 27  1  0  0  0  0
 11 10  2  0  0  0  0
 16  3  1  0  0  0  0
 17  5  1  0  0  0  0
 18  6  1  0  0  0  0
 22 23  1  0  0  0  0
 22 30  1  0  0  0  0
 23 24  1  0  0  0  0
 24 34  1  0  0  0  0
 24 33  1  0  0  0  0
 25 36  1  0  0  0  0
 25 24  1  0  0  0  0
 26 37  1  6  0  0  0
 26 27  1  0  0  0  0
 26 25  1  0  0  0  0
 27 38  1  0  0  0  0
 28 29  2  0  0  0  0
 28 26  1  0  0  0  0
 31 22  1  0  0  0  0
 32 22  1  0  0  0  0
 35 25  1  0  0  0  0
 39 40  1  0  0  0  0
 40 42  1  0  0  0  0
 40 41  1  0  0  0  0
 40 48  1  1  0  0  0
 41 28  1  0  0  0  0
 42 43  1  0  0  0  0
 44 42  2  0  0  0  0
 45 39  1  0  0  0  0
 46 39  1  0  0  0  0
 47 39  1  0  0  0  0
 49 41  1  0  0  0  0
M  END
$$$$
