FMF.pdb
 OpenBabel07022419003D

 59 60  0  0  1  0  0  0  0  0999 V2000
    2.4170    0.1700    3.5520 N   0  0  0  0  0  0  0  0  0  0  0  0
    2.0790    0.4190    2.1640 C   0  0  1  0  0  0  0  0  0  0  0  0
    3.0120   -0.4290    1.3200 C   0  0  0  0  0  0  0  0  0  0  0  0
    4.4100   -0.0340    1.6020 C   0  0  0  0  0  0  0  0  0  0  0  0
    5.1630   -0.6290    2.6010 C   0  0  0  0  0  0  0  0  0  0  0  0
    6.4610   -0.2310    2.8310 C   0  0  0  0  0  0  0  0  0  0  0  0
    7.0700    0.7690    2.0860 C   0  0  0  0  0  0  0  0  0  0  0  0
    6.3230    1.3600    1.0950 C   0  0  0  0  0  0  0  0  0  0  0  0
    5.0030    0.9610    0.8550 C   0  0  0  0  0  0  0  0  0  0  0  0
    0.6690    0.0880    1.9500 C   0  0  0  0  0  0  0  0  0  0  0  0
   -0.0370   -0.3480    2.8950 O   0  0  0  0  0  0  0  0  0  0  0  0
    2.2660   -0.8570    3.7790 H   0  0  0  0  0  0  0  0  0  0  0  0
    1.7440    0.6940    4.1710 H   0  0  0  0  0  0  0  0  0  0  0  0
    2.3330    1.4710    1.9500 H   0  0  0  0  0  0  0  0  0  0  0  0
    2.8440   -1.5110    1.4800 H   0  0  0  0  0  0  0  0  0  0  0  0
    2.8180   -0.2030    0.2490 H   0  0  0  0  0  0  0  0  0  0  0  0
    4.6610   -1.4070    3.1660 H   0  0  0  0  0  0  0  0  0  0  0  0
    7.0410   -0.7150    3.6260 H   0  0  0  0  0  0  0  0  0  0  0  0
    8.0910    1.0330    2.3180 H   0  0  0  0  0  0  0  0  0  0  0  0
    6.7950    2.1400    0.5130 H   0  0  0  0  0  0  0  0  0  0  0  0
    4.4540    1.4570    0.0630 H   0  0  0  0  0  0  0  0  0  0  0  0
   -2.0710    4.5760   -0.5300 C   0  0  0  0  0  0  0  0  0  0  0  0
   -2.8080    3.7110    0.8580 S   0  0  0  0  0  0  0  0  0  0  0  0
   -1.9490    2.1930    1.2930 C   0  0  0  0  0  0  0  0  0  0  0  0
   -2.1040    1.2050    0.1600 C   0  0  0  0  0  0  0  0  0  0  0  0
   -1.3810   -0.1050    0.5000 C   0  0  2  0  0  0  0  0  0  0  0  0
    0.0020    0.2250    0.6950 N   0  0  0  0  0  0  0  0  0  0  0  0
   -1.5760   -0.9930   -0.6950 C   0  0  0  0  0  0  0  0  0  0  0  0
   -0.6030   -1.3710   -1.4120 O   0  0  0  0  0  0  0  0  0  0  0  0
   -1.6500    5.5340   -0.1490 H   0  0  0  0  0  0  0  0  0  0  0  0
   -1.2960    3.9440   -1.0140 H   0  0  0  0  0  0  0  0  0  0  0  0
   -2.8220    4.8570   -1.3100 H   0  0  0  0  0  0  0  0  0  0  0  0
   -2.4370    1.7610    2.1760 H   0  0  0  0  0  0  0  0  0  0  0  0
   -0.8590    2.3390    1.4720 H   0  0  0  0  0  0  0  0  0  0  0  0
   -1.6610    1.6550   -0.7530 H   0  0  0  0  0  0  0  0  0  0  0  0
   -3.1620    0.9750   -0.0380 H   0  0  0  0  0  0  0  0  0  0  0  0
   -1.8770   -0.4850    1.3990 H   0  0  0  0  0  0  0  0  0  0  0  0
    0.5620    0.5830   -0.1050 H   0  0  0  0  0  0  0  0  0  0  0  0
   -2.8630   -1.4520   -1.0780 N   0  0  0  0  0  0  0  0  0  0  0  0
   -3.0900   -2.3070   -2.2220 C   0  0  1  0  0  0  0  0  0  0  0  0
   -3.7220   -3.5960   -1.6790 C   0  0  0  0  0  0  0  0  0  0  0  0
   -2.7900   -4.2450   -0.7050 C   0  0  0  0  0  0  0  0  0  0  0  0
   -1.8650   -5.1630   -1.1480 C   0  0  0  0  0  0  0  0  0  0  0  0
   -0.9910   -5.7800   -0.2850 C   0  0  0  0  0  0  0  0  0  0  0  0
   -1.0310   -5.4790    1.0670 C   0  0  0  0  0  0  0  0  0  0  0  0
   -1.9600   -4.5550    1.5220 C   0  0  0  0  0  0  0  0  0  0  0  0
   -2.8250   -3.9500    0.6390 C   0  0  0  0  0  0  0  0  0  0  0  0
   -4.0630   -1.7100   -3.1700 C   0  0  0  0  0  0  0  0  0  0  0  0
   -4.5510   -0.5750   -2.8710 O   0  0  0  0  0  0  0  0  0  0  0  0
   -4.4490   -2.3310   -4.3420 O   0  0  0  0  0  0  0  0  0  0  0  0
   -3.6590   -1.1380   -0.4840 H   0  0  0  0  0  0  0  0  0  0  0  0
   -2.1710   -2.5570   -2.7600 H   0  0  0  0  0  0  0  0  0  0  0  0
   -3.8700   -4.3300   -2.4990 H   0  0  0  0  0  0  0  0  0  0  0  0
   -4.6930   -3.3890   -1.2210 H   0  0  0  0  0  0  0  0  0  0  0  0
   -1.8650   -5.3740   -2.2240 H   0  0  0  0  0  0  0  0  0  0  0  0
   -0.2780   -6.5020   -0.6980 H   0  0  0  0  0  0  0  0  0  0  0  0
   -0.3280   -5.9850    1.7140 H   0  0  0  0  0  0  0  0  0  0  0  0
   -1.9750   -4.3300    2.5960 H   0  0  0  0  0  0  0  0  0  0  0  0
   -3.5490   -3.2220    1.0290 H   0  0  0  0  0  0  0  0  0  0  0  0
  1 12  1  0  0  0  0
  1 13  1  0  0  0  0
  2 14  1  6  0  0  0
  2  1  1  0  0  0  0
  3 15  1  0  0  0  0
  3  4  1  0  0  0  0
  3  2  1  0  0  0  0
  4  5  1  0  0  0  0
  5  6  2  0  0  0  0
  5 17  1  0  0  0  0
  6 18  1  0  0  0  0
  7 19  1  0  0  0  0
  7  6  1  0  0  0  0
  8  7  2  0  0  0  0
  9  8  1  0  0  0  0
  9  4  2  0  0  0  0
 10  2  1  0  0  0  0
 10 11  2  0  0  0  0
 16  3  1  0  0  0  0
 20  8  1  0  0  0  0
 21  9  1  0  0  0  0
 22 30  1  0  0  0  0
 22 23  1  0  0  0  0
 23 24  1  0  0  0  0
 24 34  1  0  0  0  0
 24 33  1  0  0  0  0
 25 26  1  0  0  0  0
 25 24  1  0  0  0  0
 26 27  1  0  0  0  0
 26 37  1  1  0  0  0
 27 10  1  0  0  0  0
 28 26  1  0  0  0  0
 29 28  2  0  0  0  0
 31 22  1  0  0  0  0
 32 22  1  0  0  0  0
 35 25  1  0  0  0  0
 36 25  1  0  0  0  0
 38 27  1  0  0  0  0
 39 28  1  0  0  0  0
 39 51  1  0  0  0  0
 40 52  1  6  0  0  0
 40 41  1  0  0  0  0
 40 39  1  0  0  0  0
 41 54  1  0  0  0  0
 41 42  1  0  0  0  0
 42 47  1  0  0  0  0
 43 42  2  0  0  0  0
 43 44  1  0  0  0  0
 44 45  2  0  0  0  0
 45 46  1  0  0  0  0
 45 57  1  0  0  0  0
 46 58  1  0  0  0  0
 47 59  1  0  0  0  0
 47 46  2  0  0  0  0
 48 49  1  0  0  0  0
 48 40  1  0  0  0  0
 50 48  2  0  0  0  0
 53 41  1  0  0  0  0
 55 43  1  0  0  0  0
 56 44  1  0  0  0  0
M  END
$$$$
