FMG.pdb
 OpenBabel07022419003D

 46 46  0  0  1  0  0  0  0  0999 V2000
   -0.4030   -2.6230   -1.1060 N   0  0  0  0  0  0  0  0  0  0  0  0
    0.2310   -3.0520    0.1100 C   0  0  1  0  0  0  0  0  0  0  0  0
    1.6460   -3.5250   -0.0780 C   0  0  0  0  0  0  0  0  0  0  0  0
    2.5320   -2.4790   -0.6350 C   0  0  0  0  0  0  0  0  0  0  0  0
    2.6650   -2.3700   -2.0000 C   0  0  0  0  0  0  0  0  0  0  0  0
    3.4780   -1.4100   -2.5710 C   0  0  0  0  0  0  0  0  0  0  0  0
    4.1770   -0.5370   -1.7660 C   0  0  0  0  0  0  0  0  0  0  0  0
    4.0310   -0.6600   -0.3900 C   0  0  0  0  0  0  0  0  0  0  0  0
    3.2230   -1.6150    0.1600 C   0  0  0  0  0  0  0  0  0  0  0  0
    0.0890   -2.0680    1.2060 C   0  0  0  0  0  0  0  0  0  0  0  0
    0.6230   -2.3620    2.3170 O   0  0  0  0  0  0  0  0  0  0  0  0
   -1.4480   -2.6110   -0.9150 H   0  0  0  0  0  0  0  0  0  0  0  0
   -0.1650   -1.6470   -1.3880 H   0  0  0  0  0  0  0  0  0  0  0  0
   -0.3470   -3.9630    0.4500 H   0  0  0  0  0  0  0  0  0  0  0  0
    2.0270   -3.8370    0.9100 H   0  0  0  0  0  0  0  0  0  0  0  0
    1.6230   -4.3870   -0.7760 H   0  0  0  0  0  0  0  0  0  0  0  0
    2.1290   -3.0430   -2.6870 H   0  0  0  0  0  0  0  0  0  0  0  0
    3.5910   -1.3150   -3.6560 H   0  0  0  0  0  0  0  0  0  0  0  0
    4.8140    0.2150   -2.1910 H   0  0  0  0  0  0  0  0  0  0  0  0
    4.6000    0.0500    0.2390 H   0  0  0  0  0  0  0  0  0  0  0  0
    3.1390   -1.6740    1.2280 H   0  0  0  0  0  0  0  0  0  0  0  0
    2.0090    3.4870    0.1920 C   0  0  0  0  0  0  0  0  0  0  0  0
    0.2740    3.7340    0.6180 S   0  0  0  0  0  0  0  0  0  0  0  0
   -0.6110    2.1530    0.7800 C   0  0  0  0  0  0  0  0  0  0  0  0
   -0.0530    1.4120    1.9640 C   0  0  0  0  0  0  0  0  0  0  0  0
   -0.7010    0.0880    2.2050 C   0  0  2  0  0  0  0  0  0  0  0  0
   -0.5860   -0.8390    1.1180 N   0  0  0  0  0  0  0  0  0  0  0  0
   -2.0970    0.2710    2.6600 C   0  0  0  0  0  0  0  0  0  0  0  0
   -2.3170    1.0630    3.6100 O   0  0  0  0  0  0  0  0  0  0  0  0
    2.6370    3.9250    0.9920 H   0  0  0  0  0  0  0  0  0  0  0  0
    2.2990    3.9900   -0.7530 H   0  0  0  0  0  0  0  0  0  0  0  0
    2.2760    2.4190    0.0830 H   0  0  0  0  0  0  0  0  0  0  0  0
   -0.5380    1.6250   -0.1670 H   0  0  0  0  0  0  0  0  0  0  0  0
   -1.6780    2.4070    0.9450 H   0  0  0  0  0  0  0  0  0  0  0  0
   -0.2630    2.0440    2.8630 H   0  0  0  0  0  0  0  0  0  0  0  0
    1.0350    1.2870    1.9280 H   0  0  0  0  0  0  0  0  0  0  0  0
   -0.1570   -0.3740    3.0800 H   0  0  0  0  0  0  0  0  0  0  0  0
   -1.0270   -0.5890    0.2110 H   0  0  0  0  0  0  0  0  0  0  0  0
   -3.1880   -0.4230    2.0560 N   0  0  0  0  0  0  0  0  0  0  0  0
   -4.5150   -0.1940    2.5520 C   0  0  0  0  0  0  0  0  0  0  0  0
   -4.6050   -0.5690    3.9960 C   0  0  0  0  0  0  0  0  0  0  0  0
   -5.7030   -0.4360    4.6100 O   0  0  0  0  0  0  0  0  0  0  0  0
   -3.5430   -1.0640    4.7230 O   0  0  0  0  0  0  0  0  0  0  0  0
   -2.9440   -1.0680    1.2710 H   0  0  0  0  0  0  0  0  0  0  0  0
   -5.2350   -0.8120    1.9840 H   0  0  0  0  0  0  0  0  0  0  0  0
   -4.7380    0.8750    2.4870 H   0  0  0  0  0  0  0  0  0  0  0  0
  1 12  1  0  0  0  0
  1  2  1  0  0  0  0
  2 14  1  1  0  0  0
  2 10  1  0  0  0  0
  3  2  1  0  0  0  0
  3 15  1  0  0  0  0
  4  3  1  0  0  0  0
  4  9  1  0  0  0  0
  5  4  2  0  0  0  0
  6  5  1  0  0  0  0
  6  7  2  0  0  0  0
  7  8  1  0  0  0  0
  8  9  2  0  0  0  0
  8 20  1  0  0  0  0
  9 21  1  0  0  0  0
 10 11  2  0  0  0  0
 13  1  1  0  0  0  0
 16  3  1  0  0  0  0
 17  5  1  0  0  0  0
 18  6  1  0  0  0  0
 19  7  1  0  0  0  0
 22 23  1  0  0  0  0
 22 30  1  0  0  0  0
 23 24  1  0  0  0  0
 24 34  1  0  0  0  0
 24 25  1  0  0  0  0
 25 26  1  0  0  0  0
 25 35  1  0  0  0  0
 26 28  1  0  0  0  0
 26 37  1  1  0  0  0
 27 10  1  0  0  0  0
 27 26  1  0  0  0  0
 28 29  2  0  0  0  0
 31 22  1  0  0  0  0
 32 22  1  0  0  0  0
 33 24  1  0  0  0  0
 36 25  1  0  0  0  0
 38 27  1  0  0  0  0
 39 40  1  0  0  0  0
 39 28  1  0  0  0  0
 40 41  1  0  0  0  0
 41 42  2  0  0  0  0
 41 43  1  0  0  0  0
 44 39  1  0  0  0  0
 45 40  1  0  0  0  0
 46 40  1  0  0  0  0
M  END
$$$$
