FMI.pdb
 OpenBabel07022419003D

 58 58  0  0  1  0  0  0  0  0999 V2000
    2.6720   -0.0580    2.3280 N   0  0  0  0  0  0  0  0  0  0  0  0
    2.0320    0.9760    1.5950 C   0  0  1  0  0  0  0  0  0  0  0  0
    2.6580    1.0360    0.2040 C   0  0  0  0  0  0  0  0  0  0  0  0
    4.0960    1.3140    0.2330 C   0  0  0  0  0  0  0  0  0  0  0  0
    4.9810    0.2600    0.2920 C   0  0  0  0  0  0  0  0  0  0  0  0
    6.3450    0.4840    0.3210 C   0  0  0  0  0  0  0  0  0  0  0  0
    6.8260    1.7670    0.2910 C   0  0  0  0  0  0  0  0  0  0  0  0
    5.9490    2.8260    0.2330 C   0  0  0  0  0  0  0  0  0  0  0  0
    4.6010    2.6120    0.2030 C   0  0  0  0  0  0  0  0  0  0  0  0
    0.5670    0.7760    1.3790 C   0  0  0  0  0  0  0  0  0  0  0  0
    0.0190    1.6200    0.6450 O   0  0  0  0  0  0  0  0  0  0  0  0
    2.9620    0.1410    3.2830 H   0  0  0  0  0  0  0  0  0  0  0  0
    2.3660   -0.9970    2.0830 H   0  0  0  0  0  0  0  0  0  0  0  0
    2.1410    1.9600    2.1020 H   0  0  0  0  0  0  0  0  0  0  0  0
    2.5030    0.0250   -0.2400 H   0  0  0  0  0  0  0  0  0  0  0  0
    2.1310    1.7670   -0.4550 H   0  0  0  0  0  0  0  0  0  0  0  0
    4.5830   -0.7600    0.3140 H   0  0  0  0  0  0  0  0  0  0  0  0
    7.0060   -0.3920    0.3690 H   0  0  0  0  0  0  0  0  0  0  0  0
    7.8960    1.9280    0.3150 H   0  0  0  0  0  0  0  0  0  0  0  0
    6.2900    3.8700    0.2070 H   0  0  0  0  0  0  0  0  0  0  0  0
    3.8480    3.4020    0.1570 H   0  0  0  0  0  0  0  0  0  0  0  0
   -0.1070    0.9880    4.5940 C   0  0  0  0  0  0  0  0  0  0  0  0
   -1.0830    2.1700    3.6540 S   0  0  0  0  0  0  0  0  0  0  0  0
   -2.5080    1.5470    2.8480 C   0  0  0  0  0  0  0  0  0  0  0  0
   -2.4350    0.7200    1.6270 C   0  0  0  0  0  0  0  0  0  0  0  0
   -1.5980   -0.4940    1.7450 C   0  0  2  0  0  0  0  0  0  0  0  0
   -0.1830   -0.2820    1.9440 N   0  0  0  0  0  0  0  0  0  0  0  0
   -1.8260   -1.5260    0.7010 C   0  0  0  0  0  0  0  0  0  0  0  0
   -0.8340   -2.0020    0.1350 O   0  0  0  0  0  0  0  0  0  0  0  0
   -0.5880   -0.0080    4.6880 H   0  0  0  0  0  0  0  0  0  0  0  0
   -0.0390    1.3930    5.6510 H   0  0  0  0  0  0  0  0  0  0  0  0
    0.9290    0.8900    4.2690 H   0  0  0  0  0  0  0  0  0  0  0  0
   -3.2170    2.4390    2.6890 H   0  0  0  0  0  0  0  0  0  0  0  0
   -3.1090    0.9560    3.6280 H   0  0  0  0  0  0  0  0  0  0  0  0
   -2.2340    1.3160    0.6980 H   0  0  0  0  0  0  0  0  0  0  0  0
   -3.5070    0.3210    1.4800 H   0  0  0  0  0  0  0  0  0  0  0  0
   -1.9350   -0.9090    2.7810 H   0  0  0  0  0  0  0  0  0  0  0  0
    0.3950   -0.9460    2.5480 H   0  0  0  0  0  0  0  0  0  0  0  0
   -0.6700   -3.1960   -3.2280 C   0  0  0  0  0  0  0  0  0  0  0  0
   -1.8070   -2.4930   -2.5170 C   0  0  0  0  0  0  0  0  0  0  0  0
   -2.4560   -3.4690   -1.5850 C   0  0  2  0  0  0  0  0  0  0  0  0
   -2.9950   -4.5950   -2.4200 C   0  0  0  0  0  0  0  0  0  0  0  0
   -3.4760   -2.9410   -0.6620 C   0  0  2  0  0  0  0  0  0  0  0  0
   -3.0940   -1.9910    0.3210 N   0  0  0  0  0  0  0  0  0  0  0  0
   -4.3490   -3.9840   -0.1330 C   0  0  0  0  0  0  0  0  0  0  0  0
   -4.6400   -3.9620    1.1210 O   0  0  0  0  0  0  0  0  0  0  0  0
   -4.9270   -5.0300   -0.8240 O   0  0  0  0  0  0  0  0  0  0  0  0
   -0.9290   -3.6250   -4.1960 H   0  0  0  0  0  0  0  0  0  0  0  0
   -0.3150   -4.0030   -2.5490 H   0  0  0  0  0  0  0  0  0  0  0  0
    0.2110   -2.5080   -3.3260 H   0  0  0  0  0  0  0  0  0  0  0  0
   -2.5820   -2.3520   -3.3730 H   0  0  0  0  0  0  0  0  0  0  0  0
   -1.6300   -1.4890   -2.1970 H   0  0  0  0  0  0  0  0  0  0  0  0
   -1.6340   -3.9730   -0.9570 H   0  0  0  0  0  0  0  0  0  0  0  0
   -2.9930   -5.5810   -1.9180 H   0  0  0  0  0  0  0  0  0  0  0  0
   -4.0120   -4.4270   -2.8220 H   0  0  0  0  0  0  0  0  0  0  0  0
   -2.3620   -4.7650   -3.3380 H   0  0  0  0  0  0  0  0  0  0  0  0
   -4.1420   -2.3030   -1.3910 H   0  0  0  0  0  0  0  0  0  0  0  0
   -3.9050   -1.5540    0.8680 H   0  0  0  0  0  0  0  0  0  0  0  0
  1 12  1  0  0  0  0
  2 14  1  1  0  0  0
  2  1  1  0  0  0  0
  3  4  1  0  0  0  0
  3  2  1  0  0  0  0
  4  5  1  0  0  0  0
  5 17  1  0  0  0  0
  5  6  2  0  0  0  0
  6 18  1  0  0  0  0
  7 19  1  0  0  0  0
  7  6  1  0  0  0  0
  8  7  2  0  0  0  0
  9  8  1  0  0  0  0
  9  4  2  0  0  0  0
 10  2  1  0  0  0  0
 10 27  1  0  0  0  0
 11 10  2  0  0  0  0
 13  1  1  0  0  0  0
 15  3  1  0  0  0  0
 16  3  1  0  0  0  0
 20  8  1  0  0  0  0
 21  9  1  0  0  0  0
 22 30  1  0  0  0  0
 22 31  1  0  0  0  0
 23 22  1  0  0  0  0
 24 34  1  0  0  0  0
 24 23  1  0  0  0  0
 25 26  1  0  0  0  0
 25 24  1  0  0  0  0
 26 27  1  0  0  0  0
 26 37  1  1  0  0  0
 27 38  1  0  0  0  0
 28 26  1  0  0  0  0
 29 28  2  0  0  0  0
 32 22  1  0  0  0  0
 33 24  1  0  0  0  0
 35 25  1  0  0  0  0
 36 25  1  0  0  0  0
 39 49  1  0  0  0  0
 39 40  1  0  0  0  0
 40 52  1  0  0  0  0
 40 41  1  0  0  0  0
 41 53  1  1  0  0  0
 41 43  1  0  0  0  0
 42 54  1  0  0  0  0
 42 41  1  0  0  0  0
 43 57  1  6  0  0  0
 43 45  1  0  0  0  0
 43 44  1  0  0  0  0
 44 28  1  0  0  0  0
 44 58  1  0  0  0  0
 45 46  1  0  0  0  0
 47 45  2  0  0  0  0
 48 39  1  0  0  0  0
 50 39  1  0  0  0  0
 51 40  1  0  0  0  0
 55 42  1  0  0  0  0
 56 42  1  0  0  0  0
M  END
$$$$
