FMK.pdb
 OpenBabel07022419003D

 60 60  0  0  1  0  0  0  0  0999 V2000
   -0.4940    0.5820    3.5220 N   0  0  0  0  0  0  0  0  0  0  0  0
    0.4310    1.1670    2.6120 C   0  0  1  0  0  0  0  0  0  0  0  0
    1.7850    0.5600    2.5820 C   0  0  0  0  0  0  0  0  0  0  0  0
    2.5230    0.5900    3.8360 C   0  0  0  0  0  0  0  0  0  0  0  0
    2.4110   -0.4480    4.7320 C   0  0  0  0  0  0  0  0  0  0  0  0
    3.0950   -0.4640    5.9410 C   0  0  0  0  0  0  0  0  0  0  0  0
    3.9060    0.5780    6.2570 C   0  0  0  0  0  0  0  0  0  0  0  0
    4.0450    1.6360    5.3880 C   0  0  0  0  0  0  0  0  0  0  0  0
    3.3500    1.6390    4.1730 C   0  0  0  0  0  0  0  0  0  0  0  0
   -0.0740    1.2000    1.1900 C   0  0  0  0  0  0  0  0  0  0  0  0
    0.6900    1.6900    0.3520 O   0  0  0  0  0  0  0  0  0  0  0  0
   -0.6710   -0.4230    3.3740 H   0  0  0  0  0  0  0  0  0  0  0  0
   -1.3660    1.1530    3.5230 H   0  0  0  0  0  0  0  0  0  0  0  0
    0.5250    2.2570    2.8920 H   0  0  0  0  0  0  0  0  0  0  0  0
    1.6740   -0.5110    2.2740 H   0  0  0  0  0  0  0  0  0  0  0  0
    2.3510    1.0380    1.7450 H   0  0  0  0  0  0  0  0  0  0  0  0
    1.7780   -1.2990    4.5240 H   0  0  0  0  0  0  0  0  0  0  0  0
    2.9960   -1.2980    6.6450 H   0  0  0  0  0  0  0  0  0  0  0  0
    4.4340    0.5450    7.2120 H   0  0  0  0  0  0  0  0  0  0  0  0
    4.7000    2.4450    5.6780 H   0  0  0  0  0  0  0  0  0  0  0  0
    3.4950    2.4920    3.5280 H   0  0  0  0  0  0  0  0  0  0  0  0
    1.4020    3.2530   -2.7300 C   0  0  0  0  0  0  0  0  0  0  0  0
   -0.3420    3.7320   -2.7280 S   0  0  0  0  0  0  0  0  0  0  0  0
   -1.2360    2.9830   -1.3310 C   0  0  0  0  0  0  0  0  0  0  0  0
   -1.2600    1.5180   -1.5450 C   0  0  0  0  0  0  0  0  0  0  0  0
   -1.9220    0.7050   -0.4580 C   0  0  2  0  0  0  0  0  0  0  0  0
   -1.3230    0.7140    0.8190 N   0  0  0  0  0  0  0  0  0  0  0  0
   -2.3460   -0.5920   -0.8980 C   0  0  0  0  0  0  0  0  0  0  0  0
   -2.9050   -0.6850   -2.0470 O   0  0  0  0  0  0  0  0  0  0  0  0
    1.9840    3.9290   -3.3670 H   0  0  0  0  0  0  0  0  0  0  0  0
    1.8420    3.2750   -1.6980 H   0  0  0  0  0  0  0  0  0  0  0  0
    1.5020    2.2270   -3.1410 H   0  0  0  0  0  0  0  0  0  0  0  0
   -1.0120    3.3960   -0.3660 H   0  0  0  0  0  0  0  0  0  0  0  0
   -2.3230    3.3560   -1.5130 H   0  0  0  0  0  0  0  0  0  0  0  0
   -0.2260    1.1780   -1.7550 H   0  0  0  0  0  0  0  0  0  0  0  0
   -1.8360    1.3130   -2.4760 H   0  0  0  0  0  0  0  0  0  0  0  0
   -2.8990    1.3520   -0.3190 H   0  0  0  0  0  0  0  0  0  0  0  0
   -1.9050    0.2900    1.6160 H   0  0  0  0  0  0  0  0  0  0  0  0
   -2.2010   -1.8090   -0.1630 N   0  0  0  0  0  0  0  0  0  0  0  0
   -2.6640   -3.0530   -0.7030 C   0  0  1  0  0  0  0  0  0  0  0  0
   -1.5560   -4.0600   -0.9290 C   0  0  0  0  0  0  0  0  0  0  0  0
   -0.5650   -3.4510   -1.9110 C   0  0  0  0  0  0  0  0  0  0  0  0
    0.5820   -4.3680   -2.2100 C   0  0  0  0  0  0  0  0  0  0  0  0
    0.0990   -5.6690   -2.8180 C   0  0  0  0  0  0  0  0  0  0  0  0
   -0.6190   -5.3970   -4.0720 N   0  0  0  0  0  0  0  0  0  0  0  0
   -3.6810   -3.6460    0.1990 C   0  0  0  0  0  0  0  0  0  0  0  0
   -4.2400   -4.7400   -0.0530 O   0  0  0  0  0  0  0  0  0  0  0  0
   -4.0360   -2.9850    1.3620 O   0  0  0  0  0  0  0  0  0  0  0  0
   -1.7460   -1.7290    0.7700 H   0  0  0  0  0  0  0  0  0  0  0  0
   -3.1250   -2.8580   -1.7130 H   0  0  0  0  0  0  0  0  0  0  0  0
   -1.0420   -4.3440   -0.0090 H   0  0  0  0  0  0  0  0  0  0  0  0
   -2.0050   -4.9370   -1.4290 H   0  0  0  0  0  0  0  0  0  0  0  0
   -0.1660   -2.5410   -1.4280 H   0  0  0  0  0  0  0  0  0  0  0  0
   -1.0640   -3.1860   -2.8530 H   0  0  0  0  0  0  0  0  0  0  0  0
    1.1420   -4.6340   -1.2950 H   0  0  0  0  0  0  0  0  0  0  0  0
    1.2510   -3.8610   -2.9100 H   0  0  0  0  0  0  0  0  0  0  0  0
    0.9690   -6.3000   -3.0450 H   0  0  0  0  0  0  0  0  0  0  0  0
   -0.5390   -6.1880   -2.0930 H   0  0  0  0  0  0  0  0  0  0  0  0
   -1.6060   -5.1580   -3.8360 H   0  0  0  0  0  0  0  0  0  0  0  0
   -0.6310   -6.3010   -4.6190 H   0  0  0  0  0  0  0  0  0  0  0  0
  1 13  1  0  0  0  0
  2 14  1  1  0  0  0
  2  1  1  0  0  0  0
  3  2  1  0  0  0  0
  3  4  1  0  0  0  0
  4  9  2  0  0  0  0
  4  5  1  0  0  0  0
  5  6  2  0  0  0  0
  6  7  1  0  0  0  0
  6 18  1  0  0  0  0
  7 19  1  0  0  0  0
  8 20  1  0  0  0  0
  8  7  2  0  0  0  0
  9  8  1  0  0  0  0
 10  2  1  0  0  0  0
 11 10  2  0  0  0  0
 12  1  1  0  0  0  0
 15  3  1  0  0  0  0
 16  3  1  0  0  0  0
 17  5  1  0  0  0  0
 21  9  1  0  0  0  0
 22 23  1  0  0  0  0
 22 31  1  0  0  0  0
 23 24  1  0  0  0  0
 24 33  1  0  0  0  0
 25 24  1  0  0  0  0
 25 26  1  0  0  0  0
 26 37  1  1  0  0  0
 26 27  1  0  0  0  0
 27 10  1  0  0  0  0
 27 38  1  0  0  0  0
 28 26  1  0  0  0  0
 28 39  1  0  0  0  0
 29 28  2  0  0  0  0
 30 22  1  0  0  0  0
 32 22  1  0  0  0  0
 34 24  1  0  0  0  0
 35 25  1  0  0  0  0
 36 25  1  0  0  0  0
 39 49  1  0  0  0  0
 40 50  1  6  0  0  0
 40 39  1  0  0  0  0
 40 46  1  0  0  0  0
 41 40  1  0  0  0  0
 41 51  1  0  0  0  0
 42 53  1  0  0  0  0
 42 41  1  0  0  0  0
 43 42  1  0  0  0  0
 43 55  1  0  0  0  0
 44 43  1  0  0  0  0
 44 58  1  0  0  0  0
 45 59  1  0  0  0  0
 45 44  1  0  0  0  0
 46 48  1  0  0  0  0
 47 46  2  0  0  0  0
 52 41  1  0  0  0  0
 54 42  1  0  0  0  0
 56 43  1  0  0  0  0
 57 44  1  0  0  0  0
 60 45  1  0  0  0  0
M  END
$$$$
