FML.pdb
 OpenBabel07022419003D

 58 58  0  0  1  0  0  0  0  0999 V2000
   -2.2010   -0.1530    4.2550 N   0  0  0  0  0  0  0  0  0  0  0  0
   -0.8920    0.0840    3.5820 C   0  0  1  0  0  0  0  0  0  0  0  0
    0.0170   -1.0040    3.9950 C   0  0  0  0  0  0  0  0  0  0  0  0
    1.3830   -0.9680    3.4700 C   0  0  0  0  0  0  0  0  0  0  0  0
    2.2630   -0.0280    4.0130 C   0  0  0  0  0  0  0  0  0  0  0  0
    3.5800    0.0400    3.6370 C   0  0  0  0  0  0  0  0  0  0  0  0
    4.0590   -0.8290    2.7080 C   0  0  0  0  0  0  0  0  0  0  0  0
    3.2380   -1.7650    2.1500 C   0  0  0  0  0  0  0  0  0  0  0  0
    1.9050   -1.8280    2.5360 C   0  0  0  0  0  0  0  0  0  0  0  0
   -1.1020    0.3330    2.1840 C   0  0  0  0  0  0  0  0  0  0  0  0
   -2.3290    0.3810    1.7760 O   0  0  0  0  0  0  0  0  0  0  0  0
   -2.8750    0.4830    3.7770 H   0  0  0  0  0  0  0  0  0  0  0  0
   -2.4370   -1.1550    4.1210 H   0  0  0  0  0  0  0  0  0  0  0  0
   -0.5310    1.0580    4.0810 H   0  0  0  0  0  0  0  0  0  0  0  0
    0.0690   -1.0210    5.1390 H   0  0  0  0  0  0  0  0  0  0  0  0
   -0.4470   -1.9920    3.7070 H   0  0  0  0  0  0  0  0  0  0  0  0
    1.8890    0.6760    4.7620 H   0  0  0  0  0  0  0  0  0  0  0  0
    4.2060    0.7980    4.1020 H   0  0  0  0  0  0  0  0  0  0  0  0
    5.1110   -0.7770    2.4050 H   0  0  0  0  0  0  0  0  0  0  0  0
    3.6450   -2.4530    1.4060 H   0  0  0  0  0  0  0  0  0  0  0  0
    1.2670   -2.5750    2.1150 H   0  0  0  0  0  0  0  0  0  0  0  0
    3.0360    4.0000   -0.2320 C   0  0  0  0  0  0  0  0  0  0  0  0
    1.2970    4.4670   -0.4550 S   0  0  0  0  0  0  0  0  0  0  0  0
    0.2210    3.1200    0.1550 C   0  0  0  0  0  0  0  0  0  0  0  0
    0.3880    1.8770   -0.7220 C   0  0  0  0  0  0  0  0  0  0  0  0
   -0.5110    0.8290   -0.1710 C   0  0  2  0  0  0  0  0  0  0  0  0
   -0.1430    0.5410    1.1900 N   0  0  0  0  0  0  0  0  0  0  0  0
   -0.5620   -0.4170   -0.9820 C   0  0  0  0  0  0  0  0  0  0  0  0
   -0.7140   -0.3560   -2.2450 O   0  0  0  0  0  0  0  0  0  0  0  0
    3.6120    4.7930    0.2740 H   0  0  0  0  0  0  0  0  0  0  0  0
    3.4840    3.7890   -1.2370 H   0  0  0  0  0  0  0  0  0  0  0  0
    3.1290    3.0870    0.3930 H   0  0  0  0  0  0  0  0  0  0  0  0
   -0.8310    3.4590    0.1540 H   0  0  0  0  0  0  0  0  0  0  0  0
    0.5150    2.9390    1.1950 H   0  0  0  0  0  0  0  0  0  0  0  0
    1.4310    1.5820   -0.8130 H   0  0  0  0  0  0  0  0  0  0  0  0
    0.0400    2.1860   -1.7460 H   0  0  0  0  0  0  0  0  0  0  0  0
   -1.5870    1.2370   -0.1230 H   0  0  0  0  0  0  0  0  0  0  0  0
    0.8810    0.5090    1.3990 H   0  0  0  0  0  0  0  0  0  0  0  0
   -3.0090   -2.7440   -3.8200 C   0  0  0  0  0  0  0  0  0  0  0  0
   -2.5700   -2.6270   -2.3510 C   0  0  0  0  0  0  0  0  0  0  0  0
   -3.4390   -3.6790   -1.6370 C   0  0  0  0  0  0  0  0  0  0  0  0
   -1.1360   -2.9930   -2.3090 C   0  0  0  0  0  0  0  0  0  0  0  0
   -0.4890   -2.9290   -0.9380 C   0  0  2  0  0  0  0  0  0  0  0  0
   -0.4430   -1.6550   -0.3230 N   0  0  0  0  0  0  0  0  0  0  0  0
    0.7180   -3.7350   -0.9230 C   0  0  0  0  0  0  0  0  0  0  0  0
    1.8300   -3.4070   -0.4200 O   0  0  0  0  0  0  0  0  0  0  0  0
    0.7080   -5.0150   -1.5120 O   0  0  0  0  0  0  0  0  0  0  0  0
   -4.0950   -2.7940   -3.9210 H   0  0  0  0  0  0  0  0  0  0  0  0
   -2.5920   -3.6790   -4.2650 H   0  0  0  0  0  0  0  0  0  0  0  0
   -2.5420   -1.9140   -4.4200 H   0  0  0  0  0  0  0  0  0  0  0  0
   -2.8980   -1.6760   -1.9770 H   0  0  0  0  0  0  0  0  0  0  0  0
   -3.2230   -4.6820   -2.0300 H   0  0  0  0  0  0  0  0  0  0  0  0
   -3.3600   -3.5720   -0.5560 H   0  0  0  0  0  0  0  0  0  0  0  0
   -4.4830   -3.4280   -1.9400 H   0  0  0  0  0  0  0  0  0  0  0  0
   -0.5800   -2.4820   -3.0900 H   0  0  0  0  0  0  0  0  0  0  0  0
   -1.0780   -4.0930   -2.5880 H   0  0  0  0  0  0  0  0  0  0  0  0
   -1.2930   -3.5090   -0.3190 H   0  0  0  0  0  0  0  0  0  0  0  0
   -0.3240   -1.6750    0.7450 H   0  0  0  0  0  0  0  0  0  0  0  0
  2  3  1  0  0  0  0
  2 14  1  1  0  0  0
  2  1  1  0  0  0  0
  3 15  1  0  0  0  0
  4  3  1  0  0  0  0
  4  5  1  0  0  0  0
  5 17  1  0  0  0  0
  6  5  2  0  0  0  0
  6 18  1  0  0  0  0
  7  6  1  0  0  0  0
  8  9  1  0  0  0  0
  8  7  2  0  0  0  0
  9  4  2  0  0  0  0
 10  2  1  0  0  0  0
 11 10  2  0  0  0  0
 12  1  1  0  0  0  0
 13  1  1  0  0  0  0
 16  3  1  0  0  0  0
 19  7  1  0  0  0  0
 20  8  1  0  0  0  0
 21  9  1  0  0  0  0
 22 30  1  0  0  0  0
 22 32  1  0  0  0  0
 23 22  1  0  0  0  0
 23 24  1  0  0  0  0
 24 34  1  0  0  0  0
 25 26  1  0  0  0  0
 25 24  1  0  0  0  0
 26 37  1  1  0  0  0
 26 27  1  0  0  0  0
 27 38  1  0  0  0  0
 27 10  1  0  0  0  0
 28 44  1  0  0  0  0
 28 26  1  0  0  0  0
 29 28  2  0  0  0  0
 31 22  1  0  0  0  0
 33 24  1  0  0  0  0
 35 25  1  0  0  0  0
 36 25  1  0  0  0  0
 39 40  1  0  0  0  0
 40 42  1  0  0  0  0
 40 51  1  0  0  0  0
 40 41  1  0  0  0  0
 41 53  1  0  0  0  0
 42 43  1  0  0  0  0
 43 45  1  0  0  0  0
 43 44  1  0  0  0  0
 43 57  1  1  0  0  0
 44 58  1  0  0  0  0
 45 46  1  0  0  0  0
 47 45  2  0  0  0  0
 48 39  1  0  0  0  0
 49 39  1  0  0  0  0
 50 39  1  0  0  0  0
 52 41  1  0  0  0  0
 54 41  1  0  0  0  0
 55 42  1  0  0  0  0
 56 42  1  0  0  0  0
M  END
$$$$
