FMM.pdb
 OpenBabel07022419003D

 56 56  0  0  1  0  0  0  0  0999 V2000
   -1.5440    0.9190    3.9130 N   0  0  0  0  0  0  0  0  0  0  0  0
   -0.2040    0.6630    3.2920 C   0  0  1  0  0  0  0  0  0  0  0  0
    0.3590   -0.4510    4.1050 C   0  0  0  0  0  0  0  0  0  0  0  0
    1.6900   -0.8430    3.6680 C   0  0  0  0  0  0  0  0  0  0  0  0
    2.7510   -0.0470    4.1140 C   0  0  0  0  0  0  0  0  0  0  0  0
    4.0280   -0.3950    3.7690 C   0  0  0  0  0  0  0  0  0  0  0  0
    4.2630   -1.5110    2.9950 C   0  0  0  0  0  0  0  0  0  0  0  0
    3.2180   -2.2820    2.5650 C   0  0  0  0  0  0  0  0  0  0  0  0
    1.9160   -1.9460    2.9040 C   0  0  0  0  0  0  0  0  0  0  0  0
   -0.4950    0.3480    1.9000 C   0  0  0  0  0  0  0  0  0  0  0  0
   -1.7140    0.2720    1.5010 O   0  0  0  0  0  0  0  0  0  0  0  0
   -2.1730    1.3530    3.2280 H   0  0  0  0  0  0  0  0  0  0  0  0
   -1.4020    1.4790    4.7770 H   0  0  0  0  0  0  0  0  0  0  0  0
    0.3650    1.6160    3.4260 H   0  0  0  0  0  0  0  0  0  0  0  0
    0.3410   -0.0990    5.1760 H   0  0  0  0  0  0  0  0  0  0  0  0
   -0.3740   -1.3030    4.0210 H   0  0  0  0  0  0  0  0  0  0  0  0
    2.5430    0.8320    4.7250 H   0  0  0  0  0  0  0  0  0  0  0  0
    4.8400    0.2330    4.1220 H   0  0  0  0  0  0  0  0  0  0  0  0
    5.2770   -1.7720    2.7310 H   0  0  0  0  0  0  0  0  0  0  0  0
    3.3840   -3.1690    1.9520 H   0  0  0  0  0  0  0  0  0  0  0  0
    1.1290   -2.5840    2.5560 H   0  0  0  0  0  0  0  0  0  0  0  0
    1.3980    2.9520    0.8860 C   0  0  0  0  0  0  0  0  0  0  0  0
    2.2110    2.3900   -0.5850 S   0  0  0  0  0  0  0  0  0  0  0  0
    1.2890    1.5040   -1.7800 C   0  0  0  0  0  0  0  0  0  0  0  0
    0.8550    0.1100   -1.5510 C   0  0  0  0  0  0  0  0  0  0  0  0
   -0.0360   -0.1840   -0.4520 C   0  0  2  0  0  0  0  0  0  0  0  0
    0.4670    0.0980    0.8560 N   0  0  0  0  0  0  0  0  0  0  0  0
   -0.5900   -1.5940   -0.5160 C   0  0  0  0  0  0  0  0  0  0  0  0
   -0.5650   -2.3010    0.5080 O   0  0  0  0  0  0  0  0  0  0  0  0
    0.3020    2.8850    0.8790 H   0  0  0  0  0  0  0  0  0  0  0  0
    1.6190    4.0600    1.0180 H   0  0  0  0  0  0  0  0  0  0  0  0
    1.7760    2.4740    1.8190 H   0  0  0  0  0  0  0  0  0  0  0  0
    1.8470    1.5890   -2.7830 H   0  0  0  0  0  0  0  0  0  0  0  0
    0.3500    2.1490   -2.0100 H   0  0  0  0  0  0  0  0  0  0  0  0
    1.8360   -0.4830   -1.4270 H   0  0  0  0  0  0  0  0  0  0  0  0
    0.4170   -0.2460   -2.5490 H   0  0  0  0  0  0  0  0  0  0  0  0
   -1.0060    0.4250   -0.5720 H   0  0  0  0  0  0  0  0  0  0  0  0
    1.4790    0.1340    1.0860 H   0  0  0  0  0  0  0  0  0  0  0  0
   -3.7930   -0.0720   -2.8800 C   0  0  0  0  0  0  0  0  0  0  0  0
   -3.6920   -1.0040   -1.3680 S   0  0  0  0  0  0  0  0  0  0  0  0
   -4.0620   -2.7470   -1.5500 C   0  0  0  0  0  0  0  0  0  0  0  0
   -3.0610   -3.5020   -2.3760 C   0  0  0  0  0  0  0  0  0  0  0  0
   -1.6750   -3.4600   -1.8190 C   0  0  2  0  0  0  0  0  0  0  0  0
   -1.1350   -2.1340   -1.7040 N   0  0  0  0  0  0  0  0  0  0  0  0
   -0.8170   -4.3120   -2.7200 C   0  0  0  0  0  0  0  0  0  0  0  0
   -1.1190   -5.5100   -2.9580 O   0  0  0  0  0  0  0  0  0  0  0  0
    0.3330   -3.8280   -3.3240 O   0  0  0  0  0  0  0  0  0  0  0  0
   -4.8250   -0.1370   -3.3220 H   0  0  0  0  0  0  0  0  0  0  0  0
   -3.0580   -0.3400   -3.6440 H   0  0  0  0  0  0  0  0  0  0  0  0
   -3.6250    1.0040   -2.6320 H   0  0  0  0  0  0  0  0  0  0  0  0
   -4.1940   -3.2670   -0.5870 H   0  0  0  0  0  0  0  0  0  0  0  0
   -5.0470   -2.8310   -2.0860 H   0  0  0  0  0  0  0  0  0  0  0  0
   -3.3870   -4.5620   -2.3920 H   0  0  0  0  0  0  0  0  0  0  0  0
   -3.0330   -3.1730   -3.4340 H   0  0  0  0  0  0  0  0  0  0  0  0
   -1.6060   -3.9660   -0.8250 H   0  0  0  0  0  0  0  0  0  0  0  0
   -1.1480   -1.5260   -2.5500 H   0  0  0  0  0  0  0  0  0  0  0  0
  1 13  1  0  0  0  0
  2 14  1  1  0  0  0
  2  1  1  0  0  0  0
  2  3  1  0  0  0  0
  3 15  1  0  0  0  0
  4  3  1  0  0  0  0
  4  5  1  0  0  0  0
  5 17  1  0  0  0  0
  6  5  2  0  0  0  0
  6 18  1  0  0  0  0
  7  6  1  0  0  0  0
  8  9  1  0  0  0  0
  8  7  2  0  0  0  0
  9  4  2  0  0  0  0
 10  2  1  0  0  0  0
 11 10  2  0  0  0  0
 12  1  1  0  0  0  0
 16  3  1  0  0  0  0
 19  7  1  0  0  0  0
 20  8  1  0  0  0  0
 21  9  1  0  0  0  0
 22 31  1  0  0  0  0
 22 32  1  0  0  0  0
 23 22  1  0  0  0  0
 24 25  1  0  0  0  0
 24 23  1  0  0  0  0
 25 35  1  0  0  0  0
 25 26  1  0  0  0  0
 26 37  1  6  0  0  0
 26 27  1  0  0  0  0
 27 38  1  0  0  0  0
 27 10  1  0  0  0  0
 28 26  1  0  0  0  0
 28 29  2  0  0  0  0
 30 22  1  0  0  0  0
 33 24  1  0  0  0  0
 34 24  1  0  0  0  0
 36 25  1  0  0  0  0
 39 50  1  0  0  0  0
 39 40  1  0  0  0  0
 41 40  1  0  0  0  0
 41 51  1  0  0  0  0
 42 43  1  0  0  0  0
 42 41  1  0  0  0  0
 43 44  1  0  0  0  0
 43 55  1  1  0  0  0
 44 28  1  0  0  0  0
 45 43  1  0  0  0  0
 46 45  1  0  0  0  0
 47 45  2  0  0  0  0
 48 39  1  0  0  0  0
 49 39  1  0  0  0  0
 52 41  1  0  0  0  0
 53 42  1  0  0  0  0
 54 42  1  0  0  0  0
 56 44  1  0  0  0  0
M  END
$$$$
