FMQ.pdb
 OpenBabel07022419003D

 56 56  0  0  1  0  0  0  0  0999 V2000
    1.3930   -0.8570    4.1580 N   0  0  0  0  0  0  0  0  0  0  0  0
    1.1520   -0.5350    2.7680 C   0  0  1  0  0  0  0  0  0  0  0  0
    1.9690   -1.4530    1.9170 C   0  0  0  0  0  0  0  0  0  0  0  0
    3.4010   -1.2450    2.2620 C   0  0  0  0  0  0  0  0  0  0  0  0
    4.0250   -1.9790    3.2570 C   0  0  0  0  0  0  0  0  0  0  0  0
    5.3590   -1.7840    3.5770 C   0  0  0  0  0  0  0  0  0  0  0  0
    6.1170   -0.8470    2.9090 C   0  0  0  0  0  0  0  0  0  0  0  0
    5.4940   -0.1160    1.9160 C   0  0  0  0  0  0  0  0  0  0  0  0
    4.1670   -0.3090    1.5980 C   0  0  0  0  0  0  0  0  0  0  0  0
   -0.2970   -0.5910    2.4460 C   0  0  0  0  0  0  0  0  0  0  0  0
   -1.0930   -0.8890    3.3680 O   0  0  0  0  0  0  0  0  0  0  0  0
    2.2730   -0.4770    4.5310 H   0  0  0  0  0  0  0  0  0  0  0  0
    1.2460   -1.8780    4.3430 H   0  0  0  0  0  0  0  0  0  0  0  0
    1.5190    0.5100    2.5950 H   0  0  0  0  0  0  0  0  0  0  0  0
    1.7110   -2.5080    2.2080 H   0  0  0  0  0  0  0  0  0  0  0  0
    1.8300   -1.2880    0.8320 H   0  0  0  0  0  0  0  0  0  0  0  0
    3.4270   -2.7130    3.7790 H   0  0  0  0  0  0  0  0  0  0  0  0
    5.8500   -2.3550    4.3540 H   0  0  0  0  0  0  0  0  0  0  0  0
    7.1650   -0.6740    3.1390 H   0  0  0  0  0  0  0  0  0  0  0  0
    6.0880    0.6270    1.3850 H   0  0  0  0  0  0  0  0  0  0  0  0
    3.6840    0.2710    0.8150 H   0  0  0  0  0  0  0  0  0  0  0  0
   -2.4130    4.1240   -0.7320 C   0  0  0  0  0  0  0  0  0  0  0  0
   -3.2980    3.5530    0.7320 S   0  0  0  0  0  0  0  0  0  0  0  0
   -2.5820    2.0300    1.4070 C   0  0  0  0  0  0  0  0  0  0  0  0
   -2.7850    0.9030    0.4160 C   0  0  0  0  0  0  0  0  0  0  0  0
   -2.2180   -0.3940    0.9040 C   0  0  2  0  0  0  0  0  0  0  0  0
   -0.7960   -0.3210    1.1490 N   0  0  0  0  0  0  0  0  0  0  0  0
   -2.5550   -1.4520   -0.0830 C   0  0  0  0  0  0  0  0  0  0  0  0
   -3.7550   -1.6400   -0.4010 O   0  0  0  0  0  0  0  0  0  0  0  0
   -2.6330    5.2070   -0.8810 H   0  0  0  0  0  0  0  0  0  0  0  0
   -2.7770    3.5780   -1.6200 H   0  0  0  0  0  0  0  0  0  0  0  0
   -1.3210    3.9720   -0.5860 H   0  0  0  0  0  0  0  0  0  0  0  0
   -1.5180    2.1570    1.6740 H   0  0  0  0  0  0  0  0  0  0  0  0
   -3.1260    1.8090    2.3480 H   0  0  0  0  0  0  0  0  0  0  0  0
   -2.3740    1.2110   -0.5710 H   0  0  0  0  0  0  0  0  0  0  0  0
   -3.8780    0.7730    0.2730 H   0  0  0  0  0  0  0  0  0  0  0  0
   -2.7500   -0.6650    1.8380 H   0  0  0  0  0  0  0  0  0  0  0  0
   -0.0980   -0.0790    0.4200 H   0  0  0  0  0  0  0  0  0  0  0  0
   -2.3980    0.5710   -3.5720 N   0  0  0  0  0  0  0  0  0  0  0  0
   -1.6180   -0.5900   -3.2190 C   0  0  0  0  0  0  0  0  0  0  0  0
   -0.6240   -0.4770   -2.4610 O   0  0  0  0  0  0  0  0  0  0  0  0
   -1.9840   -1.9100   -3.7510 C   0  0  0  0  0  0  0  0  0  0  0  0
   -1.4550   -3.1020   -3.0450 C   0  0  0  0  0  0  0  0  0  0  0  0
   -1.9000   -3.2940   -1.6400 C   0  0  2  0  0  0  0  0  0  0  0  0
   -1.5730   -2.2780   -0.6950 N   0  0  0  0  0  0  0  0  0  0  0  0
   -1.3480   -4.5820   -1.1610 C   0  0  0  0  0  0  0  0  0  0  0  0
   -1.5260   -5.6070   -1.8530 O   0  0  0  0  0  0  0  0  0  0  0  0
   -0.6540   -4.6550    0.0220 O   0  0  0  0  0  0  0  0  0  0  0  0
   -1.9200    1.3670   -4.0280 H   0  0  0  0  0  0  0  0  0  0  0  0
   -3.4130    0.5980   -3.3700 H   0  0  0  0  0  0  0  0  0  0  0  0
   -3.1030   -2.0150   -3.8480 H   0  0  0  0  0  0  0  0  0  0  0  0
   -1.6070   -1.9180   -4.8180 H   0  0  0  0  0  0  0  0  0  0  0  0
   -1.8360   -4.0060   -3.6160 H   0  0  0  0  0  0  0  0  0  0  0  0
   -0.3410   -3.2060   -3.1420 H   0  0  0  0  0  0  0  0  0  0  0  0
   -3.0250   -3.4370   -1.7060 H   0  0  0  0  0  0  0  0  0  0  0  0
   -0.5800   -2.1280   -0.4080 H   0  0  0  0  0  0  0  0  0  0  0  0
  1 13  1  0  0  0  0
  1 12  1  0  0  0  0
  2 14  1  6  0  0  0
  2  1  1  0  0  0  0
  3 15  1  0  0  0  0
  3  4  1  0  0  0  0
  3  2  1  0  0  0  0
  4  5  1  0  0  0  0
  5  6  2  0  0  0  0
  5 17  1  0  0  0  0
  6 18  1  0  0  0  0
  7 19  1  0  0  0  0
  7  6  1  0  0  0  0
  8  7  2  0  0  0  0
  9  8  1  0  0  0  0
  9  4  2  0  0  0  0
 10  2  1  0  0  0  0
 10 11  2  0  0  0  0
 16  3  1  0  0  0  0
 20  8  1  0  0  0  0
 21  9  1  0  0  0  0
 22 32  1  0  0  0  0
 22 23  1  0  0  0  0
 23 24  1  0  0  0  0
 24 33  1  0  0  0  0
 24 34  1  0  0  0  0
 25 26  1  0  0  0  0
 25 24  1  0  0  0  0
 26 27  1  0  0  0  0
 26 37  1  1  0  0  0
 27 10  1  0  0  0  0
 28 26  1  0  0  0  0
 29 28  2  0  0  0  0
 30 22  1  0  0  0  0
 31 22  1  0  0  0  0
 35 25  1  0  0  0  0
 36 25  1  0  0  0  0
 38 27  1  0  0  0  0
 39 50  1  0  0  0  0
 39 40  1  0  0  0  0
 40 41  2  0  0  0  0
 42 40  1  0  0  0  0
 42 43  1  0  0  0  0
 43 44  1  0  0  0  0
 44 55  1  6  0  0  0
 44 46  1  0  0  0  0
 44 45  1  0  0  0  0
 45 56  1  0  0  0  0
 45 28  1  0  0  0  0
 46 48  1  0  0  0  0
 47 46  2  0  0  0  0
 49 39  1  0  0  0  0
 51 42  1  0  0  0  0
 52 42  1  0  0  0  0
 53 43  1  0  0  0  0
 54 43  1  0  0  0  0
M  END
$$$$
