FMS.pdb
 OpenBabel07022419003D

 50 50  0  0  1  0  0  0  0  0999 V2000
    2.2810   -2.4580    3.9210 N   0  0  0  0  0  0  0  0  0  0  0  0
    2.3830   -1.5680    2.7290 C   0  0  1  0  0  0  0  0  0  0  0  0
    3.0860   -2.3920    1.7050 C   0  0  0  0  0  0  0  0  0  0  0  0
    3.3300   -1.7570    0.4030 C   0  0  0  0  0  0  0  0  0  0  0  0
    2.4820   -2.0550   -0.6360 C   0  0  0  0  0  0  0  0  0  0  0  0
    2.6780   -1.4570   -1.8550 C   0  0  0  0  0  0  0  0  0  0  0  0
    3.7100   -0.5560   -2.0780 C   0  0  0  0  0  0  0  0  0  0  0  0
    4.5430   -0.2760   -1.0250 C   0  0  0  0  0  0  0  0  0  0  0  0
    4.3650   -0.8620    0.2020 C   0  0  0  0  0  0  0  0  0  0  0  0
    1.0460   -1.1440    2.3490 C   0  0  0  0  0  0  0  0  0  0  0  0
    0.0480   -1.6570    2.9720 O   0  0  0  0  0  0  0  0  0  0  0  0
    2.0230   -3.4240    3.5590 H   0  0  0  0  0  0  0  0  0  0  0  0
    1.4480   -2.1530    4.4720 H   0  0  0  0  0  0  0  0  0  0  0  0
    3.0400   -0.7000    3.0150 H   0  0  0  0  0  0  0  0  0  0  0  0
    4.0830   -2.7250    2.1090 H   0  0  0  0  0  0  0  0  0  0  0  0
    2.5490   -3.3670    1.5370 H   0  0  0  0  0  0  0  0  0  0  0  0
    1.6670   -2.7620   -0.5370 H   0  0  0  0  0  0  0  0  0  0  0  0
    1.9960   -1.7030   -2.6710 H   0  0  0  0  0  0  0  0  0  0  0  0
    3.8710   -0.0850   -3.0210 H   0  0  0  0  0  0  0  0  0  0  0  0
    5.3600    0.4250   -1.1700 H   0  0  0  0  0  0  0  0  0  0  0  0
    5.0190   -0.6460    1.0380 H   0  0  0  0  0  0  0  0  0  0  0  0
   -0.9350    1.0890    4.3780 C   0  0  0  0  0  0  0  0  0  0  0  0
   -1.1240    2.5080    3.3260 S   0  0  0  0  0  0  0  0  0  0  0  0
   -0.2420    2.5280    1.8010 C   0  0  0  0  0  0  0  0  0  0  0  0
   -0.7390    1.5990    0.7560 C   0  0  0  0  0  0  0  0  0  0  0  0
   -0.6420    0.1730    1.1100 C   0  0  2  0  0  0  0  0  0  0  0  0
    0.7310   -0.1980    1.3520 N   0  0  0  0  0  0  0  0  0  0  0  0
   -1.2870   -0.6880    0.0400 C   0  0  0  0  0  0  0  0  0  0  0  0
   -0.7140   -1.6140   -0.5540 O   0  0  0  0  0  0  0  0  0  0  0  0
    0.0980    0.6570    4.3620 H   0  0  0  0  0  0  0  0  0  0  0  0
   -1.6820    0.2960    4.2520 H   0  0  0  0  0  0  0  0  0  0  0  0
   -1.0900    1.4250    5.4680 H   0  0  0  0  0  0  0  0  0  0  0  0
   -0.2530    3.6010    1.3970 H   0  0  0  0  0  0  0  0  0  0  0  0
    0.8590    2.3430    2.0250 H   0  0  0  0  0  0  0  0  0  0  0  0
   -1.8400    1.8630    0.6140 H   0  0  0  0  0  0  0  0  0  0  0  0
   -0.2250    1.7530   -0.2330 H   0  0  0  0  0  0  0  0  0  0  0  0
   -1.2670   -0.0480    2.0100 H   0  0  0  0  0  0  0  0  0  0  0  0
    1.5080    0.2510    0.7750 H   0  0  0  0  0  0  0  0  0  0  0  0
   -3.9220   -2.7940    0.3360 O   0  0  0  0  0  0  0  0  0  0  0  0
   -4.4530   -1.9700   -0.6440 C   0  0  0  0  0  0  0  0  0  0  0  0
   -3.3090   -1.2150   -1.3310 C   0  0  2  0  0  0  0  0  0  0  0  0
   -2.6360   -0.4420   -0.3290 N   0  0  0  0  0  0  0  0  0  0  0  0
   -3.8090   -0.4080   -2.4570 C   0  0  0  0  0  0  0  0  0  0  0  0
   -3.6340    0.8290   -2.4860 O   0  0  0  0  0  0  0  0  0  0  0  0
   -4.4830   -0.9980   -3.5060 O   0  0  0  0  0  0  0  0  0  0  0  0
   -3.1640   -2.3660    0.7960 H   0  0  0  0  0  0  0  0  0  0  0  0
   -5.0180   -2.5260   -1.4080 H   0  0  0  0  0  0  0  0  0  0  0  0
   -5.0970   -1.2180   -0.1340 H   0  0  0  0  0  0  0  0  0  0  0  0
   -2.6410   -2.0250   -1.7490 H   0  0  0  0  0  0  0  0  0  0  0  0
   -3.1390    0.3260    0.1510 H   0  0  0  0  0  0  0  0  0  0  0  0
  1 13  1  0  0  0  0
  2 14  1  1  0  0  0
  2  1  1  0  0  0  0
  3 15  1  0  0  0  0
  3  2  1  0  0  0  0
  4  3  1  0  0  0  0
  5 17  1  0  0  0  0
  5  4  2  0  0  0  0
  6  5  1  0  0  0  0
  7  6  2  0  0  0  0
  7  8  1  0  0  0  0
  8  9  2  0  0  0  0
  9  4  1  0  0  0  0
  9 21  1  0  0  0  0
 10  2  1  0  0  0  0
 10 11  2  0  0  0  0
 12  1  1  0  0  0  0
 16  3  1  0  0  0  0
 18  6  1  0  0  0  0
 19  7  1  0  0  0  0
 20  8  1  0  0  0  0
 22 32  1  0  0  0  0
 23 22  1  0  0  0  0
 24 34  1  0  0  0  0
 24 23  1  0  0  0  0
 25 26  1  0  0  0  0
 25 24  1  0  0  0  0
 26 27  1  0  0  0  0
 26 37  1  1  0  0  0
 27 10  1  0  0  0  0
 28 26  1  0  0  0  0
 29 28  2  0  0  0  0
 30 22  1  0  0  0  0
 31 22  1  0  0  0  0
 33 24  1  0  0  0  0
 35 25  1  0  0  0  0
 36 25  1  0  0  0  0
 38 27  1  0  0  0  0
 39 46  1  0  0  0  0
 40 48  1  0  0  0  0
 40 39  1  0  0  0  0
 41 49  1  6  0  0  0
 41 40  1  0  0  0  0
 41 42  1  0  0  0  0
 42 28  1  0  0  0  0
 42 50  1  0  0  0  0
 43 41  1  0  0  0  0
 44 43  1  0  0  0  0
 45 43  2  0  0  0  0
 47 40  1  0  0  0  0
M  END
$$$$
