FMV.pdb
 OpenBabel07022419003D

 55 55  0  0  1  0  0  0  0  0999 V2000
    2.6350   -3.1950    2.0380 N   0  0  0  0  0  0  0  0  0  0  0  0
    1.7620   -2.1330    2.5350 C   0  0  1  0  0  0  0  0  0  0  0  0
    2.4470   -1.1890    3.4310 C   0  0  0  0  0  0  0  0  0  0  0  0
    3.5940   -0.4560    2.8960 C   0  0  0  0  0  0  0  0  0  0  0  0
    3.4630    0.8270    2.4070 C   0  0  0  0  0  0  0  0  0  0  0  0
    4.4880    1.5470    1.8760 C   0  0  0  0  0  0  0  0  0  0  0  0
    5.7400    0.9400    1.8310 C   0  0  0  0  0  0  0  0  0  0  0  0
    5.8890   -0.3520    2.3210 C   0  0  0  0  0  0  0  0  0  0  0  0
    4.8350   -1.0510    2.8500 C   0  0  0  0  0  0  0  0  0  0  0  0
    0.9980   -1.5290    1.4490 C   0  0  0  0  0  0  0  0  0  0  0  0
    1.1660   -1.9720    0.2500 O   0  0  0  0  0  0  0  0  0  0  0  0
    2.0460   -3.7730    1.3970 H   0  0  0  0  0  0  0  0  0  0  0  0
    2.8930   -3.7900    2.8420 H   0  0  0  0  0  0  0  0  0  0  0  0
    1.0360   -2.7190    3.2080 H   0  0  0  0  0  0  0  0  0  0  0  0
    2.6980   -1.6840    4.4210 H   0  0  0  0  0  0  0  0  0  0  0  0
    1.6700   -0.4240    3.7490 H   0  0  0  0  0  0  0  0  0  0  0  0
    2.4610    1.2580    2.4860 H   0  0  0  0  0  0  0  0  0  0  0  0
    4.3330    2.5480    1.5050 H   0  0  0  0  0  0  0  0  0  0  0  0
    6.5770    1.4590    1.4260 H   0  0  0  0  0  0  0  0  0  0  0  0
    6.8820   -0.8000    2.2720 H   0  0  0  0  0  0  0  0  0  0  0  0
    4.9820   -2.0640    3.2270 H   0  0  0  0  0  0  0  0  0  0  0  0
   -1.5980    2.7910    2.0720 C   0  0  0  0  0  0  0  0  0  0  0  0
   -0.7850    3.2890    0.5700 S   0  0  0  0  0  0  0  0  0  0  0  0
    0.4930    2.1780   -0.0360 C   0  0  0  0  0  0  0  0  0  0  0  0
    0.0070    0.8640   -0.5380 C   0  0  0  0  0  0  0  0  0  0  0  0
   -0.6770   -0.0080    0.4190 C   0  0  2  0  0  0  0  0  0  0  0  0
    0.0440   -0.4720    1.5710 N   0  0  0  0  0  0  0  0  0  0  0  0
   -1.3970   -1.1570   -0.2520 C   0  0  0  0  0  0  0  0  0  0  0  0
   -1.3540   -2.3330    0.2060 O   0  0  0  0  0  0  0  0  0  0  0  0
   -1.7730    3.6850    2.7620 H   0  0  0  0  0  0  0  0  0  0  0  0
   -1.0910    2.0400    2.6750 H   0  0  0  0  0  0  0  0  0  0  0  0
   -2.6290    2.4230    1.8540 H   0  0  0  0  0  0  0  0  0  0  0  0
    1.3280    2.0730    0.6840 H   0  0  0  0  0  0  0  0  0  0  0  0
    0.9210    2.7120   -0.9580 H   0  0  0  0  0  0  0  0  0  0  0  0
   -0.7180    1.1260   -1.3800 H   0  0  0  0  0  0  0  0  0  0  0  0
    0.8260    0.3310   -1.1160 H   0  0  0  0  0  0  0  0  0  0  0  0
   -1.5560    0.5790    0.8550 H   0  0  0  0  0  0  0  0  0  0  0  0
   -0.0850   -0.0740    2.5530 H   0  0  0  0  0  0  0  0  0  0  0  0
   -5.0370   -3.0660   -2.6360 C   0  0  0  0  0  0  0  0  0  0  0  0
   -4.3130   -1.8930   -2.0110 C   0  0  0  0  0  0  0  0  0  0  0  0
   -4.7850   -1.7170   -0.5940 C   0  0  0  0  0  0  0  0  0  0  0  0
   -2.8430   -2.1560   -2.0430 C   0  0  2  0  0  0  0  0  0  0  0  0
   -2.1670   -1.0030   -1.4320 N   0  0  0  0  0  0  0  0  0  0  0  0
   -2.3480   -2.3800   -3.4200 C   0  0  0  0  0  0  0  0  0  0  0  0
   -1.4650   -1.6230   -3.9200 O   0  0  0  0  0  0  0  0  0  0  0  0
   -2.8280   -3.4120   -4.2040 O   0  0  0  0  0  0  0  0  0  0  0  0
   -5.9500   -3.2520   -2.0570 H   0  0  0  0  0  0  0  0  0  0  0  0
   -5.2160   -2.8930   -3.7180 H   0  0  0  0  0  0  0  0  0  0  0  0
   -4.3970   -3.9710   -2.5470 H   0  0  0  0  0  0  0  0  0  0  0  0
   -4.5350   -0.9920   -2.6060 H   0  0  0  0  0  0  0  0  0  0  0  0
   -4.1040   -1.0900    0.0140 H   0  0  0  0  0  0  0  0  0  0  0  0
   -4.8370   -2.7200   -0.0910 H   0  0  0  0  0  0  0  0  0  0  0  0
   -5.8130   -1.3010   -0.6200 H   0  0  0  0  0  0  0  0  0  0  0  0
   -2.6360   -3.0540   -1.4420 H   0  0  0  0  0  0  0  0  0  0  0  0
   -2.2440   -0.0550   -1.8510 H   0  0  0  0  0  0  0  0  0  0  0  0
  1  2  1  0  0  0  0
  1 13  1  0  0  0  0
  2 14  1  1  0  0  0
  2  3  1  0  0  0  0
  3 16  1  0  0  0  0
  3 15  1  0  0  0  0
  4  3  1  0  0  0  0
  5 17  1  0  0  0  0
  5  4  2  0  0  0  0
  6  5  1  0  0  0  0
  7  6  2  0  0  0  0
  7  8  1  0  0  0  0
  8  9  2  0  0  0  0
  9  4  1  0  0  0  0
  9 21  1  0  0  0  0
 10 27  1  0  0  0  0
 10  2  1  0  0  0  0
 11 10  2  0  0  0  0
 12  1  1  0  0  0  0
 18  6  1  0  0  0  0
 19  7  1  0  0  0  0
 20  8  1  0  0  0  0
 22 31  1  0  0  0  0
 22 30  1  0  0  0  0
 23 22  1  0  0  0  0
 24 23  1  0  0  0  0
 24 33  1  0  0  0  0
 25 24  1  0  0  0  0
 25 26  1  0  0  0  0
 26 37  1  1  0  0  0
 26 27  1  0  0  0  0
 27 38  1  0  0  0  0
 28 29  2  0  0  0  0
 28 26  1  0  0  0  0
 32 22  1  0  0  0  0
 34 24  1  0  0  0  0
 35 25  1  0  0  0  0
 36 25  1  0  0  0  0
 39 49  1  0  0  0  0
 39 47  1  0  0  0  0
 39 40  1  0  0  0  0
 40 41  1  0  0  0  0
 41 52  1  0  0  0  0
 41 51  1  0  0  0  0
 42 40  1  0  0  0  0
 42 54  1  1  0  0  0
 42 43  1  0  0  0  0
 43 28  1  0  0  0  0
 44 42  1  0  0  0  0
 45 44  1  0  0  0  0
 46 44  2  0  0  0  0
 48 39  1  0  0  0  0
 50 40  1  0  0  0  0
 53 41  1  0  0  0  0
 55 43  1  0  0  0  0
M  END
$$$$
