FMW.pdb
 OpenBabel07022419003D

 63 65  0  0  1  0  0  0  0  0999 V2000
    1.3030   -0.7400    4.6850 N   0  0  0  0  0  0  0  0  0  0  0  0
    1.2920    0.3050    3.6840 C   0  0  1  0  0  0  0  0  0  0  0  0
    2.6410    0.4430    3.0190 C   0  0  0  0  0  0  0  0  0  0  0  0
    3.0250   -0.8450    2.3660 C   0  0  0  0  0  0  0  0  0  0  0  0
    3.7430   -1.7650    3.1240 C   0  0  0  0  0  0  0  0  0  0  0  0
    4.1220   -2.9580    2.5590 C   0  0  0  0  0  0  0  0  0  0  0  0
    3.8030   -3.2590    1.2580 C   0  0  0  0  0  0  0  0  0  0  0  0
    3.0920   -2.3580    0.4990 C   0  0  0  0  0  0  0  0  0  0  0  0
    2.7230   -1.1760    1.0750 C   0  0  0  0  0  0  0  0  0  0  0  0
    0.2680    0.1160    2.6370 C   0  0  0  0  0  0  0  0  0  0  0  0
   -0.3600   -0.9890    2.6520 O   0  0  0  0  0  0  0  0  0  0  0  0
    0.4250   -0.6820    5.2540 H   0  0  0  0  0  0  0  0  0  0  0  0
    1.4390   -1.6770    4.2800 H   0  0  0  0  0  0  0  0  0  0  0  0
    1.1360    1.2820    4.2320 H   0  0  0  0  0  0  0  0  0  0  0  0
    3.4210    0.7820    3.7280 H   0  0  0  0  0  0  0  0  0  0  0  0
    2.5450    1.2260    2.2410 H   0  0  0  0  0  0  0  0  0  0  0  0
    3.9910   -1.5170    4.1550 H   0  0  0  0  0  0  0  0  0  0  0  0
    4.6820   -3.6960    3.1220 H   0  0  0  0  0  0  0  0  0  0  0  0
    4.1150   -4.2130    0.8340 H   0  0  0  0  0  0  0  0  0  0  0  0
    2.8600   -2.6310   -0.5230 H   0  0  0  0  0  0  0  0  0  0  0  0
    2.1750   -0.4780    0.4950 H   0  0  0  0  0  0  0  0  0  0  0  0
   -4.2230   -0.2680    3.7640 C   0  0  0  0  0  0  0  0  0  0  0  0
   -3.4360    0.1520    2.2040 S   0  0  0  0  0  0  0  0  0  0  0  0
   -2.7160    1.8120    2.1990 C   0  0  0  0  0  0  0  0  0  0  0  0
   -2.0870    2.0330    0.8430 C   0  0  0  0  0  0  0  0  0  0  0  0
   -0.9900    0.9740    0.6490 C   0  0  2  0  0  0  0  0  0  0  0  0
   -0.0020    1.1160    1.6670 N   0  0  0  0  0  0  0  0  0  0  0  0
   -0.4860    1.0090   -0.7350 C   0  0  0  0  0  0  0  0  0  0  0  0
    0.7090    1.1740   -1.0740 O   0  0  0  0  0  0  0  0  0  0  0  0
   -5.2510   -0.6750    3.5870 H   0  0  0  0  0  0  0  0  0  0  0  0
   -4.3280    0.6490    4.3740 H   0  0  0  0  0  0  0  0  0  0  0  0
   -3.6420   -1.0420    4.3070 H   0  0  0  0  0  0  0  0  0  0  0  0
   -3.5260    2.5540    2.3340 H   0  0  0  0  0  0  0  0  0  0  0  0
   -1.9780    1.9070    3.0260 H   0  0  0  0  0  0  0  0  0  0  0  0
   -1.6490    3.0450    0.7440 H   0  0  0  0  0  0  0  0  0  0  0  0
   -2.8820    1.9170    0.0850 H   0  0  0  0  0  0  0  0  0  0  0  0
   -1.5030   -0.0120    0.7700 H   0  0  0  0  0  0  0  0  0  0  0  0
    0.5570    1.9970    1.7110 H   0  0  0  0  0  0  0  0  0  0  0  0
   -1.4700    0.8350   -1.7790 N   0  0  0  0  0  0  0  0  0  0  0  0
   -1.0340    0.8560   -3.1600 C   0  0  1  0  0  0  0  0  0  0  0  0
   -1.1850   -0.5180   -3.8330 C   0  0  0  0  0  0  0  0  0  0  0  0
   -0.4140   -1.5720   -3.1910 C   0  0  0  0  0  0  0  0  0  0  0  0
    0.8230   -1.9910   -3.6450 C   0  0  0  0  0  0  0  0  0  0  0  0
    1.2460   -2.9350   -2.8100 N   0  0  0  0  0  0  0  0  0  0  0  0
    0.3290   -3.1400   -1.8350 C   0  0  0  0  0  0  0  0  0  0  0  0
    0.2560   -3.9760   -0.7510 C   0  0  0  0  0  0  0  0  0  0  0  0
   -0.8180   -3.9920    0.1030 C   0  0  0  0  0  0  0  0  0  0  0  0
   -1.8690   -3.1260   -0.1460 C   0  0  0  0  0  0  0  0  0  0  0  0
   -1.8190   -2.2780   -1.2260 C   0  0  0  0  0  0  0  0  0  0  0  0
   -0.7210   -2.2820   -2.0720 C   0  0  0  0  0  0  0  0  0  0  0  0
   -1.8840    1.7740   -3.9360 C   0  0  0  0  0  0  0  0  0  0  0  0
   -1.6710    1.9370   -5.1510 O   0  0  0  0  0  0  0  0  0  0  0  0
   -2.9080    2.4490   -3.3210 O   0  0  0  0  0  0  0  0  0  0  0  0
   -2.4710    0.7070   -1.5120 H   0  0  0  0  0  0  0  0  0  0  0  0
    0.0500    1.1270   -3.1970 H   0  0  0  0  0  0  0  0  0  0  0  0
   -2.2920   -0.7060   -3.8210 H   0  0  0  0  0  0  0  0  0  0  0  0
   -0.9230   -0.3510   -4.8990 H   0  0  0  0  0  0  0  0  0  0  0  0
    1.3510   -1.6200   -4.5210 H   0  0  0  0  0  0  0  0  0  0  0  0
    2.1440   -3.4770   -2.8450 H   0  0  0  0  0  0  0  0  0  0  0  0
    1.0720   -4.6560   -0.5500 H   0  0  0  0  0  0  0  0  0  0  0  0
   -0.8380   -4.6720    0.9540 H   0  0  0  0  0  0  0  0  0  0  0  0
   -2.7300   -3.1310    0.5270 H   0  0  0  0  0  0  0  0  0  0  0  0
   -2.6560   -1.6350   -1.3860 H   0  0  0  0  0  0  0  0  0  0  0  0
  1 12  1  0  0  0  0
  2 14  1  1  0  0  0
  2  1  1  0  0  0  0
  3  2  1  0  0  0  0
  3 15  1  0  0  0  0
  4  3  1  0  0  0  0
  4  5  1  0  0  0  0
  5 17  1  0  0  0  0
  6 18  1  0  0  0  0
  6  5  2  0  0  0  0
  7  6  1  0  0  0  0
  8  9  1  0  0  0  0
  8  7  2  0  0  0  0
  9  4  2  0  0  0  0
 10 11  2  0  0  0  0
 10  2  1  0  0  0  0
 13  1  1  0  0  0  0
 16  3  1  0  0  0  0
 19  7  1  0  0  0  0
 20  8  1  0  0  0  0
 21  9  1  0  0  0  0
 22 32  1  0  0  0  0
 22 31  1  0  0  0  0
 23 22  1  0  0  0  0
 24 23  1  0  0  0  0
 24 33  1  0  0  0  0
 24 34  1  0  0  0  0
 25 24  1  0  0  0  0
 26 37  1  1  0  0  0
 26 25  1  0  0  0  0
 26 27  1  0  0  0  0
 27 38  1  0  0  0  0
 27 10  1  0  0  0  0
 28 26  1  0  0  0  0
 29 28  2  0  0  0  0
 30 22  1  0  0  0  0
 35 25  1  0  0  0  0
 36 25  1  0  0  0  0
 39 54  1  0  0  0  0
 39 28  1  0  0  0  0
 40 55  1  6  0  0  0
 40 39  1  0  0  0  0
 41 56  1  0  0  0  0
 41 42  1  0  0  0  0
 41 40  1  0  0  0  0
 42 50  1  0  0  0  0
 43 42  2  0  0  0  0
 43 44  1  0  0  0  0
 44 45  1  0  0  0  0
 45 46  1  0  0  0  0
 46 60  1  0  0  0  0
 46 47  2  0  0  0  0
 47 61  1  0  0  0  0
 48 47  1  0  0  0  0
 48 62  1  0  0  0  0
 49 48  2  0  0  0  0
 50 45  2  0  0  0  0
 50 49  1  0  0  0  0
 51 53  1  0  0  0  0
 51 40  1  0  0  0  0
 52 51  2  0  0  0  0
 57 41  1  0  0  0  0
 58 43  1  0  0  0  0
 59 44  1  0  0  0  0
 63 49  1  0  0  0  0
M  END
$$$$
