FNA.pdb
 OpenBabel07022418583D

 46 46  0  0  1  0  0  0  0  0999 V2000
    3.5260   -3.2000    1.4720 N   0  0  0  0  0  0  0  0  0  0  0  0
    3.0410   -1.8250    1.5930 C   0  0  1  0  0  0  0  0  0  0  0  0
    3.5810   -1.0120    0.4670 C   0  0  0  0  0  0  0  0  0  0  0  0
    3.1980   -1.4930   -0.8700 C   0  0  0  0  0  0  0  0  0  0  0  0
    3.9370   -2.4280   -1.5820 C   0  0  0  0  0  0  0  0  0  0  0  0
    3.5680   -2.8670   -2.8310 C   0  0  0  0  0  0  0  0  0  0  0  0
    2.4240   -2.3760   -3.4200 C   0  0  0  0  0  0  0  0  0  0  0  0
    1.6670   -1.4470   -2.7430 C   0  0  0  0  0  0  0  0  0  0  0  0
    2.0550   -1.0220   -1.4940 C   0  0  0  0  0  0  0  0  0  0  0  0
    1.5990   -1.7620    1.8070 C   0  0  0  0  0  0  0  0  0  0  0  0
    0.9220   -2.8350    1.8160 O   0  0  0  0  0  0  0  0  0  0  0  0
    2.7550   -3.8960    1.6080 H   0  0  0  0  0  0  0  0  0  0  0  0
    4.3560   -3.3680    2.0600 H   0  0  0  0  0  0  0  0  0  0  0  0
    3.5230   -1.4220    2.5320 H   0  0  0  0  0  0  0  0  0  0  0  0
    3.2370    0.0510    0.5310 H   0  0  0  0  0  0  0  0  0  0  0  0
    4.6870   -0.9830    0.5230 H   0  0  0  0  0  0  0  0  0  0  0  0
    4.8430   -2.8290   -1.1400 H   0  0  0  0  0  0  0  0  0  0  0  0
    4.1570   -3.5880   -3.3560 H   0  0  0  0  0  0  0  0  0  0  0  0
    2.0920   -2.7020   -4.4200 H   0  0  0  0  0  0  0  0  0  0  0  0
    0.7730   -1.0590   -3.1940 H   0  0  0  0  0  0  0  0  0  0  0  0
    1.4820   -0.2940   -0.9380 H   0  0  0  0  0  0  0  0  0  0  0  0
   -0.7540    1.8230    5.1990 N   0  0  0  0  0  0  0  0  0  0  0  0
   -0.4940    1.2070    3.9500 C   0  0  0  0  0  0  0  0  0  0  0  0
    0.1600    1.9410    3.1290 O   0  0  0  0  0  0  0  0  0  0  0  0
   -0.9260   -0.1440    3.6120 C   0  0  0  0  0  0  0  0  0  0  0  0
   -0.5260   -0.5690    2.2160 C   0  0  2  0  0  0  0  0  0  0  0  0
    0.8860   -0.5540    2.0100 N   0  0  0  0  0  0  0  0  0  0  0  0
   -1.2600    0.2310    1.2090 C   0  0  0  0  0  0  0  0  0  0  0  0
   -0.6730    0.8660    0.2820 O   0  0  0  0  0  0  0  0  0  0  0  0
   -1.5500    2.4690    5.2910 H   0  0  0  0  0  0  0  0  0  0  0  0
   -0.1450    1.6210    6.0020 H   0  0  0  0  0  0  0  0  0  0  0  0
   -2.0420   -0.1600    3.6350 H   0  0  0  0  0  0  0  0  0  0  0  0
   -0.5850   -0.8580    4.3860 H   0  0  0  0  0  0  0  0  0  0  0  0
   -0.9150   -1.6250    2.1260 H   0  0  0  0  0  0  0  0  0  0  0  0
    1.4270    0.3370    2.0040 H   0  0  0  0  0  0  0  0  0  0  0  0
   -4.3900    0.2050   -0.4660 C   0  0  0  0  0  0  0  0  0  0  0  0
   -3.3990    1.1110    0.2450 C   0  0  2  0  0  0  0  0  0  0  0  0
   -2.6770    0.3310    1.2290 N   0  0  0  0  0  0  0  0  0  0  0  0
   -4.1930    2.1670    0.9480 C   0  0  0  0  0  0  0  0  0  0  0  0
   -4.1500    2.2570    2.1980 O   0  0  0  0  0  0  0  0  0  0  0  0
   -4.9750    3.0470    0.2350 O   0  0  0  0  0  0  0  0  0  0  0  0
   -3.9630   -0.8120   -0.5290 H   0  0  0  0  0  0  0  0  0  0  0  0
   -5.3300    0.1050    0.1180 H   0  0  0  0  0  0  0  0  0  0  0  0
   -4.6440    0.5480   -1.4690 H   0  0  0  0  0  0  0  0  0  0  0  0
   -2.6940    1.5690   -0.4790 H   0  0  0  0  0  0  0  0  0  0  0  0
   -3.2230   -0.1700    1.9690 H   0  0  0  0  0  0  0  0  0  0  0  0
  1  2  1  0  0  0  0
  1 12  1  0  0  0  0
  1 13  1  0  0  0  0
  2 10  1  0  0  0  0
  2 14  1  1  0  0  0
  3 16  1  0  0  0  0
  3 15  1  0  0  0  0
  3  2  1  0  0  0  0
  4  3  1  0  0  0  0
  5 17  1  0  0  0  0
  5  4  2  0  0  0  0
  6  5  1  0  0  0  0
  7  6  2  0  0  0  0
  7  8  1  0  0  0  0
  8  9  2  0  0  0  0
  9 21  1  0  0  0  0
  9  4  1  0  0  0  0
 10 11  2  0  0  0  0
 10 27  1  0  0  0  0
 18  6  1  0  0  0  0
 19  7  1  0  0  0  0
 20  8  1  0  0  0  0
 22 30  1  0  0  0  0
 22 31  1  0  0  0  0
 23 22  1  0  0  0  0
 24 23  2  0  0  0  0
 25 32  1  0  0  0  0
 25 23  1  0  0  0  0
 25 33  1  0  0  0  0
 26 34  1  6  0  0  0
 26 25  1  0  0  0  0
 27 26  1  0  0  0  0
 28 38  1  0  0  0  0
 28 26  1  0  0  0  0
 29 28  2  0  0  0  0
 35 27  1  0  0  0  0
 36 43  1  0  0  0  0
 36 37  1  0  0  0  0
 37 45  1  6  0  0  0
 37 39  1  0  0  0  0
 37 38  1  0  0  0  0
 38 46  1  0  0  0  0
 39 40  1  0  0  0  0
 41 39  2  0  0  0  0
 42 36  1  0  0  0  0
 44 36  1  0  0  0  0
M  END
$$$$
