FNE.pdb
 OpenBabel07022418583D

 52 52  0  0  1  0  0  0  0  0999 V2000
    1.2520   -1.6810    2.6530 N   0  0  0  0  0  0  0  0  0  0  0  0
    0.5060   -0.4990    2.3330 C   0  0  1  0  0  0  0  0  0  0  0  0
    1.1890    0.6950    3.0080 C   0  0  0  0  0  0  0  0  0  0  0  0
    1.2260    0.5170    4.4790 C   0  0  0  0  0  0  0  0  0  0  0  0
    2.2870   -0.1150    5.0950 C   0  0  0  0  0  0  0  0  0  0  0  0
    2.3070   -0.2760    6.4750 C   0  0  0  0  0  0  0  0  0  0  0  0
    1.2760    0.1860    7.2710 C   0  0  0  0  0  0  0  0  0  0  0  0
    0.2240    0.8140    6.6410 C   0  0  0  0  0  0  0  0  0  0  0  0
    0.1880    0.9840    5.2530 C   0  0  0  0  0  0  0  0  0  0  0  0
    0.5500   -0.2370    0.8480 C   0  0  0  0  0  0  0  0  0  0  0  0
    1.2060   -1.0650    0.1690 O   0  0  0  0  0  0  0  0  0  0  0  0
    0.6680   -2.3780    3.1880 H   0  0  0  0  0  0  0  0  0  0  0  0
    1.6410   -2.1150    1.7690 H   0  0  0  0  0  0  0  0  0  0  0  0
   -0.5350   -0.6100    2.6900 H   0  0  0  0  0  0  0  0  0  0  0  0
    2.2260    0.7140    2.6200 H   0  0  0  0  0  0  0  0  0  0  0  0
    0.6730    1.6210    2.6930 H   0  0  0  0  0  0  0  0  0  0  0  0
    3.1160   -0.4880    4.4820 H   0  0  0  0  0  0  0  0  0  0  0  0
    3.1310   -0.7680    6.9790 H   0  0  0  0  0  0  0  0  0  0  0  0
    1.3060    0.0510    8.3570 H   0  0  0  0  0  0  0  0  0  0  0  0
   -0.5900    1.1800    7.2580 H   0  0  0  0  0  0  0  0  0  0  0  0
   -0.6520    1.4840    4.7680 H   0  0  0  0  0  0  0  0  0  0  0  0
    3.4350    2.5780   -1.0440 N   0  0  0  0  0  0  0  0  0  0  0  0
    2.0710    2.2930   -0.8140 C   0  0  0  0  0  0  0  0  0  0  0  0
    1.4460    2.9620    0.0400 O   0  0  0  0  0  0  0  0  0  0  0  0
    1.3470    1.2260   -1.5500 C   0  0  0  0  0  0  0  0  0  0  0  0
   -0.0960    1.1620   -1.0860 C   0  0  2  0  0  0  0  0  0  0  0  0
   -0.1230    0.8850    0.3180 N   0  0  0  0  0  0  0  0  0  0  0  0
   -0.8070    0.1070   -1.8520 C   0  0  0  0  0  0  0  0  0  0  0  0
   -0.8520    0.1440   -3.1290 O   0  0  0  0  0  0  0  0  0  0  0  0
    3.8530    2.5270   -2.0180 H   0  0  0  0  0  0  0  0  0  0  0  0
    4.1180    2.8520   -0.3010 H   0  0  0  0  0  0  0  0  0  0  0  0
    1.8940    0.2970   -1.4460 H   0  0  0  0  0  0  0  0  0  0  0  0
    1.3450    1.5070   -2.6400 H   0  0  0  0  0  0  0  0  0  0  0  0
   -0.5390    2.1780   -1.3080 H   0  0  0  0  0  0  0  0  0  0  0  0
   -0.6420    1.4970    1.0140 H   0  0  0  0  0  0  0  0  0  0  0  0
   -1.4700   -0.9860   -1.2540 N   0  0  0  0  0  0  0  0  0  0  0  0
   -2.1700   -2.0290   -2.0200 C   0  0  1  0  0  0  0  0  0  0  0  0
   -1.4990   -3.3250   -1.7580 C   0  0  0  0  0  0  0  0  0  0  0  0
   -2.1450   -4.4560   -2.4950 C   0  0  0  0  0  0  0  0  0  0  0  0
   -2.1380   -4.3450   -3.9580 C   0  0  0  0  0  0  0  0  0  0  0  0
   -1.5700   -3.3890   -4.5200 O   0  0  0  0  0  0  0  0  0  0  0  0
   -3.6170   -1.9810   -1.7560 C   0  0  0  0  0  0  0  0  0  0  0  0
   -4.4420   -2.7380   -2.3120 O   0  0  0  0  0  0  0  0  0  0  0  0
   -2.7510   -5.2740   -4.7890 O   0  0  0  0  0  0  0  0  0  0  0  0
   -4.1700   -1.0600   -0.8440 O   0  0  0  0  0  0  0  0  0  0  0  0
   -1.4910   -1.0940   -0.2200 H   0  0  0  0  0  0  0  0  0  0  0  0
   -2.0250   -1.7330   -3.0730 H   0  0  0  0  0  0  0  0  0  0  0  0
   -1.4860   -3.6060   -0.6780 H   0  0  0  0  0  0  0  0  0  0  0  0
   -0.4540   -3.2520   -2.1570 H   0  0  0  0  0  0  0  0  0  0  0  0
   -3.2030   -4.6360   -2.1550 H   0  0  0  0  0  0  0  0  0  0  0  0
   -1.6270   -5.4410   -2.2360 H   0  0  0  0  0  0  0  0  0  0  0  0
   -2.7180   -5.2220   -5.7890 H   0  0  0  0  0  0  0  0  0  0  0  0
  1 12  1  0  0  0  0
  2  1  1  0  0  0  0
  2 14  1  1  0  0  0
  2  3  1  0  0  0  0
  3  4  1  0  0  0  0
  4  5  2  0  0  0  0
  4  9  1  0  0  0  0
  5  6  1  0  0  0  0
  6 18  1  0  0  0  0
  6  7  2  0  0  0  0
  7 19  1  0  0  0  0
  8 20  1  0  0  0  0
  8  7  1  0  0  0  0
  9  8  2  0  0  0  0
 10  2  1  0  0  0  0
 11 10  2  0  0  0  0
 13  1  1  0  0  0  0
 15  3  1  0  0  0  0
 16  3  1  0  0  0  0
 17  5  1  0  0  0  0
 21  9  1  0  0  0  0
 22 23  1  0  0  0  0
 22 31  1  0  0  0  0
 23 24  2  0  0  0  0
 25 32  1  0  0  0  0
 25 26  1  0  0  0  0
 25 23  1  0  0  0  0
 26 34  1  6  0  0  0
 26 27  1  0  0  0  0
 27 10  1  0  0  0  0
 27 35  1  0  0  0  0
 28 36  1  0  0  0  0
 28 26  1  0  0  0  0
 29 28  2  0  0  0  0
 30 22  1  0  0  0  0
 33 25  1  0  0  0  0
 36 46  1  0  0  0  0
 37 47  1  6  0  0  0
 37 38  1  0  0  0  0
 37 42  1  0  0  0  0
 37 36  1  0  0  0  0
 38 48  1  0  0  0  0
 39 51  1  0  0  0  0
 39 50  1  0  0  0  0
 39 38  1  0  0  0  0
 40 39  1  0  0  0  0
 41 40  2  0  0  0  0
 42 45  1  0  0  0  0
 43 42  2  0  0  0  0
 44 40  1  0  0  0  0
 49 38  1  0  0  0  0
 52 44  1  0  0  0  0
M  END
$$$$
