FNF.pdb
 OpenBabel07022418583D

 56 57  0  0  1  0  0  0  0  0999 V2000
    2.9140   -1.5330    2.8900 N   0  0  0  0  0  0  0  0  0  0  0  0
    2.6010   -0.1360    3.3350 C   0  0  1  0  0  0  0  0  0  0  0  0
    3.7950    0.6420    2.9650 C   0  0  0  0  0  0  0  0  0  0  0  0
    3.7920    2.0700    3.3040 C   0  0  0  0  0  0  0  0  0  0  0  0
    4.1860    2.5440    4.5430 C   0  0  0  0  0  0  0  0  0  0  0  0
    4.1910    3.8990    4.7980 C   0  0  0  0  0  0  0  0  0  0  0  0
    3.8100    4.8360    3.8570 C   0  0  0  0  0  0  0  0  0  0  0  0
    3.4160    4.3800    2.6170 C   0  0  0  0  0  0  0  0  0  0  0  0
    3.4150    3.0080    2.3600 C   0  0  0  0  0  0  0  0  0  0  0  0
    1.3620    0.2300    2.5730 C   0  0  0  0  0  0  0  0  0  0  0  0
    0.5480    1.1120    2.9910 O   0  0  0  0  0  0  0  0  0  0  0  0
    2.2220   -2.1690    3.3650 H   0  0  0  0  0  0  0  0  0  0  0  0
    3.9010   -1.7790    3.1490 H   0  0  0  0  0  0  0  0  0  0  0  0
    2.4590   -0.0930    4.4130 H   0  0  0  0  0  0  0  0  0  0  0  0
    4.0940    0.5090    1.8920 H   0  0  0  0  0  0  0  0  0  0  0  0
    4.6720    0.2070    3.5400 H   0  0  0  0  0  0  0  0  0  0  0  0
    4.4870    1.8090    5.2840 H   0  0  0  0  0  0  0  0  0  0  0  0
    4.5050    4.2280    5.7850 H   0  0  0  0  0  0  0  0  0  0  0  0
    3.8120    5.8980    4.0490 H   0  0  0  0  0  0  0  0  0  0  0  0
    3.1130    5.0860    1.8690 H   0  0  0  0  0  0  0  0  0  0  0  0
    3.1280    2.6460    1.3820 H   0  0  0  0  0  0  0  0  0  0  0  0
   -1.1140    2.8160    0.7730 N   0  0  0  0  0  0  0  0  0  0  0  0
   -0.0020    2.2580    0.0880 C   0  0  0  0  0  0  0  0  0  0  0  0
    1.0270    2.9350   -0.0520 O   0  0  0  0  0  0  0  0  0  0  0  0
   -0.0950    0.9070   -0.4400 C   0  0  0  0  0  0  0  0  0  0  0  0
   -0.0830   -0.2240    0.5440 C   0  0  2  0  0  0  0  0  0  0  0  0
    1.0580   -0.4130    1.3470 N   0  0  0  0  0  0  0  0  0  0  0  0
   -0.5490   -1.4840   -0.1160 C   0  0  0  0  0  0  0  0  0  0  0  0
    0.0610   -2.5940    0.0710 O   0  0  0  0  0  0  0  0  0  0  0  0
   -2.0620    2.7120    0.3660 H   0  0  0  0  0  0  0  0  0  0  0  0
   -1.0120    3.3230    1.6640 H   0  0  0  0  0  0  0  0  0  0  0  0
    0.7720    0.6900   -1.1620 H   0  0  0  0  0  0  0  0  0  0  0  0
   -0.9820    0.8860   -1.1310 H   0  0  0  0  0  0  0  0  0  0  0  0
   -0.9280    0.0610    1.2650 H   0  0  0  0  0  0  0  0  0  0  0  0
    1.8210   -1.1220    1.0320 H   0  0  0  0  0  0  0  0  0  0  0  0
   -1.6660   -1.5550   -0.9840 N   0  0  0  0  0  0  0  0  0  0  0  0
   -2.0680   -2.8110   -1.6290 C   0  0  1  0  0  0  0  0  0  0  0  0
   -3.5450   -3.0680   -1.4520 C   0  0  0  0  0  0  0  0  0  0  0  0
   -3.9800   -4.3140   -2.1100 C   0  0  0  0  0  0  0  0  0  0  0  0
   -4.4770   -4.2280   -3.4170 C   0  0  0  0  0  0  0  0  0  0  0  0
   -4.8560   -5.3820   -4.0550 C   0  0  0  0  0  0  0  0  0  0  0  0
   -4.7780   -6.6170   -3.4930 C   0  0  0  0  0  0  0  0  0  0  0  0
   -4.2890   -6.7190   -2.1910 C   0  0  0  0  0  0  0  0  0  0  0  0
   -3.9100   -5.5510   -1.5550 C   0  0  0  0  0  0  0  0  0  0  0  0
   -1.7230   -2.6380   -3.0760 C   0  0  0  0  0  0  0  0  0  0  0  0
   -1.2590   -1.5360   -3.5240 O   0  0  0  0  0  0  0  0  0  0  0  0
   -1.8920   -3.6600   -3.9890 O   0  0  0  0  0  0  0  0  0  0  0  0
   -2.2200   -0.6870   -1.1660 H   0  0  0  0  0  0  0  0  0  0  0  0
   -1.4160   -3.6170   -1.2700 H   0  0  0  0  0  0  0  0  0  0  0  0
   -4.0800   -2.2210   -1.9570 H   0  0  0  0  0  0  0  0  0  0  0  0
   -3.8420   -3.0080   -0.3830 H   0  0  0  0  0  0  0  0  0  0  0  0
   -4.5760   -3.2800   -3.9300 H   0  0  0  0  0  0  0  0  0  0  0  0
   -5.2440   -5.3150   -5.0830 H   0  0  0  0  0  0  0  0  0  0  0  0
   -5.0800   -7.5330   -4.0220 H   0  0  0  0  0  0  0  0  0  0  0  0
   -4.2300   -7.6860   -1.7340 H   0  0  0  0  0  0  0  0  0  0  0  0
   -3.5330   -5.6690   -0.5460 H   0  0  0  0  0  0  0  0  0  0  0  0
  1 13  1  0  0  0  0
  1  2  1  0  0  0  0
  1 12  1  0  0  0  0
  2 14  1  1  0  0  0
  3  4  1  0  0  0  0
  3  2  1  0  0  0  0
  3 16  1  0  0  0  0
  4  5  1  0  0  0  0
  5  6  2  0  0  0  0
  5 17  1  0  0  0  0
  6 18  1  0  0  0  0
  7 19  1  0  0  0  0
  7  6  1  0  0  0  0
  8  7  2  0  0  0  0
  9  8  1  0  0  0  0
  9  4  2  0  0  0  0
 10 11  2  0  0  0  0
 10  2  1  0  0  0  0
 15  3  1  0  0  0  0
 20  8  1  0  0  0  0
 21  9  1  0  0  0  0
 22 31  1  0  0  0  0
 23 22  1  0  0  0  0
 24 23  2  0  0  0  0
 25 23  1  0  0  0  0
 25 26  1  0  0  0  0
 26 34  1  1  0  0  0
 26 27  1  0  0  0  0
 27 10  1  0  0  0  0
 28 29  2  0  0  0  0
 28 26  1  0  0  0  0
 30 22  1  0  0  0  0
 32 25  1  0  0  0  0
 33 25  1  0  0  0  0
 35 27  1  0  0  0  0
 36 28  1  0  0  0  0
 37 38  1  0  0  0  0
 37 49  1  1  0  0  0
 37 36  1  0  0  0  0
 38 51  1  0  0  0  0
 39 44  1  0  0  0  0
 39 38  1  0  0  0  0
 40 39  2  0  0  0  0
 41 42  2  0  0  0  0
 41 40  1  0  0  0  0
 42 43  1  0  0  0  0
 43 55  1  0  0  0  0
 43 44  2  0  0  0  0
 44 56  1  0  0  0  0
 45 37  1  0  0  0  0
 46 45  1  0  0  0  0
 47 45  2  0  0  0  0
 48 36  1  0  0  0  0
 50 38  1  0  0  0  0
 52 40  1  0  0  0  0
 53 41  1  0  0  0  0
 54 42  1  0  0  0  0
M  END
$$$$
