FNH.pdb
 OpenBabel07022418583D

 53 54  0  0  1  0  0  0  0  0999 V2000
   -0.6750    0.0850    3.1290 N   0  0  0  0  0  0  0  0  0  0  0  0
    0.3750    0.2040    2.1780 C   0  0  1  0  0  0  0  0  0  0  0  0
    1.1740   -1.0660    1.9850 C   0  0  0  0  0  0  0  0  0  0  0  0
    1.7610   -1.4260    3.2970 C   0  0  0  0  0  0  0  0  0  0  0  0
    1.0710   -2.2470    4.1510 C   0  0  0  0  0  0  0  0  0  0  0  0
    1.5960   -2.6060    5.4000 C   0  0  0  0  0  0  0  0  0  0  0  0
    2.8290   -2.1370    5.8010 C   0  0  0  0  0  0  0  0  0  0  0  0
    3.5200   -1.3130    4.9430 C   0  0  0  0  0  0  0  0  0  0  0  0
    2.9900   -0.9650    3.7090 C   0  0  0  0  0  0  0  0  0  0  0  0
   -0.1340    0.6980    0.8510 C   0  0  0  0  0  0  0  0  0  0  0  0
    0.6070    0.7560   -0.1410 O   0  0  0  0  0  0  0  0  0  0  0  0
   -0.8050    0.8570    3.7830 H   0  0  0  0  0  0  0  0  0  0  0  0
   -1.4850   -0.4810    2.8730 H   0  0  0  0  0  0  0  0  0  0  0  0
    1.0440    1.0440    2.5320 H   0  0  0  0  0  0  0  0  0  0  0  0
    0.5200   -1.8580    1.6270 H   0  0  0  0  0  0  0  0  0  0  0  0
    1.9740   -0.8630    1.2350 H   0  0  0  0  0  0  0  0  0  0  0  0
    0.1010   -2.6320    3.8650 H   0  0  0  0  0  0  0  0  0  0  0  0
    1.0620   -3.2530    6.0830 H   0  0  0  0  0  0  0  0  0  0  0  0
    3.2310   -2.4240    6.7810 H   0  0  0  0  0  0  0  0  0  0  0  0
    4.4800   -0.9430    5.2480 H   0  0  0  0  0  0  0  0  0  0  0  0
    3.5250   -0.3090    3.0110 H   0  0  0  0  0  0  0  0  0  0  0  0
    0.5150    3.8660    0.0280 N   0  0  0  0  0  0  0  0  0  0  0  0
   -0.3650    3.3020   -0.9560 C   0  0  0  0  0  0  0  0  0  0  0  0
    0.1140    3.0510   -2.1010 O   0  0  0  0  0  0  0  0  0  0  0  0
   -1.7680    3.0080   -0.7110 C   0  0  0  0  0  0  0  0  0  0  0  0
   -2.1340    1.5980   -0.4240 C   0  0  2  0  0  0  0  0  0  0  0  0
   -1.4840    1.1060    0.7340 N   0  0  0  0  0  0  0  0  0  0  0  0
   -2.1690    0.7000   -1.5990 C   0  0  0  0  0  0  0  0  0  0  0  0
   -2.6560    1.1180   -2.7130 O   0  0  0  0  0  0  0  0  0  0  0  0
    0.1040    4.3680    0.8650 H   0  0  0  0  0  0  0  0  0  0  0  0
    1.5390    3.7820   -0.0830 H   0  0  0  0  0  0  0  0  0  0  0  0
   -2.0710    3.6000    0.2070 H   0  0  0  0  0  0  0  0  0  0  0  0
   -2.4170    3.4470   -1.5270 H   0  0  0  0  0  0  0  0  0  0  0  0
   -3.2660    1.6620   -0.1540 H   0  0  0  0  0  0  0  0  0  0  0  0
   -2.0600    1.0280    1.6350 H   0  0  0  0  0  0  0  0  0  0  0  0
   -1.7040   -0.6430   -1.6330 N   0  0  0  0  0  0  0  0  0  0  0  0
   -1.8150   -1.4070   -2.8550 C   0  0  1  0  0  0  0  0  0  0  0  0
   -0.4850   -1.9990   -3.2080 C   0  0  0  0  0  0  0  0  0  0  0  0
    0.0670   -2.9230   -2.2100 C   0  0  0  0  0  0  0  0  0  0  0  0
    0.8980   -2.6990   -1.1460 C   0  0  0  0  0  0  0  0  0  0  0  0
    1.1600   -3.8670   -0.4900 N   0  0  0  0  0  0  0  0  0  0  0  0
    0.4940   -4.8230   -1.1430 C   0  0  0  0  0  0  0  0  0  0  0  0
   -0.1650   -4.2690   -2.1760 N   0  0  0  0  0  0  0  0  0  0  0  0
   -2.8040   -2.5360   -2.6650 C   0  0  0  0  0  0  0  0  0  0  0  0
   -3.4030   -2.7310   -1.5880 O   0  0  0  0  0  0  0  0  0  0  0  0
   -3.0110   -3.3500   -3.7600 O   0  0  0  0  0  0  0  0  0  0  0  0
   -1.2930   -1.0780   -0.7960 H   0  0  0  0  0  0  0  0  0  0  0  0
   -2.1670   -0.7890   -3.7070 H   0  0  0  0  0  0  0  0  0  0  0  0
    0.2160   -1.1230   -3.3170 H   0  0  0  0  0  0  0  0  0  0  0  0
   -0.4960   -2.4400   -4.2380 H   0  0  0  0  0  0  0  0  0  0  0  0
    1.3070   -1.7670   -0.8430 H   0  0  0  0  0  0  0  0  0  0  0  0
    1.7690   -3.9890    0.3650 H   0  0  0  0  0  0  0  0  0  0  0  0
    0.4830   -5.8700   -0.8870 H   0  0  0  0  0  0  0  0  0  0  0  0
  1 12  1  0  0  0  0
  2 14  1  1  0  0  0
  2  1  1  0  0  0  0
  3  2  1  0  0  0  0
  3  4  1  0  0  0  0
  4  9  2  0  0  0  0
  4  5  1  0  0  0  0
  5  6  2  0  0  0  0
  6  7  1  0  0  0  0
  6 18  1  0  0  0  0
  7 19  1  0  0  0  0
  8 20  1  0  0  0  0
  8  7  2  0  0  0  0
  9  8  1  0  0  0  0
 10  2  1  0  0  0  0
 11 10  2  0  0  0  0
 13  1  1  0  0  0  0
 15  3  1  0  0  0  0
 16  3  1  0  0  0  0
 17  5  1  0  0  0  0
 21  9  1  0  0  0  0
 22 30  1  0  0  0  0
 23 25  1  0  0  0  0
 23 22  1  0  0  0  0
 24 23  2  0  0  0  0
 25 26  1  0  0  0  0
 25 32  1  0  0  0  0
 26 34  1  1  0  0  0
 26 27  1  0  0  0  0
 27 10  1  0  0  0  0
 27 35  1  0  0  0  0
 28 26  1  0  0  0  0
 29 28  2  0  0  0  0
 31 22  1  0  0  0  0
 33 25  1  0  0  0  0
 36 28  1  0  0  0  0
 36 47  1  0  0  0  0
 37 48  1  6  0  0  0
 37 44  1  0  0  0  0
 37 36  1  0  0  0  0
 38 37  1  0  0  0  0
 38 39  1  0  0  0  0
 39 43  1  0  0  0  0
 39 40  2  0  0  0  0
 40 51  1  0  0  0  0
 40 41  1  0  0  0  0
 41 52  1  0  0  0  0
 42 53  1  0  0  0  0
 42 41  1  0  0  0  0
 43 42  2  0  0  0  0
 44 45  1  0  0  0  0
 46 44  2  0  0  0  0
 49 38  1  0  0  0  0
 50 38  1  0  0  0  0
M  END
$$$$
