FNI.pdb
 OpenBabel07022418583D

 55 55  0  0  1  0  0  0  0  0999 V2000
    1.9140    0.2010   -0.2540 N   0  0  0  0  0  0  0  0  0  0  0  0
    2.1680   -0.3620    1.0420 C   0  0  1  0  0  0  0  0  0  0  0  0
    3.3010    0.4210    1.6690 C   0  0  0  0  0  0  0  0  0  0  0  0
    4.4780    0.2820    0.7790 C   0  0  0  0  0  0  0  0  0  0  0  0
    4.7410    1.1610   -0.2580 C   0  0  0  0  0  0  0  0  0  0  0  0
    5.8400    1.0210   -1.0780 C   0  0  0  0  0  0  0  0  0  0  0  0
    6.7230   -0.0280   -0.8760 C   0  0  0  0  0  0  0  0  0  0  0  0
    6.4820   -0.9160    0.1490 C   0  0  0  0  0  0  0  0  0  0  0  0
    5.3750   -0.7480    0.9520 C   0  0  0  0  0  0  0  0  0  0  0  0
    0.9640   -0.3830    1.8990 C   0  0  0  0  0  0  0  0  0  0  0  0
    1.0470   -0.8480    3.0540 O   0  0  0  0  0  0  0  0  0  0  0  0
    1.3260   -0.4240   -0.8510 H   0  0  0  0  0  0  0  0  0  0  0  0
    1.5550    1.1680   -0.1890 H   0  0  0  0  0  0  0  0  0  0  0  0
    2.5160   -1.4050    0.9320 H   0  0  0  0  0  0  0  0  0  0  0  0
    3.0360    1.5050    1.7360 H   0  0  0  0  0  0  0  0  0  0  0  0
    3.4790    0.0580    2.6890 H   0  0  0  0  0  0  0  0  0  0  0  0
    4.0770    1.9910   -0.4470 H   0  0  0  0  0  0  0  0  0  0  0  0
    5.9910    1.7480   -1.8780 H   0  0  0  0  0  0  0  0  0  0  0  0
    7.5770   -0.1150   -1.5350 H   0  0  0  0  0  0  0  0  0  0  0  0
    7.1670   -1.7370    0.3130 H   0  0  0  0  0  0  0  0  0  0  0  0
    5.1840   -1.4410    1.7540 H   0  0  0  0  0  0  0  0  0  0  0  0
   -1.5130    3.7480    3.4040 N   0  0  0  0  0  0  0  0  0  0  0  0
   -1.1840    2.4130    3.1110 C   0  0  0  0  0  0  0  0  0  0  0  0
   -0.0310    2.0210    3.4210 O   0  0  0  0  0  0  0  0  0  0  0  0
   -2.1170    1.4600    2.4630 C   0  0  0  0  0  0  0  0  0  0  0  0
   -1.4920    0.1020    2.2750 C   0  0  2  0  0  0  0  0  0  0  0  0
   -0.3120    0.1130    1.4560 N   0  0  0  0  0  0  0  0  0  0  0  0
   -2.4620   -0.8740    1.7130 C   0  0  0  0  0  0  0  0  0  0  0  0
   -3.5920   -1.0610    2.2720 O   0  0  0  0  0  0  0  0  0  0  0  0
   -2.0380    3.9870    4.2630 H   0  0  0  0  0  0  0  0  0  0  0  0
   -1.2310    4.5090    2.7590 H   0  0  0  0  0  0  0  0  0  0  0  0
   -2.5420    1.8660    1.5270 H   0  0  0  0  0  0  0  0  0  0  0  0
   -2.9700    1.3280    3.1600 H   0  0  0  0  0  0  0  0  0  0  0  0
   -1.2720   -0.2950    3.3100 H   0  0  0  0  0  0  0  0  0  0  0  0
   -0.3110    0.4860    0.4820 H   0  0  0  0  0  0  0  0  0  0  0  0
   -5.5630   -3.0880   -1.2640 C   0  0  0  0  0  0  0  0  0  0  0  0
   -4.2900   -3.0950   -2.1110 C   0  0  0  0  0  0  0  0  0  0  0  0
   -3.3300   -2.1440   -1.4610 C   0  0  2  0  0  0  0  0  0  0  0  0
   -2.0200   -2.1150   -2.2570 C   0  0  0  0  0  0  0  0  0  0  0  0
   -3.0360   -2.5720   -0.0480 C   0  0  2  0  0  0  0  0  0  0  0  0
   -2.0970   -1.5890    0.5440 N   0  0  0  0  0  0  0  0  0  0  0  0
   -2.3810   -3.8820   -0.0330 C   0  0  0  0  0  0  0  0  0  0  0  0
   -2.8650   -4.9770   -0.3930 O   0  0  0  0  0  0  0  0  0  0  0  0
   -1.0540   -3.9590    0.4350 O   0  0  0  0  0  0  0  0  0  0  0  0
   -5.4540   -3.8880   -0.5050 H   0  0  0  0  0  0  0  0  0  0  0  0
   -5.6560   -2.0870   -0.7900 H   0  0  0  0  0  0  0  0  0  0  0  0
   -6.4550   -3.3370   -1.8820 H   0  0  0  0  0  0  0  0  0  0  0  0
   -4.5390   -2.7130   -3.1520 H   0  0  0  0  0  0  0  0  0  0  0  0
   -3.9290   -4.1220   -2.1660 H   0  0  0  0  0  0  0  0  0  0  0  0
   -3.7100   -1.0910   -1.4920 H   0  0  0  0  0  0  0  0  0  0  0  0
   -1.4380   -3.0380   -2.1170 H   0  0  0  0  0  0  0  0  0  0  0  0
   -1.4700   -1.1950   -2.0400 H   0  0  0  0  0  0  0  0  0  0  0  0
   -2.3420   -2.0360   -3.3350 H   0  0  0  0  0  0  0  0  0  0  0  0
   -3.9340   -2.5710    0.5880 H   0  0  0  0  0  0  0  0  0  0  0  0
   -1.1770   -1.4540    0.0680 H   0  0  0  0  0  0  0  0  0  0  0  0
  1 13  1  0  0  0  0
  1  2  1  0  0  0  0
  2 14  1  6  0  0  0
  2  3  1  0  0  0  0
  2 10  1  0  0  0  0
  3 15  1  0  0  0  0
  3 16  1  0  0  0  0
  4  9  1  0  0  0  0
  4  3  1  0  0  0  0
  5  4  2  0  0  0  0
  6  7  2  0  0  0  0
  6  5  1  0  0  0  0
  7  8  1  0  0  0  0
  8 20  1  0  0  0  0
  8  9  2  0  0  0  0
  9 21  1  0  0  0  0
 10 11  2  0  0  0  0
 12  1  1  0  0  0  0
 17  5  1  0  0  0  0
 18  6  1  0  0  0  0
 19  7  1  0  0  0  0
 22 30  1  0  0  0  0
 23 22  1  0  0  0  0
 23 24  2  0  0  0  0
 25 23  1  0  0  0  0
 25 33  1  0  0  0  0
 26 25  1  0  0  0  0
 26 34  1  1  0  0  0
 27 10  1  0  0  0  0
 27 26  1  0  0  0  0
 28 29  2  0  0  0  0
 28 26  1  0  0  0  0
 31 22  1  0  0  0  0
 32 25  1  0  0  0  0
 35 27  1  0  0  0  0
 36 46  1  0  0  0  0
 36 45  1  0  0  0  0
 37 38  1  0  0  0  0
 37 36  1  0  0  0  0
 38 50  1  1  0  0  0
 38 40  1  0  0  0  0
 39 51  1  0  0  0  0
 39 52  1  0  0  0  0
 39 38  1  0  0  0  0
 40 42  1  0  0  0  0
 40 41  1  0  0  0  0
 40 54  1  1  0  0  0
 41 28  1  0  0  0  0
 42 44  1  0  0  0  0
 43 42  2  0  0  0  0
 47 36  1  0  0  0  0
 48 37  1  0  0  0  0
 49 37  1  0  0  0  0
 53 39  1  0  0  0  0
 55 41  1  0  0  0  0
M  END
$$$$
