FNK.pdb
 OpenBabel07022418583D

 57 57  0  0  1  0  0  0  0  0999 V2000
    2.5320    3.6200   -1.2340 N   0  0  0  0  0  0  0  0  0  0  0  0
    1.9630    2.2230   -1.1050 C   0  0  1  0  0  0  0  0  0  0  0  0
    3.1170    1.2940   -0.9740 C   0  0  0  0  0  0  0  0  0  0  0  0
    2.7360   -0.1090   -0.8970 C   0  0  0  0  0  0  0  0  0  0  0  0
    2.4830   -0.8380   -2.0770 C   0  0  0  0  0  0  0  0  0  0  0  0
    2.2040   -2.1760   -2.0610 C   0  0  0  0  0  0  0  0  0  0  0  0
    2.1750   -2.8140   -0.8420 C   0  0  0  0  0  0  0  0  0  0  0  0
    2.4170   -2.1360    0.3460 C   0  0  0  0  0  0  0  0  0  0  0  0
    2.6970   -0.7760    0.3050 C   0  0  0  0  0  0  0  0  0  0  0  0
    1.0890    2.2390    0.0670 C   0  0  0  0  0  0  0  0  0  0  0  0
    1.2020    3.1910    0.9440 O   0  0  0  0  0  0  0  0  0  0  0  0
    1.7360    4.2700   -1.4490 H   0  0  0  0  0  0  0  0  0  0  0  0
    3.2060    3.6090   -2.0290 H   0  0  0  0  0  0  0  0  0  0  0  0
    1.4700    2.0510   -2.0750 H   0  0  0  0  0  0  0  0  0  0  0  0
    3.8350    1.4100   -1.8290 H   0  0  0  0  0  0  0  0  0  0  0  0
    3.6510    1.5850   -0.0290 H   0  0  0  0  0  0  0  0  0  0  0  0
    2.5200   -0.2800   -3.0070 H   0  0  0  0  0  0  0  0  0  0  0  0
    2.0100   -2.7440   -2.9660 H   0  0  0  0  0  0  0  0  0  0  0  0
    1.9590   -3.8760   -0.7770 H   0  0  0  0  0  0  0  0  0  0  0  0
    2.4000   -2.6370    1.3010 H   0  0  0  0  0  0  0  0  0  0  0  0
    2.8850   -0.2430    1.2400 H   0  0  0  0  0  0  0  0  0  0  0  0
   -1.6740    4.7420    1.3160 N   0  0  0  0  0  0  0  0  0  0  0  0
   -1.6960    3.5410    0.5440 C   0  0  0  0  0  0  0  0  0  0  0  0
   -1.3850    3.6610   -0.6850 O   0  0  0  0  0  0  0  0  0  0  0  0
   -2.0620    2.2550    1.1620 C   0  0  0  0  0  0  0  0  0  0  0  0
   -0.7460    1.5260    1.6030 C   0  0  2  0  0  0  0  0  0  0  0  0
    0.0560    1.3220    0.4130 N   0  0  0  0  0  0  0  0  0  0  0  0
   -1.0810    0.3010    2.2750 C   0  0  0  0  0  0  0  0  0  0  0  0
   -1.7990    0.3710    3.3350 O   0  0  0  0  0  0  0  0  0  0  0  0
   -2.3440    5.5250    1.1520 H   0  0  0  0  0  0  0  0  0  0  0  0
   -0.9520    4.8450    2.0860 H   0  0  0  0  0  0  0  0  0  0  0  0
   -2.6790    2.4280    2.0650 H   0  0  0  0  0  0  0  0  0  0  0  0
   -2.5060    1.5880    0.4210 H   0  0  0  0  0  0  0  0  0  0  0  0
   -0.2840    2.3010    2.2700 H   0  0  0  0  0  0  0  0  0  0  0  0
   -0.1020    0.5100   -0.2130 H   0  0  0  0  0  0  0  0  0  0  0  0
   -0.6970   -0.9810    1.8830 N   0  0  0  0  0  0  0  0  0  0  0  0
   -1.0690   -2.1910    2.5960 C   0  0  1  0  0  0  0  0  0  0  0  0
   -1.7230   -3.2280    1.7640 C   0  0  0  0  0  0  0  0  0  0  0  0
   -0.9070   -3.7300    0.6260 C   0  0  0  0  0  0  0  0  0  0  0  0
   -1.6720   -4.7870   -0.1270 C   0  0  0  0  0  0  0  0  0  0  0  0
   -2.9580   -4.2820   -0.6890 C   0  0  0  0  0  0  0  0  0  0  0  0
   -3.6460   -5.3410   -1.4140 N   0  0  0  0  0  0  0  0  0  0  0  0
    0.0250   -2.6490    3.4700 C   0  0  0  0  0  0  0  0  0  0  0  0
   -0.0120   -3.7040    4.1430 O   0  0  0  0  0  0  0  0  0  0  0  0
    1.1690   -1.8740    3.5630 O   0  0  0  0  0  0  0  0  0  0  0  0
   -0.1170   -1.0900    1.0290 H   0  0  0  0  0  0  0  0  0  0  0  0
   -1.8690   -1.8330    3.3300 H   0  0  0  0  0  0  0  0  0  0  0  0
   -2.6930   -2.8040    1.4120 H   0  0  0  0  0  0  0  0  0  0  0  0
   -1.9790   -4.0820    2.4160 H   0  0  0  0  0  0  0  0  0  0  0  0
    0.0070   -4.2190    1.0260 H   0  0  0  0  0  0  0  0  0  0  0  0
   -0.5910   -2.9130   -0.0680 H   0  0  0  0  0  0  0  0  0  0  0  0
   -1.0660   -5.1930   -0.9870 H   0  0  0  0  0  0  0  0  0  0  0  0
   -1.8780   -5.6730    0.5060 H   0  0  0  0  0  0  0  0  0  0  0  0
   -2.7880   -3.4570   -1.3810 H   0  0  0  0  0  0  0  0  0  0  0  0
   -3.6760   -3.9910    0.1320 H   0  0  0  0  0  0  0  0  0  0  0  0
   -3.2110   -5.5540   -2.3290 H   0  0  0  0  0  0  0  0  0  0  0  0
   -3.8550   -6.1640   -0.8250 H   0  0  0  0  0  0  0  0  0  0  0  0
  1  2  1  0  0  0  0
  2 14  1  6  0  0  0
  2  3  1  0  0  0  0
  2 10  1  0  0  0  0
  3  4  1  0  0  0  0
  3 16  1  0  0  0  0
  4  9  1  0  0  0  0
  5  6  1  0  0  0  0
  5  4  2  0  0  0  0
  6  7  2  0  0  0  0
  7 19  1  0  0  0  0
  7  8  1  0  0  0  0
  8 20  1  0  0  0  0
  9  8  2  0  0  0  0
  9 21  1  0  0  0  0
 10 27  1  0  0  0  0
 10 11  2  0  0  0  0
 12  1  1  0  0  0  0
 13  1  1  0  0  0  0
 15  3  1  0  0  0  0
 17  5  1  0  0  0  0
 18  6  1  0  0  0  0
 22 31  1  0  0  0  0
 23 25  1  0  0  0  0
 23 22  1  0  0  0  0
 24 23  2  0  0  0  0
 25 26  1  0  0  0  0
 25 32  1  0  0  0  0
 26 34  1  1  0  0  0
 26 28  1  0  0  0  0
 27 26  1  0  0  0  0
 28 29  2  0  0  0  0
 30 22  1  0  0  0  0
 33 25  1  0  0  0  0
 35 27  1  0  0  0  0
 36 28  1  0  0  0  0
 36 37  1  0  0  0  0
 37 47  1  1  0  0  0
 37 43  1  0  0  0  0
 38 49  1  0  0  0  0
 38 37  1  0  0  0  0
 39 50  1  0  0  0  0
 39 38  1  0  0  0  0
 40 53  1  0  0  0  0
 40 39  1  0  0  0  0
 41 40  1  0  0  0  0
 41 55  1  0  0  0  0
 42 57  1  0  0  0  0
 42 41  1  0  0  0  0
 43 45  2  0  0  0  0
 43 44  1  0  0  0  0
 46 36  1  0  0  0  0
 48 38  1  0  0  0  0
 51 39  1  0  0  0  0
 52 40  1  0  0  0  0
 54 41  1  0  0  0  0
 56 42  1  0  0  0  0
M  END
$$$$
