FNL.pdb
 OpenBabel07022418583D

 55 55  0  0  1  0  0  0  0  0999 V2000
   -1.3580    2.3650    0.7510 N   0  0  0  0  0  0  0  0  0  0  0  0
   -0.0640    2.0060    1.3310 C   0  0  1  0  0  0  0  0  0  0  0  0
   -0.2510    1.2640    2.6300 C   0  0  0  0  0  0  0  0  0  0  0  0
    1.0160    0.8670    3.2750 C   0  0  0  0  0  0  0  0  0  0  0  0
    1.6570    1.7460    4.1540 C   0  0  0  0  0  0  0  0  0  0  0  0
    2.8340    1.3830    4.7720 C   0  0  0  0  0  0  0  0  0  0  0  0
    3.4100    0.1640    4.5520 C   0  0  0  0  0  0  0  0  0  0  0  0
    2.7960   -0.7280    3.6850 C   0  0  0  0  0  0  0  0  0  0  0  0
    1.6240   -0.3690    3.0680 C   0  0  0  0  0  0  0  0  0  0  0  0
    0.7330    1.2040    0.3330 C   0  0  0  0  0  0  0  0  0  0  0  0
    1.8830    0.9350    0.6850 O   0  0  0  0  0  0  0  0  0  0  0  0
   -1.9680    2.6700    1.5370 H   0  0  0  0  0  0  0  0  0  0  0  0
   -1.2210    3.1810    0.1110 H   0  0  0  0  0  0  0  0  0  0  0  0
    0.4780    2.9440    1.5370 H   0  0  0  0  0  0  0  0  0  0  0  0
   -0.8160    1.9220    3.3240 H   0  0  0  0  0  0  0  0  0  0  0  0
   -0.8860    0.3580    2.4910 H   0  0  0  0  0  0  0  0  0  0  0  0
    1.2070    2.7240    4.3400 H   0  0  0  0  0  0  0  0  0  0  0  0
    3.3020    2.1000    5.4520 H   0  0  0  0  0  0  0  0  0  0  0  0
    4.3330   -0.0810    5.0570 H   0  0  0  0  0  0  0  0  0  0  0  0
    3.2770   -1.6840    3.5310 H   0  0  0  0  0  0  0  0  0  0  0  0
    1.1630   -1.0820    2.3980 H   0  0  0  0  0  0  0  0  0  0  0  0
    4.4340    0.9480   -1.1890 N   0  0  0  0  0  0  0  0  0  0  0  0
    3.0790    1.0100   -1.6020 C   0  0  0  0  0  0  0  0  0  0  0  0
    2.5940    2.1360   -1.9120 O   0  0  0  0  0  0  0  0  0  0  0  0
    2.2850   -0.2160   -1.6590 C   0  0  0  0  0  0  0  0  0  0  0  0
    0.8110    0.0840   -1.9220 C   0  0  2  0  0  0  0  0  0  0  0  0
    0.1870    0.8110   -0.8840 N   0  0  0  0  0  0  0  0  0  0  0  0
    0.1030   -1.1370   -2.3280 C   0  0  0  0  0  0  0  0  0  0  0  0
    0.5480   -1.8730   -3.2580 O   0  0  0  0  0  0  0  0  0  0  0  0
    4.6100    0.9140   -0.1620 H   0  0  0  0  0  0  0  0  0  0  0  0
    5.2520    0.9350   -1.8290 H   0  0  0  0  0  0  0  0  0  0  0  0
    2.6440   -0.8940   -2.4920 H   0  0  0  0  0  0  0  0  0  0  0  0
    2.3830   -0.7920   -0.7250 H   0  0  0  0  0  0  0  0  0  0  0  0
    0.9500    0.8150   -2.8350 H   0  0  0  0  0  0  0  0  0  0  0  0
   -0.8560    1.1220   -1.0200 H   0  0  0  0  0  0  0  0  0  0  0  0
   -3.8870   -2.7950    0.3490 C   0  0  0  0  0  0  0  0  0  0  0  0
   -2.4600   -3.2570    0.3970 C   0  0  0  0  0  0  0  0  0  0  0  0
   -2.4400   -4.4880    1.3180 C   0  0  0  0  0  0  0  0  0  0  0  0
   -1.8900   -3.6980   -0.9050 C   0  0  0  0  0  0  0  0  0  0  0  0
   -1.8630   -2.6690   -1.9900 C   0  0  2  0  0  0  0  0  0  0  0  0
   -1.1060   -1.5030   -1.6660 N   0  0  0  0  0  0  0  0  0  0  0  0
   -3.2180   -2.3840   -2.5040 C   0  0  0  0  0  0  0  0  0  0  0  0
   -3.6930   -1.2290   -2.6540 O   0  0  0  0  0  0  0  0  0  0  0  0
   -4.0540   -3.4400   -2.8570 O   0  0  0  0  0  0  0  0  0  0  0  0
   -4.5100   -3.5400   -0.1570 H   0  0  0  0  0  0  0  0  0  0  0  0
   -4.2480   -2.7990    1.4220 H   0  0  0  0  0  0  0  0  0  0  0  0
   -4.0270   -1.7600    0.0160 H   0  0  0  0  0  0  0  0  0  0  0  0
   -1.8290   -2.5080    0.9260 H   0  0  0  0  0  0  0  0  0  0  0  0
   -2.7080   -5.3440    0.6650 H   0  0  0  0  0  0  0  0  0  0  0  0
   -1.4210   -4.6760    1.6990 H   0  0  0  0  0  0  0  0  0  0  0  0
   -3.2000   -4.4120    2.1020 H   0  0  0  0  0  0  0  0  0  0  0  0
   -2.5060   -4.5510   -1.2740 H   0  0  0  0  0  0  0  0  0  0  0  0
   -0.8820   -4.0990   -0.7190 H   0  0  0  0  0  0  0  0  0  0  0  0
   -1.3280   -3.1730   -2.8550 H   0  0  0  0  0  0  0  0  0  0  0  0
   -1.4430   -0.8740   -0.9060 H   0  0  0  0  0  0  0  0  0  0  0  0
  1  2  1  0  0  0  0
  1 12  1  0  0  0  0
  2 14  1  1  0  0  0
  2  3  1  0  0  0  0
  3  4  1  0  0  0  0
  3 15  1  0  0  0  0
  4  5  1  0  0  0  0
  5 17  1  0  0  0  0
  5  6  2  0  0  0  0
  6 18  1  0  0  0  0
  7  6  1  0  0  0  0
  7 19  1  0  0  0  0
  8  7  2  0  0  0  0
  9  4  2  0  0  0  0
  9  8  1  0  0  0  0
 10 11  2  0  0  0  0
 10  2  1  0  0  0  0
 13  1  1  0  0  0  0
 16  3  1  0  0  0  0
 20  8  1  0  0  0  0
 21  9  1  0  0  0  0
 22 30  1  0  0  0  0
 23 22  1  0  0  0  0
 24 23  2  0  0  0  0
 25 23  1  0  0  0  0
 25 33  1  0  0  0  0
 26 34  1  6  0  0  0
 26 25  1  0  0  0  0
 26 27  1  0  0  0  0
 27 10  1  0  0  0  0
 28 26  1  0  0  0  0
 28 41  1  0  0  0  0
 29 28  2  0  0  0  0
 31 22  1  0  0  0  0
 32 25  1  0  0  0  0
 35 27  1  0  0  0  0
 36 37  1  0  0  0  0
 36 46  1  0  0  0  0
 37 48  1  0  0  0  0
 37 38  1  0  0  0  0
 38 50  1  0  0  0  0
 38 51  1  0  0  0  0
 39 53  1  0  0  0  0
 39 37  1  0  0  0  0
 40 54  1  6  0  0  0
 40 41  1  0  0  0  0
 40 39  1  0  0  0  0
 41 55  1  0  0  0  0
 42 40  1  0  0  0  0
 43 42  1  0  0  0  0
 44 42  2  0  0  0  0
 45 36  1  0  0  0  0
 47 36  1  0  0  0  0
 49 38  1  0  0  0  0
 52 39  1  0  0  0  0
M  END
$$$$
