FNR.pdb
 OpenBabel07022418583D

 59 59  0  0  1  0  0  0  0  0999 V2000
   -2.2090   -1.5080    3.1860 N   0  0  0  0  0  0  0  0  0  0  0  0
   -0.7560   -1.4620    3.0630 C   0  0  1  0  0  0  0  0  0  0  0  0
   -0.2790   -2.6340    2.2900 C   0  0  0  0  0  0  0  0  0  0  0  0
    1.1730   -2.6710    2.1380 C   0  0  0  0  0  0  0  0  0  0  0  0
    1.8920   -3.2310    3.2020 C   0  0  0  0  0  0  0  0  0  0  0  0
    3.2580   -3.3120    3.1080 C   0  0  0  0  0  0  0  0  0  0  0  0
    3.9430   -2.8560    1.9920 C   0  0  0  0  0  0  0  0  0  0  0  0
    3.2170   -2.3120    0.9610 C   0  0  0  0  0  0  0  0  0  0  0  0
    1.8180   -2.2130    1.0220 C   0  0  0  0  0  0  0  0  0  0  0  0
   -0.3850   -0.1590    2.4540 C   0  0  0  0  0  0  0  0  0  0  0  0
    0.7700    0.0830    2.0460 O   0  0  0  0  0  0  0  0  0  0  0  0
   -2.5050   -2.5010    3.0580 H   0  0  0  0  0  0  0  0  0  0  0  0
   -2.5320   -1.1370    4.0970 H   0  0  0  0  0  0  0  0  0  0  0  0
   -0.3690   -1.4660    4.1150 H   0  0  0  0  0  0  0  0  0  0  0  0
   -0.5960   -3.5550    2.8560 H   0  0  0  0  0  0  0  0  0  0  0  0
   -0.7810   -2.6620    1.2940 H   0  0  0  0  0  0  0  0  0  0  0  0
    1.3790   -3.5930    4.0820 H   0  0  0  0  0  0  0  0  0  0  0  0
    3.8820   -3.7340    3.8940 H   0  0  0  0  0  0  0  0  0  0  0  0
    5.0130   -2.9130    1.9040 H   0  0  0  0  0  0  0  0  0  0  0  0
    3.7260   -1.9490    0.0790 H   0  0  0  0  0  0  0  0  0  0  0  0
    1.2810   -1.7900    0.1910 H   0  0  0  0  0  0  0  0  0  0  0  0
    1.1950    2.0290    4.4220 N   0  0  0  0  0  0  0  0  0  0  0  0
    0.9860    2.6490    3.1490 C   0  0  0  0  0  0  0  0  0  0  0  0
    1.9960    2.8360    2.3950 O   0  0  0  0  0  0  0  0  0  0  0  0
   -0.3240    3.0820    2.6630 C   0  0  0  0  0  0  0  0  0  0  0  0
   -1.0540    2.1340    1.7640 C   0  0  2  0  0  0  0  0  0  0  0  0
   -1.3590    0.8620    2.3270 N   0  0  0  0  0  0  0  0  0  0  0  0
   -0.5320    2.1490    0.4000 C   0  0  0  0  0  0  0  0  0  0  0  0
   -0.0290    3.1950   -0.0850 O   0  0  0  0  0  0  0  0  0  0  0  0
    2.0480    2.2110    4.9800 H   0  0  0  0  0  0  0  0  0  0  0  0
    0.4860    1.3810    4.8070 H   0  0  0  0  0  0  0  0  0  0  0  0
   -0.2640    4.0670    2.1400 H   0  0  0  0  0  0  0  0  0  0  0  0
   -1.0220    3.2580    3.5390 H   0  0  0  0  0  0  0  0  0  0  0  0
   -2.0960    2.6860    1.6090 H   0  0  0  0  0  0  0  0  0  0  0  0
   -2.3340    0.6280    2.6760 H   0  0  0  0  0  0  0  0  0  0  0  0
   -2.1730   -4.9950   -3.6380 N   0  0  0  0  0  0  0  0  0  0  0  0
   -1.4490   -4.0600   -2.8690 C   0  0  0  0  0  0  0  0  0  0  0  0
   -0.2210   -4.2620   -2.6100 N   0  0  0  0  0  0  0  0  0  0  0  0
   -2.1020   -2.9060   -2.3940 N   0  0  0  0  0  0  0  0  0  0  0  0
   -1.2890   -1.8050   -1.8690 C   0  0  0  0  0  0  0  0  0  0  0  0
   -0.4980   -1.1490   -2.9300 C   0  0  0  0  0  0  0  0  0  0  0  0
    0.4180   -0.0810   -2.5250 C   0  0  0  0  0  0  0  0  0  0  0  0
   -0.0250    1.1110   -1.8050 C   0  0  2  0  0  0  0  0  0  0  0  0
   -0.5550    1.0060   -0.4850 N   0  0  0  0  0  0  0  0  0  0  0  0
   -1.0510    1.8750   -2.6710 C   0  0  0  0  0  0  0  0  0  0  0  0
   -2.1200    2.2730   -2.1680 O   0  0  0  0  0  0  0  0  0  0  0  0
   -0.8090    2.1320   -4.0020 O   0  0  0  0  0  0  0  0  0  0  0  0
   -2.8330   -4.5970   -4.3490 H   0  0  0  0  0  0  0  0  0  0  0  0
   -2.1010   -6.0360   -3.5510 H   0  0  0  0  0  0  0  0  0  0  0  0
    0.2470   -5.1190   -2.9680 H   0  0  0  0  0  0  0  0  0  0  0  0
   -3.1320   -2.7950   -2.3970 H   0  0  0  0  0  0  0  0  0  0  0  0
   -0.7110   -2.1480   -1.0190 H   0  0  0  0  0  0  0  0  0  0  0  0
   -2.0420   -1.0420   -1.4970 H   0  0  0  0  0  0  0  0  0  0  0  0
    0.1630   -1.9790   -3.3680 H   0  0  0  0  0  0  0  0  0  0  0  0
   -1.1290   -0.8770   -3.8270 H   0  0  0  0  0  0  0  0  0  0  0  0
    1.2190   -0.5730   -1.8540 H   0  0  0  0  0  0  0  0  0  0  0  0
    1.0760    0.2700   -3.3850 H   0  0  0  0  0  0  0  0  0  0  0  0
    0.8000    1.8740   -1.7770 H   0  0  0  0  0  0  0  0  0  0  0  0
   -0.9530    0.1560   -0.0720 H   0  0  0  0  0  0  0  0  0  0  0  0
  1 13  1  0  0  0  0
  2  1  1  0  0  0  0
  2 14  1  1  0  0  0
  3 15  1  0  0  0  0
  3  2  1  0  0  0  0
  4  3  1  0  0  0  0
  4  5  1  0  0  0  0
  5 17  1  0  0  0  0
  6  5  2  0  0  0  0
  6 18  1  0  0  0  0
  7  6  1  0  0  0  0
  8  9  1  0  0  0  0
  8  7  2  0  0  0  0
  9  4  2  0  0  0  0
 10  2  1  0  0  0  0
 11 10  2  0  0  0  0
 12  1  1  0  0  0  0
 16  3  1  0  0  0  0
 19  7  1  0  0  0  0
 20  8  1  0  0  0  0
 21  9  1  0  0  0  0
 22 31  1  0  0  0  0
 22 30  1  0  0  0  0
 23 22  1  0  0  0  0
 24 23  2  0  0  0  0
 25 23  1  0  0  0  0
 25 33  1  0  0  0  0
 26 34  1  6  0  0  0
 26 27  1  0  0  0  0
 26 25  1  0  0  0  0
 27 10  1  0  0  0  0
 27 35  1  0  0  0  0
 28 26  1  0  0  0  0
 29 28  2  0  0  0  0
 32 25  1  0  0  0  0
 36 49  1  0  0  0  0
 36 37  1  0  0  0  0
 37 38  2  0  0  0  0
 37 39  1  0  0  0  0
 39 40  1  0  0  0  0
 40 53  1  0  0  0  0
 40 52  1  0  0  0  0
 41 42  1  0  0  0  0
 41 40  1  0  0  0  0
 42 56  1  0  0  0  0
 42 43  1  0  0  0  0
 43 58  1  1  0  0  0
 43 44  1  0  0  0  0
 44 59  1  0  0  0  0
 44 28  1  0  0  0  0
 45 46  1  0  0  0  0
 45 43  1  0  0  0  0
 47 45  2  0  0  0  0
 48 36  1  0  0  0  0
 50 38  1  0  0  0  0
 51 39  1  0  0  0  0
 54 41  1  0  0  0  0
 55 41  1  0  0  0  0
 57 42  1  0  0  0  0
M  END
$$$$
