FNT.pdb
 OpenBabel07022418583D

 50 50  0  0  1  0  0  0  0  0999 V2000
    0.3990   -0.9850    4.3550 N   0  0  0  0  0  0  0  0  0  0  0  0
    1.4150   -0.1880    3.6470 C   0  0  1  0  0  0  0  0  0  0  0  0
    2.5970   -1.0900    3.4930 C   0  0  0  0  0  0  0  0  0  0  0  0
    3.7510   -0.5040    2.8050 C   0  0  0  0  0  0  0  0  0  0  0  0
    4.7520    0.1910    3.4570 C   0  0  0  0  0  0  0  0  0  0  0  0
    5.8400    0.7280    2.7720 C   0  0  0  0  0  0  0  0  0  0  0  0
    5.9160    0.5600    1.4150 C   0  0  0  0  0  0  0  0  0  0  0  0
    4.9310   -0.1280    0.7470 C   0  0  0  0  0  0  0  0  0  0  0  0
    3.8620   -0.6520    1.4420 C   0  0  0  0  0  0  0  0  0  0  0  0
    0.8350    0.1810    2.2890 C   0  0  0  0  0  0  0  0  0  0  0  0
    1.5410    0.9120    1.5850 O   0  0  0  0  0  0  0  0  0  0  0  0
    0.9110   -1.4290    5.1660 H   0  0  0  0  0  0  0  0  0  0  0  0
   -0.3380   -0.3750    4.7750 H   0  0  0  0  0  0  0  0  0  0  0  0
    1.6070    0.7230    4.2420 H   0  0  0  0  0  0  0  0  0  0  0  0
    2.9010   -1.4530    4.4970 H   0  0  0  0  0  0  0  0  0  0  0  0
    2.2500   -1.9750    2.9040 H   0  0  0  0  0  0  0  0  0  0  0  0
    4.7060    0.3320    4.5290 H   0  0  0  0  0  0  0  0  0  0  0  0
    6.6030    1.2670    3.3260 H   0  0  0  0  0  0  0  0  0  0  0  0
    6.7430    0.9610    0.8500 H   0  0  0  0  0  0  0  0  0  0  0  0
    5.0070   -0.2500   -0.3230 H   0  0  0  0  0  0  0  0  0  0  0  0
    3.1290   -1.1840    0.8440 H   0  0  0  0  0  0  0  0  0  0  0  0
   -0.9910    2.6030    1.6080 N   0  0  0  0  0  0  0  0  0  0  0  0
   -0.3350    2.2450    0.4070 C   0  0  0  0  0  0  0  0  0  0  0  0
    0.3740    3.1670   -0.1240 O   0  0  0  0  0  0  0  0  0  0  0  0
   -0.4160    0.9180   -0.2510 C   0  0  0  0  0  0  0  0  0  0  0  0
   -1.1180   -0.0350    0.6850 C   0  0  2  0  0  0  0  0  0  0  0  0
   -0.4080   -0.2880    1.8930 N   0  0  0  0  0  0  0  0  0  0  0  0
   -1.6410   -1.2420    0.0870 C   0  0  0  0  0  0  0  0  0  0  0  0
   -1.4170   -2.3530    0.6780 O   0  0  0  0  0  0  0  0  0  0  0  0
   -2.0090    2.5210    1.7970 H   0  0  0  0  0  0  0  0  0  0  0  0
   -0.4130    2.9890    2.3890 H   0  0  0  0  0  0  0  0  0  0  0  0
    0.5840    0.5940   -0.5390 H   0  0  0  0  0  0  0  0  0  0  0  0
   -1.0440    1.0590   -1.1620 H   0  0  0  0  0  0  0  0  0  0  0  0
   -2.0250    0.6550    0.9960 H   0  0  0  0  0  0  0  0  0  0  0  0
   -0.9210   -0.9430    2.5940 H   0  0  0  0  0  0  0  0  0  0  0  0
   -4.9460   -1.6310   -2.6670 C   0  0  0  0  0  0  0  0  0  0  0  0
   -4.3780   -2.6690   -1.7430 C   0  0  1  0  0  0  0  0  0  0  0  0
   -4.6620   -3.9490   -2.2690 O   0  0  0  0  0  0  0  0  0  0  0  0
   -2.8740   -2.5970   -1.6350 C   0  0  2  0  0  0  0  0  0  0  0  0
   -2.3920   -1.3420   -1.1080 N   0  0  0  0  0  0  0  0  0  0  0  0
   -2.2190   -2.9130   -2.9390 C   0  0  0  0  0  0  0  0  0  0  0  0
   -2.4720   -3.9500   -3.5860 O   0  0  0  0  0  0  0  0  0  0  0  0
   -1.2950   -1.9920   -3.4210 O   0  0  0  0  0  0  0  0  0  0  0  0
   -4.8490   -1.9670   -3.7120 H   0  0  0  0  0  0  0  0  0  0  0  0
   -6.0430   -1.5740   -2.4580 H   0  0  0  0  0  0  0  0  0  0  0  0
   -4.4770   -0.6580   -2.4880 H   0  0  0  0  0  0  0  0  0  0  0  0
   -4.8130   -2.6330   -0.7370 H   0  0  0  0  0  0  0  0  0  0  0  0
   -4.1580   -4.6130   -1.7050 H   0  0  0  0  0  0  0  0  0  0  0  0
   -2.5770   -3.4550   -0.9610 H   0  0  0  0  0  0  0  0  0  0  0  0
   -2.5960   -0.4570   -1.6150 H   0  0  0  0  0  0  0  0  0  0  0  0
  1 13  1  0  0  0  0
  1 12  1  0  0  0  0
  2 14  1  1  0  0  0
  2  1  1  0  0  0  0
  3  2  1  0  0  0  0
  3 15  1  0  0  0  0
  4  5  1  0  0  0  0
  4  3  1  0  0  0  0
  5 17  1  0  0  0  0
  6 18  1  0  0  0  0
  6  5  2  0  0  0  0
  7  6  1  0  0  0  0
  8  7  2  0  0  0  0
  8  9  1  0  0  0  0
  9  4  2  0  0  0  0
 10  2  1  0  0  0  0
 11 10  2  0  0  0  0
 16  3  1  0  0  0  0
 19  7  1  0  0  0  0
 20  8  1  0  0  0  0
 21  9  1  0  0  0  0
 22 30  1  0  0  0  0
 22 31  1  0  0  0  0
 23 22  1  0  0  0  0
 24 23  2  0  0  0  0
 25 23  1  0  0  0  0
 25 26  1  0  0  0  0
 26 34  1  1  0  0  0
 26 27  1  0  0  0  0
 27 10  1  0  0  0  0
 27 35  1  0  0  0  0
 28 29  2  0  0  0  0
 28 26  1  0  0  0  0
 32 25  1  0  0  0  0
 33 25  1  0  0  0  0
 36 46  1  0  0  0  0
 36 45  1  0  0  0  0
 36 37  1  0  0  0  0
 37 39  1  0  0  0  0
 37 47  1  1  0  0  0
 38 37  1  0  0  0  0
 38 48  1  0  0  0  0
 39 40  1  0  0  0  0
 39 49  1  1  0  0  0
 40 28  1  0  0  0  0
 41 39  1  0  0  0  0
 42 41  2  0  0  0  0
 43 41  1  0  0  0  0
 44 36  1  0  0  0  0
 50 40  1  0  0  0  0
M  END
$$$$
