FNW.pdb
 OpenBabel07022418583D

 60 62  0  0  1  0  0  0  0  0999 V2000
    3.0670   -0.8400    3.8990 N   0  0  0  0  0  0  0  0  0  0  0  0
    2.1980    0.1980    3.3640 C   0  0  1  0  0  0  0  0  0  0  0  0
    2.9620    1.1670    2.5290 C   0  0  0  0  0  0  0  0  0  0  0  0
    3.6500    0.5800    1.3630 C   0  0  0  0  0  0  0  0  0  0  0  0
    4.9450    0.1090    1.4860 C   0  0  0  0  0  0  0  0  0  0  0  0
    5.6100   -0.4400    0.4140 C   0  0  0  0  0  0  0  0  0  0  0  0
    5.0000   -0.5380   -0.8300 C   0  0  0  0  0  0  0  0  0  0  0  0
    3.7090   -0.0710   -0.9650 C   0  0  0  0  0  0  0  0  0  0  0  0
    3.0590    0.4740    0.1160 C   0  0  0  0  0  0  0  0  0  0  0  0
    0.9740   -0.3370    2.7800 C   0  0  0  0  0  0  0  0  0  0  0  0
    0.8280   -1.6080    2.7420 O   0  0  0  0  0  0  0  0  0  0  0  0
    3.6690   -1.2720    3.1700 H   0  0  0  0  0  0  0  0  0  0  0  0
    2.5170   -1.5410    4.4400 H   0  0  0  0  0  0  0  0  0  0  0  0
    1.8780    0.7790    4.2830 H   0  0  0  0  0  0  0  0  0  0  0  0
    2.2490    1.9330    2.1410 H   0  0  0  0  0  0  0  0  0  0  0  0
    3.7160    1.7400    3.1050 H   0  0  0  0  0  0  0  0  0  0  0  0
    5.4360    0.1780    2.4490 H   0  0  0  0  0  0  0  0  0  0  0  0
    6.6380   -0.8230    0.4850 H   0  0  0  0  0  0  0  0  0  0  0  0
    5.5290   -0.9690   -1.6610 H   0  0  0  0  0  0  0  0  0  0  0  0
    3.2190   -0.1450   -1.9470 H   0  0  0  0  0  0  0  0  0  0  0  0
    2.0440    0.8420    0.0090 H   0  0  0  0  0  0  0  0  0  0  0  0
   -3.5410    0.5930    4.6520 N   0  0  0  0  0  0  0  0  0  0  0  0
   -2.4750    0.1200    3.8540 C   0  0  0  0  0  0  0  0  0  0  0  0
   -1.5650   -0.5500    4.3660 O   0  0  0  0  0  0  0  0  0  0  0  0
   -2.4800    0.4420    2.4230 C   0  0  0  0  0  0  0  0  0  0  0  0
   -1.2900   -0.1170    1.6790 C   0  0  2  0  0  0  0  0  0  0  0  0
   -0.0880    0.4240    2.2440 N   0  0  0  0  0  0  0  0  0  0  0  0
   -1.4910    0.2160    0.2500 C   0  0  0  0  0  0  0  0  0  0  0  0
   -0.6600    0.9140   -0.3760 O   0  0  0  0  0  0  0  0  0  0  0  0
   -3.8800    1.5720    4.5170 H   0  0  0  0  0  0  0  0  0  0  0  0
   -3.9560   -0.0710    5.3620 H   0  0  0  0  0  0  0  0  0  0  0  0
   -2.4720    1.5570    2.2610 H   0  0  0  0  0  0  0  0  0  0  0  0
   -3.4370    0.0980    1.9660 H   0  0  0  0  0  0  0  0  0  0  0  0
   -1.3340   -1.2260    1.7360 H   0  0  0  0  0  0  0  0  0  0  0  0
    0.0210    1.4630    2.2670 H   0  0  0  0  0  0  0  0  0  0  0  0
   -2.6640   -0.2860   -0.3820 N   0  0  0  0  0  0  0  0  0  0  0  0
   -2.9710   -0.0330   -1.7570 C   0  0  1  0  0  0  0  0  0  0  0  0
   -3.0530   -1.2510   -2.6290 C   0  0  0  0  0  0  0  0  0  0  0  0
   -1.8420   -2.0500   -2.7190 C   0  0  0  0  0  0  0  0  0  0  0  0
   -0.9570   -1.9830   -3.7780 C   0  0  0  0  0  0  0  0  0  0  0  0
    0.0480   -2.8380   -3.5190 N   0  0  0  0  0  0  0  0  0  0  0  0
   -0.1570   -3.4450   -2.3450 C   0  0  0  0  0  0  0  0  0  0  0  0
    0.5790   -4.3970   -1.6500 C   0  0  0  0  0  0  0  0  0  0  0  0
    0.1420   -4.8720   -0.4440 C   0  0  0  0  0  0  0  0  0  0  0  0
   -1.0350   -4.3940    0.0710 C   0  0  0  0  0  0  0  0  0  0  0  0
   -1.7690   -3.4560   -0.6030 C   0  0  0  0  0  0  0  0  0  0  0  0
   -1.3580   -2.9550   -1.8200 C   0  0  0  0  0  0  0  0  0  0  0  0
   -4.2410    0.7270   -1.9190 C   0  0  0  0  0  0  0  0  0  0  0  0
   -4.6770    1.0430   -3.0540 O   0  0  0  0  0  0  0  0  0  0  0  0
   -4.9910    1.1150   -0.8180 O   0  0  0  0  0  0  0  0  0  0  0  0
   -3.3450   -0.8560    0.1660 H   0  0  0  0  0  0  0  0  0  0  0  0
   -2.1640    0.6700   -2.1310 H   0  0  0  0  0  0  0  0  0  0  0  0
   -3.4000   -0.8800   -3.6380 H   0  0  0  0  0  0  0  0  0  0  0  0
   -3.8970   -1.9080   -2.2860 H   0  0  0  0  0  0  0  0  0  0  0  0
   -1.0250   -1.3610   -4.6840 H   0  0  0  0  0  0  0  0  0  0  0  0
    0.8620   -2.9810   -4.1710 H   0  0  0  0  0  0  0  0  0  0  0  0
    1.5030   -4.7280   -2.1230 H   0  0  0  0  0  0  0  0  0  0  0  0
    0.7160   -5.6030    0.0810 H   0  0  0  0  0  0  0  0  0  0  0  0
   -1.4270   -4.7430    1.0350 H   0  0  0  0  0  0  0  0  0  0  0  0
   -2.7090   -3.0790   -0.1990 H   0  0  0  0  0  0  0  0  0  0  0  0
  1 13  1  0  0  0  0
  2  1  1  0  0  0  0
  2 14  1  1  0  0  0
  3 16  1  0  0  0  0
  3  2  1  0  0  0  0
  4  5  1  0  0  0  0
  4  3  1  0  0  0  0
  5 17  1  0  0  0  0
  6 18  1  0  0  0  0
  6  5  2  0  0  0  0
  7  6  1  0  0  0  0
  8  7  2  0  0  0  0
  8  9  1  0  0  0  0
  9  4  2  0  0  0  0
 10  2  1  0  0  0  0
 11 10  2  0  0  0  0
 12  1  1  0  0  0  0
 15  3  1  0  0  0  0
 19  7  1  0  0  0  0
 20  8  1  0  0  0  0
 21  9  1  0  0  0  0
 22 31  1  0  0  0  0
 23 24  2  0  0  0  0
 23 22  1  0  0  0  0
 25 23  1  0  0  0  0
 26 34  1  1  0  0  0
 26 27  1  0  0  0  0
 26 25  1  0  0  0  0
 27 35  1  0  0  0  0
 27 10  1  0  0  0  0
 28 26  1  0  0  0  0
 29 28  2  0  0  0  0
 30 22  1  0  0  0  0
 32 25  1  0  0  0  0
 33 25  1  0  0  0  0
 36 51  1  0  0  0  0
 36 28  1  0  0  0  0
 37 52  1  6  0  0  0
 37 36  1  0  0  0  0
 38 54  1  0  0  0  0
 38 37  1  0  0  0  0
 39 38  1  0  0  0  0
 39 47  1  0  0  0  0
 40 41  1  0  0  0  0
 40 39  2  0  0  0  0
 41 42  1  0  0  0  0
 42 47  2  0  0  0  0
 42 43  1  0  0  0  0
 43 44  2  0  0  0  0
 44 45  1  0  0  0  0
 44 58  1  0  0  0  0
 45 59  1  0  0  0  0
 46 60  1  0  0  0  0
 46 45  2  0  0  0  0
 47 46  1  0  0  0  0
 48 37  1  0  0  0  0
 48 50  1  0  0  0  0
 49 48  2  0  0  0  0
 53 38  1  0  0  0  0
 55 40  1  0  0  0  0
 56 41  1  0  0  0  0
 57 43  1  0  0  0  0
M  END
$$$$
