FPA.pdb
 OpenBabel07022419003D

 46 47  0  0  1  0  0  0  0  0999 V2000
    1.5150   -2.7110    1.4060 N   0  0  0  0  0  0  0  0  0  0  0  0
    2.6990   -1.9310    1.2320 C   0  0  1  0  0  0  0  0  0  0  0  0
    3.2960   -2.0770   -0.1530 C   0  0  0  0  0  0  0  0  0  0  0  0
    2.3610   -1.6550   -1.2120 C   0  0  0  0  0  0  0  0  0  0  0  0
    1.4850   -2.5360   -1.7950 C   0  0  0  0  0  0  0  0  0  0  0  0
    0.6100   -2.1110   -2.7950 C   0  0  0  0  0  0  0  0  0  0  0  0
    0.6070   -0.8010   -3.2160 C   0  0  0  0  0  0  0  0  0  0  0  0
    1.4760    0.0790   -2.6390 C   0  0  0  0  0  0  0  0  0  0  0  0
    2.3450   -0.3530   -1.6430 C   0  0  0  0  0  0  0  0  0  0  0  0
    2.5930   -0.5240    1.6470 C   0  0  0  0  0  0  0  0  0  0  0  0
    3.6360    0.2040    1.4570 O   0  0  0  0  0  0  0  0  0  0  0  0
    1.7000   -3.7100    1.6500 H   0  0  0  0  0  0  0  0  0  0  0  0
    0.8510   -2.6690    0.6280 H   0  0  0  0  0  0  0  0  0  0  0  0
    3.4700   -2.3880    1.9240 H   0  0  0  0  0  0  0  0  0  0  0  0
    4.2300   -1.4510   -0.1590 H   0  0  0  0  0  0  0  0  0  0  0  0
    3.6510   -3.1210   -0.2980 H   0  0  0  0  0  0  0  0  0  0  0  0
    1.4310   -3.5770   -1.5170 H   0  0  0  0  0  0  0  0  0  0  0  0
   -0.0880   -2.7870   -3.2680 H   0  0  0  0  0  0  0  0  0  0  0  0
   -0.0530   -0.4280   -3.9870 H   0  0  0  0  0  0  0  0  0  0  0  0
    1.4990    1.1190   -2.9480 H   0  0  0  0  0  0  0  0  0  0  0  0
    3.0050    0.3590   -1.2190 H   0  0  0  0  0  0  0  0  0  0  0  0
    1.4750    0.1110    2.2290 N   0  0  0  0  0  0  0  0  0  0  0  0
    1.4820    1.5410    2.5930 C   0  0  0  0  0  0  0  0  0  0  0  0
    0.9140    1.4830    3.9950 C   0  0  0  0  0  0  0  0  0  0  0  0
   -0.0570    0.3240    3.9420 C   0  0  0  0  0  0  0  0  0  0  0  0
    0.1670   -0.3610    2.5980 C   0  0  1  0  0  0  0  0  0  0  0  0
   -0.8250    0.0760    1.5790 C   0  0  0  0  0  0  0  0  0  0  0  0
   -0.4620    0.7220    0.5660 O   0  0  0  0  0  0  0  0  0  0  0  0
    2.5150    1.9490    2.5980 H   0  0  0  0  0  0  0  0  0  0  0  0
    0.8500    2.0970    1.8870 H   0  0  0  0  0  0  0  0  0  0  0  0
    1.7590    1.2610    4.6770 H   0  0  0  0  0  0  0  0  0  0  0  0
    0.4280    2.4310    4.2570 H   0  0  0  0  0  0  0  0  0  0  0  0
    0.2110   -0.4040    4.7190 H   0  0  0  0  0  0  0  0  0  0  0  0
   -1.0840    0.7180    4.0420 H   0  0  0  0  0  0  0  0  0  0  0  0
    0.1010   -1.4660    2.7310 H   0  0  0  0  0  0  0  0  0  0  0  0
   -3.8770   -0.9650    0.0520 C   0  0  0  0  0  0  0  0  0  0  0  0
   -3.1810    0.2140    0.7010 C   0  0  2  0  0  0  0  0  0  0  0  0
   -2.2130   -0.2100    1.6940 N   0  0  0  0  0  0  0  0  0  0  0  0
   -4.1950    1.0690    1.3620 C   0  0  0  0  0  0  0  0  0  0  0  0
   -5.1530    1.5680    0.7050 O   0  0  0  0  0  0  0  0  0  0  0  0
   -4.1570    1.3700    2.7220 O   0  0  0  0  0  0  0  0  0  0  0  0
   -3.7660   -1.8510    0.7240 H   0  0  0  0  0  0  0  0  0  0  0  0
   -3.4400   -1.1820   -0.9270 H   0  0  0  0  0  0  0  0  0  0  0  0
   -4.9580   -0.7880   -0.0710 H   0  0  0  0  0  0  0  0  0  0  0  0
   -2.6380    0.7640   -0.0970 H   0  0  0  0  0  0  0  0  0  0  0  0
   -2.5820   -0.7440    2.5110 H   0  0  0  0  0  0  0  0  0  0  0  0
  1 12  1  0  0  0  0
  2  1  1  0  0  0  0
  2 10  1  0  0  0  0
  2 14  1  1  0  0  0
  3  2  1  0  0  0  0
  4  3  1  0  0  0  0
  5 17  1  0  0  0  0
  5  4  2  0  0  0  0
  6  5  1  0  0  0  0
  7  6  2  0  0  0  0
  7  8  1  0  0  0  0
  8  9  2  0  0  0  0
  9 21  1  0  0  0  0
  9  4  1  0  0  0  0
 10 22  1  0  0  0  0
 11 10  2  0  0  0  0
 13  1  1  0  0  0  0
 15  3  1  0  0  0  0
 16  3  1  0  0  0  0
 18  6  1  0  0  0  0
 19  7  1  0  0  0  0
 20  8  1  0  0  0  0
 22 23  1  0  0  0  0
 22 26  1  0  0  0  0
 23 29  1  0  0  0  0
 23 24  1  0  0  0  0
 24 32  1  0  0  0  0
 24 31  1  0  0  0  0
 25 24  1  0  0  0  0
 25 34  1  0  0  0  0
 25 33  1  0  0  0  0
 26 35  1  1  0  0  0
 26 25  1  0  0  0  0
 27 38  1  0  0  0  0
 27 26  1  0  0  0  0
 28 27  2  0  0  0  0
 30 23  1  0  0  0  0
 36 37  1  0  0  0  0
 36 42  1  0  0  0  0
 37 45  1  6  0  0  0
 37 39  1  0  0  0  0
 37 38  1  0  0  0  0
 38 46  1  0  0  0  0
 39 41  1  0  0  0  0
 40 39  2  0  0  0  0
 43 36  1  0  0  0  0
 44 36  1  0  0  0  0
M  END
$$$$
