FPD.pdb
 OpenBabel07022419013D

 49 50  0  0  1  0  0  0  0  0999 V2000
   -0.2170   -2.1440    4.7800 N   0  0  0  0  0  0  0  0  0  0  0  0
    0.6560   -1.3360    3.8850 C   0  0  1  0  0  0  0  0  0  0  0  0
    1.6910   -2.3250    3.4070 C   0  0  0  0  0  0  0  0  0  0  0  0
    2.7020   -1.8130    2.4920 C   0  0  0  0  0  0  0  0  0  0  0  0
    2.5770   -1.9230    1.1290 C   0  0  0  0  0  0  0  0  0  0  0  0
    3.5870   -1.4000    0.3190 C   0  0  0  0  0  0  0  0  0  0  0  0
    4.6960   -0.7830    0.8410 C   0  0  0  0  0  0  0  0  0  0  0  0
    4.8240   -0.6720    2.1940 C   0  0  0  0  0  0  0  0  0  0  0  0
    3.8230   -1.1900    2.9930 C   0  0  0  0  0  0  0  0  0  0  0  0
   -0.1960   -0.8870    2.7770 C   0  0  0  0  0  0  0  0  0  0  0  0
   -1.2370   -1.5370    2.5160 O   0  0  0  0  0  0  0  0  0  0  0  0
    0.3240   -2.4980    5.5830 H   0  0  0  0  0  0  0  0  0  0  0  0
   -1.0650   -1.6060    5.0400 H   0  0  0  0  0  0  0  0  0  0  0  0
    1.1170   -0.5200    4.4550 H   0  0  0  0  0  0  0  0  0  0  0  0
    1.1610   -3.1780    2.8890 H   0  0  0  0  0  0  0  0  0  0  0  0
    2.1620   -2.7580    4.3350 H   0  0  0  0  0  0  0  0  0  0  0  0
    1.7410   -2.3980    0.6480 H   0  0  0  0  0  0  0  0  0  0  0  0
    3.5120   -1.4740   -0.7500 H   0  0  0  0  0  0  0  0  0  0  0  0
    5.4520   -0.3930    0.1700 H   0  0  0  0  0  0  0  0  0  0  0  0
    5.7000   -0.1830    2.6130 H   0  0  0  0  0  0  0  0  0  0  0  0
    3.9800   -1.0710    4.0720 H   0  0  0  0  0  0  0  0  0  0  0  0
    0.0800    0.2720    1.9570 N   0  0  0  0  0  0  0  0  0  0  0  0
    1.2100    1.1540    2.0770 C   0  0  0  0  0  0  0  0  0  0  0  0
    0.6760    2.4760    1.4790 C   0  0  0  0  0  0  0  0  0  0  0  0
   -0.1860    1.9390    0.3240 C   0  0  0  0  0  0  0  0  0  0  0  0
   -0.7780    0.7200    0.9140 C   0  0  1  0  0  0  0  0  0  0  0  0
   -1.1230   -0.3170   -0.0970 C   0  0  0  0  0  0  0  0  0  0  0  0
   -0.7160   -1.4970   -0.0530 O   0  0  0  0  0  0  0  0  0  0  0  0
    2.1200    0.8470    1.5730 H   0  0  0  0  0  0  0  0  0  0  0  0
    1.4470    1.3200    3.1640 H   0  0  0  0  0  0  0  0  0  0  0  0
    0.0020    2.9150    2.2320 H   0  0  0  0  0  0  0  0  0  0  0  0
    1.4730    3.1320    1.1440 H   0  0  0  0  0  0  0  0  0  0  0  0
   -0.9190    2.7060   -0.0050 H   0  0  0  0  0  0  0  0  0  0  0  0
    0.5490    1.6930   -0.4860 H   0  0  0  0  0  0  0  0  0  0  0  0
   -1.7440    1.0170    1.4250 H   0  0  0  0  0  0  0  0  0  0  0  0
   -1.9690    0.0950   -1.1640 N   0  0  0  0  0  0  0  0  0  0  0  0
   -2.3790   -0.8260   -2.2170 C   0  0  1  0  0  0  0  0  0  0  0  0
   -3.8740   -1.0500   -2.1780 C   0  0  0  0  0  0  0  0  0  0  0  0
   -4.2320   -1.9910   -3.2630 C   0  0  0  0  0  0  0  0  0  0  0  0
   -4.5670   -1.6480   -4.4290 O   0  0  0  0  0  0  0  0  0  0  0  0
   -1.8800   -0.3950   -3.5330 C   0  0  0  0  0  0  0  0  0  0  0  0
   -2.0630   -1.0170   -4.6050 O   0  0  0  0  0  0  0  0  0  0  0  0
   -4.2000   -3.3730   -2.9880 O   0  0  0  0  0  0  0  0  0  0  0  0
   -1.1340    0.7960   -3.6790 O   0  0  0  0  0  0  0  0  0  0  0  0
   -2.3340    1.0720   -1.2430 H   0  0  0  0  0  0  0  0  0  0  0  0
   -1.9090   -1.8170   -1.9940 H   0  0  0  0  0  0  0  0  0  0  0  0
   -4.1520   -1.5470   -1.2110 H   0  0  0  0  0  0  0  0  0  0  0  0
   -4.4350   -0.0900   -2.2790 H   0  0  0  0  0  0  0  0  0  0  0  0
   -4.6300   -4.0010   -3.6730 H   0  0  0  0  0  0  0  0  0  0  0  0
  1 13  1  0  0  0  0
  1 12  1  0  0  0  0
  2 14  1  1  0  0  0
  2  1  1  0  0  0  0
  3  2  1  0  0  0  0
  3 16  1  0  0  0  0
  4  9  1  0  0  0  0
  4  3  1  0  0  0  0
  5  4  2  0  0  0  0
  6  7  2  0  0  0  0
  6  5  1  0  0  0  0
  7  8  1  0  0  0  0
  8 20  1  0  0  0  0
  8  9  2  0  0  0  0
  9 21  1  0  0  0  0
 10  2  1  0  0  0  0
 11 10  2  0  0  0  0
 15  3  1  0  0  0  0
 17  5  1  0  0  0  0
 18  6  1  0  0  0  0
 19  7  1  0  0  0  0
 22 23  1  0  0  0  0
 22 10  1  0  0  0  0
 23 30  1  0  0  0  0
 24 23  1  0  0  0  0
 24 31  1  0  0  0  0
 25 26  1  0  0  0  0
 25 24  1  0  0  0  0
 26 35  1  1  0  0  0
 26 22  1  0  0  0  0
 27 28  2  0  0  0  0
 27 26  1  0  0  0  0
 29 23  1  0  0  0  0
 32 24  1  0  0  0  0
 33 25  1  0  0  0  0
 34 25  1  0  0  0  0
 36 27  1  0  0  0  0
 37 38  1  0  0  0  0
 37 46  1  1  0  0  0
 37 36  1  0  0  0  0
 38 47  1  0  0  0  0
 39 43  1  0  0  0  0
 39 38  1  0  0  0  0
 40 39  2  0  0  0  0
 41 37  1  0  0  0  0
 42 41  2  0  0  0  0
 44 41  1  0  0  0  0
 45 36  1  0  0  0  0
 48 38  1  0  0  0  0
 49 43  1  0  0  0  0
M  END
$$$$
