FPK.pdb
 OpenBabel07022419013D

 57 58  0  0  1  0  0  0  0  0999 V2000
    1.5830   -0.0180    2.0870 N   0  0  0  0  0  0  0  0  0  0  0  0
    2.3540    0.1120    0.9280 C   0  0  1  0  0  0  0  0  0  0  0  0
    2.9530   -1.1970    0.4860 C   0  0  0  0  0  0  0  0  0  0  0  0
    3.8490   -1.7540    1.5280 C   0  0  0  0  0  0  0  0  0  0  0  0
    5.2050   -1.4190    1.5640 C   0  0  0  0  0  0  0  0  0  0  0  0
    6.0330   -1.9430    2.5300 C   0  0  0  0  0  0  0  0  0  0  0  0
    5.5050   -2.8060    3.4650 C   0  0  0  0  0  0  0  0  0  0  0  0
    4.1770   -3.1720    3.4780 C   0  0  0  0  0  0  0  0  0  0  0  0
    3.3680   -2.6170    2.4780 C   0  0  0  0  0  0  0  0  0  0  0  0
    1.5870    0.7880   -0.1470 C   0  0  0  0  0  0  0  0  0  0  0  0
    2.1910    0.8600   -1.2860 O   0  0  0  0  0  0  0  0  0  0  0  0
    1.1030   -0.8970    2.2630 H   0  0  0  0  0  0  0  0  0  0  0  0
    1.8700    0.5230    2.9180 H   0  0  0  0  0  0  0  0  0  0  0  0
    3.2540    0.7780    1.1500 H   0  0  0  0  0  0  0  0  0  0  0  0
    3.5730   -0.9920   -0.4360 H   0  0  0  0  0  0  0  0  0  0  0  0
    2.1420   -1.9120    0.2510 H   0  0  0  0  0  0  0  0  0  0  0  0
    5.5530   -0.7340    0.7980 H   0  0  0  0  0  0  0  0  0  0  0  0
    7.0800   -1.6810    2.5540 H   0  0  0  0  0  0  0  0  0  0  0  0
    6.1290   -3.2420    4.2460 H   0  0  0  0  0  0  0  0  0  0  0  0
    3.7480   -3.8520    4.2100 H   0  0  0  0  0  0  0  0  0  0  0  0
    2.3280   -2.9180    2.5030 H   0  0  0  0  0  0  0  0  0  0  0  0
    0.3010    1.3400   -0.0290 N   0  0  0  0  0  0  0  0  0  0  0  0
   -0.3850    2.0200   -1.1510 C   0  0  0  0  0  0  0  0  0  0  0  0
   -1.0430    3.2010   -0.4150 C   0  0  0  0  0  0  0  0  0  0  0  0
   -1.5390    2.5520    0.8410 C   0  0  0  0  0  0  0  0  0  0  0  0
   -0.5750    1.3990    1.0830 C   0  0  1  0  0  0  0  0  0  0  0  0
   -1.3900    0.1980    1.3310 C   0  0  0  0  0  0  0  0  0  0  0  0
   -2.1060    0.1940    2.3670 O   0  0  0  0  0  0  0  0  0  0  0  0
   -1.2020    1.4190   -1.5540 H   0  0  0  0  0  0  0  0  0  0  0  0
    0.3240    2.4230   -1.8770 H   0  0  0  0  0  0  0  0  0  0  0  0
   -0.2430    3.9340   -0.1240 H   0  0  0  0  0  0  0  0  0  0  0  0
   -1.8310    3.6600   -1.0250 H   0  0  0  0  0  0  0  0  0  0  0  0
   -1.5830    3.2580    1.7000 H   0  0  0  0  0  0  0  0  0  0  0  0
   -2.5540    2.1390    0.6130 H   0  0  0  0  0  0  0  0  0  0  0  0
   -0.0170    1.6970    2.0230 H   0  0  0  0  0  0  0  0  0  0  0  0
   -1.4500   -0.9640    0.5120 N   0  0  0  0  0  0  0  0  0  0  0  0
   -2.2750   -2.0750    0.8450 C   0  0  1  0  0  0  0  0  0  0  0  0
   -3.1750   -2.5550   -0.2460 C   0  0  0  0  0  0  0  0  0  0  0  0
   -4.1680   -1.6140   -0.7880 C   0  0  0  0  0  0  0  0  0  0  0  0
   -3.7040   -0.3900   -1.4650 C   0  0  0  0  0  0  0  0  0  0  0  0
   -2.8550   -0.6440   -2.6900 C   0  0  0  0  0  0  0  0  0  0  0  0
   -3.5950   -1.4010   -3.6870 N   0  0  0  0  0  0  0  0  0  0  0  0
   -1.4450   -3.2790    1.2340 C   0  0  0  0  0  0  0  0  0  0  0  0
   -1.9880   -4.3590    1.5720 O   0  0  0  0  0  0  0  0  0  0  0  0
   -0.0640   -3.2200    1.2270 O   0  0  0  0  0  0  0  0  0  0  0  0
   -0.8500   -0.9450   -0.3390 H   0  0  0  0  0  0  0  0  0  0  0  0
   -2.8910   -1.8700    1.7530 H   0  0  0  0  0  0  0  0  0  0  0  0
   -3.6960   -3.4710    0.1880 H   0  0  0  0  0  0  0  0  0  0  0  0
   -2.5050   -3.0000   -1.0260 H   0  0  0  0  0  0  0  0  0  0  0  0
   -4.8160   -1.2870    0.0840 H   0  0  0  0  0  0  0  0  0  0  0  0
   -4.8750   -2.1900   -1.4320 H   0  0  0  0  0  0  0  0  0  0  0  0
   -4.6230    0.1420   -1.8740 H   0  0  0  0  0  0  0  0  0  0  0  0
   -3.2170    0.3450   -0.8350 H   0  0  0  0  0  0  0  0  0  0  0  0
   -2.6450    0.3470   -3.1450 H   0  0  0  0  0  0  0  0  0  0  0  0
   -1.8730   -1.1040   -2.4700 H   0  0  0  0  0  0  0  0  0  0  0  0
   -4.6130   -1.4440   -3.4670 H   0  0  0  0  0  0  0  0  0  0  0  0
   -3.1860   -2.3600   -3.8220 H   0  0  0  0  0  0  0  0  0  0  0  0
  1 12  1  0  0  0  0
  1 13  1  0  0  0  0
  2 14  1  1  0  0  0
  2  1  1  0  0  0  0
  3  2  1  0  0  0  0
  3  4  1  0  0  0  0
  4  5  2  0  0  0  0
  4  9  1  0  0  0  0
  5  6  1  0  0  0  0
  6 18  1  0  0  0  0
  6  7  2  0  0  0  0
  7  8  1  0  0  0  0
  7 19  1  0  0  0  0
  8 20  1  0  0  0  0
  9 21  1  0  0  0  0
  9  8  2  0  0  0  0
 10 22  1  0  0  0  0
 10  2  1  0  0  0  0
 11 10  2  0  0  0  0
 15  3  1  0  0  0  0
 16  3  1  0  0  0  0
 17  5  1  0  0  0  0
 22 26  1  0  0  0  0
 23 24  1  0  0  0  0
 23 22  1  0  0  0  0
 24 31  1  0  0  0  0
 24 25  1  0  0  0  0
 25 26  1  0  0  0  0
 25 33  1  0  0  0  0
 26 27  1  0  0  0  0
 26 35  1  1  0  0  0
 27 28  2  0  0  0  0
 29 23  1  0  0  0  0
 30 23  1  0  0  0  0
 32 24  1  0  0  0  0
 34 25  1  0  0  0  0
 36 37  1  0  0  0  0
 36 27  1  0  0  0  0
 37 43  1  0  0  0  0
 37 47  1  1  0  0  0
 38 48  1  0  0  0  0
 38 37  1  0  0  0  0
 39 38  1  0  0  0  0
 39 50  1  0  0  0  0
 40 53  1  0  0  0  0
 40 39  1  0  0  0  0
 41 55  1  0  0  0  0
 41 40  1  0  0  0  0
 42 56  1  0  0  0  0
 42 41  1  0  0  0  0
 43 44  1  0  0  0  0
 45 43  2  0  0  0  0
 46 36  1  0  0  0  0
 49 38  1  0  0  0  0
 51 39  1  0  0  0  0
 52 40  1  0  0  0  0
 54 41  1  0  0  0  0
 57 42  1  0  0  0  0
M  END
$$$$
