FPM.pdb
 OpenBabel07022419013D

 53 54  0  0  1  0  0  0  0  0999 V2000
    2.2930   -0.5400    4.0190 N   0  0  0  0  0  0  0  0  0  0  0  0
    2.1810   -0.1420    2.6050 C   0  0  1  0  0  0  0  0  0  0  0  0
    2.8000   -1.2950    1.8310 C   0  0  0  0  0  0  0  0  0  0  0  0
    4.2040   -1.5120    2.2010 C   0  0  0  0  0  0  0  0  0  0  0  0
    5.2050   -0.8650    1.5190 C   0  0  0  0  0  0  0  0  0  0  0  0
    6.5050   -1.0740    1.8710 C   0  0  0  0  0  0  0  0  0  0  0  0
    6.8300   -1.9210    2.9000 C   0  0  0  0  0  0  0  0  0  0  0  0
    5.8410   -2.5780    3.5950 C   0  0  0  0  0  0  0  0  0  0  0  0
    4.5370   -2.3570    3.2280 C   0  0  0  0  0  0  0  0  0  0  0  0
    0.7470    0.0140    2.2740 C   0  0  0  0  0  0  0  0  0  0  0  0
   -0.1490   -0.2920    3.1290 O   0  0  0  0  0  0  0  0  0  0  0  0
    1.7370    0.1190    4.6050 H   0  0  0  0  0  0  0  0  0  0  0  0
    1.8290   -1.4780    4.0780 H   0  0  0  0  0  0  0  0  0  0  0  0
    2.6860    0.8140    2.4330 H   0  0  0  0  0  0  0  0  0  0  0  0
    2.2280   -2.2210    2.0440 H   0  0  0  0  0  0  0  0  0  0  0  0
    2.6830   -1.0960    0.7570 H   0  0  0  0  0  0  0  0  0  0  0  0
    4.9360   -0.1830    0.6900 H   0  0  0  0  0  0  0  0  0  0  0  0
    7.2920   -0.5520    1.3180 H   0  0  0  0  0  0  0  0  0  0  0  0
    7.8770   -2.0870    3.1820 H   0  0  0  0  0  0  0  0  0  0  0  0
    6.0830   -3.2480    4.4080 H   0  0  0  0  0  0  0  0  0  0  0  0
    3.7800   -2.8950    3.8000 H   0  0  0  0  0  0  0  0  0  0  0  0
    0.3930    0.5100    0.9920 N   0  0  0  0  0  0  0  0  0  0  0  0
    1.2630    0.9160   -0.0980 C   0  0  0  0  0  0  0  0  0  0  0  0
    0.5360    2.1220   -0.6980 C   0  0  0  0  0  0  0  0  0  0  0  0
   -0.8640    2.0910   -0.1220 C   0  0  0  0  0  0  0  0  0  0  0  0
   -0.9530    0.7260    0.4770 C   0  0  1  0  0  0  0  0  0  0  0  0
   -1.3340   -0.3180   -0.4900 C   0  0  0  0  0  0  0  0  0  0  0  0
   -0.4810   -1.2030   -0.7540 O   0  0  0  0  0  0  0  0  0  0  0  0
    1.4270    0.1340   -0.8550 H   0  0  0  0  0  0  0  0  0  0  0  0
    2.2310    1.2110    0.3400 H   0  0  0  0  0  0  0  0  0  0  0  0
    1.0990    3.0190   -0.3660 H   0  0  0  0  0  0  0  0  0  0  0  0
    0.5600    2.0440   -1.7950 H   0  0  0  0  0  0  0  0  0  0  0  0
   -1.5540    2.1170   -0.9920 H   0  0  0  0  0  0  0  0  0  0  0  0
   -1.0560    2.9070    0.5970 H   0  0  0  0  0  0  0  0  0  0  0  0
   -1.6400    0.6920    1.3590 H   0  0  0  0  0  0  0  0  0  0  0  0
   -6.5550   -2.9800    0.7350 C   0  0  0  0  0  0  0  0  0  0  0  0
   -6.8240   -2.2530   -0.9040 S   0  0  0  0  0  0  0  0  0  0  0  0
   -5.3870   -1.2830   -1.4290 C   0  0  0  0  0  0  0  0  0  0  0  0
   -4.1970   -2.1680   -1.6420 C   0  0  0  0  0  0  0  0  0  0  0  0
   -2.9900   -1.3830   -2.0790 C   0  0  2  0  0  0  0  0  0  0  0  0
   -2.5820   -0.3890   -1.1340 N   0  0  0  0  0  0  0  0  0  0  0  0
   -3.3120   -0.7570   -3.3860 C   0  0  0  0  0  0  0  0  0  0  0  0
   -3.6980   -1.4050   -4.3900 O   0  0  0  0  0  0  0  0  0  0  0  0
   -3.1890    0.6170   -3.5310 O   0  0  0  0  0  0  0  0  0  0  0  0
   -7.3680   -3.6800    0.9430 H   0  0  0  0  0  0  0  0  0  0  0  0
   -5.6050   -3.5490    0.7000 H   0  0  0  0  0  0  0  0  0  0  0  0
   -6.4420   -2.2020    1.5180 H   0  0  0  0  0  0  0  0  0  0  0  0
   -5.1870   -0.4480   -0.7220 H   0  0  0  0  0  0  0  0  0  0  0  0
   -5.6570   -0.8130   -2.3970 H   0  0  0  0  0  0  0  0  0  0  0  0
   -4.4620   -2.8320   -2.5210 H   0  0  0  0  0  0  0  0  0  0  0  0
   -3.9980   -2.8550   -0.8140 H   0  0  0  0  0  0  0  0  0  0  0  0
   -2.1630   -2.1240   -2.2840 H   0  0  0  0  0  0  0  0  0  0  0  0
   -3.2800    0.3580   -0.8990 H   0  0  0  0  0  0  0  0  0  0  0  0
  1 13  1  0  0  0  0
  1 12  1  0  0  0  0
  2 14  1  6  0  0  0
  2  1  1  0  0  0  0
  3 15  1  0  0  0  0
  3  4  1  0  0  0  0
  3  2  1  0  0  0  0
  4  9  1  0  0  0  0
  5  6  1  0  0  0  0
  5  4  2  0  0  0  0
  6  7  2  0  0  0  0
  7 19  1  0  0  0  0
  7  8  1  0  0  0  0
  8 20  1  0  0  0  0
  9  8  2  0  0  0  0
  9 21  1  0  0  0  0
 10  2  1  0  0  0  0
 10 11  2  0  0  0  0
 16  3  1  0  0  0  0
 17  5  1  0  0  0  0
 18  6  1  0  0  0  0
 22 10  1  0  0  0  0
 23 30  1  0  0  0  0
 23 22  1  0  0  0  0
 24 31  1  0  0  0  0
 24 25  1  0  0  0  0
 24 23  1  0  0  0  0
 25 26  1  0  0  0  0
 25 34  1  0  0  0  0
 26 22  1  0  0  0  0
 26 35  1  1  0  0  0
 27 26  1  0  0  0  0
 28 27  2  0  0  0  0
 29 23  1  0  0  0  0
 32 24  1  0  0  0  0
 33 25  1  0  0  0  0
 36 45  1  0  0  0  0
 36 47  1  0  0  0  0
 37 36  1  0  0  0  0
 38 37  1  0  0  0  0
 38 48  1  0  0  0  0
 39 38  1  0  0  0  0
 39 51  1  0  0  0  0
 40 52  1  6  0  0  0
 40 39  1  0  0  0  0
 40 41  1  0  0  0  0
 41 53  1  0  0  0  0
 41 27  1  0  0  0  0
 42 40  1  0  0  0  0
 43 42  2  0  0  0  0
 44 42  1  0  0  0  0
 46 36  1  0  0  0  0
 49 38  1  0  0  0  0
 50 39  1  0  0  0  0
M  END
$$$$
