FPS.pdb
 OpenBabel07022419013D

 47 48  0  0  1  0  0  0  0  0999 V2000
    2.0080   -1.9550   -0.2230 N   0  0  0  0  0  0  0  0  0  0  0  0
    2.9610   -0.9500    0.1960 C   0  0  1  0  0  0  0  0  0  0  0  0
    3.1590    0.1060   -0.8680 C   0  0  0  0  0  0  0  0  0  0  0  0
    1.9600    0.8460   -1.2420 C   0  0  0  0  0  0  0  0  0  0  0  0
    1.1800    0.3890   -2.2700 C   0  0  0  0  0  0  0  0  0  0  0  0
    0.0350    1.0230   -2.6850 C   0  0  0  0  0  0  0  0  0  0  0  0
   -0.3450    2.1830   -2.0300 C   0  0  0  0  0  0  0  0  0  0  0  0
    0.4380    2.6420   -0.9980 C   0  0  0  0  0  0  0  0  0  0  0  0
    1.5830    1.9930   -0.5950 C   0  0  0  0  0  0  0  0  0  0  0  0
    2.7020   -0.3840    1.5250 C   0  0  0  0  0  0  0  0  0  0  0  0
    3.5140    0.5250    1.9160 O   0  0  0  0  0  0  0  0  0  0  0  0
    2.4350   -2.4900   -1.0240 H   0  0  0  0  0  0  0  0  0  0  0  0
    1.1910   -1.4530   -0.6360 H   0  0  0  0  0  0  0  0  0  0  0  0
    3.9520   -1.5040    0.2180 H   0  0  0  0  0  0  0  0  0  0  0  0
    3.9630    0.8080   -0.6000 H   0  0  0  0  0  0  0  0  0  0  0  0
    3.5490   -0.4510   -1.7710 H   0  0  0  0  0  0  0  0  0  0  0  0
    1.4340   -0.5270   -2.8280 H   0  0  0  0  0  0  0  0  0  0  0  0
   -0.5930    0.6790   -3.4920 H   0  0  0  0  0  0  0  0  0  0  0  0
   -1.2440    2.6960   -2.3430 H   0  0  0  0  0  0  0  0  0  0  0  0
    0.1100    3.5660   -0.4960 H   0  0  0  0  0  0  0  0  0  0  0  0
    2.1460    2.4220    0.2300 H   0  0  0  0  0  0  0  0  0  0  0  0
    1.6460   -0.7510    2.4010 N   0  0  0  0  0  0  0  0  0  0  0  0
    1.4380   -0.1420    3.7230 C   0  0  0  0  0  0  0  0  0  0  0  0
    0.1930   -0.7410    4.2790 C   0  0  0  0  0  0  0  0  0  0  0  0
    0.2200   -2.1350    3.6560 C   0  0  0  0  0  0  0  0  0  0  0  0
    0.6000   -1.7390    2.2200 C   0  0  1  0  0  0  0  0  0  0  0  0
   -0.5900   -1.0900    1.6110 C   0  0  0  0  0  0  0  0  0  0  0  0
   -0.5750    0.1370    1.3370 O   0  0  0  0  0  0  0  0  0  0  0  0
    1.4200    0.9610    3.6540 H   0  0  0  0  0  0  0  0  0  0  0  0
    2.3000   -0.5020    4.3520 H   0  0  0  0  0  0  0  0  0  0  0  0
   -0.7080   -0.1800    3.9130 H   0  0  0  0  0  0  0  0  0  0  0  0
    0.1950   -0.7920    5.3790 H   0  0  0  0  0  0  0  0  0  0  0  0
    1.0350   -2.7020    4.1210 H   0  0  0  0  0  0  0  0  0  0  0  0
   -0.7630   -2.6190    3.6990 H   0  0  0  0  0  0  0  0  0  0  0  0
    0.9150   -2.6650    1.7450 H   0  0  0  0  0  0  0  0  0  0  0  0
   -2.1370   -1.5330   -1.4930 O   0  0  0  0  0  0  0  0  0  0  0  0
   -3.2220   -1.7570   -0.6600 C   0  0  0  0  0  0  0  0  0  0  0  0
   -2.9250   -1.1940    0.7310 C   0  0  2  0  0  0  0  0  0  0  0  0
   -1.7750   -1.8120    1.3180 N   0  0  0  0  0  0  0  0  0  0  0  0
   -4.1290   -1.2940    1.5790 C   0  0  0  0  0  0  0  0  0  0  0  0
   -5.2200   -0.7990    1.2020 O   0  0  0  0  0  0  0  0  0  0  0  0
   -4.1090   -1.9300    2.8110 O   0  0  0  0  0  0  0  0  0  0  0  0
   -2.2070   -0.5780   -1.7840 H   0  0  0  0  0  0  0  0  0  0  0  0
   -4.1430   -1.2440   -1.0090 H   0  0  0  0  0  0  0  0  0  0  0  0
   -3.4780   -2.8420   -0.5870 H   0  0  0  0  0  0  0  0  0  0  0  0
   -2.6910   -0.1220    0.5730 H   0  0  0  0  0  0  0  0  0  0  0  0
   -1.7420   -2.8460    1.5660 H   0  0  0  0  0  0  0  0  0  0  0  0
  1  2  1  0  0  0  0
  2 14  1  1  0  0  0
  2 10  1  0  0  0  0
  3 15  1  0  0  0  0
  3  2  1  0  0  0  0
  4  3  1  0  0  0  0
  4  9  1  0  0  0  0
  5  4  2  0  0  0  0
  6  5  1  0  0  0  0
  6  7  2  0  0  0  0
  7  8  1  0  0  0  0
  8  9  2  0  0  0  0
  8 20  1  0  0  0  0
  9 21  1  0  0  0  0
 10 11  2  0  0  0  0
 10 22  1  0  0  0  0
 12  1  1  0  0  0  0
 13  1  1  0  0  0  0
 16  3  1  0  0  0  0
 17  5  1  0  0  0  0
 18  6  1  0  0  0  0
 19  7  1  0  0  0  0
 22 23  1  0  0  0  0
 23 24  1  0  0  0  0
 23 30  1  0  0  0  0
 24 32  1  0  0  0  0
 25 34  1  0  0  0  0
 25 33  1  0  0  0  0
 25 24  1  0  0  0  0
 26 35  1  6  0  0  0
 26 22  1  0  0  0  0
 26 25  1  0  0  0  0
 27 26  1  0  0  0  0
 28 27  2  0  0  0  0
 29 23  1  0  0  0  0
 31 24  1  0  0  0  0
 36 37  1  0  0  0  0
 37 45  1  0  0  0  0
 37 38  1  0  0  0  0
 38 46  1  6  0  0  0
 38 39  1  0  0  0  0
 38 40  1  0  0  0  0
 39 47  1  0  0  0  0
 39 27  1  0  0  0  0
 40 42  1  0  0  0  0
 41 40  2  0  0  0  0
 43 36  1  0  0  0  0
 44 37  1  0  0  0  0
M  END
$$$$
