FPV.pdb
 OpenBabel07022419013D

 52 53  0  0  1  0  0  0  0  0999 V2000
    1.9870   -2.7930    2.0190 N   0  0  0  0  0  0  0  0  0  0  0  0
    2.4500   -1.6280    1.2950 C   0  0  1  0  0  0  0  0  0  0  0  0
    2.3550   -1.9610   -0.1720 C   0  0  0  0  0  0  0  0  0  0  0  0
    2.7800   -0.9040   -1.0870 C   0  0  0  0  0  0  0  0  0  0  0  0
    1.9020    0.0270   -1.6230 C   0  0  0  0  0  0  0  0  0  0  0  0
    2.3400    1.0000   -2.4740 C   0  0  0  0  0  0  0  0  0  0  0  0
    3.6650    1.0860   -2.8260 C   0  0  0  0  0  0  0  0  0  0  0  0
    4.5430    0.1810   -2.3110 C   0  0  0  0  0  0  0  0  0  0  0  0
    4.1120   -0.8010   -1.4530 C   0  0  0  0  0  0  0  0  0  0  0  0
    1.7250   -0.3970    1.5780 C   0  0  0  0  0  0  0  0  0  0  0  0
    2.1890    0.6430    0.9940 O   0  0  0  0  0  0  0  0  0  0  0  0
    1.2810   -3.3510    1.4920 H   0  0  0  0  0  0  0  0  0  0  0  0
    2.7710   -3.3970    2.3530 H   0  0  0  0  0  0  0  0  0  0  0  0
    3.5500   -1.5500    1.5180 H   0  0  0  0  0  0  0  0  0  0  0  0
    3.0030   -2.8760   -0.3100 H   0  0  0  0  0  0  0  0  0  0  0  0
    1.3290   -2.2950   -0.4530 H   0  0  0  0  0  0  0  0  0  0  0  0
    0.8590   -0.0440   -1.3430 H   0  0  0  0  0  0  0  0  0  0  0  0
    1.6310    1.7150   -2.8780 H   0  0  0  0  0  0  0  0  0  0  0  0
    4.0160    1.8670   -3.5100 H   0  0  0  0  0  0  0  0  0  0  0  0
    5.5840    0.2530   -2.5900 H   0  0  0  0  0  0  0  0  0  0  0  0
    4.8300   -1.5130   -1.0540 H   0  0  0  0  0  0  0  0  0  0  0  0
    0.5880   -0.2380    2.4110 N   0  0  0  0  0  0  0  0  0  0  0  0
   -0.0830    1.0580    2.6370 C   0  0  0  0  0  0  0  0  0  0  0  0
   -0.0180    1.0790    4.1610 C   0  0  0  0  0  0  0  0  0  0  0  0
   -0.4990   -0.3390    4.4550 C   0  0  0  0  0  0  0  0  0  0  0  0
   -0.1770   -1.1520    3.2060 C   0  0  1  0  0  0  0  0  0  0  0  0
   -1.4130   -1.5870    2.5190 C   0  0  0  0  0  0  0  0  0  0  0  0
   -2.2330   -2.3080    3.1430 O   0  0  0  0  0  0  0  0  0  0  0  0
    0.4520    1.8840    2.1740 H   0  0  0  0  0  0  0  0  0  0  0  0
   -1.1470    0.9770    2.3680 H   0  0  0  0  0  0  0  0  0  0  0  0
   -0.6710    1.8410    4.5990 H   0  0  0  0  0  0  0  0  0  0  0  0
    1.0530    1.1920    4.4250 H   0  0  0  0  0  0  0  0  0  0  0  0
   -1.5800   -0.3610    4.6880 H   0  0  0  0  0  0  0  0  0  0  0  0
    0.0810   -0.6800    5.3240 H   0  0  0  0  0  0  0  0  0  0  0  0
    0.4150   -2.0150    3.5770 H   0  0  0  0  0  0  0  0  0  0  0  0
   -4.9230   -0.6090   -0.5860 C   0  0  0  0  0  0  0  0  0  0  0  0
   -3.6350   -0.3460    0.1390 C   0  0  0  0  0  0  0  0  0  0  0  0
   -2.6930    0.4950   -0.7030 C   0  0  0  0  0  0  0  0  0  0  0  0
   -2.9150   -1.6380    0.5060 C   0  0  2  0  0  0  0  0  0  0  0  0
   -1.6900   -1.2180    1.2000 N   0  0  0  0  0  0  0  0  0  0  0  0
   -2.5340   -2.4160   -0.6980 C   0  0  0  0  0  0  0  0  0  0  0  0
   -1.3370   -2.6220   -0.9810 O   0  0  0  0  0  0  0  0  0  0  0  0
   -3.4900   -2.9440   -1.5530 O   0  0  0  0  0  0  0  0  0  0  0  0
   -5.4890    0.3630   -0.5900 H   0  0  0  0  0  0  0  0  0  0  0  0
   -4.7320   -0.9650   -1.6120 H   0  0  0  0  0  0  0  0  0  0  0  0
   -5.4990   -1.3410    0.0130 H   0  0  0  0  0  0  0  0  0  0  0  0
   -3.8170    0.1990    1.0780 H   0  0  0  0  0  0  0  0  0  0  0  0
   -1.8890   -0.1140   -1.1490 H   0  0  0  0  0  0  0  0  0  0  0  0
   -3.2670    0.9460   -1.5640 H   0  0  0  0  0  0  0  0  0  0  0  0
   -2.2510    1.3340   -0.1390 H   0  0  0  0  0  0  0  0  0  0  0  0
   -3.5250   -2.2550    1.1870 H   0  0  0  0  0  0  0  0  0  0  0  0
   -1.0490   -0.6370    0.6390 H   0  0  0  0  0  0  0  0  0  0  0  0
  1 13  1  0  0  0  0
  2 14  1  1  0  0  0
  2 10  1  0  0  0  0
  2  1  1  0  0  0  0
  3  2  1  0  0  0  0
  4  3  1  0  0  0  0
  5 17  1  0  0  0  0
  5  4  2  0  0  0  0
  6  5  1  0  0  0  0
  7  6  2  0  0  0  0
  7  8  1  0  0  0  0
  8  9  2  0  0  0  0
  9  4  1  0  0  0  0
  9 21  1  0  0  0  0
 10 22  1  0  0  0  0
 11 10  2  0  0  0  0
 12  1  1  0  0  0  0
 15  3  1  0  0  0  0
 16  3  1  0  0  0  0
 18  6  1  0  0  0  0
 19  7  1  0  0  0  0
 20  8  1  0  0  0  0
 22 23  1  0  0  0  0
 22 26  1  0  0  0  0
 23 24  1  0  0  0  0
 24 32  1  0  0  0  0
 24 25  1  0  0  0  0
 24 31  1  0  0  0  0
 25 33  1  0  0  0  0
 25 34  1  0  0  0  0
 26 35  1  1  0  0  0
 26 25  1  0  0  0  0
 27 28  2  0  0  0  0
 27 26  1  0  0  0  0
 29 23  1  0  0  0  0
 30 23  1  0  0  0  0
 36 46  1  0  0  0  0
 36 37  1  0  0  0  0
 37 39  1  0  0  0  0
 37 47  1  0  0  0  0
 38 50  1  0  0  0  0
 38 37  1  0  0  0  0
 39 51  1  1  0  0  0
 39 40  1  0  0  0  0
 40 27  1  0  0  0  0
 41 39  1  0  0  0  0
 42 41  1  0  0  0  0
 43 41  2  0  0  0  0
 44 36  1  0  0  0  0
 45 36  1  0  0  0  0
 48 38  1  0  0  0  0
 49 38  1  0  0  0  0
 52 40  1  0  0  0  0
M  END
$$$$
