FQD.pdb
 OpenBabel07022418593D

 52 52  0  0  1  0  0  0  0  0999 V2000
   -0.4790   -3.5270    1.8130 N   0  0  0  0  0  0  0  0  0  0  0  0
    0.3290   -2.4920    2.4760 C   0  0  1  0  0  0  0  0  0  0  0  0
    1.6430   -3.1140    2.8690 C   0  0  0  0  0  0  0  0  0  0  0  0
    2.5660   -2.1800    3.5470 C   0  0  0  0  0  0  0  0  0  0  0  0
    3.4950   -1.4220    2.8440 C   0  0  0  0  0  0  0  0  0  0  0  0
    4.3360   -0.5680    3.5120 C   0  0  0  0  0  0  0  0  0  0  0  0
    4.2630   -0.4590    4.8810 C   0  0  0  0  0  0  0  0  0  0  0  0
    3.3490   -1.2040    5.5840 C   0  0  0  0  0  0  0  0  0  0  0  0
    2.4860   -2.0750    4.9410 C   0  0  0  0  0  0  0  0  0  0  0  0
    0.4680   -1.3020    1.6040 C   0  0  0  0  0  0  0  0  0  0  0  0
    1.0820   -0.3190    2.0860 O   0  0  0  0  0  0  0  0  0  0  0  0
   -0.7190   -4.2800    2.4920 H   0  0  0  0  0  0  0  0  0  0  0  0
   -1.3750   -3.0560    1.5320 H   0  0  0  0  0  0  0  0  0  0  0  0
   -0.2140   -2.2370    3.4100 H   0  0  0  0  0  0  0  0  0  0  0  0
    2.1270   -3.5880    1.9890 H   0  0  0  0  0  0  0  0  0  0  0  0
    1.4040   -3.9320    3.5830 H   0  0  0  0  0  0  0  0  0  0  0  0
    3.5250   -1.5330    1.7830 H   0  0  0  0  0  0  0  0  0  0  0  0
    5.0570    0.0170    2.9400 H   0  0  0  0  0  0  0  0  0  0  0  0
    4.9230    0.2120    5.4150 H   0  0  0  0  0  0  0  0  0  0  0  0
    3.2420   -1.1640    6.6710 H   0  0  0  0  0  0  0  0  0  0  0  0
    1.7560   -2.6750    5.4560 H   0  0  0  0  0  0  0  0  0  0  0  0
    2.1690    3.1890   -2.6480 N   0  0  0  0  0  0  0  0  0  0  0  0
    1.9570    1.9400   -1.9900 C   0  0  0  0  0  0  0  0  0  0  0  0
    2.4550    1.8170   -0.8630 O   0  0  0  0  0  0  0  0  0  0  0  0
    1.1770    0.8600   -2.6450 C   0  0  0  0  0  0  0  0  0  0  0  0
    0.9230   -0.3070   -1.7390 C   0  0  0  0  0  0  0  0  0  0  0  0
    0.1450    0.0170   -0.5050 C   0  0  2  0  0  0  0  0  0  0  0  0
   -0.0370   -1.2150    0.3020 N   0  0  0  0  0  0  0  0  0  0  0  0
   -1.1900    0.5640   -0.8370 C   0  0  0  0  0  0  0  0  0  0  0  0
   -1.3130    1.6550   -1.4380 O   0  0  0  0  0  0  0  0  0  0  0  0
    2.7720    3.2560   -3.5020 H   0  0  0  0  0  0  0  0  0  0  0  0
    1.7320    4.0760   -2.3030 H   0  0  0  0  0  0  0  0  0  0  0  0
    1.7290    0.5090   -3.5750 H   0  0  0  0  0  0  0  0  0  0  0  0
    0.2260    1.2520   -3.0300 H   0  0  0  0  0  0  0  0  0  0  0  0
    0.4550   -1.1680   -2.3050 H   0  0  0  0  0  0  0  0  0  0  0  0
    1.9450   -0.7250   -1.4840 H   0  0  0  0  0  0  0  0  0  0  0  0
    0.6770    0.7760    0.0930 H   0  0  0  0  0  0  0  0  0  0  0  0
   -0.5450   -2.0310   -0.0950 H   0  0  0  0  0  0  0  0  0  0  0  0
   -2.4070   -0.1050   -0.5000 N   0  0  0  0  0  0  0  0  0  0  0  0
   -3.7090    0.4370   -0.8300 C   0  0  1  0  0  0  0  0  0  0  0  0
   -4.2790   -0.3900   -1.9650 C   0  0  0  0  0  0  0  0  0  0  0  0
   -4.4500   -1.8130   -1.6400 C   0  0  0  0  0  0  0  0  0  0  0  0
   -4.1870   -2.2600   -0.5110 O   0  0  0  0  0  0  0  0  0  0  0  0
   -4.6130    0.5310    0.3120 C   0  0  0  0  0  0  0  0  0  0  0  0
   -5.7720    0.9770    0.1590 O   0  0  0  0  0  0  0  0  0  0  0  0
   -4.9140   -2.6830   -2.6130 O   0  0  0  0  0  0  0  0  0  0  0  0
   -4.2260    0.1330    1.5940 O   0  0  0  0  0  0  0  0  0  0  0  0
   -2.3100   -1.0060   -0.0010 H   0  0  0  0  0  0  0  0  0  0  0  0
   -3.5970    1.4730   -1.2790 H   0  0  0  0  0  0  0  0  0  0  0  0
   -3.6230   -0.2620   -2.8680 H   0  0  0  0  0  0  0  0  0  0  0  0
   -5.2590    0.0880   -2.2600 H   0  0  0  0  0  0  0  0  0  0  0  0
   -4.6330   -3.6600   -2.6560 H   0  0  0  0  0  0  0  0  0  0  0  0
  1  2  1  0  0  0  0
  1 12  1  0  0  0  0
  2  3  1  0  0  0  0
  2 14  1  1  0  0  0
  3  4  1  0  0  0  0
  3 16  1  0  0  0  0
  4  9  1  0  0  0  0
  5  6  1  0  0  0  0
  5  4  2  0  0  0  0
  6  7  2  0  0  0  0
  7 19  1  0  0  0  0
  7  8  1  0  0  0  0
  8 20  1  0  0  0  0
  9 21  1  0  0  0  0
  9  8  2  0  0  0  0
 10 11  2  0  0  0  0
 10  2  1  0  0  0  0
 13  1  1  0  0  0  0
 15  3  1  0  0  0  0
 17  5  1  0  0  0  0
 18  6  1  0  0  0  0
 22 32  1  0  0  0  0
 22 23  1  0  0  0  0
 23 24  2  0  0  0  0
 25 23  1  0  0  0  0
 25 26  1  0  0  0  0
 26 36  1  0  0  0  0
 26 27  1  0  0  0  0
 27 37  1  1  0  0  0
 27 28  1  0  0  0  0
 28 10  1  0  0  0  0
 29 27  1  0  0  0  0
 29 39  1  0  0  0  0
 30 29  2  0  0  0  0
 31 22  1  0  0  0  0
 33 25  1  0  0  0  0
 34 25  1  0  0  0  0
 35 26  1  0  0  0  0
 38 28  1  0  0  0  0
 39 48  1  0  0  0  0
 40 49  1  6  0  0  0
 40 39  1  0  0  0  0
 40 44  1  0  0  0  0
 41 42  1  0  0  0  0
 41 40  1  0  0  0  0
 42 43  2  0  0  0  0
 44 47  1  0  0  0  0
 45 44  2  0  0  0  0
 46 42  1  0  0  0  0
 50 41  1  0  0  0  0
 51 41  1  0  0  0  0
 52 46  1  0  0  0  0
M  END
$$$$
