FQE.pdb
 OpenBabel07022418593D

 55 55  0  0  1  0  0  0  0  0999 V2000
    1.2920   -1.8140   -2.6330 N   0  0  0  0  0  0  0  0  0  0  0  0
    2.2080   -1.3640   -1.5920 C   0  0  1  0  0  0  0  0  0  0  0  0
    3.3750   -0.6190   -2.1830 C   0  0  0  0  0  0  0  0  0  0  0  0
    4.3160   -0.1510   -1.1460 C   0  0  0  0  0  0  0  0  0  0  0  0
    5.3400   -0.9580   -0.7200 C   0  0  0  0  0  0  0  0  0  0  0  0
    6.2480   -0.5390    0.2480 C   0  0  0  0  0  0  0  0  0  0  0  0
    6.1460    0.7130    0.8160 C   0  0  0  0  0  0  0  0  0  0  0  0
    5.1200    1.5280    0.3930 C   0  0  0  0  0  0  0  0  0  0  0  0
    4.2130    1.1000   -0.5800 C   0  0  0  0  0  0  0  0  0  0  0  0
    1.4750   -0.6060   -0.5530 C   0  0  0  0  0  0  0  0  0  0  0  0
    2.0470   -0.1790    0.4790 O   0  0  0  0  0  0  0  0  0  0  0  0
    0.9850   -2.8160   -2.4480 H   0  0  0  0  0  0  0  0  0  0  0  0
    1.7360   -1.7780   -3.5790 H   0  0  0  0  0  0  0  0  0  0  0  0
    2.6230   -2.2920   -1.1210 H   0  0  0  0  0  0  0  0  0  0  0  0
    3.0310    0.2340   -2.8240 H   0  0  0  0  0  0  0  0  0  0  0  0
    3.8970   -1.3060   -2.8930 H   0  0  0  0  0  0  0  0  0  0  0  0
    5.4210   -1.9460   -1.1680 H   0  0  0  0  0  0  0  0  0  0  0  0
    7.0590   -1.1760    0.5860 H   0  0  0  0  0  0  0  0  0  0  0  0
    6.8440    1.0670    1.5770 H   0  0  0  0  0  0  0  0  0  0  0  0
    5.0410    2.5150    0.8410 H   0  0  0  0  0  0  0  0  0  0  0  0
    3.4200    1.7610   -0.8920 H   0  0  0  0  0  0  0  0  0  0  0  0
   -1.7630    3.6460    3.1180 N   0  0  0  0  0  0  0  0  0  0  0  0
   -1.1550    2.9400    2.0170 C   0  0  0  0  0  0  0  0  0  0  0  0
    0.0670    2.7060    2.1620 O   0  0  0  0  0  0  0  0  0  0  0  0
   -1.9570    2.5480    0.8340 C   0  0  0  0  0  0  0  0  0  0  0  0
   -1.1790    1.7220   -0.1500 C   0  0  0  0  0  0  0  0  0  0  0  0
   -0.6450    0.4280    0.3510 C   0  0  2  0  0  0  0  0  0  0  0  0
    0.0900   -0.3110   -0.6510 N   0  0  0  0  0  0  0  0  0  0  0  0
   -1.6630   -0.4370    1.0210 C   0  0  0  0  0  0  0  0  0  0  0  0
   -2.4140   -0.0430    1.9490 O   0  0  0  0  0  0  0  0  0  0  0  0
   -2.5790    3.2780    3.6290 H   0  0  0  0  0  0  0  0  0  0  0  0
   -1.3900    4.5730    3.4420 H   0  0  0  0  0  0  0  0  0  0  0  0
   -2.8930    2.0710    1.1970 H   0  0  0  0  0  0  0  0  0  0  0  0
   -2.2130    3.5080    0.2850 H   0  0  0  0  0  0  0  0  0  0  0  0
   -1.8720    1.5690   -1.0260 H   0  0  0  0  0  0  0  0  0  0  0  0
   -0.3650    2.4090   -0.5200 H   0  0  0  0  0  0  0  0  0  0  0  0
    0.1000    0.6660    1.1410 H   0  0  0  0  0  0  0  0  0  0  0  0
   -0.4030   -0.6540   -1.4960 H   0  0  0  0  0  0  0  0  0  0  0  0
   -1.8580   -1.8050    0.6430 N   0  0  0  0  0  0  0  0  0  0  0  0
   -2.8530   -2.6630    1.2920 C   0  0  1  0  0  0  0  0  0  0  0  0
   -3.7900   -3.2680    0.3240 C   0  0  0  0  0  0  0  0  0  0  0  0
   -4.8360   -4.1480    0.9490 C   0  0  0  0  0  0  0  0  0  0  0  0
   -5.7120   -3.4880    1.9170 C   0  0  0  0  0  0  0  0  0  0  0  0
   -6.5450   -4.1910    2.5400 O   0  0  0  0  0  0  0  0  0  0  0  0
   -2.0810   -3.7240    1.9860 C   0  0  0  0  0  0  0  0  0  0  0  0
   -2.6420   -4.5890    2.6910 O   0  0  0  0  0  0  0  0  0  0  0  0
   -5.6790   -2.1360    2.1840 O   0  0  0  0  0  0  0  0  0  0  0  0
   -0.6940   -3.8230    1.8950 O   0  0  0  0  0  0  0  0  0  0  0  0
   -1.2540   -2.1630   -0.1220 H   0  0  0  0  0  0  0  0  0  0  0  0
   -3.3890   -2.1080    2.0840 H   0  0  0  0  0  0  0  0  0  0  0  0
   -3.2370   -3.9530   -0.3910 H   0  0  0  0  0  0  0  0  0  0  0  0
   -4.2830   -2.5430   -0.3560 H   0  0  0  0  0  0  0  0  0  0  0  0
   -5.4940   -4.5670    0.1220 H   0  0  0  0  0  0  0  0  0  0  0  0
   -4.4200   -5.0660    1.4110 H   0  0  0  0  0  0  0  0  0  0  0  0
   -5.9440   -1.8010    3.1080 H   0  0  0  0  0  0  0  0  0  0  0  0
  1 12  1  0  0  0  0
  1  2  1  0  0  0  0
  2 14  1  1  0  0  0
  2 10  1  0  0  0  0
  3  2  1  0  0  0  0
  3  4  1  0  0  0  0
  4  5  2  0  0  0  0
  4  9  1  0  0  0  0
  5  6  1  0  0  0  0
  6 18  1  0  0  0  0
  6  7  2  0  0  0  0
  7 19  1  0  0  0  0
  8  7  1  0  0  0  0
  8 20  1  0  0  0  0
  9  8  2  0  0  0  0
 10 11  2  0  0  0  0
 13  1  1  0  0  0  0
 15  3  1  0  0  0  0
 16  3  1  0  0  0  0
 17  5  1  0  0  0  0
 21  9  1  0  0  0  0
 22 32  1  0  0  0  0
 22 31  1  0  0  0  0
 23 24  2  0  0  0  0
 23 22  1  0  0  0  0
 25 33  1  0  0  0  0
 25 23  1  0  0  0  0
 26 27  1  0  0  0  0
 26 25  1  0  0  0  0
 27 29  1  0  0  0  0
 27 37  1  1  0  0  0
 28 10  1  0  0  0  0
 28 27  1  0  0  0  0
 29 30  2  0  0  0  0
 34 25  1  0  0  0  0
 35 26  1  0  0  0  0
 36 26  1  0  0  0  0
 38 28  1  0  0  0  0
 39 29  1  0  0  0  0
 39 40  1  0  0  0  0
 40 45  1  0  0  0  0
 40 50  1  1  0  0  0
 41 42  1  0  0  0  0
 41 40  1  0  0  0  0
 42 54  1  0  0  0  0
 42 43  1  0  0  0  0
 43 47  1  0  0  0  0
 43 44  2  0  0  0  0
 45 46  1  0  0  0  0
 47 55  1  0  0  0  0
 48 45  2  0  0  0  0
 49 39  1  0  0  0  0
 51 41  1  0  0  0  0
 52 41  1  0  0  0  0
 53 42  1  0  0  0  0
M  END
$$$$
