FQM.pdb
 OpenBabel07022418593D

 56 56  0  0  1  0  0  0  0  0999 V2000
    3.2400    0.7030   -1.5690 N   0  0  0  0  0  0  0  0  0  0  0  0
    2.6170   -0.1000   -0.5300 C   0  0  1  0  0  0  0  0  0  0  0  0
    3.4590    0.0370    0.6990 C   0  0  0  0  0  0  0  0  0  0  0  0
    2.9990   -0.6980    1.8820 C   0  0  0  0  0  0  0  0  0  0  0  0
    3.3750   -2.0050    2.0530 C   0  0  0  0  0  0  0  0  0  0  0  0
    2.9850   -2.7260    3.1560 C   0  0  0  0  0  0  0  0  0  0  0  0
    2.1930   -2.1270    4.1240 C   0  0  0  0  0  0  0  0  0  0  0  0
    1.8230   -0.8230    3.9450 C   0  0  0  0  0  0  0  0  0  0  0  0
    2.2190   -0.0980    2.8300 C   0  0  0  0  0  0  0  0  0  0  0  0
    1.2630    0.4730   -0.2620 C   0  0  0  0  0  0  0  0  0  0  0  0
    1.0150    1.5920   -0.7140 O   0  0  0  0  0  0  0  0  0  0  0  0
    3.7470    0.1270   -2.2680 H   0  0  0  0  0  0  0  0  0  0  0  0
    3.8140    1.4800   -1.1800 H   0  0  0  0  0  0  0  0  0  0  0  0
    2.5660   -1.1260   -0.9090 H   0  0  0  0  0  0  0  0  0  0  0  0
    4.5280   -0.2100    0.4610 H   0  0  0  0  0  0  0  0  0  0  0  0
    3.5120    1.1230    1.0060 H   0  0  0  0  0  0  0  0  0  0  0  0
    3.9970   -2.5050    1.3100 H   0  0  0  0  0  0  0  0  0  0  0  0
    3.2980   -3.7630    3.2670 H   0  0  0  0  0  0  0  0  0  0  0  0
    1.9000   -2.7220    4.9850 H   0  0  0  0  0  0  0  0  0  0  0  0
    1.1990   -0.3750    4.7230 H   0  0  0  0  0  0  0  0  0  0  0  0
    1.8790    0.9170    2.7790 H   0  0  0  0  0  0  0  0  0  0  0  0
   -0.4230    4.9590    2.0410 N   0  0  0  0  0  0  0  0  0  0  0  0
   -1.0770    3.9420    1.3030 C   0  0  0  0  0  0  0  0  0  0  0  0
   -1.9630    4.2540    0.4880 O   0  0  0  0  0  0  0  0  0  0  0  0
   -0.6840    2.5130    1.5220 C   0  0  0  0  0  0  0  0  0  0  0  0
   -1.4650    1.5810    0.6670 C   0  0  0  0  0  0  0  0  0  0  0  0
   -1.0220    0.1490    0.8550 C   0  0  2  0  0  0  0  0  0  0  0  0
    0.2800   -0.2090    0.4710 N   0  0  0  0  0  0  0  0  0  0  0  0
   -2.0850   -0.8470    0.6360 C   0  0  0  0  0  0  0  0  0  0  0  0
   -3.2910   -0.6510    0.9400 O   0  0  0  0  0  0  0  0  0  0  0  0
   -0.9060    5.8100    2.4160 H   0  0  0  0  0  0  0  0  0  0  0  0
    0.6050    4.8910    2.2450 H   0  0  0  0  0  0  0  0  0  0  0  0
   -1.0090    2.3660    2.6330 H   0  0  0  0  0  0  0  0  0  0  0  0
    0.3860    2.3430    1.5730 H   0  0  0  0  0  0  0  0  0  0  0  0
   -2.5280    1.6000    1.0570 H   0  0  0  0  0  0  0  0  0  0  0  0
   -1.5470    1.8800   -0.3830 H   0  0  0  0  0  0  0  0  0  0  0  0
   -0.9140    0.1870    2.0350 H   0  0  0  0  0  0  0  0  0  0  0  0
    0.5940   -1.1890    0.7810 H   0  0  0  0  0  0  0  0  0  0  0  0
   -1.6650   -3.1240   -4.7250 C   0  0  0  0  0  0  0  0  0  0  0  0
   -3.3160   -2.6330   -4.1550 S   0  0  0  0  0  0  0  0  0  0  0  0
   -3.2280   -2.2050   -2.4080 C   0  0  0  0  0  0  0  0  0  0  0  0
   -2.8950   -3.4830   -1.6360 C   0  0  0  0  0  0  0  0  0  0  0  0
   -2.8220   -3.1150   -0.1700 C   0  0  2  0  0  0  0  0  0  0  0  0
   -1.7940   -2.1170    0.0550 N   0  0  0  0  0  0  0  0  0  0  0  0
   -2.4520   -4.3190    0.6170 C   0  0  0  0  0  0  0  0  0  0  0  0
   -1.4060   -4.3760    1.3300 O   0  0  0  0  0  0  0  0  0  0  0  0
   -3.2460   -5.4680    0.6130 O   0  0  0  0  0  0  0  0  0  0  0  0
   -1.0270   -2.2040   -4.8480 H   0  0  0  0  0  0  0  0  0  0  0  0
   -1.7550   -3.5870   -5.7320 H   0  0  0  0  0  0  0  0  0  0  0  0
   -1.2130   -3.8000   -3.9780 H   0  0  0  0  0  0  0  0  0  0  0  0
   -2.4560   -1.4530   -2.1790 H   0  0  0  0  0  0  0  0  0  0  0  0
   -4.2370   -1.8650   -2.0410 H   0  0  0  0  0  0  0  0  0  0  0  0
   -3.6690   -4.2450   -1.7530 H   0  0  0  0  0  0  0  0  0  0  0  0
   -1.9040   -3.8680   -1.9320 H   0  0  0  0  0  0  0  0  0  0  0  0
   -3.7920   -2.7120    0.1800 H   0  0  0  0  0  0  0  0  0  0  0  0
   -0.8000   -2.2990   -0.2040 H   0  0  0  0  0  0  0  0  0  0  0  0
  1 13  1  0  0  0  0
  1  2  1  0  0  0  0
  2 14  1  6  0  0  0
  2 10  1  0  0  0  0
  2  3  1  0  0  0  0
  3 16  1  0  0  0  0
  3  4  1  0  0  0  0
  4  5  2  0  0  0  0
  4  9  1  0  0  0  0
  5  6  1  0  0  0  0
  6 18  1  0  0  0  0
  6  7  2  0  0  0  0
  7 19  1  0  0  0  0
  8  7  1  0  0  0  0
  8 20  1  0  0  0  0
  9  8  2  0  0  0  0
 10 28  1  0  0  0  0
 11 10  2  0  0  0  0
 12  1  1  0  0  0  0
 15  3  1  0  0  0  0
 17  5  1  0  0  0  0
 21  9  1  0  0  0  0
 22 32  1  0  0  0  0
 22 31  1  0  0  0  0
 23 25  1  0  0  0  0
 23 22  1  0  0  0  0
 24 23  2  0  0  0  0
 25 34  1  0  0  0  0
 25 33  1  0  0  0  0
 26 27  1  0  0  0  0
 26 35  1  0  0  0  0
 26 25  1  0  0  0  0
 27 37  1  1  0  0  0
 28 38  1  0  0  0  0
 28 27  1  0  0  0  0
 29 27  1  0  0  0  0
 29 30  2  0  0  0  0
 36 26  1  0  0  0  0
 39 40  1  0  0  0  0
 39 50  1  0  0  0  0
 40 41  1  0  0  0  0
 41 51  1  0  0  0  0
 41 52  1  0  0  0  0
 41 42  1  0  0  0  0
 42 43  1  0  0  0  0
 43 44  1  0  0  0  0
 43 55  1  1  0  0  0
 43 45  1  0  0  0  0
 44 29  1  0  0  0  0
 45 46  1  0  0  0  0
 47 45  2  0  0  0  0
 48 39  1  0  0  0  0
 49 39  1  0  0  0  0
 53 42  1  0  0  0  0
 54 42  1  0  0  0  0
 56 44  1  0  0  0  0
M  END
$$$$
