FQP.pdb
 OpenBabel07022418593D

 53 54  0  0  1  0  0  0  0  0999 V2000
    3.1860   -2.3420    1.8950 N   0  0  0  0  0  0  0  0  0  0  0  0
    2.5700   -1.2650    1.1800 C   0  0  1  0  0  0  0  0  0  0  0  0
    2.8700   -1.4170   -0.3090 C   0  0  0  0  0  0  0  0  0  0  0  0
    4.3120   -1.3920   -0.5960 C   0  0  0  0  0  0  0  0  0  0  0  0
    5.0940   -2.5500   -0.6100 C   0  0  0  0  0  0  0  0  0  0  0  0
    6.4430   -2.5220   -0.8780 C   0  0  0  0  0  0  0  0  0  0  0  0
    7.0550   -1.3070   -1.1450 C   0  0  0  0  0  0  0  0  0  0  0  0
    6.2960   -0.1610   -1.1350 C   0  0  0  0  0  0  0  0  0  0  0  0
    4.9430   -0.1970   -0.8640 C   0  0  0  0  0  0  0  0  0  0  0  0
    1.0700   -1.3030    1.3100 C   0  0  0  0  0  0  0  0  0  0  0  0
    0.5190   -2.1980    1.9750 O   0  0  0  0  0  0  0  0  0  0  0  0
    2.7230   -2.5050    2.8350 H   0  0  0  0  0  0  0  0  0  0  0  0
    3.0500   -3.2540    1.3740 H   0  0  0  0  0  0  0  0  0  0  0  0
    2.9950   -0.3220    1.5280 H   0  0  0  0  0  0  0  0  0  0  0  0
    2.4710   -2.3880   -0.6880 H   0  0  0  0  0  0  0  0  0  0  0  0
    2.3320   -0.6360   -0.8990 H   0  0  0  0  0  0  0  0  0  0  0  0
    4.6450   -3.4980   -0.4070 H   0  0  0  0  0  0  0  0  0  0  0  0
    7.0110   -3.4300   -0.8800 H   0  0  0  0  0  0  0  0  0  0  0  0
    8.1060   -1.2720   -1.3570 H   0  0  0  0  0  0  0  0  0  0  0  0
    6.7660    0.7810   -1.3410 H   0  0  0  0  0  0  0  0  0  0  0  0
    4.4120    0.7410   -0.8730 H   0  0  0  0  0  0  0  0  0  0  0  0
   -1.0260    2.3840    4.9570 N   0  0  0  0  0  0  0  0  0  0  0  0
   -1.4840    2.1270    3.6400 C   0  0  0  0  0  0  0  0  0  0  0  0
   -2.2630    2.9250    3.0880 O   0  0  0  0  0  0  0  0  0  0  0  0
   -1.0320    0.9190    2.9420 C   0  0  0  0  0  0  0  0  0  0  0  0
   -1.6700    0.8950    1.5420 C   0  0  0  0  0  0  0  0  0  0  0  0
   -1.2160   -0.3480    0.8010 C   0  0  2  0  0  0  0  0  0  0  0  0
    0.2500   -0.3280    0.6850 N   0  0  0  0  0  0  0  0  0  0  0  0
   -1.8340   -0.5030   -0.5270 C   0  0  0  0  0  0  0  0  0  0  0  0
   -1.0390   -0.4030   -1.5410 O   0  0  0  0  0  0  0  0  0  0  0  0
   -0.6160    1.6250    5.5290 H   0  0  0  0  0  0  0  0  0  0  0  0
   -1.1040    3.3320    5.3400 H   0  0  0  0  0  0  0  0  0  0  0  0
   -1.3000   -0.0240    3.4700 H   0  0  0  0  0  0  0  0  0  0  0  0
    0.0710    0.8970    2.8310 H   0  0  0  0  0  0  0  0  0  0  0  0
   -2.7330    0.8830    1.7140 H   0  0  0  0  0  0  0  0  0  0  0  0
   -1.3530    1.8210    1.0590 H   0  0  0  0  0  0  0  0  0  0  0  0
   -1.4720   -1.2130    1.4190 H   0  0  0  0  0  0  0  0  0  0  0  0
    0.7270    0.4150    0.1320 H   0  0  0  0  0  0  0  0  0  0  0  0
   -3.1940   -0.7520   -0.8140 N   0  0  0  0  0  0  0  0  0  0  0  0
   -3.7020   -0.8600   -2.1890 C   0  0  0  0  0  0  0  0  0  0  0  0
   -5.1230   -0.3520   -2.0850 C   0  0  0  0  0  0  0  0  0  0  0  0
   -5.5530   -1.0440   -0.8070 C   0  0  0  0  0  0  0  0  0  0  0  0
   -4.3040   -0.9740    0.0720 C   0  0  1  0  0  0  0  0  0  0  0  0
   -4.1860   -2.3050    0.7340 C   0  0  0  0  0  0  0  0  0  0  0  0
   -3.2350   -3.0430    0.4340 O   0  0  0  0  0  0  0  0  0  0  0  0
   -5.1030   -2.7340    1.6680 O   0  0  0  0  0  0  0  0  0  0  0  0
   -3.6930   -1.9050   -2.5010 H   0  0  0  0  0  0  0  0  0  0  0  0
   -3.1590   -0.1790   -2.8610 H   0  0  0  0  0  0  0  0  0  0  0  0
   -5.1140    0.7320   -1.9030 H   0  0  0  0  0  0  0  0  0  0  0  0
   -5.7390   -0.6250   -2.9420 H   0  0  0  0  0  0  0  0  0  0  0  0
   -5.8310   -2.0910   -1.0300 H   0  0  0  0  0  0  0  0  0  0  0  0
   -6.4100   -0.5230   -0.3690 H   0  0  0  0  0  0  0  0  0  0  0  0
   -4.4990   -0.1540    0.7660 H   0  0  0  0  0  0  0  0  0  0  0  0
  1 12  1  0  0  0  0
  2 10  1  0  0  0  0
  2 14  1  1  0  0  0
  2  1  1  0  0  0  0
  3  2  1  0  0  0  0
  4  3  1  0  0  0  0
  5  4  1  0  0  0  0
  5 17  1  0  0  0  0
  6  5  2  0  0  0  0
  7  8  2  0  0  0  0
  7  6  1  0  0  0  0
  8  9  1  0  0  0  0
  9  4  2  0  0  0  0
 10 11  2  0  0  0  0
 13  1  1  0  0  0  0
 15  3  1  0  0  0  0
 16  3  1  0  0  0  0
 18  6  1  0  0  0  0
 19  7  1  0  0  0  0
 20  8  1  0  0  0  0
 21  9  1  0  0  0  0
 22 32  1  0  0  0  0
 22 31  1  0  0  0  0
 23 22  1  0  0  0  0
 24 23  2  0  0  0  0
 25 33  1  0  0  0  0
 25 23  1  0  0  0  0
 26 35  1  0  0  0  0
 26 25  1  0  0  0  0
 27 37  1  1  0  0  0
 27 26  1  0  0  0  0
 28 27  1  0  0  0  0
 28 10  1  0  0  0  0
 29 27  1  0  0  0  0
 30 29  2  0  0  0  0
 34 25  1  0  0  0  0
 36 26  1  0  0  0  0
 38 28  1  0  0  0  0
 39 29  1  0  0  0  0
 39 43  1  0  0  0  0
 40 41  1  0  0  0  0
 40 39  1  0  0  0  0
 41 49  1  0  0  0  0
 41 42  1  0  0  0  0
 42 52  1  0  0  0  0
 42 43  1  0  0  0  0
 43 44  1  0  0  0  0
 43 53  1  1  0  0  0
 44 46  1  0  0  0  0
 45 44  2  0  0  0  0
 47 40  1  0  0  0  0
 48 40  1  0  0  0  0
 50 41  1  0  0  0  0
 51 42  1  0  0  0  0
M  END
$$$$
