FRF.pdb
 OpenBabel07022418583D

 65 66  0  0  1  0  0  0  0  0999 V2000
    4.0150    0.5410   -0.4360 N   0  0  0  0  0  0  0  0  0  0  0  0
    3.1080   -0.3970    0.2300 C   0  0  1  0  0  0  0  0  0  0  0  0
    2.9530    0.0570    1.6310 C   0  0  0  0  0  0  0  0  0  0  0  0
    2.4090    1.4360    1.7360 C   0  0  0  0  0  0  0  0  0  0  0  0
    3.2480    2.5500    1.7730 C   0  0  0  0  0  0  0  0  0  0  0  0
    2.7710    3.8340    1.8690 C   0  0  0  0  0  0  0  0  0  0  0  0
    1.4260    4.0690    1.9350 C   0  0  0  0  0  0  0  0  0  0  0  0
    0.5660    2.9950    1.9020 C   0  0  0  0  0  0  0  0  0  0  0  0
    1.0570    1.7020    1.8030 C   0  0  0  0  0  0  0  0  0  0  0  0
    1.9280   -0.6060   -0.5740 C   0  0  0  0  0  0  0  0  0  0  0  0
    1.7440    0.1310   -1.5990 O   0  0  0  0  0  0  0  0  0  0  0  0
    4.9770    0.4330   -0.0480 H   0  0  0  0  0  0  0  0  0  0  0  0
    4.0720    0.3670   -1.4630 H   0  0  0  0  0  0  0  0  0  0  0  0
    3.6860   -1.3730    0.2150 H   0  0  0  0  0  0  0  0  0  0  0  0
    2.3310   -0.6030    2.2670 H   0  0  0  0  0  0  0  0  0  0  0  0
    3.9620    0.0600    2.0980 H   0  0  0  0  0  0  0  0  0  0  0  0
    4.3200    2.4140    1.7230 H   0  0  0  0  0  0  0  0  0  0  0  0
    3.4550    4.6840    1.8960 H   0  0  0  0  0  0  0  0  0  0  0  0
    1.0540    5.0950    2.0130 H   0  0  0  0  0  0  0  0  0  0  0  0
   -0.5060    3.1730    1.9530 H   0  0  0  0  0  0  0  0  0  0  0  0
    0.3360    0.9180    1.7820 H   0  0  0  0  0  0  0  0  0  0  0  0
   -2.7880    0.8560   -4.9810 N   0  0  0  0  0  0  0  0  0  0  0  0
   -1.9590   -0.2630   -5.1290 C   0  0  0  0  0  0  0  0  0  0  0  0
   -1.3420   -0.4970   -6.2170 N   0  0  0  0  0  0  0  0  0  0  0  0
   -1.8030   -1.1670   -4.0260 N   0  0  0  0  0  0  0  0  0  0  0  0
   -1.3670   -2.5020   -4.1930 C   0  0  0  0  0  0  0  0  0  0  0  0
   -1.1500   -3.3280   -2.9990 C   0  0  0  0  0  0  0  0  0  0  0  0
   -0.1260   -2.9770   -2.0070 C   0  0  0  0  0  0  0  0  0  0  0  0
   -0.2390   -1.7300   -1.2160 C   0  0  2  0  0  0  0  0  0  0  0  0
    0.9320   -1.5820   -0.3270 N   0  0  0  0  0  0  0  0  0  0  0  0
   -1.4780   -1.7010   -0.3750 C   0  0  0  0  0  0  0  0  0  0  0  0
   -2.6300   -1.8880   -0.8350 O   0  0  0  0  0  0  0  0  0  0  0  0
   -2.5020    1.8400   -5.2470 H   0  0  0  0  0  0  0  0  0  0  0  0
   -3.7730    0.7960   -4.5870 H   0  0  0  0  0  0  0  0  0  0  0  0
   -1.4200    0.1280   -7.0510 H   0  0  0  0  0  0  0  0  0  0  0  0
   -2.0490   -0.7750   -3.1130 H   0  0  0  0  0  0  0  0  0  0  0  0
   -2.2050   -3.0180   -4.7840 H   0  0  0  0  0  0  0  0  0  0  0  0
   -0.5140   -2.5780   -4.9370 H   0  0  0  0  0  0  0  0  0  0  0  0
   -0.9690   -4.4060   -3.3230 H   0  0  0  0  0  0  0  0  0  0  0  0
   -2.1570   -3.4370   -2.4660 H   0  0  0  0  0  0  0  0  0  0  0  0
   -0.0880   -3.8510   -1.2660 H   0  0  0  0  0  0  0  0  0  0  0  0
    0.8900   -3.0580   -2.4920 H   0  0  0  0  0  0  0  0  0  0  0  0
   -0.2100   -0.8550   -1.8520 H   0  0  0  0  0  0  0  0  0  0  0  0
    1.0770   -2.1820    0.5090 H   0  0  0  0  0  0  0  0  0  0  0  0
   -1.4090   -1.4540    1.0430 N   0  0  0  0  0  0  0  0  0  0  0  0
   -2.6080   -1.4450    1.8220 C   0  0  1  0  0  0  0  0  0  0  0  0
   -2.4720   -2.4880    2.9100 C   0  0  0  0  0  0  0  0  0  0  0  0
   -1.3340   -2.2280    3.8030 C   0  0  0  0  0  0  0  0  0  0  0  0
   -1.5310   -1.4580    4.9250 C   0  0  0  0  0  0  0  0  0  0  0  0
   -0.4840   -1.1810    5.8030 C   0  0  0  0  0  0  0  0  0  0  0  0
    0.7790   -1.6820    5.5540 C   0  0  0  0  0  0  0  0  0  0  0  0
    0.9610   -2.4520    4.4250 C   0  0  0  0  0  0  0  0  0  0  0  0
   -0.0780   -2.7180    3.5670 C   0  0  0  0  0  0  0  0  0  0  0  0
   -3.0180   -0.1360    2.3420 C   0  0  0  0  0  0  0  0  0  0  0  0
   -2.3540    0.8790    2.0850 O   0  0  0  0  0  0  0  0  0  0  0  0
   -4.1480   -0.0300    3.1210 O   0  0  0  0  0  0  0  0  0  0  0  0
   -0.4780   -1.2900    1.4550 H   0  0  0  0  0  0  0  0  0  0  0  0
   -3.4710   -1.7850    1.1710 H   0  0  0  0  0  0  0  0  0  0  0  0
   -2.3390   -3.4710    2.3810 H   0  0  0  0  0  0  0  0  0  0  0  0
   -3.4150   -2.5670    3.4840 H   0  0  0  0  0  0  0  0  0  0  0  0
   -2.5030   -1.0350    5.1760 H   0  0  0  0  0  0  0  0  0  0  0  0
   -0.6140   -0.5830    6.6860 H   0  0  0  0  0  0  0  0  0  0  0  0
    1.5980   -1.4610    6.2470 H   0  0  0  0  0  0  0  0  0  0  0  0
    1.9780   -2.8370    4.2530 H   0  0  0  0  0  0  0  0  0  0  0  0
    0.1060   -3.3210    2.7010 H   0  0  0  0  0  0  0  0  0  0  0  0
  1 12  1  0  0  0  0
  1  2  1  0  0  0  0
  2 14  1  1  0  0  0
  2  3  1  0  0  0  0
  3  4  1  0  0  0  0
  3 16  1  0  0  0  0
  3 15  1  0  0  0  0
  4  5  2  0  0  0  0
  4  9  1  0  0  0  0
  5  6  1  0  0  0  0
  6 18  1  0  0  0  0
  6  7  2  0  0  0  0
  7 19  1  0  0  0  0
  8  7  1  0  0  0  0
  8 20  1  0  0  0  0
  9  8  2  0  0  0  0
 10 30  1  0  0  0  0
 10  2  1  0  0  0  0
 11 10  2  0  0  0  0
 13  1  1  0  0  0  0
 17  5  1  0  0  0  0
 21  9  1  0  0  0  0
 22 34  1  0  0  0  0
 23 22  1  0  0  0  0
 23 25  1  0  0  0  0
 24 23  2  0  0  0  0
 25 36  1  0  0  0  0
 26 25  1  0  0  0  0
 26 27  1  0  0  0  0
 27 40  1  0  0  0  0
 27 28  1  0  0  0  0
 28 41  1  0  0  0  0
 28 29  1  0  0  0  0
 29 43  1  6  0  0  0
 29 31  1  0  0  0  0
 29 30  1  0  0  0  0
 30 44  1  0  0  0  0
 31 45  1  0  0  0  0
 32 31  2  0  0  0  0
 33 22  1  0  0  0  0
 35 24  1  0  0  0  0
 37 26  1  0  0  0  0
 38 26  1  0  0  0  0
 39 27  1  0  0  0  0
 42 28  1  0  0  0  0
 45 57  1  0  0  0  0
 45 46  1  0  0  0  0
 46 58  1  6  0  0  0
 46 54  1  0  0  0  0
 46 47  1  0  0  0  0
 47 60  1  0  0  0  0
 47 48  1  0  0  0  0
 48 49  1  0  0  0  0
 49 61  1  0  0  0  0
 49 50  2  0  0  0  0
 50 62  1  0  0  0  0
 51 50  1  0  0  0  0
 51 63  1  0  0  0  0
 52 51  2  0  0  0  0
 53 48  2  0  0  0  0
 53 52  1  0  0  0  0
 54 56  1  0  0  0  0
 55 54  2  0  0  0  0
 59 47  1  0  0  0  0
 64 52  1  0  0  0  0
 65 53  1  0  0  0  0
M  END
$$$$
