FRK.pdb
 OpenBabel07022418583D

 66 66  0  0  1  0  0  0  0  0999 V2000
    1.2540    3.0530    1.3540 N   0  0  0  0  0  0  0  0  0  0  0  0
    1.3470    1.7400    0.7880 C   0  0  1  0  0  0  0  0  0  0  0  0
    1.6600    0.7500    1.8800 C   0  0  0  0  0  0  0  0  0  0  0  0
    2.9470    1.0480    2.5730 C   0  0  0  0  0  0  0  0  0  0  0  0
    3.0240    1.8680    3.6720 C   0  0  0  0  0  0  0  0  0  0  0  0
    4.1880    2.1550    4.3340 C   0  0  0  0  0  0  0  0  0  0  0  0
    5.3610    1.5790    3.8600 C   0  0  0  0  0  0  0  0  0  0  0  0
    5.3020    0.7450    2.7470 C   0  0  0  0  0  0  0  0  0  0  0  0
    4.1130    0.4770    2.1030 C   0  0  0  0  0  0  0  0  0  0  0  0
    0.0940    1.3850    0.0710 C   0  0  0  0  0  0  0  0  0  0  0  0
   -0.8570    2.2170   -0.0330 O   0  0  0  0  0  0  0  0  0  0  0  0
    0.5680    3.0400    2.1350 H   0  0  0  0  0  0  0  0  0  0  0  0
    1.0730    3.7850    0.6400 H   0  0  0  0  0  0  0  0  0  0  0  0
    2.1960    1.7480    0.0390 H   0  0  0  0  0  0  0  0  0  0  0  0
    1.7540   -0.2810    1.4430 H   0  0  0  0  0  0  0  0  0  0  0  0
    0.8590    0.8160    2.6420 H   0  0  0  0  0  0  0  0  0  0  0  0
    2.0870    2.2970    4.0130 H   0  0  0  0  0  0  0  0  0  0  0  0
    4.2190    2.8170    5.2120 H   0  0  0  0  0  0  0  0  0  0  0  0
    6.3000    1.7950    4.3740 H   0  0  0  0  0  0  0  0  0  0  0  0
    6.2190    0.2970    2.3820 H   0  0  0  0  0  0  0  0  0  0  0  0
    4.0830   -0.1880    1.2210 H   0  0  0  0  0  0  0  0  0  0  0  0
   -5.3060    2.1170   -2.5000 N   0  0  0  0  0  0  0  0  0  0  0  0
   -4.7730    1.2780   -3.5160 C   0  0  0  0  0  0  0  0  0  0  0  0
   -5.1440    1.3690   -4.7480 N   0  0  0  0  0  0  0  0  0  0  0  0
   -3.7810    0.3000   -3.1160 N   0  0  0  0  0  0  0  0  0  0  0  0
   -2.8140   -0.1200   -4.0670 C   0  0  0  0  0  0  0  0  0  0  0  0
   -1.7440   -1.0530   -3.6400 C   0  0  0  0  0  0  0  0  0  0  0  0
   -0.7840   -0.6190   -2.6120 C   0  0  0  0  0  0  0  0  0  0  0  0
   -1.2550   -0.3110   -1.2420 C   0  0  2  0  0  0  0  0  0  0  0  0
   -0.0340    0.1140   -0.4990 N   0  0  0  0  0  0  0  0  0  0  0  0
   -1.7800   -1.4990   -0.5290 C   0  0  0  0  0  0  0  0  0  0  0  0
   -2.7480   -2.1310   -1.0240 O   0  0  0  0  0  0  0  0  0  0  0  0
   -6.2000    1.8910   -2.0200 H   0  0  0  0  0  0  0  0  0  0  0  0
   -4.7660    2.9680   -2.2520 H   0  0  0  0  0  0  0  0  0  0  0  0
   -5.8590    2.0910   -4.9780 H   0  0  0  0  0  0  0  0  0  0  0  0
   -3.8670   -0.0340   -2.1590 H   0  0  0  0  0  0  0  0  0  0  0  0
   -3.3900   -0.6060   -4.9140 H   0  0  0  0  0  0  0  0  0  0  0  0
   -2.3240    0.7570   -4.5800 H   0  0  0  0  0  0  0  0  0  0  0  0
   -2.1680   -2.0740   -3.4140 H   0  0  0  0  0  0  0  0  0  0  0  0
   -1.1280   -1.2580   -4.5800 H   0  0  0  0  0  0  0  0  0  0  0  0
    0.0140   -1.4000   -2.5210 H   0  0  0  0  0  0  0  0  0  0  0  0
   -0.2440    0.2920   -2.9890 H   0  0  0  0  0  0  0  0  0  0  0  0
   -1.9340    0.5770   -1.1870 H   0  0  0  0  0  0  0  0  0  0  0  0
    0.7230   -0.5950   -0.4290 H   0  0  0  0  0  0  0  0  0  0  0  0
   -1.2180   -1.9620    0.7270 N   0  0  0  0  0  0  0  0  0  0  0  0
   -1.7820   -3.1090    1.3460 C   0  0  1  0  0  0  0  0  0  0  0  0
   -0.8750   -4.2560    1.6770 C   0  0  0  0  0  0  0  0  0  0  0  0
    0.2110   -4.0760    2.6210 C   0  0  0  0  0  0  0  0  0  0  0  0
    1.2980   -3.1240    2.4820 C   0  0  0  0  0  0  0  0  0  0  0  0
    2.1810   -3.1530    1.3120 C   0  0  0  0  0  0  0  0  0  0  0  0
    2.8910   -4.4370    1.2060 N   0  0  0  0  0  0  0  0  0  0  0  0
   -2.5970   -2.7450    2.5460 C   0  0  0  0  0  0  0  0  0  0  0  0
   -2.7120   -1.5570    2.8590 O   0  0  0  0  0  0  0  0  0  0  0  0
   -3.1980   -3.7320    3.2710 O   0  0  0  0  0  0  0  0  0  0  0  0
   -0.4310   -1.3760    1.0570 H   0  0  0  0  0  0  0  0  0  0  0  0
   -2.5770   -3.5130    0.6340 H   0  0  0  0  0  0  0  0  0  0  0  0
   -1.5970   -5.0180    2.1450 H   0  0  0  0  0  0  0  0  0  0  0  0
   -0.6080   -4.8100    0.7350 H   0  0  0  0  0  0  0  0  0  0  0  0
    0.7020   -5.0940    2.8220 H   0  0  0  0  0  0  0  0  0  0  0  0
   -0.2950   -3.9370    3.6440 H   0  0  0  0  0  0  0  0  0  0  0  0
    0.9630   -2.0950    2.7020 H   0  0  0  0  0  0  0  0  0  0  0  0
    2.0310   -3.2800    3.3760 H   0  0  0  0  0  0  0  0  0  0  0  0
    2.9840   -2.3820    1.3770 H   0  0  0  0  0  0  0  0  0  0  0  0
    1.7250   -3.0030    0.3200 H   0  0  0  0  0  0  0  0  0  0  0  0
    3.8940   -4.3420    1.5030 H   0  0  0  0  0  0  0  0  0  0  0  0
    2.4880   -5.1440    1.8590 H   0  0  0  0  0  0  0  0  0  0  0  0
  1 12  1  0  0  0  0
  2 14  1  6  0  0  0
  2  1  1  0  0  0  0
  2  3  1  0  0  0  0
  3  4  1  0  0  0  0
  3 16  1  0  0  0  0
  4  5  1  0  0  0  0
  5 17  1  0  0  0  0
  5  6  2  0  0  0  0
  6 18  1  0  0  0  0
  7  6  1  0  0  0  0
  7 19  1  0  0  0  0
  8  7  2  0  0  0  0
  9  4  2  0  0  0  0
  9  8  1  0  0  0  0
 10  2  1  0  0  0  0
 11 10  2  0  0  0  0
 13  1  1  0  0  0  0
 15  3  1  0  0  0  0
 20  8  1  0  0  0  0
 21  9  1  0  0  0  0
 22 34  1  0  0  0  0
 22 33  1  0  0  0  0
 23 25  1  0  0  0  0
 23 22  1  0  0  0  0
 24 23  2  0  0  0  0
 25 36  1  0  0  0  0
 26 27  1  0  0  0  0
 26 25  1  0  0  0  0
 27 39  1  0  0  0  0
 27 28  1  0  0  0  0
 28 41  1  0  0  0  0
 28 29  1  0  0  0  0
 29 43  1  6  0  0  0
 29 31  1  0  0  0  0
 29 30  1  0  0  0  0
 30 44  1  0  0  0  0
 30 10  1  0  0  0  0
 31 45  1  0  0  0  0
 32 31  2  0  0  0  0
 35 24  1  0  0  0  0
 37 26  1  0  0  0  0
 38 26  1  0  0  0  0
 40 27  1  0  0  0  0
 42 28  1  0  0  0  0
 45 55  1  0  0  0  0
 45 46  1  0  0  0  0
 46 56  1  6  0  0  0
 46 47  1  0  0  0  0
 46 52  1  0  0  0  0
 47 57  1  0  0  0  0
 47 48  1  0  0  0  0
 48 59  1  0  0  0  0
 48 60  1  0  0  0  0
 49 48  1  0  0  0  0
 49 61  1  0  0  0  0
 49 62  1  0  0  0  0
 50 63  1  0  0  0  0
 50 49  1  0  0  0  0
 51 50  1  0  0  0  0
 51 65  1  0  0  0  0
 51 66  1  0  0  0  0
 52 53  2  0  0  0  0
 52 54  1  0  0  0  0
 58 47  1  0  0  0  0
 64 50  1  0  0  0  0
M  END
$$$$
