FRM.pdb
 OpenBabel07022418583D

 62 62  0  0  1  0  0  0  0  0999 V2000
    1.2750    3.0730    1.1170 N   0  0  0  0  0  0  0  0  0  0  0  0
    0.7150    1.9560    0.3950 C   0  0  1  0  0  0  0  0  0  0  0  0
    1.8500    1.0330   -0.0880 C   0  0  0  0  0  0  0  0  0  0  0  0
    2.6350    0.5610    1.0900 C   0  0  0  0  0  0  0  0  0  0  0  0
    2.2920   -0.5240    1.8580 C   0  0  0  0  0  0  0  0  0  0  0  0
    3.1020   -0.8890    2.9260 C   0  0  0  0  0  0  0  0  0  0  0  0
    4.2490   -0.1910    3.2450 C   0  0  0  0  0  0  0  0  0  0  0  0
    4.5970    0.9030    2.4730 C   0  0  0  0  0  0  0  0  0  0  0  0
    3.7890    1.2530    1.4210 C   0  0  0  0  0  0  0  0  0  0  0  0
   -0.2310    1.1890    1.2270 C   0  0  0  0  0  0  0  0  0  0  0  0
   -0.2640    1.2010    2.4770 O   0  0  0  0  0  0  0  0  0  0  0  0
    1.7840    3.7390    0.5380 H   0  0  0  0  0  0  0  0  0  0  0  0
    1.7400    2.8030    2.0020 H   0  0  0  0  0  0  0  0  0  0  0  0
    0.2550    2.3530   -0.5280 H   0  0  0  0  0  0  0  0  0  0  0  0
    1.4250    0.2290   -0.6940 H   0  0  0  0  0  0  0  0  0  0  0  0
    2.5030    1.6640   -0.7110 H   0  0  0  0  0  0  0  0  0  0  0  0
    1.3910   -1.0710    1.6250 H   0  0  0  0  0  0  0  0  0  0  0  0
    2.8150   -1.7470    3.5190 H   0  0  0  0  0  0  0  0  0  0  0  0
    4.8950   -0.4640    4.0770 H   0  0  0  0  0  0  0  0  0  0  0  0
    5.5120    1.4640    2.7240 H   0  0  0  0  0  0  0  0  0  0  0  0
    4.0580    2.1240    0.8000 H   0  0  0  0  0  0  0  0  0  0  0  0
   -1.6470    4.7740    0.5410 N   0  0  0  0  0  0  0  0  0  0  0  0
   -2.2850    3.7440   -0.1870 C   0  0  0  0  0  0  0  0  0  0  0  0
   -2.3020    3.7230   -1.4690 N   0  0  0  0  0  0  0  0  0  0  0  0
   -2.9500    2.6640    0.4700 N   0  0  0  0  0  0  0  0  0  0  0  0
   -4.0040    1.9120   -0.1430 C   0  0  0  0  0  0  0  0  0  0  0  0
   -4.3850    0.7340    0.6480 C   0  0  0  0  0  0  0  0  0  0  0  0
   -3.5100   -0.4260    0.7990 C   0  0  0  0  0  0  0  0  0  0  0  0
   -2.1480   -0.4290    1.3450 C   0  0  2  0  0  0  0  0  0  0  0  0
   -1.2220    0.3420    0.5850 N   0  0  0  0  0  0  0  0  0  0  0  0
   -1.6700   -1.8900    1.1990 C   0  0  0  0  0  0  0  0  0  0  0  0
   -2.1400   -2.7870    1.9360 O   0  0  0  0  0  0  0  0  0  0  0  0
   -1.5090    4.7020    1.5810 H   0  0  0  0  0  0  0  0  0  0  0  0
   -1.3030    5.6290    0.0390 H   0  0  0  0  0  0  0  0  0  0  0  0
   -1.8630    4.4400   -2.0690 H   0  0  0  0  0  0  0  0  0  0  0  0
   -2.6730    2.4530    1.4540 H   0  0  0  0  0  0  0  0  0  0  0  0
   -4.8700    2.6400   -0.2630 H   0  0  0  0  0  0  0  0  0  0  0  0
   -3.6760    1.6400   -1.1980 H   0  0  0  0  0  0  0  0  0  0  0  0
   -4.8020    1.0530    1.6650 H   0  0  0  0  0  0  0  0  0  0  0  0
   -5.3520    0.3400    0.1600 H   0  0  0  0  0  0  0  0  0  0  0  0
   -4.1160   -1.2750    1.3280 H   0  0  0  0  0  0  0  0  0  0  0  0
   -3.4950   -0.9100   -0.2720 H   0  0  0  0  0  0  0  0  0  0  0  0
   -2.0790   -0.1700    2.4300 H   0  0  0  0  0  0  0  0  0  0  0  0
   -1.2380    0.3130   -0.4460 H   0  0  0  0  0  0  0  0  0  0  0  0
    1.1160   -7.8200   -2.1610 C   0  0  0  0  0  0  0  0  0  0  0  0
    0.7780   -6.0750   -1.8610 S   0  0  0  0  0  0  0  0  0  0  0  0
   -0.8210   -5.7800   -1.1320 C   0  0  0  0  0  0  0  0  0  0  0  0
   -1.1180   -4.3540   -0.8880 C   0  0  0  0  0  0  0  0  0  0  0  0
   -0.2780   -3.6800    0.1330 C   0  0  2  0  0  0  0  0  0  0  0  0
   -0.7060   -2.2630    0.2390 N   0  0  0  0  0  0  0  0  0  0  0  0
    1.1420   -3.7920   -0.0810 C   0  0  0  0  0  0  0  0  0  0  0  0
    1.8690   -4.7990    0.0860 O   0  0  0  0  0  0  0  0  0  0  0  0
    1.8110   -2.6250   -0.5380 O   0  0  0  0  0  0  0  0  0  0  0  0
    1.8870   -7.9820   -2.9260 H   0  0  0  0  0  0  0  0  0  0  0  0
    0.1850   -8.2720   -2.5770 H   0  0  0  0  0  0  0  0  0  0  0  0
    1.3580   -8.3770   -1.2170 H   0  0  0  0  0  0  0  0  0  0  0  0
   -1.6230   -6.1530   -1.8540 H   0  0  0  0  0  0  0  0  0  0  0  0
   -1.0090   -6.4280   -0.2320 H   0  0  0  0  0  0  0  0  0  0  0  0
   -2.1930   -4.2290   -0.5460 H   0  0  0  0  0  0  0  0  0  0  0  0
   -1.0870   -3.8250   -1.8830 H   0  0  0  0  0  0  0  0  0  0  0  0
   -0.5560   -4.1520    1.1150 H   0  0  0  0  0  0  0  0  0  0  0  0
   -0.3070   -1.5430   -0.3830 H   0  0  0  0  0  0  0  0  0  0  0  0
  1 13  1  0  0  0  0
  2 14  1  6  0  0  0
  2  1  1  0  0  0  0
  2 10  1  0  0  0  0
  3  2  1  0  0  0  0
  3  4  1  0  0  0  0
  4  9  2  0  0  0  0
  4  5  1  0  0  0  0
  5  6  2  0  0  0  0
  6  7  1  0  0  0  0
  6 18  1  0  0  0  0
  7 19  1  0  0  0  0
  8 20  1  0  0  0  0
  8  7  2  0  0  0  0
  9  8  1  0  0  0  0
 10 11  2  0  0  0  0
 12  1  1  0  0  0  0
 15  3  1  0  0  0  0
 16  3  1  0  0  0  0
 17  5  1  0  0  0  0
 21  9  1  0  0  0  0
 22 33  1  0  0  0  0
 23 25  1  0  0  0  0
 23 22  1  0  0  0  0
 24 23  2  0  0  0  0
 25 36  1  0  0  0  0
 26 25  1  0  0  0  0
 26 27  1  0  0  0  0
 27 28  1  0  0  0  0
 27 39  1  0  0  0  0
 28 41  1  0  0  0  0
 28 29  1  0  0  0  0
 29 43  1  1  0  0  0
 30 10  1  0  0  0  0
 30 29  1  0  0  0  0
 31 29  1  0  0  0  0
 31 32  2  0  0  0  0
 34 22  1  0  0  0  0
 35 24  1  0  0  0  0
 37 26  1  0  0  0  0
 38 26  1  0  0  0  0
 40 27  1  0  0  0  0
 42 28  1  0  0  0  0
 44 30  1  0  0  0  0
 45 46  1  0  0  0  0
 45 56  1  0  0  0  0
 46 47  1  0  0  0  0
 47 48  1  0  0  0  0
 47 58  1  0  0  0  0
 48 59  1  0  0  0  0
 48 49  1  0  0  0  0
 49 50  1  0  0  0  0
 49 61  1  1  0  0  0
 50 31  1  0  0  0  0
 51 52  1  0  0  0  0
 51 49  1  0  0  0  0
 53 51  2  0  0  0  0
 54 45  1  0  0  0  0
 55 45  1  0  0  0  0
 57 47  1  0  0  0  0
 60 48  1  0  0  0  0
 62 50  1  0  0  0  0
M  END
$$$$
