FRP.pdb
 OpenBabel07022418583D

 59 60  0  0  1  0  0  0  0  0999 V2000
    1.4030    1.4580    0.7100 N   0  0  0  0  0  0  0  0  0  0  0  0
    0.7720    1.1860   -0.5760 C   0  0  1  0  0  0  0  0  0  0  0  0
    1.7580    0.9090   -1.6530 C   0  0  0  0  0  0  0  0  0  0  0  0
    2.6530   -0.2350   -1.4200 C   0  0  0  0  0  0  0  0  0  0  0  0
    2.3270   -1.4940   -1.8590 C   0  0  0  0  0  0  0  0  0  0  0  0
    3.1900   -2.5330   -1.6270 C   0  0  0  0  0  0  0  0  0  0  0  0
    4.4110   -2.3980   -0.9590 C   0  0  0  0  0  0  0  0  0  0  0  0
    4.6900   -1.1040   -0.5370 C   0  0  0  0  0  0  0  0  0  0  0  0
    3.8450   -0.0530   -0.7560 C   0  0  0  0  0  0  0  0  0  0  0  0
   -0.3770    0.2810   -0.4940 C   0  0  0  0  0  0  0  0  0  0  0  0
   -0.9010   -0.1060   -1.5510 O   0  0  0  0  0  0  0  0  0  0  0  0
    2.2330    2.0760    0.4940 H   0  0  0  0  0  0  0  0  0  0  0  0
    0.7540    1.9070    1.3710 H   0  0  0  0  0  0  0  0  0  0  0  0
    0.3390    2.2260   -0.8500 H   0  0  0  0  0  0  0  0  0  0  0  0
    1.2220    0.7570   -2.6150 H   0  0  0  0  0  0  0  0  0  0  0  0
    2.4240    1.7960   -1.8190 H   0  0  0  0  0  0  0  0  0  0  0  0
    1.3800   -1.6790   -2.3960 H   0  0  0  0  0  0  0  0  0  0  0  0
    2.9390   -3.5330   -1.9690 H   0  0  0  0  0  0  0  0  0  0  0  0
    5.0740   -3.2340   -0.7890 H   0  0  0  0  0  0  0  0  0  0  0  0
    5.6470   -0.9890   -0.0090 H   0  0  0  0  0  0  0  0  0  0  0  0
    4.1390    0.9450   -0.3870 H   0  0  0  0  0  0  0  0  0  0  0  0
   -1.3880    4.2540    0.9970 N   0  0  0  0  0  0  0  0  0  0  0  0
   -2.1100    3.4730    0.0630 C   0  0  0  0  0  0  0  0  0  0  0  0
   -2.2690    3.8870   -1.1600 N   0  0  0  0  0  0  0  0  0  0  0  0
   -2.6830    2.2040    0.4570 N   0  0  0  0  0  0  0  0  0  0  0  0
   -3.4920    1.5470   -0.5220 C   0  0  0  0  0  0  0  0  0  0  0  0
   -3.9980    0.2110   -0.1910 C   0  0  0  0  0  0  0  0  0  0  0  0
   -3.1530   -0.9710   -0.0200 C   0  0  0  0  0  0  0  0  0  0  0  0
   -2.0280   -1.0030    0.9610 C   0  0  2  0  0  0  0  0  0  0  0  0
   -0.9210   -0.1670    0.7630 N   0  0  0  0  0  0  0  0  0  0  0  0
   -1.8420   -2.3610    1.4550 C   0  0  0  0  0  0  0  0  0  0  0  0
   -2.9420   -3.0180    1.6050 O   0  0  0  0  0  0  0  0  0  0  0  0
   -0.7760    5.0150    0.6410 H   0  0  0  0  0  0  0  0  0  0  0  0
   -1.4410    4.1020    2.0180 H   0  0  0  0  0  0  0  0  0  0  0  0
   -1.8780    4.7910   -1.4950 H   0  0  0  0  0  0  0  0  0  0  0  0
   -2.4820    1.8780    1.4260 H   0  0  0  0  0  0  0  0  0  0  0  0
   -4.3730    2.2640   -0.7270 H   0  0  0  0  0  0  0  0  0  0  0  0
   -3.0060    1.5090   -1.5440 H   0  0  0  0  0  0  0  0  0  0  0  0
   -4.7050   -0.0600   -1.0730 H   0  0  0  0  0  0  0  0  0  0  0  0
   -4.7890    0.2730    0.6500 H   0  0  0  0  0  0  0  0  0  0  0  0
   -3.8840   -1.8300    0.2390 H   0  0  0  0  0  0  0  0  0  0  0  0
   -2.8090   -1.2870   -1.0500 H   0  0  0  0  0  0  0  0  0  0  0  0
   -2.5780   -0.4760    1.8920 H   0  0  0  0  0  0  0  0  0  0  0  0
   -0.3740    0.2240    1.5960 H   0  0  0  0  0  0  0  0  0  0  0  0
   -0.6730   -3.0450    1.7860 N   0  0  0  0  0  0  0  0  0  0  0  0
    0.6780   -2.5940    1.7080 C   0  0  0  0  0  0  0  0  0  0  0  0
    1.3090   -3.7800    0.9560 C   0  0  0  0  0  0  0  0  0  0  0  0
    0.5960   -4.9480    1.5520 C   0  0  0  0  0  0  0  0  0  0  0  0
   -0.6090   -4.3910    2.2970 C   0  0  1  0  0  0  0  0  0  0  0  0
   -0.2890   -4.4700    3.7330 C   0  0  0  0  0  0  0  0  0  0  0  0
   -0.1310   -3.4430    4.4290 O   0  0  0  0  0  0  0  0  0  0  0  0
   -0.1500   -5.7030    4.3680 O   0  0  0  0  0  0  0  0  0  0  0  0
    0.8780   -1.7270    1.0820 H   0  0  0  0  0  0  0  0  0  0  0  0
    1.1360   -2.5210    2.7200 H   0  0  0  0  0  0  0  0  0  0  0  0
    1.0090   -3.6100   -0.1190 H   0  0  0  0  0  0  0  0  0  0  0  0
    2.3910   -3.7880    1.0790 H   0  0  0  0  0  0  0  0  0  0  0  0
    0.2610   -5.6690    0.7500 H   0  0  0  0  0  0  0  0  0  0  0  0
    1.3040   -5.4610    2.2390 H   0  0  0  0  0  0  0  0  0  0  0  0
   -1.5240   -4.9770    2.0420 H   0  0  0  0  0  0  0  0  0  0  0  0
  1 13  1  0  0  0  0
  2 14  1  6  0  0  0
  2 10  1  0  0  0  0
  2  1  1  0  0  0  0
  3  4  1  0  0  0  0
  3  2  1  0  0  0  0
  4  9  1  0  0  0  0
  5  6  1  0  0  0  0
  5  4  2  0  0  0  0
  6  7  2  0  0  0  0
  7 19  1  0  0  0  0
  7  8  1  0  0  0  0
  8 20  1  0  0  0  0
  9  8  2  0  0  0  0
  9 21  1  0  0  0  0
 10 30  1  0  0  0  0
 11 10  2  0  0  0  0
 12  1  1  0  0  0  0
 15  3  1  0  0  0  0
 16  3  1  0  0  0  0
 17  5  1  0  0  0  0
 18  6  1  0  0  0  0
 22 34  1  0  0  0  0
 23 25  1  0  0  0  0
 23 22  1  0  0  0  0
 24 23  2  0  0  0  0
 25 36  1  0  0  0  0
 26 27  1  0  0  0  0
 26 25  1  0  0  0  0
 27 28  1  0  0  0  0
 27 40  1  0  0  0  0
 28 41  1  0  0  0  0
 28 29  1  0  0  0  0
 29 31  1  0  0  0  0
 29 43  1  1  0  0  0
 30 29  1  0  0  0  0
 30 44  1  0  0  0  0
 31 32  2  0  0  0  0
 31 45  1  0  0  0  0
 33 22  1  0  0  0  0
 35 24  1  0  0  0  0
 37 26  1  0  0  0  0
 38 26  1  0  0  0  0
 39 27  1  0  0  0  0
 42 28  1  0  0  0  0
 45 49  1  0  0  0  0
 46 45  1  0  0  0  0
 46 54  1  0  0  0  0
 47 56  1  0  0  0  0
 47 48  1  0  0  0  0
 47 46  1  0  0  0  0
 48 58  1  0  0  0  0
 48 49  1  0  0  0  0
 49 59  1  6  0  0  0
 49 50  1  0  0  0  0
 50 52  2  0  0  0  0
 50 51  1  0  0  0  0
 53 46  1  0  0  0  0
 55 47  1  0  0  0  0
 57 48  1  0  0  0  0
M  END
$$$$
