FRS.pdb
 OpenBabel07022418583D

 56 56  0  0  1  0  0  0  0  0999 V2000
    0.9240   -0.2810    1.6870 N   0  0  0  0  0  0  0  0  0  0  0  0
    1.2220   -0.0750    0.2800 C   0  0  1  0  0  0  0  0  0  0  0  0
    2.2880   -1.0450   -0.1950 C   0  0  0  0  0  0  0  0  0  0  0  0
    3.5180   -0.8260    0.5970 C   0  0  0  0  0  0  0  0  0  0  0  0
    4.4880    0.0830    0.1730 C   0  0  0  0  0  0  0  0  0  0  0  0
    5.6140    0.2530    0.9390 C   0  0  0  0  0  0  0  0  0  0  0  0
    5.8130   -0.4490    2.1180 C   0  0  0  0  0  0  0  0  0  0  0  0
    4.8270   -1.3350    2.4940 C   0  0  0  0  0  0  0  0  0  0  0  0
    3.6740   -1.5540    1.7730 C   0  0  0  0  0  0  0  0  0  0  0  0
   -0.0420   -0.2400   -0.4660 C   0  0  0  0  0  0  0  0  0  0  0  0
   -0.0360   -0.0760   -1.6990 O   0  0  0  0  0  0  0  0  0  0  0  0
    0.2700    0.5210    1.9390 H   0  0  0  0  0  0  0  0  0  0  0  0
    1.8100   -0.0180    2.2120 H   0  0  0  0  0  0  0  0  0  0  0  0
    1.6350    0.9440    0.1460 H   0  0  0  0  0  0  0  0  0  0  0  0
    2.4580   -0.8660   -1.2720 H   0  0  0  0  0  0  0  0  0  0  0  0
    1.9390   -2.1050   -0.0990 H   0  0  0  0  0  0  0  0  0  0  0  0
    4.3690    0.6520   -0.7450 H   0  0  0  0  0  0  0  0  0  0  0  0
    6.3980    0.9530    0.6460 H   0  0  0  0  0  0  0  0  0  0  0  0
    6.7130   -0.2900    2.6980 H   0  0  0  0  0  0  0  0  0  0  0  0
    4.9570   -1.8940    3.4080 H   0  0  0  0  0  0  0  0  0  0  0  0
    2.9050   -2.2510    2.0750 H   0  0  0  0  0  0  0  0  0  0  0  0
   -0.6190    3.4120    2.2630 N   0  0  0  0  0  0  0  0  0  0  0  0
   -0.6300    3.1110    0.8860 C   0  0  0  0  0  0  0  0  0  0  0  0
    0.2960    3.5270    0.1090 N   0  0  0  0  0  0  0  0  0  0  0  0
   -1.6860    2.3290    0.3390 N   0  0  0  0  0  0  0  0  0  0  0  0
   -2.0020    2.4000   -1.0680 C   0  0  0  0  0  0  0  0  0  0  0  0
   -3.0010    1.4720   -1.5630 C   0  0  0  0  0  0  0  0  0  0  0  0
   -2.8680    0.0260   -1.6630 C   0  0  0  0  0  0  0  0  0  0  0  0
   -2.5300   -0.7490   -0.4590 C   0  0  2  0  0  0  0  0  0  0  0  0
   -1.2640   -0.5780    0.1630 N   0  0  0  0  0  0  0  0  0  0  0  0
   -3.0000   -2.1560   -0.4770 C   0  0  0  0  0  0  0  0  0  0  0  0
   -4.1090   -2.4970   -0.9720 O   0  0  0  0  0  0  0  0  0  0  0  0
   -1.2910    4.1180    2.6890 H   0  0  0  0  0  0  0  0  0  0  0  0
    0.0370    2.9730    2.9450 H   0  0  0  0  0  0  0  0  0  0  0  0
    1.0880    4.1080    0.4880 H   0  0  0  0  0  0  0  0  0  0  0  0
   -2.2130    1.7440    1.0180 H   0  0  0  0  0  0  0  0  0  0  0  0
   -1.0400    2.4260   -1.6410 H   0  0  0  0  0  0  0  0  0  0  0  0
   -2.3620    3.4860   -1.1970 H   0  0  0  0  0  0  0  0  0  0  0  0
   -3.9840    1.6910   -0.9670 H   0  0  0  0  0  0  0  0  0  0  0  0
   -3.3640    1.9090   -2.5850 H   0  0  0  0  0  0  0  0  0  0  0  0
   -2.2920   -0.3110   -2.5780 H   0  0  0  0  0  0  0  0  0  0  0  0
   -3.9180   -0.3570   -1.9530 H   0  0  0  0  0  0  0  0  0  0  0  0
   -3.2580   -0.2360    0.3030 H   0  0  0  0  0  0  0  0  0  0  0  0
   -1.1850   -0.7120    1.2190 H   0  0  0  0  0  0  0  0  0  0  0  0
   -0.4920   -5.5350   -0.2920 O   0  0  0  0  0  0  0  0  0  0  0  0
   -1.7870   -5.5000   -0.7710 C   0  0  0  0  0  0  0  0  0  0  0  0
   -2.6820   -4.5980    0.0510 C   0  0  2  0  0  0  0  0  0  0  0  0
   -2.2240   -3.2390    0.0700 N   0  0  0  0  0  0  0  0  0  0  0  0
   -2.7740   -5.1510    1.4250 C   0  0  0  0  0  0  0  0  0  0  0  0
   -3.1550   -6.3270    1.6430 O   0  0  0  0  0  0  0  0  0  0  0  0
   -2.4440   -4.4010    2.5670 O   0  0  0  0  0  0  0  0  0  0  0  0
    0.0410   -4.8820   -0.8250 H   0  0  0  0  0  0  0  0  0  0  0  0
   -1.8600   -5.1770   -1.8300 H   0  0  0  0  0  0  0  0  0  0  0  0
   -2.2640   -6.5170   -0.7360 H   0  0  0  0  0  0  0  0  0  0  0  0
   -3.6830   -4.6420   -0.4070 H   0  0  0  0  0  0  0  0  0  0  0  0
   -1.3040   -2.9660    0.4810 H   0  0  0  0  0  0  0  0  0  0  0  0
  1 12  1  0  0  0  0
  1 13  1  0  0  0  0
  2 14  1  6  0  0  0
  2  1  1  0  0  0  0
  3 16  1  0  0  0  0
  3  2  1  0  0  0  0
  3  4  1  0  0  0  0
  4  9  1  0  0  0  0
  5  4  2  0  0  0  0
  5  6  1  0  0  0  0
  6  7  2  0  0  0  0
  7  8  1  0  0  0  0
  7 19  1  0  0  0  0
  8 20  1  0  0  0  0
  9 21  1  0  0  0  0
  9  8  2  0  0  0  0
 10 30  1  0  0  0  0
 10  2  1  0  0  0  0
 11 10  2  0  0  0  0
 15  3  1  0  0  0  0
 17  5  1  0  0  0  0
 18  6  1  0  0  0  0
 22 33  1  0  0  0  0
 22 34  1  0  0  0  0
 23 22  1  0  0  0  0
 24 35  1  0  0  0  0
 24 23  2  0  0  0  0
 25 23  1  0  0  0  0
 25 36  1  0  0  0  0
 26 25  1  0  0  0  0
 27 26  1  0  0  0  0
 27 39  1  0  0  0  0
 28 27  1  0  0  0  0
 28 29  1  0  0  0  0
 29 30  1  0  0  0  0
 29 43  1  1  0  0  0
 30 44  1  0  0  0  0
 31 29  1  0  0  0  0
 31 48  1  0  0  0  0
 32 31  2  0  0  0  0
 37 26  1  0  0  0  0
 38 26  1  0  0  0  0
 40 27  1  0  0  0  0
 41 28  1  0  0  0  0
 42 28  1  0  0  0  0
 46 54  1  0  0  0  0
 46 45  1  0  0  0  0
 46 47  1  0  0  0  0
 47 55  1  6  0  0  0
 47 48  1  0  0  0  0
 47 49  1  0  0  0  0
 48 56  1  0  0  0  0
 49 50  2  0  0  0  0
 49 51  1  0  0  0  0
 52 45  1  0  0  0  0
 53 46  1  0  0  0  0
M  END
$$$$
