FRV.pdb
 OpenBabel07022418583D

 61 61  0  0  1  0  0  0  0  0999 V2000
    2.2010   -1.3140    0.1260 N   0  0  0  0  0  0  0  0  0  0  0  0
    2.2360   -0.5510    1.3320 C   0  0  1  0  0  0  0  0  0  0  0  0
    3.2030    0.5950    1.1330 C   0  0  0  0  0  0  0  0  0  0  0  0
    4.5460    0.0330    0.8310 C   0  0  0  0  0  0  0  0  0  0  0  0
    4.9880   -0.2420   -0.4440 C   0  0  0  0  0  0  0  0  0  0  0  0
    6.2480   -0.7690   -0.7030 C   0  0  0  0  0  0  0  0  0  0  0  0
    7.0950   -1.0290    0.3620 C   0  0  0  0  0  0  0  0  0  0  0  0
    6.6750   -0.7620    1.6520 C   0  0  0  0  0  0  0  0  0  0  0  0
    5.4240   -0.2420    1.8750 C   0  0  0  0  0  0  0  0  0  0  0  0
    0.9040   -0.0840    1.7720 C   0  0  0  0  0  0  0  0  0  0  0  0
    0.8060    0.5880    2.8300 O   0  0  0  0  0  0  0  0  0  0  0  0
    3.1240   -1.7920    0.0060 H   0  0  0  0  0  0  0  0  0  0  0  0
    1.4860   -2.0940    0.1720 H   0  0  0  0  0  0  0  0  0  0  0  0
    2.6540   -1.1830    2.1420 H   0  0  0  0  0  0  0  0  0  0  0  0
    2.8820    1.2100    0.2650 H   0  0  0  0  0  0  0  0  0  0  0  0
    3.2740    1.1840    2.0600 H   0  0  0  0  0  0  0  0  0  0  0  0
    4.3260   -0.0390   -1.2760 H   0  0  0  0  0  0  0  0  0  0  0  0
    6.5370   -0.9630   -1.7270 H   0  0  0  0  0  0  0  0  0  0  0  0
    8.0680   -1.4350    0.1780 H   0  0  0  0  0  0  0  0  0  0  0  0
    7.3700   -0.9810    2.4510 H   0  0  0  0  0  0  0  0  0  0  0  0
    5.1030   -0.0360    2.8800 H   0  0  0  0  0  0  0  0  0  0  0  0
   -2.3330    5.2330   -2.1710 N   0  0  0  0  0  0  0  0  0  0  0  0
   -2.9500    3.9760   -2.3820 C   0  0  0  0  0  0  0  0  0  0  0  0
   -3.9550    3.8480   -3.2120 N   0  0  0  0  0  0  0  0  0  0  0  0
   -2.4360    2.8680   -1.6610 N   0  0  0  0  0  0  0  0  0  0  0  0
   -3.2270    1.6670   -1.5690 C   0  0  0  0  0  0  0  0  0  0  0  0
   -2.5320    0.5860   -0.7670 C   0  0  0  0  0  0  0  0  0  0  0  0
   -2.2760    1.0820    0.6160 C   0  0  0  0  0  0  0  0  0  0  0  0
   -1.5920    0.1160    1.5160 C   0  0  2  0  0  0  0  0  0  0  0  0
   -0.3040   -0.3280    1.0990 N   0  0  0  0  0  0  0  0  0  0  0  0
   -2.4150   -1.0510    1.8980 C   0  0  0  0  0  0  0  0  0  0  0  0
   -3.6020   -0.9630    2.3110 O   0  0  0  0  0  0  0  0  0  0  0  0
   -1.5370    5.5020   -2.7780 H   0  0  0  0  0  0  0  0  0  0  0  0
   -2.6760    5.8650   -1.4260 H   0  0  0  0  0  0  0  0  0  0  0  0
   -4.2840    4.7030   -3.7100 H   0  0  0  0  0  0  0  0  0  0  0  0
   -1.5020    2.9020   -1.1970 H   0  0  0  0  0  0  0  0  0  0  0  0
   -3.4740    1.2830   -2.6010 H   0  0  0  0  0  0  0  0  0  0  0  0
   -4.2050    1.9460   -1.1250 H   0  0  0  0  0  0  0  0  0  0  0  0
   -1.6790    0.1790   -1.2960 H   0  0  0  0  0  0  0  0  0  0  0  0
   -3.2920   -0.2450   -0.6780 H   0  0  0  0  0  0  0  0  0  0  0  0
   -3.2790    1.2920    1.0570 H   0  0  0  0  0  0  0  0  0  0  0  0
   -1.7380    2.0470    0.6620 H   0  0  0  0  0  0  0  0  0  0  0  0
   -1.4100    0.6780    2.4850 H   0  0  0  0  0  0  0  0  0  0  0  0
   -0.2520   -0.8920    0.2040 H   0  0  0  0  0  0  0  0  0  0  0  0
   -3.5470   -3.5960   -0.1220 C   0  0  0  0  0  0  0  0  0  0  0  0
   -2.8270   -4.3940    0.9270 C   0  0  0  0  0  0  0  0  0  0  0  0
   -1.5420   -4.9250    0.3880 C   0  0  0  0  0  0  0  0  0  0  0  0
   -2.6490   -3.5380    2.1760 C   0  0  2  0  0  0  0  0  0  0  0  0
   -1.8640   -2.3600    1.8050 N   0  0  0  0  0  0  0  0  0  0  0  0
   -1.8830   -4.3690    3.1420 C   0  0  0  0  0  0  0  0  0  0  0  0
   -0.7400   -3.9880    3.4970 O   0  0  0  0  0  0  0  0  0  0  0  0
   -2.3530   -5.5410    3.6760 O   0  0  0  0  0  0  0  0  0  0  0  0
   -4.6470   -3.7000   -0.0310 H   0  0  0  0  0  0  0  0  0  0  0  0
   -3.2330   -3.9760   -1.1190 H   0  0  0  0  0  0  0  0  0  0  0  0
   -3.1990   -2.5570   -0.0490 H   0  0  0  0  0  0  0  0  0  0  0  0
   -3.4760   -5.2620    1.1860 H   0  0  0  0  0  0  0  0  0  0  0  0
   -1.2470   -5.9090    0.8110 H   0  0  0  0  0  0  0  0  0  0  0  0
   -0.6810   -4.2650    0.4750 H   0  0  0  0  0  0  0  0  0  0  0  0
   -1.6960   -5.0850   -0.7190 H   0  0  0  0  0  0  0  0  0  0  0  0
   -3.6490   -3.2680    2.5210 H   0  0  0  0  0  0  0  0  0  0  0  0
   -0.8730   -2.4950    1.4650 H   0  0  0  0  0  0  0  0  0  0  0  0
  1 13  1  0  0  0  0
  1  2  1  0  0  0  0
  2 10  1  0  0  0  0
  2 14  1  1  0  0  0
  3  2  1  0  0  0  0
  3 16  1  0  0  0  0
  4  3  1  0  0  0  0
  4  9  1  0  0  0  0
  5  4  2  0  0  0  0
  6  5  1  0  0  0  0
  6  7  2  0  0  0  0
  7  8  1  0  0  0  0
  8  9  2  0  0  0  0
  8 20  1  0  0  0  0
  9 21  1  0  0  0  0
 10 11  2  0  0  0  0
 12  1  1  0  0  0  0
 15  3  1  0  0  0  0
 17  5  1  0  0  0  0
 18  6  1  0  0  0  0
 19  7  1  0  0  0  0
 22 34  1  0  0  0  0
 23 22  1  0  0  0  0
 23 25  1  0  0  0  0
 24 23  2  0  0  0  0
 25 26  1  0  0  0  0
 25 36  1  0  0  0  0
 26 38  1  0  0  0  0
 26 27  1  0  0  0  0
 27 40  1  0  0  0  0
 27 28  1  0  0  0  0
 28 42  1  0  0  0  0
 28 41  1  0  0  0  0
 28 29  1  0  0  0  0
 29 31  1  0  0  0  0
 29 43  1  1  0  0  0
 30 29  1  0  0  0  0
 30 10  1  0  0  0  0
 31 32  2  0  0  0  0
 33 22  1  0  0  0  0
 35 24  1  0  0  0  0
 37 26  1  0  0  0  0
 39 27  1  0  0  0  0
 44 30  1  0  0  0  0
 45 55  1  0  0  0  0
 45 53  1  0  0  0  0
 45 46  1  0  0  0  0
 46 56  1  0  0  0  0
 46 48  1  0  0  0  0
 47 58  1  0  0  0  0
 47 57  1  0  0  0  0
 47 46  1  0  0  0  0
 48 60  1  1  0  0  0
 48 50  1  0  0  0  0
 49 31  1  0  0  0  0
 49 48  1  0  0  0  0
 50 51  2  0  0  0  0
 50 52  1  0  0  0  0
 54 45  1  0  0  0  0
 59 47  1  0  0  0  0
 61 49  1  0  0  0  0
M  END
$$$$
