FSE.pdb
 OpenBabel07022419013D

 49 49  0  0  1  0  0  0  0  0999 V2000
    2.8520   -1.8840    4.7800 N   0  0  0  0  0  0  0  0  0  0  0  0
    2.4990   -1.4280    3.4060 C   0  0  1  0  0  0  0  0  0  0  0  0
    2.8140   -2.5590    2.5210 C   0  0  0  0  0  0  0  0  0  0  0  0
    2.5940   -2.3970    1.0760 C   0  0  0  0  0  0  0  0  0  0  0  0
    1.4510   -2.7990    0.4320 C   0  0  0  0  0  0  0  0  0  0  0  0
    1.3480   -2.6310   -0.9230 C   0  0  0  0  0  0  0  0  0  0  0  0
    2.3320   -2.0720   -1.7140 C   0  0  0  0  0  0  0  0  0  0  0  0
    3.4730   -1.6750   -1.0400 C   0  0  0  0  0  0  0  0  0  0  0  0
    3.6180   -1.8240    0.3100 C   0  0  0  0  0  0  0  0  0  0  0  0
    1.1380   -0.9150    3.4480 C   0  0  0  0  0  0  0  0  0  0  0  0
    0.4220   -1.1520    4.4960 O   0  0  0  0  0  0  0  0  0  0  0  0
    3.8870   -1.9650    4.8430 H   0  0  0  0  0  0  0  0  0  0  0  0
    2.5550   -1.1440    5.4670 H   0  0  0  0  0  0  0  0  0  0  0  0
    3.1930   -0.5700    3.2040 H   0  0  0  0  0  0  0  0  0  0  0  0
    2.2120   -3.4420    2.8760 H   0  0  0  0  0  0  0  0  0  0  0  0
    3.8850   -2.8830    2.6480 H   0  0  0  0  0  0  0  0  0  0  0  0
    0.6490   -3.2460    1.0300 H   0  0  0  0  0  0  0  0  0  0  0  0
    0.4490   -2.9470   -1.4430 H   0  0  0  0  0  0  0  0  0  0  0  0
    2.1950   -1.9640   -2.7800 H   0  0  0  0  0  0  0  0  0  0  0  0
    4.2570   -1.2340   -1.6490 H   0  0  0  0  0  0  0  0  0  0  0  0
    4.5350   -1.5000    0.8260 H   0  0  0  0  0  0  0  0  0  0  0  0
   -2.0780    2.2080    3.1590 O   0  0  0  0  0  0  0  0  0  0  0  0
   -0.7520    1.8140    2.9860 C   0  0  0  0  0  0  0  0  0  0  0  0
   -0.8050    0.3210    2.5920 C   0  0  2  0  0  0  0  0  0  0  0  0
    0.5440   -0.1530    2.4000 N   0  0  0  0  0  0  0  0  0  0  0  0
   -1.7480    0.1050    1.5070 C   0  0  0  0  0  0  0  0  0  0  0  0
   -2.9710    0.4720    1.6840 O   0  0  0  0  0  0  0  0  0  0  0  0
   -2.1450    3.1960    3.2450 H   0  0  0  0  0  0  0  0  0  0  0  0
   -0.2150    2.4070    2.2380 H   0  0  0  0  0  0  0  0  0  0  0  0
   -0.2750    1.8280    3.9860 H   0  0  0  0  0  0  0  0  0  0  0  0
   -1.2170   -0.1610    3.5010 H   0  0  0  0  0  0  0  0  0  0  0  0
    1.1080    0.0220    1.5540 H   0  0  0  0  0  0  0  0  0  0  0  0
   -1.5110   -0.4680    0.2400 N   0  0  0  0  0  0  0  0  0  0  0  0
   -2.5270   -0.6360   -0.7680 C   0  0  1  0  0  0  0  0  0  0  0  0
   -2.1620    0.0090   -2.0750 C   0  0  0  0  0  0  0  0  0  0  0  0
   -1.9470    1.5100   -1.9180 C   0  0  0  0  0  0  0  0  0  0  0  0
   -1.5950    2.0270   -3.2660 C   0  0  0  0  0  0  0  0  0  0  0  0
   -1.5160    1.2960   -4.2850 O   0  0  0  0  0  0  0  0  0  0  0  0
   -2.7360   -2.0840   -0.9780 C   0  0  0  0  0  0  0  0  0  0  0  0
   -3.5450   -2.5600   -1.8030 O   0  0  0  0  0  0  0  0  0  0  0  0
   -1.3430    3.3680   -3.4130 O   0  0  0  0  0  0  0  0  0  0  0  0
   -2.0010   -2.9830   -0.2260 O   0  0  0  0  0  0  0  0  0  0  0  0
   -0.5340   -0.7690    0.0500 H   0  0  0  0  0  0  0  0  0  0  0  0
   -3.5070   -0.2180   -0.4560 H   0  0  0  0  0  0  0  0  0  0  0  0
   -2.9590   -0.1290   -2.8300 H   0  0  0  0  0  0  0  0  0  0  0  0
   -1.2490   -0.4610   -2.4890 H   0  0  0  0  0  0  0  0  0  0  0  0
   -2.8910    2.0050   -1.6260 H   0  0  0  0  0  0  0  0  0  0  0  0
   -1.1750    1.7260   -1.1630 H   0  0  0  0  0  0  0  0  0  0  0  0
   -1.5350    3.8810   -4.2830 H   0  0  0  0  0  0  0  0  0  0  0  0
  1 12  1  0  0  0  0
  1 13  1  0  0  0  0
  2 14  1  6  0  0  0
  2 10  1  0  0  0  0
  2  1  1  0  0  0  0
  3 16  1  0  0  0  0
  3 15  1  0  0  0  0
  3  2  1  0  0  0  0
  4  3  1  0  0  0  0
  5 17  1  0  0  0  0
  5  4  1  0  0  0  0
  6  5  2  0  0  0  0
  7  8  2  0  0  0  0
  7  6  1  0  0  0  0
  8  9  1  0  0  0  0
  9 21  1  0  0  0  0
  9  4  2  0  0  0  0
 10 11  2  0  0  0  0
 18  6  1  0  0  0  0
 19  7  1  0  0  0  0
 20  8  1  0  0  0  0
 22 28  1  0  0  0  0
 23 22  1  0  0  0  0
 23 30  1  0  0  0  0
 24 23  1  0  0  0  0
 24 31  1  1  0  0  0
 25 24  1  0  0  0  0
 25 10  1  0  0  0  0
 26 27  2  0  0  0  0
 26 24  1  0  0  0  0
 29 23  1  0  0  0  0
 32 25  1  0  0  0  0
 33 26  1  0  0  0  0
 34 44  1  1  0  0  0
 34 33  1  0  0  0  0
 35 36  1  0  0  0  0
 35 34  1  0  0  0  0
 36 47  1  0  0  0  0
 36 48  1  0  0  0  0
 37 36  1  0  0  0  0
 38 37  2  0  0  0  0
 39 34  1  0  0  0  0
 39 42  1  0  0  0  0
 40 39  2  0  0  0  0
 41 37  1  0  0  0  0
 43 33  1  0  0  0  0
 45 35  1  0  0  0  0
 46 35  1  0  0  0  0
 49 41  1  0  0  0  0
M  END
$$$$
