FSG.pdb
 OpenBabel07022419013D

 40 40  0  0  1  0  0  0  0  0999 V2000
    0.0920   -3.3720    0.4970 N   0  0  0  0  0  0  0  0  0  0  0  0
    1.1390   -2.3480    0.4450 C   0  0  1  0  0  0  0  0  0  0  0  0
    1.9520   -2.4850   -0.8180 C   0  0  0  0  0  0  0  0  0  0  0  0
    2.9960   -1.4690   -0.8790 C   0  0  0  0  0  0  0  0  0  0  0  0
    4.2070   -1.7550   -0.2640 C   0  0  0  0  0  0  0  0  0  0  0  0
    5.2390   -0.8450   -0.3010 C   0  0  0  0  0  0  0  0  0  0  0  0
    5.0980    0.3670   -0.9450 C   0  0  0  0  0  0  0  0  0  0  0  0
    3.9070    0.6790   -1.5640 C   0  0  0  0  0  0  0  0  0  0  0  0
    2.8900   -0.2490   -1.5130 C   0  0  0  0  0  0  0  0  0  0  0  0
    0.5790   -1.0030    0.5650 C   0  0  0  0  0  0  0  0  0  0  0  0
    1.2830    0.0320    0.6530 O   0  0  0  0  0  0  0  0  0  0  0  0
    0.5580   -4.3040    0.5800 H   0  0  0  0  0  0  0  0  0  0  0  0
   -0.4300   -3.1730    1.4000 H   0  0  0  0  0  0  0  0  0  0  0  0
    1.8360   -2.6050    1.2920 H   0  0  0  0  0  0  0  0  0  0  0  0
    1.2870   -2.4320   -1.7200 H   0  0  0  0  0  0  0  0  0  0  0  0
    2.4290   -3.4940   -0.7660 H   0  0  0  0  0  0  0  0  0  0  0  0
    4.3420   -2.7070    0.2500 H   0  0  0  0  0  0  0  0  0  0  0  0
    6.2070   -1.0410    0.1740 H   0  0  0  0  0  0  0  0  0  0  0  0
    5.9480    1.0650   -0.9490 H   0  0  0  0  0  0  0  0  0  0  0  0
    3.8440    1.6380   -2.0540 H   0  0  0  0  0  0  0  0  0  0  0  0
    1.9510   -0.0130   -2.0000 H   0  0  0  0  0  0  0  0  0  0  0  0
   -1.7250    0.8950   -1.6600 O   0  0  0  0  0  0  0  0  0  0  0  0
   -2.3340    0.9240   -0.4180 C   0  0  0  0  0  0  0  0  0  0  0  0
   -1.3990    0.5600    0.7090 C   0  0  2  0  0  0  0  0  0  0  0  0
   -0.8440   -0.7510    0.5920 N   0  0  0  0  0  0  0  0  0  0  0  0
   -2.1960    0.6610    1.9580 C   0  0  0  0  0  0  0  0  0  0  0  0
   -2.7950    1.7080    2.3050 O   0  0  0  0  0  0  0  0  0  0  0  0
   -2.1400    1.5470   -2.2580 H   0  0  0  0  0  0  0  0  0  0  0  0
   -3.2530    0.3140   -0.3880 H   0  0  0  0  0  0  0  0  0  0  0  0
   -2.6470    1.9800   -0.2390 H   0  0  0  0  0  0  0  0  0  0  0  0
   -0.6230    1.3580    0.7770 H   0  0  0  0  0  0  0  0  0  0  0  0
   -1.4470   -1.5990    0.5200 H   0  0  0  0  0  0  0  0  0  0  0  0
   -2.2930   -0.4670    2.8010 N   0  0  0  0  0  0  0  0  0  0  0  0
   -3.0630   -0.3890    4.0170 C   0  0  0  0  0  0  0  0  0  0  0  0
   -2.5700    0.6360    4.9420 C   0  0  0  0  0  0  0  0  0  0  0  0
   -3.1420    0.8140    6.0360 O   0  0  0  0  0  0  0  0  0  0  0  0
   -1.4770    1.4000    4.6010 O   0  0  0  0  0  0  0  0  0  0  0  0
   -1.8220   -1.3620    2.5690 H   0  0  0  0  0  0  0  0  0  0  0  0
   -4.1280   -0.1990    3.7250 H   0  0  0  0  0  0  0  0  0  0  0  0
   -3.0660   -1.3580    4.5580 H   0  0  0  0  0  0  0  0  0  0  0  0
  1 12  1  0  0  0  0
  1 13  1  0  0  0  0
  2  1  1  0  0  0  0
  2 10  1  0  0  0  0
  2 14  1  1  0  0  0
  3 16  1  0  0  0  0
  3  2  1  0  0  0  0
  4  3  1  0  0  0  0
  4  5  1  0  0  0  0
  5 17  1  0  0  0  0
  6  5  2  0  0  0  0
  6 18  1  0  0  0  0
  7  6  1  0  0  0  0
  8  9  1  0  0  0  0
  8  7  2  0  0  0  0
  9  4  2  0  0  0  0
 10 25  1  0  0  0  0
 10 11  2  0  0  0  0
 15  3  1  0  0  0  0
 19  7  1  0  0  0  0
 20  8  1  0  0  0  0
 21  9  1  0  0  0  0
 22 23  1  0  0  0  0
 23 29  1  0  0  0  0
 23 30  1  0  0  0  0
 23 24  1  0  0  0  0
 24 31  1  1  0  0  0
 24 26  1  0  0  0  0
 25 24  1  0  0  0  0
 26 27  2  0  0  0  0
 26 33  1  0  0  0  0
 28 22  1  0  0  0  0
 32 25  1  0  0  0  0
 33 34  1  0  0  0  0
 34 40  1  0  0  0  0
 34 35  1  0  0  0  0
 35 36  1  0  0  0  0
 37 35  2  0  0  0  0
 38 33  1  0  0  0  0
 39 34  1  0  0  0  0
M  END
$$$$
