FSH.pdb
 OpenBabel07022419013D

 50 51  0  0  1  0  0  0  0  0999 V2000
    3.6940    0.8510    0.4450 N   0  0  0  0  0  0  0  0  0  0  0  0
    2.5190    0.2010   -0.1060 C   0  0  1  0  0  0  0  0  0  0  0  0
    1.9680   -0.7420    0.9620 C   0  0  0  0  0  0  0  0  0  0  0  0
    2.9680   -1.7580    1.3350 C   0  0  0  0  0  0  0  0  0  0  0  0
    3.8430   -1.4600    2.3810 C   0  0  0  0  0  0  0  0  0  0  0  0
    4.7680   -2.4180    2.7170 C   0  0  0  0  0  0  0  0  0  0  0  0
    4.8650   -3.6260    2.0820 C   0  0  0  0  0  0  0  0  0  0  0  0
    3.9900   -3.8960    1.0530 C   0  0  0  0  0  0  0  0  0  0  0  0
    3.0520   -2.9740    0.6820 C   0  0  0  0  0  0  0  0  0  0  0  0
    1.4860    1.2100   -0.4570 C   0  0  0  0  0  0  0  0  0  0  0  0
    1.7380    2.4370   -0.2560 O   0  0  0  0  0  0  0  0  0  0  0  0
    3.7650    1.8310    0.1440 H   0  0  0  0  0  0  0  0  0  0  0  0
    4.5670    0.3220    0.3120 H   0  0  0  0  0  0  0  0  0  0  0  0
    2.8560   -0.3820   -0.9760 H   0  0  0  0  0  0  0  0  0  0  0  0
    1.0550   -1.2380    0.5520 H   0  0  0  0  0  0  0  0  0  0  0  0
    1.6870   -0.1780    1.8660 H   0  0  0  0  0  0  0  0  0  0  0  0
    3.7630   -0.5050    2.8800 H   0  0  0  0  0  0  0  0  0  0  0  0
    5.4520   -2.1810    3.5360 H   0  0  0  0  0  0  0  0  0  0  0  0
    5.6180   -4.3580    2.3820 H   0  0  0  0  0  0  0  0  0  0  0  0
    4.0930   -4.8610    0.5700 H   0  0  0  0  0  0  0  0  0  0  0  0
    2.3690   -3.2000   -0.1300 H   0  0  0  0  0  0  0  0  0  0  0  0
    0.0540    2.1580   -3.5290 O   0  0  0  0  0  0  0  0  0  0  0  0
   -1.1080    1.8580   -2.8230 C   0  0  0  0  0  0  0  0  0  0  0  0
   -0.7790    1.8570   -1.3510 C   0  0  2  0  0  0  0  0  0  0  0  0
    0.2290    0.8850   -1.0070 N   0  0  0  0  0  0  0  0  0  0  0  0
   -1.9840    1.6620   -0.5100 C   0  0  0  0  0  0  0  0  0  0  0  0
   -2.9540    2.4450   -0.6990 O   0  0  0  0  0  0  0  0  0  0  0  0
    0.0560    3.0780   -3.9080 H   0  0  0  0  0  0  0  0  0  0  0  0
   -1.7950    2.7300   -2.9860 H   0  0  0  0  0  0  0  0  0  0  0  0
   -1.6120    0.9510   -3.1560 H   0  0  0  0  0  0  0  0  0  0  0  0
   -0.3740    2.8600   -1.1070 H   0  0  0  0  0  0  0  0  0  0  0  0
    0.0140   -0.1210   -1.1760 H   0  0  0  0  0  0  0  0  0  0  0  0
   -2.1010    0.6530    0.4840 N   0  0  0  0  0  0  0  0  0  0  0  0
   -3.2950    0.5070    1.2740 C   0  0  1  0  0  0  0  0  0  0  0  0
   -3.9920   -0.8080    1.0470 C   0  0  0  0  0  0  0  0  0  0  0  0
   -3.1690   -1.9740    1.3710 C   0  0  0  0  0  0  0  0  0  0  0  0
   -3.6250   -3.2730    1.2270 C   0  0  0  0  0  0  0  0  0  0  0  0
   -2.6530   -4.0990    1.5970 N   0  0  0  0  0  0  0  0  0  0  0  0
   -1.5800   -3.3830    1.9760 C   0  0  0  0  0  0  0  0  0  0  0  0
   -1.9140   -2.0940    1.8310 N   0  0  0  0  0  0  0  0  0  0  0  0
   -3.0330    0.7660    2.7210 C   0  0  0  0  0  0  0  0  0  0  0  0
   -1.8860    1.0680    3.1380 O   0  0  0  0  0  0  0  0  0  0  0  0
   -4.0350    0.6860    3.6750 O   0  0  0  0  0  0  0  0  0  0  0  0
   -1.2580    0.0300    0.5940 H   0  0  0  0  0  0  0  0  0  0  0  0
   -4.0040    1.2970    0.9490 H   0  0  0  0  0  0  0  0  0  0  0  0
   -4.3420   -0.8390    0.0070 H   0  0  0  0  0  0  0  0  0  0  0  0
   -4.8840   -0.8210    1.7040 H   0  0  0  0  0  0  0  0  0  0  0  0
   -4.6020   -3.6100    0.8770 H   0  0  0  0  0  0  0  0  0  0  0  0
   -2.6960   -5.1520    1.6010 H   0  0  0  0  0  0  0  0  0  0  0  0
   -0.6570   -3.8340    2.3220 H   0  0  0  0  0  0  0  0  0  0  0  0
  2 14  1  6  0  0  0
  2  1  1  0  0  0  0
  2  3  1  0  0  0  0
  3  4  1  0  0  0  0
  3 16  1  0  0  0  0
  4  5  1  0  0  0  0
  5  6  2  0  0  0  0
  5 17  1  0  0  0  0
  6 18  1  0  0  0  0
  7 19  1  0  0  0  0
  7  6  1  0  0  0  0
  8  7  2  0  0  0  0
  9  8  1  0  0  0  0
  9  4  2  0  0  0  0
 10 11  2  0  0  0  0
 10  2  1  0  0  0  0
 12  1  1  0  0  0  0
 13  1  1  0  0  0  0
 15  3  1  0  0  0  0
 20  8  1  0  0  0  0
 21  9  1  0  0  0  0
 22 23  1  0  0  0  0
 23 24  1  0  0  0  0
 24 31  1  1  0  0  0
 24 25  1  0  0  0  0
 24 26  1  0  0  0  0
 25 10  1  0  0  0  0
 26 33  1  0  0  0  0
 27 26  2  0  0  0  0
 28 22  1  0  0  0  0
 29 23  1  0  0  0  0
 30 23  1  0  0  0  0
 32 25  1  0  0  0  0
 33 44  1  0  0  0  0
 33 34  1  0  0  0  0
 34 45  1  6  0  0  0
 34 41  1  0  0  0  0
 35 34  1  0  0  0  0
 35 36  1  0  0  0  0
 35 47  1  0  0  0  0
 36 40  1  0  0  0  0
 37 36  2  0  0  0  0
 37 38  1  0  0  0  0
 38 49  1  0  0  0  0
 38 39  1  0  0  0  0
 39 50  1  0  0  0  0
 40 39  2  0  0  0  0
 41 42  2  0  0  0  0
 41 43  1  0  0  0  0
 46 35  1  0  0  0  0
 48 37  1  0  0  0  0
M  END
$$$$
