FSI.pdb
 OpenBabel07022419013D

 52 52  0  0  1  0  0  0  0  0999 V2000
    1.5890   -2.2240   -1.0760 N   0  0  0  0  0  0  0  0  0  0  0  0
    2.2810   -1.5530    0.0170 C   0  0  1  0  0  0  0  0  0  0  0  0
    3.6330   -1.1430   -0.5080 C   0  0  0  0  0  0  0  0  0  0  0  0
    4.4640   -0.4450    0.4890 C   0  0  0  0  0  0  0  0  0  0  0  0
    4.4500    0.9270    0.6410 C   0  0  0  0  0  0  0  0  0  0  0  0
    5.2370    1.5560    1.5820 C   0  0  0  0  0  0  0  0  0  0  0  0
    6.0660    0.8250    2.4040 C   0  0  0  0  0  0  0  0  0  0  0  0
    6.0790   -0.5460    2.2520 C   0  0  0  0  0  0  0  0  0  0  0  0
    5.2980   -1.1840    1.3150 C   0  0  0  0  0  0  0  0  0  0  0  0
    1.4860   -0.4320    0.5550 C   0  0  0  0  0  0  0  0  0  0  0  0
    1.9300    0.2280    1.5130 O   0  0  0  0  0  0  0  0  0  0  0  0
    1.4520   -1.6050   -1.9020 H   0  0  0  0  0  0  0  0  0  0  0  0
    0.7600   -2.7470   -0.7760 H   0  0  0  0  0  0  0  0  0  0  0  0
    2.4200   -2.3130    0.8150 H   0  0  0  0  0  0  0  0  0  0  0  0
    4.1640   -2.0740   -0.7880 H   0  0  0  0  0  0  0  0  0  0  0  0
    3.5010   -0.5630   -1.4470 H   0  0  0  0  0  0  0  0  0  0  0  0
    3.8080    1.5480    0.0100 H   0  0  0  0  0  0  0  0  0  0  0  0
    5.2230    2.6270    1.6980 H   0  0  0  0  0  0  0  0  0  0  0  0
    6.6890    1.3080    3.1480 H   0  0  0  0  0  0  0  0  0  0  0  0
    6.7460   -1.1200    2.9140 H   0  0  0  0  0  0  0  0  0  0  0  0
    5.3430   -2.2730    1.2320 H   0  0  0  0  0  0  0  0  0  0  0  0
    0.5100    2.6220   -0.8200 O   0  0  0  0  0  0  0  0  0  0  0  0
   -0.7540    2.1360   -0.4700 C   0  0  0  0  0  0  0  0  0  0  0  0
   -0.5700    1.0160    0.5260 C   0  0  2  0  0  0  0  0  0  0  0  0
    0.2030   -0.0700    0.0080 N   0  0  0  0  0  0  0  0  0  0  0  0
   -1.8610    0.5800    1.1160 C   0  0  0  0  0  0  0  0  0  0  0  0
   -2.6160    1.4590    1.6000 O   0  0  0  0  0  0  0  0  0  0  0  0
    1.0750    2.6000    0.0110 H   0  0  0  0  0  0  0  0  0  0  0  0
   -1.2380    1.8200   -1.4050 H   0  0  0  0  0  0  0  0  0  0  0  0
   -1.2930    2.9680   -0.0050 H   0  0  0  0  0  0  0  0  0  0  0  0
    0.0140    1.4640    1.3820 H   0  0  0  0  0  0  0  0  0  0  0  0
   -0.1130   -0.6650   -0.7960 H   0  0  0  0  0  0  0  0  0  0  0  0
   -3.0470   -2.6850   -1.0400 C   0  0  0  0  0  0  0  0  0  0  0  0
   -4.1610   -2.8480   -0.0730 C   0  0  0  0  0  0  0  0  0  0  0  0
   -4.5290   -1.6690    0.7430 C   0  0  2  0  0  0  0  0  0  0  0  0
   -4.9340   -0.5350   -0.1920 C   0  0  0  0  0  0  0  0  0  0  0  0
   -3.5660   -1.1700    1.7500 C   0  0  2  0  0  0  0  0  0  0  0  0
   -2.3040   -0.7650    1.1710 N   0  0  0  0  0  0  0  0  0  0  0  0
   -3.3110   -2.0720    2.8730 C   0  0  0  0  0  0  0  0  0  0  0  0
   -2.1300   -2.3670    3.1800 O   0  0  0  0  0  0  0  0  0  0  0  0
   -4.3080   -2.6480    3.6550 O   0  0  0  0  0  0  0  0  0  0  0  0
   -3.3750   -3.1340   -2.0270 H   0  0  0  0  0  0  0  0  0  0  0  0
   -2.1110   -3.2120   -0.7720 H   0  0  0  0  0  0  0  0  0  0  0  0
   -2.8930   -1.6180   -1.2540 H   0  0  0  0  0  0  0  0  0  0  0  0
   -4.0480   -3.7860    0.5560 H   0  0  0  0  0  0  0  0  0  0  0  0
   -5.0920   -3.0960   -0.6700 H   0  0  0  0  0  0  0  0  0  0  0  0
   -5.5170   -1.9490    1.2420 H   0  0  0  0  0  0  0  0  0  0  0  0
   -5.6620    0.1430    0.3290 H   0  0  0  0  0  0  0  0  0  0  0  0
   -4.0570    0.0020   -0.5740 H   0  0  0  0  0  0  0  0  0  0  0  0
   -5.4830   -0.9820   -1.0430 H   0  0  0  0  0  0  0  0  0  0  0  0
   -4.0810   -0.2640    2.2190 H   0  0  0  0  0  0  0  0  0  0  0  0
   -1.6660   -1.4820    0.7750 H   0  0  0  0  0  0  0  0  0  0  0  0
  1 13  1  0  0  0  0
  1  2  1  0  0  0  0
  2 10  1  0  0  0  0
  2 14  1  1  0  0  0
  3  2  1  0  0  0  0
  3  4  1  0  0  0  0
  4  5  2  0  0  0  0
  4  9  1  0  0  0  0
  5  6  1  0  0  0  0
  6 18  1  0  0  0  0
  6  7  2  0  0  0  0
  7 19  1  0  0  0  0
  8  7  1  0  0  0  0
  8 20  1  0  0  0  0
  9  8  2  0  0  0  0
 10 11  2  0  0  0  0
 12  1  1  0  0  0  0
 15  3  1  0  0  0  0
 16  3  1  0  0  0  0
 17  5  1  0  0  0  0
 21  9  1  0  0  0  0
 22 23  1  0  0  0  0
 22 28  1  0  0  0  0
 23 30  1  0  0  0  0
 23 24  1  0  0  0  0
 24 26  1  0  0  0  0
 24 31  1  1  0  0  0
 25 24  1  0  0  0  0
 25 10  1  0  0  0  0
 26 38  1  0  0  0  0
 26 27  2  0  0  0  0
 29 23  1  0  0  0  0
 32 25  1  0  0  0  0
 33 43  1  0  0  0  0
 33 34  1  0  0  0  0
 34 45  1  0  0  0  0
 34 35  1  0  0  0  0
 35 47  1  1  0  0  0
 35 37  1  0  0  0  0
 36 48  1  0  0  0  0
 36 35  1  0  0  0  0
 37 51  1  1  0  0  0
 37 39  1  0  0  0  0
 38 37  1  0  0  0  0
 39 40  2  0  0  0  0
 39 41  1  0  0  0  0
 42 33  1  0  0  0  0
 44 33  1  0  0  0  0
 46 34  1  0  0  0  0
 49 36  1  0  0  0  0
 50 36  1  0  0  0  0
 52 38  1  0  0  0  0
M  END
$$$$
