FSP.pdb
 OpenBabel07022419013D

 47 48  0  0  1  0  0  0  0  0999 V2000
    4.6320   -1.0620    1.3560 N   0  0  0  0  0  0  0  0  0  0  0  0
    3.3110   -0.6550    0.7600 C   0  0  1  0  0  0  0  0  0  0  0  0
    3.2140   -1.5040   -0.4500 C   0  0  0  0  0  0  0  0  0  0  0  0
    2.0570   -1.4080   -1.3080 C   0  0  0  0  0  0  0  0  0  0  0  0
    1.0060   -2.2930   -1.0950 C   0  0  0  0  0  0  0  0  0  0  0  0
   -0.1130   -2.2790   -1.8800 C   0  0  0  0  0  0  0  0  0  0  0  0
   -0.2590   -1.3860   -2.9230 C   0  0  0  0  0  0  0  0  0  0  0  0
    0.7810   -0.5130   -3.1300 C   0  0  0  0  0  0  0  0  0  0  0  0
    1.9170   -0.5090   -2.3520 C   0  0  0  0  0  0  0  0  0  0  0  0
    2.3470   -0.8910    1.8350 C   0  0  0  0  0  0  0  0  0  0  0  0
    2.5480   -1.8680    2.6240 O   0  0  0  0  0  0  0  0  0  0  0  0
    4.8250   -0.4060    2.1270 H   0  0  0  0  0  0  0  0  0  0  0  0
    4.5550   -2.0280    1.7270 H   0  0  0  0  0  0  0  0  0  0  0  0
    3.4470    0.3990    0.5200 H   0  0  0  0  0  0  0  0  0  0  0  0
    3.3530   -2.6010   -0.1910 H   0  0  0  0  0  0  0  0  0  0  0  0
    4.1350   -1.2950   -1.0710 H   0  0  0  0  0  0  0  0  0  0  0  0
    1.0440   -3.0320   -0.2880 H   0  0  0  0  0  0  0  0  0  0  0  0
   -0.9160   -2.9810   -1.6920 H   0  0  0  0  0  0  0  0  0  0  0  0
   -1.1510   -1.3950   -3.5290 H   0  0  0  0  0  0  0  0  0  0  0  0
    0.6790    0.1950   -3.9470 H   0  0  0  0  0  0  0  0  0  0  0  0
    2.7420    0.1940   -2.5270 H   0  0  0  0  0  0  0  0  0  0  0  0
    1.7790    0.6250    4.7610 O   0  0  0  0  0  0  0  0  0  0  0  0
    0.5090    0.7050    4.2490 C   0  0  0  0  0  0  0  0  0  0  0  0
    0.2970   -0.3100    3.0990 C   0  0  2  0  0  0  0  0  0  0  0  0
    1.2000   -0.0700    2.0430 N   0  0  0  0  0  0  0  0  0  0  0  0
   -1.1280   -0.3070    2.8460 C   0  0  0  0  0  0  0  0  0  0  0  0
   -1.8270   -0.4450    3.9610 O   0  0  0  0  0  0  0  0  0  0  0  0
    2.4540    0.8900    4.0620 H   0  0  0  0  0  0  0  0  0  0  0  0
    0.2730    1.7280    3.9070 H   0  0  0  0  0  0  0  0  0  0  0  0
   -0.2090    0.4540    5.0570 H   0  0  0  0  0  0  0  0  0  0  0  0
    0.6240   -1.2880    3.6000 H   0  0  0  0  0  0  0  0  0  0  0  0
    1.0900    0.7300    1.3950 H   0  0  0  0  0  0  0  0  0  0  0  0
   -1.8320   -0.1820    1.6470 N   0  0  0  0  0  0  0  0  0  0  0  0
   -1.4790   -0.0700    0.2700 C   0  0  0  0  0  0  0  0  0  0  0  0
   -2.2830    1.2030   -0.0950 C   0  0  0  0  0  0  0  0  0  0  0  0
   -3.5820    0.9970    0.6580 C   0  0  0  0  0  0  0  0  0  0  0  0
   -3.3080   -0.1080    1.6210 C   0  0  1  0  0  0  0  0  0  0  0  0
   -3.8190   -1.3960    1.1620 C   0  0  0  0  0  0  0  0  0  0  0  0
   -3.0960   -2.4040    0.9950 O   0  0  0  0  0  0  0  0  0  0  0  0
   -5.1820   -1.6000    0.8690 O   0  0  0  0  0  0  0  0  0  0  0  0
   -2.0160   -0.9000   -0.2760 H   0  0  0  0  0  0  0  0  0  0  0  0
   -0.4510    0.0120   -0.0130 H   0  0  0  0  0  0  0  0  0  0  0  0
   -1.6900    2.0450    0.2860 H   0  0  0  0  0  0  0  0  0  0  0  0
   -2.4140    1.2920   -1.1730 H   0  0  0  0  0  0  0  0  0  0  0  0
   -3.8350    1.9120    1.2600 H   0  0  0  0  0  0  0  0  0  0  0  0
   -4.4000    0.7660   -0.0540 H   0  0  0  0  0  0  0  0  0  0  0  0
   -3.6780    0.1440    2.6560 H   0  0  0  0  0  0  0  0  0  0  0  0
  1 13  1  0  0  0  0
  1 12  1  0  0  0  0
  2 14  1  6  0  0  0
  2  1  1  0  0  0  0
  2 10  1  0  0  0  0
  3 15  1  0  0  0  0
  3  2  1  0  0  0  0
  4  5  1  0  0  0  0
  4  3  1  0  0  0  0
  5 17  1  0  0  0  0
  6 18  1  0  0  0  0
  6  5  2  0  0  0  0
  7  6  1  0  0  0  0
  8  7  2  0  0  0  0
  8  9  1  0  0  0  0
  9  4  2  0  0  0  0
 10 25  1  0  0  0  0
 10 11  2  0  0  0  0
 16  3  1  0  0  0  0
 19  7  1  0  0  0  0
 20  8  1  0  0  0  0
 21  9  1  0  0  0  0
 23 22  1  0  0  0  0
 23 30  1  0  0  0  0
 24 31  1  1  0  0  0
 24 23  1  0  0  0  0
 25 24  1  0  0  0  0
 26 24  1  0  0  0  0
 26 27  2  0  0  0  0
 28 22  1  0  0  0  0
 29 23  1  0  0  0  0
 32 25  1  0  0  0  0
 33 26  1  0  0  0  0
 34 33  1  0  0  0  0
 35 34  1  0  0  0  0
 35 43  1  0  0  0  0
 35 36  1  0  0  0  0
 36 45  1  0  0  0  0
 36 37  1  0  0  0  0
 37 33  1  0  0  0  0
 37 47  1  1  0  0  0
 38 37  1  0  0  0  0
 39 38  1  0  0  0  0
 40 38  2  0  0  0  0
 41 34  1  0  0  0  0
 42 34  1  0  0  0  0
 44 35  1  0  0  0  0
 46 36  1  0  0  0  0
M  END
$$$$
