FSQ.pdb
 OpenBabel07022419013D

 50 50  0  0  1  0  0  0  0  0999 V2000
    2.1220   -4.3230    2.4520 N   0  0  0  0  0  0  0  0  0  0  0  0
    2.5390   -2.9210    2.2920 C   0  0  1  0  0  0  0  0  0  0  0  0
    3.8590   -2.9680    1.5980 C   0  0  0  0  0  0  0  0  0  0  0  0
    4.4770   -1.6580    1.3200 C   0  0  0  0  0  0  0  0  0  0  0  0
    4.2420   -1.0380    0.0910 C   0  0  0  0  0  0  0  0  0  0  0  0
    4.7970    0.1860   -0.2170 C   0  0  0  0  0  0  0  0  0  0  0  0
    5.6040    0.8120    0.7150 C   0  0  0  0  0  0  0  0  0  0  0  0
    5.8400    0.2030    1.9300 C   0  0  0  0  0  0  0  0  0  0  0  0
    5.2890   -1.0280    2.2560 C   0  0  0  0  0  0  0  0  0  0  0  0
    1.5040   -2.2680    1.4540 C   0  0  0  0  0  0  0  0  0  0  0  0
    0.6240   -2.9540    0.8310 O   0  0  0  0  0  0  0  0  0  0  0  0
    1.6430   -4.4670    3.3710 H   0  0  0  0  0  0  0  0  0  0  0  0
    1.4670   -4.6000    1.6920 H   0  0  0  0  0  0  0  0  0  0  0  0
    2.5930   -2.4370    3.2660 H   0  0  0  0  0  0  0  0  0  0  0  0
    3.8340   -3.6160    0.6970 H   0  0  0  0  0  0  0  0  0  0  0  0
    4.5690   -3.4940    2.3030 H   0  0  0  0  0  0  0  0  0  0  0  0
    3.6050   -1.5640   -0.6040 H   0  0  0  0  0  0  0  0  0  0  0  0
    4.5780    0.6250   -1.1950 H   0  0  0  0  0  0  0  0  0  0  0  0
    6.0500    1.7750    0.4910 H   0  0  0  0  0  0  0  0  0  0  0  0
    6.4710    0.7030    2.6450 H   0  0  0  0  0  0  0  0  0  0  0  0
    5.4790   -1.5030    3.2170 H   0  0  0  0  0  0  0  0  0  0  0  0
   -0.4280   -0.0790   -1.7440 O   0  0  0  0  0  0  0  0  0  0  0  0
    0.5730   -0.6500   -0.9740 C   0  0  0  0  0  0  0  0  0  0  0  0
    0.3820   -0.2750    0.4540 C   0  0  2  0  0  0  0  0  0  0  0  0
    1.4360   -0.8560    1.3030 N   0  0  0  0  0  0  0  0  0  0  0  0
   -0.9540   -0.6110    1.0080 C   0  0  0  0  0  0  0  0  0  0  0  0
   -1.0230   -1.3470    2.0570 O   0  0  0  0  0  0  0  0  0  0  0  0
   -0.1280    0.7650   -2.1570 H   0  0  0  0  0  0  0  0  0  0  0  0
    0.5920   -1.7400   -1.1560 H   0  0  0  0  0  0  0  0  0  0  0  0
    1.5740   -0.2780   -1.2810 H   0  0  0  0  0  0  0  0  0  0  0  0
    0.4580    0.8390    0.5340 H   0  0  0  0  0  0  0  0  0  0  0  0
    2.1130   -0.2210    1.7900 H   0  0  0  0  0  0  0  0  0  0  0  0
   -5.3270    2.5090   -1.7700 N   0  0  0  0  0  0  0  0  0  0  0  0
   -5.2790    1.5250   -0.6930 C   0  0  0  0  0  0  0  0  0  0  0  0
   -5.9700    0.5120   -0.9160 O   0  0  0  0  0  0  0  0  0  0  0  0
   -4.4720    1.7880    0.5000 C   0  0  0  0  0  0  0  0  0  0  0  0
   -4.2200    0.7030    1.4560 C   0  0  0  0  0  0  0  0  0  0  0  0
   -3.4830   -0.5020    1.0000 C   0  0  2  0  0  0  0  0  0  0  0  0
   -2.1750   -0.1700    0.4560 N   0  0  0  0  0  0  0  0  0  0  0  0
   -4.2030   -1.3830    0.0980 C   0  0  0  0  0  0  0  0  0  0  0  0
   -3.7710   -1.6390   -1.0640 O   0  0  0  0  0  0  0  0  0  0  0  0
   -5.4160   -2.0120    0.4540 O   0  0  0  0  0  0  0  0  0  0  0  0
   -4.4590    2.5540   -2.3440 H   0  0  0  0  0  0  0  0  0  0  0  0
   -6.1490    3.1000   -1.9390 H   0  0  0  0  0  0  0  0  0  0  0  0
   -5.0680    2.5800    1.0760 H   0  0  0  0  0  0  0  0  0  0  0  0
   -3.5380    2.3720    0.2420 H   0  0  0  0  0  0  0  0  0  0  0  0
   -3.6600    1.0970    2.3630 H   0  0  0  0  0  0  0  0  0  0  0  0
   -5.2190    0.4040    1.8910 H   0  0  0  0  0  0  0  0  0  0  0  0
   -3.2250   -1.1620    1.9170 H   0  0  0  0  0  0  0  0  0  0  0  0
   -2.1750    0.4290   -0.3790 H   0  0  0  0  0  0  0  0  0  0  0  0
  1 12  1  0  0  0  0
  2  1  1  0  0  0  0
  2 14  1  1  0  0  0
  3  2  1  0  0  0  0
  3 16  1  0  0  0  0
  4  3  1  0  0  0  0
  4  9  1  0  0  0  0
  5  4  2  0  0  0  0
  6  5  1  0  0  0  0
  6  7  2  0  0  0  0
  7  8  1  0  0  0  0
  8  9  2  0  0  0  0
  8 20  1  0  0  0  0
  9 21  1  0  0  0  0
 10  2  1  0  0  0  0
 11 10  2  0  0  0  0
 13  1  1  0  0  0  0
 15  3  1  0  0  0  0
 17  5  1  0  0  0  0
 18  6  1  0  0  0  0
 19  7  1  0  0  0  0
 22 23  1  0  0  0  0
 23 24  1  0  0  0  0
 24 31  1  1  0  0  0
 24 26  1  0  0  0  0
 24 25  1  0  0  0  0
 25 10  1  0  0  0  0
 25 32  1  0  0  0  0
 26 27  2  0  0  0  0
 28 22  1  0  0  0  0
 29 23  1  0  0  0  0
 30 23  1  0  0  0  0
 33 34  1  0  0  0  0
 34 36  1  0  0  0  0
 35 34  2  0  0  0  0
 36 45  1  0  0  0  0
 36 37  1  0  0  0  0
 37 48  1  0  0  0  0
 37 47  1  0  0  0  0
 38 37  1  0  0  0  0
 38 49  1  1  0  0  0
 39 38  1  0  0  0  0
 39 26  1  0  0  0  0
 40 42  1  0  0  0  0
 40 38  1  0  0  0  0
 41 40  2  0  0  0  0
 43 33  1  0  0  0  0
 44 33  1  0  0  0  0
 46 36  1  0  0  0  0
 50 39  1  0  0  0  0
M  END
$$$$
