FSW.pdb
 OpenBabel07022419013D

 57 59  0  0  1  0  0  0  0  0999 V2000
    1.4630    0.6590    6.1780 N   0  0  0  0  0  0  0  0  0  0  0  0
    1.8770    0.7980    4.7570 C   0  0  1  0  0  0  0  0  0  0  0  0
    2.8930   -0.2030    4.4650 C   0  0  0  0  0  0  0  0  0  0  0  0
    3.4210   -0.2060    3.0870 C   0  0  0  0  0  0  0  0  0  0  0  0
    4.4910    0.6220    2.7280 C   0  0  0  0  0  0  0  0  0  0  0  0
    5.0130    0.6180    1.4530 C   0  0  0  0  0  0  0  0  0  0  0  0
    4.5030   -0.2050    0.4720 C   0  0  0  0  0  0  0  0  0  0  0  0
    3.4500   -1.0250    0.8130 C   0  0  0  0  0  0  0  0  0  0  0  0
    2.9310   -1.0180    2.0890 C   0  0  0  0  0  0  0  0  0  0  0  0
    0.6930    0.9500    3.9630 C   0  0  0  0  0  0  0  0  0  0  0  0
   -0.4440    0.7860    4.5400 O   0  0  0  0  0  0  0  0  0  0  0  0
    1.0410   -0.2880    6.3180 H   0  0  0  0  0  0  0  0  0  0  0  0
    0.8390    1.4390    6.4560 H   0  0  0  0  0  0  0  0  0  0  0  0
    2.3920    1.8110    4.7710 H   0  0  0  0  0  0  0  0  0  0  0  0
    2.6440   -1.2540    4.7040 H   0  0  0  0  0  0  0  0  0  0  0  0
    3.7950    0.0050    5.1200 H   0  0  0  0  0  0  0  0  0  0  0  0
    4.8800    1.2680    3.5250 H   0  0  0  0  0  0  0  0  0  0  0  0
    5.8370    1.2630    1.1920 H   0  0  0  0  0  0  0  0  0  0  0  0
    4.9170   -0.2080   -0.5410 H   0  0  0  0  0  0  0  0  0  0  0  0
    3.0260   -1.6840    0.0670 H   0  0  0  0  0  0  0  0  0  0  0  0
    2.1000   -1.6630    2.3640 H   0  0  0  0  0  0  0  0  0  0  0  0
   -2.1100    3.0600    0.8860 O   0  0  0  0  0  0  0  0  0  0  0  0
   -0.9080    2.8450    1.5280 C   0  0  0  0  0  0  0  0  0  0  0  0
   -0.7130    1.3980    1.9240 C   0  0  2  0  0  0  0  0  0  0  0  0
    0.5650    1.2690    2.5870 N   0  0  0  0  0  0  0  0  0  0  0  0
   -0.7400    0.4850    0.7730 C   0  0  0  0  0  0  0  0  0  0  0  0
    0.2540   -0.2260    0.5220 O   0  0  0  0  0  0  0  0  0  0  0  0
   -2.7470    3.5560    1.4340 H   0  0  0  0  0  0  0  0  0  0  0  0
   -0.0690    3.2340    0.9250 H   0  0  0  0  0  0  0  0  0  0  0  0
   -0.9220    3.4380    2.4700 H   0  0  0  0  0  0  0  0  0  0  0  0
   -1.5610    1.1850    2.6420 H   0  0  0  0  0  0  0  0  0  0  0  0
    1.4180    1.4170    2.0500 H   0  0  0  0  0  0  0  0  0  0  0  0
   -1.8560    0.3530   -0.1000 N   0  0  0  0  0  0  0  0  0  0  0  0
   -1.8720   -0.5500   -1.2290 C   0  0  1  0  0  0  0  0  0  0  0  0
   -3.0230   -1.5300   -1.1450 C   0  0  0  0  0  0  0  0  0  0  0  0
   -3.0330   -2.4530   -2.3060 C   0  0  0  0  0  0  0  0  0  0  0  0
   -3.8530   -2.4360   -3.4140 C   0  0  0  0  0  0  0  0  0  0  0  0
   -3.5160   -3.4560   -4.2220 N   0  0  0  0  0  0  0  0  0  0  0  0
   -2.4860   -4.1590   -3.6850 C   0  0  0  0  0  0  0  0  0  0  0  0
   -1.7610   -5.2690   -4.0720 C   0  0  0  0  0  0  0  0  0  0  0  0
   -0.7410   -5.7530   -3.2740 C   0  0  0  0  0  0  0  0  0  0  0  0
   -0.4450   -5.1250   -2.0830 C   0  0  0  0  0  0  0  0  0  0  0  0
   -1.1690   -4.0110   -1.6890 C   0  0  0  0  0  0  0  0  0  0  0  0
   -2.1850   -3.5310   -2.4870 C   0  0  0  0  0  0  0  0  0  0  0  0
   -2.0930    0.2900   -2.4540 C   0  0  0  0  0  0  0  0  0  0  0  0
   -2.1490   -0.2700   -3.5940 O   0  0  0  0  0  0  0  0  0  0  0  0
   -2.2410    1.6570   -2.4160 O   0  0  0  0  0  0  0  0  0  0  0  0
   -2.6790    0.9350    0.0980 H   0  0  0  0  0  0  0  0  0  0  0  0
   -0.9440   -1.1300   -1.3260 H   0  0  0  0  0  0  0  0  0  0  0  0
   -3.9930   -1.0050   -1.0300 H   0  0  0  0  0  0  0  0  0  0  0  0
   -2.8880   -2.1190   -0.2070 H   0  0  0  0  0  0  0  0  0  0  0  0
   -4.6300   -1.6980   -3.5600 H   0  0  0  0  0  0  0  0  0  0  0  0
   -3.9700   -3.6840   -5.1310 H   0  0  0  0  0  0  0  0  0  0  0  0
   -1.9830   -5.7680   -5.0000 H   0  0  0  0  0  0  0  0  0  0  0  0
   -0.1550   -6.6340   -3.5670 H   0  0  0  0  0  0  0  0  0  0  0  0
    0.3600   -5.4980   -1.4410 H   0  0  0  0  0  0  0  0  0  0  0  0
   -0.9510   -3.5020   -0.7550 H   0  0  0  0  0  0  0  0  0  0  0  0
  1 12  1  0  0  0  0
  1 13  1  0  0  0  0
  2 14  1  6  0  0  0
  2  1  1  0  0  0  0
  3 15  1  0  0  0  0
  3  2  1  0  0  0  0
  3 16  1  0  0  0  0
  4  3  1  0  0  0  0
  5  4  1  0  0  0  0
  5 17  1  0  0  0  0
  6  5  2  0  0  0  0
  7  8  2  0  0  0  0
  7  6  1  0  0  0  0
  8  9  1  0  0  0  0
  9 21  1  0  0  0  0
  9  4  2  0  0  0  0
 10 11  2  0  0  0  0
 10  2  1  0  0  0  0
 18  6  1  0  0  0  0
 19  7  1  0  0  0  0
 20  8  1  0  0  0  0
 22 28  1  0  0  0  0
 22 23  1  0  0  0  0
 23 24  1  0  0  0  0
 23 30  1  0  0  0  0
 24 25  1  0  0  0  0
 24 31  1  1  0  0  0
 25 10  1  0  0  0  0
 26 24  1  0  0  0  0
 27 26  2  0  0  0  0
 29 23  1  0  0  0  0
 32 25  1  0  0  0  0
 33 48  1  0  0  0  0
 33 26  1  0  0  0  0
 34 49  1  6  0  0  0
 34 35  1  0  0  0  0
 34 33  1  0  0  0  0
 35 50  1  0  0  0  0
 35 51  1  0  0  0  0
 36 35  1  0  0  0  0
 37 36  2  0  0  0  0
 38 39  1  0  0  0  0
 38 37  1  0  0  0  0
 39 44  1  0  0  0  0
 40 39  2  0  0  0  0
 40 41  1  0  0  0  0
 41 42  2  0  0  0  0
 42 43  1  0  0  0  0
 42 56  1  0  0  0  0
 43 57  1  0  0  0  0
 44 36  1  0  0  0  0
 44 43  2  0  0  0  0
 45 47  1  0  0  0  0
 45 34  1  0  0  0  0
 46 45  2  0  0  0  0
 52 37  1  0  0  0  0
 53 38  1  0  0  0  0
 54 40  1  0  0  0  0
 55 41  1  0  0  0  0
M  END
$$$$
