FSY.pdb
 OpenBabel07022419013D

 54 55  0  0  1  0  0  0  0  0999 V2000
    4.1980   -2.1470    0.2060 N   0  0  0  0  0  0  0  0  0  0  0  0
    3.0240   -1.8030    0.9270 C   0  0  1  0  0  0  0  0  0  0  0  0
    3.3230   -1.9630    2.4440 C   0  0  0  0  0  0  0  0  0  0  0  0
    2.0920   -1.5840    3.1860 C   0  0  0  0  0  0  0  0  0  0  0  0
    1.1690   -2.5420    3.5530 C   0  0  0  0  0  0  0  0  0  0  0  0
    0.0020   -2.1950    4.2560 C   0  0  0  0  0  0  0  0  0  0  0  0
   -0.2590   -0.8930    4.5990 C   0  0  0  0  0  0  0  0  0  0  0  0
    0.6580    0.0740    4.2350 C   0  0  0  0  0  0  0  0  0  0  0  0
    1.8260   -0.2730    3.5350 C   0  0  0  0  0  0  0  0  0  0  0  0
    2.6860   -0.3170    0.8530 C   0  0  0  0  0  0  0  0  0  0  0  0
    3.6450    0.4440    0.9120 O   0  0  0  0  0  0  0  0  0  0  0  0
    5.0590   -1.6600    0.3930 H   0  0  0  0  0  0  0  0  0  0  0  0
    4.2460   -3.0420   -0.2620 H   0  0  0  0  0  0  0  0  0  0  0  0
    2.1360   -2.3510    0.6310 H   0  0  0  0  0  0  0  0  0  0  0  0
    4.1770   -1.2670    2.6750 H   0  0  0  0  0  0  0  0  0  0  0  0
    3.5940   -2.9860    2.6870 H   0  0  0  0  0  0  0  0  0  0  0  0
    1.3790   -3.5650    3.2850 H   0  0  0  0  0  0  0  0  0  0  0  0
   -0.7060   -2.9700    4.5340 H   0  0  0  0  0  0  0  0  0  0  0  0
   -1.1580   -0.5780    5.1540 H   0  0  0  0  0  0  0  0  0  0  0  0
    0.4520    1.0970    4.5010 H   0  0  0  0  0  0  0  0  0  0  0  0
    2.5320    0.4830    3.2840 H   0  0  0  0  0  0  0  0  0  0  0  0
    2.7840    2.2810   -0.5400 O   0  0  0  0  0  0  0  0  0  0  0  0
    1.4340    2.1450   -0.5410 C   0  0  0  0  0  0  0  0  0  0  0  0
    0.8660    1.3970    0.7030 C   0  0  2  0  0  0  0  0  0  0  0  0
    1.3510    0.0820    0.7290 N   0  0  0  0  0  0  0  0  0  0  0  0
   -0.6050    1.5230    0.4920 C   0  0  0  0  0  0  0  0  0  0  0  0
   -1.0660    2.7260    0.5930 O   0  0  0  0  0  0  0  0  0  0  0  0
    3.1160    2.9600    0.1080 H   0  0  0  0  0  0  0  0  0  0  0  0
    0.9780    3.1700   -0.5700 H   0  0  0  0  0  0  0  0  0  0  0  0
    1.0810    1.6230   -1.4670 H   0  0  0  0  0  0  0  0  0  0  0  0
    1.2510    2.0370    1.5530 H   0  0  0  0  0  0  0  0  0  0  0  0
    0.6340   -0.7070    0.6620 H   0  0  0  0  0  0  0  0  0  0  0  0
   -1.4210   -4.4110   -3.4360 O   0  0  0  0  0  0  0  0  0  0  0  0
   -1.8390   -3.1680   -2.9730 C   0  0  0  0  0  0  0  0  0  0  0  0
   -3.1550   -2.9750   -2.5350 C   0  0  0  0  0  0  0  0  0  0  0  0
   -3.6020   -1.7410   -2.0660 C   0  0  0  0  0  0  0  0  0  0  0  0
   -2.7530   -0.6630   -2.0180 C   0  0  0  0  0  0  0  0  0  0  0  0
   -3.1560    0.6830   -1.5270 C   0  0  0  0  0  0  0  0  0  0  0  0
   -2.9610    0.7980   -0.0160 C   0  0  2  0  0  0  0  0  0  0  0  0
   -1.5280    0.5310    0.1950 N   0  0  0  0  0  0  0  0  0  0  0  0
   -3.8770    0.0200    0.7770 C   0  0  0  0  0  0  0  0  0  0  0  0
   -5.1290    0.0710    0.6680 O   0  0  0  0  0  0  0  0  0  0  0  0
   -1.4420   -0.8550   -2.4540 C   0  0  0  0  0  0  0  0  0  0  0  0
   -1.0080   -2.0760   -2.9170 C   0  0  0  0  0  0  0  0  0  0  0  0
   -3.4400   -0.8880    1.7790 O   0  0  0  0  0  0  0  0  0  0  0  0
   -0.4180   -4.4660   -3.6700 H   0  0  0  0  0  0  0  0  0  0  0  0
   -3.7950   -3.8350   -2.5730 H   0  0  0  0  0  0  0  0  0  0  0  0
   -4.6390   -1.6240   -1.7340 H   0  0  0  0  0  0  0  0  0  0  0  0
   -4.2180    0.8320   -1.8300 H   0  0  0  0  0  0  0  0  0  0  0  0
   -2.5560    1.4390   -2.0700 H   0  0  0  0  0  0  0  0  0  0  0  0
   -3.1260    1.9110    0.1690 H   0  0  0  0  0  0  0  0  0  0  0  0
   -1.1880   -0.4590    0.1040 H   0  0  0  0  0  0  0  0  0  0  0  0
   -0.7320   -0.0090   -2.4270 H   0  0  0  0  0  0  0  0  0  0  0  0
    0.0170   -2.2160   -3.2550 H   0  0  0  0  0  0  0  0  0  0  0  0
  1 12  1  0  0  0  0
  1  2  1  0  0  0  0
  2 14  1  6  0  0  0
  2  3  1  0  0  0  0
  3 15  1  0  0  0  0
  3 16  1  0  0  0  0
  3  4  1  0  0  0  0
  4  9  2  0  0  0  0
  4  5  1  0  0  0  0
  5  6  2  0  0  0  0
  6 18  1  0  0  0  0
  6  7  1  0  0  0  0
  7 19  1  0  0  0  0
  8 20  1  0  0  0  0
  8  7  2  0  0  0  0
  9  8  1  0  0  0  0
 10 11  2  0  0  0  0
 10  2  1  0  0  0  0
 13  1  1  0  0  0  0
 17  5  1  0  0  0  0
 21  9  1  0  0  0  0
 22 28  1  0  0  0  0
 23 22  1  0  0  0  0
 23 24  1  0  0  0  0
 24 25  1  0  0  0  0
 24 31  1  1  0  0  0
 25 10  1  0  0  0  0
 26 27  2  0  0  0  0
 26 24  1  0  0  0  0
 29 23  1  0  0  0  0
 30 23  1  0  0  0  0
 32 25  1  0  0  0  0
 33 34  1  0  0  0  0
 34 44  2  0  0  0  0
 34 35  1  0  0  0  0
 35 36  2  0  0  0  0
 36 37  1  0  0  0  0
 36 48  1  0  0  0  0
 37 38  1  0  0  0  0
 38 39  1  0  0  0  0
 39 51  1  1  0  0  0
 39 40  1  0  0  0  0
 39 41  1  0  0  0  0
 40 26  1  0  0  0  0
 41 45  1  0  0  0  0
 42 41  2  0  0  0  0
 43 53  1  0  0  0  0
 43 37  2  0  0  0  0
 44 43  1  0  0  0  0
 46 33  1  0  0  0  0
 47 35  1  0  0  0  0
 49 38  1  0  0  0  0
 50 38  1  0  0  0  0
 52 40  1  0  0  0  0
 54 44  1  0  0  0  0
M  END
$$$$
