FTF.pdb
 OpenBabel07022419013D

 56 57  0  0  1  0  0  0  0  0999 V2000
   -2.4250    3.1230    3.0140 N   0  0  0  0  0  0  0  0  0  0  0  0
   -1.8240    2.3510    1.8720 C   0  0  1  0  0  0  0  0  0  0  0  0
   -0.7200    3.2020    1.4200 C   0  0  0  0  0  0  0  0  0  0  0  0
    0.1060    2.7650    0.2850 C   0  0  0  0  0  0  0  0  0  0  0  0
   -0.2610    3.0170   -1.0290 C   0  0  0  0  0  0  0  0  0  0  0  0
    0.5690    2.6210   -2.0440 C   0  0  0  0  0  0  0  0  0  0  0  0
    1.7730    1.9750   -1.8610 C   0  0  0  0  0  0  0  0  0  0  0  0
    2.1300    1.7280   -0.5390 C   0  0  0  0  0  0  0  0  0  0  0  0
    1.3060    2.1190    0.4860 C   0  0  0  0  0  0  0  0  0  0  0  0
   -1.5860    1.0290    2.3920 C   0  0  0  0  0  0  0  0  0  0  0  0
   -1.6260    0.7660    3.6310 O   0  0  0  0  0  0  0  0  0  0  0  0
   -2.6250    4.0800    2.6970 H   0  0  0  0  0  0  0  0  0  0  0  0
   -3.2690    2.6060    3.3520 H   0  0  0  0  0  0  0  0  0  0  0  0
   -2.6440    2.3920    1.0970 H   0  0  0  0  0  0  0  0  0  0  0  0
   -1.1660    4.1950    1.1140 H   0  0  0  0  0  0  0  0  0  0  0  0
   -0.0430    3.4620    2.2630 H   0  0  0  0  0  0  0  0  0  0  0  0
   -1.1960    3.5210   -1.2170 H   0  0  0  0  0  0  0  0  0  0  0  0
    0.3170    2.8020   -3.1070 H   0  0  0  0  0  0  0  0  0  0  0  0
    2.4120    1.6720   -2.6790 H   0  0  0  0  0  0  0  0  0  0  0  0
    3.0800    1.2220   -0.4110 H   0  0  0  0  0  0  0  0  0  0  0  0
    1.6090    1.9130    1.5110 H   0  0  0  0  0  0  0  0  0  0  0  0
   -2.1680   -3.5660    2.6470 C   0  0  0  0  0  0  0  0  0  0  0  0
   -2.3690   -2.2370    1.9620 C   0  0  1  0  0  0  0  0  0  0  0  0
   -3.3750   -1.5480    2.6320 O   0  0  0  0  0  0  0  0  0  0  0  0
   -1.0870   -1.4250    2.1220 C   0  0  2  0  0  0  0  0  0  0  0  0
   -1.2930   -0.1020    1.5370 N   0  0  0  0  0  0  0  0  0  0  0  0
    0.0820   -2.1020    1.6070 C   0  0  0  0  0  0  0  0  0  0  0  0
    0.3370   -3.2790    2.0520 O   0  0  0  0  0  0  0  0  0  0  0  0
   -3.1660   -3.9910    2.9310 H   0  0  0  0  0  0  0  0  0  0  0  0
   -1.7260   -4.3310    1.9600 H   0  0  0  0  0  0  0  0  0  0  0  0
   -1.5820   -3.4970    3.5700 H   0  0  0  0  0  0  0  0  0  0  0  0
   -2.6120   -2.4370    0.9070 H   0  0  0  0  0  0  0  0  0  0  0  0
   -3.5030   -1.9480    3.5150 H   0  0  0  0  0  0  0  0  0  0  0  0
   -0.9910   -1.2860    3.2220 H   0  0  0  0  0  0  0  0  0  0  0  0
   -1.2470    0.1130    0.5280 H   0  0  0  0  0  0  0  0  0  0  0  0
    1.0130   -1.6350    0.6490 N   0  0  0  0  0  0  0  0  0  0  0  0
    2.1390   -2.4050    0.2030 C   0  0  1  0  0  0  0  0  0  0  0  0
    2.1830   -2.5550   -1.3080 C   0  0  0  0  0  0  0  0  0  0  0  0
    0.9640   -3.2390   -1.8120 C   0  0  0  0  0  0  0  0  0  0  0  0
   -0.1250   -2.4590   -2.1470 C   0  0  0  0  0  0  0  0  0  0  0  0
   -1.3070   -2.9810   -2.6230 C   0  0  0  0  0  0  0  0  0  0  0  0
   -1.3990   -4.3600   -2.7710 C   0  0  0  0  0  0  0  0  0  0  0  0
   -0.3100   -5.1480   -2.4370 C   0  0  0  0  0  0  0  0  0  0  0  0
    0.8700   -4.6030   -1.9590 C   0  0  0  0  0  0  0  0  0  0  0  0
    3.4300   -1.8360    0.6680 C   0  0  0  0  0  0  0  0  0  0  0  0
    4.5320   -2.3800    0.3240 O   0  0  0  0  0  0  0  0  0  0  0  0
    3.4540   -0.7150    1.4750 O   0  0  0  0  0  0  0  0  0  0  0  0
    0.8490   -0.6970    0.2640 H   0  0  0  0  0  0  0  0  0  0  0  0
    2.0510   -3.4480    0.6350 H   0  0  0  0  0  0  0  0  0  0  0  0
    3.0700   -3.1640   -1.5650 H   0  0  0  0  0  0  0  0  0  0  0  0
    2.2370   -1.5170   -1.7260 H   0  0  0  0  0  0  0  0  0  0  0  0
   -0.0450   -1.3720   -2.0290 H   0  0  0  0  0  0  0  0  0  0  0  0
   -2.1630   -2.3660   -2.8860 H   0  0  0  0  0  0  0  0  0  0  0  0
   -2.3200   -4.7810   -3.1430 H   0  0  0  0  0  0  0  0  0  0  0  0
   -0.3930   -6.2210   -2.5570 H   0  0  0  0  0  0  0  0  0  0  0  0
    1.7300   -5.2090   -1.6920 H   0  0  0  0  0  0  0  0  0  0  0  0
  1 13  1  0  0  0  0
  2 14  1  6  0  0  0
  2 10  1  0  0  0  0
  2  1  1  0  0  0  0
  3  2  1  0  0  0  0
  3 16  1  0  0  0  0
  4  9  1  0  0  0  0
  4  3  1  0  0  0  0
  5  4  2  0  0  0  0
  6  7  2  0  0  0  0
  6  5  1  0  0  0  0
  7  8  1  0  0  0  0
  8 20  1  0  0  0  0
  8  9  2  0  0  0  0
  9 21  1  0  0  0  0
 10 11  2  0  0  0  0
 12  1  1  0  0  0  0
 15  3  1  0  0  0  0
 17  5  1  0  0  0  0
 18  6  1  0  0  0  0
 19  7  1  0  0  0  0
 22 29  1  0  0  0  0
 22 31  1  0  0  0  0
 23 32  1  6  0  0  0
 23 25  1  0  0  0  0
 23 24  1  0  0  0  0
 23 22  1  0  0  0  0
 24 33  1  0  0  0  0
 25 34  1  1  0  0  0
 26 25  1  0  0  0  0
 26 10  1  0  0  0  0
 27 28  2  0  0  0  0
 27 25  1  0  0  0  0
 30 22  1  0  0  0  0
 35 26  1  0  0  0  0
 36 27  1  0  0  0  0
 37 49  1  1  0  0  0
 37 36  1  0  0  0  0
 37 45  1  0  0  0  0
 38 37  1  0  0  0  0
 39 38  1  0  0  0  0
 40 52  1  0  0  0  0
 40 39  2  0  0  0  0
 41 40  1  0  0  0  0
 42 41  2  0  0  0  0
 42 43  1  0  0  0  0
 43 44  2  0  0  0  0
 44 39  1  0  0  0  0
 44 56  1  0  0  0  0
 45 47  1  0  0  0  0
 46 45  2  0  0  0  0
 48 36  1  0  0  0  0
 50 38  1  0  0  0  0
 51 38  1  0  0  0  0
 53 41  1  0  0  0  0
 54 42  1  0  0  0  0
 55 43  1  0  0  0  0
M  END
$$$$
