FTG.pdb
 OpenBabel07022419013D

 43 43  0  0  1  0  0  0  0  0999 V2000
    3.4500   -2.7030   -0.1470 N   0  0  0  0  0  0  0  0  0  0  0  0
    2.8320   -1.4420    0.1340 C   0  0  1  0  0  0  0  0  0  0  0  0
    2.3500   -0.8140   -1.1510 C   0  0  0  0  0  0  0  0  0  0  0  0
    1.3740   -1.6390   -1.8650 C   0  0  0  0  0  0  0  0  0  0  0  0
    0.0190   -1.5270   -1.6350 C   0  0  0  0  0  0  0  0  0  0  0  0
   -0.8670   -2.3340   -2.3400 C   0  0  0  0  0  0  0  0  0  0  0  0
   -0.4130   -3.2490   -3.2700 C   0  0  0  0  0  0  0  0  0  0  0  0
    0.9390   -3.3730   -3.5100 C   0  0  0  0  0  0  0  0  0  0  0  0
    1.8030   -2.5710   -2.8080 C   0  0  0  0  0  0  0  0  0  0  0  0
    1.8320   -1.5110    1.1990 C   0  0  0  0  0  0  0  0  0  0  0  0
    1.5780   -2.6670    1.6710 O   0  0  0  0  0  0  0  0  0  0  0  0
    2.8100   -3.4490   -0.4350 H   0  0  0  0  0  0  0  0  0  0  0  0
    4.3240   -2.6190   -0.6710 H   0  0  0  0  0  0  0  0  0  0  0  0
    3.6550   -0.7640    0.5090 H   0  0  0  0  0  0  0  0  0  0  0  0
    1.9980    0.2250   -0.9480 H   0  0  0  0  0  0  0  0  0  0  0  0
    3.2440   -0.7030   -1.8030 H   0  0  0  0  0  0  0  0  0  0  0  0
   -0.4020   -0.8320   -0.9230 H   0  0  0  0  0  0  0  0  0  0  0  0
   -1.9390   -2.2270   -2.1410 H   0  0  0  0  0  0  0  0  0  0  0  0
   -1.1310   -3.8790   -3.8180 H   0  0  0  0  0  0  0  0  0  0  0  0
    1.3230   -4.0950   -4.2450 H   0  0  0  0  0  0  0  0  0  0  0  0
    2.8640   -2.6700   -2.9990 H   0  0  0  0  0  0  0  0  0  0  0  0
    0.9510    1.6180    3.6870 C   0  0  0  0  0  0  0  0  0  0  0  0
    0.6860    0.1760    4.0620 C   0  0  1  0  0  0  0  0  0  0  0  0
   -0.2620    0.0490    5.0510 O   0  0  0  0  0  0  0  0  0  0  0  0
    0.1620   -0.5020    2.7800 C   0  0  2  0  0  0  0  0  0  0  0  0
    1.1460   -0.3810    1.7220 N   0  0  0  0  0  0  0  0  0  0  0  0
   -1.0890    0.2180    2.4630 C   0  0  0  0  0  0  0  0  0  0  0  0
   -2.0720    0.2090    3.2470 O   0  0  0  0  0  0  0  0  0  0  0  0
    0.5190    1.8900    2.7020 H   0  0  0  0  0  0  0  0  0  0  0  0
    0.5530    2.3350    4.4220 H   0  0  0  0  0  0  0  0  0  0  0  0
    2.0570    1.7930    3.5920 H   0  0  0  0  0  0  0  0  0  0  0  0
    1.6310   -0.3290    4.3160 H   0  0  0  0  0  0  0  0  0  0  0  0
   -0.7440    0.9270    5.1450 H   0  0  0  0  0  0  0  0  0  0  0  0
    0.0320   -1.5740    3.0060 H   0  0  0  0  0  0  0  0  0  0  0  0
    1.3560    0.5640    1.3350 H   0  0  0  0  0  0  0  0  0  0  0  0
   -1.2760    0.9750    1.2520 N   0  0  0  0  0  0  0  0  0  0  0  0
   -2.5100    1.6560    0.9910 C   0  0  0  0  0  0  0  0  0  0  0  0
   -2.8460    2.6670    2.0040 C   0  0  0  0  0  0  0  0  0  0  0  0
   -3.8990    3.3440    1.9080 O   0  0  0  0  0  0  0  0  0  0  0  0
   -2.0150    2.9010    3.0890 O   0  0  0  0  0  0  0  0  0  0  0  0
   -0.5020    1.0170    0.5790 H   0  0  0  0  0  0  0  0  0  0  0  0
   -3.3750    0.9430    0.9030 H   0  0  0  0  0  0  0  0  0  0  0  0
   -2.4430    2.1400   -0.0030 H   0  0  0  0  0  0  0  0  0  0  0  0
  1  2  1  0  0  0  0
  2 14  1  1  0  0  0
  2 10  1  0  0  0  0
  3 15  1  0  0  0  0
  3  2  1  0  0  0  0
  4  5  1  0  0  0  0
  4  3  1  0  0  0  0
  5 17  1  0  0  0  0
  6 18  1  0  0  0  0
  6  5  2  0  0  0  0
  7  6  1  0  0  0  0
  8  7  2  0  0  0  0
  8  9  1  0  0  0  0
  9  4  2  0  0  0  0
 10 11  2  0  0  0  0
 10 26  1  0  0  0  0
 12  1  1  0  0  0  0
 13  1  1  0  0  0  0
 16  3  1  0  0  0  0
 19  7  1  0  0  0  0
 20  8  1  0  0  0  0
 21  9  1  0  0  0  0
 22 23  1  0  0  0  0
 22 30  1  0  0  0  0
 23 32  1  1  0  0  0
 23 24  1  0  0  0  0
 24 33  1  0  0  0  0
 25 34  1  1  0  0  0
 25 23  1  0  0  0  0
 26 25  1  0  0  0  0
 27 25  1  0  0  0  0
 27 28  2  0  0  0  0
 29 22  1  0  0  0  0
 31 22  1  0  0  0  0
 35 26  1  0  0  0  0
 36 27  1  0  0  0  0
 37 36  1  0  0  0  0
 37 38  1  0  0  0  0
 38 40  1  0  0  0  0
 39 38  2  0  0  0  0
 41 36  1  0  0  0  0
 42 37  1  0  0  0  0
 43 37  1  0  0  0  0
M  END
$$$$
