FTH.pdb
 OpenBabel07022419013D

 53 54  0  0  1  0  0  0  0  0999 V2000
    0.4920    0.2510    2.6150 N   0  0  0  0  0  0  0  0  0  0  0  0
    1.1560   -1.0560    2.4760 C   0  0  1  0  0  0  0  0  0  0  0  0
    1.0030   -1.7710    3.7790 C   0  0  0  0  0  0  0  0  0  0  0  0
    1.6440   -3.1020    3.7250 C   0  0  0  0  0  0  0  0  0  0  0  0
    0.9980   -4.2510    3.3790 C   0  0  0  0  0  0  0  0  0  0  0  0
    1.6410   -5.4630    3.3380 C   0  0  0  0  0  0  0  0  0  0  0  0
    2.9880   -5.5290    3.6560 C   0  0  0  0  0  0  0  0  0  0  0  0
    3.6410   -4.3670    4.0050 C   0  0  0  0  0  0  0  0  0  0  0  0
    2.9960   -3.1650    4.0440 C   0  0  0  0  0  0  0  0  0  0  0  0
    0.5190   -1.7500    1.3600 C   0  0  0  0  0  0  0  0  0  0  0  0
    0.9640   -2.8840    0.9930 O   0  0  0  0  0  0  0  0  0  0  0  0
    1.1070    0.8930    3.1670 H   0  0  0  0  0  0  0  0  0  0  0  0
   -0.3960    0.1700    3.1500 H   0  0  0  0  0  0  0  0  0  0  0  0
    2.2400   -0.8200    2.2680 H   0  0  0  0  0  0  0  0  0  0  0  0
   -0.0950   -1.9280    3.9370 H   0  0  0  0  0  0  0  0  0  0  0  0
    1.3910   -1.1640    4.6190 H   0  0  0  0  0  0  0  0  0  0  0  0
   -0.0620   -4.2310    3.1290 H   0  0  0  0  0  0  0  0  0  0  0  0
    1.1570   -6.3780    3.0700 H   0  0  0  0  0  0  0  0  0  0  0  0
    3.5160   -6.4710    3.6310 H   0  0  0  0  0  0  0  0  0  0  0  0
    4.7020   -4.3960    4.2600 H   0  0  0  0  0  0  0  0  0  0  0  0
    3.5270   -2.2530    4.3240 H   0  0  0  0  0  0  0  0  0  0  0  0
   -3.4650   -1.1910    0.2210 C   0  0  0  0  0  0  0  0  0  0  0  0
   -2.5860   -2.3580   -0.0800 C   0  0  1  0  0  0  0  0  0  0  0  0
   -3.1140   -3.0780   -1.1510 O   0  0  0  0  0  0  0  0  0  0  0  0
   -1.1740   -1.9720   -0.4530 C   0  0  2  0  0  0  0  0  0  0  0  0
   -0.6010   -1.2260    0.6370 N   0  0  0  0  0  0  0  0  0  0  0  0
   -1.1870   -1.1910   -1.7160 C   0  0  0  0  0  0  0  0  0  0  0  0
   -1.6430   -1.6500   -2.7930 O   0  0  0  0  0  0  0  0  0  0  0  0
   -3.8580   -0.7460   -0.7150 H   0  0  0  0  0  0  0  0  0  0  0  0
   -4.3730   -1.5920    0.7550 H   0  0  0  0  0  0  0  0  0  0  0  0
   -3.0060   -0.4300    0.8630 H   0  0  0  0  0  0  0  0  0  0  0  0
   -2.5000   -3.0460    0.8090 H   0  0  0  0  0  0  0  0  0  0  0  0
   -2.8990   -4.0200   -1.0630 H   0  0  0  0  0  0  0  0  0  0  0  0
   -0.6050   -2.9160   -0.5580 H   0  0  0  0  0  0  0  0  0  0  0  0
   -0.9710   -0.2970    0.9320 H   0  0  0  0  0  0  0  0  0  0  0  0
   -0.6750    0.1430   -1.7750 N   0  0  0  0  0  0  0  0  0  0  0  0
   -0.6780    0.9190   -2.9900 C   0  0  1  0  0  0  0  0  0  0  0  0
   -1.5760    2.1210   -2.7560 C   0  0  0  0  0  0  0  0  0  0  0  0
   -1.0990    2.9680   -1.6380 C   0  0  0  0  0  0  0  0  0  0  0  0
   -0.2250    4.0260   -1.7530 C   0  0  0  0  0  0  0  0  0  0  0  0
   -0.0410    4.5350   -0.5320 N   0  0  0  0  0  0  0  0  0  0  0  0
   -0.7780    3.8230    0.3530 C   0  0  0  0  0  0  0  0  0  0  0  0
   -1.4180    2.8700   -0.3400 N   0  0  0  0  0  0  0  0  0  0  0  0
    0.6500    1.4020   -3.3720 C   0  0  0  0  0  0  0  0  0  0  0  0
    1.6390    1.1200   -2.6520 O   0  0  0  0  0  0  0  0  0  0  0  0
    0.8710    2.1660   -4.5050 O   0  0  0  0  0  0  0  0  0  0  0  0
   -0.2820    0.5920   -0.9240 H   0  0  0  0  0  0  0  0  0  0  0  0
   -1.1120    0.3610   -3.8480 H   0  0  0  0  0  0  0  0  0  0  0  0
   -2.6010    1.7450   -2.5050 H   0  0  0  0  0  0  0  0  0  0  0  0
   -1.7120    2.7150   -3.6930 H   0  0  0  0  0  0  0  0  0  0  0  0
    0.2430    4.4000   -2.6580 H   0  0  0  0  0  0  0  0  0  0  0  0
    0.5770    5.3590   -0.2860 H   0  0  0  0  0  0  0  0  0  0  0  0
   -0.8180    4.0130    1.4010 H   0  0  0  0  0  0  0  0  0  0  0  0
  1 13  1  0  0  0  0
  1 12  1  0  0  0  0
  2 14  1  6  0  0  0
  2  1  1  0  0  0  0
  2  3  1  0  0  0  0
  3 15  1  0  0  0  0
  3 16  1  0  0  0  0
  4  3  1  0  0  0  0
  4  9  1  0  0  0  0
  5  4  2  0  0  0  0
  6  5  1  0  0  0  0
  6  7  2  0  0  0  0
  7  8  1  0  0  0  0
  8  9  2  0  0  0  0
  8 20  1  0  0  0  0
  9 21  1  0  0  0  0
 10  2  1  0  0  0  0
 11 10  2  0  0  0  0
 17  5  1  0  0  0  0
 18  6  1  0  0  0  0
 19  7  1  0  0  0  0
 22 30  1  0  0  0  0
 22 31  1  0  0  0  0
 23 22  1  0  0  0  0
 23 32  1  1  0  0  0
 24 33  1  0  0  0  0
 24 23  1  0  0  0  0
 25 34  1  6  0  0  0
 25 23  1  0  0  0  0
 25 26  1  0  0  0  0
 26 35  1  0  0  0  0
 26 10  1  0  0  0  0
 27 25  1  0  0  0  0
 28 27  2  0  0  0  0
 29 22  1  0  0  0  0
 36 27  1  0  0  0  0
 36 47  1  0  0  0  0
 37 48  1  6  0  0  0
 37 38  1  0  0  0  0
 37 36  1  0  0  0  0
 38 49  1  0  0  0  0
 38 39  1  0  0  0  0
 39 43  1  0  0  0  0
 40 39  2  0  0  0  0
 40 41  1  0  0  0  0
 41 52  1  0  0  0  0
 41 42  1  0  0  0  0
 42 53  1  0  0  0  0
 43 42  2  0  0  0  0
 44 37  1  0  0  0  0
 44 45  1  0  0  0  0
 46 44  2  0  0  0  0
 50 38  1  0  0  0  0
 51 40  1  0  0  0  0
M  END
$$$$
