FTL.pdb
 OpenBabel07022419013D

 55 55  0  0  1  0  0  0  0  0999 V2000
    2.4600   -2.5230    2.3280 N   0  0  0  0  0  0  0  0  0  0  0  0
    1.4310   -1.5360    2.6060 C   0  0  1  0  0  0  0  0  0  0  0  0
    1.9620   -0.4620    3.5180 C   0  0  0  0  0  0  0  0  0  0  0  0
    3.1200    0.2450    2.9630 C   0  0  0  0  0  0  0  0  0  0  0  0
    3.0950    1.3910    2.2150 C   0  0  0  0  0  0  0  0  0  0  0  0
    4.2160    2.0140    1.7110 C   0  0  0  0  0  0  0  0  0  0  0  0
    5.4450    1.4600    1.9680 C   0  0  0  0  0  0  0  0  0  0  0  0
    5.5250    0.3040    2.7190 C   0  0  0  0  0  0  0  0  0  0  0  0
    4.3830   -0.3020    3.2130 C   0  0  0  0  0  0  0  0  0  0  0  0
    0.9150   -0.9730    1.3420 C   0  0  0  0  0  0  0  0  0  0  0  0
    1.4670   -1.2250    0.2230 O   0  0  0  0  0  0  0  0  0  0  0  0
    2.7990   -2.8450    3.2840 H   0  0  0  0  0  0  0  0  0  0  0  0
    2.0660   -3.3840    1.8910 H   0  0  0  0  0  0  0  0  0  0  0  0
    0.6200   -2.1090    3.1530 H   0  0  0  0  0  0  0  0  0  0  0  0
    1.1300    0.2530    3.7690 H   0  0  0  0  0  0  0  0  0  0  0  0
    2.2530   -0.9490    4.4760 H   0  0  0  0  0  0  0  0  0  0  0  0
    2.1390    1.8280    2.0170 H   0  0  0  0  0  0  0  0  0  0  0  0
    4.1640    2.9230    1.1200 H   0  0  0  0  0  0  0  0  0  0  0  0
    6.3420    1.9450    1.5740 H   0  0  0  0  0  0  0  0  0  0  0  0
    6.4870   -0.1510    2.9350 H   0  0  0  0  0  0  0  0  0  0  0  0
    4.4670   -1.1970    3.7930 H   0  0  0  0  0  0  0  0  0  0  0  0
    0.0620    2.7330    0.3100 C   0  0  0  0  0  0  0  0  0  0  0  0
    0.0220    1.4970   -0.5550 C   0  0  1  0  0  0  0  0  0  0  0  0
    1.2440    1.0470   -0.9720 O   0  0  0  0  0  0  0  0  0  0  0  0
   -0.8180    0.4520    0.1400 C   0  0  2  0  0  0  0  0  0  0  0  0
   -0.2300   -0.1260    1.3050 N   0  0  0  0  0  0  0  0  0  0  0  0
   -1.3970   -0.5480   -0.8080 C   0  0  0  0  0  0  0  0  0  0  0  0
   -1.8530   -0.1930   -1.9310 O   0  0  0  0  0  0  0  0  0  0  0  0
   -0.7740    3.4420    0.0650 H   0  0  0  0  0  0  0  0  0  0  0  0
   -0.0850    2.4840    1.3960 H   0  0  0  0  0  0  0  0  0  0  0  0
    1.0340    3.2760    0.2400 H   0  0  0  0  0  0  0  0  0  0  0  0
   -0.5650    1.7990   -1.4700 H   0  0  0  0  0  0  0  0  0  0  0  0
    1.6190    1.6960   -1.6060 H   0  0  0  0  0  0  0  0  0  0  0  0
   -1.6990    1.0810    0.5520 H   0  0  0  0  0  0  0  0  0  0  0  0
   -0.6530    0.0660    2.2550 H   0  0  0  0  0  0  0  0  0  0  0  0
   -4.3740   -1.1810   -0.2360 C   0  0  0  0  0  0  0  0  0  0  0  0
   -4.4230   -2.3330   -1.1600 C   0  0  0  0  0  0  0  0  0  0  0  0
   -5.6170   -2.1550   -2.1160 C   0  0  0  0  0  0  0  0  0  0  0  0
   -3.2440   -2.6500   -1.9880 C   0  0  0  0  0  0  0  0  0  0  0  0
   -1.9660   -2.9610   -1.2410 C   0  0  2  0  0  0  0  0  0  0  0  0
   -1.4390   -1.9100   -0.4450 N   0  0  0  0  0  0  0  0  0  0  0  0
   -1.0280   -3.6280   -2.1430 C   0  0  0  0  0  0  0  0  0  0  0  0
   -1.3310   -4.5630   -2.9030 O   0  0  0  0  0  0  0  0  0  0  0  0
    0.2960   -3.1910   -2.1570 O   0  0  0  0  0  0  0  0  0  0  0  0
   -3.7150   -1.3870    0.6450 H   0  0  0  0  0  0  0  0  0  0  0  0
   -5.4070   -1.1400    0.2490 H   0  0  0  0  0  0  0  0  0  0  0  0
   -4.2600   -0.1870   -0.6720 H   0  0  0  0  0  0  0  0  0  0  0  0
   -4.7490   -3.2230   -0.5310 H   0  0  0  0  0  0  0  0  0  0  0  0
   -5.8300   -3.1600   -2.5370 H   0  0  0  0  0  0  0  0  0  0  0  0
   -5.2720   -1.5220   -2.9780 H   0  0  0  0  0  0  0  0  0  0  0  0
   -6.4760   -1.7110   -1.6140 H   0  0  0  0  0  0  0  0  0  0  0  0
   -3.1030   -1.9370   -2.8260 H   0  0  0  0  0  0  0  0  0  0  0  0
   -3.4850   -3.6220   -2.5240 H   0  0  0  0  0  0  0  0  0  0  0  0
   -2.3310   -3.7620   -0.5010 H   0  0  0  0  0  0  0  0  0  0  0  0
   -1.0480   -2.1600    0.5130 H   0  0  0  0  0  0  0  0  0  0  0  0
  1  2  1  0  0  0  0
  1 12  1  0  0  0  0
  2 14  1  1  0  0  0
  2  3  1  0  0  0  0
  3 15  1  0  0  0  0
  3 16  1  0  0  0  0
  4  9  1  0  0  0  0
  4  3  1  0  0  0  0
  5  4  2  0  0  0  0
  6  7  2  0  0  0  0
  6  5  1  0  0  0  0
  7  8  1  0  0  0  0
  8 20  1  0  0  0  0
  8  9  2  0  0  0  0
  9 21  1  0  0  0  0
 10  2  1  0  0  0  0
 11 10  2  0  0  0  0
 13  1  1  0  0  0  0
 17  5  1  0  0  0  0
 18  6  1  0  0  0  0
 19  7  1  0  0  0  0
 22 30  1  0  0  0  0
 23 32  1  6  0  0  0
 23 25  1  0  0  0  0
 23 22  1  0  0  0  0
 24 23  1  0  0  0  0
 25 34  1  1  0  0  0
 25 26  1  0  0  0  0
 26 10  1  0  0  0  0
 26 35  1  0  0  0  0
 27 41  1  0  0  0  0
 27 25  1  0  0  0  0
 28 27  2  0  0  0  0
 29 22  1  0  0  0  0
 31 22  1  0  0  0  0
 33 24  1  0  0  0  0
 36 46  1  0  0  0  0
 36 45  1  0  0  0  0
 37 48  1  0  0  0  0
 37 36  1  0  0  0  0
 38 51  1  0  0  0  0
 38 37  1  0  0  0  0
 39 40  1  0  0  0  0
 39 37  1  0  0  0  0
 40 54  1  1  0  0  0
 40 41  1  0  0  0  0
 41 55  1  0  0  0  0
 42 40  1  0  0  0  0
 43 42  2  0  0  0  0
 44 42  1  0  0  0  0
 47 36  1  0  0  0  0
 49 38  1  0  0  0  0
 50 38  1  0  0  0  0
 52 39  1  0  0  0  0
 53 39  1  0  0  0  0
M  END
$$$$
