FTM.pdb
 OpenBabel07022419013D

 53 53  0  0  1  0  0  0  0  0999 V2000
    0.5580    1.4680   -2.5860 N   0  0  0  0  0  0  0  0  0  0  0  0
    1.0620    0.1350   -2.7960 C   0  0  1  0  0  0  0  0  0  0  0  0
    2.4750    0.1660   -3.3700 C   0  0  0  0  0  0  0  0  0  0  0  0
    3.3440    0.8680   -2.4200 C   0  0  0  0  0  0  0  0  0  0  0  0
    3.5020    2.2310   -2.5210 C   0  0  0  0  0  0  0  0  0  0  0  0
    4.3270    2.9260   -1.6260 C   0  0  0  0  0  0  0  0  0  0  0  0
    4.9630    2.1900   -0.6530 C   0  0  0  0  0  0  0  0  0  0  0  0
    4.8330    0.8180   -0.5160 C   0  0  0  0  0  0  0  0  0  0  0  0
    3.9990    0.1740   -1.4340 C   0  0  0  0  0  0  0  0  0  0  0  0
    0.9680   -0.7110   -1.5870 C   0  0  0  0  0  0  0  0  0  0  0  0
    1.3690   -1.9020   -1.6610 O   0  0  0  0  0  0  0  0  0  0  0  0
    0.9310    1.9510   -1.7640 H   0  0  0  0  0  0  0  0  0  0  0  0
   -0.4840    1.4840   -2.5340 H   0  0  0  0  0  0  0  0  0  0  0  0
    0.4290   -0.3390   -3.5770 H   0  0  0  0  0  0  0  0  0  0  0  0
    2.4070    0.6220   -4.3590 H   0  0  0  0  0  0  0  0  0  0  0  0
    2.7690   -0.8950   -3.5030 H   0  0  0  0  0  0  0  0  0  0  0  0
    3.0030    2.8120   -3.2840 H   0  0  0  0  0  0  0  0  0  0  0  0
    4.4230    3.9920   -1.7390 H   0  0  0  0  0  0  0  0  0  0  0  0
    5.6060    2.7050    0.0500 H   0  0  0  0  0  0  0  0  0  0  0  0
    5.3550    0.2850    0.2660 H   0  0  0  0  0  0  0  0  0  0  0  0
    3.9010   -0.8960   -1.3220 H   0  0  0  0  0  0  0  0  0  0  0  0
    1.0790    0.8580    2.2290 C   0  0  0  0  0  0  0  0  0  0  0  0
    1.2800   -0.6100    1.9260 C   0  0  1  0  0  0  0  0  0  0  0  0
    1.2020   -1.4130    3.0260 O   0  0  0  0  0  0  0  0  0  0  0  0
    0.3670   -1.1110    0.8390 C   0  0  2  0  0  0  0  0  0  0  0  0
    0.4500   -0.2560   -0.3430 N   0  0  0  0  0  0  0  0  0  0  0  0
   -1.0300   -1.2650    1.2170 C   0  0  0  0  0  0  0  0  0  0  0  0
   -1.9160   -0.6650    0.5360 O   0  0  0  0  0  0  0  0  0  0  0  0
    0.2470    1.2920    1.6350 H   0  0  0  0  0  0  0  0  0  0  0  0
    0.9090    1.0150    3.3350 H   0  0  0  0  0  0  0  0  0  0  0  0
    1.9770    1.4730    1.9980 H   0  0  0  0  0  0  0  0  0  0  0  0
    2.3200   -0.7010    1.5140 H   0  0  0  0  0  0  0  0  0  0  0  0
    1.0260   -0.9510    3.8740 H   0  0  0  0  0  0  0  0  0  0  0  0
    0.7750   -2.1070    0.5210 H   0  0  0  0  0  0  0  0  0  0  0  0
    0.1270    0.7480   -0.3270 H   0  0  0  0  0  0  0  0  0  0  0  0
   -5.6190   -3.4090    0.0700 C   0  0  0  0  0  0  0  0  0  0  0  0
   -5.8010   -2.6690    1.7360 S   0  0  0  0  0  0  0  0  0  0  0  0
   -4.8100   -3.7180    2.8590 C   0  0  0  0  0  0  0  0  0  0  0  0
   -3.3580   -3.5980    2.5150 C   0  0  0  0  0  0  0  0  0  0  0  0
   -2.9170   -2.1600    2.6370 C   0  0  2  0  0  0  0  0  0  0  0  0
   -1.5050   -2.0350    2.2930 N   0  0  0  0  0  0  0  0  0  0  0  0
   -3.1080   -1.6100    3.9900 C   0  0  0  0  0  0  0  0  0  0  0  0
   -4.2020   -1.5120    4.5920 O   0  0  0  0  0  0  0  0  0  0  0  0
   -1.9990   -1.1520    4.6850 O   0  0  0  0  0  0  0  0  0  0  0  0
   -4.5310   -3.5700   -0.0940 H   0  0  0  0  0  0  0  0  0  0  0  0
   -6.0880   -2.7650   -0.6800 H   0  0  0  0  0  0  0  0  0  0  0  0
   -6.1340   -4.4060    0.0610 H   0  0  0  0  0  0  0  0  0  0  0  0
   -5.1790   -4.7760    2.7010 H   0  0  0  0  0  0  0  0  0  0  0  0
   -5.0830   -3.4660    3.8760 H   0  0  0  0  0  0  0  0  0  0  0  0
   -2.7530   -4.2410    3.2100 H   0  0  0  0  0  0  0  0  0  0  0  0
   -3.1700   -3.9350    1.4690 H   0  0  0  0  0  0  0  0  0  0  0  0
   -3.5580   -1.5730    1.9490 H   0  0  0  0  0  0  0  0  0  0  0  0
   -0.8160   -2.5410    2.8710 H   0  0  0  0  0  0  0  0  0  0  0  0
  1 13  1  0  0  0  0
  1 12  1  0  0  0  0
  2 14  1  6  0  0  0
  2  1  1  0  0  0  0
  2 10  1  0  0  0  0
  3  2  1  0  0  0  0
  3  4  1  0  0  0  0
  4  9  1  0  0  0  0
  5  4  2  0  0  0  0
  5  6  1  0  0  0  0
  6  7  2  0  0  0  0
  7  8  1  0  0  0  0
  7 19  1  0  0  0  0
  8 20  1  0  0  0  0
  9 21  1  0  0  0  0
  9  8  2  0  0  0  0
 10 26  1  0  0  0  0
 11 10  2  0  0  0  0
 15  3  1  0  0  0  0
 16  3  1  0  0  0  0
 17  5  1  0  0  0  0
 18  6  1  0  0  0  0
 22 30  1  0  0  0  0
 23 32  1  6  0  0  0
 23 22  1  0  0  0  0
 23 24  1  0  0  0  0
 24 33  1  0  0  0  0
 25 34  1  6  0  0  0
 25 27  1  0  0  0  0
 25 23  1  0  0  0  0
 26 35  1  0  0  0  0
 26 25  1  0  0  0  0
 27 41  1  0  0  0  0
 28 27  2  0  0  0  0
 29 22  1  0  0  0  0
 31 22  1  0  0  0  0
 36 37  1  0  0  0  0
 37 38  1  0  0  0  0
 38 49  1  0  0  0  0
 39 40  1  0  0  0  0
 39 38  1  0  0  0  0
 39 50  1  0  0  0  0
 40 52  1  6  0  0  0
 40 42  1  0  0  0  0
 41 40  1  0  0  0  0
 41 53  1  0  0  0  0
 42 43  2  0  0  0  0
 42 44  1  0  0  0  0
 45 36  1  0  0  0  0
 46 36  1  0  0  0  0
 47 36  1  0  0  0  0
 48 38  1  0  0  0  0
 51 39  1  0  0  0  0
M  END
$$$$
