FTQ.pdb
 OpenBabel07022419013D

 53 53  0  0  1  0  0  0  0  0999 V2000
    2.1530   -0.6370    0.2900 N   0  0  0  0  0  0  0  0  0  0  0  0
    2.0630   -0.0690    1.6320 C   0  0  1  0  0  0  0  0  0  0  0  0
    2.5710    1.3530    1.5050 C   0  0  0  0  0  0  0  0  0  0  0  0
    3.9700    1.3740    1.0240 C   0  0  0  0  0  0  0  0  0  0  0  0
    4.2490    1.3780   -0.3200 C   0  0  0  0  0  0  0  0  0  0  0  0
    5.5480    1.4090   -0.7790 C   0  0  0  0  0  0  0  0  0  0  0  0
    6.6140    1.4360    0.0950 C   0  0  0  0  0  0  0  0  0  0  0  0
    6.2980    1.4300    1.4360 C   0  0  0  0  0  0  0  0  0  0  0  0
    5.0110    1.3990    1.9280 C   0  0  0  0  0  0  0  0  0  0  0  0
    0.6570   -0.0100    2.1100 C   0  0  0  0  0  0  0  0  0  0  0  0
    0.4630    0.3510    3.2970 O   0  0  0  0  0  0  0  0  0  0  0  0
    1.7960   -1.6100    0.3230 H   0  0  0  0  0  0  0  0  0  0  0  0
    1.5970   -0.0190   -0.3320 H   0  0  0  0  0  0  0  0  0  0  0  0
    2.6870   -0.6560    2.3150 H   0  0  0  0  0  0  0  0  0  0  0  0
    1.9330    1.8710    0.7630 H   0  0  0  0  0  0  0  0  0  0  0  0
    2.4680    1.8970    2.4650 H   0  0  0  0  0  0  0  0  0  0  0  0
    3.4330    1.3560   -1.0360 H   0  0  0  0  0  0  0  0  0  0  0  0
    5.7580    1.4120   -1.8400 H   0  0  0  0  0  0  0  0  0  0  0  0
    7.6570    1.4590   -0.2330 H   0  0  0  0  0  0  0  0  0  0  0  0
    7.1180    1.4510    2.1610 H   0  0  0  0  0  0  0  0  0  0  0  0
    4.7960    1.3980    2.9990 H   0  0  0  0  0  0  0  0  0  0  0  0
   -1.6270    2.1680    1.6070 C   0  0  0  0  0  0  0  0  0  0  0  0
   -2.4880    0.9610    1.2090 C   0  0  1  0  0  0  0  0  0  0  0  0
   -2.5300    0.9700   -0.1710 O   0  0  0  0  0  0  0  0  0  0  0  0
   -1.8220   -0.2670    1.7960 C   0  0  2  0  0  0  0  0  0  0  0  0
   -0.4610   -0.3310    1.3130 N   0  0  0  0  0  0  0  0  0  0  0  0
   -2.6080   -1.4830    1.4840 C   0  0  0  0  0  0  0  0  0  0  0  0
   -3.8060   -1.5240    1.7940 O   0  0  0  0  0  0  0  0  0  0  0  0
   -1.6830    2.2750    2.6990 H   0  0  0  0  0  0  0  0  0  0  0  0
   -0.5800    1.9620    1.2820 H   0  0  0  0  0  0  0  0  0  0  0  0
   -2.0010    3.0800    1.1280 H   0  0  0  0  0  0  0  0  0  0  0  0
   -3.5040    1.1160    1.5850 H   0  0  0  0  0  0  0  0  0  0  0  0
   -2.2510    1.8300   -0.5820 H   0  0  0  0  0  0  0  0  0  0  0  0
   -1.7750   -0.0530    2.9000 H   0  0  0  0  0  0  0  0  0  0  0  0
   -0.2460   -0.6310    0.3130 H   0  0  0  0  0  0  0  0  0  0  0  0
   -3.8910   -0.9020   -2.5930 N   0  0  0  0  0  0  0  0  0  0  0  0
   -3.0610   -1.9200   -2.0070 C   0  0  0  0  0  0  0  0  0  0  0  0
   -1.9000   -1.6360   -1.6790 O   0  0  0  0  0  0  0  0  0  0  0  0
   -3.6070   -3.2520   -1.8200 C   0  0  0  0  0  0  0  0  0  0  0  0
   -2.8530   -4.1860   -0.9360 C   0  0  0  0  0  0  0  0  0  0  0  0
   -2.7020   -3.8090    0.4880 C   0  0  2  0  0  0  0  0  0  0  0  0
   -2.0430   -2.6170    0.8370 N   0  0  0  0  0  0  0  0  0  0  0  0
   -2.2270   -4.9990    1.2610 C   0  0  0  0  0  0  0  0  0  0  0  0
   -1.3440   -4.8540    2.1160 O   0  0  0  0  0  0  0  0  0  0  0  0
   -2.7610   -6.2370    1.0270 O   0  0  0  0  0  0  0  0  0  0  0  0
   -4.7780   -0.6450   -2.1250 H   0  0  0  0  0  0  0  0  0  0  0  0
   -3.5730   -0.4630   -3.4600 H   0  0  0  0  0  0  0  0  0  0  0  0
   -3.6990   -3.7810   -2.8280 H   0  0  0  0  0  0  0  0  0  0  0  0
   -4.6610   -3.2390   -1.4320 H   0  0  0  0  0  0  0  0  0  0  0  0
   -3.4920   -5.1330   -0.9200 H   0  0  0  0  0  0  0  0  0  0  0  0
   -1.9120   -4.5640   -1.4040 H   0  0  0  0  0  0  0  0  0  0  0  0
   -3.7790   -3.6980    0.8580 H   0  0  0  0  0  0  0  0  0  0  0  0
   -1.0000   -2.5210    0.6340 H   0  0  0  0  0  0  0  0  0  0  0  0
  1 12  1  0  0  0  0
  1  2  1  0  0  0  0
  2 10  1  0  0  0  0
  2 14  1  1  0  0  0
  3  2  1  0  0  0  0
  3 16  1  0  0  0  0
  4  3  1  0  0  0  0
  4  9  1  0  0  0  0
  5  4  2  0  0  0  0
  6  5  1  0  0  0  0
  6  7  2  0  0  0  0
  7  8  1  0  0  0  0
  8  9  2  0  0  0  0
  8 20  1  0  0  0  0
  9 21  1  0  0  0  0
 10 11  2  0  0  0  0
 13  1  1  0  0  0  0
 15  3  1  0  0  0  0
 17  5  1  0  0  0  0
 18  6  1  0  0  0  0
 19  7  1  0  0  0  0
 22 29  1  0  0  0  0
 23 32  1  1  0  0  0
 23 22  1  0  0  0  0
 23 25  1  0  0  0  0
 24 23  1  0  0  0  0
 25 34  1  1  0  0  0
 26 25  1  0  0  0  0
 26 10  1  0  0  0  0
 27 28  2  0  0  0  0
 27 25  1  0  0  0  0
 30 22  1  0  0  0  0
 31 22  1  0  0  0  0
 33 24  1  0  0  0  0
 35 26  1  0  0  0  0
 36 46  1  0  0  0  0
 36 37  1  0  0  0  0
 37 39  1  0  0  0  0
 37 38  2  0  0  0  0
 39 49  1  0  0  0  0
 39 40  1  0  0  0  0
 40 50  1  0  0  0  0
 40 41  1  0  0  0  0
 41 42  1  0  0  0  0
 41 52  1  1  0  0  0
 41 43  1  0  0  0  0
 42 27  1  0  0  0  0
 43 44  1  0  0  0  0
 45 43  2  0  0  0  0
 47 36  1  0  0  0  0
 48 39  1  0  0  0  0
 51 40  1  0  0  0  0
 53 42  1  0  0  0  0
M  END
$$$$
