FTR.pdb
 OpenBabel07022419013D

 59 59  0  0  1  0  0  0  0  0999 V2000
    4.4600    1.3990    1.4550 N   0  0  0  0  0  0  0  0  0  0  0  0
    2.9670    1.4800    1.3420 C   0  0  1  0  0  0  0  0  0  0  0  0
    2.6540    1.9420   -0.0050 C   0  0  0  0  0  0  0  0  0  0  0  0
    1.2910    2.1570   -0.4260 C   0  0  0  0  0  0  0  0  0  0  0  0
    0.6460    3.3400   -0.0790 C   0  0  0  0  0  0  0  0  0  0  0  0
   -0.6450    3.6220   -0.5180 C   0  0  0  0  0  0  0  0  0  0  0  0
   -1.3070    2.7280   -1.3100 C   0  0  0  0  0  0  0  0  0  0  0  0
   -0.6820    1.5580   -1.6600 C   0  0  0  0  0  0  0  0  0  0  0  0
    0.6060    1.2810   -1.2180 C   0  0  0  0  0  0  0  0  0  0  0  0
    2.3820    0.3000    1.9400 C   0  0  0  0  0  0  0  0  0  0  0  0
    3.1740   -0.5220    2.5810 O   0  0  0  0  0  0  0  0  0  0  0  0
    4.7460    0.5590    0.8750 H   0  0  0  0  0  0  0  0  0  0  0  0
    4.8650    2.2230    0.9170 H   0  0  0  0  0  0  0  0  0  0  0  0
    2.7560    2.3570    2.0470 H   0  0  0  0  0  0  0  0  0  0  0  0
    3.2120    2.9380   -0.1480 H   0  0  0  0  0  0  0  0  0  0  0  0
    3.2300    1.2870   -0.7380 H   0  0  0  0  0  0  0  0  0  0  0  0
    1.1270    4.0870    0.5490 H   0  0  0  0  0  0  0  0  0  0  0  0
   -1.1560    4.5370   -0.2550 H   0  0  0  0  0  0  0  0  0  0  0  0
   -2.3190    2.9620   -1.6470 H   0  0  0  0  0  0  0  0  0  0  0  0
   -1.2410    0.8860   -2.2930 H   0  0  0  0  0  0  0  0  0  0  0  0
    1.0330    0.3350   -1.5390 H   0  0  0  0  0  0  0  0  0  0  0  0
   -0.1540   -0.1060    4.6810 C   0  0  0  0  0  0  0  0  0  0  0  0
   -0.5290   -1.1010    3.5760 C   0  0  1  0  0  0  0  0  0  0  0  0
   -1.5970   -0.6420    2.8390 O   0  0  0  0  0  0  0  0  0  0  0  0
    0.6340   -1.3430    2.6520 C   0  0  2  0  0  0  0  0  0  0  0  0
    1.0350   -0.1320    1.9550 N   0  0  0  0  0  0  0  0  0  0  0  0
    0.4290   -2.5110    1.8490 C   0  0  0  0  0  0  0  0  0  0  0  0
    0.1030   -3.5860    2.4830 O   0  0  0  0  0  0  0  0  0  0  0  0
   -0.5320   -0.4340    5.6670 H   0  0  0  0  0  0  0  0  0  0  0  0
    0.9680    0.0120    4.6800 H   0  0  0  0  0  0  0  0  0  0  0  0
   -0.6160    0.8960    4.4840 H   0  0  0  0  0  0  0  0  0  0  0  0
   -0.8530   -2.0220    4.0950 H   0  0  0  0  0  0  0  0  0  0  0  0
   -2.2740   -1.3490    2.6400 H   0  0  0  0  0  0  0  0  0  0  0  0
    1.4910   -1.6330    3.3750 H   0  0  0  0  0  0  0  0  0  0  0  0
    0.3550    0.4700    1.4520 H   0  0  0  0  0  0  0  0  0  0  0  0
   -4.6770   -1.8260    0.5160 N   0  0  0  0  0  0  0  0  0  0  0  0
   -3.9320   -1.8140   -0.7020 C   0  0  0  0  0  0  0  0  0  0  0  0
   -4.5250   -2.0090   -1.8020 N   0  0  0  0  0  0  0  0  0  0  0  0
   -2.5480   -1.5850   -0.6530 N   0  0  0  0  0  0  0  0  0  0  0  0
   -1.6060   -1.8950   -1.7110 C   0  0  0  0  0  0  0  0  0  0  0  0
   -1.4590   -3.3690   -1.9100 C   0  0  0  0  0  0  0  0  0  0  0  0
   -1.0240   -4.1960   -0.7810 C   0  0  0  0  0  0  0  0  0  0  0  0
    0.3020   -3.9870   -0.1610 C   0  0  2  0  0  0  0  0  0  0  0  0
    0.5280   -2.7040    0.4400 N   0  0  0  0  0  0  0  0  0  0  0  0
    1.4080   -4.3240   -1.1280 C   0  0  0  0  0  0  0  0  0  0  0  0
    1.3770   -5.4130   -1.7510 O   0  0  0  0  0  0  0  0  0  0  0  0
    2.4490   -3.4280   -1.3190 O   0  0  0  0  0  0  0  0  0  0  0  0
   -5.5860   -2.3400    0.5780 H   0  0  0  0  0  0  0  0  0  0  0  0
   -4.3100   -1.3170    1.3520 H   0  0  0  0  0  0  0  0  0  0  0  0
   -4.0350   -2.0100   -2.7080 H   0  0  0  0  0  0  0  0  0  0  0  0
   -2.1490   -1.1520    0.2220 H   0  0  0  0  0  0  0  0  0  0  0  0
   -2.1180   -1.4660   -2.6510 H   0  0  0  0  0  0  0  0  0  0  0  0
   -0.6710   -1.3280   -1.6650 H   0  0  0  0  0  0  0  0  0  0  0  0
   -2.4750   -3.7540   -2.2440 H   0  0  0  0  0  0  0  0  0  0  0  0
   -0.8120   -3.5510   -2.8380 H   0  0  0  0  0  0  0  0  0  0  0  0
   -1.7880   -4.1010    0.0770 H   0  0  0  0  0  0  0  0  0  0  0  0
   -1.1540   -5.3120   -1.0230 H   0  0  0  0  0  0  0  0  0  0  0  0
    0.3590   -4.8000    0.6510 H   0  0  0  0  0  0  0  0  0  0  0  0
    0.7940   -1.8940   -0.1220 H   0  0  0  0  0  0  0  0  0  0  0  0
  2  1  1  0  0  0  0
  2 10  1  0  0  0  0
  2 14  1  1  0  0  0
  3  2  1  0  0  0  0
  4  5  1  0  0  0  0
  4  3  1  0  0  0  0
  5 17  1  0  0  0  0
  6 18  1  0  0  0  0
  6  5  2  0  0  0  0
  7  6  1  0  0  0  0
  8  7  2  0  0  0  0
  8  9  1  0  0  0  0
  9  4  2  0  0  0  0
 10 26  1  0  0  0  0
 10 11  2  0  0  0  0
 12  1  1  0  0  0  0
 13  1  1  0  0  0  0
 15  3  1  0  0  0  0
 16  3  1  0  0  0  0
 19  7  1  0  0  0  0
 20  8  1  0  0  0  0
 21  9  1  0  0  0  0
 22 29  1  0  0  0  0
 23 32  1  1  0  0  0
 23 22  1  0  0  0  0
 24 23  1  0  0  0  0
 25 34  1  1  0  0  0
 25 23  1  0  0  0  0
 26 25  1  0  0  0  0
 27 28  2  0  0  0  0
 27 25  1  0  0  0  0
 30 22  1  0  0  0  0
 31 22  1  0  0  0  0
 33 24  1  0  0  0  0
 35 26  1  0  0  0  0
 36 48  1  0  0  0  0
 36 49  1  0  0  0  0
 37 39  1  0  0  0  0
 37 36  1  0  0  0  0
 38 37  2  0  0  0  0
 39 51  1  0  0  0  0
 40 53  1  0  0  0  0
 40 39  1  0  0  0  0
 41 40  1  0  0  0  0
 41 42  1  0  0  0  0
 42 43  1  0  0  0  0
 42 56  1  0  0  0  0
 43 44  1  0  0  0  0
 43 58  1  1  0  0  0
 44 27  1  0  0  0  0
 45 43  1  0  0  0  0
 46 45  2  0  0  0  0
 47 45  1  0  0  0  0
 50 38  1  0  0  0  0
 52 40  1  0  0  0  0
 54 41  1  0  0  0  0
 55 41  1  0  0  0  0
 57 42  1  0  0  0  0
 59 44  1  0  0  0  0
M  END
$$$$
