FTW.pdb
 OpenBabel07022419013D

 60 62  0  0  1  0  0  0  0  0999 V2000
    2.9070    0.7300    0.3890 N   0  0  0  0  0  0  0  0  0  0  0  0
    2.4100   -0.0270    1.4950 C   0  0  1  0  0  0  0  0  0  0  0  0
    2.9600    0.4710    2.8200 C   0  0  0  0  0  0  0  0  0  0  0  0
    4.4350    0.3410    2.7660 C   0  0  0  0  0  0  0  0  0  0  0  0
    5.0700   -0.8180    3.1840 C   0  0  0  0  0  0  0  0  0  0  0  0
    6.4440   -0.9450    3.1360 C   0  0  0  0  0  0  0  0  0  0  0  0
    7.2380    0.0780    2.6690 C   0  0  0  0  0  0  0  0  0  0  0  0
    6.6200    1.2370    2.2490 C   0  0  0  0  0  0  0  0  0  0  0  0
    5.2290    1.3610    2.3000 C   0  0  0  0  0  0  0  0  0  0  0  0
    0.9360   -0.1340    1.5180 C   0  0  0  0  0  0  0  0  0  0  0  0
    0.3430   -0.7870    2.4300 O   0  0  0  0  0  0  0  0  0  0  0  0
    2.4440    0.5470   -0.5050 H   0  0  0  0  0  0  0  0  0  0  0  0
    3.9300    0.5550    0.2400 H   0  0  0  0  0  0  0  0  0  0  0  0
    2.7990   -1.0770    1.3840 H   0  0  0  0  0  0  0  0  0  0  0  0
    2.6090   -0.1400    3.6600 H   0  0  0  0  0  0  0  0  0  0  0  0
    2.6880    1.5290    3.0060 H   0  0  0  0  0  0  0  0  0  0  0  0
    4.4330   -1.6300    3.5550 H   0  0  0  0  0  0  0  0  0  0  0  0
    6.9120   -1.8580    3.4680 H   0  0  0  0  0  0  0  0  0  0  0  0
    8.3280    0.0040    2.6210 H   0  0  0  0  0  0  0  0  0  0  0  0
    7.2580    2.0300    1.8860 H   0  0  0  0  0  0  0  0  0  0  0  0
    4.7630    2.2680    1.9700 H   0  0  0  0  0  0  0  0  0  0  0  0
   -3.3770    1.7490    1.0620 C   0  0  0  0  0  0  0  0  0  0  0  0
   -1.8840    1.7340    0.9460 C   0  0  1  0  0  0  0  0  0  0  0  0
   -1.2940    2.1820    2.1380 O   0  0  0  0  0  0  0  0  0  0  0  0
   -1.3820    0.3140    0.6410 C   0  0  2  0  0  0  0  0  0  0  0  0
    0.0940    0.4700    0.5470 N   0  0  0  0  0  0  0  0  0  0  0  0
   -1.9150   -0.0980   -0.6610 C   0  0  0  0  0  0  0  0  0  0  0  0
   -1.1530   -0.1070   -1.7000 O   0  0  0  0  0  0  0  0  0  0  0  0
   -3.9000    1.7780    0.0950 H   0  0  0  0  0  0  0  0  0  0  0  0
   -3.6530    2.7110    1.5860 H   0  0  0  0  0  0  0  0  0  0  0  0
   -3.7920    0.9050    1.6510 H   0  0  0  0  0  0  0  0  0  0  0  0
   -1.5600    2.3860    0.1280 H   0  0  0  0  0  0  0  0  0  0  0  0
   -1.6590    1.7250    2.9240 H   0  0  0  0  0  0  0  0  0  0  0  0
   -1.6780   -0.2990    1.5020 H   0  0  0  0  0  0  0  0  0  0  0  0
    0.4850    1.0240   -0.2360 H   0  0  0  0  0  0  0  0  0  0  0  0
   -3.2380   -0.5170   -0.9490 N   0  0  0  0  0  0  0  0  0  0  0  0
   -3.6780   -0.9040   -2.2670 C   0  0  1  0  0  0  0  0  0  0  0  0
   -3.9700   -2.3800   -2.2650 C   0  0  0  0  0  0  0  0  0  0  0  0
   -2.7310   -3.1200   -1.9120 C   0  0  0  0  0  0  0  0  0  0  0  0
   -1.8410   -3.6470   -2.8530 C   0  0  0  0  0  0  0  0  0  0  0  0
   -0.7940   -4.2240   -2.2520 N   0  0  0  0  0  0  0  0  0  0  0  0
   -0.9800   -4.0860   -0.9480 C   0  0  0  0  0  0  0  0  0  0  0  0
   -0.1790   -4.5240    0.0890 C   0  0  0  0  0  0  0  0  0  0  0  0
   -0.5990   -4.2670    1.3980 C   0  0  0  0  0  0  0  0  0  0  0  0
   -1.7790   -3.5960    1.6380 C   0  0  0  0  0  0  0  0  0  0  0  0
   -2.5740   -3.1610    0.6050 C   0  0  0  0  0  0  0  0  0  0  0  0
   -2.1750   -3.4040   -0.6890 C   0  0  0  0  0  0  0  0  0  0  0  0
   -4.8960   -0.1610   -2.6820 C   0  0  0  0  0  0  0  0  0  0  0  0
   -5.4140    0.6830   -1.9080 O   0  0  0  0  0  0  0  0  0  0  0  0
   -5.5110   -0.3480   -3.9030 O   0  0  0  0  0  0  0  0  0  0  0  0
   -3.9280   -0.5530   -0.1760 H   0  0  0  0  0  0  0  0  0  0  0  0
   -2.8830   -0.7360   -3.0340 H   0  0  0  0  0  0  0  0  0  0  0  0
   -4.7410   -2.5940   -1.4920 H   0  0  0  0  0  0  0  0  0  0  0  0
   -4.3100   -2.6730   -3.2780 H   0  0  0  0  0  0  0  0  0  0  0  0
   -2.0080   -3.5800   -3.9280 H   0  0  0  0  0  0  0  0  0  0  0  0
   -0.0160   -4.6770   -2.7960 H   0  0  0  0  0  0  0  0  0  0  0  0
    0.7500   -5.0520   -0.1160 H   0  0  0  0  0  0  0  0  0  0  0  0
    0.0550   -4.6250    2.1780 H   0  0  0  0  0  0  0  0  0  0  0  0
   -2.0580   -3.4240    2.6630 H   0  0  0  0  0  0  0  0  0  0  0  0
   -3.5000   -2.6520    0.7720 H   0  0  0  0  0  0  0  0  0  0  0  0
  1  2  1  0  0  0  0
  2 14  1  6  0  0  0
  2 10  1  0  0  0  0
  2  3  1  0  0  0  0
  3 16  1  0  0  0  0
  3 15  1  0  0  0  0
  4  3  1  0  0  0  0
  4  5  1  0  0  0  0
  5 17  1  0  0  0  0
  6  5  2  0  0  0  0
  6 18  1  0  0  0  0
  7  6  1  0  0  0  0
  8  9  1  0  0  0  0
  8  7  2  0  0  0  0
  9  4  2  0  0  0  0
 10 11  2  0  0  0  0
 12  1  1  0  0  0  0
 13  1  1  0  0  0  0
 19  7  1  0  0  0  0
 20  8  1  0  0  0  0
 21  9  1  0  0  0  0
 22 30  1  0  0  0  0
 22 31  1  0  0  0  0
 23 32  1  6  0  0  0
 23 22  1  0  0  0  0
 23 24  1  0  0  0  0
 24 33  1  0  0  0  0
 25 23  1  0  0  0  0
 25 34  1  1  0  0  0
 26 25  1  0  0  0  0
 26 10  1  0  0  0  0
 27 25  1  0  0  0  0
 28 27  2  0  0  0  0
 29 22  1  0  0  0  0
 35 26  1  0  0  0  0
 36 27  1  0  0  0  0
 36 51  1  0  0  0  0
 37 52  1  6  0  0  0
 37 38  1  0  0  0  0
 37 36  1  0  0  0  0
 38 39  1  0  0  0  0
 38 53  1  0  0  0  0
 39 47  1  0  0  0  0
 40 41  1  0  0  0  0
 40 39  2  0  0  0  0
 41 42  1  0  0  0  0
 42 47  2  0  0  0  0
 42 43  1  0  0  0  0
 43 44  2  0  0  0  0
 44 45  1  0  0  0  0
 44 58  1  0  0  0  0
 45 59  1  0  0  0  0
 46 60  1  0  0  0  0
 46 45  2  0  0  0  0
 47 46  1  0  0  0  0
 48 37  1  0  0  0  0
 48 49  1  0  0  0  0
 50 48  2  0  0  0  0
 54 38  1  0  0  0  0
 55 40  1  0  0  0  0
 56 41  1  0  0  0  0
 57 43  1  0  0  0  0
M  END
$$$$
