FTY.pdb
 OpenBabel07022419013D

 57 58  0  0  1  0  0  0  0  0999 V2000
    2.5170   -2.1950   -0.1330 N   0  0  0  0  0  0  0  0  0  0  0  0
    2.8340   -1.2980    0.9740 C   0  0  1  0  0  0  0  0  0  0  0  0
    4.1170   -0.5540    0.7010 C   0  0  0  0  0  0  0  0  0  0  0  0
    4.4490    0.3510    1.8020 C   0  0  0  0  0  0  0  0  0  0  0  0
    5.1970   -0.0820    2.9040 C   0  0  0  0  0  0  0  0  0  0  0  0
    5.5150    0.7800    3.9310 C   0  0  0  0  0  0  0  0  0  0  0  0
    5.1130    2.0980    3.9180 C   0  0  0  0  0  0  0  0  0  0  0  0
    4.3760    2.5470    2.8450 C   0  0  0  0  0  0  0  0  0  0  0  0
    4.0630    1.6790    1.8230 C   0  0  0  0  0  0  0  0  0  0  0  0
    1.6700   -0.4180    1.2250 C   0  0  0  0  0  0  0  0  0  0  0  0
    1.6790    0.3970    2.1810 O   0  0  0  0  0  0  0  0  0  0  0  0
    3.4190   -2.5790   -0.4970 H   0  0  0  0  0  0  0  0  0  0  0  0
    1.9500   -3.0170    0.1800 H   0  0  0  0  0  0  0  0  0  0  0  0
    3.0050   -1.8820    1.9180 H   0  0  0  0  0  0  0  0  0  0  0  0
    4.9120   -1.2820    0.4670 H   0  0  0  0  0  0  0  0  0  0  0  0
    3.9930    0.0700   -0.2140 H   0  0  0  0  0  0  0  0  0  0  0  0
    5.5230   -1.1070    2.9370 H   0  0  0  0  0  0  0  0  0  0  0  0
    6.1010    0.4520    4.7980 H   0  0  0  0  0  0  0  0  0  0  0  0
    5.3810    2.7590    4.7480 H   0  0  0  0  0  0  0  0  0  0  0  0
    4.0620    3.5830    2.8370 H   0  0  0  0  0  0  0  0  0  0  0  0
    3.4840    2.0910    1.0080 H   0  0  0  0  0  0  0  0  0  0  0  0
   -2.1660    2.1090   -0.3340 C   0  0  0  0  0  0  0  0  0  0  0  0
   -0.9130    1.2960   -0.5700 C   0  0  1  0  0  0  0  0  0  0  0  0
    0.1890    2.1100   -0.8210 O   0  0  0  0  0  0  0  0  0  0  0  0
   -0.6560    0.4150    0.6450 C   0  0  2  0  0  0  0  0  0  0  0  0
    0.4970   -0.4320    0.4260 N   0  0  0  0  0  0  0  0  0  0  0  0
   -1.8270   -0.4450    0.9340 C   0  0  0  0  0  0  0  0  0  0  0  0
   -2.9790    0.0550    1.1660 O   0  0  0  0  0  0  0  0  0  0  0  0
   -2.0360    3.1280   -0.7840 H   0  0  0  0  0  0  0  0  0  0  0  0
   -2.3370    2.2770    0.7540 H   0  0  0  0  0  0  0  0  0  0  0  0
   -3.0560    1.6250   -0.7980 H   0  0  0  0  0  0  0  0  0  0  0  0
   -1.0730    0.6830   -1.4830 H   0  0  0  0  0  0  0  0  0  0  0  0
   -0.1020    3.0670   -0.7320 H   0  0  0  0  0  0  0  0  0  0  0  0
   -0.5280    1.0870    1.5120 H   0  0  0  0  0  0  0  0  0  0  0  0
    0.4640   -1.0970   -0.3720 H   0  0  0  0  0  0  0  0  0  0  0  0
   -3.7980   -0.5180   -4.6380 O   0  0  0  0  0  0  0  0  0  0  0  0
   -3.6530   -1.2790   -3.4910 C   0  0  0  0  0  0  0  0  0  0  0  0
   -4.7250   -1.7070   -2.7360 C   0  0  0  0  0  0  0  0  0  0  0  0
   -4.5430   -2.4640   -1.5990 C   0  0  0  0  0  0  0  0  0  0  0  0
   -3.2690   -2.8000   -1.2070 C   0  0  0  0  0  0  0  0  0  0  0  0
   -3.0000   -3.6070   -0.0010 C   0  0  0  0  0  0  0  0  0  0  0  0
   -2.8230   -2.7330    1.2410 C   0  0  2  0  0  0  0  0  0  0  0  0
   -1.6950   -1.8650    0.9610 N   0  0  0  0  0  0  0  0  0  0  0  0
   -2.5330   -3.6540    2.3680 C   0  0  0  0  0  0  0  0  0  0  0  0
   -3.3610   -4.4970    2.7890 O   0  0  0  0  0  0  0  0  0  0  0  0
   -2.2160   -2.3620   -1.9750 C   0  0  0  0  0  0  0  0  0  0  0  0
   -2.3550   -1.6060   -3.1150 C   0  0  0  0  0  0  0  0  0  0  0  0
   -1.3000   -3.6010    3.0000 O   0  0  0  0  0  0  0  0  0  0  0  0
   -4.4620   -0.8100   -5.3420 H   0  0  0  0  0  0  0  0  0  0  0  0
   -5.7430   -1.4350   -3.0540 H   0  0  0  0  0  0  0  0  0  0  0  0
   -5.3950   -2.7960   -1.0110 H   0  0  0  0  0  0  0  0  0  0  0  0
   -2.0300   -4.1260   -0.1440 H   0  0  0  0  0  0  0  0  0  0  0  0
   -3.7690   -4.3870    0.1710 H   0  0  0  0  0  0  0  0  0  0  0  0
   -3.7110   -2.1030    1.4100 H   0  0  0  0  0  0  0  0  0  0  0  0
   -0.7450   -2.2780    0.7710 H   0  0  0  0  0  0  0  0  0  0  0  0
   -1.1910   -2.6100   -1.6930 H   0  0  0  0  0  0  0  0  0  0  0  0
   -1.5200   -1.2640   -3.7160 H   0  0  0  0  0  0  0  0  0  0  0  0
  1 13  1  0  0  0  0
  1  2  1  0  0  0  0
  2 10  1  0  0  0  0
  2 14  1  1  0  0  0
  3  2  1  0  0  0  0
  3  4  1  0  0  0  0
  4  9  2  0  0  0  0
  4  5  1  0  0  0  0
  5 17  1  0  0  0  0
  5  6  2  0  0  0  0
  6 18  1  0  0  0  0
  7  6  1  0  0  0  0
  7 19  1  0  0  0  0
  8  7  2  0  0  0  0
  9  8  1  0  0  0  0
 10 11  2  0  0  0  0
 12  1  1  0  0  0  0
 15  3  1  0  0  0  0
 16  3  1  0  0  0  0
 20  8  1  0  0  0  0
 21  9  1  0  0  0  0
 22 30  1  0  0  0  0
 23 32  1  6  0  0  0
 23 22  1  0  0  0  0
 23 25  1  0  0  0  0
 24 33  1  0  0  0  0
 24 23  1  0  0  0  0
 25 27  1  0  0  0  0
 25 34  1  1  0  0  0
 26 25  1  0  0  0  0
 26 10  1  0  0  0  0
 27 43  1  0  0  0  0
 27 28  2  0  0  0  0
 29 22  1  0  0  0  0
 31 22  1  0  0  0  0
 35 26  1  0  0  0  0
 36 37  1  0  0  0  0
 37 47  2  0  0  0  0
 37 38  1  0  0  0  0
 38 39  2  0  0  0  0
 39 40  1  0  0  0  0
 39 51  1  0  0  0  0
 40 41  1  0  0  0  0
 41 53  1  0  0  0  0
 41 42  1  0  0  0  0
 42 54  1  1  0  0  0
 42 44  1  0  0  0  0
 43 42  1  0  0  0  0
 44 45  2  0  0  0  0
 44 48  1  0  0  0  0
 46 56  1  0  0  0  0
 46 40  2  0  0  0  0
 47 46  1  0  0  0  0
 49 36  1  0  0  0  0
 50 38  1  0  0  0  0
 52 41  1  0  0  0  0
 55 43  1  0  0  0  0
 57 47  1  0  0  0  0
M  END
$$$$
