FVC.pdb
 OpenBabel07022419023D

 49 49  0  0  1  0  0  0  0  0999 V2000
    2.8340   -2.3670    2.1800 N   0  0  0  0  0  0  0  0  0  0  0  0
    2.5850   -1.2760    1.2620 C   0  0  1  0  0  0  0  0  0  0  0  0
    2.7670   -1.7740   -0.1200 C   0  0  0  0  0  0  0  0  0  0  0  0
    2.5650   -0.8150   -1.2000 C   0  0  0  0  0  0  0  0  0  0  0  0
    1.3360   -0.6240   -1.8330 C   0  0  0  0  0  0  0  0  0  0  0  0
    1.1480    0.2820   -2.8450 C   0  0  0  0  0  0  0  0  0  0  0  0
    2.1990    1.0500   -3.2780 C   0  0  0  0  0  0  0  0  0  0  0  0
    3.4340    0.8670   -2.6530 C   0  0  0  0  0  0  0  0  0  0  0  0
    3.6140   -0.0420   -1.6400 C   0  0  0  0  0  0  0  0  0  0  0  0
    1.2340   -0.7140    1.5420 C   0  0  0  0  0  0  0  0  0  0  0  0
    0.8120    0.1920    0.8170 O   0  0  0  0  0  0  0  0  0  0  0  0
    2.1110   -3.0940    2.0190 H   0  0  0  0  0  0  0  0  0  0  0  0
    2.9090   -2.0420    3.1440 H   0  0  0  0  0  0  0  0  0  0  0  0
    3.3480   -0.4810    1.5190 H   0  0  0  0  0  0  0  0  0  0  0  0
    3.8260   -2.1510   -0.2240 H   0  0  0  0  0  0  0  0  0  0  0  0
    2.1500   -2.6800   -0.3480 H   0  0  0  0  0  0  0  0  0  0  0  0
    0.5180   -1.2260   -1.4970 H   0  0  0  0  0  0  0  0  0  0  0  0
    0.1900    0.4080   -3.3140 H   0  0  0  0  0  0  0  0  0  0  0  0
    2.1310    1.7840   -4.0690 H   0  0  0  0  0  0  0  0  0  0  0  0
    4.2850    1.4590   -2.9720 H   0  0  0  0  0  0  0  0  0  0  0  0
    4.5860   -0.1660   -1.1690 H   0  0  0  0  0  0  0  0  0  0  0  0
   -0.0600    0.5990    4.9100 C   0  0  0  0  0  0  0  0  0  0  0  0
   -0.9030    0.6020    3.6280 C   0  0  0  0  0  0  0  0  0  0  0  0
   -0.6090    1.7830    2.7870 C   0  0  0  0  0  0  0  0  0  0  0  0
   -0.8300   -0.7400    2.9770 C   0  0  2  0  0  0  0  0  0  0  0  0
    0.4640   -1.1950    2.5990 N   0  0  0  0  0  0  0  0  0  0  0  0
   -1.8210   -0.8530    1.8840 C   0  0  0  0  0  0  0  0  0  0  0  0
   -2.9910   -0.3320    2.0690 O   0  0  0  0  0  0  0  0  0  0  0  0
    0.9680    0.2810    4.5800 H   0  0  0  0  0  0  0  0  0  0  0  0
   -0.4380   -0.1370    5.6340 H   0  0  0  0  0  0  0  0  0  0  0  0
    0.0440    1.6180    5.3150 H   0  0  0  0  0  0  0  0  0  0  0  0
   -1.9690    0.7350    4.0150 H   0  0  0  0  0  0  0  0  0  0  0  0
   -1.0790    2.6760    3.3210 H   0  0  0  0  0  0  0  0  0  0  0  0
    0.4660    2.0630    2.7260 H   0  0  0  0  0  0  0  0  0  0  0  0
   -1.1390    1.7600    1.8230 H   0  0  0  0  0  0  0  0  0  0  0  0
   -1.2660   -1.5000    3.7550 H   0  0  0  0  0  0  0  0  0  0  0  0
    0.8890   -1.9810    3.1830 H   0  0  0  0  0  0  0  0  0  0  0  0
   -1.6450   -1.4770    0.6400 N   0  0  0  0  0  0  0  0  0  0  0  0
   -2.6840   -1.5420   -0.3670 C   0  0  1  0  0  0  0  0  0  0  0  0
   -2.4000   -0.8090   -1.6300 C   0  0  0  0  0  0  0  0  0  0  0  0
   -2.1360    0.9520   -1.2880 S   0  0  0  0  0  0  0  0  0  0  0  0
   -3.1220   -2.9360   -0.6180 C   0  0  0  0  0  0  0  0  0  0  0  0
   -2.6250   -3.9120   -0.0070 O   0  0  0  0  0  0  0  0  0  0  0  0
   -4.1110   -3.1920   -1.5520 O   0  0  0  0  0  0  0  0  0  0  0  0
   -0.7370   -1.9330    0.4180 H   0  0  0  0  0  0  0  0  0  0  0  0
   -3.5870   -1.0300    0.0810 H   0  0  0  0  0  0  0  0  0  0  0  0
   -3.3810   -0.8350   -2.2100 H   0  0  0  0  0  0  0  0  0  0  0  0
   -1.6820   -1.2530   -2.3140 H   0  0  0  0  0  0  0  0  0  0  0  0
   -3.1340    1.4080   -0.4240 H   0  0  0  0  0  0  0  0  0  0  0  0
  1 13  1  0  0  0  0
  2 14  1  1  0  0  0
  2 10  1  0  0  0  0
  2  1  1  0  0  0  0
  3  2  1  0  0  0  0
  4  3  1  0  0  0  0
  5 17  1  0  0  0  0
  5  4  2  0  0  0  0
  6  5  1  0  0  0  0
  7  6  2  0  0  0  0
  7  8  1  0  0  0  0
  8  9  2  0  0  0  0
  9  4  1  0  0  0  0
  9 21  1  0  0  0  0
 10 26  1  0  0  0  0
 11 10  2  0  0  0  0
 12  1  1  0  0  0  0
 15  3  1  0  0  0  0
 16  3  1  0  0  0  0
 18  6  1  0  0  0  0
 19  7  1  0  0  0  0
 20  8  1  0  0  0  0
 22 31  1  0  0  0  0
 22 30  1  0  0  0  0
 23 32  1  0  0  0  0
 23 22  1  0  0  0  0
 24 33  1  0  0  0  0
 24 23  1  0  0  0  0
 25 23  1  0  0  0  0
 25 36  1  1  0  0  0
 26 25  1  0  0  0  0
 26 37  1  0  0  0  0
 27 28  2  0  0  0  0
 27 25  1  0  0  0  0
 29 22  1  0  0  0  0
 34 24  1  0  0  0  0
 35 24  1  0  0  0  0
 38 27  1  0  0  0  0
 39 46  1  1  0  0  0
 39 38  1  0  0  0  0
 40 41  1  0  0  0  0
 40 39  1  0  0  0  0
 41 49  1  0  0  0  0
 42 39  1  0  0  0  0
 42 43  1  0  0  0  0
 44 42  2  0  0  0  0
 45 38  1  0  0  0  0
 47 40  1  0  0  0  0
 48 40  1  0  0  0  0
M  END
$$$$
