FVD.pdb
 OpenBabel07022419023D

 51 51  0  0  1  0  0  0  0  0999 V2000
   -0.6550   -1.6090    3.7920 N   0  0  0  0  0  0  0  0  0  0  0  0
    0.6270   -1.0900    3.4180 C   0  0  1  0  0  0  0  0  0  0  0  0
    1.4210   -2.2560    2.8760 C   0  0  0  0  0  0  0  0  0  0  0  0
    2.7800   -1.9150    2.4310 C   0  0  0  0  0  0  0  0  0  0  0  0
    3.8850   -1.9280    3.2170 C   0  0  0  0  0  0  0  0  0  0  0  0
    5.1180   -1.6020    2.7100 C   0  0  0  0  0  0  0  0  0  0  0  0
    5.2680   -1.2500    1.3850 C   0  0  0  0  0  0  0  0  0  0  0  0
    4.1670   -1.2270    0.5640 C   0  0  0  0  0  0  0  0  0  0  0  0
    2.9340   -1.5600    1.0920 C   0  0  0  0  0  0  0  0  0  0  0  0
    0.3900   -0.0950    2.2900 C   0  0  0  0  0  0  0  0  0  0  0  0
    1.4050    0.5750    2.0230 O   0  0  0  0  0  0  0  0  0  0  0  0
   -1.2790   -0.8970    4.1810 H   0  0  0  0  0  0  0  0  0  0  0  0
   -1.0570   -2.3000    3.1530 H   0  0  0  0  0  0  0  0  0  0  0  0
    1.1070   -0.5380    4.2190 H   0  0  0  0  0  0  0  0  0  0  0  0
    0.8600   -2.6820    2.0320 H   0  0  0  0  0  0  0  0  0  0  0  0
    1.4410   -3.0190    3.7010 H   0  0  0  0  0  0  0  0  0  0  0  0
    3.7610   -2.2070    4.2620 H   0  0  0  0  0  0  0  0  0  0  0  0
    6.0050   -1.6160    3.3520 H   0  0  0  0  0  0  0  0  0  0  0  0
    6.2570   -0.9880    0.9840 H   0  0  0  0  0  0  0  0  0  0  0  0
    4.2900   -0.9510   -0.4700 H   0  0  0  0  0  0  0  0  0  0  0  0
    2.0990   -1.5340    0.4250 H   0  0  0  0  0  0  0  0  0  0  0  0
   -0.1440    2.8020    1.6250 C   0  0  0  0  0  0  0  0  0  0  0  0
   -0.2520    1.9580    0.3780 C   0  0  0  0  0  0  0  0  0  0  0  0
   -0.7190    2.9000   -0.7180 C   0  0  0  0  0  0  0  0  0  0  0  0
   -1.2520    0.8600    0.6300 C   0  0  2  0  0  0  0  0  0  0  0  0
   -0.8610   -0.0050    1.6690 N   0  0  0  0  0  0  0  0  0  0  0  0
   -1.6820    0.1530   -0.5940 C   0  0  0  0  0  0  0  0  0  0  0  0
   -2.0850    0.7160   -1.6190 O   0  0  0  0  0  0  0  0  0  0  0  0
   -0.7950    3.7170    1.5380 H   0  0  0  0  0  0  0  0  0  0  0  0
    0.8630    3.1870    1.8280 H   0  0  0  0  0  0  0  0  0  0  0  0
   -0.5290    2.3090    2.5430 H   0  0  0  0  0  0  0  0  0  0  0  0
    0.7160    1.5150    0.1170 H   0  0  0  0  0  0  0  0  0  0  0  0
   -0.3070    3.9310   -0.5630 H   0  0  0  0  0  0  0  0  0  0  0  0
   -1.8040    3.0030   -0.7620 H   0  0  0  0  0  0  0  0  0  0  0  0
   -0.2860    2.5360   -1.6700 H   0  0  0  0  0  0  0  0  0  0  0  0
   -2.1670    1.4750    0.9870 H   0  0  0  0  0  0  0  0  0  0  0  0
   -1.6030   -0.6850    2.0490 H   0  0  0  0  0  0  0  0  0  0  0  0
   -1.6200   -1.2660   -0.5780 N   0  0  0  0  0  0  0  0  0  0  0  0
   -1.9870   -2.1740   -1.6210 C   0  0  1  0  0  0  0  0  0  0  0  0
   -3.0430   -1.6770   -2.5930 C   0  0  0  0  0  0  0  0  0  0  0  0
   -4.2960   -1.4380   -1.8540 C   0  0  0  0  0  0  0  0  0  0  0  0
   -4.8090   -0.3380   -1.5730 O   0  0  0  0  0  0  0  0  0  0  0  0
   -0.8610   -2.8220   -2.2990 C   0  0  0  0  0  0  0  0  0  0  0  0
    0.3230   -2.5690   -1.9820 O   0  0  0  0  0  0  0  0  0  0  0  0
   -5.0150   -2.5560   -1.4030 O   0  0  0  0  0  0  0  0  0  0  0  0
   -1.0880   -3.7320   -3.3100 O   0  0  0  0  0  0  0  0  0  0  0  0
   -1.2490   -1.6950    0.3410 H   0  0  0  0  0  0  0  0  0  0  0  0
   -2.5600   -3.0280   -1.0760 H   0  0  0  0  0  0  0  0  0  0  0  0
   -3.2500   -2.5400   -3.2780 H   0  0  0  0  0  0  0  0  0  0  0  0
   -2.7180   -0.8270   -3.1980 H   0  0  0  0  0  0  0  0  0  0  0  0
   -5.9880   -2.4690   -1.1170 H   0  0  0  0  0  0  0  0  0  0  0  0
  1 12  1  0  0  0  0
  2  1  1  0  0  0  0
  2 14  1  1  0  0  0
  3  2  1  0  0  0  0
  3 16  1  0  0  0  0
  4  3  1  0  0  0  0
  4  5  1  0  0  0  0
  5 17  1  0  0  0  0
  6  5  2  0  0  0  0
  6 18  1  0  0  0  0
  7  6  1  0  0  0  0
  8  9  1  0  0  0  0
  8  7  2  0  0  0  0
  9  4  2  0  0  0  0
 10  2  1  0  0  0  0
 11 10  2  0  0  0  0
 13  1  1  0  0  0  0
 15  3  1  0  0  0  0
 19  7  1  0  0  0  0
 20  8  1  0  0  0  0
 21  9  1  0  0  0  0
 22 30  1  0  0  0  0
 22 31  1  0  0  0  0
 23 25  1  0  0  0  0
 23 22  1  0  0  0  0
 24 33  1  0  0  0  0
 24 23  1  0  0  0  0
 25 36  1  1  0  0  0
 25 26  1  0  0  0  0
 26 37  1  0  0  0  0
 26 10  1  0  0  0  0
 27 38  1  0  0  0  0
 27 25  1  0  0  0  0
 28 27  2  0  0  0  0
 29 22  1  0  0  0  0
 32 23  1  0  0  0  0
 34 24  1  0  0  0  0
 35 24  1  0  0  0  0
 38 47  1  0  0  0  0
 39 48  1  1  0  0  0
 39 38  1  0  0  0  0
 40 41  1  0  0  0  0
 40 39  1  0  0  0  0
 41 42  2  0  0  0  0
 41 45  1  0  0  0  0
 43 44  1  0  0  0  0
 43 39  1  0  0  0  0
 45 51  1  0  0  0  0
 46 43  2  0  0  0  0
 49 40  1  0  0  0  0
 50 40  1  0  0  0  0
M  END
$$$$
