FVF.pdb
 OpenBabel07022419023D

 58 59  0  0  1  0  0  0  0  0999 V2000
   -2.5600    2.5780    2.7980 N   0  0  0  0  0  0  0  0  0  0  0  0
   -2.2700    1.5620    1.8310 C   0  0  1  0  0  0  0  0  0  0  0  0
   -1.8530    2.2760    0.5570 C   0  0  0  0  0  0  0  0  0  0  0  0
   -0.6590    3.1270    0.7890 C   0  0  0  0  0  0  0  0  0  0  0  0
    0.5950    2.5970    0.6350 C   0  0  0  0  0  0  0  0  0  0  0  0
    1.7070    3.3720    0.8420 C   0  0  0  0  0  0  0  0  0  0  0  0
    1.6000    4.6930    1.2080 C   0  0  0  0  0  0  0  0  0  0  0  0
    0.3240    5.2020    1.3560 C   0  0  0  0  0  0  0  0  0  0  0  0
   -0.8030    4.4340    1.1510 C   0  0  0  0  0  0  0  0  0  0  0  0
   -1.2200    0.6170    2.2840 C   0  0  0  0  0  0  0  0  0  0  0  0
   -0.6220    0.8410    3.3760 O   0  0  0  0  0  0  0  0  0  0  0  0
   -3.5730    2.7380    2.9600 H   0  0  0  0  0  0  0  0  0  0  0  0
   -2.0170    2.5180    3.6730 H   0  0  0  0  0  0  0  0  0  0  0  0
   -3.1740    0.9530    1.5560 H   0  0  0  0  0  0  0  0  0  0  0  0
   -2.6840    2.9440    0.2550 H   0  0  0  0  0  0  0  0  0  0  0  0
   -1.6710    1.5410   -0.2450 H   0  0  0  0  0  0  0  0  0  0  0  0
    0.7200    1.5480    0.3470 H   0  0  0  0  0  0  0  0  0  0  0  0
    2.6780    2.9130    0.7100 H   0  0  0  0  0  0  0  0  0  0  0  0
    2.4920    5.2960    1.3690 H   0  0  0  0  0  0  0  0  0  0  0  0
    0.2440    6.2440    1.6440 H   0  0  0  0  0  0  0  0  0  0  0  0
   -1.7920    4.8930    1.2830 H   0  0  0  0  0  0  0  0  0  0  0  0
    0.4130   -3.8080    2.6610 C   0  0  0  0  0  0  0  0  0  0  0  0
   -0.5860   -2.7930    2.2090 C   0  0  0  0  0  0  0  0  0  0  0  0
   -1.7190   -2.5970    3.1820 C   0  0  0  0  0  0  0  0  0  0  0  0
    0.1350   -1.4690    1.9290 C   0  0  2  0  0  0  0  0  0  0  0  0
   -0.8830   -0.5410    1.5000 N   0  0  0  0  0  0  0  0  0  0  0  0
    1.0830   -1.7670    0.8360 C   0  0  0  0  0  0  0  0  0  0  0  0
    2.0700   -2.5620    1.0210 O   0  0  0  0  0  0  0  0  0  0  0  0
    0.7400   -4.4280    1.8190 H   0  0  0  0  0  0  0  0  0  0  0  0
   -0.0960   -4.4960    3.3850 H   0  0  0  0  0  0  0  0  0  0  0  0
    1.2560   -3.2800    3.1580 H   0  0  0  0  0  0  0  0  0  0  0  0
   -1.0070   -3.1200    1.2360 H   0  0  0  0  0  0  0  0  0  0  0  0
   -2.6410   -2.3910    2.6100 H   0  0  0  0  0  0  0  0  0  0  0  0
   -1.8880   -3.5920    3.6750 H   0  0  0  0  0  0  0  0  0  0  0  0
   -1.4950   -1.8420    3.9430 H   0  0  0  0  0  0  0  0  0  0  0  0
    0.6700   -1.1240    2.8320 H   0  0  0  0  0  0  0  0  0  0  0  0
   -1.4130   -0.6690    0.6150 H   0  0  0  0  0  0  0  0  0  0  0  0
    0.9720   -1.2090   -0.4630 N   0  0  0  0  0  0  0  0  0  0  0  0
    1.9350   -1.5360   -1.5200 C   0  0  1  0  0  0  0  0  0  0  0  0
    1.1570   -2.2330   -2.6140 C   0  0  0  0  0  0  0  0  0  0  0  0
    0.5060   -3.4640   -2.1500 C   0  0  0  0  0  0  0  0  0  0  0  0
    1.2130   -4.6460   -2.2440 C   0  0  0  0  0  0  0  0  0  0  0  0
    0.6450   -5.8420   -1.8200 C   0  0  0  0  0  0  0  0  0  0  0  0
   -0.6400   -5.8700   -1.2940 C   0  0  0  0  0  0  0  0  0  0  0  0
   -1.3370   -4.6850   -1.2050 C   0  0  0  0  0  0  0  0  0  0  0  0
   -0.7700   -3.4980   -1.6270 C   0  0  0  0  0  0  0  0  0  0  0  0
    2.6480   -0.3430   -2.0250 C   0  0  0  0  0  0  0  0  0  0  0  0
    2.4750    0.8280   -1.6200 O   0  0  0  0  0  0  0  0  0  0  0  0
    3.5790   -0.5390   -3.0230 O   0  0  0  0  0  0  0  0  0  0  0  0
    0.1790   -0.5580   -0.6420 H   0  0  0  0  0  0  0  0  0  0  0  0
    2.6970   -2.2400   -1.1620 H   0  0  0  0  0  0  0  0  0  0  0  0
    0.3820   -1.5800   -3.0590 H   0  0  0  0  0  0  0  0  0  0  0  0
    1.8550   -2.4870   -3.4460 H   0  0  0  0  0  0  0  0  0  0  0  0
    2.2170   -4.6950   -2.6430 H   0  0  0  0  0  0  0  0  0  0  0  0
    1.2210   -6.7480   -1.9060 H   0  0  0  0  0  0  0  0  0  0  0  0
   -1.0370   -6.8170   -0.9800 H   0  0  0  0  0  0  0  0  0  0  0  0
   -2.3410   -4.7480   -0.7880 H   0  0  0  0  0  0  0  0  0  0  0  0
   -1.3480   -2.5830   -1.5410 H   0  0  0  0  0  0  0  0  0  0  0  0
  1 12  1  0  0  0  0
  1 13  1  0  0  0  0
  2 14  1  6  0  0  0
  2 10  1  0  0  0  0
  2  1  1  0  0  0  0
  3  4  1  0  0  0  0
  3  2  1  0  0  0  0
  4  9  1  0  0  0  0
  5  4  2  0  0  0  0
  5  6  1  0  0  0  0
  6  7  2  0  0  0  0
  7  8  1  0  0  0  0
  7 19  1  0  0  0  0
  8 20  1  0  0  0  0
  9 21  1  0  0  0  0
  9  8  2  0  0  0  0
 10 11  2  0  0  0  0
 15  3  1  0  0  0  0
 16  3  1  0  0  0  0
 17  5  1  0  0  0  0
 18  6  1  0  0  0  0
 22 31  1  0  0  0  0
 22 30  1  0  0  0  0
 23 22  1  0  0  0  0
 23 24  1  0  0  0  0
 24 34  1  0  0  0  0
 24 35  1  0  0  0  0
 25 23  1  0  0  0  0
 25 36  1  1  0  0  0
 26 25  1  0  0  0  0
 26 10  1  0  0  0  0
 27 28  2  0  0  0  0
 27 25  1  0  0  0  0
 29 22  1  0  0  0  0
 32 23  1  0  0  0  0
 33 24  1  0  0  0  0
 37 26  1  0  0  0  0
 38 27  1  0  0  0  0
 39 51  1  1  0  0  0
 39 38  1  0  0  0  0
 40 41  1  0  0  0  0
 40 39  1  0  0  0  0
 41 46  1  0  0  0  0
 42 41  2  0  0  0  0
 42 43  1  0  0  0  0
 43 44  2  0  0  0  0
 44 45  1  0  0  0  0
 44 56  1  0  0  0  0
 45 57  1  0  0  0  0
 46 58  1  0  0  0  0
 46 45  2  0  0  0  0
 47 48  1  0  0  0  0
 47 39  1  0  0  0  0
 49 47  2  0  0  0  0
 50 38  1  0  0  0  0
 52 40  1  0  0  0  0
 53 40  1  0  0  0  0
 54 42  1  0  0  0  0
 55 43  1  0  0  0  0
M  END
$$$$
