FVG.pdb
 OpenBabel07022419023D

 45 45  0  0  1  0  0  0  0  0999 V2000
    2.2660   -4.4900    1.4710 N   0  0  0  0  0  0  0  0  0  0  0  0
    2.2780   -3.1090    0.9580 C   0  0  1  0  0  0  0  0  0  0  0  0
    2.4110   -3.2170   -0.5230 C   0  0  0  0  0  0  0  0  0  0  0  0
    2.4540   -1.9600   -1.2750 C   0  0  0  0  0  0  0  0  0  0  0  0
    3.6370   -1.2580   -1.5040 C   0  0  0  0  0  0  0  0  0  0  0  0
    3.6540   -0.0950   -2.2350 C   0  0  0  0  0  0  0  0  0  0  0  0
    2.4970    0.4220   -2.7690 C   0  0  0  0  0  0  0  0  0  0  0  0
    1.3180   -0.2520   -2.5570 C   0  0  0  0  0  0  0  0  0  0  0  0
    1.3090   -1.4270   -1.8170 C   0  0  0  0  0  0  0  0  0  0  0  0
    1.0760   -2.4270    1.4570 C   0  0  0  0  0  0  0  0  0  0  0  0
    0.2110   -3.1420    2.0520 O   0  0  0  0  0  0  0  0  0  0  0  0
    2.0000   -4.3960    2.4800 H   0  0  0  0  0  0  0  0  0  0  0  0
    1.5250   -5.0180    0.9230 H   0  0  0  0  0  0  0  0  0  0  0  0
    3.2150   -2.6660    1.3690 H   0  0  0  0  0  0  0  0  0  0  0  0
    1.5260   -3.8030   -0.8800 H   0  0  0  0  0  0  0  0  0  0  0  0
    3.3370   -3.8350   -0.7310 H   0  0  0  0  0  0  0  0  0  0  0  0
    4.5630   -1.6390   -1.0960 H   0  0  0  0  0  0  0  0  0  0  0  0
    4.5820    0.4230   -2.3930 H   0  0  0  0  0  0  0  0  0  0  0  0
    2.4770    1.3440   -3.3540 H   0  0  0  0  0  0  0  0  0  0  0  0
    0.3910    0.1430   -2.9740 H   0  0  0  0  0  0  0  0  0  0  0  0
    0.3250   -1.8950   -1.7000 H   0  0  0  0  0  0  0  0  0  0  0  0
    0.8980    1.4410    2.7040 C   0  0  0  0  0  0  0  0  0  0  0  0
    0.0030    0.3130    3.0700 C   0  0  0  0  0  0  0  0  0  0  0  0
   -1.1000    0.8220    3.9550 C   0  0  0  0  0  0  0  0  0  0  0  0
   -0.4580   -0.5350    1.9110 C   0  0  2  0  0  0  0  0  0  0  0  0
    0.7900   -1.0670    1.3450 N   0  0  0  0  0  0  0  0  0  0  0  0
   -1.2660    0.1450    0.9190 C   0  0  0  0  0  0  0  0  0  0  0  0
   -0.8870    0.3710   -0.2840 O   0  0  0  0  0  0  0  0  0  0  0  0
    0.4340    2.1830    2.0250 H   0  0  0  0  0  0  0  0  0  0  0  0
    1.1400    1.9910    3.6390 H   0  0  0  0  0  0  0  0  0  0  0  0
    1.9020    1.0950    2.3200 H   0  0  0  0  0  0  0  0  0  0  0  0
    0.6340   -0.3350    3.7650 H   0  0  0  0  0  0  0  0  0  0  0  0
   -1.5960    1.7250    3.5400 H   0  0  0  0  0  0  0  0  0  0  0  0
   -1.9070    0.0750    4.1390 H   0  0  0  0  0  0  0  0  0  0  0  0
   -0.7120    1.0390    4.9920 H   0  0  0  0  0  0  0  0  0  0  0  0
   -1.0140   -1.3850    2.3270 H   0  0  0  0  0  0  0  0  0  0  0  0
    1.4570   -0.4270    0.8690 H   0  0  0  0  0  0  0  0  0  0  0  0
   -2.5730    0.6280    1.1960 N   0  0  0  0  0  0  0  0  0  0  0  0
   -3.3600    1.3170    0.1610 C   0  0  0  0  0  0  0  0  0  0  0  0
   -4.6710    1.7120    0.7120 C   0  0  0  0  0  0  0  0  0  0  0  0
   -5.5500    2.3110    0.0690 O   0  0  0  0  0  0  0  0  0  0  0  0
   -4.9800    1.4040    2.0500 O   0  0  0  0  0  0  0  0  0  0  0  0
   -3.0300    0.5110    2.1220 H   0  0  0  0  0  0  0  0  0  0  0  0
   -2.8030    2.1260   -0.3120 H   0  0  0  0  0  0  0  0  0  0  0  0
   -3.5740    0.5100   -0.5990 H   0  0  0  0  0  0  0  0  0  0  0  0
  1 12  1  0  0  0  0
  2 14  1  1  0  0  0
  2 10  1  0  0  0  0
  2  1  1  0  0  0  0
  3  2  1  0  0  0  0
  4  3  1  0  0  0  0
  5  4  1  0  0  0  0
  5 17  1  0  0  0  0
  6  5  2  0  0  0  0
  7  8  2  0  0  0  0
  7  6  1  0  0  0  0
  8  9  1  0  0  0  0
  9 21  1  0  0  0  0
  9  4  2  0  0  0  0
 10 11  2  0  0  0  0
 13  1  1  0  0  0  0
 15  3  1  0  0  0  0
 16  3  1  0  0  0  0
 18  6  1  0  0  0  0
 19  7  1  0  0  0  0
 20  8  1  0  0  0  0
 22 23  1  0  0  0  0
 22 30  1  0  0  0  0
 23 32  1  0  0  0  0
 23 24  1  0  0  0  0
 24 34  1  0  0  0  0
 24 35  1  0  0  0  0
 25 36  1  1  0  0  0
 25 23  1  0  0  0  0
 26 10  1  0  0  0  0
 26 25  1  0  0  0  0
 27 38  1  0  0  0  0
 27 25  1  0  0  0  0
 28 27  2  0  0  0  0
 29 22  1  0  0  0  0
 31 22  1  0  0  0  0
 33 24  1  0  0  0  0
 37 26  1  0  0  0  0
 38 43  1  0  0  0  0
 39 40  1  0  0  0  0
 39 38  1  0  0  0  0
 40 42  1  0  0  0  0
 41 40  2  0  0  0  0
 44 39  1  0  0  0  0
 45 39  1  0  0  0  0
M  END
$$$$
