FVL.pdb
 OpenBabel07022419023D

 57 57  0  0  1  0  0  0  0  0999 V2000
    0.1600   -2.2460    4.9700 N   0  0  0  0  0  0  0  0  0  0  0  0
    0.7710   -1.7960    3.6740 C   0  0  1  0  0  0  0  0  0  0  0  0
    1.2550   -2.9750    2.9490 C   0  0  0  0  0  0  0  0  0  0  0  0
    1.9160   -2.8330    1.6670 C   0  0  0  0  0  0  0  0  0  0  0  0
    1.2560   -2.9860    0.4860 C   0  0  0  0  0  0  0  0  0  0  0  0
    1.9360   -2.8520   -0.7120 C   0  0  0  0  0  0  0  0  0  0  0  0
    3.2810   -2.5640   -0.7320 C   0  0  0  0  0  0  0  0  0  0  0  0
    3.9590   -2.4070    0.4570 C   0  0  0  0  0  0  0  0  0  0  0  0
    3.2890   -2.5380    1.6480 C   0  0  0  0  0  0  0  0  0  0  0  0
   -0.1470   -0.8560    3.0400 C   0  0  0  0  0  0  0  0  0  0  0  0
   -1.3170   -0.6470    3.5700 O   0  0  0  0  0  0  0  0  0  0  0  0
    0.7820   -2.9150    5.4340 H   0  0  0  0  0  0  0  0  0  0  0  0
   -0.1260   -1.4310    5.5220 H   0  0  0  0  0  0  0  0  0  0  0  0
    1.6690   -1.2140    4.0490 H   0  0  0  0  0  0  0  0  0  0  0  0
    0.3710   -3.6940    2.8260 H   0  0  0  0  0  0  0  0  0  0  0  0
    1.9470   -3.5540    3.6430 H   0  0  0  0  0  0  0  0  0  0  0  0
    0.1900   -3.2160    0.4150 H   0  0  0  0  0  0  0  0  0  0  0  0
    1.4430   -2.9680   -1.6690 H   0  0  0  0  0  0  0  0  0  0  0  0
    3.7900   -2.4650   -1.6830 H   0  0  0  0  0  0  0  0  0  0  0  0
    5.0290   -2.1760    0.4730 H   0  0  0  0  0  0  0  0  0  0  0  0
    3.8490   -2.4090    2.5620 H   0  0  0  0  0  0  0  0  0  0  0  0
   -0.3360    2.2590    3.2690 C   0  0  0  0  0  0  0  0  0  0  0  0
   -0.4000    2.2560    1.7700 C   0  0  0  0  0  0  0  0  0  0  0  0
    0.9710    2.5130    1.2330 C   0  0  0  0  0  0  0  0  0  0  0  0
   -0.8930    0.8360    1.3610 C   0  0  2  0  0  0  0  0  0  0  0  0
    0.0700   -0.0870    1.8680 N   0  0  0  0  0  0  0  0  0  0  0  0
   -1.2030    0.8420   -0.0520 C   0  0  0  0  0  0  0  0  0  0  0  0
   -2.0900    1.6700   -0.4790 O   0  0  0  0  0  0  0  0  0  0  0  0
    0.0560    3.2520    3.6150 H   0  0  0  0  0  0  0  0  0  0  0  0
    0.3850    1.5100    3.6440 H   0  0  0  0  0  0  0  0  0  0  0  0
   -1.3260    2.0940    3.7320 H   0  0  0  0  0  0  0  0  0  0  0  0
   -1.0990    3.0190    1.4270 H   0  0  0  0  0  0  0  0  0  0  0  0
    1.0880    3.6190    1.1010 H   0  0  0  0  0  0  0  0  0  0  0  0
    1.1720    2.0360    0.2550 H   0  0  0  0  0  0  0  0  0  0  0  0
    1.7210    2.2230    1.9920 H   0  0  0  0  0  0  0  0  0  0  0  0
   -1.8190    0.7410    2.0130 H   0  0  0  0  0  0  0  0  0  0  0  0
    0.9800   -0.2270    1.3810 H   0  0  0  0  0  0  0  0  0  0  0  0
   -1.7350   -2.9220   -2.9550 C   0  0  0  0  0  0  0  0  0  0  0  0
   -2.6150   -1.8560   -2.3890 C   0  0  0  0  0  0  0  0  0  0  0  0
   -2.7560   -2.0120   -0.9030 C   0  0  0  0  0  0  0  0  0  0  0  0
   -2.2360   -0.4740   -2.7840 C   0  0  0  0  0  0  0  0  0  0  0  0
   -0.8820   -0.0150   -2.4050 C   0  0  2  0  0  0  0  0  0  0  0  0
   -0.5900   -0.0080   -0.9920 N   0  0  0  0  0  0  0  0  0  0  0  0
   -0.7300    1.3820   -2.9790 C   0  0  0  0  0  0  0  0  0  0  0  0
   -0.9750    1.5810   -4.1950 O   0  0  0  0  0  0  0  0  0  0  0  0
   -0.3280    2.4520   -2.2080 O   0  0  0  0  0  0  0  0  0  0  0  0
   -1.4700   -2.7480   -4.0110 H   0  0  0  0  0  0  0  0  0  0  0  0
   -0.8540   -3.1190   -2.3170 H   0  0  0  0  0  0  0  0  0  0  0  0
   -2.3210   -3.8890   -2.9380 H   0  0  0  0  0  0  0  0  0  0  0  0
   -3.6520   -2.0570   -2.8020 H   0  0  0  0  0  0  0  0  0  0  0  0
   -1.7610   -2.1270   -0.4280 H   0  0  0  0  0  0  0  0  0  0  0  0
   -3.2890   -1.1030   -0.5210 H   0  0  0  0  0  0  0  0  0  0  0  0
   -3.3920   -2.8730   -0.6080 H   0  0  0  0  0  0  0  0  0  0  0  0
   -2.9880    0.2440   -2.3840 H   0  0  0  0  0  0  0  0  0  0  0  0
   -2.2990   -0.3910   -3.9090 H   0  0  0  0  0  0  0  0  0  0  0  0
   -0.0710   -0.6020   -2.9200 H   0  0  0  0  0  0  0  0  0  0  0  0
    0.1260   -0.6590   -0.6040 H   0  0  0  0  0  0  0  0  0  0  0  0
  1 12  1  0  0  0  0
  1 13  1  0  0  0  0
  2 14  1  1  0  0  0
  2  1  1  0  0  0  0
  3 16  1  0  0  0  0
  3  2  1  0  0  0  0
  4  3  1  0  0  0  0
  5  4  2  0  0  0  0
  6  5  1  0  0  0  0
  7  6  2  0  0  0  0
  7  8  1  0  0  0  0
  8 20  1  0  0  0  0
  8  9  2  0  0  0  0
  9  4  1  0  0  0  0
  9 21  1  0  0  0  0
 10 11  2  0  0  0  0
 10  2  1  0  0  0  0
 15  3  1  0  0  0  0
 17  5  1  0  0  0  0
 18  6  1  0  0  0  0
 19  7  1  0  0  0  0
 22 29  1  0  0  0  0
 22 30  1  0  0  0  0
 22 31  1  0  0  0  0
 23 22  1  0  0  0  0
 24 23  1  0  0  0  0
 24 35  1  0  0  0  0
 25 23  1  0  0  0  0
 25 26  1  0  0  0  0
 25 36  1  1  0  0  0
 26 10  1  0  0  0  0
 27 25  1  0  0  0  0
 28 27  2  0  0  0  0
 32 23  1  0  0  0  0
 33 24  1  0  0  0  0
 34 24  1  0  0  0  0
 37 26  1  0  0  0  0
 38 49  1  0  0  0  0
 38 39  1  0  0  0  0
 38 48  1  0  0  0  0
 39 40  1  0  0  0  0
 40 53  1  0  0  0  0
 40 52  1  0  0  0  0
 40 51  1  0  0  0  0
 41 42  1  0  0  0  0
 41 39  1  0  0  0  0
 41 54  1  0  0  0  0
 42 56  1  6  0  0  0
 42 43  1  0  0  0  0
 43 57  1  0  0  0  0
 43 27  1  0  0  0  0
 44 42  1  0  0  0  0
 44 46  1  0  0  0  0
 45 44  2  0  0  0  0
 47 38  1  0  0  0  0
 50 39  1  0  0  0  0
 55 41  1  0  0  0  0
M  END
$$$$
