FVN.pdb
 OpenBabel07022419023D

 52 52  0  0  1  0  0  0  0  0999 V2000
    3.8180   -1.4640   -1.1770 N   0  0  0  0  0  0  0  0  0  0  0  0
    2.3630   -1.5200   -1.1850 C   0  0  1  0  0  0  0  0  0  0  0  0
    1.9320   -2.7970   -0.4550 C   0  0  0  0  0  0  0  0  0  0  0  0
    2.4570   -2.7610    0.9520 C   0  0  0  0  0  0  0  0  0  0  0  0
    1.6850   -2.1720    1.9230 C   0  0  0  0  0  0  0  0  0  0  0  0
    2.1260   -2.1170    3.2420 C   0  0  0  0  0  0  0  0  0  0  0  0
    3.3560   -2.6660    3.5640 C   0  0  0  0  0  0  0  0  0  0  0  0
    4.1250   -3.2560    2.5830 C   0  0  0  0  0  0  0  0  0  0  0  0
    3.6920   -3.3140    1.2690 C   0  0  0  0  0  0  0  0  0  0  0  0
    1.8160   -0.3000   -0.5410 C   0  0  0  0  0  0  0  0  0  0  0  0
    2.5620    0.5310    0.0360 O   0  0  0  0  0  0  0  0  0  0  0  0
    4.2470   -2.3560   -1.4580 H   0  0  0  0  0  0  0  0  0  0  0  0
    4.1990   -1.1020   -0.2780 H   0  0  0  0  0  0  0  0  0  0  0  0
    2.0230   -1.6400   -2.2310 H   0  0  0  0  0  0  0  0  0  0  0  0
    0.8420   -2.7870   -0.4100 H   0  0  0  0  0  0  0  0  0  0  0  0
    2.3090   -3.6450   -1.0230 H   0  0  0  0  0  0  0  0  0  0  0  0
    0.7360   -1.7550    1.6210 H   0  0  0  0  0  0  0  0  0  0  0  0
    1.5010   -1.6450    4.0020 H   0  0  0  0  0  0  0  0  0  0  0  0
    3.6540   -2.6000    4.5940 H   0  0  0  0  0  0  0  0  0  0  0  0
    5.0690   -3.6680    2.8760 H   0  0  0  0  0  0  0  0  0  0  0  0
    4.2870   -3.7750    0.4890 H   0  0  0  0  0  0  0  0  0  0  0  0
   -1.2320    3.3260   -0.2770 C   0  0  0  0  0  0  0  0  0  0  0  0
   -0.6230    2.1480   -0.9960 C   0  0  0  0  0  0  0  0  0  0  0  0
    0.5360    2.6600   -1.8130 C   0  0  0  0  0  0  0  0  0  0  0  0
   -0.1830    1.1470    0.0480 C   0  0  2  0  0  0  0  0  0  0  0  0
    0.4280   -0.0160   -0.5500 N   0  0  0  0  0  0  0  0  0  0  0  0
   -1.3310    0.8170    0.9030 C   0  0  0  0  0  0  0  0  0  0  0  0
   -1.9790    1.6810    1.5480 O   0  0  0  0  0  0  0  0  0  0  0  0
   -0.9970    4.2830   -0.8240 H   0  0  0  0  0  0  0  0  0  0  0  0
   -0.7650    3.4570    0.7190 H   0  0  0  0  0  0  0  0  0  0  0  0
   -2.3240    3.2360   -0.1190 H   0  0  0  0  0  0  0  0  0  0  0  0
   -1.4210    1.7080   -1.6270 H   0  0  0  0  0  0  0  0  0  0  0  0
    0.2320    3.4700   -2.5060 H   0  0  0  0  0  0  0  0  0  0  0  0
    0.9440    1.8420   -2.4730 H   0  0  0  0  0  0  0  0  0  0  0  0
    1.2910    3.0800   -1.1390 H   0  0  0  0  0  0  0  0  0  0  0  0
    0.5880    1.6620    0.6450 H   0  0  0  0  0  0  0  0  0  0  0  0
   -0.2000   -0.6960   -1.0230 H   0  0  0  0  0  0  0  0  0  0  0  0
   -5.4850   -1.4330   -0.8270 N   0  0  0  0  0  0  0  0  0  0  0  0
   -4.5010   -0.8640    0.0150 C   0  0  0  0  0  0  0  0  0  0  0  0
   -4.0490    0.2660   -0.2450 O   0  0  0  0  0  0  0  0  0  0  0  0
   -4.0220   -1.6140    1.1880 C   0  0  0  0  0  0  0  0  0  0  0  0
   -2.9740   -0.8150    1.9300 C   0  0  2  0  0  0  0  0  0  0  0  0
   -1.8330   -0.5250    1.0880 N   0  0  0  0  0  0  0  0  0  0  0  0
   -2.6000   -1.6160    3.1390 C   0  0  0  0  0  0  0  0  0  0  0  0
   -3.5080   -1.9380    3.9530 O   0  0  0  0  0  0  0  0  0  0  0  0
   -1.3120   -2.0130    3.3960 O   0  0  0  0  0  0  0  0  0  0  0  0
   -6.1680   -2.1460   -0.5140 H   0  0  0  0  0  0  0  0  0  0  0  0
   -5.5410   -1.1280   -1.8200 H   0  0  0  0  0  0  0  0  0  0  0  0
   -3.5250   -2.5660    0.8630 H   0  0  0  0  0  0  0  0  0  0  0  0
   -4.8440   -1.9360    1.8580 H   0  0  0  0  0  0  0  0  0  0  0  0
   -3.3850    0.1540    2.2930 H   0  0  0  0  0  0  0  0  0  0  0  0
   -1.3760   -1.3040    0.6100 H   0  0  0  0  0  0  0  0  0  0  0  0
  1 13  1  0  0  0  0
  2 14  1  6  0  0  0
  2  1  1  0  0  0  0
  2 10  1  0  0  0  0
  2  3  1  0  0  0  0
  3 15  1  0  0  0  0
  3  4  1  0  0  0  0
  4  9  2  0  0  0  0
  4  5  1  0  0  0  0
  5  6  2  0  0  0  0
  6  7  1  0  0  0  0
  6 18  1  0  0  0  0
  7 19  1  0  0  0  0
  8 20  1  0  0  0  0
  8  7  2  0  0  0  0
  9  8  1  0  0  0  0
 10 11  2  0  0  0  0
 12  1  1  0  0  0  0
 16  3  1  0  0  0  0
 17  5  1  0  0  0  0
 21  9  1  0  0  0  0
 22 31  1  0  0  0  0
 22 30  1  0  0  0  0
 23 22  1  0  0  0  0
 23 25  1  0  0  0  0
 24 35  1  0  0  0  0
 24 23  1  0  0  0  0
 25 36  1  1  0  0  0
 25 27  1  0  0  0  0
 26 10  1  0  0  0  0
 26 25  1  0  0  0  0
 27 43  1  0  0  0  0
 27 28  2  0  0  0  0
 29 22  1  0  0  0  0
 32 23  1  0  0  0  0
 33 24  1  0  0  0  0
 34 24  1  0  0  0  0
 37 26  1  0  0  0  0
 38 47  1  0  0  0  0
 38 39  1  0  0  0  0
 39 41  1  0  0  0  0
 40 39  2  0  0  0  0
 41 50  1  0  0  0  0
 41 42  1  0  0  0  0
 42 51  1  1  0  0  0
 42 44  1  0  0  0  0
 43 42  1  0  0  0  0
 44 46  2  0  0  0  0
 44 45  1  0  0  0  0
 48 38  1  0  0  0  0
 49 41  1  0  0  0  0
 52 43  1  0  0  0  0
M  END
$$$$
