FVQ.pdb
 OpenBabel07022419023D

 55 55  0  0  1  0  0  0  0  0999 V2000
    2.3700    0.4010    0.2080 N   0  0  0  0  0  0  0  0  0  0  0  0
    2.4740   -0.0940    1.5690 C   0  0  1  0  0  0  0  0  0  0  0  0
    3.3140    0.8760    2.3650 C   0  0  0  0  0  0  0  0  0  0  0  0
    4.6490    0.9410    1.7200 C   0  0  0  0  0  0  0  0  0  0  0  0
    4.9480    1.8450    0.7240 C   0  0  0  0  0  0  0  0  0  0  0  0
    6.2180    1.8790    0.1360 C   0  0  0  0  0  0  0  0  0  0  0  0
    7.1880    0.9970    0.5570 C   0  0  0  0  0  0  0  0  0  0  0  0
    6.9070    0.0910    1.5470 C   0  0  0  0  0  0  0  0  0  0  0  0
    5.6450    0.0750    2.1140 C   0  0  0  0  0  0  0  0  0  0  0  0
    1.1110   -0.2410    2.1040 C   0  0  0  0  0  0  0  0  0  0  0  0
    0.9090   -0.6610    3.2860 O   0  0  0  0  0  0  0  0  0  0  0  0
    1.8010   -0.2970   -0.3220 H   0  0  0  0  0  0  0  0  0  0  0  0
    1.8720    1.3160    0.1750 H   0  0  0  0  0  0  0  0  0  0  0  0
    3.0370   -1.0450    1.5200 H   0  0  0  0  0  0  0  0  0  0  0  0
    3.4090    0.5560    3.4220 H   0  0  0  0  0  0  0  0  0  0  0  0
    2.8560    1.8860    2.2930 H   0  0  0  0  0  0  0  0  0  0  0  0
    4.1800    2.5160    0.4160 H   0  0  0  0  0  0  0  0  0  0  0  0
    6.4170    2.5990   -0.6410 H   0  0  0  0  0  0  0  0  0  0  0  0
    8.1770    1.0470    0.0770 H   0  0  0  0  0  0  0  0  0  0  0  0
    7.6730   -0.5860    1.8610 H   0  0  0  0  0  0  0  0  0  0  0  0
    5.4540   -0.6420    2.8840 H   0  0  0  0  0  0  0  0  0  0  0  0
   -3.4970    0.9730    2.6210 C   0  0  0  0  0  0  0  0  0  0  0  0
   -2.1200    1.2280    2.0560 C   0  0  0  0  0  0  0  0  0  0  0  0
   -2.1330    2.0650    0.8270 C   0  0  0  0  0  0  0  0  0  0  0  0
   -1.4100   -0.0890    1.9160 C   0  0  2  0  0  0  0  0  0  0  0  0
   -0.0730    0.0600    1.3790 N   0  0  0  0  0  0  0  0  0  0  0  0
   -2.1980   -1.1060    1.1870 C   0  0  0  0  0  0  0  0  0  0  0  0
   -3.3820   -1.3660    1.5230 O   0  0  0  0  0  0  0  0  0  0  0  0
   -3.4570    0.1220    3.3220 H   0  0  0  0  0  0  0  0  0  0  0  0
   -3.7710    1.8640    3.2600 H   0  0  0  0  0  0  0  0  0  0  0  0
   -4.2590    0.7710    1.8650 H   0  0  0  0  0  0  0  0  0  0  0  0
   -1.5570    1.8040    2.8450 H   0  0  0  0  0  0  0  0  0  0  0  0
   -1.9780    3.1530    1.0890 H   0  0  0  0  0  0  0  0  0  0  0  0
   -3.1860    2.0430    0.4210 H   0  0  0  0  0  0  0  0  0  0  0  0
   -1.3890    1.8300    0.0690 H   0  0  0  0  0  0  0  0  0  0  0  0
   -1.2670   -0.4740    2.9580 H   0  0  0  0  0  0  0  0  0  0  0  0
    0.0290    0.4090    0.4020 H   0  0  0  0  0  0  0  0  0  0  0  0
   -5.6580   -4.4520   -3.0120 N   0  0  0  0  0  0  0  0  0  0  0  0
   -4.7810   -3.4660   -2.4240 C   0  0  0  0  0  0  0  0  0  0  0  0
   -5.2550   -2.8340   -1.4670 O   0  0  0  0  0  0  0  0  0  0  0  0
   -3.4270   -3.2350   -2.9320 C   0  0  0  0  0  0  0  0  0  0  0  0
   -2.6600   -2.3370   -2.0430 C   0  0  0  0  0  0  0  0  0  0  0  0
   -2.4630   -2.8530   -0.6420 C   0  0  2  0  0  0  0  0  0  0  0  0
   -1.6870   -1.8430    0.0850 N   0  0  0  0  0  0  0  0  0  0  0  0
   -1.8430   -4.1740   -0.5560 C   0  0  0  0  0  0  0  0  0  0  0  0
   -0.7500   -4.3620    0.0350 O   0  0  0  0  0  0  0  0  0  0  0  0
   -2.4420   -5.2800   -1.1240 O   0  0  0  0  0  0  0  0  0  0  0  0
   -5.3720   -5.4510   -3.1170 H   0  0  0  0  0  0  0  0  0  0  0  0
   -6.6110   -4.2000   -3.3530 H   0  0  0  0  0  0  0  0  0  0  0  0
   -3.4590   -2.7830   -3.9620 H   0  0  0  0  0  0  0  0  0  0  0  0
   -2.8780   -4.1960   -3.0730 H   0  0  0  0  0  0  0  0  0  0  0  0
   -3.2380   -1.3660   -1.9230 H   0  0  0  0  0  0  0  0  0  0  0  0
   -1.6920   -1.9950   -2.4870 H   0  0  0  0  0  0  0  0  0  0  0  0
   -3.4450   -2.8630   -0.1320 H   0  0  0  0  0  0  0  0  0  0  0  0
   -0.7160   -1.6870   -0.2550 H   0  0  0  0  0  0  0  0  0  0  0  0
  1  2  1  0  0  0  0
  2 14  1  6  0  0  0
  2 10  1  0  0  0  0
  2  3  1  0  0  0  0
  3 15  1  0  0  0  0
  4  9  1  0  0  0  0
  4  3  1  0  0  0  0
  5  4  2  0  0  0  0
  6  7  2  0  0  0  0
  6  5  1  0  0  0  0
  7  8  1  0  0  0  0
  8 20  1  0  0  0  0
  8  9  2  0  0  0  0
  9 21  1  0  0  0  0
 10 11  2  0  0  0  0
 12  1  1  0  0  0  0
 13  1  1  0  0  0  0
 16  3  1  0  0  0  0
 17  5  1  0  0  0  0
 18  6  1  0  0  0  0
 19  7  1  0  0  0  0
 22 30  1  0  0  0  0
 22 29  1  0  0  0  0
 23 22  1  0  0  0  0
 23 32  1  0  0  0  0
 24 33  1  0  0  0  0
 24 23  1  0  0  0  0
 25 23  1  0  0  0  0
 25 36  1  1  0  0  0
 26 25  1  0  0  0  0
 26 10  1  0  0  0  0
 27 28  2  0  0  0  0
 27 25  1  0  0  0  0
 31 22  1  0  0  0  0
 34 24  1  0  0  0  0
 35 24  1  0  0  0  0
 37 26  1  0  0  0  0
 38 39  1  0  0  0  0
 39 40  2  0  0  0  0
 41 39  1  0  0  0  0
 41 42  1  0  0  0  0
 42 52  1  0  0  0  0
 42 43  1  0  0  0  0
 43 45  1  0  0  0  0
 43 54  1  1  0  0  0
 43 44  1  0  0  0  0
 44 27  1  0  0  0  0
 45 46  1  0  0  0  0
 47 45  2  0  0  0  0
 48 38  1  0  0  0  0
 49 38  1  0  0  0  0
 50 41  1  0  0  0  0
 51 41  1  0  0  0  0
 53 42  1  0  0  0  0
 55 44  1  0  0  0  0
M  END
$$$$
