FVT.pdb
 OpenBabel07022419023D

 52 52  0  0  1  0  0  0  0  0999 V2000
    1.8270   -2.3120   -0.9850 N   0  0  0  0  0  0  0  0  0  0  0  0
    2.3040   -1.6810    0.2410 C   0  0  1  0  0  0  0  0  0  0  0  0
    3.5950   -0.9980   -0.0390 C   0  0  0  0  0  0  0  0  0  0  0  0
    4.1630   -0.3250    1.1280 C   0  0  0  0  0  0  0  0  0  0  0  0
    5.0070   -0.9250    2.0370 C   0  0  0  0  0  0  0  0  0  0  0  0
    5.5510   -0.3040    3.1260 C   0  0  0  0  0  0  0  0  0  0  0  0
    5.2200    1.0270    3.3160 C   0  0  0  0  0  0  0  0  0  0  0  0
    4.3840    1.6850    2.4470 C   0  0  0  0  0  0  0  0  0  0  0  0
    3.8680    1.0120    1.3720 C   0  0  0  0  0  0  0  0  0  0  0  0
    1.2740   -0.7710    0.8050 C   0  0  0  0  0  0  0  0  0  0  0  0
    1.4530   -0.1770    1.9140 O   0  0  0  0  0  0  0  0  0  0  0  0
    1.7750   -1.6310   -1.7700 H   0  0  0  0  0  0  0  0  0  0  0  0
    0.9250   -2.7990   -0.8760 H   0  0  0  0  0  0  0  0  0  0  0  0
    2.4430   -2.5220    0.9810 H   0  0  0  0  0  0  0  0  0  0  0  0
    4.2960   -1.7350   -0.4750 H   0  0  0  0  0  0  0  0  0  0  0  0
    3.3960   -0.2140   -0.8210 H   0  0  0  0  0  0  0  0  0  0  0  0
    5.2530   -1.9650    1.8710 H   0  0  0  0  0  0  0  0  0  0  0  0
    6.2120   -0.7700    3.8410 H   0  0  0  0  0  0  0  0  0  0  0  0
    5.6200    1.5550    4.1530 H   0  0  0  0  0  0  0  0  0  0  0  0
    4.1290    2.7420    2.6080 H   0  0  0  0  0  0  0  0  0  0  0  0
    3.2020    1.5210    0.6680 H   0  0  0  0  0  0  0  0  0  0  0  0
   -2.2890    2.4250    0.1750 C   0  0  0  0  0  0  0  0  0  0  0  0
   -1.1930    1.5170   -0.3270 C   0  0  0  0  0  0  0  0  0  0  0  0
    0.0620    2.3330   -0.4650 C   0  0  0  0  0  0  0  0  0  0  0  0
   -0.9970    0.3240    0.5890 C   0  0  2  0  0  0  0  0  0  0  0  0
    0.0560   -0.5420    0.1130 N   0  0  0  0  0  0  0  0  0  0  0  0
   -2.2670   -0.4040    0.8280 C   0  0  0  0  0  0  0  0  0  0  0  0
   -3.2180    0.2780    1.2800 O   0  0  0  0  0  0  0  0  0  0  0  0
   -2.2820    2.3990    1.2870 H   0  0  0  0  0  0  0  0  0  0  0  0
   -3.3020    2.1120   -0.1460 H   0  0  0  0  0  0  0  0  0  0  0  0
   -2.0880    3.4930   -0.0780 H   0  0  0  0  0  0  0  0  0  0  0  0
   -1.5190    1.1440   -1.3320 H   0  0  0  0  0  0  0  0  0  0  0  0
    0.5580    2.5500    0.4770 H   0  0  0  0  0  0  0  0  0  0  0  0
    0.7740    1.6930   -1.0650 H   0  0  0  0  0  0  0  0  0  0  0  0
   -0.1340    3.2570   -1.0110 H   0  0  0  0  0  0  0  0  0  0  0  0
   -0.6830    0.7310    1.5720 H   0  0  0  0  0  0  0  0  0  0  0  0
   -0.0850   -1.0300   -0.7940 H   0  0  0  0  0  0  0  0  0  0  0  0
   -4.6240   -1.9610   -1.4060 C   0  0  0  0  0  0  0  0  0  0  0  0
   -4.2910   -3.0880   -0.4250 C   0  0  1  0  0  0  0  0  0  0  0  0
   -3.4680   -4.0020   -1.0300 O   0  0  0  0  0  0  0  0  0  0  0  0
   -3.7020   -2.4750    0.8240 C   0  0  2  0  0  0  0  0  0  0  0  0
   -2.4740   -1.7760    0.5890 N   0  0  0  0  0  0  0  0  0  0  0  0
   -3.5050   -3.5760    1.8020 C   0  0  0  0  0  0  0  0  0  0  0  0
   -2.3610   -3.7580    2.2810 O   0  0  0  0  0  0  0  0  0  0  0  0
   -4.5270   -4.4120    2.2100 O   0  0  0  0  0  0  0  0  0  0  0  0
   -5.0520   -2.3240   -2.3380 H   0  0  0  0  0  0  0  0  0  0  0  0
   -5.2940   -1.2370   -0.8550 H   0  0  0  0  0  0  0  0  0  0  0  0
   -3.6660   -1.3910   -1.5290 H   0  0  0  0  0  0  0  0  0  0  0  0
   -5.2570   -3.5890   -0.2120 H   0  0  0  0  0  0  0  0  0  0  0  0
   -3.0070   -4.6080   -0.4310 H   0  0  0  0  0  0  0  0  0  0  0  0
   -4.4910   -1.8120    1.2650 H   0  0  0  0  0  0  0  0  0  0  0  0
   -1.6570   -2.3100    0.2110 H   0  0  0  0  0  0  0  0  0  0  0  0
  1 13  1  0  0  0  0
  1  2  1  0  0  0  0
  2 10  1  0  0  0  0
  2 14  1  1  0  0  0
  3  2  1  0  0  0  0
  3  4  1  0  0  0  0
  4  9  2  0  0  0  0
  4  5  1  0  0  0  0
  5  6  2  0  0  0  0
  6  7  1  0  0  0  0
  6 18  1  0  0  0  0
  7 19  1  0  0  0  0
  8 20  1  0  0  0  0
  8  7  2  0  0  0  0
  9  8  1  0  0  0  0
 10 11  2  0  0  0  0
 12  1  1  0  0  0  0
 15  3  1  0  0  0  0
 16  3  1  0  0  0  0
 17  5  1  0  0  0  0
 21  9  1  0  0  0  0
 22 29  1  0  0  0  0
 23 22  1  0  0  0  0
 23 25  1  0  0  0  0
 24 23  1  0  0  0  0
 24 33  1  0  0  0  0
 25 27  1  0  0  0  0
 25 36  1  1  0  0  0
 26 25  1  0  0  0  0
 26 10  1  0  0  0  0
 27 28  2  0  0  0  0
 30 22  1  0  0  0  0
 31 22  1  0  0  0  0
 32 23  1  0  0  0  0
 34 24  1  0  0  0  0
 35 24  1  0  0  0  0
 37 26  1  0  0  0  0
 38 47  1  0  0  0  0
 38 39  1  0  0  0  0
 39 49  1  1  0  0  0
 39 41  1  0  0  0  0
 40 50  1  0  0  0  0
 40 39  1  0  0  0  0
 41 51  1  1  0  0  0
 41 43  1  0  0  0  0
 42 41  1  0  0  0  0
 42 27  1  0  0  0  0
 43 45  2  0  0  0  0
 43 44  1  0  0  0  0
 46 38  1  0  0  0  0
 48 38  1  0  0  0  0
 52 42  1  0  0  0  0
M  END
$$$$
