FVV.pdb
 OpenBabel07022419023D

 54 54  0  0  1  0  0  0  0  0999 V2000
    2.3510   -3.7690    3.3760 N   0  0  0  0  0  0  0  0  0  0  0  0
    2.3210   -2.5910    2.4540 C   0  0  1  0  0  0  0  0  0  0  0  0
    2.7360   -3.1460    1.1470 C   0  0  0  0  0  0  0  0  0  0  0  0
    2.8360   -2.2400    0.0120 C   0  0  0  0  0  0  0  0  0  0  0  0
    4.0010   -1.4990   -0.1940 C   0  0  0  0  0  0  0  0  0  0  0  0
    4.1710   -0.6520   -1.2640 C   0  0  0  0  0  0  0  0  0  0  0  0
    3.1570   -0.5020   -2.1990 C   0  0  0  0  0  0  0  0  0  0  0  0
    2.0080   -1.2340   -1.9940 C   0  0  0  0  0  0  0  0  0  0  0  0
    1.8450   -2.0780   -0.9260 C   0  0  0  0  0  0  0  0  0  0  0  0
    1.0160   -1.9900    2.6140 C   0  0  0  0  0  0  0  0  0  0  0  0
    0.1760   -2.5570    3.4190 O   0  0  0  0  0  0  0  0  0  0  0  0
    3.3320   -4.1680    3.3390 H   0  0  0  0  0  0  0  0  0  0  0  0
    2.1020   -3.4640    4.3430 H   0  0  0  0  0  0  0  0  0  0  0  0
    3.1460   -1.9490    2.8960 H   0  0  0  0  0  0  0  0  0  0  0  0
    2.0640   -4.0060    0.8900 H   0  0  0  0  0  0  0  0  0  0  0  0
    3.7640   -3.5900    1.3050 H   0  0  0  0  0  0  0  0  0  0  0  0
    4.7970   -1.6150    0.5380 H   0  0  0  0  0  0  0  0  0  0  0  0
    5.0960   -0.0780   -1.4060 H   0  0  0  0  0  0  0  0  0  0  0  0
    3.2560    0.1550   -3.0500 H   0  0  0  0  0  0  0  0  0  0  0  0
    1.1920   -1.1340   -2.7150 H   0  0  0  0  0  0  0  0  0  0  0  0
    0.9130   -2.6520   -0.7910 H   0  0  0  0  0  0  0  0  0  0  0  0
   -2.1060    1.4740    3.4160 C   0  0  0  0  0  0  0  0  0  0  0  0
   -0.7100    0.9950    3.1150 C   0  0  0  0  0  0  0  0  0  0  0  0
   -0.0920    0.6230    4.4620 C   0  0  0  0  0  0  0  0  0  0  0  0
   -0.8370   -0.3170    2.3050 C   0  0  2  0  0  0  0  0  0  0  0  0
    0.4850   -0.8190    2.0080 N   0  0  0  0  0  0  0  0  0  0  0  0
   -1.7670   -0.2050    1.1930 C   0  0  0  0  0  0  0  0  0  0  0  0
   -2.9620    0.1860    1.4710 O   0  0  0  0  0  0  0  0  0  0  0  0
   -2.5370    2.1260    2.6460 H   0  0  0  0  0  0  0  0  0  0  0  0
   -2.0540    2.0840    4.3760 H   0  0  0  0  0  0  0  0  0  0  0  0
   -2.7440    0.6130    3.7060 H   0  0  0  0  0  0  0  0  0  0  0  0
   -0.1050    1.7280    2.5820 H   0  0  0  0  0  0  0  0  0  0  0  0
    0.7640   -0.0460    4.3440 H   0  0  0  0  0  0  0  0  0  0  0  0
   -0.8900    0.1480    5.0640 H   0  0  0  0  0  0  0  0  0  0  0  0
    0.1750    1.5760    4.9930 H   0  0  0  0  0  0  0  0  0  0  0  0
   -1.2850   -1.0240    3.0670 H   0  0  0  0  0  0  0  0  0  0  0  0
    1.1050   -0.3310    1.3290 H   0  0  0  0  0  0  0  0  0  0  0  0
   -3.3860    0.6470   -3.2320 C   0  0  0  0  0  0  0  0  0  0  0  0
   -2.1900    0.5650   -2.2910 C   0  0  0  0  0  0  0  0  0  0  0  0
   -1.8310    1.9720   -1.9140 C   0  0  0  0  0  0  0  0  0  0  0  0
   -2.5640   -0.3200   -1.1520 C   0  0  2  0  0  0  0  0  0  0  0  0
   -1.5040   -0.4820   -0.1780 N   0  0  0  0  0  0  0  0  0  0  0  0
   -2.9080   -1.6540   -1.7210 C   0  0  0  0  0  0  0  0  0  0  0  0
   -3.8010   -1.8250   -2.5750 O   0  0  0  0  0  0  0  0  0  0  0  0
   -2.2070   -2.7580   -1.2840 O   0  0  0  0  0  0  0  0  0  0  0  0
   -3.4330    1.6620   -3.7110 H   0  0  0  0  0  0  0  0  0  0  0  0
   -3.3170   -0.0980   -4.0610 H   0  0  0  0  0  0  0  0  0  0  0  0
   -4.3250    0.5160   -2.6650 H   0  0  0  0  0  0  0  0  0  0  0  0
   -1.3750    0.0950   -2.8900 H   0  0  0  0  0  0  0  0  0  0  0  0
   -0.8310    2.1090   -1.5110 H   0  0  0  0  0  0  0  0  0  0  0  0
   -1.8860    2.5800   -2.8610 H   0  0  0  0  0  0  0  0  0  0  0  0
   -2.6520    2.3920   -1.2850 H   0  0  0  0  0  0  0  0  0  0  0  0
   -3.4760    0.1140   -0.6490 H   0  0  0  0  0  0  0  0  0  0  0  0
   -0.5550   -0.7910   -0.4440 H   0  0  0  0  0  0  0  0  0  0  0  0
  1 13  1  0  0  0  0
  2 10  1  0  0  0  0
  2 14  1  1  0  0  0
  2  1  1  0  0  0  0
  3 16  1  0  0  0  0
  3  2  1  0  0  0  0
  4  3  1  0  0  0  0
  5  4  1  0  0  0  0
  5 17  1  0  0  0  0
  6  5  2  0  0  0  0
  7  8  2  0  0  0  0
  7  6  1  0  0  0  0
  8  9  1  0  0  0  0
  9 21  1  0  0  0  0
  9  4  2  0  0  0  0
 10 11  2  0  0  0  0
 12  1  1  0  0  0  0
 15  3  1  0  0  0  0
 18  6  1  0  0  0  0
 19  7  1  0  0  0  0
 20  8  1  0  0  0  0
 22 31  1  0  0  0  0
 22 30  1  0  0  0  0
 23 22  1  0  0  0  0
 23 24  1  0  0  0  0
 24 35  1  0  0  0  0
 24 34  1  0  0  0  0
 25 36  1  1  0  0  0
 25 23  1  0  0  0  0
 26 25  1  0  0  0  0
 26 10  1  0  0  0  0
 27 28  2  0  0  0  0
 27 25  1  0  0  0  0
 29 22  1  0  0  0  0
 32 23  1  0  0  0  0
 33 24  1  0  0  0  0
 37 26  1  0  0  0  0
 38 48  1  0  0  0  0
 38 39  1  0  0  0  0
 39 40  1  0  0  0  0
 39 41  1  0  0  0  0
 40 50  1  0  0  0  0
 40 52  1  0  0  0  0
 41 53  1  1  0  0  0
 41 42  1  0  0  0  0
 42 27  1  0  0  0  0
 43 45  1  0  0  0  0
 43 41  1  0  0  0  0
 44 43  2  0  0  0  0
 46 38  1  0  0  0  0
 47 38  1  0  0  0  0
 49 39  1  0  0  0  0
 51 40  1  0  0  0  0
 54 42  1  0  0  0  0
M  END
$$$$
