FVY.pdb
 OpenBabel07022419023D

 59 60  0  0  1  0  0  0  0  0999 V2000
    4.2740   -0.7300   -1.9070 N   0  0  0  0  0  0  0  0  0  0  0  0
    4.1020   -0.6010   -0.4620 C   0  0  1  0  0  0  0  0  0  0  0  0
    4.8500    0.5700    0.0700 C   0  0  0  0  0  0  0  0  0  0  0  0
    4.6910    0.7180    1.5220 C   0  0  0  0  0  0  0  0  0  0  0  0
    5.5410    0.0350    2.4000 C   0  0  0  0  0  0  0  0  0  0  0  0
    5.4460    0.1560    3.7640 C   0  0  0  0  0  0  0  0  0  0  0  0
    4.4880    0.9720    4.3160 C   0  0  0  0  0  0  0  0  0  0  0  0
    3.6300    1.6630    3.4910 C   0  0  0  0  0  0  0  0  0  0  0  0
    3.7370    1.5320    2.1250 C   0  0  0  0  0  0  0  0  0  0  0  0
    2.6740   -0.5200   -0.1070 C   0  0  0  0  0  0  0  0  0  0  0  0
    2.3480   -0.5370    1.1000 O   0  0  0  0  0  0  0  0  0  0  0  0
    3.5880   -1.4130   -2.2990 H   0  0  0  0  0  0  0  0  0  0  0  0
    5.2170   -1.1380   -2.0770 H   0  0  0  0  0  0  0  0  0  0  0  0
    4.5000   -1.5570   -0.0260 H   0  0  0  0  0  0  0  0  0  0  0  0
    5.9300    0.5120   -0.1910 H   0  0  0  0  0  0  0  0  0  0  0  0
    4.4110    1.4830   -0.4010 H   0  0  0  0  0  0  0  0  0  0  0  0
    6.3010   -0.6110    1.9810 H   0  0  0  0  0  0  0  0  0  0  0  0
    6.1300   -0.3940    4.4270 H   0  0  0  0  0  0  0  0  0  0  0  0
    4.4150    1.0650    5.4060 H   0  0  0  0  0  0  0  0  0  0  0  0
    2.8670    2.3120    3.9230 H   0  0  0  0  0  0  0  0  0  0  0  0
    3.0510    2.0870    1.4900 H   0  0  0  0  0  0  0  0  0  0  0  0
    0.6210    2.0230   -0.3540 C   0  0  0  0  0  0  0  0  0  0  0  0
   -0.2830    0.9870   -1.0500 C   0  0  0  0  0  0  0  0  0  0  0  0
   -1.6700    1.2980   -0.6110 C   0  0  0  0  0  0  0  0  0  0  0  0
    0.2510   -0.3490   -0.6120 C   0  0  2  0  0  0  0  0  0  0  0  0
    1.6300   -0.4240   -1.0460 N   0  0  0  0  0  0  0  0  0  0  0  0
   -0.4670   -1.5210   -1.1130 C   0  0  0  0  0  0  0  0  0  0  0  0
    0.1900   -2.3260   -1.8280 O   0  0  0  0  0  0  0  0  0  0  0  0
    0.3020    3.0400   -0.5780 H   0  0  0  0  0  0  0  0  0  0  0  0
    0.4780    1.8670    0.7460 H   0  0  0  0  0  0  0  0  0  0  0  0
    1.6830    1.8200   -0.5530 H   0  0  0  0  0  0  0  0  0  0  0  0
   -0.1280    1.1450   -2.1350 H   0  0  0  0  0  0  0  0  0  0  0  0
   -1.8190    0.9990    0.4400 H   0  0  0  0  0  0  0  0  0  0  0  0
   -2.4680    0.9580   -1.2960 H   0  0  0  0  0  0  0  0  0  0  0  0
   -1.8110    2.4240   -0.5920 H   0  0  0  0  0  0  0  0  0  0  0  0
    0.2150   -0.3820    0.4990 H   0  0  0  0  0  0  0  0  0  0  0  0
    1.8300   -0.4050   -2.0630 H   0  0  0  0  0  0  0  0  0  0  0  0
   -6.4950   -1.5960    3.4090 O   0  0  0  0  0  0  0  0  0  0  0  0
   -5.6850   -2.1890    2.4450 C   0  0  0  0  0  0  0  0  0  0  0  0
   -6.2080   -2.7610    1.2970 C   0  0  0  0  0  0  0  0  0  0  0  0
   -5.3490   -3.3360    0.3750 C   0  0  0  0  0  0  0  0  0  0  0  0
   -3.9910   -3.3420    0.5910 C   0  0  0  0  0  0  0  0  0  0  0  0
   -3.0260   -3.9310   -0.3400 C   0  0  0  0  0  0  0  0  0  0  0  0
   -2.5040   -2.9940   -1.3770 C   0  0  2  0  0  0  0  0  0  0  0  0
   -1.8200   -1.8490   -0.8800 N   0  0  0  0  0  0  0  0  0  0  0  0
   -3.5800   -2.6200   -2.3270 C   0  0  0  0  0  0  0  0  0  0  0  0
   -4.3050   -3.4680   -2.8840 O   0  0  0  0  0  0  0  0  0  0  0  0
   -3.5060   -2.7630    1.7470 C   0  0  0  0  0  0  0  0  0  0  0  0
   -4.3280   -2.1820    2.6860 C   0  0  0  0  0  0  0  0  0  0  0  0
   -3.7820   -1.2760   -2.5990 O   0  0  0  0  0  0  0  0  0  0  0  0
   -6.3170   -1.8900    4.3700 H   0  0  0  0  0  0  0  0  0  0  0  0
   -7.2620   -2.7500    1.1390 H   0  0  0  0  0  0  0  0  0  0  0  0
   -5.6990   -3.7960   -0.5390 H   0  0  0  0  0  0  0  0  0  0  0  0
   -2.2120   -4.4300    0.2270 H   0  0  0  0  0  0  0  0  0  0  0  0
   -3.5530   -4.7570   -0.8840 H   0  0  0  0  0  0  0  0  0  0  0  0
   -1.7570   -3.5820   -1.9880 H   0  0  0  0  0  0  0  0  0  0  0  0
   -2.3730   -1.1970   -0.2870 H   0  0  0  0  0  0  0  0  0  0  0  0
   -2.4260   -2.7600    1.9340 H   0  0  0  0  0  0  0  0  0  0  0  0
   -3.9230   -1.7250    3.6020 H   0  0  0  0  0  0  0  0  0  0  0  0
  1  2  1  0  0  0  0
  2 10  1  0  0  0  0
  2 14  1  1  0  0  0
  2  3  1  0  0  0  0
  3  4  1  0  0  0  0
  4  9  2  0  0  0  0
  4  5  1  0  0  0  0
  5  6  2  0  0  0  0
  6  7  1  0  0  0  0
  6 18  1  0  0  0  0
  7 19  1  0  0  0  0
  8 20  1  0  0  0  0
  8  7  2  0  0  0  0
  9  8  1  0  0  0  0
 10 11  2  0  0  0  0
 12  1  1  0  0  0  0
 13  1  1  0  0  0  0
 15  3  1  0  0  0  0
 16  3  1  0  0  0  0
 17  5  1  0  0  0  0
 21  9  1  0  0  0  0
 22 30  1  0  0  0  0
 23 25  1  0  0  0  0
 23 24  1  0  0  0  0
 23 22  1  0  0  0  0
 24 35  1  0  0  0  0
 24 33  1  0  0  0  0
 25 36  1  1  0  0  0
 26 25  1  0  0  0  0
 26 10  1  0  0  0  0
 27 45  1  0  0  0  0
 27 25  1  0  0  0  0
 28 27  2  0  0  0  0
 29 22  1  0  0  0  0
 31 22  1  0  0  0  0
 32 23  1  0  0  0  0
 34 24  1  0  0  0  0
 37 26  1  0  0  0  0
 38 51  1  0  0  0  0
 39 49  1  0  0  0  0
 39 38  1  0  0  0  0
 40 39  2  0  0  0  0
 41 42  2  0  0  0  0
 41 40  1  0  0  0  0
 42 48  1  0  0  0  0
 43 54  1  0  0  0  0
 43 42  1  0  0  0  0
 44 56  1  6  0  0  0
 44 45  1  0  0  0  0
 44 43  1  0  0  0  0
 45 57  1  0  0  0  0
 46 44  1  0  0  0  0
 47 46  2  0  0  0  0
 48 58  1  0  0  0  0
 48 49  2  0  0  0  0
 49 59  1  0  0  0  0
 50 46  1  0  0  0  0
 52 40  1  0  0  0  0
 53 41  1  0  0  0  0
 55 43  1  0  0  0  0
M  END
$$$$
