FWH.pdb
 OpenBabel07022419013D

 63 66  0  0  1  0  0  0  0  0999 V2000
    2.6880   -3.9270    4.2800 N   0  0  0  0  0  0  0  0  0  0  0  0
    1.9210   -2.7300    3.8410 C   0  0  1  0  0  0  0  0  0  0  0  0
    2.6060   -1.5340    4.4040 C   0  0  0  0  0  0  0  0  0  0  0  0
    2.0190   -0.2280    4.1250 C   0  0  0  0  0  0  0  0  0  0  0  0
    2.4240    0.5630    3.0740 C   0  0  0  0  0  0  0  0  0  0  0  0
    1.8720    1.7960    2.8380 C   0  0  0  0  0  0  0  0  0  0  0  0
    0.8810    2.2470    3.6870 C   0  0  0  0  0  0  0  0  0  0  0  0
    0.4540    1.4820    4.7450 C   0  0  0  0  0  0  0  0  0  0  0  0
    1.0190    0.2520    4.9630 C   0  0  0  0  0  0  0  0  0  0  0  0
    1.9020   -2.7450    2.3580 C   0  0  0  0  0  0  0  0  0  0  0  0
    2.7380   -3.5210    1.7450 O   0  0  0  0  0  0  0  0  0  0  0  0
    2.2960   -4.7860    3.8050 H   0  0  0  0  0  0  0  0  0  0  0  0
    2.6100   -4.0470    5.3150 H   0  0  0  0  0  0  0  0  0  0  0  0
    0.9050   -2.8360    4.2830 H   0  0  0  0  0  0  0  0  0  0  0  0
    3.6610   -1.4960    4.0100 H   0  0  0  0  0  0  0  0  0  0  0  0
    2.7530   -1.6660    5.5130 H   0  0  0  0  0  0  0  0  0  0  0  0
    3.2100    0.2200    2.3900 H   0  0  0  0  0  0  0  0  0  0  0  0
    2.1930    2.4170    2.0100 H   0  0  0  0  0  0  0  0  0  0  0  0
    0.4270    3.2130    3.5290 H   0  0  0  0  0  0  0  0  0  0  0  0
   -0.3310    1.8320    5.4220 H   0  0  0  0  0  0  0  0  0  0  0  0
    0.6920   -0.3600    5.7920 H   0  0  0  0  0  0  0  0  0  0  0  0
    1.0270   -1.9770    1.5570 N   0  0  0  0  0  0  0  0  0  0  0  0
    1.0700   -2.0870    0.0950 C   0  0  1  0  0  0  0  0  0  0  0  0
    0.1180   -3.1040   -0.4110 C   0  0  0  0  0  0  0  0  0  0  0  0
   -1.2940   -2.9720   -0.1450 C   0  0  0  0  0  0  0  0  0  0  0  0
   -1.8920   -3.5040    1.0070 C   0  0  0  0  0  0  0  0  0  0  0  0
   -3.1940   -3.1880    1.0060 N   0  0  0  0  0  0  0  0  0  0  0  0
   -3.4680   -2.4680   -0.1070 C   0  0  0  0  0  0  0  0  0  0  0  0
   -4.6630   -1.9460   -0.5510 C   0  0  0  0  0  0  0  0  0  0  0  0
   -4.7210   -1.2650   -1.7370 C   0  0  0  0  0  0  0  0  0  0  0  0
   -3.5300   -1.1300   -2.4630 C   0  0  0  0  0  0  0  0  0  0  0  0
   -2.3520   -1.6460   -2.0220 C   0  0  0  0  0  0  0  0  0  0  0  0
   -2.3010   -2.3270   -0.8300 C   0  0  0  0  0  0  0  0  0  0  0  0
    1.1000   -0.8010   -0.5910 C   0  0  0  0  0  0  0  0  0  0  0  0
    1.1950    0.2110    0.1490 O   0  0  0  0  0  0  0  0  0  0  0  0
    0.3570   -1.3370    2.0360 H   0  0  0  0  0  0  0  0  0  0  0  0
    2.1030   -2.6160   -0.0750 H   0  0  0  0  0  0  0  0  0  0  0  0
    0.4900   -4.1290   -0.0930 H   0  0  0  0  0  0  0  0  0  0  0  0
    0.2740   -3.1360   -1.5390 H   0  0  0  0  0  0  0  0  0  0  0  0
   -1.4170   -4.0800    1.7920 H   0  0  0  0  0  0  0  0  0  0  0  0
   -3.9110   -3.4350    1.7240 H   0  0  0  0  0  0  0  0  0  0  0  0
   -5.5810   -2.0630    0.0320 H   0  0  0  0  0  0  0  0  0  0  0  0
   -5.6410   -0.8490   -2.1030 H   0  0  0  0  0  0  0  0  0  0  0  0
   -3.6330   -0.5800   -3.4030 H   0  0  0  0  0  0  0  0  0  0  0  0
   -1.4610   -1.5350   -2.5940 H   0  0  0  0  0  0  0  0  0  0  0  0
    1.0460   -0.5570   -1.9460 N   0  0  0  0  0  0  0  0  0  0  0  0
    1.1220    0.5830   -2.7180 C   0  0  1  0  0  0  0  0  0  0  0  0
    0.0820    1.0710   -3.6070 C   0  0  0  0  0  0  0  0  0  0  0  0
   -1.2120    1.4730   -3.0050 C   0  0  0  0  0  0  0  0  0  0  0  0
   -1.6180    1.5470   -1.6920 C   0  0  0  0  0  0  0  0  0  0  0  0
   -2.8780    2.0110   -1.5850 N   0  0  0  0  0  0  0  0  0  0  0  0
   -3.2750    2.2340   -2.8300 C   0  0  0  0  0  0  0  0  0  0  0  0
   -2.3060    1.9230   -3.7000 N   0  0  0  0  0  0  0  0  0  0  0  0
    1.7770    1.8040   -2.0820 C   0  0  0  0  0  0  0  0  0  0  0  0
    2.3470    1.8790   -1.0140 O   0  0  0  0  0  0  0  0  0  0  0  0
    1.7300    3.0250   -2.8070 O   0  0  0  0  0  0  0  0  0  0  0  0
    0.9140   -1.4860   -2.5350 H   0  0  0  0  0  0  0  0  0  0  0  0
    2.0260    0.3200   -3.4340 H   0  0  0  0  0  0  0  0  0  0  0  0
   -0.0930    0.4480   -4.5300 H   0  0  0  0  0  0  0  0  0  0  0  0
    0.4660    2.0350   -4.0830 H   0  0  0  0  0  0  0  0  0  0  0  0
   -1.0370    1.2810   -0.8440 H   0  0  0  0  0  0  0  0  0  0  0  0
   -3.4560    2.1770   -0.7350 H   0  0  0  0  0  0  0  0  0  0  0  0
   -4.2750    2.6220   -3.0910 H   0  0  0  0  0  0  0  0  0  0  0  0
  1 13  1  0  0  0  0
  2  1  1  0  0  0  0
  2 14  1  1  0  0  0
  2  3  1  0  0  0  0
  3 16  1  0  0  0  0
  4  3  1  0  0  0  0
  4  9  1  0  0  0  0
  5  4  2  0  0  0  0
  6  5  1  0  0  0  0
  6  7  2  0  0  0  0
  7  8  1  0  0  0  0
  8  9  2  0  0  0  0
  8 20  1  0  0  0  0
  9 21  1  0  0  0  0
 10  2  1  0  0  0  0
 11 10  2  0  0  0  0
 12  1  1  0  0  0  0
 15  3  1  0  0  0  0
 17  5  1  0  0  0  0
 18  6  1  0  0  0  0
 19  7  1  0  0  0  0
 22 36  1  0  0  0  0
 22 10  1  0  0  0  0
 23 37  1  6  0  0  0
 23 22  1  0  0  0  0
 24 25  1  0  0  0  0
 24 38  1  0  0  0  0
 24 23  1  0  0  0  0
 25 26  2  0  0  0  0
 26 40  1  0  0  0  0
 27 26  1  0  0  0  0
 27 41  1  0  0  0  0
 28 27  1  0  0  0  0
 29 28  1  0  0  0  0
 29 42  1  0  0  0  0
 30 29  2  0  0  0  0
 31 32  2  0  0  0  0
 31 30  1  0  0  0  0
 32 33  1  0  0  0  0
 33 25  1  0  0  0  0
 33 28  2  0  0  0  0
 34 23  1  0  0  0  0
 34 35  2  0  0  0  0
 39 24  1  0  0  0  0
 43 30  1  0  0  0  0
 44 31  1  0  0  0  0
 45 32  1  0  0  0  0
 46 34  1  0  0  0  0
 47 58  1  6  0  0  0
 47 54  1  0  0  0  0
 47 46  1  0  0  0  0
 48 49  1  0  0  0  0
 48 47  1  0  0  0  0
 49 50  2  0  0  0  0
 50 51  1  0  0  0  0
 50 61  1  0  0  0  0
 51 62  1  0  0  0  0
 52 51  1  0  0  0  0
 53 49  1  0  0  0  0
 53 52  2  0  0  0  0
 54 55  1  0  0  0  0
 56 54  2  0  0  0  0
 57 46  1  0  0  0  0
 59 48  1  0  0  0  0
 60 48  1  0  0  0  0
 63 52  1  0  0  0  0
M  END
$$$$
