FWN.pdb
 OpenBabel07022419013D

 60 62  0  0  1  0  0  0  0  0999 V2000
    3.2730   -0.6650    4.1030 N   0  0  0  0  0  0  0  0  0  0  0  0
    1.8220   -0.5050    4.2490 C   0  0  1  0  0  0  0  0  0  0  0  0
    1.6190    0.9260    4.6730 C   0  0  0  0  0  0  0  0  0  0  0  0
    2.1560    1.8580    3.6700 C   0  0  0  0  0  0  0  0  0  0  0  0
    3.4780    2.2350    3.7090 C   0  0  0  0  0  0  0  0  0  0  0  0
    3.9870    3.1160    2.7840 C   0  0  0  0  0  0  0  0  0  0  0  0
    3.1730    3.6480    1.7840 C   0  0  0  0  0  0  0  0  0  0  0  0
    1.8470    3.2680    1.7480 C   0  0  0  0  0  0  0  0  0  0  0  0
    1.3570    2.3850    2.6840 C   0  0  0  0  0  0  0  0  0  0  0  0
    1.2030   -0.7490    2.9300 C   0  0  0  0  0  0  0  0  0  0  0  0
    1.9760   -0.9300    1.9550 O   0  0  0  0  0  0  0  0  0  0  0  0
    3.5040   -0.4690    3.1040 H   0  0  0  0  0  0  0  0  0  0  0  0
    3.5620   -1.6500    4.2910 H   0  0  0  0  0  0  0  0  0  0  0  0
    1.4380   -1.2160    5.0220 H   0  0  0  0  0  0  0  0  0  0  0  0
    0.5290    1.1050    4.8510 H   0  0  0  0  0  0  0  0  0  0  0  0
    2.1780    1.0590    5.6360 H   0  0  0  0  0  0  0  0  0  0  0  0
    4.1750    1.8640    4.4560 H   0  0  0  0  0  0  0  0  0  0  0  0
    5.0200    3.4470    2.7670 H   0  0  0  0  0  0  0  0  0  0  0  0
    3.5830    4.3420    1.0580 H   0  0  0  0  0  0  0  0  0  0  0  0
    1.2320    3.7010    0.9540 H   0  0  0  0  0  0  0  0  0  0  0  0
    0.3050    2.1440    2.5910 H   0  0  0  0  0  0  0  0  0  0  0  0
   -0.2090   -0.7870    2.7400 N   0  0  0  0  0  0  0  0  0  0  0  0
   -0.7630   -1.0530    1.4120 C   0  0  1  0  0  0  0  0  0  0  0  0
   -0.4130    0.1110    0.5610 C   0  0  0  0  0  0  0  0  0  0  0  0
   -0.8600    0.0740   -0.8380 C   0  0  0  0  0  0  0  0  0  0  0  0
   -0.0250   -0.1580   -1.9110 C   0  0  0  0  0  0  0  0  0  0  0  0
   -0.7490   -0.1090   -3.0400 N   0  0  0  0  0  0  0  0  0  0  0  0
   -2.0230    0.1490   -2.7220 C   0  0  0  0  0  0  0  0  0  0  0  0
   -3.1200    0.2900   -3.5440 C   0  0  0  0  0  0  0  0  0  0  0  0
   -4.3620    0.5600   -2.9750 C   0  0  0  0  0  0  0  0  0  0  0  0
   -4.4390    0.6760   -1.5980 C   0  0  0  0  0  0  0  0  0  0  0  0
   -3.3290    0.5310   -0.7930 C   0  0  0  0  0  0  0  0  0  0  0  0
   -2.1120    0.2660   -1.3590 C   0  0  0  0  0  0  0  0  0  0  0  0
   -0.3100   -2.3710    0.9890 C   0  0  0  0  0  0  0  0  0  0  0  0
    0.4870   -3.0370    1.7510 O   0  0  0  0  0  0  0  0  0  0  0  0
   -0.8530   -0.6260    3.5440 H   0  0  0  0  0  0  0  0  0  0  0  0
   -1.8970   -1.0290    1.5200 H   0  0  0  0  0  0  0  0  0  0  0  0
    0.6430    0.4340    0.6680 H   0  0  0  0  0  0  0  0  0  0  0  0
   -0.9900    0.9880    1.0110 H   0  0  0  0  0  0  0  0  0  0  0  0
    1.0540   -0.3540   -1.8690 H   0  0  0  0  0  0  0  0  0  0  0  0
   -0.3580   -0.2500   -3.9860 H   0  0  0  0  0  0  0  0  0  0  0  0
   -3.0280    0.1930   -4.6320 H   0  0  0  0  0  0  0  0  0  0  0  0
   -5.1950    0.6640   -3.6390 H   0  0  0  0  0  0  0  0  0  0  0  0
   -5.4280    0.8870   -1.1940 H   0  0  0  0  0  0  0  0  0  0  0  0
   -3.4040    0.6240    0.2800 H   0  0  0  0  0  0  0  0  0  0  0  0
   -2.3820   -5.4900   -2.9050 N   0  0  0  0  0  0  0  0  0  0  0  0
   -2.3640   -4.8870   -1.6140 C   0  0  0  0  0  0  0  0  0  0  0  0
   -3.2240   -4.0000   -1.3280 O   0  0  0  0  0  0  0  0  0  0  0  0
   -1.3630   -5.2820   -0.6140 C   0  0  0  0  0  0  0  0  0  0  0  0
   -0.2180   -4.2750   -0.5810 C   0  0  2  0  0  0  0  0  0  0  0  0
   -0.7100   -2.9780   -0.2450 N   0  0  0  0  0  0  0  0  0  0  0  0
    0.5780   -4.3450   -1.8180 C   0  0  0  0  0  0  0  0  0  0  0  0
    1.0470   -5.4380   -2.1860 O   0  0  0  0  0  0  0  0  0  0  0  0
    0.8070   -3.2170   -2.5660 O   0  0  0  0  0  0  0  0  0  0  0  0
   -1.9180   -6.4200   -3.0100 H   0  0  0  0  0  0  0  0  0  0  0  0
   -2.8390   -5.0250   -3.7130 H   0  0  0  0  0  0  0  0  0  0  0  0
   -0.9440   -6.2990   -0.8020 H   0  0  0  0  0  0  0  0  0  0  0  0
   -1.8150   -5.2960    0.3980 H   0  0  0  0  0  0  0  0  0  0  0  0
    0.4590   -4.6580    0.2340 H   0  0  0  0  0  0  0  0  0  0  0  0
   -1.3560   -2.4620   -0.8660 H   0  0  0  0  0  0  0  0  0  0  0  0
  1  2  1  0  0  0  0
  1 13  1  0  0  0  0
  2  3  1  0  0  0  0
  2 14  1  1  0  0  0
  3 15  1  0  0  0  0
  3 16  1  0  0  0  0
  4  5  1  0  0  0  0
  4  3  1  0  0  0  0
  5 17  1  0  0  0  0
  6  5  2  0  0  0  0
  7  6  1  0  0  0  0
  8  7  2  0  0  0  0
  8  9  1  0  0  0  0
  9  4  2  0  0  0  0
 10  2  1  0  0  0  0
 11 10  2  0  0  0  0
 12  1  1  0  0  0  0
 18  6  1  0  0  0  0
 19  7  1  0  0  0  0
 20  8  1  0  0  0  0
 21  9  1  0  0  0  0
 22 10  1  0  0  0  0
 22 36  1  0  0  0  0
 23 37  1  1  0  0  0
 23 22  1  0  0  0  0
 24 38  1  0  0  0  0
 24 39  1  0  0  0  0
 24 23  1  0  0  0  0
 25 24  1  0  0  0  0
 26 40  1  0  0  0  0
 26 25  2  0  0  0  0
 27 28  1  0  0  0  0
 27 26  1  0  0  0  0
 28 33  1  0  0  0  0
 29 30  1  0  0  0  0
 29 28  2  0  0  0  0
 30 31  2  0  0  0  0
 31 44  1  0  0  0  0
 31 32  1  0  0  0  0
 32 45  1  0  0  0  0
 33 25  1  0  0  0  0
 33 32  2  0  0  0  0
 34 23  1  0  0  0  0
 34 35  2  0  0  0  0
 41 27  1  0  0  0  0
 42 29  1  0  0  0  0
 43 30  1  0  0  0  0
 46 47  1  0  0  0  0
 47 48  2  0  0  0  0
 47 49  1  0  0  0  0
 49 50  1  0  0  0  0
 49 58  1  0  0  0  0
 50 51  1  0  0  0  0
 50 59  1  1  0  0  0
 51 34  1  0  0  0  0
 52 50  1  0  0  0  0
 53 52  1  0  0  0  0
 54 52  2  0  0  0  0
 55 46  1  0  0  0  0
 56 46  1  0  0  0  0
 57 49  1  0  0  0  0
 60 51  1  0  0  0  0
M  END
$$$$
