FWS.pdb
 OpenBabel07022419013D

 57 59  0  0  1  0  0  0  0  0999 V2000
    2.9570    2.8640    0.8600 N   0  0  0  0  0  0  0  0  0  0  0  0
    2.1310    1.8030    0.2840 C   0  0  1  0  0  0  0  0  0  0  0  0
    3.0930    0.6500    0.0350 C   0  0  0  0  0  0  0  0  0  0  0  0
    3.7320    0.2310    1.3300 C   0  0  0  0  0  0  0  0  0  0  0  0
    3.1360   -0.7020    2.1540 C   0  0  0  0  0  0  0  0  0  0  0  0
    3.7320   -1.0880    3.3410 C   0  0  0  0  0  0  0  0  0  0  0  0
    4.9390   -0.5580    3.7440 C   0  0  0  0  0  0  0  0  0  0  0  0
    5.5380    0.3730    2.9260 C   0  0  0  0  0  0  0  0  0  0  0  0
    4.9400    0.7520    1.7470 C   0  0  0  0  0  0  0  0  0  0  0  0
    1.0310    1.4050    1.1820 C   0  0  0  0  0  0  0  0  0  0  0  0
    0.9810    1.8460    2.3360 O   0  0  0  0  0  0  0  0  0  0  0  0
    3.2740    2.5730    1.8050 H   0  0  0  0  0  0  0  0  0  0  0  0
    3.7970    2.9730    0.2530 H   0  0  0  0  0  0  0  0  0  0  0  0
    1.7600    2.1700   -0.6760 H   0  0  0  0  0  0  0  0  0  0  0  0
    3.9030    1.0350   -0.6180 H   0  0  0  0  0  0  0  0  0  0  0  0
    2.6320   -0.2020   -0.4640 H   0  0  0  0  0  0  0  0  0  0  0  0
    2.1930   -1.1540    1.9070 H   0  0  0  0  0  0  0  0  0  0  0  0
    3.2850   -1.8240    4.0130 H   0  0  0  0  0  0  0  0  0  0  0  0
    5.4190   -0.8580    4.6810 H   0  0  0  0  0  0  0  0  0  0  0  0
    6.4900    0.8020    3.2260 H   0  0  0  0  0  0  0  0  0  0  0  0
    5.4520    1.4840    1.1460 H   0  0  0  0  0  0  0  0  0  0  0  0
    0.0390    0.5220    0.7170 N   0  0  0  0  0  0  0  0  0  0  0  0
   -1.0880    0.0660    1.5120 C   0  0  1  0  0  0  0  0  0  0  0  0
   -2.3250    0.8740    1.1900 C   0  0  0  0  0  0  0  0  0  0  0  0
   -2.7710    0.8570   -0.1850 C   0  0  0  0  0  0  0  0  0  0  0  0
   -2.4220    1.8240   -1.1440 C   0  0  0  0  0  0  0  0  0  0  0  0
   -2.9610    1.5000   -2.3230 N   0  0  0  0  0  0  0  0  0  0  0  0
   -3.6590    0.3440   -2.1760 C   0  0  0  0  0  0  0  0  0  0  0  0
   -4.4000   -0.3900   -3.0960 C   0  0  0  0  0  0  0  0  0  0  0  0
   -5.0520   -1.5410   -2.7370 C   0  0  0  0  0  0  0  0  0  0  0  0
   -4.9300   -1.9240   -1.4200 C   0  0  0  0  0  0  0  0  0  0  0  0
   -4.2050   -1.2210   -0.4850 C   0  0  0  0  0  0  0  0  0  0  0  0
   -3.5420   -0.0490   -0.8580 C   0  0  0  0  0  0  0  0  0  0  0  0
   -1.2640   -1.3690    1.4780 C   0  0  0  0  0  0  0  0  0  0  0  0
   -2.1520   -1.9400    2.2070 O   0  0  0  0  0  0  0  0  0  0  0  0
    0.1130    0.1710   -0.2630 H   0  0  0  0  0  0  0  0  0  0  0  0
   -0.8140    0.4000    2.5690 H   0  0  0  0  0  0  0  0  0  0  0  0
   -2.1650    1.9310    1.5480 H   0  0  0  0  0  0  0  0  0  0  0  0
   -3.1200    0.4890    1.8940 H   0  0  0  0  0  0  0  0  0  0  0  0
   -1.8140    2.7060   -0.9870 H   0  0  0  0  0  0  0  0  0  0  0  0
   -2.9050    1.9890   -3.2420 H   0  0  0  0  0  0  0  0  0  0  0  0
   -4.4830   -0.0730   -4.1250 H   0  0  0  0  0  0  0  0  0  0  0  0
   -5.6230   -2.0990   -3.4640 H   0  0  0  0  0  0  0  0  0  0  0  0
   -5.4390   -2.8400   -1.0940 H   0  0  0  0  0  0  0  0  0  0  0  0
   -4.1350   -1.5320    0.5430 H   0  0  0  0  0  0  0  0  0  0  0  0
   -2.1170   -3.5430   -1.3130 O   0  0  0  0  0  0  0  0  0  0  0  0
   -1.0110   -4.1720   -0.7670 C   0  0  0  0  0  0  0  0  0  0  0  0
   -0.7490   -3.7260    0.6790 C   0  0  2  0  0  0  0  0  0  0  0  0
   -0.5220   -2.3000    0.6760 N   0  0  0  0  0  0  0  0  0  0  0  0
    0.5030   -4.3960    1.1090 C   0  0  0  0  0  0  0  0  0  0  0  0
    1.5200   -3.7270    1.3890 O   0  0  0  0  0  0  0  0  0  0  0  0
    0.6030   -5.7800    1.2180 O   0  0  0  0  0  0  0  0  0  0  0  0
   -2.6340   -4.2350   -1.8130 H   0  0  0  0  0  0  0  0  0  0  0  0
   -1.1280   -5.2880   -0.7680 H   0  0  0  0  0  0  0  0  0  0  0  0
   -0.1140   -3.9390   -1.3690 H   0  0  0  0  0  0  0  0  0  0  0  0
   -1.6060   -4.0090    1.3300 H   0  0  0  0  0  0  0  0  0  0  0  0
    0.2160   -1.9120    0.0650 H   0  0  0  0  0  0  0  0  0  0  0  0
  1 12  1  0  0  0  0
  2 14  1  6  0  0  0
  2  1  1  0  0  0  0
  2 10  1  0  0  0  0
  3  2  1  0  0  0  0
  3  4  1  0  0  0  0
  4  9  2  0  0  0  0
  4  5  1  0  0  0  0
  5  6  2  0  0  0  0
  6  7  1  0  0  0  0
  6 18  1  0  0  0  0
  7 19  1  0  0  0  0
  8 20  1  0  0  0  0
  8  7  2  0  0  0  0
  9  8  1  0  0  0  0
 10 11  2  0  0  0  0
 13  1  1  0  0  0  0
 15  3  1  0  0  0  0
 16  3  1  0  0  0  0
 17  5  1  0  0  0  0
 21  9  1  0  0  0  0
 22 10  1  0  0  0  0
 22 23  1  0  0  0  0
 23 37  1  1  0  0  0
 24 23  1  0  0  0  0
 24 38  1  0  0  0  0
 24 39  1  0  0  0  0
 25 24  1  0  0  0  0
 26 40  1  0  0  0  0
 26 25  2  0  0  0  0
 27 28  1  0  0  0  0
 27 26  1  0  0  0  0
 28 33  1  0  0  0  0
 29 30  1  0  0  0  0
 29 28  2  0  0  0  0
 30 31  2  0  0  0  0
 31 44  1  0  0  0  0
 31 32  1  0  0  0  0
 32 45  1  0  0  0  0
 33 32  2  0  0  0  0
 33 25  1  0  0  0  0
 34 23  1  0  0  0  0
 34 35  2  0  0  0  0
 36 22  1  0  0  0  0
 41 27  1  0  0  0  0
 42 29  1  0  0  0  0
 43 30  1  0  0  0  0
 46 47  1  0  0  0  0
 47 48  1  0  0  0  0
 48 50  1  0  0  0  0
 48 56  1  1  0  0  0
 49 48  1  0  0  0  0
 49 34  1  0  0  0  0
 50 52  2  0  0  0  0
 50 51  1  0  0  0  0
 53 46  1  0  0  0  0
 54 47  1  0  0  0  0
 55 47  1  0  0  0  0
 57 49  1  0  0  0  0
M  END
$$$$
