FWT.pdb
 OpenBabel07022419013D

 60 62  0  0  1  0  0  0  0  0999 V2000
    3.8400    1.1930    1.1280 N   0  0  0  0  0  0  0  0  0  0  0  0
    2.8740    0.3990    1.8300 C   0  0  1  0  0  0  0  0  0  0  0  0
    2.5030    0.9710    3.1560 C   0  0  0  0  0  0  0  0  0  0  0  0
    3.7340    1.0540    3.9800 C   0  0  0  0  0  0  0  0  0  0  0  0
    4.1520    0.0270    4.7920 C   0  0  0  0  0  0  0  0  0  0  0  0
    5.2970    0.1030    5.5580 C   0  0  0  0  0  0  0  0  0  0  0  0
    6.0760    1.2560    5.5230 C   0  0  0  0  0  0  0  0  0  0  0  0
    5.6730    2.2960    4.7150 C   0  0  0  0  0  0  0  0  0  0  0  0
    4.5270    2.1950    3.9610 C   0  0  0  0  0  0  0  0  0  0  0  0
    1.7000    0.0690    0.9780 C   0  0  0  0  0  0  0  0  0  0  0  0
    1.7350    0.4940   -0.2060 O   0  0  0  0  0  0  0  0  0  0  0  0
    3.5920    2.2110    1.1410 H   0  0  0  0  0  0  0  0  0  0  0  0
    4.0020    0.8580    0.1570 H   0  0  0  0  0  0  0  0  0  0  0  0
    3.3760   -0.5950    2.0290 H   0  0  0  0  0  0  0  0  0  0  0  0
    1.7900    0.2830    3.6620 H   0  0  0  0  0  0  0  0  0  0  0  0
    2.0170    1.9580    3.0310 H   0  0  0  0  0  0  0  0  0  0  0  0
    3.5620   -0.8840    4.8360 H   0  0  0  0  0  0  0  0  0  0  0  0
    5.6350   -0.7130    6.2060 H   0  0  0  0  0  0  0  0  0  0  0  0
    6.9780    1.2950    6.1370 H   0  0  0  0  0  0  0  0  0  0  0  0
    6.2860    3.1840    4.6980 H   0  0  0  0  0  0  0  0  0  0  0  0
    4.2040    3.0090    3.3230 H   0  0  0  0  0  0  0  0  0  0  0  0
    0.5950   -0.6910    1.4880 N   0  0  0  0  0  0  0  0  0  0  0  0
   -0.5540   -1.0200    0.6500 C   0  0  1  0  0  0  0  0  0  0  0  0
   -1.3910    0.1440    0.5730 C   0  0  0  0  0  0  0  0  0  0  0  0
   -2.6350    0.1680   -0.1940 C   0  0  0  0  0  0  0  0  0  0  0  0
   -2.8680    0.7630   -1.4100 C   0  0  0  0  0  0  0  0  0  0  0  0
   -4.1330    0.5810   -1.8020 N   0  0  0  0  0  0  0  0  0  0  0  0
   -4.7230   -0.1390   -0.8330 C   0  0  0  0  0  0  0  0  0  0  0  0
   -6.0460   -0.5900   -0.7680 C   0  0  0  0  0  0  0  0  0  0  0  0
   -6.4180   -1.3170    0.3400 C   0  0  0  0  0  0  0  0  0  0  0  0
   -5.5450   -1.6070    1.3680 C   0  0  0  0  0  0  0  0  0  0  0  0
   -4.2490   -1.1470    1.2720 C   0  0  0  0  0  0  0  0  0  0  0  0
   -3.8290   -0.4110    0.1740 C   0  0  0  0  0  0  0  0  0  0  0  0
   -0.0600   -1.7400   -0.4820 C   0  0  0  0  0  0  0  0  0  0  0  0
    1.1750   -1.9880   -0.5680 O   0  0  0  0  0  0  0  0  0  0  0  0
    0.6960   -0.9720    2.4850 H   0  0  0  0  0  0  0  0  0  0  0  0
   -1.0810   -1.8350    1.2640 H   0  0  0  0  0  0  0  0  0  0  0  0
   -0.7970    1.0500    0.2390 H   0  0  0  0  0  0  0  0  0  0  0  0
   -1.6800    0.4540    1.6270 H   0  0  0  0  0  0  0  0  0  0  0  0
   -2.1390    1.3170   -1.9980 H   0  0  0  0  0  0  0  0  0  0  0  0
   -4.5970    0.9240   -2.6910 H   0  0  0  0  0  0  0  0  0  0  0  0
   -6.7550   -0.3740   -1.5670 H   0  0  0  0  0  0  0  0  0  0  0  0
   -7.4330   -1.6950    0.4470 H   0  0  0  0  0  0  0  0  0  0  0  0
   -5.8570   -2.1880    2.2460 H   0  0  0  0  0  0  0  0  0  0  0  0
   -3.4960   -1.3300    2.0340 H   0  0  0  0  0  0  0  0  0  0  0  0
   -0.9190   -5.0460   -3.9010 C   0  0  0  0  0  0  0  0  0  0  0  0
   -1.2090   -4.2490   -2.6720 C   0  0  1  0  0  0  0  0  0  0  0  0
   -0.8510   -4.8910   -1.4890 O   0  0  0  0  0  0  0  0  0  0  0  0
   -0.4830   -2.9200   -2.6870 C   0  0  2  0  0  0  0  0  0  0  0  0
   -0.9230   -2.1900   -1.5220 N   0  0  0  0  0  0  0  0  0  0  0  0
   -0.8120   -2.1260   -3.8900 C   0  0  0  0  0  0  0  0  0  0  0  0
   -0.5210   -2.5600   -5.0310 O   0  0  0  0  0  0  0  0  0  0  0  0
   -1.4360   -0.9130   -3.7910 O   0  0  0  0  0  0  0  0  0  0  0  0
   -1.0860   -6.1180   -3.6730 H   0  0  0  0  0  0  0  0  0  0  0  0
    0.1240   -4.9060   -4.2280 H   0  0  0  0  0  0  0  0  0  0  0  0
   -1.6500   -4.7920   -4.7050 H   0  0  0  0  0  0  0  0  0  0  0  0
   -2.3150   -4.0350   -2.5980 H   0  0  0  0  0  0  0  0  0  0  0  0
    0.0770   -4.6350   -1.2550 H   0  0  0  0  0  0  0  0  0  0  0  0
    0.6130   -3.0880   -2.6890 H   0  0  0  0  0  0  0  0  0  0  0  0
   -1.9010   -1.9540   -1.3770 H   0  0  0  0  0  0  0  0  0  0  0  0
  1 12  1  0  0  0  0
  1  2  1  0  0  0  0
  2 14  1  1  0  0  0
  2  3  1  0  0  0  0
  3 15  1  0  0  0  0
  3  4  1  0  0  0  0
  4  5  1  0  0  0  0
  5 17  1  0  0  0  0
  5  6  2  0  0  0  0
  6 18  1  0  0  0  0
  7  6  1  0  0  0  0
  7 19  1  0  0  0  0
  8  7  2  0  0  0  0
  9  4  2  0  0  0  0
  9  8  1  0  0  0  0
 10 22  1  0  0  0  0
 10  2  1  0  0  0  0
 11 10  2  0  0  0  0
 13  1  1  0  0  0  0
 16  3  1  0  0  0  0
 20  8  1  0  0  0  0
 21  9  1  0  0  0  0
 22 36  1  0  0  0  0
 23 37  1  1  0  0  0
 23 22  1  0  0  0  0
 24 23  1  0  0  0  0
 24 39  1  0  0  0  0
 25 33  1  0  0  0  0
 25 24  1  0  0  0  0
 26 25  2  0  0  0  0
 27 26  1  0  0  0  0
 27 28  1  0  0  0  0
 28 29  2  0  0  0  0
 28 33  1  0  0  0  0
 29 30  1  0  0  0  0
 30 43  1  0  0  0  0
 30 31  2  0  0  0  0
 31 44  1  0  0  0  0
 32 31  1  0  0  0  0
 32 45  1  0  0  0  0
 33 32  2  0  0  0  0
 34 23  1  0  0  0  0
 35 34  2  0  0  0  0
 38 24  1  0  0  0  0
 40 26  1  0  0  0  0
 41 27  1  0  0  0  0
 42 29  1  0  0  0  0
 46 54  1  0  0  0  0
 46 47  1  0  0  0  0
 47 57  1  1  0  0  0
 47 48  1  0  0  0  0
 48 58  1  0  0  0  0
 49 59  1  1  0  0  0
 49 47  1  0  0  0  0
 49 50  1  0  0  0  0
 50 60  1  0  0  0  0
 50 34  1  0  0  0  0
 51 53  1  0  0  0  0
 51 49  1  0  0  0  0
 52 51  2  0  0  0  0
 55 46  1  0  0  0  0
 56 46  1  0  0  0  0
M  END
$$$$
