FWV.pdb
 OpenBabel07022419013D

 62 64  0  0  1  0  0  0  0  0999 V2000
    3.1990    1.8520    1.1480 N   0  0  0  0  0  0  0  0  0  0  0  0
    2.8070    0.5540    1.6440 C   0  0  1  0  0  0  0  0  0  0  0  0
    2.9460    0.4580    3.1490 C   0  0  0  0  0  0  0  0  0  0  0  0
    4.3420    0.6870    3.5860 C   0  0  0  0  0  0  0  0  0  0  0  0
    5.2790   -0.3140    3.7350 C   0  0  0  0  0  0  0  0  0  0  0  0
    6.5740   -0.0470    4.1440 C   0  0  0  0  0  0  0  0  0  0  0  0
    6.9650    1.2400    4.4160 C   0  0  0  0  0  0  0  0  0  0  0  0
    6.0550    2.2630    4.2780 C   0  0  0  0  0  0  0  0  0  0  0  0
    4.7640    1.9790    3.8680 C   0  0  0  0  0  0  0  0  0  0  0  0
    1.4320    0.1900    1.2230 C   0  0  0  0  0  0  0  0  0  0  0  0
    0.7780    1.0600    0.5480 O   0  0  0  0  0  0  0  0  0  0  0  0
    2.7940    2.6470    1.6460 H   0  0  0  0  0  0  0  0  0  0  0  0
    4.2290    1.9230    0.9720 H   0  0  0  0  0  0  0  0  0  0  0  0
    3.4920   -0.1940    1.2030 H   0  0  0  0  0  0  0  0  0  0  0  0
    2.7080   -0.6140    3.4140 H   0  0  0  0  0  0  0  0  0  0  0  0
    2.2140    1.0630    3.6910 H   0  0  0  0  0  0  0  0  0  0  0  0
    4.9920   -1.3400    3.5240 H   0  0  0  0  0  0  0  0  0  0  0  0
    7.3020   -0.8330    4.2580 H   0  0  0  0  0  0  0  0  0  0  0  0
    7.9680    1.4590    4.7350 H   0  0  0  0  0  0  0  0  0  0  0  0
    6.3680    3.2800    4.4940 H   0  0  0  0  0  0  0  0  0  0  0  0
    4.0330    2.7840    3.7540 H   0  0  0  0  0  0  0  0  0  0  0  0
    0.7810   -1.0280    1.5010 N   0  0  0  0  0  0  0  0  0  0  0  0
   -0.5950   -1.3050    1.0400 C   0  0  1  0  0  0  0  0  0  0  0  0
   -1.5510   -0.4830    1.8000 C   0  0  0  0  0  0  0  0  0  0  0  0
   -2.9560   -0.6360    1.3960 C   0  0  0  0  0  0  0  0  0  0  0  0
   -3.8860   -1.5200    1.9280 C   0  0  0  0  0  0  0  0  0  0  0  0
   -5.0620   -1.3790    1.3040 N   0  0  0  0  0  0  0  0  0  0  0  0
   -4.9100   -0.4140    0.3730 C   0  0  0  0  0  0  0  0  0  0  0  0
   -5.8020    0.1520   -0.5350 C   0  0  0  0  0  0  0  0  0  0  0  0
   -5.4200    1.1620   -1.3830 C   0  0  0  0  0  0  0  0  0  0  0  0
   -4.1070    1.6370   -1.3400 C   0  0  0  0  0  0  0  0  0  0  0  0
   -3.2180    1.0820   -0.4450 C   0  0  0  0  0  0  0  0  0  0  0  0
   -3.6290    0.0740    0.3910 C   0  0  0  0  0  0  0  0  0  0  0  0
   -0.6670   -1.3960   -0.4080 C   0  0  0  0  0  0  0  0  0  0  0  0
    0.3680   -0.9640   -1.0420 O   0  0  0  0  0  0  0  0  0  0  0  0
    1.3000   -1.7410    2.0470 H   0  0  0  0  0  0  0  0  0  0  0  0
   -0.7770   -2.3820    1.3970 H   0  0  0  0  0  0  0  0  0  0  0  0
   -1.5070   -0.8350    2.8700 H   0  0  0  0  0  0  0  0  0  0  0  0
   -1.2690    0.6130    1.8020 H   0  0  0  0  0  0  0  0  0  0  0  0
   -3.6530   -2.2190    2.7420 H   0  0  0  0  0  0  0  0  0  0  0  0
   -5.9170   -1.9150    1.5070 H   0  0  0  0  0  0  0  0  0  0  0  0
   -6.8270   -0.2430   -0.5460 H   0  0  0  0  0  0  0  0  0  0  0  0
   -6.1370    1.5980   -2.0930 H   0  0  0  0  0  0  0  0  0  0  0  0
   -3.8200    2.4300   -2.0110 H   0  0  0  0  0  0  0  0  0  0  0  0
   -2.1950    1.4120   -0.3730 H   0  0  0  0  0  0  0  0  0  0  0  0
   -2.4430   -4.2050   -2.7700 C   0  0  0  0  0  0  0  0  0  0  0  0
   -1.2650   -3.3360   -3.1350 C   0  0  0  0  0  0  0  0  0  0  0  0
   -0.0460   -3.9380   -2.4710 C   0  0  0  0  0  0  0  0  0  0  0  0
   -1.5270   -1.9020   -2.6680 C   0  0  2  0  0  0  0  0  0  0  0  0
   -1.6950   -1.8980   -1.2140 N   0  0  0  0  0  0  0  0  0  0  0  0
   -2.7660   -1.4780   -3.3500 C   0  0  0  0  0  0  0  0  0  0  0  0
   -3.8090   -1.2400   -2.7320 O   0  0  0  0  0  0  0  0  0  0  0  0
   -2.7050   -1.3560   -4.7370 O   0  0  0  0  0  0  0  0  0  0  0  0
   -2.8100   -4.7990   -3.6590 H   0  0  0  0  0  0  0  0  0  0  0  0
   -3.2970   -3.5970   -2.3770 H   0  0  0  0  0  0  0  0  0  0  0  0
   -2.1950   -4.9500   -2.0040 H   0  0  0  0  0  0  0  0  0  0  0  0
   -1.1220   -3.3750   -4.2230 H   0  0  0  0  0  0  0  0  0  0  0  0
    0.1650   -4.9150   -2.9520 H   0  0  0  0  0  0  0  0  0  0  0  0
    0.8480   -3.3000   -2.6350 H   0  0  0  0  0  0  0  0  0  0  0  0
   -0.2320   -4.1580   -1.3940 H   0  0  0  0  0  0  0  0  0  0  0  0
   -0.6700   -1.3110   -3.0130 H   0  0  0  0  0  0  0  0  0  0  0  0
   -2.5410   -2.2610   -0.7770 H   0  0  0  0  0  0  0  0  0  0  0  0
  1  2  1  0  0  0  0
  1 12  1  0  0  0  0
  2 14  1  6  0  0  0
  2  3  1  0  0  0  0
  3 15  1  0  0  0  0
  3  4  1  0  0  0  0
  3 16  1  0  0  0  0
  4  5  2  0  0  0  0
  4  9  1  0  0  0  0
  5  6  1  0  0  0  0
  6 18  1  0  0  0  0
  6  7  2  0  0  0  0
  7 19  1  0  0  0  0
  8  7  1  0  0  0  0
  8 20  1  0  0  0  0
  9  8  2  0  0  0  0
 10 22  1  0  0  0  0
 10  2  1  0  0  0  0
 11 10  2  0  0  0  0
 13  1  1  0  0  0  0
 17  5  1  0  0  0  0
 21  9  1  0  0  0  0
 22 36  1  0  0  0  0
 23 37  1  1  0  0  0
 23 22  1  0  0  0  0
 23 24  1  0  0  0  0
 24 39  1  0  0  0  0
 24 38  1  0  0  0  0
 25 24  1  0  0  0  0
 25 26  2  0  0  0  0
 26 40  1  0  0  0  0
 27 41  1  0  0  0  0
 27 26  1  0  0  0  0
 28 33  1  0  0  0  0
 28 27  1  0  0  0  0
 29 28  2  0  0  0  0
 30 31  2  0  0  0  0
 30 29  1  0  0  0  0
 31 32  1  0  0  0  0
 32 45  1  0  0  0  0
 32 33  2  0  0  0  0
 33 25  1  0  0  0  0
 34 23  1  0  0  0  0
 35 34  2  0  0  0  0
 42 29  1  0  0  0  0
 43 30  1  0  0  0  0
 44 31  1  0  0  0  0
 46 55  1  0  0  0  0
 46 56  1  0  0  0  0
 47 46  1  0  0  0  0
 47 49  1  0  0  0  0
 47 48  1  0  0  0  0
 48 60  1  0  0  0  0
 49 61  1  6  0  0  0
 49 50  1  0  0  0  0
 50 62  1  0  0  0  0
 50 34  1  0  0  0  0
 51 52  1  0  0  0  0
 51 49  1  0  0  0  0
 53 51  2  0  0  0  0
 54 46  1  0  0  0  0
 57 47  1  0  0  0  0
 58 48  1  0  0  0  0
 59 48  1  0  0  0  0
M  END
$$$$
