FYA.pdb
 OpenBabel07022419013D

 53 54  0  0  1  0  0  0  0  0999 V2000
    0.8510   -1.6770    2.8040 N   0  0  0  0  0  0  0  0  0  0  0  0
    0.9490   -0.7900    1.6910 C   0  0  1  0  0  0  0  0  0  0  0  0
    2.0620   -1.2000    0.7540 C   0  0  0  0  0  0  0  0  0  0  0  0
    3.3350   -1.1650    1.5390 C   0  0  0  0  0  0  0  0  0  0  0  0
    3.7800   -2.2820    2.2160 C   0  0  0  0  0  0  0  0  0  0  0  0
    4.9530   -2.2790    2.9500 C   0  0  0  0  0  0  0  0  0  0  0  0
    5.7300   -1.1410    3.0310 C   0  0  0  0  0  0  0  0  0  0  0  0
    5.2800   -0.0270    2.3510 C   0  0  0  0  0  0  0  0  0  0  0  0
    4.1100   -0.0250    1.6180 C   0  0  0  0  0  0  0  0  0  0  0  0
   -0.3440   -0.6660    1.0130 C   0  0  0  0  0  0  0  0  0  0  0  0
   -0.4640    0.0870   -0.0140 O   0  0  0  0  0  0  0  0  0  0  0  0
    0.8710   -2.6740    2.5730 H   0  0  0  0  0  0  0  0  0  0  0  0
    1.4480   -1.4110    3.6170 H   0  0  0  0  0  0  0  0  0  0  0  0
    1.2250    0.2420    2.0490 H   0  0  0  0  0  0  0  0  0  0  0  0
    1.9490   -2.2470    0.4060 H   0  0  0  0  0  0  0  0  0  0  0  0
    2.1090   -0.5400   -0.1110 H   0  0  0  0  0  0  0  0  0  0  0  0
    3.1770   -3.1920    2.1630 H   0  0  0  0  0  0  0  0  0  0  0  0
    5.2860   -3.1710    3.4770 H   0  0  0  0  0  0  0  0  0  0  0  0
    6.6480   -1.1510    3.6090 H   0  0  0  0  0  0  0  0  0  0  0  0
    5.8770    0.8770    2.4030 H   0  0  0  0  0  0  0  0  0  0  0  0
    3.7680    0.8690    1.0850 H   0  0  0  0  0  0  0  0  0  0  0  0
   -1.5850    4.9570    0.0720 O   0  0  0  0  0  0  0  0  0  0  0  0
   -2.0830    3.6820    0.3780 C   0  0  0  0  0  0  0  0  0  0  0  0
   -1.8520    3.0860    1.5920 C   0  0  0  0  0  0  0  0  0  0  0  0
   -2.3380    1.8420    1.8880 C   0  0  0  0  0  0  0  0  0  0  0  0
   -3.0790    1.1480    0.9650 C   0  0  0  0  0  0  0  0  0  0  0  0
   -3.6020   -0.1780    1.2790 C   0  0  0  0  0  0  0  0  0  0  0  0
   -2.7590   -1.3440    0.9230 C   0  0  2  0  0  0  0  0  0  0  0  0
   -1.4580   -1.3980    1.5190 N   0  0  0  0  0  0  0  0  0  0  0  0
   -2.7010   -1.7070   -0.4970 C   0  0  0  0  0  0  0  0  0  0  0  0
   -3.6750   -1.5130   -1.2940 O   0  0  0  0  0  0  0  0  0  0  0  0
   -3.3280    1.7150   -0.2580 C   0  0  0  0  0  0  0  0  0  0  0  0
   -2.8270    2.9650   -0.5270 C   0  0  0  0  0  0  0  0  0  0  0  0
   -0.5800    5.0600    0.1010 H   0  0  0  0  0  0  0  0  0  0  0  0
   -1.2570    3.6610    2.3110 H   0  0  0  0  0  0  0  0  0  0  0  0
   -2.1130    1.4330    2.8740 H   0  0  0  0  0  0  0  0  0  0  0  0
   -3.7960   -0.1870    2.3900 H   0  0  0  0  0  0  0  0  0  0  0  0
   -4.6080   -0.3420    0.8260 H   0  0  0  0  0  0  0  0  0  0  0  0
   -3.3550   -2.2520    1.3680 H   0  0  0  0  0  0  0  0  0  0  0  0
   -1.2910   -2.0040    2.3780 H   0  0  0  0  0  0  0  0  0  0  0  0
   -3.9230    1.1910   -1.0270 H   0  0  0  0  0  0  0  0  0  0  0  0
   -3.0370    3.4030   -1.5100 H   0  0  0  0  0  0  0  0  0  0  0  0
   -0.2780   -2.0240   -3.1200 C   0  0  0  0  0  0  0  0  0  0  0  0
   -1.4750   -2.6530   -2.4520 C   0  0  2  0  0  0  0  0  0  0  0  0
   -1.5350   -2.3010   -1.0380 N   0  0  0  0  0  0  0  0  0  0  0  0
   -1.3200   -4.1270   -2.5470 C   0  0  0  0  0  0  0  0  0  0  0  0
   -1.2630   -4.8410   -1.5140 O   0  0  0  0  0  0  0  0  0  0  0  0
   -1.2310   -4.7880   -3.7650 O   0  0  0  0  0  0  0  0  0  0  0  0
   -0.1260   -2.5670   -4.0860 H   0  0  0  0  0  0  0  0  0  0  0  0
    0.6100   -2.1990   -2.4850 H   0  0  0  0  0  0  0  0  0  0  0  0
   -0.4160   -0.9690   -3.3680 H   0  0  0  0  0  0  0  0  0  0  0  0
   -2.4230   -2.3770   -2.9070 H   0  0  0  0  0  0  0  0  0  0  0  0
   -0.7050   -2.5250   -0.4500 H   0  0  0  0  0  0  0  0  0  0  0  0
  1 13  1  0  0  0  0
  2 14  1  1  0  0  0
  2  1  1  0  0  0  0
  3  4  1  0  0  0  0
  3  2  1  0  0  0  0
  4  9  2  0  0  0  0
  4  5  1  0  0  0  0
  5  6  2  0  0  0  0
  6  7  1  0  0  0  0
  6 18  1  0  0  0  0
  7 19  1  0  0  0  0
  8 20  1  0  0  0  0
  8  7  2  0  0  0  0
  9  8  1  0  0  0  0
 10 29  1  0  0  0  0
 10  2  1  0  0  0  0
 11 10  2  0  0  0  0
 12  1  1  0  0  0  0
 15  3  1  0  0  0  0
 16  3  1  0  0  0  0
 17  5  1  0  0  0  0
 21  9  1  0  0  0  0
 22 34  1  0  0  0  0
 22 23  1  0  0  0  0
 23 24  1  0  0  0  0
 24 25  2  0  0  0  0
 24 35  1  0  0  0  0
 25 36  1  0  0  0  0
 26 27  1  0  0  0  0
 26 25  1  0  0  0  0
 27 37  1  0  0  0  0
 28 27  1  0  0  0  0
 28 39  1  1  0  0  0
 28 29  1  0  0  0  0
 29 40  1  0  0  0  0
 30 28  1  0  0  0  0
 31 30  2  0  0  0  0
 32 26  2  0  0  0  0
 33 32  1  0  0  0  0
 33 23  2  0  0  0  0
 38 27  1  0  0  0  0
 41 32  1  0  0  0  0
 42 33  1  0  0  0  0
 43 50  1  0  0  0  0
 43 44  1  0  0  0  0
 44 52  1  6  0  0  0
 44 45  1  0  0  0  0
 45 30  1  0  0  0  0
 45 53  1  0  0  0  0
 46 44  1  0  0  0  0
 46 47  1  0  0  0  0
 48 46  2  0  0  0  0
 49 43  1  0  0  0  0
 51 43  1  0  0  0  0
M  END
$$$$
