FYC.pdb
 OpenBabel07022419013D

 54 55  0  0  1  0  0  0  0  0999 V2000
    1.1480   -1.0320    2.2060 N   0  0  0  0  0  0  0  0  0  0  0  0
    1.4610   -0.5770    0.8900 C   0  0  1  0  0  0  0  0  0  0  0  0
    2.3040   -1.6020    0.1720 C   0  0  0  0  0  0  0  0  0  0  0  0
    3.5720   -1.8450    0.8940 C   0  0  0  0  0  0  0  0  0  0  0  0
    3.6940   -2.8130    1.8640 C   0  0  0  0  0  0  0  0  0  0  0  0
    4.8950   -3.0280    2.5340 C   0  0  0  0  0  0  0  0  0  0  0  0
    5.9810   -2.2560    2.2190 C   0  0  0  0  0  0  0  0  0  0  0  0
    5.8940   -1.2860    1.2610 C   0  0  0  0  0  0  0  0  0  0  0  0
    4.6800   -1.0860    0.5990 C   0  0  0  0  0  0  0  0  0  0  0  0
    0.2570   -0.2010    0.1140 C   0  0  0  0  0  0  0  0  0  0  0  0
    0.3180    0.2250   -1.0700 O   0  0  0  0  0  0  0  0  0  0  0  0
    0.6240   -1.9080    2.2580 H   0  0  0  0  0  0  0  0  0  0  0  0
    1.8800   -0.8900    2.9140 H   0  0  0  0  0  0  0  0  0  0  0  0
    2.0840    0.3470    0.9910 H   0  0  0  0  0  0  0  0  0  0  0  0
    1.7620   -2.5920    0.1550 H   0  0  0  0  0  0  0  0  0  0  0  0
    2.4860   -1.3420   -0.8840 H   0  0  0  0  0  0  0  0  0  0  0  0
    2.8470   -3.4180    2.1130 H   0  0  0  0  0  0  0  0  0  0  0  0
    4.9970   -3.7920    3.3030 H   0  0  0  0  0  0  0  0  0  0  0  0
    6.9380   -2.3920    2.7200 H   0  0  0  0  0  0  0  0  0  0  0  0
    6.7490   -0.6800    1.0150 H   0  0  0  0  0  0  0  0  0  0  0  0
    4.6030   -0.3250   -0.1560 H   0  0  0  0  0  0  0  0  0  0  0  0
   -1.5030    5.6790    3.0120 O   0  0  0  0  0  0  0  0  0  0  0  0
   -1.6770    4.6130    2.1280 C   0  0  0  0  0  0  0  0  0  0  0  0
   -2.9100    4.0360    1.9150 C   0  0  0  0  0  0  0  0  0  0  0  0
   -3.0930    2.9870    1.0470 C   0  0  0  0  0  0  0  0  0  0  0  0
   -2.0180    2.4430    0.3260 C   0  0  0  0  0  0  0  0  0  0  0  0
   -2.3020    1.3240   -0.5980 C   0  0  0  0  0  0  0  0  0  0  0  0
   -2.2640   -0.0090    0.1490 C   0  0  2  0  0  0  0  0  0  0  0  0
   -1.0130   -0.3310    0.7370 N   0  0  0  0  0  0  0  0  0  0  0  0
   -2.9260   -1.0720   -0.6130 C   0  0  0  0  0  0  0  0  0  0  0  0
   -4.0360   -0.8010   -1.1400 O   0  0  0  0  0  0  0  0  0  0  0  0
   -0.7920    3.0200    0.5410 C   0  0  0  0  0  0  0  0  0  0  0  0
   -0.6130    4.0920    1.4280 C   0  0  0  0  0  0  0  0  0  0  0  0
   -0.6340    5.8710    3.4680 H   0  0  0  0  0  0  0  0  0  0  0  0
   -3.7530    4.4580    2.4760 H   0  0  0  0  0  0  0  0  0  0  0  0
   -4.0730    2.5420    0.8900 H   0  0  0  0  0  0  0  0  0  0  0  0
   -1.6610    1.3500   -1.4770 H   0  0  0  0  0  0  0  0  0  0  0  0
   -3.3620    1.4680   -0.9640 H   0  0  0  0  0  0  0  0  0  0  0  0
   -2.9670    0.2250    1.0330 H   0  0  0  0  0  0  0  0  0  0  0  0
   -0.9900   -0.7090    1.7380 H   0  0  0  0  0  0  0  0  0  0  0  0
    0.0570    2.6570    0.0150 H   0  0  0  0  0  0  0  0  0  0  0  0
    0.3590    4.5290    1.5810 H   0  0  0  0  0  0  0  0  0  0  0  0
   -2.4150   -2.3720   -0.8010 N   0  0  0  0  0  0  0  0  0  0  0  0
   -3.0910   -3.4050   -1.5600 C   0  0  1  0  0  0  0  0  0  0  0  0
   -2.1220   -3.8270   -2.6590 C   0  0  0  0  0  0  0  0  0  0  0  0
   -0.5860   -4.4640   -1.9830 S   0  0  0  0  0  0  0  0  0  0  0  0
   -3.2700   -4.5920   -0.6870 C   0  0  0  0  0  0  0  0  0  0  0  0
   -3.8300   -5.6490   -1.0790 O   0  0  0  0  0  0  0  0  0  0  0  0
   -2.8150   -4.5730    0.6220 O   0  0  0  0  0  0  0  0  0  0  0  0
   -1.5090   -2.6070   -0.3760 H   0  0  0  0  0  0  0  0  0  0  0  0
   -4.0490   -3.0610   -1.9740 H   0  0  0  0  0  0  0  0  0  0  0  0
   -1.9240   -2.9970   -3.3620 H   0  0  0  0  0  0  0  0  0  0  0  0
   -2.6010   -4.6440   -3.2520 H   0  0  0  0  0  0  0  0  0  0  0  0
    0.4320   -3.5120   -1.9510 H   0  0  0  0  0  0  0  0  0  0  0  0
  1 12  1  0  0  0  0
  1 13  1  0  0  0  0
  2 14  1  1  0  0  0
  2  1  1  0  0  0  0
  3  2  1  0  0  0  0
  3  4  1  0  0  0  0
  4  5  1  0  0  0  0
  5 17  1  0  0  0  0
  5  6  2  0  0  0  0
  6 18  1  0  0  0  0
  7  6  1  0  0  0  0
  7 19  1  0  0  0  0
  8  7  2  0  0  0  0
  9  4  2  0  0  0  0
  9  8  1  0  0  0  0
 10 29  1  0  0  0  0
 10  2  1  0  0  0  0
 11 10  2  0  0  0  0
 15  3  1  0  0  0  0
 16  3  1  0  0  0  0
 20  8  1  0  0  0  0
 21  9  1  0  0  0  0
 22 34  1  0  0  0  0
 23 22  1  0  0  0  0
 24 23  1  0  0  0  0
 24 35  1  0  0  0  0
 25 24  2  0  0  0  0
 26 32  2  0  0  0  0
 26 25  1  0  0  0  0
 27 28  1  0  0  0  0
 27 26  1  0  0  0  0
 28 29  1  0  0  0  0
 28 39  1  1  0  0  0
 29 40  1  0  0  0  0
 30 28  1  0  0  0  0
 31 30  2  0  0  0  0
 32 33  1  0  0  0  0
 33 42  1  0  0  0  0
 33 23  2  0  0  0  0
 36 25  1  0  0  0  0
 37 27  1  0  0  0  0
 38 27  1  0  0  0  0
 41 32  1  0  0  0  0
 43 30  1  0  0  0  0
 43 50  1  0  0  0  0
 44 51  1  6  0  0  0
 44 43  1  0  0  0  0
 44 47  1  0  0  0  0
 45 46  1  0  0  0  0
 45 44  1  0  0  0  0
 46 54  1  0  0  0  0
 47 49  1  0  0  0  0
 48 47  2  0  0  0  0
 52 45  1  0  0  0  0
 53 45  1  0  0  0  0
M  END
$$$$
