FYG.pdb
 OpenBabel07022419013D

 50 51  0  0  1  0  0  0  0  0999 V2000
    1.2310   -0.4330   -1.0950 N   0  0  0  0  0  0  0  0  0  0  0  0
    1.6940   -0.5660    0.2950 C   0  0  1  0  0  0  0  0  0  0  0  0
    2.0630    0.8270    0.7550 C   0  0  0  0  0  0  0  0  0  0  0  0
    3.1390    1.3130   -0.1510 C   0  0  0  0  0  0  0  0  0  0  0  0
    2.8720    2.0050   -1.3160 C   0  0  0  0  0  0  0  0  0  0  0  0
    3.8830    2.4540   -2.1520 C   0  0  0  0  0  0  0  0  0  0  0  0
    5.2080    2.2230   -1.8460 C   0  0  0  0  0  0  0  0  0  0  0  0
    5.4710    1.5320   -0.6810 C   0  0  0  0  0  0  0  0  0  0  0  0
    4.4670    1.0840    0.1530 C   0  0  0  0  0  0  0  0  0  0  0  0
    0.5950   -1.1560    1.0740 C   0  0  0  0  0  0  0  0  0  0  0  0
    0.7990   -1.3540    2.3080 O   0  0  0  0  0  0  0  0  0  0  0  0
    0.4480    0.2360   -1.1350 H   0  0  0  0  0  0  0  0  0  0  0  0
    1.9980   -0.2590   -1.7510 H   0  0  0  0  0  0  0  0  0  0  0  0
    2.6240   -1.1720    0.3070 H   0  0  0  0  0  0  0  0  0  0  0  0
    1.1510    1.4620    0.5690 H   0  0  0  0  0  0  0  0  0  0  0  0
    2.3820    0.8670    1.7990 H   0  0  0  0  0  0  0  0  0  0  0  0
    1.8230    2.1750   -1.5380 H   0  0  0  0  0  0  0  0  0  0  0  0
    3.6420    2.9950   -3.0640 H   0  0  0  0  0  0  0  0  0  0  0  0
    6.0090    2.5680   -2.4900 H   0  0  0  0  0  0  0  0  0  0  0  0
    6.5210    1.3400   -0.4220 H   0  0  0  0  0  0  0  0  0  0  0  0
    4.6840    0.5370    1.0750 H   0  0  0  0  0  0  0  0  0  0  0  0
   -1.5980    3.7450    3.7750 O   0  0  0  0  0  0  0  0  0  0  0  0
   -1.9210    2.5410    3.1730 C   0  0  0  0  0  0  0  0  0  0  0  0
   -2.3910    1.5130    3.9610 C   0  0  0  0  0  0  0  0  0  0  0  0
   -2.7110    0.3090    3.3460 C   0  0  0  0  0  0  0  0  0  0  0  0
   -2.5670    0.1410    1.9930 C   0  0  0  0  0  0  0  0  0  0  0  0
   -2.9110   -1.1390    1.3600 C   0  0  0  0  0  0  0  0  0  0  0  0
   -1.7350   -2.0920    1.3060 C   0  0  2  0  0  0  0  0  0  0  0  0
   -0.6640   -1.5190    0.5590 N   0  0  0  0  0  0  0  0  0  0  0  0
   -2.1390   -3.4300    0.8450 C   0  0  0  0  0  0  0  0  0  0  0  0
   -3.0760   -4.0130    1.4440 O   0  0  0  0  0  0  0  0  0  0  0  0
   -2.0990    1.1770    1.2300 C   0  0  0  0  0  0  0  0  0  0  0  0
   -1.7810    2.3600    1.8230 C   0  0  0  0  0  0  0  0  0  0  0  0
   -0.8720    4.3580    3.4260 H   0  0  0  0  0  0  0  0  0  0  0  0
   -2.5170    1.6060    5.0230 H   0  0  0  0  0  0  0  0  0  0  0  0
   -3.0820   -0.4860    4.0030 H   0  0  0  0  0  0  0  0  0  0  0  0
   -3.7380   -1.5910    1.9590 H   0  0  0  0  0  0  0  0  0  0  0  0
   -3.3180   -1.0330    0.3320 H   0  0  0  0  0  0  0  0  0  0  0  0
   -1.3830   -2.1960    2.3720 H   0  0  0  0  0  0  0  0  0  0  0  0
   -0.8200   -1.3490   -0.4710 H   0  0  0  0  0  0  0  0  0  0  0  0
   -1.9650    1.0930    0.1420 H   0  0  0  0  0  0  0  0  0  0  0  0
   -1.4100    3.1760    1.2070 H   0  0  0  0  0  0  0  0  0  0  0  0
   -1.5370   -4.1180   -0.2450 N   0  0  0  0  0  0  0  0  0  0  0  0
   -2.0020   -5.4290   -0.6240 C   0  0  0  0  0  0  0  0  0  0  0  0
   -1.8460   -6.3870    0.5010 C   0  0  0  0  0  0  0  0  0  0  0  0
   -1.3580   -6.0000    1.5980 O   0  0  0  0  0  0  0  0  0  0  0  0
   -2.2150   -7.7130    0.4160 O   0  0  0  0  0  0  0  0  0  0  0  0
   -0.7530   -3.6630   -0.7700 H   0  0  0  0  0  0  0  0  0  0  0  0
   -3.0400   -5.4140   -1.0160 H   0  0  0  0  0  0  0  0  0  0  0  0
   -1.3580   -5.8020   -1.4450 H   0  0  0  0  0  0  0  0  0  0  0  0
  1  2  1  0  0  0  0
  2 14  1  1  0  0  0
  2  3  1  0  0  0  0
  2 10  1  0  0  0  0
  3 16  1  0  0  0  0
  4  9  1  0  0  0  0
  4  3  1  0  0  0  0
  5  4  2  0  0  0  0
  6  7  2  0  0  0  0
  6  5  1  0  0  0  0
  7  8  1  0  0  0  0
  8 20  1  0  0  0  0
  8  9  2  0  0  0  0
  9 21  1  0  0  0  0
 10 11  2  0  0  0  0
 12  1  1  0  0  0  0
 13  1  1  0  0  0  0
 15  3  1  0  0  0  0
 17  5  1  0  0  0  0
 18  6  1  0  0  0  0
 19  7  1  0  0  0  0
 23 22  1  0  0  0  0
 23 24  1  0  0  0  0
 24 35  1  0  0  0  0
 25 24  2  0  0  0  0
 25 36  1  0  0  0  0
 26 25  1  0  0  0  0
 27 37  1  0  0  0  0
 27 26  1  0  0  0  0
 28 27  1  0  0  0  0
 28 39  1  1  0  0  0
 29 10  1  0  0  0  0
 29 28  1  0  0  0  0
 30 28  1  0  0  0  0
 30 31  2  0  0  0  0
 32 33  1  0  0  0  0
 32 26  2  0  0  0  0
 33 23  2  0  0  0  0
 34 22  1  0  0  0  0
 38 27  1  0  0  0  0
 40 29  1  0  0  0  0
 41 32  1  0  0  0  0
 42 33  1  0  0  0  0
 43 30  1  0  0  0  0
 44 43  1  0  0  0  0
 44 45  1  0  0  0  0
 45 46  1  0  0  0  0
 47 45  2  0  0  0  0
 48 43  1  0  0  0  0
 49 44  1  0  0  0  0
 50 44  1  0  0  0  0
M  END
$$$$
