FYI.pdb
 OpenBabel07022419013D

 62 63  0  0  1  0  0  0  0  0999 V2000
    1.2900   -2.2100    3.1330 N   0  0  0  0  0  0  0  0  0  0  0  0
    1.5800   -0.7990    3.2880 C   0  0  1  0  0  0  0  0  0  0  0  0
    3.0670   -0.5400    2.9840 C   0  0  0  0  0  0  0  0  0  0  0  0
    3.9410   -1.2820    3.9230 C   0  0  0  0  0  0  0  0  0  0  0  0
    4.3170   -2.6050    3.6790 C   0  0  0  0  0  0  0  0  0  0  0  0
    5.1500   -3.2810    4.5480 C   0  0  0  0  0  0  0  0  0  0  0  0
    5.6490   -2.6950    5.6860 C   0  0  0  0  0  0  0  0  0  0  0  0
    5.2860   -1.3860    5.9430 C   0  0  0  0  0  0  0  0  0  0  0  0
    4.4470   -0.7050    5.0670 C   0  0  0  0  0  0  0  0  0  0  0  0
    0.7800    0.1030    2.4660 C   0  0  0  0  0  0  0  0  0  0  0  0
    0.4760    1.2250    2.9030 O   0  0  0  0  0  0  0  0  0  0  0  0
    1.2480   -2.5390    2.1630 H   0  0  0  0  0  0  0  0  0  0  0  0
    0.3670   -2.3440    3.6530 H   0  0  0  0  0  0  0  0  0  0  0  0
    1.4490   -0.5540    4.3630 H   0  0  0  0  0  0  0  0  0  0  0  0
    3.2800    0.5420    2.9930 H   0  0  0  0  0  0  0  0  0  0  0  0
    3.3040   -0.8980    1.9490 H   0  0  0  0  0  0  0  0  0  0  0  0
    3.9200   -3.0640    2.7830 H   0  0  0  0  0  0  0  0  0  0  0  0
    5.4400   -4.3070    4.3570 H   0  0  0  0  0  0  0  0  0  0  0  0
    6.3080   -3.2220    6.3810 H   0  0  0  0  0  0  0  0  0  0  0  0
    5.6630   -0.8920    6.8350 H   0  0  0  0  0  0  0  0  0  0  0  0
    4.1500    0.3310    5.2550 H   0  0  0  0  0  0  0  0  0  0  0  0
   -2.1220    5.2920   -3.7410 O   0  0  0  0  0  0  0  0  0  0  0  0
   -1.4810    4.3070   -2.9680 C   0  0  0  0  0  0  0  0  0  0  0  0
   -0.9300    4.6890   -1.7530 C   0  0  0  0  0  0  0  0  0  0  0  0
   -0.3050    3.7190   -1.0030 C   0  0  0  0  0  0  0  0  0  0  0  0
   -0.2060    2.4040   -1.4050 C   0  0  0  0  0  0  0  0  0  0  0  0
    0.4660    1.3960   -0.5710 C   0  0  0  0  0  0  0  0  0  0  0  0
   -0.4880    0.7180    0.3950 C   0  0  2  0  0  0  0  0  0  0  0  0
    0.3180   -0.2370    1.1510 N   0  0  0  0  0  0  0  0  0  0  0  0
   -1.6520    0.1210   -0.2390 C   0  0  0  0  0  0  0  0  0  0  0  0
   -2.5090    0.7570   -0.9140 O   0  0  0  0  0  0  0  0  0  0  0  0
   -0.7580    2.0430   -2.6130 C   0  0  0  0  0  0  0  0  0  0  0  0
   -1.3880    3.0110   -3.3710 C   0  0  0  0  0  0  0  0  0  0  0  0
   -1.8020    6.2400   -3.6160 H   0  0  0  0  0  0  0  0  0  0  0  0
   -0.9960    5.7290   -1.4120 H   0  0  0  0  0  0  0  0  0  0  0  0
    0.1170    4.0690   -0.0510 H   0  0  0  0  0  0  0  0  0  0  0  0
    1.3010    1.7950    0.0270 H   0  0  0  0  0  0  0  0  0  0  0  0
    0.9370    0.5920   -1.2150 H   0  0  0  0  0  0  0  0  0  0  0  0
   -0.8460    1.4950    1.1310 H   0  0  0  0  0  0  0  0  0  0  0  0
    0.5860   -1.1700    0.7960 H   0  0  0  0  0  0  0  0  0  0  0  0
   -0.7320    1.0350   -3.0160 H   0  0  0  0  0  0  0  0  0  0  0  0
   -1.8250    2.6930   -4.3350 H   0  0  0  0  0  0  0  0  0  0  0  0
   -4.7180   -2.5200   -3.1880 C   0  0  0  0  0  0  0  0  0  0  0  0
   -3.6400   -3.4120   -2.6840 C   0  0  0  0  0  0  0  0  0  0  0  0
   -2.5340   -2.6920   -1.9330 C   0  0  2  0  0  0  0  0  0  0  0  0
   -1.5510   -3.7690   -1.5050 C   0  0  0  0  0  0  0  0  0  0  0  0
   -3.0560   -1.9100   -0.7430 C   0  0  2  0  0  0  0  0  0  0  0  0
   -1.8990   -1.2730   -0.1280 N   0  0  0  0  0  0  0  0  0  0  0  0
   -3.7980   -2.7350    0.2280 C   0  0  0  0  0  0  0  0  0  0  0  0
   -3.4230   -2.8070    1.4270 O   0  0  0  0  0  0  0  0  0  0  0  0
   -4.9210   -3.4570   -0.1300 O   0  0  0  0  0  0  0  0  0  0  0  0
   -4.9200   -2.7040   -4.2860 H   0  0  0  0  0  0  0  0  0  0  0  0
   -5.6720   -2.7320   -2.6460 H   0  0  0  0  0  0  0  0  0  0  0  0
   -4.4200   -1.4730   -3.0680 H   0  0  0  0  0  0  0  0  0  0  0  0
   -4.0000   -4.2980   -2.1050 H   0  0  0  0  0  0  0  0  0  0  0  0
   -3.1280   -3.8520   -3.5900 H   0  0  0  0  0  0  0  0  0  0  0  0
   -1.9970   -2.0470   -2.6470 H   0  0  0  0  0  0  0  0  0  0  0  0
   -1.4050   -4.4330   -2.3820 H   0  0  0  0  0  0  0  0  0  0  0  0
   -0.5800   -3.3960   -1.1910 H   0  0  0  0  0  0  0  0  0  0  0  0
   -2.0380   -4.4380   -0.7340 H   0  0  0  0  0  0  0  0  0  0  0  0
   -3.7530   -1.1650   -1.1700 H   0  0  0  0  0  0  0  0  0  0  0  0
   -1.2590   -1.9000    0.4040 H   0  0  0  0  0  0  0  0  0  0  0  0
  1  2  1  0  0  0  0
  1 13  1  0  0  0  0
  2 14  1  1  0  0  0
  3 15  1  0  0  0  0
  3  2  1  0  0  0  0
  3  4  1  0  0  0  0
  4  9  1  0  0  0  0
  5  4  2  0  0  0  0
  5  6  1  0  0  0  0
  6  7  2  0  0  0  0
  7  8  1  0  0  0  0
  7 19  1  0  0  0  0
  8 20  1  0  0  0  0
  9 21  1  0  0  0  0
  9  8  2  0  0  0  0
 10 11  2  0  0  0  0
 10  2  1  0  0  0  0
 12  1  1  0  0  0  0
 16  3  1  0  0  0  0
 17  5  1  0  0  0  0
 18  6  1  0  0  0  0
 22 34  1  0  0  0  0
 22 23  1  0  0  0  0
 23 24  1  0  0  0  0
 24 35  1  0  0  0  0
 24 25  2  0  0  0  0
 25 36  1  0  0  0  0
 26 25  1  0  0  0  0
 26 27  1  0  0  0  0
 27 37  1  0  0  0  0
 27 28  1  0  0  0  0
 28 39  1  1  0  0  0
 28 29  1  0  0  0  0
 29 10  1  0  0  0  0
 30 48  1  0  0  0  0
 30 28  1  0  0  0  0
 31 30  2  0  0  0  0
 32 26  2  0  0  0  0
 33 23  2  0  0  0  0
 33 32  1  0  0  0  0
 38 27  1  0  0  0  0
 40 29  1  0  0  0  0
 41 32  1  0  0  0  0
 42 33  1  0  0  0  0
 43 54  1  0  0  0  0
 43 44  1  0  0  0  0
 43 53  1  0  0  0  0
 44 55  1  0  0  0  0
 44 45  1  0  0  0  0
 45 57  1  6  0  0  0
 45 46  1  0  0  0  0
 45 47  1  0  0  0  0
 46 59  1  0  0  0  0
 46 60  1  0  0  0  0
 47 61  1  6  0  0  0
 47 48  1  0  0  0  0
 47 49  1  0  0  0  0
 48 62  1  0  0  0  0
 49 50  1  0  0  0  0
 51 49  2  0  0  0  0
 52 43  1  0  0  0  0
 56 44  1  0  0  0  0
 58 46  1  0  0  0  0
M  END
$$$$
