FYL.pdb
 OpenBabel07022419013D

 62 63  0  0  1  0  0  0  0  0999 V2000
    2.7760    0.2090    0.9510 N   0  0  0  0  0  0  0  0  0  0  0  0
    2.7350   -1.2160    1.1840 C   0  0  1  0  0  0  0  0  0  0  0  0
    3.2950   -1.4850    2.5880 C   0  0  0  0  0  0  0  0  0  0  0  0
    4.6920   -0.9810    2.6290 C   0  0  0  0  0  0  0  0  0  0  0  0
    5.0180    0.3030    2.9980 C   0  0  0  0  0  0  0  0  0  0  0  0
    6.3490    0.7190    3.0170 C   0  0  0  0  0  0  0  0  0  0  0  0
    7.3690   -0.1340    2.6710 C   0  0  0  0  0  0  0  0  0  0  0  0
    7.0440   -1.4180    2.3020 C   0  0  0  0  0  0  0  0  0  0  0  0
    5.7140   -1.8390    2.2810 C   0  0  0  0  0  0  0  0  0  0  0  0
    1.3280   -1.6610    1.1050 C   0  0  0  0  0  0  0  0  0  0  0  0
    1.0350   -2.8680    1.2750 O   0  0  0  0  0  0  0  0  0  0  0  0
    2.3110    0.7540    1.7080 H   0  0  0  0  0  0  0  0  0  0  0  0
    3.7650    0.5520    0.8480 H   0  0  0  0  0  0  0  0  0  0  0  0
    3.3720   -1.6930    0.4210 H   0  0  0  0  0  0  0  0  0  0  0  0
    3.2620   -2.5730    2.7940 H   0  0  0  0  0  0  0  0  0  0  0  0
    2.6850   -0.9780    3.3530 H   0  0  0  0  0  0  0  0  0  0  0  0
    4.2030    0.9620    3.2680 H   0  0  0  0  0  0  0  0  0  0  0  0
    6.5700    1.7480    3.3170 H   0  0  0  0  0  0  0  0  0  0  0  0
    8.3920    0.2290    2.6990 H   0  0  0  0  0  0  0  0  0  0  0  0
    7.8100   -2.1220    2.0220 H   0  0  0  0  0  0  0  0  0  0  0  0
    5.4620   -2.8680    1.9840 H   0  0  0  0  0  0  0  0  0  0  0  0
   -1.7380    5.0790    2.1630 O   0  0  0  0  0  0  0  0  0  0  0  0
   -1.7320    3.6700    2.1220 C   0  0  0  0  0  0  0  0  0  0  0  0
   -2.7650    3.0580    1.4460 C   0  0  0  0  0  0  0  0  0  0  0  0
   -2.7330    1.6720    1.4230 C   0  0  0  0  0  0  0  0  0  0  0  0
   -1.7500    0.9280    2.0240 C   0  0  0  0  0  0  0  0  0  0  0  0
   -1.8120   -0.5310    1.9360 C   0  0  0  0  0  0  0  0  0  0  0  0
   -1.0960   -1.1270    0.7540 C   0  0  2  0  0  0  0  0  0  0  0  0
    0.2940   -0.7420    0.8410 N   0  0  0  0  0  0  0  0  0  0  0  0
   -1.6950   -0.8790   -0.5470 C   0  0  0  0  0  0  0  0  0  0  0  0
   -1.0760   -0.3200   -1.5160 O   0  0  0  0  0  0  0  0  0  0  0  0
   -0.7410    1.5750    2.6850 C   0  0  0  0  0  0  0  0  0  0  0  0
   -0.7330    2.9470    2.7340 C   0  0  0  0  0  0  0  0  0  0  0  0
   -1.5260    5.5200    1.2640 H   0  0  0  0  0  0  0  0  0  0  0  0
   -3.5620    3.6250    0.9580 H   0  0  0  0  0  0  0  0  0  0  0  0
   -3.5640    1.2160    0.8820 H   0  0  0  0  0  0  0  0  0  0  0  0
   -2.8800   -0.8480    1.9790 H   0  0  0  0  0  0  0  0  0  0  0  0
   -1.3390   -0.9510    2.8480 H   0  0  0  0  0  0  0  0  0  0  0  0
   -1.1200   -2.2450    0.9380 H   0  0  0  0  0  0  0  0  0  0  0  0
    0.5260    0.2600    0.6990 H   0  0  0  0  0  0  0  0  0  0  0  0
    0.0590    1.0360    3.1770 H   0  0  0  0  0  0  0  0  0  0  0  0
    0.0500    3.5080    3.2490 H   0  0  0  0  0  0  0  0  0  0  0  0
   -2.1160   -3.7570   -1.9530 C   0  0  0  0  0  0  0  0  0  0  0  0
   -2.8940   -3.2410   -3.1070 C   0  0  0  0  0  0  0  0  0  0  0  0
   -3.4830   -4.4670   -3.8300 C   0  0  0  0  0  0  0  0  0  0  0  0
   -4.0080   -2.3000   -2.8020 C   0  0  0  0  0  0  0  0  0  0  0  0
   -3.6480   -1.0210   -2.1220 C   0  0  2  0  0  0  0  0  0  0  0  0
   -3.0440   -1.2510   -0.8470 N   0  0  0  0  0  0  0  0  0  0  0  0
   -4.9050   -0.2060   -2.0270 C   0  0  0  0  0  0  0  0  0  0  0  0
   -5.3200    0.1740   -0.9110 O   0  0  0  0  0  0  0  0  0  0  0  0
   -5.6270    0.1430   -3.1540 O   0  0  0  0  0  0  0  0  0  0  0  0
   -1.8750   -4.8630   -2.0890 H   0  0  0  0  0  0  0  0  0  0  0  0
   -2.5470   -3.6050   -0.9590 H   0  0  0  0  0  0  0  0  0  0  0  0
   -1.1000   -3.2800   -1.9730 H   0  0  0  0  0  0  0  0  0  0  0  0
   -2.2160   -2.7670   -3.8740 H   0  0  0  0  0  0  0  0  0  0  0  0
   -2.6740   -5.0400   -4.2820 H   0  0  0  0  0  0  0  0  0  0  0  0
   -3.9620   -5.0750   -3.0150 H   0  0  0  0  0  0  0  0  0  0  0  0
   -4.2640   -4.1450   -4.5410 H   0  0  0  0  0  0  0  0  0  0  0  0
   -4.7550   -2.8880   -2.1780 H   0  0  0  0  0  0  0  0  0  0  0  0
   -4.5840   -2.1040   -3.7530 H   0  0  0  0  0  0  0  0  0  0  0  0
   -2.9700   -0.4740   -2.8210 H   0  0  0  0  0  0  0  0  0  0  0  0
   -3.5670   -1.7000   -0.0530 H   0  0  0  0  0  0  0  0  0  0  0  0
  1  2  1  0  0  0  0
  1 12  1  0  0  0  0
  2 14  1  6  0  0  0
  2  3  1  0  0  0  0
  3  4  1  0  0  0  0
  3 15  1  0  0  0  0
  3 16  1  0  0  0  0
  4  5  1  0  0  0  0
  5  6  2  0  0  0  0
  5 17  1  0  0  0  0
  6 18  1  0  0  0  0
  7 19  1  0  0  0  0
  7  6  1  0  0  0  0
  8  7  2  0  0  0  0
  9  8  1  0  0  0  0
  9  4  2  0  0  0  0
 10  2  1  0  0  0  0
 10 11  2  0  0  0  0
 13  1  1  0  0  0  0
 20  8  1  0  0  0  0
 21  9  1  0  0  0  0
 23 22  1  0  0  0  0
 23 33  1  0  0  0  0
 24 23  2  0  0  0  0
 25 24  1  0  0  0  0
 25 26  2  0  0  0  0
 26 32  1  0  0  0  0
 27 37  1  0  0  0  0
 27 26  1  0  0  0  0
 27 38  1  0  0  0  0
 28 29  1  0  0  0  0
 28 39  1  1  0  0  0
 28 27  1  0  0  0  0
 29 10  1  0  0  0  0
 30 28  1  0  0  0  0
 31 30  2  0  0  0  0
 32 33  2  0  0  0  0
 32 41  1  0  0  0  0
 33 42  1  0  0  0  0
 34 22  1  0  0  0  0
 35 24  1  0  0  0  0
 36 25  1  0  0  0  0
 40 29  1  0  0  0  0
 43 53  1  0  0  0  0
 44 46  1  0  0  0  0
 44 43  1  0  0  0  0
 45 44  1  0  0  0  0
 45 57  1  0  0  0  0
 46 59  1  0  0  0  0
 46 47  1  0  0  0  0
 47 61  1  6  0  0  0
 47 49  1  0  0  0  0
 47 48  1  0  0  0  0
 48 30  1  0  0  0  0
 48 62  1  0  0  0  0
 49 50  1  0  0  0  0
 51 49  2  0  0  0  0
 52 43  1  0  0  0  0
 54 43  1  0  0  0  0
 55 44  1  0  0  0  0
 56 45  1  0  0  0  0
 58 45  1  0  0  0  0
 60 46  1  0  0  0  0
M  END
$$$$
