FYM.pdb
 OpenBabel07022419023D

 60 61  0  0  1  0  0  0  0  0999 V2000
    1.4720    0.0840    2.6430 N   0  0  0  0  0  0  0  0  0  0  0  0
    1.5770    0.0650    1.2150 C   0  0  1  0  0  0  0  0  0  0  0  0
    2.5590   -1.0120    0.8110 C   0  0  0  0  0  0  0  0  0  0  0  0
    3.8590   -0.6710    1.4310 C   0  0  0  0  0  0  0  0  0  0  0  0
    4.1670   -1.1390    2.6830 C   0  0  0  0  0  0  0  0  0  0  0  0
    5.3870   -0.8300    3.2880 C   0  0  0  0  0  0  0  0  0  0  0  0
    6.2960   -0.0400    2.6130 C   0  0  0  0  0  0  0  0  0  0  0  0
    5.9650    0.4190    1.3580 C   0  0  0  0  0  0  0  0  0  0  0  0
    4.7640    0.1220    0.7480 C   0  0  0  0  0  0  0  0  0  0  0  0
    0.2610   -0.1010    0.5350 C   0  0  0  0  0  0  0  0  0  0  0  0
    0.2190   -0.1250   -0.7080 O   0  0  0  0  0  0  0  0  0  0  0  0
    1.0580   -0.7850    3.0350 H   0  0  0  0  0  0  0  0  0  0  0  0
    0.8430    0.8830    2.9030 H   0  0  0  0  0  0  0  0  0  0  0  0
    2.0100    1.0370    0.8890 H   0  0  0  0  0  0  0  0  0  0  0  0
    2.6910   -1.0620   -0.2850 H   0  0  0  0  0  0  0  0  0  0  0  0
    2.2580   -1.9980    1.2230 H   0  0  0  0  0  0  0  0  0  0  0  0
    3.4410   -1.7610    3.2020 H   0  0  0  0  0  0  0  0  0  0  0  0
    5.6180   -1.2070    4.2770 H   0  0  0  0  0  0  0  0  0  0  0  0
    7.2620    0.2120    3.0760 H   0  0  0  0  0  0  0  0  0  0  0  0
    6.6650    1.0480    0.7970 H   0  0  0  0  0  0  0  0  0  0  0  0
    4.5020    0.4830   -0.2410 H   0  0  0  0  0  0  0  0  0  0  0  0
   -2.6690    5.7720    1.8720 O   0  0  0  0  0  0  0  0  0  0  0  0
   -2.6090    4.5110    1.3080 C   0  0  0  0  0  0  0  0  0  0  0  0
   -3.7010    3.6980    1.3470 C   0  0  0  0  0  0  0  0  0  0  0  0
   -3.7120    2.4400    0.8090 C   0  0  0  0  0  0  0  0  0  0  0  0
   -2.5310    1.9940    0.1970 C   0  0  0  0  0  0  0  0  0  0  0  0
   -2.5490    0.6450   -0.3960 C   0  0  0  0  0  0  0  0  0  0  0  0
   -2.2140   -0.3880    0.6770 C   0  0  2  0  0  0  0  0  0  0  0  0
   -0.9330   -0.2320    1.2730 N   0  0  0  0  0  0  0  0  0  0  0  0
   -2.4510   -1.7400    0.1270 C   0  0  0  0  0  0  0  0  0  0  0  0
   -3.5310   -2.0510   -0.4290 O   0  0  0  0  0  0  0  0  0  0  0  0
   -1.4350    2.8050    0.1550 C   0  0  0  0  0  0  0  0  0  0  0  0
   -1.4530    4.0780    0.7100 C   0  0  0  0  0  0  0  0  0  0  0  0
   -1.8900    6.3910    1.9290 H   0  0  0  0  0  0  0  0  0  0  0  0
   -4.5980    4.0620    1.8220 H   0  0  0  0  0  0  0  0  0  0  0  0
   -4.5880    1.8160    0.8530 H   0  0  0  0  0  0  0  0  0  0  0  0
   -1.8980    0.5500   -1.2620 H   0  0  0  0  0  0  0  0  0  0  0  0
   -3.5880    0.4330   -0.7730 H   0  0  0  0  0  0  0  0  0  0  0  0
   -2.9630   -0.1560    1.5030 H   0  0  0  0  0  0  0  0  0  0  0  0
   -0.8050   -0.2050    2.3410 H   0  0  0  0  0  0  0  0  0  0  0  0
   -0.5110    2.4880   -0.3220 H   0  0  0  0  0  0  0  0  0  0  0  0
   -0.5590    4.6930    0.6550 H   0  0  0  0  0  0  0  0  0  0  0  0
   -2.5580   -5.0970   -4.0810 C   0  0  0  0  0  0  0  0  0  0  0  0
   -2.2180   -3.5100   -3.3030 S   0  0  0  0  0  0  0  0  0  0  0  0
   -0.6100   -3.4460   -2.5030 C   0  0  0  0  0  0  0  0  0  0  0  0
   -0.5430   -4.3970   -1.3060 C   0  0  0  0  0  0  0  0  0  0  0  0
   -1.5880   -4.0310   -0.2770 C   0  0  2  0  0  0  0  0  0  0  0  0
   -1.4320   -2.7060    0.2320 N   0  0  0  0  0  0  0  0  0  0  0  0
   -1.5650   -4.9830    0.8460 C   0  0  0  0  0  0  0  0  0  0  0  0
   -1.6870   -6.2020    0.6210 O   0  0  0  0  0  0  0  0  0  0  0  0
   -1.4110   -4.5320    2.1330 O   0  0  0  0  0  0  0  0  0  0  0  0
   -2.8120   -4.9350   -5.1450 H   0  0  0  0  0  0  0  0  0  0  0  0
   -3.4830   -5.5080   -3.5950 H   0  0  0  0  0  0  0  0  0  0  0  0
   -1.7550   -5.8280   -3.9290 H   0  0  0  0  0  0  0  0  0  0  0  0
   -0.4270   -2.3950   -2.2010 H   0  0  0  0  0  0  0  0  0  0  0  0
    0.1670   -3.7060   -3.2480 H   0  0  0  0  0  0  0  0  0  0  0  0
    0.4650   -4.4400   -0.9030 H   0  0  0  0  0  0  0  0  0  0  0  0
   -0.8000   -5.4010   -1.7020 H   0  0  0  0  0  0  0  0  0  0  0  0
   -2.6130   -4.1180   -0.7340 H   0  0  0  0  0  0  0  0  0  0  0  0
   -0.4950   -2.4990    0.6950 H   0  0  0  0  0  0  0  0  0  0  0  0
  1 13  1  0  0  0  0
  1 12  1  0  0  0  0
  2 14  1  6  0  0  0
  2  1  1  0  0  0  0
  3  2  1  0  0  0  0
  3 16  1  0  0  0  0
  3  4  1  0  0  0  0
  4  5  1  0  0  0  0
  5 17  1  0  0  0  0
  5  6  2  0  0  0  0
  6 18  1  0  0  0  0
  7 19  1  0  0  0  0
  7  6  1  0  0  0  0
  8  7  2  0  0  0  0
  9  8  1  0  0  0  0
  9  4  2  0  0  0  0
 10  2  1  0  0  0  0
 10 29  1  0  0  0  0
 11 10  2  0  0  0  0
 15  3  1  0  0  0  0
 20  8  1  0  0  0  0
 21  9  1  0  0  0  0
 22 34  1  0  0  0  0
 23 24  1  0  0  0  0
 23 22  1  0  0  0  0
 24 35  1  0  0  0  0
 25 36  1  0  0  0  0
 25 24  2  0  0  0  0
 26 25  1  0  0  0  0
 27 26  1  0  0  0  0
 27 28  1  0  0  0  0
 28 29  1  0  0  0  0
 28 39  1  1  0  0  0
 29 40  1  0  0  0  0
 30 48  1  0  0  0  0
 30 28  1  0  0  0  0
 31 30  2  0  0  0  0
 32 26  2  0  0  0  0
 32 33  1  0  0  0  0
 33 23  2  0  0  0  0
 37 27  1  0  0  0  0
 38 27  1  0  0  0  0
 41 32  1  0  0  0  0
 42 33  1  0  0  0  0
 43 54  1  0  0  0  0
 43 53  1  0  0  0  0
 43 44  1  0  0  0  0
 44 45  1  0  0  0  0
 45 55  1  0  0  0  0
 45 46  1  0  0  0  0
 46 57  1  0  0  0  0
 46 47  1  0  0  0  0
 47 59  1  6  0  0  0
 47 48  1  0  0  0  0
 47 49  1  0  0  0  0
 48 60  1  0  0  0  0
 49 51  1  0  0  0  0
 50 49  2  0  0  0  0
 52 43  1  0  0  0  0
 56 45  1  0  0  0  0
 58 46  1  0  0  0  0
M  END
$$$$
