FYN.pdb
 OpenBabel07022419013D

 57 58  0  0  1  0  0  0  0  0999 V2000
    1.5310    0.1580    1.6960 N   0  0  0  0  0  0  0  0  0  0  0  0
    2.2220   -1.1070    1.8200 C   0  0  1  0  0  0  0  0  0  0  0  0
    2.4890   -1.4530    3.2760 C   0  0  0  0  0  0  0  0  0  0  0  0
    3.3300   -0.4130    3.9080 C   0  0  0  0  0  0  0  0  0  0  0  0
    2.7500    0.6730    4.5200 C   0  0  0  0  0  0  0  0  0  0  0  0
    3.5190    1.6630    5.1250 C   0  0  0  0  0  0  0  0  0  0  0  0
    4.8910    1.5640    5.1180 C   0  0  0  0  0  0  0  0  0  0  0  0
    5.4850    0.4920    4.5140 C   0  0  0  0  0  0  0  0  0  0  0  0
    4.7050   -0.4940    3.9110 C   0  0  0  0  0  0  0  0  0  0  0  0
    1.5210   -2.2040    1.1200 C   0  0  0  0  0  0  0  0  0  0  0  0
    1.9660   -3.3820    1.0850 O   0  0  0  0  0  0  0  0  0  0  0  0
    0.5900    0.1830    2.0960 H   0  0  0  0  0  0  0  0  0  0  0  0
    1.6650    0.5890    0.7710 H   0  0  0  0  0  0  0  0  0  0  0  0
    3.2480   -0.9340    1.3770 H   0  0  0  0  0  0  0  0  0  0  0  0
    2.9540   -2.4510    3.3390 H   0  0  0  0  0  0  0  0  0  0  0  0
    1.5250   -1.5190    3.8340 H   0  0  0  0  0  0  0  0  0  0  0  0
    1.6660    0.8100    4.5610 H   0  0  0  0  0  0  0  0  0  0  0  0
    3.0820    2.5230    5.6090 H   0  0  0  0  0  0  0  0  0  0  0  0
    5.5320    2.3270    5.5860 H   0  0  0  0  0  0  0  0  0  0  0  0
    6.5540    0.4050    4.5020 H   0  0  0  0  0  0  0  0  0  0  0  0
    5.2270   -1.3210    3.4500 H   0  0  0  0  0  0  0  0  0  0  0  0
   -5.0720    1.3330    1.1560 O   0  0  0  0  0  0  0  0  0  0  0  0
   -4.2510    0.2190    0.9910 C   0  0  0  0  0  0  0  0  0  0  0  0
   -4.4200   -0.5890   -0.1130 C   0  0  0  0  0  0  0  0  0  0  0  0
   -3.6000   -1.6920   -0.2660 C   0  0  0  0  0  0  0  0  0  0  0  0
   -2.6090   -2.0030    0.6670 C   0  0  0  0  0  0  0  0  0  0  0  0
   -1.7370   -3.1850    0.5060 C   0  0  0  0  0  0  0  0  0  0  0  0
   -0.4590   -2.9080   -0.2470 C   0  0  2  0  0  0  0  0  0  0  0  0
    0.2980   -1.9090    0.4620 N   0  0  0  0  0  0  0  0  0  0  0  0
   -0.7940   -2.5520   -1.6250 C   0  0  0  0  0  0  0  0  0  0  0  0
   -1.4910   -3.3560   -2.3060 O   0  0  0  0  0  0  0  0  0  0  0  0
   -2.4340   -1.1980    1.7760 C   0  0  0  0  0  0  0  0  0  0  0  0
   -3.2670   -0.1070    1.9000 C   0  0  0  0  0  0  0  0  0  0  0  0
   -4.8220    2.1080    1.7560 H   0  0  0  0  0  0  0  0  0  0  0  0
   -5.1950   -0.3210   -0.8160 H   0  0  0  0  0  0  0  0  0  0  0  0
   -3.7550   -2.3070   -1.1410 H   0  0  0  0  0  0  0  0  0  0  0  0
   -2.3400   -3.9440   -0.0500 H   0  0  0  0  0  0  0  0  0  0  0  0
   -1.4440   -3.5920    1.5120 H   0  0  0  0  0  0  0  0  0  0  0  0
    0.1270   -3.8660   -0.1870 H   0  0  0  0  0  0  0  0  0  0  0  0
   -0.0420   -0.9260    0.5100 H   0  0  0  0  0  0  0  0  0  0  0  0
   -1.6690   -1.4050    2.5320 H   0  0  0  0  0  0  0  0  0  0  0  0
   -3.1150    0.5160    2.7770 H   0  0  0  0  0  0  0  0  0  0  0  0
   -3.7290    0.6430   -3.6880 N   0  0  0  0  0  0  0  0  0  0  0  0
   -2.4580    0.7270   -3.1150 C   0  0  0  0  0  0  0  0  0  0  0  0
   -2.3620    1.1220   -1.9230 O   0  0  0  0  0  0  0  0  0  0  0  0
   -1.1960    0.3900   -3.7880 C   0  0  0  0  0  0  0  0  0  0  0  0
   -0.6600   -0.9550   -3.5530 C   0  0  2  0  0  0  0  0  0  0  0  0
   -0.3530   -1.3230   -2.2190 N   0  0  0  0  0  0  0  0  0  0  0  0
    0.5960   -1.1510   -4.3710 C   0  0  0  0  0  0  0  0  0  0  0  0
    0.5900   -0.8990   -5.6000 O   0  0  0  0  0  0  0  0  0  0  0  0
    1.7510   -1.6080   -3.7650 O   0  0  0  0  0  0  0  0  0  0  0  0
   -3.8560    0.4790   -4.7020 H   0  0  0  0  0  0  0  0  0  0  0  0
   -4.5900    0.7440   -3.1120 H   0  0  0  0  0  0  0  0  0  0  0  0
   -1.3420    0.5810   -4.8720 H   0  0  0  0  0  0  0  0  0  0  0  0
   -0.4160    1.1440   -3.4760 H   0  0  0  0  0  0  0  0  0  0  0  0
   -1.3590   -1.7340   -3.9820 H   0  0  0  0  0  0  0  0  0  0  0  0
    0.2190   -0.6750   -1.6370 H   0  0  0  0  0  0  0  0  0  0  0  0
  1  2  1  0  0  0  0
  1 12  1  0  0  0  0
  2 14  1  6  0  0  0
  2  3  1  0  0  0  0
  3 15  1  0  0  0  0
  3 16  1  0  0  0  0
  3  4  1  0  0  0  0
  4  9  2  0  0  0  0
  4  5  1  0  0  0  0
  5 17  1  0  0  0  0
  5  6  2  0  0  0  0
  6 18  1  0  0  0  0
  7  6  1  0  0  0  0
  7 19  1  0  0  0  0
  8  7  2  0  0  0  0
  9  8  1  0  0  0  0
 10  2  1  0  0  0  0
 11 10  2  0  0  0  0
 13  1  1  0  0  0  0
 20  8  1  0  0  0  0
 21  9  1  0  0  0  0
 22 34  1  0  0  0  0
 23 22  1  0  0  0  0
 23 33  1  0  0  0  0
 24 23  2  0  0  0  0
 25 24  1  0  0  0  0
 25 26  2  0  0  0  0
 26 32  1  0  0  0  0
 27 26  1  0  0  0  0
 27 38  1  0  0  0  0
 28 39  1  6  0  0  0
 28 29  1  0  0  0  0
 28 27  1  0  0  0  0
 29 40  1  0  0  0  0
 29 10  1  0  0  0  0
 30 28  1  0  0  0  0
 31 30  2  0  0  0  0
 32 33  2  0  0  0  0
 32 41  1  0  0  0  0
 33 42  1  0  0  0  0
 35 24  1  0  0  0  0
 36 25  1  0  0  0  0
 37 27  1  0  0  0  0
 43 44  1  0  0  0  0
 43 53  1  0  0  0  0
 44 45  2  0  0  0  0
 46 47  1  0  0  0  0
 46 55  1  0  0  0  0
 46 44  1  0  0  0  0
 47 56  1  6  0  0  0
 47 48  1  0  0  0  0
 48 57  1  0  0  0  0
 48 30  1  0  0  0  0
 49 51  1  0  0  0  0
 49 47  1  0  0  0  0
 50 49  2  0  0  0  0
 52 43  1  0  0  0  0
 54 46  1  0  0  0  0
M  END
$$$$
