FYQ.pdb
 OpenBabel07022419013D

 60 61  0  0  1  0  0  0  0  0999 V2000
    0.4870   -2.6730    4.7920 N   0  0  0  0  0  0  0  0  0  0  0  0
    0.3120   -1.4190    4.0410 C   0  0  1  0  0  0  0  0  0  0  0  0
    1.6520   -0.7580    3.8630 C   0  0  0  0  0  0  0  0  0  0  0  0
    2.6090   -1.6190    3.1370 C   0  0  0  0  0  0  0  0  0  0  0  0
    3.4080   -2.5420    3.8240 C   0  0  0  0  0  0  0  0  0  0  0  0
    4.3060   -3.3210    3.1440 C   0  0  0  0  0  0  0  0  0  0  0  0
    4.4590   -3.2300    1.7780 C   0  0  0  0  0  0  0  0  0  0  0  0
    3.6810   -2.3310    1.1060 C   0  0  0  0  0  0  0  0  0  0  0  0
    2.7730   -1.5410    1.7810 C   0  0  0  0  0  0  0  0  0  0  0  0
   -0.3220   -1.7490    2.7600 C   0  0  0  0  0  0  0  0  0  0  0  0
   -0.5330   -2.9390    2.4610 O   0  0  0  0  0  0  0  0  0  0  0  0
    0.6540   -3.4350    4.0820 H   0  0  0  0  0  0  0  0  0  0  0  0
   -0.3400   -2.8650    5.3940 H   0  0  0  0  0  0  0  0  0  0  0  0
   -0.3470   -0.7300    4.6550 H   0  0  0  0  0  0  0  0  0  0  0  0
    2.1280   -0.5440    4.8590 H   0  0  0  0  0  0  0  0  0  0  0  0
    1.5510    0.2220    3.3150 H   0  0  0  0  0  0  0  0  0  0  0  0
    3.2550   -2.5790    4.8930 H   0  0  0  0  0  0  0  0  0  0  0  0
    4.9240   -4.0350    3.6720 H   0  0  0  0  0  0  0  0  0  0  0  0
    5.1730   -3.8480    1.2260 H   0  0  0  0  0  0  0  0  0  0  0  0
    3.7600   -2.2140    0.0340 H   0  0  0  0  0  0  0  0  0  0  0  0
    2.1450   -0.8160    1.2580 H   0  0  0  0  0  0  0  0  0  0  0  0
   -3.5560    4.8340    1.9380 O   0  0  0  0  0  0  0  0  0  0  0  0
   -3.3770    3.4750    1.6190 C   0  0  0  0  0  0  0  0  0  0  0  0
   -3.3060    2.5050    2.5740 C   0  0  0  0  0  0  0  0  0  0  0  0
   -3.1320    1.1800    2.2710 C   0  0  0  0  0  0  0  0  0  0  0  0
   -3.0250    0.7950    0.9560 C   0  0  0  0  0  0  0  0  0  0  0  0
   -2.8390   -0.6140    0.6270 C   0  0  0  0  0  0  0  0  0  0  0  0
   -1.3690   -1.0160    0.5650 C   0  0  2  0  0  0  0  0  0  0  0  0
   -0.7250   -0.7570    1.8150 N   0  0  0  0  0  0  0  0  0  0  0  0
   -0.6780   -0.5790   -0.6490 C   0  0  0  0  0  0  0  0  0  0  0  0
    0.4080    0.0720   -0.6350 O   0  0  0  0  0  0  0  0  0  0  0  0
   -3.0940    1.7540   -0.0150 C   0  0  0  0  0  0  0  0  0  0  0  0
   -3.2700    3.0990    0.2970 C   0  0  0  0  0  0  0  0  0  0  0  0
   -4.1570    5.3780    1.3290 H   0  0  0  0  0  0  0  0  0  0  0  0
   -3.3940    2.8390    3.6170 H   0  0  0  0  0  0  0  0  0  0  0  0
   -3.0880    0.4900    3.1070 H   0  0  0  0  0  0  0  0  0  0  0  0
   -3.3380   -0.8950   -0.3220 H   0  0  0  0  0  0  0  0  0  0  0  0
   -3.2970   -1.2780    1.4090 H   0  0  0  0  0  0  0  0  0  0  0  0
   -1.4180   -2.1510    0.4880 H   0  0  0  0  0  0  0  0  0  0  0  0
   -0.5100    0.2410    2.1060 H   0  0  0  0  0  0  0  0  0  0  0  0
   -3.0200    1.5470   -1.0720 H   0  0  0  0  0  0  0  0  0  0  0  0
   -3.3220    3.8360   -0.4940 H   0  0  0  0  0  0  0  0  0  0  0  0
    2.9880   -3.1130   -2.4660 N   0  0  0  0  0  0  0  0  0  0  0  0
    2.0600   -2.1520   -2.9770 C   0  0  0  0  0  0  0  0  0  0  0  0
    2.3840   -0.9420   -3.0310 O   0  0  0  0  0  0  0  0  0  0  0  0
    0.7530   -2.6300   -3.4220 C   0  0  0  0  0  0  0  0  0  0  0  0
   -0.1580   -1.6320   -4.0140 C   0  0  0  0  0  0  0  0  0  0  0  0
   -0.5660   -0.4820   -3.1240 C   0  0  2  0  0  0  0  0  0  0  0  0
   -1.2520   -0.9050   -1.9430 N   0  0  0  0  0  0  0  0  0  0  0  0
   -1.4800    0.3490   -3.9470 C   0  0  0  0  0  0  0  0  0  0  0  0
   -1.1010    0.8920   -5.0100 O   0  0  0  0  0  0  0  0  0  0  0  0
   -2.7810    0.5330   -3.5410 O   0  0  0  0  0  0  0  0  0  0  0  0
    4.0050   -2.8680   -2.3460 H   0  0  0  0  0  0  0  0  0  0  0  0
    2.7130   -4.0800   -2.1920 H   0  0  0  0  0  0  0  0  0  0  0  0
    0.2340   -3.2550   -2.6370 H   0  0  0  0  0  0  0  0  0  0  0  0
    0.9620   -3.3910   -4.2340 H   0  0  0  0  0  0  0  0  0  0  0  0
    0.3550   -1.1860   -4.9130 H   0  0  0  0  0  0  0  0  0  0  0  0
   -1.0460   -2.1610   -4.4180 H   0  0  0  0  0  0  0  0  0  0  0  0
    0.3290    0.1120   -2.8660 H   0  0  0  0  0  0  0  0  0  0  0  0
   -2.1430   -1.4340   -1.9220 H   0  0  0  0  0  0  0  0  0  0  0  0
  1 13  1  0  0  0  0
  2 14  1  1  0  0  0
  2  1  1  0  0  0  0
  3  2  1  0  0  0  0
  3 15  1  0  0  0  0
  4  5  1  0  0  0  0
  4  3  1  0  0  0  0
  5 17  1  0  0  0  0
  6 18  1  0  0  0  0
  6  5  2  0  0  0  0
  7  6  1  0  0  0  0
  8  7  2  0  0  0  0
  8  9  1  0  0  0  0
  9  4  2  0  0  0  0
 10  2  1  0  0  0  0
 11 10  2  0  0  0  0
 12  1  1  0  0  0  0
 16  3  1  0  0  0  0
 19  7  1  0  0  0  0
 20  8  1  0  0  0  0
 21  9  1  0  0  0  0
 23 22  1  0  0  0  0
 23 24  1  0  0  0  0
 24 35  1  0  0  0  0
 25 24  2  0  0  0  0
 25 36  1  0  0  0  0
 26 25  1  0  0  0  0
 27 26  1  0  0  0  0
 27 38  1  0  0  0  0
 28 39  1  6  0  0  0
 28 27  1  0  0  0  0
 28 29  1  0  0  0  0
 29 40  1  0  0  0  0
 29 10  1  0  0  0  0
 30 31  2  0  0  0  0
 30 28  1  0  0  0  0
 32 33  1  0  0  0  0
 32 26  2  0  0  0  0
 33 23  2  0  0  0  0
 34 22  1  0  0  0  0
 37 27  1  0  0  0  0
 41 32  1  0  0  0  0
 42 33  1  0  0  0  0
 43 53  1  0  0  0  0
 43 54  1  0  0  0  0
 44 43  1  0  0  0  0
 45 44  2  0  0  0  0
 46 44  1  0  0  0  0
 46 55  1  0  0  0  0
 47 46  1  0  0  0  0
 47 48  1  0  0  0  0
 48 59  1  1  0  0  0
 48 49  1  0  0  0  0
 49 60  1  0  0  0  0
 49 30  1  0  0  0  0
 50 52  1  0  0  0  0
 50 48  1  0  0  0  0
 51 50  2  0  0  0  0
 56 46  1  0  0  0  0
 57 47  1  0  0  0  0
 58 47  1  0  0  0  0
M  END
$$$$
