FYS.pdb
 OpenBabel07022419023D

 54 55  0  0  1  0  0  0  0  0999 V2000
    1.2220   -1.0790    2.0840 N   0  0  0  0  0  0  0  0  0  0  0  0
    1.4450   -0.3950    0.8500 C   0  0  1  0  0  0  0  0  0  0  0  0
    2.4420   -1.1470    0.0120 C   0  0  0  0  0  0  0  0  0  0  0  0
    3.7100   -1.2300    0.7850 C   0  0  0  0  0  0  0  0  0  0  0  0
    3.9610   -2.2840    1.6410 C   0  0  0  0  0  0  0  0  0  0  0  0
    5.1480   -2.3670    2.3690 C   0  0  0  0  0  0  0  0  0  0  0  0
    6.1120   -1.3870    2.2510 C   0  0  0  0  0  0  0  0  0  0  0  0
    5.8750   -0.3220    1.3970 C   0  0  0  0  0  0  0  0  0  0  0  0
    4.6920   -0.2640    0.6880 C   0  0  0  0  0  0  0  0  0  0  0  0
    0.1830   -0.1220    0.1620 C   0  0  0  0  0  0  0  0  0  0  0  0
    0.1720    0.4830   -0.9590 O   0  0  0  0  0  0  0  0  0  0  0  0
    0.7070   -0.4890    2.7760 H   0  0  0  0  0  0  0  0  0  0  0  0
    0.8580   -2.0320    1.9960 H   0  0  0  0  0  0  0  0  0  0  0  0
    1.8980    0.6070    1.1110 H   0  0  0  0  0  0  0  0  0  0  0  0
    2.5940   -0.7320   -0.9830 H   0  0  0  0  0  0  0  0  0  0  0  0
    2.0640   -2.1950   -0.1060 H   0  0  0  0  0  0  0  0  0  0  0  0
    3.2220   -3.0570    1.7450 H   0  0  0  0  0  0  0  0  0  0  0  0
    5.3590   -3.1870    3.0430 H   0  0  0  0  0  0  0  0  0  0  0  0
    7.0450   -1.4130    2.7980 H   0  0  0  0  0  0  0  0  0  0  0  0
    6.6430    0.4360    1.3190 H   0  0  0  0  0  0  0  0  0  0  0  0
    4.5270    0.5810    0.0230 H   0  0  0  0  0  0  0  0  0  0  0  0
   -2.4010    4.4610    4.2200 O   0  0  0  0  0  0  0  0  0  0  0  0
   -2.4420    3.6310    3.1010 C   0  0  0  0  0  0  0  0  0  0  0  0
   -1.3110    3.5010    2.3300 C   0  0  0  0  0  0  0  0  0  0  0  0
   -1.3340    2.6710    1.2020 C   0  0  0  0  0  0  0  0  0  0  0  0
   -2.4830    1.9930    0.8740 C   0  0  0  0  0  0  0  0  0  0  0  0
   -2.5740    1.0850   -0.2960 C   0  0  0  0  0  0  0  0  0  0  0  0
   -2.3150   -0.3300    0.1960 C   0  0  2  0  0  0  0  0  0  0  0  0
   -1.0310   -0.5490    0.7750 N   0  0  0  0  0  0  0  0  0  0  0  0
   -2.7430   -1.3640   -0.7740 C   0  0  0  0  0  0  0  0  0  0  0  0
   -3.8660   -1.2130   -1.3100 O   0  0  0  0  0  0  0  0  0  0  0  0
   -3.6030    2.1620    1.6920 C   0  0  0  0  0  0  0  0  0  0  0  0
   -3.6170    2.9670    2.8050 C   0  0  0  0  0  0  0  0  0  0  0  0
   -1.5610    4.7110    4.7040 H   0  0  0  0  0  0  0  0  0  0  0  0
   -0.4160    4.0430    2.6050 H   0  0  0  0  0  0  0  0  0  0  0  0
   -0.4280    2.6050    0.6130 H   0  0  0  0  0  0  0  0  0  0  0  0
   -1.9550    1.4000   -1.1280 H   0  0  0  0  0  0  0  0  0  0  0  0
   -3.6290    1.0730   -0.6640 H   0  0  0  0  0  0  0  0  0  0  0  0
   -3.0770   -0.4080    1.0580 H   0  0  0  0  0  0  0  0  0  0  0  0
   -0.9590   -1.0560    1.7120 H   0  0  0  0  0  0  0  0  0  0  0  0
   -4.4960    1.6160    1.4110 H   0  0  0  0  0  0  0  0  0  0  0  0
   -4.5190    3.0530    3.3960 H   0  0  0  0  0  0  0  0  0  0  0  0
   -1.2660   -2.3130   -3.8490 O   0  0  0  0  0  0  0  0  0  0  0  0
   -1.3810   -3.5260   -3.2080 C   0  0  0  0  0  0  0  0  0  0  0  0
   -2.3990   -3.4970   -2.0740 C   0  0  2  0  0  0  0  0  0  0  0  0
   -1.9510   -2.4930   -1.1140 N   0  0  0  0  0  0  0  0  0  0  0  0
   -2.3920   -4.8530   -1.4690 C   0  0  0  0  0  0  0  0  0  0  0  0
   -2.7370   -5.8680   -2.1050 O   0  0  0  0  0  0  0  0  0  0  0  0
   -1.9890   -5.0050   -0.1520 O   0  0  0  0  0  0  0  0  0  0  0  0
   -0.3280   -2.1290   -4.1590 H   0  0  0  0  0  0  0  0  0  0  0  0
   -0.3920   -3.7620   -2.7190 H   0  0  0  0  0  0  0  0  0  0  0  0
   -1.6170   -4.3720   -3.8990 H   0  0  0  0  0  0  0  0  0  0  0  0
   -3.3970   -3.2530   -2.4720 H   0  0  0  0  0  0  0  0  0  0  0  0
   -1.0250   -2.5720   -0.6410 H   0  0  0  0  0  0  0  0  0  0  0  0
  1 12  1  0  0  0  0
  2 14  1  1  0  0  0
  2  1  1  0  0  0  0
  3  4  1  0  0  0  0
  3  2  1  0  0  0  0
  4  5  1  0  0  0  0
  5 17  1  0  0  0  0
  5  6  2  0  0  0  0
  6 18  1  0  0  0  0
  7  6  1  0  0  0  0
  7 19  1  0  0  0  0
  8  7  2  0  0  0  0
  9  4  2  0  0  0  0
  9  8  1  0  0  0  0
 10 29  1  0  0  0  0
 10  2  1  0  0  0  0
 11 10  2  0  0  0  0
 13  1  1  0  0  0  0
 15  3  1  0  0  0  0
 16  3  1  0  0  0  0
 20  8  1  0  0  0  0
 21  9  1  0  0  0  0
 22 34  1  0  0  0  0
 23 22  1  0  0  0  0
 24 35  1  0  0  0  0
 24 23  2  0  0  0  0
 25 24  1  0  0  0  0
 26 25  2  0  0  0  0
 26 32  1  0  0  0  0
 27 28  1  0  0  0  0
 27 26  1  0  0  0  0
 28 29  1  0  0  0  0
 28 39  1  1  0  0  0
 29 40  1  0  0  0  0
 30 28  1  0  0  0  0
 31 30  2  0  0  0  0
 32 33  2  0  0  0  0
 33 23  1  0  0  0  0
 33 42  1  0  0  0  0
 36 25  1  0  0  0  0
 37 27  1  0  0  0  0
 38 27  1  0  0  0  0
 41 32  1  0  0  0  0
 43 44  1  0  0  0  0
 44 51  1  0  0  0  0
 44 45  1  0  0  0  0
 45 53  1  6  0  0  0
 45 47  1  0  0  0  0
 45 46  1  0  0  0  0
 46 30  1  0  0  0  0
 46 54  1  0  0  0  0
 47 49  1  0  0  0  0
 48 47  2  0  0  0  0
 50 43  1  0  0  0  0
 52 44  1  0  0  0  0
M  END
$$$$
