FYY.pdb
 OpenBabel07022419023D

 64 66  0  0  1  0  0  0  0  0999 V2000
   -0.4170   -0.5080    5.4930 N   0  0  0  0  0  0  0  0  0  0  0  0
    0.2400    0.3030    4.4560 C   0  0  1  0  0  0  0  0  0  0  0  0
    1.6740   -0.0900    4.4520 C   0  0  0  0  0  0  0  0  0  0  0  0
    2.5070    0.6150    3.4770 C   0  0  0  0  0  0  0  0  0  0  0  0
    2.7520    0.1440    2.2160 C   0  0  0  0  0  0  0  0  0  0  0  0
    3.5390    0.8480    1.3300 C   0  0  0  0  0  0  0  0  0  0  0  0
    4.0970    2.0590    1.7180 C   0  0  0  0  0  0  0  0  0  0  0  0
    3.8720    2.5590    2.9720 C   0  0  0  0  0  0  0  0  0  0  0  0
    3.0810    1.8350    3.8380 C   0  0  0  0  0  0  0  0  0  0  0  0
   -0.3980   -0.0070    3.1330 C   0  0  0  0  0  0  0  0  0  0  0  0
    0.0060    0.5890    2.1300 O   0  0  0  0  0  0  0  0  0  0  0  0
   -0.0520   -1.4820    5.3380 H   0  0  0  0  0  0  0  0  0  0  0  0
   -0.1070   -0.1670    6.4160 H   0  0  0  0  0  0  0  0  0  0  0  0
    0.1510    1.3530    4.7330 H   0  0  0  0  0  0  0  0  0  0  0  0
    1.8100   -1.1950    4.2570 H   0  0  0  0  0  0  0  0  0  0  0  0
    2.0840    0.0500    5.4820 H   0  0  0  0  0  0  0  0  0  0  0  0
    2.3470   -0.7980    1.8620 H   0  0  0  0  0  0  0  0  0  0  0  0
    3.7490    0.5040    0.3350 H   0  0  0  0  0  0  0  0  0  0  0  0
    4.7270    2.6270    1.0160 H   0  0  0  0  0  0  0  0  0  0  0  0
    4.2850    3.5040    3.3280 H   0  0  0  0  0  0  0  0  0  0  0  0
    2.8980    2.2160    4.8210 H   0  0  0  0  0  0  0  0  0  0  0  0
   -2.5850    5.0650    1.1350 O   0  0  0  0  0  0  0  0  0  0  0  0
   -2.7740    3.6950    1.3040 C   0  0  0  0  0  0  0  0  0  0  0  0
   -2.9360    3.1150    2.5380 C   0  0  0  0  0  0  0  0  0  0  0  0
   -3.1230    1.7580    2.6890 C   0  0  0  0  0  0  0  0  0  0  0  0
   -3.1560    0.9080    1.5770 C   0  0  0  0  0  0  0  0  0  0  0  0
   -3.3590   -0.5530    1.6790 C   0  0  0  0  0  0  0  0  0  0  0  0
   -2.1350   -1.3600    1.8320 C   0  0  2  0  0  0  0  0  0  0  0  0
   -1.4400   -0.9560    3.0200 N   0  0  0  0  0  0  0  0  0  0  0  0
   -1.2990   -1.5840    0.6570 C   0  0  0  0  0  0  0  0  0  0  0  0
   -0.0560   -1.4680    0.7470 O   0  0  0  0  0  0  0  0  0  0  0  0
   -2.9930    1.4940    0.3490 C   0  0  0  0  0  0  0  0  0  0  0  0
   -2.8060    2.8520    0.1980 C   0  0  0  0  0  0  0  0  0  0  0  0
   -1.9240    5.6100    1.6750 H   0  0  0  0  0  0  0  0  0  0  0  0
   -2.9160    3.7430    3.4110 H   0  0  0  0  0  0  0  0  0  0  0  0
   -3.2510    1.3030    3.6710 H   0  0  0  0  0  0  0  0  0  0  0  0
   -4.0520   -0.9100    0.8830 H   0  0  0  0  0  0  0  0  0  0  0  0
   -3.9580   -0.7000    2.6290 H   0  0  0  0  0  0  0  0  0  0  0  0
   -2.5170   -2.4410    2.0600 H   0  0  0  0  0  0  0  0  0  0  0  0
   -1.7150   -1.4030    3.9580 H   0  0  0  0  0  0  0  0  0  0  0  0
   -3.0110    0.8910   -0.5400 H   0  0  0  0  0  0  0  0  0  0  0  0
   -2.6770    3.3310   -0.7600 H   0  0  0  0  0  0  0  0  0  0  0  0
    2.6250   -4.3880   -6.5550 O   0  0  0  0  0  0  0  0  0  0  0  0
    1.7490   -4.1920   -5.4790 C   0  0  0  0  0  0  0  0  0  0  0  0
    0.4100   -3.9440   -5.6620 C   0  0  0  0  0  0  0  0  0  0  0  0
   -0.4150   -3.7560   -4.5680 C   0  0  0  0  0  0  0  0  0  0  0  0
    0.0410   -3.8060   -3.2740 C   0  0  0  0  0  0  0  0  0  0  0  0
   -0.8790   -3.5950   -2.1510 C   0  0  0  0  0  0  0  0  0  0  0  0
   -0.8870   -2.1460   -1.7270 C   0  0  2  0  0  0  0  0  0  0  0  0
   -1.7940   -1.9370   -0.6210 N   0  0  0  0  0  0  0  0  0  0  0  0
   -1.2660   -1.2380   -2.8280 C   0  0  0  0  0  0  0  0  0  0  0  0
   -2.3030   -0.4920   -2.7670 O   0  0  0  0  0  0  0  0  0  0  0  0
    1.4090   -4.0610   -3.1100 C   0  0  0  0  0  0  0  0  0  0  0  0
    2.2270   -4.2470   -4.2010 C   0  0  0  0  0  0  0  0  0  0  0  0
   -0.5450   -1.1140   -4.0070 O   0  0  0  0  0  0  0  0  0  0  0  0
    3.2080   -5.2100   -6.5260 H   0  0  0  0  0  0  0  0  0  0  0  0
    0.0530   -3.9040   -6.6890 H   0  0  0  0  0  0  0  0  0  0  0  0
   -1.4590   -3.5680   -4.7900 H   0  0  0  0  0  0  0  0  0  0  0  0
   -0.5230   -4.1950   -1.2930 H   0  0  0  0  0  0  0  0  0  0  0  0
   -1.9120   -3.8460   -2.4590 H   0  0  0  0  0  0  0  0  0  0  0  0
    0.1320   -1.8680   -1.3910 H   0  0  0  0  0  0  0  0  0  0  0  0
   -2.7960   -2.0440   -0.7650 H   0  0  0  0  0  0  0  0  0  0  0  0
    1.8120   -4.1100   -2.1120 H   0  0  0  0  0  0  0  0  0  0  0  0
    3.2790   -4.4430   -4.0530 H   0  0  0  0  0  0  0  0  0  0  0  0
  1 13  1  0  0  0  0
  2 14  1  1  0  0  0
  2  1  1  0  0  0  0
  3  2  1  0  0  0  0
  3 16  1  0  0  0  0
  4  9  1  0  0  0  0
  4  3  1  0  0  0  0
  5  4  2  0  0  0  0
  6  7  2  0  0  0  0
  6  5  1  0  0  0  0
  7  8  1  0  0  0  0
  8 20  1  0  0  0  0
  8  9  2  0  0  0  0
  9 21  1  0  0  0  0
 10  2  1  0  0  0  0
 11 10  2  0  0  0  0
 12  1  1  0  0  0  0
 15  3  1  0  0  0  0
 17  5  1  0  0  0  0
 18  6  1  0  0  0  0
 19  7  1  0  0  0  0
 22 23  1  0  0  0  0
 22 34  1  0  0  0  0
 23 24  1  0  0  0  0
 24 25  2  0  0  0  0
 24 35  1  0  0  0  0
 25 36  1  0  0  0  0
 26 27  1  0  0  0  0
 26 25  1  0  0  0  0
 27 28  1  0  0  0  0
 27 38  1  0  0  0  0
 28 39  1  1  0  0  0
 28 29  1  0  0  0  0
 29 10  1  0  0  0  0
 29 40  1  0  0  0  0
 30 31  2  0  0  0  0
 30 28  1  0  0  0  0
 32 26  2  0  0  0  0
 33 32  1  0  0  0  0
 33 23  2  0  0  0  0
 37 27  1  0  0  0  0
 41 32  1  0  0  0  0
 42 33  1  0  0  0  0
 43 56  1  0  0  0  0
 43 44  1  0  0  0  0
 44 54  1  0  0  0  0
 45 44  2  0  0  0  0
 45 46  1  0  0  0  0
 46 47  2  0  0  0  0
 47 53  1  0  0  0  0
 47 48  1  0  0  0  0
 48 49  1  0  0  0  0
 48 59  1  0  0  0  0
 49 61  1  1  0  0  0
 49 50  1  0  0  0  0
 50 30  1  0  0  0  0
 51 52  1  0  0  0  0
 51 49  1  0  0  0  0
 53 63  1  0  0  0  0
 54 64  1  0  0  0  0
 54 53  2  0  0  0  0
 55 51  2  0  0  0  0
 57 45  1  0  0  0  0
 58 46  1  0  0  0  0
 60 48  1  0  0  0  0
 62 50  1  0  0  0  0
M  END
$$$$
