GAI.pdb
 OpenBabel07022418213D

 38 37  0  0  1  0  0  0  0  0999 V2000
   -2.6050   -4.3820    3.3600 N   0  0  0  0  0  0  0  0  0  0  0  0
   -3.2280   -3.1000    3.5130 C   0  0  0  0  0  0  0  0  0  0  0  0
   -2.3050   -1.9710    3.2900 C   0  0  0  0  0  0  0  0  0  0  0  0
   -2.7720   -0.8080    3.4050 O   0  0  0  0  0  0  0  0  0  0  0  0
   -2.2750   -4.6020    2.4170 H   0  0  0  0  0  0  0  0  0  0  0  0
   -3.0580   -5.1400    3.8820 H   0  0  0  0  0  0  0  0  0  0  0  0
   -3.7550   -3.0470    4.4710 H   0  0  0  0  0  0  0  0  0  0  0  0
   -4.0200   -3.0260    2.7170 H   0  0  0  0  0  0  0  0  0  0  0  0
    1.0000   -0.8670    3.7720 C   0  0  0  0  0  0  0  0  0  0  0  0
   -0.1330   -0.9430    2.7620 C   0  0  2  0  0  0  0  0  0  0  0  0
   -0.9450   -2.1110    2.9590 N   0  0  0  0  0  0  0  0  0  0  0  0
    0.4150   -0.9990    1.3810 C   0  0  0  0  0  0  0  0  0  0  0  0
    0.1550   -1.9470    0.5970 O   0  0  0  0  0  0  0  0  0  0  0  0
    0.6940   -0.2440    4.6390 H   0  0  0  0  0  0  0  0  0  0  0  0
    1.9150   -0.4150    3.3330 H   0  0  0  0  0  0  0  0  0  0  0  0
    1.2880   -1.8880    4.1190 H   0  0  0  0  0  0  0  0  0  0  0  0
   -0.7370   -0.0140    2.9100 H   0  0  0  0  0  0  0  0  0  0  0  0
   -0.5310   -3.0480    2.8570 H   0  0  0  0  0  0  0  0  0  0  0  0
   -0.5300    2.3850   -2.2570 C   0  0  0  0  0  0  0  0  0  0  0  0
   -0.1510    1.1850   -1.4410 C   0  0  0  0  0  0  0  0  0  0  0  0
    1.3640    1.1290   -1.2980 C   0  0  2  0  0  0  0  0  0  0  0  0
    1.9320    1.0300   -2.6880 C   0  0  0  0  0  0  0  0  0  0  0  0
    1.7840   -0.0270   -0.4270 C   0  0  2  0  0  0  0  0  0  0  0  0
    1.2600    0.0270    0.8960 N   0  0  0  0  0  0  0  0  0  0  0  0
    3.2560   -0.0790   -0.3660 C   0  0  0  0  0  0  0  0  0  0  0  0
    3.9490   -0.1320   -1.4040 O   0  0  0  0  0  0  0  0  0  0  0  0
    3.8930   -0.0700    0.8560 O   0  0  0  0  0  0  0  0  0  0  0  0
    0.3350    2.9740   -2.6170 H   0  0  0  0  0  0  0  0  0  0  0  0
   -1.1720    2.1220   -3.1370 H   0  0  0  0  0  0  0  0  0  0  0  0
   -1.1440    3.1070   -1.6450 H   0  0  0  0  0  0  0  0  0  0  0  0
   -0.6600    1.1350   -0.4620 H   0  0  0  0  0  0  0  0  0  0  0  0
   -0.4730    0.2860   -2.0070 H   0  0  0  0  0  0  0  0  0  0  0  0
    1.7600    2.0640   -0.8510 H   0  0  0  0  0  0  0  0  0  0  0  0
    2.1930   -0.0360   -2.9550 H   0  0  0  0  0  0  0  0  0  0  0  0
    1.1830    1.3280   -3.4740 H   0  0  0  0  0  0  0  0  0  0  0  0
    2.8410    1.6100   -2.8480 H   0  0  0  0  0  0  0  0  0  0  0  0
    1.4320   -0.9550   -0.9660 H   0  0  0  0  0  0  0  0  0  0  0  0
    1.5270    0.8600    1.4930 H   0  0  0  0  0  0  0  0  0  0  0  0
  1  2  1  0  0  0  0
  1  6  1  0  0  0  0
  2  7  1  0  0  0  0
  3  4  2  0  0  0  0
  3  2  1  0  0  0  0
  5  1  1  0  0  0  0
  8  2  1  0  0  0  0
  9 16  1  0  0  0  0
  9 14  1  0  0  0  0
 10 17  1  1  0  0  0
 10 11  1  0  0  0  0
 10  9  1  0  0  0  0
 11  3  1  0  0  0  0
 12 10  1  0  0  0  0
 13 12  2  0  0  0  0
 15  9  1  0  0  0  0
 18 11  1  0  0  0  0
 19 30  1  0  0  0  0
 19 20  1  0  0  0  0
 20 21  1  0  0  0  0
 20 31  1  0  0  0  0
 21 33  1  1  0  0  0
 21 23  1  0  0  0  0
 22 21  1  0  0  0  0
 23 37  1  6  0  0  0
 23 25  1  0  0  0  0
 23 24  1  0  0  0  0
 24 12  1  0  0  0  0
 24 38  1  0  0  0  0
 25 27  1  0  0  0  0
 26 25  2  0  0  0  0
 28 19  1  0  0  0  0
 29 19  1  0  0  0  0
 32 20  1  0  0  0  0
 34 22  1  0  0  0  0
 35 22  1  0  0  0  0
 36 22  1  0  0  0  0
M  END
$$$$
