GAK.pdb
 OpenBabel07022418213D

 40 39  0  0  1  0  0  0  0  0999 V2000
    0.1450   -6.6770    0.4620 N   0  0  0  0  0  0  0  0  0  0  0  0
   -0.9630   -6.2530   -0.3550 C   0  0  0  0  0  0  0  0  0  0  0  0
   -1.3740   -4.8560   -0.0340 C   0  0  0  0  0  0  0  0  0  0  0  0
   -2.3270   -4.3110   -0.6460 O   0  0  0  0  0  0  0  0  0  0  0  0
   -0.1340   -6.6930    1.4790 H   0  0  0  0  0  0  0  0  0  0  0  0
    0.9550   -6.0290    0.3040 H   0  0  0  0  0  0  0  0  0  0  0  0
   -0.6320   -6.3530   -1.4190 H   0  0  0  0  0  0  0  0  0  0  0  0
   -1.8220   -6.9020   -0.1510 H   0  0  0  0  0  0  0  0  0  0  0  0
   -1.5780   -2.6970    2.7040 C   0  0  0  0  0  0  0  0  0  0  0  0
   -1.1400   -2.7240    1.2550 C   0  0  2  0  0  0  0  0  0  0  0  0
   -0.7190   -4.0780    0.9660 N   0  0  0  0  0  0  0  0  0  0  0  0
   -0.0330   -1.8060    0.9850 C   0  0  0  0  0  0  0  0  0  0  0  0
    1.0690   -2.2950    0.5620 O   0  0  0  0  0  0  0  0  0  0  0  0
   -0.7130   -2.3290    3.2970 H   0  0  0  0  0  0  0  0  0  0  0  0
   -1.8590   -3.6980    3.0310 H   0  0  0  0  0  0  0  0  0  0  0  0
   -2.4280   -2.0070    2.7870 H   0  0  0  0  0  0  0  0  0  0  0  0
   -1.9910   -2.4310    0.6120 H   0  0  0  0  0  0  0  0  0  0  0  0
    0.0700   -4.5390    1.4670 H   0  0  0  0  0  0  0  0  0  0  0  0
   -0.0950   -0.4040    1.1600 N   0  0  0  0  0  0  0  0  0  0  0  0
    1.1080    0.4440    0.8500 C   0  0  1  0  0  0  0  0  0  0  0  0
    0.6260    1.3200   -0.2500 C   0  0  0  0  0  0  0  0  0  0  0  0
    1.4770    2.2890   -0.9140 C   0  0  0  0  0  0  0  0  0  0  0  0
    2.1320    3.4010   -0.2190 C   0  0  0  0  0  0  0  0  0  0  0  0
    1.2190    4.3460    0.5270 C   0  0  0  0  0  0  0  0  0  0  0  0
    2.0520    5.3680    1.1420 N   0  0  0  0  0  0  0  0  0  0  0  0
    1.4080    1.1310    2.1060 C   0  0  0  0  0  0  0  0  0  0  0  0
    2.4110    1.8560    2.3430 O   0  0  0  0  0  0  0  0  0  0  0  0
    0.4950    0.9840    3.1830 O   0  0  0  0  0  0  0  0  0  0  0  0
   -0.9750    0.0250    1.5020 H   0  0  0  0  0  0  0  0  0  0  0  0
    1.8960   -0.2390    0.5110 H   0  0  0  0  0  0  0  0  0  0  0  0
    0.2770    0.5870   -1.0650 H   0  0  0  0  0  0  0  0  0  0  0  0
   -0.3750    1.7410    0.0800 H   0  0  0  0  0  0  0  0  0  0  0  0
    2.2880    1.7310   -1.4710 H   0  0  0  0  0  0  0  0  0  0  0  0
    0.8450    2.7640   -1.7460 H   0  0  0  0  0  0  0  0  0  0  0  0
    2.5060    4.0880   -1.0940 H   0  0  0  0  0  0  0  0  0  0  0  0
    3.0550    3.2410    0.3180 H   0  0  0  0  0  0  0  0  0  0  0  0
    0.5850    3.8340    1.2700 H   0  0  0  0  0  0  0  0  0  0  0  0
    0.5350    4.8760   -0.1670 H   0  0  0  0  0  0  0  0  0  0  0  0
    1.8490    5.4860    2.1440 H   0  0  0  0  0  0  0  0  0  0  0  0
    3.0590    5.2020    0.9980 H   0  0  0  0  0  0  0  0  0  0  0  0
  1  5  1  0  0  0  0
  2  8  1  0  0  0  0
  2  3  1  0  0  0  0
  2  1  1  0  0  0  0
  3 11  1  0  0  0  0
  4  3  2  0  0  0  0
  6  1  1  0  0  0  0
  7  2  1  0  0  0  0
  9 16  1  0  0  0  0
  9 15  1  0  0  0  0
  9 14  1  0  0  0  0
 10 17  1  6  0  0  0
 10  9  1  0  0  0  0
 11 10  1  0  0  0  0
 11 18  1  0  0  0  0
 12 19  1  0  0  0  0
 12 10  1  0  0  0  0
 13 12  2  0  0  0  0
 19 29  1  0  0  0  0
 20 30  1  6  0  0  0
 20 19  1  0  0  0  0
 20 26  1  0  0  0  0
 21 32  1  0  0  0  0
 21 20  1  0  0  0  0
 22 21  1  0  0  0  0
 22 23  1  0  0  0  0
 23 36  1  0  0  0  0
 23 24  1  0  0  0  0
 24 25  1  0  0  0  0
 24 37  1  0  0  0  0
 25 39  1  0  0  0  0
 26 27  2  0  0  0  0
 26 28  1  0  0  0  0
 31 21  1  0  0  0  0
 33 22  1  0  0  0  0
 34 22  1  0  0  0  0
 35 23  1  0  0  0  0
 38 24  1  0  0  0  0
 40 25  1  0  0  0  0
M  END
$$$$
