GAL.pdb
 OpenBabel07022418213D

 38 37  0  0  1  0  0  0  0  0999 V2000
   -3.9770   -3.2290    1.7820 N   0  0  0  0  0  0  0  0  0  0  0  0
   -2.8640   -2.9080    0.9340 C   0  0  0  0  0  0  0  0  0  0  0  0
   -1.5830   -3.0390    1.6500 C   0  0  0  0  0  0  0  0  0  0  0  0
   -1.5380   -3.3900    2.8460 O   0  0  0  0  0  0  0  0  0  0  0  0
   -3.6760   -3.9570    2.4670 H   0  0  0  0  0  0  0  0  0  0  0  0
   -4.3350   -2.3880    2.3130 H   0  0  0  0  0  0  0  0  0  0  0  0
   -2.9910   -1.8710    0.5660 H   0  0  0  0  0  0  0  0  0  0  0  0
   -2.8920   -3.5610    0.0180 H   0  0  0  0  0  0  0  0  0  0  0  0
    1.7910   -3.9250    1.0100 C   0  0  0  0  0  0  0  0  0  0  0  0
    0.9050   -2.8820    1.6490 C   0  0  2  0  0  0  0  0  0  0  0  0
   -0.3580   -2.7650    0.9860 N   0  0  0  0  0  0  0  0  0  0  0  0
    1.6120   -1.5600    1.7400 C   0  0  0  0  0  0  0  0  0  0  0  0
    2.7360   -1.4740    2.2930 O   0  0  0  0  0  0  0  0  0  0  0  0
    1.7930   -3.7850   -0.1000 H   0  0  0  0  0  0  0  0  0  0  0  0
    2.8130   -3.7890    1.4250 H   0  0  0  0  0  0  0  0  0  0  0  0
    1.3570   -4.9190    1.2640 H   0  0  0  0  0  0  0  0  0  0  0  0
    0.7180   -3.2020    2.6940 H   0  0  0  0  0  0  0  0  0  0  0  0
   -0.3890   -2.4660   -0.0330 H   0  0  0  0  0  0  0  0  0  0  0  0
    0.2420    0.8830   -1.4790 C   0  0  0  0  0  0  0  0  0  0  0  0
    1.0900    1.9620   -0.8960 C   0  0  0  0  0  0  0  0  0  0  0  0
    0.2440    3.1460   -0.4140 C   0  0  0  0  0  0  0  0  0  0  0  0
    2.1280    1.5580    0.0660 C   0  0  0  0  0  0  0  0  0  0  0  0
    1.7420    0.8720    1.3150 C   0  0  2  0  0  0  0  0  0  0  0  0
    1.0560   -0.3640    1.2170 N   0  0  0  0  0  0  0  0  0  0  0  0
    0.9560    1.8120    2.1530 C   0  0  0  0  0  0  0  0  0  0  0  0
   -0.1330    1.4150    2.6310 O   0  0  0  0  0  0  0  0  0  0  0  0
    1.3790    3.1160    2.4290 O   0  0  0  0  0  0  0  0  0  0  0  0
    0.0100    1.0850   -2.5720 H   0  0  0  0  0  0  0  0  0  0  0  0
    0.7390   -0.1050   -1.5010 H   0  0  0  0  0  0  0  0  0  0  0  0
   -0.7630    0.8760   -1.0060 H   0  0  0  0  0  0  0  0  0  0  0  0
    1.6490    2.4060   -1.7800 H   0  0  0  0  0  0  0  0  0  0  0  0
   -0.3500    3.5160   -1.3030 H   0  0  0  0  0  0  0  0  0  0  0  0
   -0.5140    2.8470    0.3240 H   0  0  0  0  0  0  0  0  0  0  0  0
    0.8840    3.9810   -0.1290 H   0  0  0  0  0  0  0  0  0  0  0  0
    2.7410    2.4760    0.2920 H   0  0  0  0  0  0  0  0  0  0  0  0
    2.8620    0.9060   -0.4990 H   0  0  0  0  0  0  0  0  0  0  0  0
    2.7080    0.7260    1.9150 H   0  0  0  0  0  0  0  0  0  0  0  0
    0.1290   -0.4270    0.7680 H   0  0  0  0  0  0  0  0  0  0  0  0
  1  6  1  0  0  0  0
  1  5  1  0  0  0  0
  2  3  1  0  0  0  0
  2  1  1  0  0  0  0
  3  4  2  0  0  0  0
  7  2  1  0  0  0  0
  8  2  1  0  0  0  0
  9 16  1  0  0  0  0
  9 15  1  0  0  0  0
  9 10  1  0  0  0  0
 10 12  1  0  0  0  0
 10 17  1  1  0  0  0
 11 10  1  0  0  0  0
 11  3  1  0  0  0  0
 12 13  2  0  0  0  0
 14  9  1  0  0  0  0
 18 11  1  0  0  0  0
 19 30  1  0  0  0  0
 19 20  1  0  0  0  0
 20 21  1  0  0  0  0
 20 22  1  0  0  0  0
 21 34  1  0  0  0  0
 21 33  1  0  0  0  0
 22 35  1  0  0  0  0
 22 23  1  0  0  0  0
 23 37  1  1  0  0  0
 23 25  1  0  0  0  0
 24 23  1  0  0  0  0
 24 12  1  0  0  0  0
 25 27  2  0  0  0  0
 25 26  1  0  0  0  0
 28 19  1  0  0  0  0
 29 19  1  0  0  0  0
 31 20  1  0  0  0  0
 32 21  1  0  0  0  0
 36 22  1  0  0  0  0
 38 24  1  0  0  0  0
M  END
$$$$
