GAM.pdb
 OpenBabel07022418213D

 36 35  0  0  1  0  0  0  0  0999 V2000
    0.6460   -0.9070    5.8330 N   0  0  0  0  0  0  0  0  0  0  0  0
    1.7860   -1.2080    5.0260 C   0  0  0  0  0  0  0  0  0  0  0  0
    1.3260   -1.5450    3.6390 C   0  0  0  0  0  0  0  0  0  0  0  0
    0.1130   -1.5230    3.3810 O   0  0  0  0  0  0  0  0  0  0  0  0
   -0.2090   -1.4270    5.5390 H   0  0  0  0  0  0  0  0  0  0  0  0
    0.4610    0.1300    5.8840 H   0  0  0  0  0  0  0  0  0  0  0  0
    2.4930   -0.3330    4.9940 H   0  0  0  0  0  0  0  0  0  0  0  0
    2.3170   -2.0690    5.4680 H   0  0  0  0  0  0  0  0  0  0  0  0
    1.2640   -3.5190    1.0330 C   0  0  0  0  0  0  0  0  0  0  0  0
    1.9320   -2.2180    1.2670 C   0  0  2  0  0  0  0  0  0  0  0  0
    2.2390   -1.8880    2.6170 N   0  0  0  0  0  0  0  0  0  0  0  0
    1.0450   -1.1260    0.7120 C   0  0  0  0  0  0  0  0  0  0  0  0
    0.7360   -0.1000    1.3610 O   0  0  0  0  0  0  0  0  0  0  0  0
    1.5770   -3.9080    0.0370 H   0  0  0  0  0  0  0  0  0  0  0  0
    1.5740   -4.2900    1.7730 H   0  0  0  0  0  0  0  0  0  0  0  0
    0.1570   -3.4260    0.9720 H   0  0  0  0  0  0  0  0  0  0  0  0
    2.8550   -2.1440    0.6080 H   0  0  0  0  0  0  0  0  0  0  0  0
    3.2600   -1.8990    2.8880 H   0  0  0  0  0  0  0  0  0  0  0  0
   -1.6230    2.9600   -0.6850 C   0  0  0  0  0  0  0  0  0  0  0  0
   -0.6310    2.9870   -2.1510 S   0  0  0  0  0  0  0  0  0  0  0  0
   -0.4620    1.4770   -3.0650 C   0  0  0  0  0  0  0  0  0  0  0  0
    0.2670    0.3680   -2.3970 C   0  0  0  0  0  0  0  0  0  0  0  0
   -0.3440   -0.1650   -1.1420 C   0  0  2  0  0  0  0  0  0  0  0  0
    0.5200   -1.2270   -0.5970 N   0  0  0  0  0  0  0  0  0  0  0  0
   -1.7000   -0.7690   -1.4150 C   0  0  0  0  0  0  0  0  0  0  0  0
   -2.6260   -0.0970   -1.8970 O   0  0  0  0  0  0  0  0  0  0  0  0
   -1.9380   -2.1040   -1.1270 O   0  0  0  0  0  0  0  0  0  0  0  0
   -0.9360    2.8750    0.2060 H   0  0  0  0  0  0  0  0  0  0  0  0
   -2.0860    3.9910   -0.5360 H   0  0  0  0  0  0  0  0  0  0  0  0
   -2.4660    2.2780   -0.6460 H   0  0  0  0  0  0  0  0  0  0  0  0
    0.1410    1.7220   -3.9960 H   0  0  0  0  0  0  0  0  0  0  0  0
   -1.4170    1.0800   -3.4760 H   0  0  0  0  0  0  0  0  0  0  0  0
    0.3150   -0.5000   -3.1210 H   0  0  0  0  0  0  0  0  0  0  0  0
    1.3450    0.6220   -2.2360 H   0  0  0  0  0  0  0  0  0  0  0  0
   -0.4820    0.6350   -0.4250 H   0  0  0  0  0  0  0  0  0  0  0  0
    0.7450   -2.0520   -1.1730 H   0  0  0  0  0  0  0  0  0  0  0  0
  1  6  1  0  0  0  0
  2  8  1  0  0  0  0
  2  1  1  0  0  0  0
  3  2  1  0  0  0  0
  4  3  2  0  0  0  0
  5  1  1  0  0  0  0
  7  2  1  0  0  0  0
  9 10  1  0  0  0  0
  9 15  1  0  0  0  0
 10 17  1  6  0  0  0
 10 11  1  0  0  0  0
 11 18  1  0  0  0  0
 11  3  1  0  0  0  0
 12 10  1  0  0  0  0
 12 13  2  0  0  0  0
 14  9  1  0  0  0  0
 16  9  1  0  0  0  0
 19 30  1  0  0  0  0
 19 29  1  0  0  0  0
 19 28  1  0  0  0  0
 20 19  1  0  0  0  0
 21 22  1  0  0  0  0
 21 20  1  0  0  0  0
 22 34  1  0  0  0  0
 22 23  1  0  0  0  0
 23 24  1  0  0  0  0
 23 35  1  1  0  0  0
 24 12  1  0  0  0  0
 25 23  1  0  0  0  0
 25 27  1  0  0  0  0
 26 25  2  0  0  0  0
 31 21  1  0  0  0  0
 32 21  1  0  0  0  0
 33 22  1  0  0  0  0
 36 24  1  0  0  0  0
M  END
$$$$
