GAN.pdb
 OpenBabel07022418213D

 33 32  0  0  1  0  0  0  0  0999 V2000
   -0.9050   -2.3760    5.9960 N   0  0  0  0  0  0  0  0  0  0  0  0
   -1.0640   -1.1800    5.1780 C   0  0  0  0  0  0  0  0  0  0  0  0
   -1.2070   -1.5050    3.7510 C   0  0  0  0  0  0  0  0  0  0  0  0
   -1.1800   -2.7010    3.3880 O   0  0  0  0  0  0  0  0  0  0  0  0
   -0.7820   -3.2290    5.4050 H   0  0  0  0  0  0  0  0  0  0  0  0
   -1.7260   -2.5430    6.6090 H   0  0  0  0  0  0  0  0  0  0  0  0
   -1.9160   -0.6130    5.5960 H   0  0  0  0  0  0  0  0  0  0  0  0
   -0.1540   -0.5610    5.3690 H   0  0  0  0  0  0  0  0  0  0  0  0
   -2.8340   -0.4390    0.8110 C   0  0  0  0  0  0  0  0  0  0  0  0
   -1.5090   -0.8730    1.3910 C   0  0  2  0  0  0  0  0  0  0  0  0
   -1.3740   -0.4940    2.7810 N   0  0  0  0  0  0  0  0  0  0  0  0
   -0.3620   -0.2770    0.6520 C   0  0  0  0  0  0  0  0  0  0  0  0
    0.5150    0.4180    1.2230 O   0  0  0  0  0  0  0  0  0  0  0  0
   -2.7330   -0.4340   -0.2830 H   0  0  0  0  0  0  0  0  0  0  0  0
   -3.5780   -1.1890    1.0890 H   0  0  0  0  0  0  0  0  0  0  0  0
   -3.1240    0.5810    1.1270 H   0  0  0  0  0  0  0  0  0  0  0  0
   -1.4580   -1.9770    1.2710 H   0  0  0  0  0  0  0  0  0  0  0  0
   -1.4050    0.5220    3.0180 H   0  0  0  0  0  0  0  0  0  0  0  0
    4.0730   -0.0450   -2.1700 N   0  0  0  0  0  0  0  0  0  0  0  0
    2.8590   -0.3670   -2.8790 C   0  0  0  0  0  0  0  0  0  0  0  0
    2.8610   -0.1010   -4.0990 O   0  0  0  0  0  0  0  0  0  0  0  0
    1.7540   -0.9670   -2.1150 C   0  0  0  0  0  0  0  0  0  0  0  0
    0.8940    0.0900   -1.5150 C   0  0  2  0  0  0  0  0  0  0  0  0
   -0.2090   -0.4710   -0.7490 N   0  0  0  0  0  0  0  0  0  0  0  0
    0.4280    1.0450   -2.5300 C   0  0  0  0  0  0  0  0  0  0  0  0
   -0.8410    1.2080   -2.6140 O   0  0  0  0  0  0  0  0  0  0  0  0
    1.2310    1.7710   -3.3860 O   0  0  0  0  0  0  0  0  0  0  0  0
    4.1230    0.8100   -1.5760 H   0  0  0  0  0  0  0  0  0  0  0  0
    4.9250   -0.6400   -2.2230 H   0  0  0  0  0  0  0  0  0  0  0  0
    2.1530   -1.5930   -1.2900 H   0  0  0  0  0  0  0  0  0  0  0  0
    1.1390   -1.5740   -2.8270 H   0  0  0  0  0  0  0  0  0  0  0  0
    1.5430    0.6700   -0.7950 H   0  0  0  0  0  0  0  0  0  0  0  0
   -0.9300   -1.0460   -1.2370 H   0  0  0  0  0  0  0  0  0  0  0  0
  1  6  1  0  0  0  0
  2  8  1  0  0  0  0
  2  7  1  0  0  0  0
  2  1  1  0  0  0  0
  3  2  1  0  0  0  0
  4  3  2  0  0  0  0
  5  1  1  0  0  0  0
  9 15  1  0  0  0  0
  9 16  1  0  0  0  0
  9 10  1  0  0  0  0
 10 17  1  6  0  0  0
 10 11  1  0  0  0  0
 11 18  1  0  0  0  0
 11  3  1  0  0  0  0
 12 13  2  0  0  0  0
 12 10  1  0  0  0  0
 14  9  1  0  0  0  0
 19 28  1  0  0  0  0
 20 19  1  0  0  0  0
 20 22  1  0  0  0  0
 21 20  2  0  0  0  0
 22 23  1  0  0  0  0
 22 30  1  0  0  0  0
 23 32  1  1  0  0  0
 23 24  1  0  0  0  0
 24 12  1  0  0  0  0
 25 23  1  0  0  0  0
 26 25  1  0  0  0  0
 27 25  2  0  0  0  0
 29 19  1  0  0  0  0
 31 22  1  0  0  0  0
 33 24  1  0  0  0  0
M  END
$$$$
