GAT.pdb
 OpenBabel07022418213D

 33 32  0  0  1  0  0  0  0  0999 V2000
   -3.2620   -2.9470    0.3970 N   0  0  0  0  0  0  0  0  0  0  0  0
   -3.3510   -2.7780    1.8290 C   0  0  0  0  0  0  0  0  0  0  0  0
   -2.0200   -2.3740    2.4040 C   0  0  0  0  0  0  0  0  0  0  0  0
   -1.9310   -2.1870    3.6440 O   0  0  0  0  0  0  0  0  0  0  0  0
   -2.5400   -3.6460    0.1740 H   0  0  0  0  0  0  0  0  0  0  0  0
   -3.0260   -2.0680   -0.0930 H   0  0  0  0  0  0  0  0  0  0  0  0
   -4.1340   -2.0490    2.0710 H   0  0  0  0  0  0  0  0  0  0  0  0
   -3.6240   -3.7820    2.2580 H   0  0  0  0  0  0  0  0  0  0  0  0
    1.4160   -2.9230    1.9980 C   0  0  0  0  0  0  0  0  0  0  0  0
    0.3870   -1.8060    2.2030 C   0  0  2  0  0  0  0  0  0  0  0  0
   -0.8680   -2.1980    1.5900 N   0  0  0  0  0  0  0  0  0  0  0  0
    0.9580   -0.5970    1.5610 C   0  0  0  0  0  0  0  0  0  0  0  0
    2.0470   -0.1700    2.0140 O   0  0  0  0  0  0  0  0  0  0  0  0
    1.3920   -3.6380    2.8560 H   0  0  0  0  0  0  0  0  0  0  0  0
    1.1600   -3.5110    1.0910 H   0  0  0  0  0  0  0  0  0  0  0  0
    2.4380   -2.4970    1.8590 H   0  0  0  0  0  0  0  0  0  0  0  0
    0.2550   -1.6950    3.2860 H   0  0  0  0  0  0  0  0  0  0  0  0
   -0.9440   -2.3540    0.5530 H   0  0  0  0  0  0  0  0  0  0  0  0
    2.0210    2.3200   -2.0460 C   0  0  0  0  0  0  0  0  0  0  0  0
    1.3770    1.0590   -1.5090 C   0  0  1  0  0  0  0  0  0  0  0  0
    2.2400   -0.0350   -1.6420 O   0  0  0  0  0  0  0  0  0  0  0  0
    1.0090    1.2500   -0.0490 C   0  0  2  0  0  0  0  0  0  0  0  0
    0.3510    0.0830    0.4880 N   0  0  0  0  0  0  0  0  0  0  0  0
    0.1530    2.4390    0.1430 C   0  0  0  0  0  0  0  0  0  0  0  0
    0.5710    3.5480   -0.2600 O   0  0  0  0  0  0  0  0  0  0  0  0
   -1.0930    2.3920    0.7480 O   0  0  0  0  0  0  0  0  0  0  0  0
    2.7880    2.0860   -2.8170 H   0  0  0  0  0  0  0  0  0  0  0  0
    2.5660    2.8210   -1.2200 H   0  0  0  0  0  0  0  0  0  0  0  0
    1.2710    3.0520   -2.4270 H   0  0  0  0  0  0  0  0  0  0  0  0
    0.4650    0.8730   -2.1130 H   0  0  0  0  0  0  0  0  0  0  0  0
    1.9890   -0.5690   -2.4300 H   0  0  0  0  0  0  0  0  0  0  0  0
    1.9520    1.4460    0.5000 H   0  0  0  0  0  0  0  0  0  0  0  0
   -0.5440   -0.2640    0.1120 H   0  0  0  0  0  0  0  0  0  0  0  0
  1  2  1  0  0  0  0
  2  7  1  0  0  0  0
  2  8  1  0  0  0  0
  2  3  1  0  0  0  0
  3  4  2  0  0  0  0
  5  1  1  0  0  0  0
  6  1  1  0  0  0  0
  9 10  1  0  0  0  0
  9 14  1  0  0  0  0
 10 17  1  1  0  0  0
 11 10  1  0  0  0  0
 11  3  1  0  0  0  0
 12 13  2  0  0  0  0
 12 10  1  0  0  0  0
 15  9  1  0  0  0  0
 16  9  1  0  0  0  0
 18 11  1  0  0  0  0
 19 20  1  0  0  0  0
 19 28  1  0  0  0  0
 20 30  1  6  0  0  0
 20 22  1  0  0  0  0
 21 20  1  0  0  0  0
 22 24  1  0  0  0  0
 22 23  1  0  0  0  0
 22 32  1  1  0  0  0
 23 12  1  0  0  0  0
 24 26  1  0  0  0  0
 25 24  2  0  0  0  0
 27 19  1  0  0  0  0
 29 19  1  0  0  0  0
 31 21  1  0  0  0  0
 33 23  1  0  0  0  0
M  END
$$$$
