GAV.pdb
 OpenBabel07022418213D

 35 34  0  0  1  0  0  0  0  0999 V2000
   -0.7260   -4.0140   -0.2270 N   0  0  0  0  0  0  0  0  0  0  0  0
   -0.7930   -4.3100    1.1740 C   0  0  0  0  0  0  0  0  0  0  0  0
    0.1160   -3.4180    1.9710 C   0  0  0  0  0  0  0  0  0  0  0  0
    0.2030   -3.5150    3.2010 O   0  0  0  0  0  0  0  0  0  0  0  0
   -1.3880   -3.2580   -0.5330 H   0  0  0  0  0  0  0  0  0  0  0  0
   -0.8410   -4.8670   -0.8330 H   0  0  0  0  0  0  0  0  0  0  0  0
   -1.8410   -4.2030    1.5290 H   0  0  0  0  0  0  0  0  0  0  0  0
   -0.4800   -5.3700    1.3190 H   0  0  0  0  0  0  0  0  0  0  0  0
    3.2230   -1.7950    1.4940 C   0  0  0  0  0  0  0  0  0  0  0  0
    1.7910   -1.5360    1.9220 C   0  0  2  0  0  0  0  0  0  0  0  0
    0.8750   -2.4600    1.2810 N   0  0  0  0  0  0  0  0  0  0  0  0
    1.4130   -0.1250    1.6770 C   0  0  0  0  0  0  0  0  0  0  0  0
    2.1360    0.7620    2.1850 O   0  0  0  0  0  0  0  0  0  0  0  0
    3.6680   -2.5800    2.1360 H   0  0  0  0  0  0  0  0  0  0  0  0
    3.2840   -2.0280    0.4100 H   0  0  0  0  0  0  0  0  0  0  0  0
    3.7960   -0.8510    1.6460 H   0  0  0  0  0  0  0  0  0  0  0  0
    1.7490   -1.7550    3.0150 H   0  0  0  0  0  0  0  0  0  0  0  0
    0.7960   -2.3830    0.2370 H   0  0  0  0  0  0  0  0  0  0  0  0
    1.1220    1.7910   -1.5320 C   0  0  0  0  0  0  0  0  0  0  0  0
   -0.1520    1.9920   -0.7900 C   0  0  0  0  0  0  0  0  0  0  0  0
   -1.2880    1.2660   -1.4670 C   0  0  0  0  0  0  0  0  0  0  0  0
   -0.0730    1.6530    0.6720 C   0  0  2  0  0  0  0  0  0  0  0  0
    0.2910    0.2720    0.9070 N   0  0  0  0  0  0  0  0  0  0  0  0
   -1.3900    1.8900    1.2880 C   0  0  0  0  0  0  0  0  0  0  0  0
   -1.9750    0.9620    1.8810 O   0  0  0  0  0  0  0  0  0  0  0  0
   -1.9940    3.1280    1.2220 O   0  0  0  0  0  0  0  0  0  0  0  0
    0.9060    1.8400   -2.6200 H   0  0  0  0  0  0  0  0  0  0  0  0
    1.8750    2.6120   -1.3450 H   0  0  0  0  0  0  0  0  0  0  0  0
    1.5930    0.8020   -1.3530 H   0  0  0  0  0  0  0  0  0  0  0  0
   -0.4010    3.0860   -0.8420 H   0  0  0  0  0  0  0  0  0  0  0  0
   -1.8270    0.5980   -0.7360 H   0  0  0  0  0  0  0  0  0  0  0  0
   -0.8620    0.6300   -2.2880 H   0  0  0  0  0  0  0  0  0  0  0  0
   -1.9970    1.9590   -1.9650 H   0  0  0  0  0  0  0  0  0  0  0  0
    0.6750    2.2980    1.1950 H   0  0  0  0  0  0  0  0  0  0  0  0
   -0.2940   -0.5000    0.4960 H   0  0  0  0  0  0  0  0  0  0  0  0
  1  2  1  0  0  0  0
  2  8  1  0  0  0  0
  2  7  1  0  0  0  0
  2  3  1  0  0  0  0
  3  4  2  0  0  0  0
  5  1  1  0  0  0  0
  6  1  1  0  0  0  0
  9 16  1  0  0  0  0
  9 10  1  0  0  0  0
  9 14  1  0  0  0  0
 10 17  1  1  0  0  0
 11 10  1  0  0  0  0
 11  3  1  0  0  0  0
 12 10  1  0  0  0  0
 12 13  2  0  0  0  0
 15  9  1  0  0  0  0
 18 11  1  0  0  0  0
 19 29  1  0  0  0  0
 19 28  1  0  0  0  0
 19 20  1  0  0  0  0
 20 22  1  0  0  0  0
 21 20  1  0  0  0  0
 21 31  1  0  0  0  0
 22 23  1  0  0  0  0
 22 34  1  1  0  0  0
 22 24  1  0  0  0  0
 23 12  1  0  0  0  0
 24 25  1  0  0  0  0
 26 24  2  0  0  0  0
 27 19  1  0  0  0  0
 30 20  1  0  0  0  0
 32 21  1  0  0  0  0
 33 21  1  0  0  0  0
 35 23  1  0  0  0  0
M  END
$$$$
