GAW.pdb
 OpenBabel07022418213D

 43 44  0  0  1  0  0  0  0  0999 V2000
    0.3960   -5.4120   -1.9590 N   0  0  0  0  0  0  0  0  0  0  0  0
    0.4290   -4.3930   -0.9270 C   0  0  0  0  0  0  0  0  0  0  0  0
   -0.3970   -3.2390   -1.3650 C   0  0  0  0  0  0  0  0  0  0  0  0
   -1.0070   -3.1900   -2.4590 O   0  0  0  0  0  0  0  0  0  0  0  0
    0.5910   -6.3580   -1.5140 H   0  0  0  0  0  0  0  0  0  0  0  0
   -0.5590   -5.4830   -2.3930 H   0  0  0  0  0  0  0  0  0  0  0  0
    1.4670   -4.1210   -0.7000 H   0  0  0  0  0  0  0  0  0  0  0  0
    0.0150   -4.8740    0.0030 H   0  0  0  0  0  0  0  0  0  0  0  0
   -2.3620   -0.6850    0.1990 C   0  0  0  0  0  0  0  0  0  0  0  0
   -1.2720   -0.9570   -0.8070 C   0  0  2  0  0  0  0  0  0  0  0  0
   -0.4930   -2.1280   -0.4750 N   0  0  0  0  0  0  0  0  0  0  0  0
   -0.3570    0.2090   -0.7790 C   0  0  0  0  0  0  0  0  0  0  0  0
   -0.7940    1.3760   -1.0620 O   0  0  0  0  0  0  0  0  0  0  0  0
   -2.1310    0.2000    0.8460 H   0  0  0  0  0  0  0  0  0  0  0  0
   -2.5730   -1.5220    0.8660 H   0  0  0  0  0  0  0  0  0  0  0  0
   -3.3210   -0.4210   -0.3180 H   0  0  0  0  0  0  0  0  0  0  0  0
   -1.7500   -1.0770   -1.8010 H   0  0  0  0  0  0  0  0  0  0  0  0
    0.0120   -2.1680    0.4360 H   0  0  0  0  0  0  0  0  0  0  0  0
    1.0190    0.1260   -0.4510 N   0  0  0  0  0  0  0  0  0  0  0  0
    1.8960    1.2680   -0.4330 C   0  0  1  0  0  0  0  0  0  0  0  0
    2.4630    1.5290    0.9290 C   0  0  0  0  0  0  0  0  0  0  0  0
    1.5020    1.8060    1.9840 C   0  0  0  0  0  0  0  0  0  0  0  0
    1.1850    3.1050    2.3960 C   0  0  0  0  0  0  0  0  0  0  0  0
    0.2660    3.0680    3.3450 N   0  0  0  0  0  0  0  0  0  0  0  0
   -0.0510    1.7660    3.5890 C   0  0  0  0  0  0  0  0  0  0  0  0
   -0.9340    1.1830    4.4720 C   0  0  0  0  0  0  0  0  0  0  0  0
   -1.0410   -0.2020    4.5040 C   0  0  0  0  0  0  0  0  0  0  0  0
   -0.2680   -0.9660    3.6570 C   0  0  0  0  0  0  0  0  0  0  0  0
    0.6230   -0.4110    2.7630 C   0  0  0  0  0  0  0  0  0  0  0  0
    0.7170    0.9760    2.7440 C   0  0  0  0  0  0  0  0  0  0  0  0
    3.0420    0.9830   -1.3340 C   0  0  0  0  0  0  0  0  0  0  0  0
    3.9780    1.8110   -1.5150 O   0  0  0  0  0  0  0  0  0  0  0  0
    3.0800   -0.2310   -1.9960 O   0  0  0  0  0  0  0  0  0  0  0  0
    1.4040   -0.8060   -0.2240 H   0  0  0  0  0  0  0  0  0  0  0  0
    1.3550    2.1880   -0.8200 H   0  0  0  0  0  0  0  0  0  0  0  0
    3.0980    0.6340    1.1960 H   0  0  0  0  0  0  0  0  0  0  0  0
    3.2220    2.3560    0.8100 H   0  0  0  0  0  0  0  0  0  0  0  0
    1.6230    4.0230    2.0020 H   0  0  0  0  0  0  0  0  0  0  0  0
   -0.2040    3.8410    3.8810 H   0  0  0  0  0  0  0  0  0  0  0  0
   -1.5500    1.7480    5.1460 H   0  0  0  0  0  0  0  0  0  0  0  0
   -1.7290   -0.6870    5.1900 H   0  0  0  0  0  0  0  0  0  0  0  0
   -0.3370   -2.0620    3.6650 H   0  0  0  0  0  0  0  0  0  0  0  0
    1.2340   -1.0120    2.1090 H   0  0  0  0  0  0  0  0  0  0  0  0
  1  5  1  0  0  0  0
  1  2  1  0  0  0  0
  2  7  1  0  0  0  0
  2  8  1  0  0  0  0
  3  2  1  0  0  0  0
  3 11  1  0  0  0  0
  4  3  2  0  0  0  0
  6  1  1  0  0  0  0
  9 14  1  0  0  0  0
  9 15  1  0  0  0  0
 10 17  1  6  0  0  0
 10 12  1  0  0  0  0
 10 11  1  0  0  0  0
 10  9  1  0  0  0  0
 11 18  1  0  0  0  0
 12 19  1  0  0  0  0
 13 12  2  0  0  0  0
 16  9  1  0  0  0  0
 19 20  1  0  0  0  0
 19 34  1  0  0  0  0
 20 35  1  6  0  0  0
 20 21  1  0  0  0  0
 21 36  1  0  0  0  0
 21 22  1  0  0  0  0
 22 23  2  0  0  0  0
 22 30  1  0  0  0  0
 23 24  1  0  0  0  0
 24 25  1  0  0  0  0
 24 39  1  0  0  0  0
 25 26  1  0  0  0  0
 26 27  2  0  0  0  0
 26 40  1  0  0  0  0
 27 41  1  0  0  0  0
 28 42  1  0  0  0  0
 28 27  1  0  0  0  0
 29 28  2  0  0  0  0
 30 29  1  0  0  0  0
 30 25  2  0  0  0  0
 31 20  1  0  0  0  0
 32 31  1  0  0  0  0
 33 31  2  0  0  0  0
 37 21  1  0  0  0  0
 38 23  1  0  0  0  0
 43 29  1  0  0  0  0
M  END
$$$$
