GCA.pdb
 OpenBabel07022418223D

 30 29  0  0  1  0  0  0  0  0999 V2000
   -0.6610   -5.9360    0.8860 N   0  0  0  0  0  0  0  0  0  0  0  0
    0.4120   -4.9730    0.7350 C   0  0  0  0  0  0  0  0  0  0  0  0
   -0.1090   -3.6450    1.1280 C   0  0  0  0  0  0  0  0  0  0  0  0
   -1.2790   -3.5220    1.5000 O   0  0  0  0  0  0  0  0  0  0  0  0
   -0.9080   -6.0420    1.8960 H   0  0  0  0  0  0  0  0  0  0  0  0
   -1.5150   -5.5040    0.4360 H   0  0  0  0  0  0  0  0  0  0  0  0
    0.7070   -5.0000   -0.3400 H   0  0  0  0  0  0  0  0  0  0  0  0
    1.2720   -5.2780    1.3750 H   0  0  0  0  0  0  0  0  0  0  0  0
    0.7040   -2.4660    1.0940 N   0  0  0  0  0  0  0  0  0  0  0  0
    0.1920   -1.1570    1.4800 C   0  0  1  0  0  0  0  0  0  0  0  0
    0.9510   -0.6540    2.7060 C   0  0  0  0  0  0  0  0  0  0  0  0
    0.7540   -1.7870    4.1020 S   0  0  0  0  0  0  0  0  0  0  0  0
    0.4050   -0.2470    0.3250 C   0  0  0  0  0  0  0  0  0  0  0  0
    0.9470   -0.6410   -0.7610 O   0  0  0  0  0  0  0  0  0  0  0  0
    1.6850   -2.5990    0.7760 H   0  0  0  0  0  0  0  0  0  0  0  0
   -0.8720   -1.2180    1.7870 H   0  0  0  0  0  0  0  0  0  0  0  0
    2.0250   -0.5410    2.4790 H   0  0  0  0  0  0  0  0  0  0  0  0
    0.5690    0.3370    3.0170 H   0  0  0  0  0  0  0  0  0  0  0  0
   -0.6280   -1.9420    4.3390 H   0  0  0  0  0  0  0  0  0  0  0  0
   -1.1060    2.5770   -1.2630 C   0  0  0  0  0  0  0  0  0  0  0  0
    0.2370    2.0030   -0.7910 C   0  0  2  0  0  0  0  0  0  0  0  0
    0.0220    1.1280    0.3460 N   0  0  0  0  0  0  0  0  0  0  0  0
    1.0690    3.1530   -0.3840 C   0  0  0  0  0  0  0  0  0  0  0  0
    1.4600    3.2270    0.8070 O   0  0  0  0  0  0  0  0  0  0  0  0
    1.4350    4.1570   -1.2800 O   0  0  0  0  0  0  0  0  0  0  0  0
   -1.2600    3.6030   -0.9280 H   0  0  0  0  0  0  0  0  0  0  0  0
   -1.2210    2.4390   -2.3690 H   0  0  0  0  0  0  0  0  0  0  0  0
   -1.9050    1.9390   -0.8120 H   0  0  0  0  0  0  0  0  0  0  0  0
    0.7220    1.4650   -1.6350 H   0  0  0  0  0  0  0  0  0  0  0  0
   -0.4230    1.4790    1.2190 H   0  0  0  0  0  0  0  0  0  0  0  0
  1  5  1  0  0  0  0
  2  1  1  0  0  0  0
  2  3  1  0  0  0  0
  2  8  1  0  0  0  0
  3  4  2  0  0  0  0
  6  1  1  0  0  0  0
  7  2  1  0  0  0  0
  9  3  1  0  0  0  0
  9 10  1  0  0  0  0
 10 16  1  1  0  0  0
 10 11  1  0  0  0  0
 11 18  1  0  0  0  0
 11 12  1  0  0  0  0
 12 19  1  0  0  0  0
 13 22  1  0  0  0  0
 13 10  1  0  0  0  0
 14 13  2  0  0  0  0
 15  9  1  0  0  0  0
 17 11  1  0  0  0  0
 20 26  1  0  0  0  0
 20 28  1  0  0  0  0
 20 21  1  0  0  0  0
 21 29  1  6  0  0  0
 21 23  1  0  0  0  0
 21 22  1  0  0  0  0
 22 30  1  0  0  0  0
 23 24  1  0  0  0  0
 25 23  2  0  0  0  0
 27 20  1  0  0  0  0
M  END
$$$$
