GCC.pdb
 OpenBabel07022418223D

 31 30  0  0  1  0  0  0  0  0999 V2000
    2.8250   -4.1940   -0.8340 N   0  0  0  0  0  0  0  0  0  0  0  0
    1.5430   -4.7850   -0.5880 C   0  0  0  0  0  0  0  0  0  0  0  0
    0.6980   -3.8520    0.2110 C   0  0  0  0  0  0  0  0  0  0  0  0
   -0.4760   -4.1900    0.5310 O   0  0  0  0  0  0  0  0  0  0  0  0
    3.4580   -4.3120   -0.0330 H   0  0  0  0  0  0  0  0  0  0  0  0
    2.7940   -3.2630   -1.2620 H   0  0  0  0  0  0  0  0  0  0  0  0
    1.7060   -5.7230    0.0150 H   0  0  0  0  0  0  0  0  0  0  0  0
    1.0140   -5.0560   -1.5310 H   0  0  0  0  0  0  0  0  0  0  0  0
    1.1310   -2.5740    0.6490 N   0  0  0  0  0  0  0  0  0  0  0  0
    0.2670   -1.7110    1.4200 C   0  0  1  0  0  0  0  0  0  0  0  0
    0.8530   -1.3610    2.7700 C   0  0  0  0  0  0  0  0  0  0  0  0
    2.4320   -0.5020    2.6190 S   0  0  0  0  0  0  0  0  0  0  0  0
   -0.0130   -0.4420    0.7020 C   0  0  0  0  0  0  0  0  0  0  0  0
    0.5150   -0.2950   -0.4290 O   0  0  0  0  0  0  0  0  0  0  0  0
    2.0930   -2.2870    0.3930 H   0  0  0  0  0  0  0  0  0  0  0  0
   -0.7370   -2.1930    1.5810 H   0  0  0  0  0  0  0  0  0  0  0  0
    0.1410   -0.7500    3.3460 H   0  0  0  0  0  0  0  0  0  0  0  0
    1.0380   -2.2830    3.3750 H   0  0  0  0  0  0  0  0  0  0  0  0
    3.1730   -0.9870    1.5310 H   0  0  0  0  0  0  0  0  0  0  0  0
   -0.8280    0.5730    1.2320 N   0  0  0  0  0  0  0  0  0  0  0  0
   -1.0750    1.7980    0.4940 C   0  0  1  0  0  0  0  0  0  0  0  0
   -2.5540    1.9260    0.1290 C   0  0  0  0  0  0  0  0  0  0  0  0
   -2.7560    3.4810   -0.7840 S   0  0  0  0  0  0  0  0  0  0  0  0
   -0.7070    2.9960    1.2770 C   0  0  0  0  0  0  0  0  0  0  0  0
   -0.2370    2.9130    2.4340 O   0  0  0  0  0  0  0  0  0  0  0  0
   -0.8770    4.2580    0.7390 O   0  0  0  0  0  0  0  0  0  0  0  0
   -1.2530    0.4230    2.1730 H   0  0  0  0  0  0  0  0  0  0  0  0
   -0.5330    1.7460   -0.4750 H   0  0  0  0  0  0  0  0  0  0  0  0
   -3.1740    1.9930    1.0430 H   0  0  0  0  0  0  0  0  0  0  0  0
   -2.8930    1.0630   -0.4570 H   0  0  0  0  0  0  0  0  0  0  0  0
   -2.8530    3.1400   -2.1550 H   0  0  0  0  0  0  0  0  0  0  0  0
  1  2  1  0  0  0  0
  1  5  1  0  0  0  0
  2  7  1  0  0  0  0
  2  3  1  0  0  0  0
  3  4  2  0  0  0  0
  3  9  1  0  0  0  0
  6  1  1  0  0  0  0
  8  2  1  0  0  0  0
  9 10  1  0  0  0  0
 10 16  1  1  0  0  0
 10 11  1  0  0  0  0
 11 17  1  0  0  0  0
 11 18  1  0  0  0  0
 12 11  1  0  0  0  0
 13 20  1  0  0  0  0
 13 10  1  0  0  0  0
 14 13  2  0  0  0  0
 15  9  1  0  0  0  0
 19 12  1  0  0  0  0
 20 27  1  0  0  0  0
 21 28  1  6  0  0  0
 21 20  1  0  0  0  0
 21 24  1  0  0  0  0
 22 21  1  0  0  0  0
 22 29  1  0  0  0  0
 23 22  1  0  0  0  0
 24 25  1  0  0  0  0
 26 24  2  0  0  0  0
 30 22  1  0  0  0  0
 31 23  1  0  0  0  0
M  END
$$$$
