GCD.pdb
 OpenBabel07022418223D

 33 32  0  0  1  0  0  0  0  0999 V2000
   -1.1300   -5.2070    3.8220 N   0  0  0  0  0  0  0  0  0  0  0  0
   -1.4010   -4.7080    2.4900 C   0  0  0  0  0  0  0  0  0  0  0  0
   -0.4440   -3.6100    2.2040 C   0  0  0  0  0  0  0  0  0  0  0  0
    0.3980   -3.2610    3.0400 O   0  0  0  0  0  0  0  0  0  0  0  0
   -1.8820   -5.7940    4.2080 H   0  0  0  0  0  0  0  0  0  0  0  0
   -0.9720   -4.4140    4.4830 H   0  0  0  0  0  0  0  0  0  0  0  0
   -1.2240   -5.5880    1.8040 H   0  0  0  0  0  0  0  0  0  0  0  0
   -2.4470   -4.3890    2.4610 H   0  0  0  0  0  0  0  0  0  0  0  0
   -0.4480   -2.9090    0.9580 N   0  0  0  0  0  0  0  0  0  0  0  0
    0.4790   -1.8540    0.6970 C   0  0  1  0  0  0  0  0  0  0  0  0
    1.4800   -2.2300   -0.3930 C   0  0  0  0  0  0  0  0  0  0  0  0
    0.6670   -2.6110   -1.9570 S   0  0  0  0  0  0  0  0  0  0  0  0
   -0.1650   -0.5540    0.4050 C   0  0  0  0  0  0  0  0  0  0  0  0
   -1.4100   -0.3870    0.3980 O   0  0  0  0  0  0  0  0  0  0  0  0
   -1.1680   -3.2210    0.2680 H   0  0  0  0  0  0  0  0  0  0  0  0
    1.1170   -1.7300    1.6120 H   0  0  0  0  0  0  0  0  0  0  0  0
    2.0990   -3.0940   -0.0720 H   0  0  0  0  0  0  0  0  0  0  0  0
    2.1860   -1.3950   -0.5850 H   0  0  0  0  0  0  0  0  0  0  0  0
   -0.6620   -2.1560   -1.9030 H   0  0  0  0  0  0  0  0  0  0  0  0
    0.6210    0.5940    0.1120 N   0  0  0  0  0  0  0  0  0  0  0  0
    0.0200    1.9100   -0.1820 C   0  0  1  0  0  0  0  0  0  0  0  0
    0.5630    2.9520    0.7420 C   0  0  0  0  0  0  0  0  0  0  0  0
    0.0100    4.3030    0.5500 C   0  0  0  0  0  0  0  0  0  0  0  0
    0.5430    5.2660    1.2110 O   0  0  0  0  0  0  0  0  0  0  0  0
    0.3380    2.2310   -1.5970 C   0  0  0  0  0  0  0  0  0  0  0  0
   -0.0110    3.2740   -2.1960 O   0  0  0  0  0  0  0  0  0  0  0  0
   -1.0350    4.6420   -0.2770 O   0  0  0  0  0  0  0  0  0  0  0  0
    1.0870    1.2980   -2.3230 O   0  0  0  0  0  0  0  0  0  0  0  0
    1.6590    0.4890    0.1070 H   0  0  0  0  0  0  0  0  0  0  0  0
   -1.0770    1.8590   -0.1130 H   0  0  0  0  0  0  0  0  0  0  0  0
    0.4990    2.6720    1.8050 H   0  0  0  0  0  0  0  0  0  0  0  0
    1.6640    3.0430    0.5070 H   0  0  0  0  0  0  0  0  0  0  0  0
   -1.2140    5.6290   -0.5080 H   0  0  0  0  0  0  0  0  0  0  0  0
  1  5  1  0  0  0  0
  1  6  1  0  0  0  0
  2  1  1  0  0  0  0
  3  2  1  0  0  0  0
  3  4  2  0  0  0  0
  7  2  1  0  0  0  0
  8  2  1  0  0  0  0
  9  3  1  0  0  0  0
 10  9  1  0  0  0  0
 10 16  1  1  0  0  0
 11 17  1  0  0  0  0
 11 10  1  0  0  0  0
 12 19  1  0  0  0  0
 12 11  1  0  0  0  0
 13 10  1  0  0  0  0
 14 13  2  0  0  0  0
 15  9  1  0  0  0  0
 18 11  1  0  0  0  0
 20 13  1  0  0  0  0
 21 30  1  1  0  0  0
 21 20  1  0  0  0  0
 21 22  1  0  0  0  0
 22 31  1  0  0  0  0
 23 22  1  0  0  0  0
 23 24  2  0  0  0  0
 25 21  1  0  0  0  0
 26 25  1  0  0  0  0
 27 23  1  0  0  0  0
 28 25  2  0  0  0  0
 29 20  1  0  0  0  0
 32 22  1  0  0  0  0
 33 27  1  0  0  0  0
M  END
$$$$
