GCH.pdb
 OpenBabel07022418223D

 37 37  0  0  1  0  0  0  0  0999 V2000
   -1.8920   -3.7960    2.8850 N   0  0  0  0  0  0  0  0  0  0  0  0
   -0.6120   -3.8170    3.5570 C   0  0  0  0  0  0  0  0  0  0  0  0
    0.4220   -3.2310    2.6640 C   0  0  0  0  0  0  0  0  0  0  0  0
    1.6230   -3.1670    3.0940 O   0  0  0  0  0  0  0  0  0  0  0  0
   -2.1730   -2.8360    2.6500 H   0  0  0  0  0  0  0  0  0  0  0  0
   -1.9330   -4.4770    2.1080 H   0  0  0  0  0  0  0  0  0  0  0  0
   -0.3620   -4.8860    3.8120 H   0  0  0  0  0  0  0  0  0  0  0  0
   -0.6910   -3.2400    4.5050 H   0  0  0  0  0  0  0  0  0  0  0  0
    0.1140   -2.7480    1.3650 N   0  0  0  0  0  0  0  0  0  0  0  0
    1.0790   -2.1790    0.4790 C   0  0  1  0  0  0  0  0  0  0  0  0
    1.1680   -3.0500   -0.7610 C   0  0  0  0  0  0  0  0  0  0  0  0
   -0.4140   -3.1550   -1.6160 S   0  0  0  0  0  0  0  0  0  0  0  0
    0.7470   -0.7650    0.1080 C   0  0  0  0  0  0  0  0  0  0  0  0
    1.5250   -0.1670   -0.6640 O   0  0  0  0  0  0  0  0  0  0  0  0
   -0.8760   -2.8190    1.0530 H   0  0  0  0  0  0  0  0  0  0  0  0
    2.0950   -2.1590    0.9250 H   0  0  0  0  0  0  0  0  0  0  0  0
    1.4770   -4.0610   -0.3990 H   0  0  0  0  0  0  0  0  0  0  0  0
    1.9940   -2.7090   -1.4210 H   0  0  0  0  0  0  0  0  0  0  0  0
   -1.1130   -4.3360   -1.2970 H   0  0  0  0  0  0  0  0  0  0  0  0
   -0.3740   -0.0930    0.5770 N   0  0  0  0  0  0  0  0  0  0  0  0
   -0.8580    1.2100    0.3870 C   0  0  1  0  0  0  0  0  0  0  0  0
   -0.1500    2.1310   -0.5620 C   0  0  0  0  0  0  0  0  0  0  0  0
    1.2050    2.4820   -0.1030 C   0  0  0  0  0  0  0  0  0  0  0  0
    2.1560    3.2620   -0.7620 C   0  0  0  0  0  0  0  0  0  0  0  0
    3.2540    3.3360   -0.0040 N   0  0  0  0  0  0  0  0  0  0  0  0
    3.0510    2.6300    1.1260 C   0  0  0  0  0  0  0  0  0  0  0  0
    1.8260    2.1350    1.0390 N   0  0  0  0  0  0  0  0  0  0  0  0
   -2.3200    1.3310    0.4020 C   0  0  0  0  0  0  0  0  0  0  0  0
   -3.0110    0.2870    0.5790 O   0  0  0  0  0  0  0  0  0  0  0  0
   -3.0120    2.5160    0.2350 O   0  0  0  0  0  0  0  0  0  0  0  0
   -1.0070   -0.6960    1.2220 H   0  0  0  0  0  0  0  0  0  0  0  0
   -0.5090    1.7320    1.4010 H   0  0  0  0  0  0  0  0  0  0  0  0
   -0.1770    1.7810   -1.6130 H   0  0  0  0  0  0  0  0  0  0  0  0
   -0.7420    3.0850   -0.5580 H   0  0  0  0  0  0  0  0  0  0  0  0
    1.9740    3.7090   -1.7290 H   0  0  0  0  0  0  0  0  0  0  0  0
    4.1170    3.8630   -0.2690 H   0  0  0  0  0  0  0  0  0  0  0  0
    3.7880    2.5270    1.9150 H   0  0  0  0  0  0  0  0  0  0  0  0
  1  2  1  0  0  0  0
  2  7  1  0  0  0  0
  2  8  1  0  0  0  0
  3  4  2  0  0  0  0
  3  2  1  0  0  0  0
  5  1  1  0  0  0  0
  6  1  1  0  0  0  0
  9  3  1  0  0  0  0
 10 16  1  1  0  0  0
 10  9  1  0  0  0  0
 11 17  1  0  0  0  0
 11 10  1  0  0  0  0
 12 19  1  0  0  0  0
 12 11  1  0  0  0  0
 13 10  1  0  0  0  0
 13 20  1  0  0  0  0
 14 13  2  0  0  0  0
 15  9  1  0  0  0  0
 18 11  1  0  0  0  0
 20 31  1  0  0  0  0
 21 28  1  0  0  0  0
 21 20  1  0  0  0  0
 21 32  1  1  0  0  0
 22 34  1  0  0  0  0
 22 23  1  0  0  0  0
 22 21  1  0  0  0  0
 23 27  1  0  0  0  0
 24 23  2  0  0  0  0
 24 25  1  0  0  0  0
 25 26  1  0  0  0  0
 26 37  1  0  0  0  0
 27 26  2  0  0  0  0
 28 29  1  0  0  0  0
 30 28  2  0  0  0  0
 33 22  1  0  0  0  0
 35 24  1  0  0  0  0
 36 25  1  0  0  0  0
M  END
$$$$
