GCI.pdb
 OpenBabel07022418223D

 39 38  0  0  1  0  0  0  0  0999 V2000
   -1.8630   -5.2570    2.7560 N   0  0  0  0  0  0  0  0  0  0  0  0
   -0.4550   -5.2410    3.0820 C   0  0  0  0  0  0  0  0  0  0  0  0
    0.2560   -4.2700    2.2280 C   0  0  0  0  0  0  0  0  0  0  0  0
    1.4960   -4.1350    2.3880 O   0  0  0  0  0  0  0  0  0  0  0  0
   -2.2800   -6.1980    2.7300 H   0  0  0  0  0  0  0  0  0  0  0  0
   -2.4160   -4.5420    3.2610 H   0  0  0  0  0  0  0  0  0  0  0  0
   -0.3520   -4.9330    4.1450 H   0  0  0  0  0  0  0  0  0  0  0  0
   -0.0790   -6.2750    2.9520 H   0  0  0  0  0  0  0  0  0  0  0  0
   -0.3620   -3.4740    1.2360 N   0  0  0  0  0  0  0  0  0  0  0  0
    0.4080   -2.5580    0.4540 C   0  0  1  0  0  0  0  0  0  0  0  0
    0.3980   -2.8900   -1.0180 C   0  0  0  0  0  0  0  0  0  0  0  0
   -1.2530   -2.8740   -1.7260 S   0  0  0  0  0  0  0  0  0  0  0  0
   -0.0160   -1.1590    0.7170 C   0  0  0  0  0  0  0  0  0  0  0  0
   -0.9520   -0.9850    1.5540 O   0  0  0  0  0  0  0  0  0  0  0  0
   -1.3920   -3.5760    1.0920 H   0  0  0  0  0  0  0  0  0  0  0  0
    1.4670   -2.6200    0.7770 H   0  0  0  0  0  0  0  0  0  0  0  0
    0.8250   -3.9020   -1.1320 H   0  0  0  0  0  0  0  0  0  0  0  0
    1.0300   -2.1510   -1.5280 H   0  0  0  0  0  0  0  0  0  0  0  0
   -2.1920   -2.2240   -0.9360 H   0  0  0  0  0  0  0  0  0  0  0  0
    0.9140    4.5370    0.2790 C   0  0  0  0  0  0  0  0  0  0  0  0
    0.8510    3.5290    1.3750 C   0  0  0  0  0  0  0  0  0  0  0  0
    1.1710    2.1190    1.0020 C   0  0  2  0  0  0  0  0  0  0  0  0
    2.5450    1.9660    0.3980 C   0  0  0  0  0  0  0  0  0  0  0  0
    0.0970    1.3000    0.3980 C   0  0  2  0  0  0  0  0  0  0  0  0
    0.5720   -0.0440    0.0830 N   0  0  0  0  0  0  0  0  0  0  0  0
   -0.5370    1.9040   -0.7810 C   0  0  0  0  0  0  0  0  0  0  0  0
   -1.1450    2.9890   -0.8370 O   0  0  0  0  0  0  0  0  0  0  0  0
   -0.4650    1.1970   -1.9960 O   0  0  0  0  0  0  0  0  0  0  0  0
    1.7210    5.3160    0.5250 H   0  0  0  0  0  0  0  0  0  0  0  0
    1.2500    4.1580   -0.7030 H   0  0  0  0  0  0  0  0  0  0  0  0
    0.0020    5.1600    0.2190 H   0  0  0  0  0  0  0  0  0  0  0  0
    1.5430    3.8620    2.2070 H   0  0  0  0  0  0  0  0  0  0  0  0
   -0.1880    3.5440    1.8290 H   0  0  0  0  0  0  0  0  0  0  0  0
    1.3410    1.6270    2.0620 H   0  0  0  0  0  0  0  0  0  0  0  0
    2.5680    2.2180   -0.6800 H   0  0  0  0  0  0  0  0  0  0  0  0
    3.1990    2.7050    0.9050 H   0  0  0  0  0  0  0  0  0  0  0  0
    2.9140    0.9460    0.5990 H   0  0  0  0  0  0  0  0  0  0  0  0
   -0.7280    1.1560    1.1620 H   0  0  0  0  0  0  0  0  0  0  0  0
    1.3380   -0.2290   -0.5980 H   0  0  0  0  0  0  0  0  0  0  0  0
  1  2  1  0  0  0  0
  1  6  1  0  0  0  0
  2  7  1  0  0  0  0
  3  4  2  0  0  0  0
  3  2  1  0  0  0  0
  5  1  1  0  0  0  0
  8  2  1  0  0  0  0
  9  3  1  0  0  0  0
 10 13  1  0  0  0  0
 10 16  1  1  0  0  0
 10  9  1  0  0  0  0
 11 10  1  0  0  0  0
 12 11  1  0  0  0  0
 12 19  1  0  0  0  0
 13 14  2  0  0  0  0
 15  9  1  0  0  0  0
 17 11  1  0  0  0  0
 18 11  1  0  0  0  0
 20 29  1  0  0  0  0
 20 21  1  0  0  0  0
 21 33  1  0  0  0  0
 21 32  1  0  0  0  0
 22 21  1  0  0  0  0
 22 34  1  1  0  0  0
 23 37  1  0  0  0  0
 23 36  1  0  0  0  0
 23 22  1  0  0  0  0
 24 22  1  0  0  0  0
 24 38  1  1  0  0  0
 25 24  1  0  0  0  0
 25 13  1  0  0  0  0
 26 24  1  0  0  0  0
 27 26  1  0  0  0  0
 28 26  2  0  0  0  0
 30 20  1  0  0  0  0
 31 20  1  0  0  0  0
 35 23  1  0  0  0  0
 39 25  1  0  0  0  0
M  END
$$$$
