GCL.pdb
 OpenBabel07022418223D

 39 38  0  0  1  0  0  0  0  0999 V2000
   -2.2100   -3.4360   -0.5630 N   0  0  0  0  0  0  0  0  0  0  0  0
   -2.1740   -4.1820    0.6800 C   0  0  0  0  0  0  0  0  0  0  0  0
   -0.8460   -3.9690    1.3050 C   0  0  0  0  0  0  0  0  0  0  0  0
   -0.6230   -4.5400    2.3990 O   0  0  0  0  0  0  0  0  0  0  0  0
   -2.7620   -3.8820   -1.3050 H   0  0  0  0  0  0  0  0  0  0  0  0
   -2.4770   -2.4440   -0.3670 H   0  0  0  0  0  0  0  0  0  0  0  0
   -2.9330   -3.7870    1.3850 H   0  0  0  0  0  0  0  0  0  0  0  0
   -2.3490   -5.2660    0.5230 H   0  0  0  0  0  0  0  0  0  0  0  0
    0.1610   -3.1570    0.7170 N   0  0  0  0  0  0  0  0  0  0  0  0
    1.4540   -2.9400    1.3110 C   0  0  1  0  0  0  0  0  0  0  0  0
    2.5340   -3.4950    0.4180 C   0  0  0  0  0  0  0  0  0  0  0  0
    2.5520   -2.7260   -1.2120 S   0  0  0  0  0  0  0  0  0  0  0  0
    1.6680   -1.5100    1.6420 C   0  0  0  0  0  0  0  0  0  0  0  0
    2.7490   -1.1420    2.1700 O   0  0  0  0  0  0  0  0  0  0  0  0
   -0.0620   -2.7000   -0.1910 H   0  0  0  0  0  0  0  0  0  0  0  0
    1.5070   -3.5030    2.2660 H   0  0  0  0  0  0  0  0  0  0  0  0
    2.3120   -4.5730    0.2760 H   0  0  0  0  0  0  0  0  0  0  0  0
    3.5260   -3.4260    0.8850 H   0  0  0  0  0  0  0  0  0  0  0  0
    1.2790   -2.5270   -1.7250 H   0  0  0  0  0  0  0  0  0  0  0  0
   -0.0990    3.8870    0.8970 C   0  0  0  0  0  0  0  0  0  0  0  0
    0.9220    3.0140    0.2380 C   0  0  0  0  0  0  0  0  0  0  0  0
    0.9010    3.3690   -1.2690 C   0  0  0  0  0  0  0  0  0  0  0  0
    0.7730    1.5540    0.3590 C   0  0  0  0  0  0  0  0  0  0  0  0
    0.8290    0.8890    1.6830 C   0  0  2  0  0  0  0  0  0  0  0  0
    0.6470   -0.5730    1.3600 N   0  0  0  0  0  0  0  0  0  0  0  0
   -0.1660    1.2500    2.6900 C   0  0  0  0  0  0  0  0  0  0  0  0
   -0.1850    2.3210    3.3140 O   0  0  0  0  0  0  0  0  0  0  0  0
   -1.2060    0.3520    3.0200 O   0  0  0  0  0  0  0  0  0  0  0  0
    0.2860    4.4080    1.8110 H   0  0  0  0  0  0  0  0  0  0  0  0
   -1.0450    3.3370    1.0500 H   0  0  0  0  0  0  0  0  0  0  0  0
   -0.3880    4.7270    0.1580 H   0  0  0  0  0  0  0  0  0  0  0  0
    1.9610    3.3230    0.6190 H   0  0  0  0  0  0  0  0  0  0  0  0
    0.2100    2.7100   -1.8040 H   0  0  0  0  0  0  0  0  0  0  0  0
    0.5400    4.4130   -1.3790 H   0  0  0  0  0  0  0  0  0  0  0  0
    1.9330    3.2970   -1.6850 H   0  0  0  0  0  0  0  0  0  0  0  0
   -0.1760    1.2330   -0.1800 H   0  0  0  0  0  0  0  0  0  0  0  0
    1.6370    1.0920   -0.2370 H   0  0  0  0  0  0  0  0  0  0  0  0
    1.8400    0.9780    2.1340 H   0  0  0  0  0  0  0  0  0  0  0  0
   -0.2280   -0.9130    0.9260 H   0  0  0  0  0  0  0  0  0  0  0  0
  1  6  1  0  0  0  0
  1  2  1  0  0  0  0
  2  3  1  0  0  0  0
  2  7  1  0  0  0  0
  3  4  2  0  0  0  0
  5  1  1  0  0  0  0
  8  2  1  0  0  0  0
  9  3  1  0  0  0  0
  9 10  1  0  0  0  0
 10 13  1  0  0  0  0
 10 16  1  1  0  0  0
 11 18  1  0  0  0  0
 11 10  1  0  0  0  0
 12 11  1  0  0  0  0
 13 14  2  0  0  0  0
 15  9  1  0  0  0  0
 17 11  1  0  0  0  0
 19 12  1  0  0  0  0
 20 30  1  0  0  0  0
 20 29  1  0  0  0  0
 21 23  1  0  0  0  0
 21 32  1  0  0  0  0
 21 20  1  0  0  0  0
 22 21  1  0  0  0  0
 23 24  1  0  0  0  0
 24 38  1  1  0  0  0
 24 26  1  0  0  0  0
 25 13  1  0  0  0  0
 25 24  1  0  0  0  0
 26 28  2  0  0  0  0
 26 27  1  0  0  0  0
 31 20  1  0  0  0  0
 33 22  1  0  0  0  0
 34 22  1  0  0  0  0
 35 22  1  0  0  0  0
 36 23  1  0  0  0  0
 37 23  1  0  0  0  0
 39 25  1  0  0  0  0
M  END
$$$$
