GCM.pdb
 OpenBabel07022418223D

 37 36  0  0  1  0  0  0  0  0999 V2000
    0.6320   -5.4130    0.9580 N   0  0  0  0  0  0  0  0  0  0  0  0
    0.1350   -5.1270   -0.3880 C   0  0  0  0  0  0  0  0  0  0  0  0
   -0.4600   -3.7430   -0.3630 C   0  0  0  0  0  0  0  0  0  0  0  0
   -0.9610   -3.2620   -1.4170 O   0  0  0  0  0  0  0  0  0  0  0  0
   -0.1420   -5.4200    1.6420 H   0  0  0  0  0  0  0  0  0  0  0  0
    1.3810   -4.7770    1.2480 H   0  0  0  0  0  0  0  0  0  0  0  0
    0.9390   -5.2110   -1.1240 H   0  0  0  0  0  0  0  0  0  0  0  0
   -0.6680   -5.8370   -0.5980 H   0  0  0  0  0  0  0  0  0  0  0  0
   -0.4750   -2.9550    0.8200 N   0  0  0  0  0  0  0  0  0  0  0  0
   -1.0570   -1.6490    0.7720 C   0  0  1  0  0  0  0  0  0  0  0  0
   -2.2000   -1.6200    1.7780 C   0  0  0  0  0  0  0  0  0  0  0  0
   -1.5030   -1.9700    3.4110 S   0  0  0  0  0  0  0  0  0  0  0  0
   -0.1030   -0.5840    1.1820 C   0  0  0  0  0  0  0  0  0  0  0  0
    1.0760   -0.8630    1.5260 O   0  0  0  0  0  0  0  0  0  0  0  0
   -0.0520   -3.3830    1.6740 H   0  0  0  0  0  0  0  0  0  0  0  0
   -1.4360   -1.4170   -0.2350 H   0  0  0  0  0  0  0  0  0  0  0  0
   -2.7810   -0.7030    1.7320 H   0  0  0  0  0  0  0  0  0  0  0  0
   -2.8640   -2.4700    1.5180 H   0  0  0  0  0  0  0  0  0  0  0  0
   -2.1730   -1.2850    4.4300 H   0  0  0  0  0  0  0  0  0  0  0  0
    3.3770    0.9820   -2.0600 C   0  0  0  0  0  0  0  0  0  0  0  0
    2.7670    1.6220   -0.4560 S   0  0  0  0  0  0  0  0  0  0  0  0
    1.1250    2.3250   -0.7680 C   0  0  0  0  0  0  0  0  0  0  0  0
    0.5170    2.8900    0.4960 C   0  0  0  0  0  0  0  0  0  0  0  0
    0.3420    1.8660    1.5750 C   0  0  2  0  0  0  0  0  0  0  0  0
   -0.5150    0.7750    1.1920 N   0  0  0  0  0  0  0  0  0  0  0  0
   -0.1660    2.5810    2.7810 C   0  0  0  0  0  0  0  0  0  0  0  0
   -1.2030    2.2800    3.3860 O   0  0  0  0  0  0  0  0  0  0  0  0
    0.6180    3.6580    3.2190 O   0  0  0  0  0  0  0  0  0  0  0  0
    3.0710    1.6730   -2.8810 H   0  0  0  0  0  0  0  0  0  0  0  0
    4.4740    0.8460   -2.0400 H   0  0  0  0  0  0  0  0  0  0  0  0
    2.9230    0.0020   -2.3030 H   0  0  0  0  0  0  0  0  0  0  0  0
    1.2660    3.1810   -1.4600 H   0  0  0  0  0  0  0  0  0  0  0  0
    0.4810    1.5250   -1.1810 H   0  0  0  0  0  0  0  0  0  0  0  0
   -0.4060    3.4390    0.3210 H   0  0  0  0  0  0  0  0  0  0  0  0
    1.2680    3.6360    0.8890 H   0  0  0  0  0  0  0  0  0  0  0  0
    1.3330    1.4580    1.8420 H   0  0  0  0  0  0  0  0  0  0  0  0
   -1.5100    0.9590    0.8960 H   0  0  0  0  0  0  0  0  0  0  0  0
  1  6  1  0  0  0  0
  1  5  1  0  0  0  0
  2  3  1  0  0  0  0
  2  1  1  0  0  0  0
  3  9  1  0  0  0  0
  4  3  2  0  0  0  0
  7  2  1  0  0  0  0
  8  2  1  0  0  0  0
  9 15  1  0  0  0  0
 10 16  1  6  0  0  0
 10  9  1  0  0  0  0
 10 13  1  0  0  0  0
 10 11  1  0  0  0  0
 11 12  1  0  0  0  0
 12 19  1  0  0  0  0
 13 25  1  0  0  0  0
 13 14  2  0  0  0  0
 17 11  1  0  0  0  0
 18 11  1  0  0  0  0
 20 30  1  0  0  0  0
 20 21  1  0  0  0  0
 22 21  1  0  0  0  0
 22 23  1  0  0  0  0
 23 35  1  0  0  0  0
 23 24  1  0  0  0  0
 24 36  1  1  0  0  0
 24 26  1  0  0  0  0
 25 24  1  0  0  0  0
 26 28  2  0  0  0  0
 26 27  1  0  0  0  0
 29 20  1  0  0  0  0
 31 20  1  0  0  0  0
 32 22  1  0  0  0  0
 33 22  1  0  0  0  0
 34 23  1  0  0  0  0
 37 25  1  0  0  0  0
M  END
$$$$
