GCQ.pdb
 OpenBabel07022418223D

 37 36  0  0  1  0  0  0  0  0999 V2000
    0.2220   -4.7210    4.2770 N   0  0  0  0  0  0  0  0  0  0  0  0
    1.4080   -3.9910    4.6120 C   0  0  0  0  0  0  0  0  0  0  0  0
    1.8260   -3.0720    3.4960 C   0  0  0  0  0  0  0  0  0  0  0  0
    2.8400   -2.3690    3.6370 O   0  0  0  0  0  0  0  0  0  0  0  0
   -0.6400   -4.1450    4.2860 H   0  0  0  0  0  0  0  0  0  0  0  0
    0.2910   -5.2200    3.3840 H   0  0  0  0  0  0  0  0  0  0  0  0
    2.2410   -4.7150    4.7330 H   0  0  0  0  0  0  0  0  0  0  0  0
    1.2640   -3.4340    5.5510 H   0  0  0  0  0  0  0  0  0  0  0  0
    1.1010   -2.9770    2.2830 N   0  0  0  0  0  0  0  0  0  0  0  0
    1.4850   -2.1010    1.2020 C   0  0  1  0  0  0  0  0  0  0  0  0
    1.8760   -2.8670   -0.0420 C   0  0  0  0  0  0  0  0  0  0  0  0
    3.2640   -3.9330    0.3440 S   0  0  0  0  0  0  0  0  0  0  0  0
    0.3830   -1.1400    0.9400 C   0  0  0  0  0  0  0  0  0  0  0  0
   -0.6870   -1.1900    1.6390 O   0  0  0  0  0  0  0  0  0  0  0  0
    0.2560   -3.5710    2.1830 H   0  0  0  0  0  0  0  0  0  0  0  0
    2.4200   -1.5580    1.5270 H   0  0  0  0  0  0  0  0  0  0  0  0
    2.2040   -2.1150   -0.7900 H   0  0  0  0  0  0  0  0  0  0  0  0
    1.0210   -3.4050   -0.4950 H   0  0  0  0  0  0  0  0  0  0  0  0
    4.4570   -3.4040   -0.1700 H   0  0  0  0  0  0  0  0  0  0  0  0
   -2.3510    4.3920   -1.8360 N   0  0  0  0  0  0  0  0  0  0  0  0
   -1.2400    3.6660   -1.3300 C   0  0  0  0  0  0  0  0  0  0  0  0
   -0.3490    3.3030   -2.1690 O   0  0  0  0  0  0  0  0  0  0  0  0
   -1.0240    3.3040    0.0690 C   0  0  0  0  0  0  0  0  0  0  0  0
   -0.1670    2.1110    0.1980 C   0  0  0  0  0  0  0  0  0  0  0  0
   -0.6970    0.7980   -0.2800 C   0  0  2  0  0  0  0  0  0  0  0  0
    0.4290   -0.1480   -0.0480 N   0  0  0  0  0  0  0  0  0  0  0  0
   -1.2460    0.6810   -1.5980 C   0  0  0  0  0  0  0  0  0  0  0  0
   -0.6450    0.0030   -2.4880 O   0  0  0  0  0  0  0  0  0  0  0  0
   -2.4370    1.2720   -1.9880 O   0  0  0  0  0  0  0  0  0  0  0  0
   -2.8100    4.1090   -2.7420 H   0  0  0  0  0  0  0  0  0  0  0  0
   -2.7700    5.2230   -1.3620 H   0  0  0  0  0  0  0  0  0  0  0  0
   -1.9710    3.1930    0.6420 H   0  0  0  0  0  0  0  0  0  0  0  0
   -0.4870    4.1510    0.5910 H   0  0  0  0  0  0  0  0  0  0  0  0
    0.1890    1.9750    1.2720 H   0  0  0  0  0  0  0  0  0  0  0  0
    0.8190    2.3290   -0.3330 H   0  0  0  0  0  0  0  0  0  0  0  0
   -1.5140    0.5280    0.4770 H   0  0  0  0  0  0  0  0  0  0  0  0
    1.2820   -0.0710   -0.6400 H   0  0  0  0  0  0  0  0  0  0  0  0
  1  5  1  0  0  0  0
  1  2  1  0  0  0  0
  2  7  1  0  0  0  0
  2  8  1  0  0  0  0
  3  4  2  0  0  0  0
  3  2  1  0  0  0  0
  6  1  1  0  0  0  0
  9  3  1  0  0  0  0
 10 16  1  1  0  0  0
 10  9  1  0  0  0  0
 11 12  1  0  0  0  0
 11 10  1  0  0  0  0
 13 10  1  0  0  0  0
 13 14  2  0  0  0  0
 15  9  1  0  0  0  0
 17 11  1  0  0  0  0
 18 11  1  0  0  0  0
 19 12  1  0  0  0  0
 20 31  1  0  0  0  0
 20 21  1  0  0  0  0
 21 23  1  0  0  0  0
 22 21  2  0  0  0  0
 23 24  1  0  0  0  0
 23 33  1  0  0  0  0
 23 32  1  0  0  0  0
 24 34  1  0  0  0  0
 25 26  1  0  0  0  0
 25 24  1  0  0  0  0
 25 36  1  1  0  0  0
 26 13  1  0  0  0  0
 27 25  1  0  0  0  0
 28 27  2  0  0  0  0
 29 27  1  0  0  0  0
 30 20  1  0  0  0  0
 35 24  1  0  0  0  0
 37 26  1  0  0  0  0
M  END
$$$$
