GDH.pdb
 OpenBabel07022418223D

 39 39  0  0  1  0  0  0  0  0999 V2000
    0.4310   -3.8640    2.0320 N   0  0  0  0  0  0  0  0  0  0  0  0
    1.5800   -4.1180    1.1880 C   0  0  0  0  0  0  0  0  0  0  0  0
    1.4990   -3.1750    0.0150 C   0  0  0  0  0  0  0  0  0  0  0  0
    2.4160   -3.2560   -0.8300 O   0  0  0  0  0  0  0  0  0  0  0  0
    0.5970   -3.0950    2.7090 H   0  0  0  0  0  0  0  0  0  0  0  0
    0.0320   -4.7140    2.4540 H   0  0  0  0  0  0  0  0  0  0  0  0
    1.6300   -5.1620    0.8810 H   0  0  0  0  0  0  0  0  0  0  0  0
    2.5070   -3.8100    1.7570 H   0  0  0  0  0  0  0  0  0  0  0  0
    0.4380   -2.2460   -0.1190 N   0  0  0  0  0  0  0  0  0  0  0  0
    0.3390   -1.3500   -1.2130 C   0  0  1  0  0  0  0  0  0  0  0  0
   -0.9220   -1.4680   -2.0080 C   0  0  0  0  0  0  0  0  0  0  0  0
   -2.1640   -1.2280   -1.2560 C   0  0  0  0  0  0  0  0  0  0  0  0
   -2.5710   -0.0810   -0.9520 O   0  0  0  0  0  0  0  0  0  0  0  0
    0.6930    0.0540   -0.8410 C   0  0  0  0  0  0  0  0  0  0  0  0
    0.5240    1.0220   -1.6220 O   0  0  0  0  0  0  0  0  0  0  0  0
   -2.9910   -2.2700   -0.8190 O   0  0  0  0  0  0  0  0  0  0  0  0
   -0.2770   -2.2800    0.6720 H   0  0  0  0  0  0  0  0  0  0  0  0
    1.1900   -1.6440   -1.9250 H   0  0  0  0  0  0  0  0  0  0  0  0
   -0.9790   -2.5040   -2.4480 H   0  0  0  0  0  0  0  0  0  0  0  0
   -0.9010   -0.7780   -2.9050 H   0  0  0  0  0  0  0  0  0  0  0  0
   -4.0030   -2.1110   -0.7890 H   0  0  0  0  0  0  0  0  0  0  0  0
    1.2550    0.3540    0.4450 N   0  0  0  0  0  0  0  0  0  0  0  0
    1.5930    1.7340    0.7730 C   0  0  1  0  0  0  0  0  0  0  0  0
    1.2000    1.9840    2.1950 C   0  0  0  0  0  0  0  0  0  0  0  0
   -0.2490    1.7690    2.3620 C   0  0  0  0  0  0  0  0  0  0  0  0
   -0.9910    1.8960    3.5390 C   0  0  0  0  0  0  0  0  0  0  0  0
   -2.2680    1.6070    3.2450 N   0  0  0  0  0  0  0  0  0  0  0  0
   -2.3760    1.3040    1.9500 C   0  0  0  0  0  0  0  0  0  0  0  0
   -1.1250    1.4070    1.4150 N   0  0  0  0  0  0  0  0  0  0  0  0
    3.0690    1.9490    0.5870 C   0  0  0  0  0  0  0  0  0  0  0  0
    3.5440    3.0760    0.8090 O   0  0  0  0  0  0  0  0  0  0  0  0
    3.8850    0.9260    0.1800 O   0  0  0  0  0  0  0  0  0  0  0  0
    1.4120   -0.4200    1.1240 H   0  0  0  0  0  0  0  0  0  0  0  0
    1.0750    2.4620    0.1220 H   0  0  0  0  0  0  0  0  0  0  0  0
    1.4160    3.0280    2.5170 H   0  0  0  0  0  0  0  0  0  0  0  0
    1.7630    1.2510    2.8380 H   0  0  0  0  0  0  0  0  0  0  0  0
   -0.5440    2.1790    4.4640 H   0  0  0  0  0  0  0  0  0  0  0  0
   -3.0530    1.6250    3.9530 H   0  0  0  0  0  0  0  0  0  0  0  0
   -3.2860    1.0320    1.4400 H   0  0  0  0  0  0  0  0  0  0  0  0
  1  6  1  0  0  0  0
  1  5  1  0  0  0  0
  2  8  1  0  0  0  0
  2  1  1  0  0  0  0
  3  2  1  0  0  0  0
  4  3  2  0  0  0  0
  7  2  1  0  0  0  0
  9  3  1  0  0  0  0
  9 17  1  0  0  0  0
 10 18  1  6  0  0  0
 10 14  1  0  0  0  0
 10  9  1  0  0  0  0
 11 12  1  0  0  0  0
 11 10  1  0  0  0  0
 12 13  2  0  0  0  0
 12 16  1  0  0  0  0
 14 22  1  0  0  0  0
 15 14  2  0  0  0  0
 16 21  1  0  0  0  0
 19 11  1  0  0  0  0
 20 11  1  0  0  0  0
 22 23  1  0  0  0  0
 22 33  1  0  0  0  0
 23 34  1  6  0  0  0
 23 24  1  0  0  0  0
 24 25  1  0  0  0  0
 24 35  1  0  0  0  0
 24 36  1  0  0  0  0
 25 26  2  0  0  0  0
 26 37  1  0  0  0  0
 27 26  1  0  0  0  0
 27 38  1  0  0  0  0
 28 27  1  0  0  0  0
 29 28  2  0  0  0  0
 29 25  1  0  0  0  0
 30 23  1  0  0  0  0
 30 31  1  0  0  0  0
 32 30  2  0  0  0  0
 39 28  1  0  0  0  0
M  END
$$$$
