GDK.pdb
 OpenBabel07022418223D

 43 42  0  0  1  0  0  0  0  0999 V2000
   -1.9760   -4.7710    0.7200 N   0  0  0  0  0  0  0  0  0  0  0  0
   -0.5650   -5.0360    0.6470 C   0  0  0  0  0  0  0  0  0  0  0  0
    0.1420   -3.8600    0.0920 C   0  0  0  0  0  0  0  0  0  0  0  0
    1.3920   -3.8640   -0.0630 O   0  0  0  0  0  0  0  0  0  0  0  0
   -2.3960   -5.3470    1.4960 H   0  0  0  0  0  0  0  0  0  0  0  0
   -2.4490   -5.1230   -0.1540 H   0  0  0  0  0  0  0  0  0  0  0  0
   -0.2170   -5.2400    1.6850 H   0  0  0  0  0  0  0  0  0  0  0  0
   -0.3670   -5.9210    0.0340 H   0  0  0  0  0  0  0  0  0  0  0  0
   -0.5950   -2.6790   -0.2840 N   0  0  0  0  0  0  0  0  0  0  0  0
    0.0830   -1.5210   -0.8280 C   0  0  1  0  0  0  0  0  0  0  0  0
   -0.3210   -1.2550   -2.2430 C   0  0  0  0  0  0  0  0  0  0  0  0
   -1.7520   -0.9930   -2.4240 C   0  0  0  0  0  0  0  0  0  0  0  0
   -2.5120   -0.9990   -1.4530 O   0  0  0  0  0  0  0  0  0  0  0  0
   -0.0850   -0.4040    0.0820 C   0  0  0  0  0  0  0  0  0  0  0  0
   -0.7390   -0.5480    1.1440 O   0  0  0  0  0  0  0  0  0  0  0  0
   -2.2690   -0.7370   -3.6860 O   0  0  0  0  0  0  0  0  0  0  0  0
   -1.6320   -2.7100   -0.1410 H   0  0  0  0  0  0  0  0  0  0  0  0
    1.1850   -1.7650   -0.8630 H   0  0  0  0  0  0  0  0  0  0  0  0
    0.3110   -0.4540   -2.6790 H   0  0  0  0  0  0  0  0  0  0  0  0
   -0.0860   -2.1710   -2.8490 H   0  0  0  0  0  0  0  0  0  0  0  0
   -3.2580   -0.9580   -3.8410 H   0  0  0  0  0  0  0  0  0  0  0  0
    0.4360    0.8950   -0.1090 N   0  0  0  0  0  0  0  0  0  0  0  0
    0.2560    1.9550    0.7900 C   0  0  1  0  0  0  0  0  0  0  0  0
    1.4260    2.6880    1.2910 C   0  0  0  0  0  0  0  0  0  0  0  0
    2.4600    1.9380    2.0420 C   0  0  0  0  0  0  0  0  0  0  0  0
    1.9920    1.2620    3.2920 C   0  0  0  0  0  0  0  0  0  0  0  0
    3.1410    0.5350    3.9610 C   0  0  0  0  0  0  0  0  0  0  0  0
    2.7530   -0.1320    5.1640 N   0  0  0  0  0  0  0  0  0  0  0  0
   -0.6580    2.9360    0.1330 C   0  0  0  0  0  0  0  0  0  0  0  0
   -0.9560    3.9730    0.7670 O   0  0  0  0  0  0  0  0  0  0  0  0
   -1.1780    2.7440   -1.1320 O   0  0  0  0  0  0  0  0  0  0  0  0
    0.9970    1.0530   -0.9990 H   0  0  0  0  0  0  0  0  0  0  0  0
   -0.3620    1.5660    1.6550 H   0  0  0  0  0  0  0  0  0  0  0  0
    1.0680    3.5100    1.9550 H   0  0  0  0  0  0  0  0  0  0  0  0
    1.9250    3.2060    0.4450 H   0  0  0  0  0  0  0  0  0  0  0  0
    3.0010    1.1730    1.4360 H   0  0  0  0  0  0  0  0  0  0  0  0
    3.2560    2.6590    2.3360 H   0  0  0  0  0  0  0  0  0  0  0  0
    1.1780    0.5510    3.1580 H   0  0  0  0  0  0  0  0  0  0  0  0
    1.6340    2.0110    4.0490 H   0  0  0  0  0  0  0  0  0  0  0  0
    3.6250   -0.1520    3.2180 H   0  0  0  0  0  0  0  0  0  0  0  0
    3.9530    1.2670    4.2440 H   0  0  0  0  0  0  0  0  0  0  0  0
    1.7760   -0.5400    5.0620 H   0  0  0  0  0  0  0  0  0  0  0  0
    3.3620   -0.9240    5.4070 H   0  0  0  0  0  0  0  0  0  0  0  0
  1  5  1  0  0  0  0
  2  1  1  0  0  0  0
  2  7  1  0  0  0  0
  3  2  1  0  0  0  0
  4  3  2  0  0  0  0
  6  1  1  0  0  0  0
  8  2  1  0  0  0  0
  9 17  1  0  0  0  0
  9  3  1  0  0  0  0
 10 18  1  6  0  0  0
 10  9  1  0  0  0  0
 10 14  1  0  0  0  0
 11 10  1  0  0  0  0
 12 11  1  0  0  0  0
 12 13  2  0  0  0  0
 14 15  2  0  0  0  0
 16 12  1  0  0  0  0
 19 11  1  0  0  0  0
 20 11  1  0  0  0  0
 21 16  1  0  0  0  0
 22 14  1  0  0  0  0
 22 23  1  0  0  0  0
 23 24  1  0  0  0  0
 23 33  1  1  0  0  0
 24 34  1  0  0  0  0
 24 25  1  0  0  0  0
 25 37  1  0  0  0  0
 25 26  1  0  0  0  0
 26 27  1  0  0  0  0
 26 39  1  0  0  0  0
 27 41  1  0  0  0  0
 27 28  1  0  0  0  0
 28 43  1  0  0  0  0
 29 30  1  0  0  0  0
 29 23  1  0  0  0  0
 31 29  2  0  0  0  0
 32 22  1  0  0  0  0
 35 24  1  0  0  0  0
 36 25  1  0  0  0  0
 38 26  1  0  0  0  0
 40 27  1  0  0  0  0
 42 28  1  0  0  0  0
M  END
$$$$
