GDQ.pdb
 OpenBabel07022418223D

 39 38  0  0  1  0  0  0  0  0999 V2000
    2.8850   -2.4710   -2.8220 N   0  0  0  0  0  0  0  0  0  0  0  0
    2.2730   -2.4210   -1.5050 C   0  0  0  0  0  0  0  0  0  0  0  0
    0.8330   -2.0700   -1.6030 C   0  0  0  0  0  0  0  0  0  0  0  0
    0.2920   -1.8610   -2.6980 O   0  0  0  0  0  0  0  0  0  0  0  0
    2.2560   -2.9450   -3.4870 H   0  0  0  0  0  0  0  0  0  0  0  0
    3.7520   -3.0310   -2.7250 H   0  0  0  0  0  0  0  0  0  0  0  0
    2.8330   -1.7340   -0.8630 H   0  0  0  0  0  0  0  0  0  0  0  0
    2.2890   -3.4870   -1.1340 H   0  0  0  0  0  0  0  0  0  0  0  0
    0.0830   -1.9770   -0.4120 N   0  0  0  0  0  0  0  0  0  0  0  0
   -1.3410   -1.6400   -0.3660 C   0  0  1  0  0  0  0  0  0  0  0  0
   -2.1130   -2.7100    0.3100 C   0  0  0  0  0  0  0  0  0  0  0  0
   -3.5640   -2.4930    0.3710 C   0  0  0  0  0  0  0  0  0  0  0  0
   -4.1110   -1.5370   -0.2240 O   0  0  0  0  0  0  0  0  0  0  0  0
   -1.4150   -0.3230    0.3570 C   0  0  0  0  0  0  0  0  0  0  0  0
   -2.5000    0.2130    0.5390 O   0  0  0  0  0  0  0  0  0  0  0  0
   -4.4120   -3.3340    1.0900 O   0  0  0  0  0  0  0  0  0  0  0  0
    0.5500   -2.1570    0.4930 H   0  0  0  0  0  0  0  0  0  0  0  0
   -1.6920   -1.5030   -1.3970 H   0  0  0  0  0  0  0  0  0  0  0  0
   -1.9730   -3.6740   -0.2450 H   0  0  0  0  0  0  0  0  0  0  0  0
   -1.7660   -2.8080    1.3660 H   0  0  0  0  0  0  0  0  0  0  0  0
   -5.4030   -3.2800    0.9080 H   0  0  0  0  0  0  0  0  0  0  0  0
    3.8420    0.9590    3.3030 N   0  0  0  0  0  0  0  0  0  0  0  0
    2.5990    1.5540    2.9260 C   0  0  0  0  0  0  0  0  0  0  0  0
    2.6530    2.5830    2.2420 O   0  0  0  0  0  0  0  0  0  0  0  0
    1.3790    0.9280    3.3580 C   0  0  0  0  0  0  0  0  0  0  0  0
    0.0730    1.4910    2.9830 C   0  0  0  0  0  0  0  0  0  0  0  0
   -0.2850    1.6140    1.5540 C   0  0  2  0  0  0  0  0  0  0  0  0
   -0.2480    0.3420    0.8510 N   0  0  0  0  0  0  0  0  0  0  0  0
    0.2730    2.7430    0.8040 C   0  0  0  0  0  0  0  0  0  0  0  0
    0.1690    3.9000    1.2810 O   0  0  0  0  0  0  0  0  0  0  0  0
    0.9180    2.6360   -0.4150 O   0  0  0  0  0  0  0  0  0  0  0  0
    4.3050    0.2150    2.7250 H   0  0  0  0  0  0  0  0  0  0  0  0
    4.3040    1.2760    4.1850 H   0  0  0  0  0  0  0  0  0  0  0  0
    1.3960    0.9360    4.5030 H   0  0  0  0  0  0  0  0  0  0  0  0
    1.3690   -0.1990    3.1740 H   0  0  0  0  0  0  0  0  0  0  0  0
   -0.7120    0.8160    3.4450 H   0  0  0  0  0  0  0  0  0  0  0  0
   -0.0840    2.4570    3.5260 H   0  0  0  0  0  0  0  0  0  0  0  0
   -1.4150    1.8540    1.5750 H   0  0  0  0  0  0  0  0  0  0  0  0
    0.6600   -0.1410    0.6780 H   0  0  0  0  0  0  0  0  0  0  0  0
  1  6  1  0  0  0  0
  1  2  1  0  0  0  0
  2  8  1  0  0  0  0
  2  7  1  0  0  0  0
  3  2  1  0  0  0  0
  3  9  1  0  0  0  0
  4  3  2  0  0  0  0
  5  1  1  0  0  0  0
  9 10  1  0  0  0  0
  9 17  1  0  0  0  0
 10 18  1  6  0  0  0
 10 11  1  0  0  0  0
 10 14  1  0  0  0  0
 11 12  1  0  0  0  0
 11 20  1  0  0  0  0
 12 16  1  0  0  0  0
 13 12  2  0  0  0  0
 14 15  2  0  0  0  0
 14 28  1  0  0  0  0
 19 11  1  0  0  0  0
 21 16  1  0  0  0  0
 22 33  1  0  0  0  0
 23 22  1  0  0  0  0
 23 25  1  0  0  0  0
 24 23  2  0  0  0  0
 25 34  1  0  0  0  0
 26 25  1  0  0  0  0
 26 36  1  0  0  0  0
 26 37  1  0  0  0  0
 27 38  1  1  0  0  0
 27 26  1  0  0  0  0
 28 27  1  0  0  0  0
 29 30  1  0  0  0  0
 29 27  1  0  0  0  0
 31 29  2  0  0  0  0
 32 22  1  0  0  0  0
 35 25  1  0  0  0  0
 39 28  1  0  0  0  0
M  END
$$$$
