GDY.pdb
 OpenBabel07022418223D

 43 43  0  0  1  0  0  0  0  0999 V2000
   -4.3200   -3.4260   -0.5600 N   0  0  0  0  0  0  0  0  0  0  0  0
   -3.4990   -2.2340   -0.4550 C   0  0  0  0  0  0  0  0  0  0  0  0
   -2.0770   -2.5100   -0.6800 C   0  0  0  0  0  0  0  0  0  0  0  0
   -1.7310   -3.7140   -0.9320 O   0  0  0  0  0  0  0  0  0  0  0  0
   -5.1490   -3.3610    0.0800 H   0  0  0  0  0  0  0  0  0  0  0  0
   -3.7830   -4.2890   -0.2640 H   0  0  0  0  0  0  0  0  0  0  0  0
   -3.6310   -1.8360    0.5720 H   0  0  0  0  0  0  0  0  0  0  0  0
   -3.9290   -1.4750   -1.1490 H   0  0  0  0  0  0  0  0  0  0  0  0
   -1.0420   -1.5580   -0.6440 N   0  0  0  0  0  0  0  0  0  0  0  0
    0.3480   -1.8880   -0.8740 C   0  0  1  0  0  0  0  0  0  0  0  0
    0.9120   -1.2470   -2.0900 C   0  0  0  0  0  0  0  0  0  0  0  0
    0.9000    0.2060   -2.1270 C   0  0  0  0  0  0  0  0  0  0  0  0
    1.7840    0.8620   -1.5390 O   0  0  0  0  0  0  0  0  0  0  0  0
    1.1630   -1.7250    0.3560 C   0  0  0  0  0  0  0  0  0  0  0  0
    2.4010   -1.9470    0.3340 O   0  0  0  0  0  0  0  0  0  0  0  0
   -0.0840    0.9080   -2.8100 O   0  0  0  0  0  0  0  0  0  0  0  0
   -1.2990   -0.5640   -0.4390 H   0  0  0  0  0  0  0  0  0  0  0  0
    0.3570   -3.0020   -1.0770 H   0  0  0  0  0  0  0  0  0  0  0  0
    1.9580   -1.6070   -2.2670 H   0  0  0  0  0  0  0  0  0  0  0  0
    0.3350   -1.6650   -2.9680 H   0  0  0  0  0  0  0  0  0  0  0  0
   -0.2550    1.8810   -2.5790 H   0  0  0  0  0  0  0  0  0  0  0  0
    2.6560    4.3580   -0.0420 O   0  0  0  0  0  0  0  0  0  0  0  0
    2.3160    3.3110    0.8390 C   0  0  0  0  0  0  0  0  0  0  0  0
    3.2720    2.7300    1.6470 C   0  0  0  0  0  0  0  0  0  0  0  0
    2.9890    1.7040    2.5230 C   0  0  0  0  0  0  0  0  0  0  0  0
    1.6830    1.2560    2.5740 C   0  0  0  0  0  0  0  0  0  0  0  0
    1.2750    0.1570    3.4890 C   0  0  0  0  0  0  0  0  0  0  0  0
    1.4210   -1.1620    2.8090 C   0  0  2  0  0  0  0  0  0  0  0  0
    0.6310   -1.3210    1.6110 N   0  0  0  0  0  0  0  0  0  0  0  0
    0.9960   -2.2530    3.7590 C   0  0  0  0  0  0  0  0  0  0  0  0
    1.5440   -2.3190    4.8720 O   0  0  0  0  0  0  0  0  0  0  0  0
    0.7090    1.8140    1.7830 C   0  0  0  0  0  0  0  0  0  0  0  0
    1.0300    2.8360    0.9200 C   0  0  0  0  0  0  0  0  0  0  0  0
    0.0200   -3.1730    3.4240 O   0  0  0  0  0  0  0  0  0  0  0  0
    3.4950    4.3230   -0.6090 H   0  0  0  0  0  0  0  0  0  0  0  0
    4.2970    3.1200    1.5710 H   0  0  0  0  0  0  0  0  0  0  0  0
    3.7450    1.2500    3.1570 H   0  0  0  0  0  0  0  0  0  0  0  0
    2.0060    0.1590    4.3380 H   0  0  0  0  0  0  0  0  0  0  0  0
    0.2520    0.3550    3.8560 H   0  0  0  0  0  0  0  0  0  0  0  0
    2.5050   -1.3430    2.6270 H   0  0  0  0  0  0  0  0  0  0  0  0
   -0.3830   -1.1280    1.6800 H   0  0  0  0  0  0  0  0  0  0  0  0
   -0.3110    1.4560    1.8300 H   0  0  0  0  0  0  0  0  0  0  0  0
    0.2430    3.2580    0.3060 H   0  0  0  0  0  0  0  0  0  0  0  0
  1  2  1  0  0  0  0
  1  6  1  0  0  0  0
  1  5  1  0  0  0  0
  2  7  1  0  0  0  0
  3  9  1  0  0  0  0
  3  2  1  0  0  0  0
  4  3  2  0  0  0  0
  8  2  1  0  0  0  0
  9 17  1  0  0  0  0
 10 18  1  6  0  0  0
 10  9  1  0  0  0  0
 10 14  1  0  0  0  0
 11 10  1  0  0  0  0
 12 11  1  0  0  0  0
 12 13  2  0  0  0  0
 14 29  1  0  0  0  0
 15 14  2  0  0  0  0
 16 21  1  0  0  0  0
 16 12  1  0  0  0  0
 19 11  1  0  0  0  0
 20 11  1  0  0  0  0
 22 23  1  0  0  0  0
 23 33  2  0  0  0  0
 23 24  1  0  0  0  0
 24 25  2  0  0  0  0
 25 26  1  0  0  0  0
 25 37  1  0  0  0  0
 26 27  1  0  0  0  0
 27 39  1  0  0  0  0
 27 38  1  0  0  0  0
 28 40  1  6  0  0  0
 28 27  1  0  0  0  0
 28 30  1  0  0  0  0
 29 41  1  0  0  0  0
 29 28  1  0  0  0  0
 30 31  1  0  0  0  0
 32 42  1  0  0  0  0
 32 26  2  0  0  0  0
 33 32  1  0  0  0  0
 34 30  2  0  0  0  0
 35 22  1  0  0  0  0
 36 24  1  0  0  0  0
 43 33  1  0  0  0  0
M  END
$$$$
