GEK.pdb
 OpenBabel07022418223D

 46 45  0  0  1  0  0  0  0  0999 V2000
    2.1570   -3.8650    1.2950 N   0  0  0  0  0  0  0  0  0  0  0  0
    3.3340   -3.2690    0.6670 C   0  0  0  0  0  0  0  0  0  0  0  0
    2.9260   -1.9980   -0.0200 C   0  0  0  0  0  0  0  0  0  0  0  0
    3.8500   -1.3760   -0.6070 O   0  0  0  0  0  0  0  0  0  0  0  0
    2.1820   -3.6890    2.3420 H   0  0  0  0  0  0  0  0  0  0  0  0
    2.0750   -4.8790    1.0860 H   0  0  0  0  0  0  0  0  0  0  0  0
    3.5940   -3.9720   -0.1770 H   0  0  0  0  0  0  0  0  0  0  0  0
    4.1640   -3.1270    1.3590 H   0  0  0  0  0  0  0  0  0  0  0  0
    1.5940   -1.5220   -0.0150 N   0  0  0  0  0  0  0  0  0  0  0  0
    1.2160   -0.2950   -0.6820 C   0  0  1  0  0  0  0  0  0  0  0  0
    0.0950   -0.6290   -1.6060 C   0  0  0  0  0  0  0  0  0  0  0  0
   -0.4670    0.4840   -2.4070 C   0  0  0  0  0  0  0  0  0  0  0  0
    0.5120    1.1100   -3.3030 C   0  0  0  0  0  0  0  0  0  0  0  0
    1.6810    0.6650   -3.3510 O   0  0  0  0  0  0  0  0  0  0  0  0
    0.7110    0.6800    0.3220 C   0  0  0  0  0  0  0  0  0  0  0  0
    0.3300    1.8200   -0.0370 O   0  0  0  0  0  0  0  0  0  0  0  0
    0.1480    2.1900   -4.0940 O   0  0  0  0  0  0  0  0  0  0  0  0
    0.8890   -2.0850    0.4870 H   0  0  0  0  0  0  0  0  0  0  0  0
    2.1080    0.1510   -1.1550 H   0  0  0  0  0  0  0  0  0  0  0  0
   -0.7260   -1.0560   -0.9600 H   0  0  0  0  0  0  0  0  0  0  0  0
    0.4100   -1.4360   -2.3260 H   0  0  0  0  0  0  0  0  0  0  0  0
   -1.2430    0.0180   -3.0880 H   0  0  0  0  0  0  0  0  0  0  0  0
   -1.0520    1.2200   -1.8160 H   0  0  0  0  0  0  0  0  0  0  0  0
    0.8720    2.8570   -4.4020 H   0  0  0  0  0  0  0  0  0  0  0  0
    0.6410    0.3590    1.7280 N   0  0  0  0  0  0  0  0  0  0  0  0
    0.1460    1.3450    2.6260 C   0  0  1  0  0  0  0  0  0  0  0  0
   -0.7840    0.7770    3.6330 C   0  0  0  0  0  0  0  0  0  0  0  0
   -2.0210    0.1150    3.1570 C   0  0  0  0  0  0  0  0  0  0  0  0
   -1.8660   -1.0850    2.2910 C   0  0  0  0  0  0  0  0  0  0  0  0
   -3.2460   -1.6590    1.9050 C   0  0  0  0  0  0  0  0  0  0  0  0
   -3.0750   -2.8110    1.0720 N   0  0  0  0  0  0  0  0  0  0  0  0
    1.2960    2.0370    3.3340 C   0  0  0  0  0  0  0  0  0  0  0  0
    2.4450    1.6610    3.0430 O   0  0  0  0  0  0  0  0  0  0  0  0
    1.1180    3.0360    4.2600 O   0  0  0  0  0  0  0  0  0  0  0  0
    0.9640   -0.5950    1.9940 H   0  0  0  0  0  0  0  0  0  0  0  0
   -0.3750    2.1890    2.0950 H   0  0  0  0  0  0  0  0  0  0  0  0
   -0.2530    0.0650    4.3250 H   0  0  0  0  0  0  0  0  0  0  0  0
   -1.1370    1.5940    4.3480 H   0  0  0  0  0  0  0  0  0  0  0  0
   -2.5540   -0.2480    4.0930 H   0  0  0  0  0  0  0  0  0  0  0  0
   -2.7580    0.8480    2.7290 H   0  0  0  0  0  0  0  0  0  0  0  0
   -1.2830   -1.9000    2.7620 H   0  0  0  0  0  0  0  0  0  0  0  0
   -1.4120   -0.8090    1.3470 H   0  0  0  0  0  0  0  0  0  0  0  0
   -3.8000   -1.8520    2.8290 H   0  0  0  0  0  0  0  0  0  0  0  0
   -3.7510   -0.8120    1.3530 H   0  0  0  0  0  0  0  0  0  0  0  0
   -2.9450   -2.5120    0.0690 H   0  0  0  0  0  0  0  0  0  0  0  0
   -3.9660   -3.3750    1.0810 H   0  0  0  0  0  0  0  0  0  0  0  0
  1  5  1  0  0  0  0
  2  1  1  0  0  0  0
  2  8  1  0  0  0  0
  3  9  1  0  0  0  0
  3  2  1  0  0  0  0
  4  3  2  0  0  0  0
  6  1  1  0  0  0  0
  7  2  1  0  0  0  0
  9 18  1  0  0  0  0
 10 19  1  6  0  0  0
 10  9  1  0  0  0  0
 10 15  1  0  0  0  0
 11 20  1  0  0  0  0
 11 10  1  0  0  0  0
 12 23  1  0  0  0  0
 12 11  1  0  0  0  0
 13 12  1  0  0  0  0
 14 13  2  0  0  0  0
 15 25  1  0  0  0  0
 16 15  2  0  0  0  0
 17 13  1  0  0  0  0
 21 11  1  0  0  0  0
 22 12  1  0  0  0  0
 24 17  1  0  0  0  0
 25 35  1  0  0  0  0
 25 26  1  0  0  0  0
 26 36  1  6  0  0  0
 26 32  1  0  0  0  0
 26 27  1  0  0  0  0
 27 37  1  0  0  0  0
 27 38  1  0  0  0  0
 28 27  1  0  0  0  0
 28 39  1  0  0  0  0
 29 41  1  0  0  0  0
 29 28  1  0  0  0  0
 30 29  1  0  0  0  0
 30 43  1  0  0  0  0
 31 46  1  0  0  0  0
 31 30  1  0  0  0  0
 32 34  1  0  0  0  0
 33 32  2  0  0  0  0
 40 28  1  0  0  0  0
 42 29  1  0  0  0  0
 44 30  1  0  0  0  0
 45 31  1  0  0  0  0
M  END
$$$$
