GEL.pdb
 OpenBabel07022418223D

 44 43  0  0  1  0  0  0  0  0999 V2000
   -3.1620   -2.0170   -1.5230 N   0  0  0  0  0  0  0  0  0  0  0  0
   -2.9530   -3.3060   -0.9520 C   0  0  0  0  0  0  0  0  0  0  0  0
   -1.5830   -3.5470   -0.4860 C   0  0  0  0  0  0  0  0  0  0  0  0
   -1.3030   -4.6540    0.0320 O   0  0  0  0  0  0  0  0  0  0  0  0
   -2.4260   -1.6640   -2.1400 H   0  0  0  0  0  0  0  0  0  0  0  0
   -3.6520   -1.3330   -0.9410 H   0  0  0  0  0  0  0  0  0  0  0  0
   -3.6250   -3.4050   -0.0540 H   0  0  0  0  0  0  0  0  0  0  0  0
   -3.2850   -4.0760   -1.6790 H   0  0  0  0  0  0  0  0  0  0  0  0
   -0.5380   -2.6060   -0.5810 N   0  0  0  0  0  0  0  0  0  0  0  0
    0.7880   -2.8420   -0.1290 C   0  0  1  0  0  0  0  0  0  0  0  0
    1.8670   -2.6620   -1.1380 C   0  0  0  0  0  0  0  0  0  0  0  0
    1.9400   -1.2810   -1.7150 C   0  0  0  0  0  0  0  0  0  0  0  0
    3.0570   -1.2610   -2.6970 C   0  0  0  0  0  0  0  0  0  0  0  0
    3.7620   -2.2750   -2.9360 O   0  0  0  0  0  0  0  0  0  0  0  0
    1.0570   -1.8960    1.0000 C   0  0  0  0  0  0  0  0  0  0  0  0
    2.1900   -1.9550    1.5350 O   0  0  0  0  0  0  0  0  0  0  0  0
    3.3790   -0.1020   -3.4100 O   0  0  0  0  0  0  0  0  0  0  0  0
   -0.7260   -1.6520   -1.0130 H   0  0  0  0  0  0  0  0  0  0  0  0
    0.9020   -3.8630    0.3080 H   0  0  0  0  0  0  0  0  0  0  0  0
    1.8510   -3.4010   -1.9610 H   0  0  0  0  0  0  0  0  0  0  0  0
    2.8350   -2.8340   -0.6070 H   0  0  0  0  0  0  0  0  0  0  0  0
    1.0080   -0.9550   -2.2150 H   0  0  0  0  0  0  0  0  0  0  0  0
    2.2060   -0.5360   -0.9310 H   0  0  0  0  0  0  0  0  0  0  0  0
    4.2440   -0.0060   -3.9270 H   0  0  0  0  0  0  0  0  0  0  0  0
    0.7290    3.7160    2.0950 C   0  0  0  0  0  0  0  0  0  0  0  0
    0.7590    2.4430    3.0040 C   0  0  0  0  0  0  0  0  0  0  0  0
   -0.3030    2.7590    4.0430 C   0  0  0  0  0  0  0  0  0  0  0  0
    0.4540    1.3260    2.0960 C   0  0  0  0  0  0  0  0  0  0  0  0
    0.4480   -0.0710    2.5830 C   0  0  2  0  0  0  0  0  0  0  0  0
    0.0990   -0.9720    1.4590 N   0  0  0  0  0  0  0  0  0  0  0  0
   -0.3520   -0.4080    3.7570 C   0  0  0  0  0  0  0  0  0  0  0  0
   -1.3160   -1.2420    3.6070 O   0  0  0  0  0  0  0  0  0  0  0  0
   -0.1940    0.0630    5.0370 O   0  0  0  0  0  0  0  0  0  0  0  0
   -0.3150    3.9420    1.8150 H   0  0  0  0  0  0  0  0  0  0  0  0
    1.2280    4.5490    2.6220 H   0  0  0  0  0  0  0  0  0  0  0  0
    1.2890    3.5180    1.1640 H   0  0  0  0  0  0  0  0  0  0  0  0
    1.7730    2.3690    3.4040 H   0  0  0  0  0  0  0  0  0  0  0  0
    0.1570    2.6780    5.0440 H   0  0  0  0  0  0  0  0  0  0  0  0
   -0.6130    3.8580    4.0000 H   0  0  0  0  0  0  0  0  0  0  0  0
   -1.2360    2.2210    3.9200 H   0  0  0  0  0  0  0  0  0  0  0  0
   -0.4830    1.5890    1.5250 H   0  0  0  0  0  0  0  0  0  0  0  0
    1.2390    1.3700    1.2670 H   0  0  0  0  0  0  0  0  0  0  0  0
    1.5120   -0.3500    2.8520 H   0  0  0  0  0  0  0  0  0  0  0  0
   -0.8570   -0.9150    1.0150 H   0  0  0  0  0  0  0  0  0  0  0  0
  1  2  1  0  0  0  0
  1  6  1  0  0  0  0
  2  3  1  0  0  0  0
  2  7  1  0  0  0  0
  3  4  2  0  0  0  0
  5  1  1  0  0  0  0
  8  2  1  0  0  0  0
  9  3  1  0  0  0  0
  9 10  1  0  0  0  0
 10 19  1  1  0  0  0
 10 15  1  0  0  0  0
 11 21  1  0  0  0  0
 11 10  1  0  0  0  0
 12 11  1  0  0  0  0
 12 23  1  0  0  0  0
 13 12  1  0  0  0  0
 14 13  2  0  0  0  0
 15 30  1  0  0  0  0
 15 16  2  0  0  0  0
 17 13  1  0  0  0  0
 18  9  1  0  0  0  0
 20 11  1  0  0  0  0
 22 12  1  0  0  0  0
 24 17  1  0  0  0  0
 25 35  1  0  0  0  0
 25 26  1  0  0  0  0
 26 37  1  0  0  0  0
 26 27  1  0  0  0  0
 27 38  1  0  0  0  0
 28 29  1  0  0  0  0
 28 26  1  0  0  0  0
 29 43  1  1  0  0  0
 29 31  1  0  0  0  0
 30 29  1  0  0  0  0
 31 33  1  0  0  0  0
 32 31  2  0  0  0  0
 34 25  1  0  0  0  0
 36 25  1  0  0  0  0
 39 27  1  0  0  0  0
 40 27  1  0  0  0  0
 41 28  1  0  0  0  0
 42 28  1  0  0  0  0
 44 30  1  0  0  0  0
M  END
$$$$
