GEN.pdb
 OpenBabel07022418223D

 39 38  0  0  1  0  0  0  0  0999 V2000
   -2.5590   -1.8240   -1.0010 N   0  0  0  0  0  0  0  0  0  0  0  0
   -2.1820   -3.1710   -0.6310 C   0  0  0  0  0  0  0  0  0  0  0  0
   -0.7660   -3.2180   -0.1880 C   0  0  0  0  0  0  0  0  0  0  0  0
   -0.2990   -4.3390    0.1670 O   0  0  0  0  0  0  0  0  0  0  0  0
   -2.0070   -1.4920   -1.8230 H   0  0  0  0  0  0  0  0  0  0  0  0
   -2.4720   -1.1520   -0.2050 H   0  0  0  0  0  0  0  0  0  0  0  0
   -2.7960   -3.4810    0.2400 H   0  0  0  0  0  0  0  0  0  0  0  0
   -2.3620   -3.8090   -1.5190 H   0  0  0  0  0  0  0  0  0  0  0  0
    0.0230   -2.0340   -0.1700 N   0  0  0  0  0  0  0  0  0  0  0  0
    1.3920   -2.0410    0.2510 C   0  0  1  0  0  0  0  0  0  0  0  0
    2.3490   -1.7010   -0.8710 C   0  0  0  0  0  0  0  0  0  0  0  0
    2.1120   -0.3530   -1.4560 C   0  0  0  0  0  0  0  0  0  0  0  0
    3.0950   -0.1170   -2.5410 C   0  0  0  0  0  0  0  0  0  0  0  0
    3.9340   -1.0170   -2.8040 O   0  0  0  0  0  0  0  0  0  0  0  0
    1.5970   -1.1470    1.4060 C   0  0  0  0  0  0  0  0  0  0  0  0
    2.7080   -0.9890    1.9480 O   0  0  0  0  0  0  0  0  0  0  0  0
    3.1200    1.0640   -3.2760 O   0  0  0  0  0  0  0  0  0  0  0  0
   -0.4340   -1.1430   -0.4780 H   0  0  0  0  0  0  0  0  0  0  0  0
    1.6480   -3.1050    0.5340 H   0  0  0  0  0  0  0  0  0  0  0  0
    2.3060   -2.4460   -1.6900 H   0  0  0  0  0  0  0  0  0  0  0  0
    3.3870   -1.7290   -0.4860 H   0  0  0  0  0  0  0  0  0  0  0  0
    2.1890    0.4430   -0.6880 H   0  0  0  0  0  0  0  0  0  0  0  0
    1.0990   -0.2700   -1.9380 H   0  0  0  0  0  0  0  0  0  0  0  0
    3.7720    1.1090   -4.0470 H   0  0  0  0  0  0  0  0  0  0  0  0
   -1.8330    3.2950    2.1170 N   0  0  0  0  0  0  0  0  0  0  0  0
   -1.2840    2.0150    2.3820 C   0  0  0  0  0  0  0  0  0  0  0  0
   -2.0220    1.0140    2.2410 O   0  0  0  0  0  0  0  0  0  0  0  0
    0.1110    1.8520    2.8120 C   0  0  0  0  0  0  0  0  0  0  0  0
    0.5560    0.4620    3.0400 C   0  0  2  0  0  0  0  0  0  0  0  0
    0.4930   -0.4330    1.9300 N   0  0  0  0  0  0  0  0  0  0  0  0
   -0.2580   -0.1190    4.1510 C   0  0  0  0  0  0  0  0  0  0  0  0
   -0.8630   -1.2240    4.0310 O   0  0  0  0  0  0  0  0  0  0  0  0
   -0.3940    0.5250    5.3770 O   0  0  0  0  0  0  0  0  0  0  0  0
   -2.2920    3.8000    2.9130 H   0  0  0  0  0  0  0  0  0  0  0  0
   -1.7580    3.6780    1.1490 H   0  0  0  0  0  0  0  0  0  0  0  0
    0.8260    2.4320    2.1690 H   0  0  0  0  0  0  0  0  0  0  0  0
    0.1860    2.3750    3.8130 H   0  0  0  0  0  0  0  0  0  0  0  0
    1.6020    0.5000    3.4260 H   0  0  0  0  0  0  0  0  0  0  0  0
   -0.4720   -0.5430    1.4930 H   0  0  0  0  0  0  0  0  0  0  0  0
  1  2  1  0  0  0  0
  1  6  1  0  0  0  0
  2  3  1  0  0  0  0
  2  7  1  0  0  0  0
  3  9  1  0  0  0  0
  3  4  2  0  0  0  0
  5  1  1  0  0  0  0
  8  2  1  0  0  0  0
  9 10  1  0  0  0  0
 10 19  1  1  0  0  0
 10 15  1  0  0  0  0
 11 21  1  0  0  0  0
 11 10  1  0  0  0  0
 12 11  1  0  0  0  0
 12 22  1  0  0  0  0
 13 12  1  0  0  0  0
 14 13  2  0  0  0  0
 15 30  1  0  0  0  0
 15 16  2  0  0  0  0
 17 13  1  0  0  0  0
 18  9  1  0  0  0  0
 20 11  1  0  0  0  0
 23 12  1  0  0  0  0
 24 17  1  0  0  0  0
 25 26  1  0  0  0  0
 25 34  1  0  0  0  0
 26 28  1  0  0  0  0
 27 26  2  0  0  0  0
 28 29  1  0  0  0  0
 28 37  1  0  0  0  0
 29 38  1  1  0  0  0
 29 31  1  0  0  0  0
 30 29  1  0  0  0  0
 31 33  1  0  0  0  0
 32 31  2  0  0  0  0
 35 25  1  0  0  0  0
 36 28  1  0  0  0  0
 39 30  1  0  0  0  0
M  END
$$$$
